=
 OpenBabel11072412493D

 52 56  0  0  1  0  0  0  0  0999 V2000
  161.6460  209.8160  154.4610 N   0  0  0  0  0  0  0  0  0  0  0  0
  163.5330  210.6340  156.5170 N   0  0  0  0  0  1  0  0  0  0  0  0
  159.6700  212.3220  156.1750 C   0  0  0  0  0  0  0  0  0  0  0  0
  160.0990  211.3310  155.2940 C   0  0  0  0  0  0  0  0  0  0  0  0
  159.2890  210.6360  153.9970 S   0  0  0  0  0  0  0  0  0  0  0  0
  160.5760  212.7350  157.1670 C   0  0  0  0  0  3  0  0  0  0  0  0
  162.2300  211.1940  156.3910 C   0  0  0  0  0  0  0  0  0  0  0  0
  160.5950  209.6280  153.6260 C   0  0  0  0  0  0  0  0  0  0  0  0
  161.3580  210.7640  155.3910 C   0  0  0  0  0  0  0  0  0  0  0  0
  161.8170  212.1680  157.2540 N   0  0  0  0  0  0  0  0  0  0  0  0
  155.8290  212.3550  154.8530 O   0  0  0  0  0  0  0  0  0  0  0  0
  158.0000  213.3560  154.6330 C   0  0  0  0  0  0  0  0  0  0  0  0
  158.3080  212.9360  156.0490 C   0  0  1  0  0  3  0  0  0  0  0  0
  157.3350  212.0410  156.5520 O   0  0  0  0  0  0  0  0  0  0  0  0
  156.0590  212.5460  156.2290 C   0  0  2  0  0  3  0  0  0  0  0  0
  158.8820  213.9620  153.9000 N   0  0  0  0  0  0  0  0  0  0  0  0
  156.6860  213.1620  154.1880 O   0  0  0  0  0  0  0  0  0  0  0  0
  154.9940  211.8170  157.0290 C   0  0  0  0  0  2  0  0  0  0  0  0
  155.5330  209.8960  155.7190 O   0  0  0  0  0  1  0  0  0  0  0  0
  153.6820  209.7250  157.1940 C   0  0  0  0  0  1  0  0  0  0  0  0
  154.4680  210.6180  156.2580 C   0  0  1  0  0  3  0  0  0  0  0  0
  158.6000  214.4210  152.5470 C   0  0  0  0  0  2  0  0  0  0  0  0
  159.5630  213.8390  151.6160 N   0  0  0  0  0  2  0  0  0  0  0  0
  158.9420  213.5440  150.3160 C   0  0  1  0  0  3  0  0  0  0  0  0
  157.4450  213.8290  150.3010 C   0  0  0  0  0  1  0  0  0  0  0  0
  159.6720  214.1740  149.1260 C   0  0  2  0  0  3  0  0  0  0  0  0
  159.5850  213.2830  147.9010 C   0  0  0  0  0  1  0  0  0  0  0  0
  161.0090  214.4440  149.4250 O   0  0  0  0  0  1  0  0  0  0  0  0
  160.6250  208.6860  152.4760 C   0  0  0  0  0  2  0  0  0  0  0  0
  160.7310  207.3230  152.9680 N   0  0  0  0  0  2  0  0  0  0  0  0
  162.6990  206.3690  152.1670 O   0  0  0  0  0  1  0  0  0  0  0  0
  161.3370  206.5270  151.9120 C   0  0  2  0  0  3  0  0  0  0  0  0
  161.1710  207.1770  150.6880 O   0  0  0  0  0  0  0  0  0  0  0  0
  162.2230  206.7160  149.8870 C   0  0  2  0  0  3  0  0  0  0  0  0
  160.3230  206.8350  148.1020 C   0  0  0  0  0  1  0  0  0  0  0  0
  162.6860  207.7570  148.8450 C   0  0  1  0  0  3  0  0  0  0  0  0
  161.7960  206.5850  148.4320 C   0  0  1  0  0  0  0  0  0  0  0  0
  162.2250  209.9380  150.0030 O   0  0  0  0  0  1  0  0  0  0  0  0
  161.9850  209.0880  148.9300 C   0  0  0  0  0  0  0  0  0  0  0  0
  161.2450  209.4720  147.9870 O   0  0  0  0  0  0  0  0  0  0  0  0
  162.5280  205.5030  147.6560 C   0  0  0  0  0  2  0  0  0  0  0  0
  162.1160  203.8100  146.1110 C   0  0  0  0  0  2  0  0  0  0  0  0
  161.6330  204.3960  147.3560 N   0  0  0  0  0  0  0  0  0  0  0  0
  161.0530  202.9090  145.4870 C   0  0  0  0  0  2  0  0  0  0  0  0
  159.8620  202.1280  147.3520 C   0  0  0  0  0  2  0  0  0  0  0  0
  160.8200  201.7390  146.3240 N   0  0  0  0  0  2  0  0  0  0  0  0
  160.5630  202.5770  148.6460 C   0  0  2  0  0  3  0  0  0  0  0  0
  161.8350  203.4020  148.4030 C   0  0  0  0  0  2  0  0  0  0  0  0
  159.6690  200.8000  149.9640 F   0  0  0  0  0  0  0  0  0  0  0  0
  161.5250  201.8350  150.6930 F   0  0  0  0  0  0  0  0  0  0  0  0
  161.6330  200.4530  148.9160 F   0  0  0  0  0  0  0  0  0  0  0  0
  160.8540  201.3930  149.5670 C   0  0  0  0  0  0  0  0  0  0  0  0
  1  9  1  0  0  0  0
  3  6  1  0  0  0  0
  4  9  1  0  0  0  0
  4  3  2  0  0  0  0
  5  4  1  0  0  0  0
  6 10  2  0  0  0  0
  7  2  1  0  0  0  0
  7 10  1  0  0  0  0
  8  5  1  0  0  0  0
  8  1  2  0  0  0  0
  9  7  2  0  0  0  0
 11 15  1  0  0  0  0
 12 13  1  0  0  0  0
 13  3  1  6  0  0  0
 13 14  1  0  0  0  0
 15 14  1  0  0  0  0
 15 18  1  1  0  0  0
 16 12  2  0  0  0  0
 17 12  1  0  0  0  0
 17 11  1  0  0  0  0
 19 21  1  0  0  0  0
 21 18  1  0  0  0  0
 21 20  1  1  0  0  0
 22 16  1  0  0  0  0
 23 22  1  0  0  0  0
 24 25  1  1  0  0  0
 24 23  1  0  0  0  0
 26 27  1  6  0  0  0
 26 28  1  0  0  0  0
 26 24  1  0  0  0  0
 29 30  1  0  0  0  0
 29  8  1  0  0  0  0
 32 31  1  1  0  0  0
 32 30  1  0  0  0  0
 33 32  1  0  0  0  0
 34 33  1  1  0  0  0
 36 39  1  1  0  0  0
 36 34  1  0  0  0  0
 37 35  1  6  0  0  0
 37 36  1  0  0  0  0
 37 34  1  0  0  0  0
 39 38  1  0  0  0  0
 40 39  2  0  0  0  0
 41 37  1  0  0  0  0
 42 43  1  0  0  0  0
 43 41  1  0  0  0  0
 43 48  1  0  0  0  0
 44 42  1  0  0  0  0
 44 46  1  0  0  0  0
 45 47  1  0  0  0  0
 46 45  1  0  0  0  0
 47 52  1  6  0  0  0
 48 47  1  0  0  0  0
 51 52  1  0  0  0  0
 52 49  1  0  0  0  0
 52 50  1  0  0  0  0
M  END
>  <MODEL>
1

>  <REMARK>
 VINA RESULT:      -5.8      0.000      0.000
  Name = 
  16 active torsions:
  status: ('A' for Active; 'I' for Inactive)
    1  A    between atoms: N_4  and  C_14
    2  A    between atoms: N_4  and  C_21
    3  A    between atoms: C_6  and  C_36
    4  A    between atoms: C_6  and  C_38
    5  A    between atoms: C_7  and  C_17
    6  A    between atoms: C_8  and  C_21
    7  A    between atoms: N_9  and  C_19
    8  A    between atoms: O_10  and  C_16
    9  A    between atoms: O_10  and  C_18
   10  A    between atoms: C_14  and  N_37
   11  A    between atoms: C_16  and  N_46
   12  A    between atoms: C_19  and  C_42
   13  A    between atoms: C_27  and  C_29
   14  A    between atoms: C_40  and  C_50
   15  A    between atoms: C_45  and  C_49
   16  A    between atoms: N_46  and  C_50
                            x       y       z     vdW  Elec       q    Type
                         _______ _______ _______ _____ _____    ______ ____

>  <TORSDO>
F 16

$$$$
=
 OpenBabel11072412493D

 52 56  0  0  1  0  0  0  0  0999 V2000
  162.3400  208.4520  147.5690 N   0  0  0  0  0  0  0  0  0  0  0  0
  162.6800  206.3920  145.5430 N   0  0  0  0  0  1  0  0  0  0  0  0
  161.1330  205.5640  149.3920 C   0  0  0  0  0  0  0  0  0  0  0  0
  161.5050  206.8590  149.0330 C   0  0  0  0  0  0  0  0  0  0  0  0
  161.4580  208.2710  149.9420 S   0  0  0  0  0  0  0  0  0  0  0  0
  161.3020  204.5560  148.4260 C   0  0  0  0  0  3  0  0  0  0  0  0
  162.1600  206.1270  146.8420 C   0  0  0  0  0  0  0  0  0  0  0  0
  162.0820  209.1960  148.6720 C   0  0  0  0  0  0  0  0  0  0  0  0
  162.0110  207.1500  147.7780 C   0  0  0  0  0  0  0  0  0  0  0  0
  161.8020  204.8560  147.1900 N   0  0  0  0  0  0  0  0  0  0  0  0
  161.4940  204.1410  153.1800 O   0  0  0  0  0  0  0  0  0  0  0  0
  160.5070  203.7780  151.0210 C   0  0  0  0  0  0  0  0  0  0  0  0
  160.5990  205.2620  150.7600 C   0  0  1  0  0  3  0  0  0  0  0  0
  161.3880  205.9170  151.7340 O   0  0  0  0  0  0  0  0  0  0  0  0
  160.9990  205.4490  153.0060 C   0  0  2  0  0  3  0  0  0  0  0  0
  160.0530  202.9600  150.1230 N   0  0  0  0  0  0  0  0  0  0  0  0
  160.8290  203.3440  152.3130 O   0  0  0  0  0  0  0  0  0  0  0  0
  161.5630  206.3540  154.0870 C   0  0  0  0  0  2  0  0  0  0  0  0
  159.8430  206.9840  155.6190 O   0  0  0  0  0  1  0  0  0  0  0  0
  161.2640  208.7030  154.8060 C   0  0  0  0  0  1  0  0  0  0  0  0
  160.5460  207.4090  154.4900 C   0  0  1  0  0  3  0  0  0  0  0  0
  159.9100  201.5310  150.3620 C   0  0  0  0  0  2  0  0  0  0  0  0
  159.7510  200.8290  149.0900 N   0  0  0  0  0  2  0  0  0  0  0  0
  160.8330  201.1660  148.1530 C   0  0  1  0  0  3  0  0  0  0  0  0
  162.1810  200.6020  148.5840 C   0  0  0  0  0  1  0  0  0  0  0  0
  160.5030  200.8510  146.6910 C   0  0  2  0  0  3  0  0  0  0  0  0
  161.2770  199.6390  146.2070 C   0  0  0  0  0  1  0  0  0  0  0  0
  160.7580  201.9420  145.8580 O   0  0  0  0  0  1  0  0  0  0  0  0
  162.3820  210.6490  148.7630 C   0  0  0  0  0  2  0  0  0  0  0  0
  161.2830  211.4080  148.1890 N   0  0  0  0  0  2  0  0  0  0  0  0
  162.1840  213.5210  147.8040 O   0  0  0  0  0  1  0  0  0  0  0  0
  161.8510  212.3100  147.1980 C   0  0  2  0  0  3  0  0  0  0  0  0
  160.9130  212.5420  146.1910 O   0  0  0  0  0  0  0  0  0  0  0  0
  161.5410  213.4280  145.3070 C   0  0  2  0  0  3  0  0  0  0  0  0
  160.0660  212.0890  143.6220 C   0  0  0  0  0  1  0  0  0  0  0  0
  160.5660  214.4530  144.6890 C   0  0  1  0  0  3  0  0  0  0  0  0
  161.0360  213.2430  143.8830 C   0  0  1  0  0  0  0  0  0  0  0  0
  158.8970  214.4370  146.5660 O   0  0  0  0  0  1  0  0  0  0  0  0
  159.1520  214.3670  145.2020 C   0  0  0  0  0  0  0  0  0  0  0  0
  158.1900  214.3150  144.3920 O   0  0  0  0  0  0  0  0  0  0  0  0
  162.0520  213.5800  142.8060 C   0  0  0  0  0  2  0  0  0  0  0  0
  160.8770  214.4400  140.9880 C   0  0  0  0  0  2  0  0  0  0  0  0
  161.5330  213.2380  141.4900 N   0  0  0  0  0  0  0  0  0  0  0  0
  159.9640  214.1080  139.8110 C   0  0  0  0  0  2  0  0  0  0  0  0
  161.0080  212.2430  138.8420 C   0  0  0  0  0  2  0  0  0  0  0  0
  160.7490  213.6670  138.6640 N   0  0  0  0  0  2  0  0  0  0  0  0
  162.3650  211.9910  139.5230 C   0  0  2  0  0  3  0  0  0  0  0  0
  162.6910  212.9950  140.6370 C   0  0  0  0  0  2  0  0  0  0  0  0
  163.7850  213.1930  138.0290 F   0  0  0  0  0  0  0  0  0  0  0  0
  163.1250  211.1270  137.4390 F   0  0  0  0  0  0  0  0  0  0  0  0
  164.6420  211.3970  139.0850 F   0  0  0  0  0  0  0  0  0  0  0  0
  163.5020  211.9250  138.5040 C   0  0  0  0  0  0  0  0  0  0  0  0
  1  9  1  0  0  0  0
  1  8  2  0  0  0  0
  2  7  1  0  0  0  0
  4  3  1  0  0  0  0
  4  5  1  0  0  0  0
  6  3  2  0  0  0  0
  7 10  2  0  0  0  0
  7  9  1  0  0  0  0
  8 29  1  0  0  0  0
  8  5  1  0  0  0  0
  9  4  2  0  0  0  0
 10  6  1  0  0  0  0
 12 17  1  0  0  0  0
 13  3  1  6  0  0  0
 13 12  1  0  0  0  0
 13 14  1  0  0  0  0
 14 15  1  0  0  0  0
 15 11  1  0  0  0  0
 15 18  1  1  0  0  0
 16 22  1  0  0  0  0
 16 12  2  0  0  0  0
 17 11  1  0  0  0  0
 18 21  1  0  0  0  0
 21 20  1  1  0  0  0
 21 19  1  0  0  0  0
 23 22  1  0  0  0  0
 24 25  1  1  0  0  0
 24 23  1  0  0  0  0
 26 27  1  6  0  0  0
 26 24  1  0  0  0  0
 28 26  1  0  0  0  0
 30 29  1  0  0  0  0
 32 31  1  1  0  0  0
 32 30  1  0  0  0  0
 33 32  1  0  0  0  0
 34 33  1  1  0  0  0
 36 39  1  1  0  0  0
 36 34  1  0  0  0  0
 37 35  1  6  0  0  0
 37 36  1  0  0  0  0
 37 34  1  0  0  0  0
 39 38  1  0  0  0  0
 40 39  2  0  0  0  0
 41 37  1  0  0  0  0
 42 43  1  0  0  0  0
 43 41  1  0  0  0  0
 44 42  1  0  0  0  0
 45 47  1  0  0  0  0
 46 45  1  0  0  0  0
 46 44  1  0  0  0  0
 47 52  1  6  0  0  0
 47 48  1  0  0  0  0
 48 43  1  0  0  0  0
 49 52  1  0  0  0  0
 50 52  1  0  0  0  0
 52 51  1  0  0  0  0
M  END
>  <MODEL>
2

>  <REMARK>
 VINA RESULT:      -5.3      6.033     10.702
  Name = 
  16 active torsions:
  status: ('A' for Active; 'I' for Inactive)
    1  A    between atoms: N_4  and  C_14
    2  A    between atoms: N_4  and  C_21
    3  A    between atoms: C_6  and  C_36
    4  A    between atoms: C_6  and  C_38
    5  A    between atoms: C_7  and  C_17
    6  A    between atoms: C_8  and  C_21
    7  A    between atoms: N_9  and  C_19
    8  A    between atoms: O_10  and  C_16
    9  A    between atoms: O_10  and  C_18
   10  A    between atoms: C_14  and  N_37
   11  A    between atoms: C_16  and  N_46
   12  A    between atoms: C_19  and  C_42
   13  A    between atoms: C_27  and  C_29
   14  A    between atoms: C_40  and  C_50
   15  A    between atoms: C_45  and  C_49
   16  A    between atoms: N_46  and  C_50
                            x       y       z     vdW  Elec       q    Type
                         _______ _______ _______ _____ _____    ______ ____

>  <TORSDO>
F 16

$$$$
=
 OpenBabel11072412493D

 52 56  0  0  1  0  0  0  0  0999 V2000
  159.3370  213.8280  145.7440 N   0  0  0  0  0  0  0  0  0  0  0  0
  156.4600  213.6630  146.1390 N   0  0  0  0  0  1  0  0  0  0  0  0
  159.2270  212.9700  149.2610 C   0  0  0  0  0  0  0  0  0  0  0  0
  159.6620  213.2960  147.9780 C   0  0  0  0  0  0  0  0  0  0  0  0
  161.2290  213.4630  147.3950 S   0  0  0  0  0  0  0  0  0  0  0  0
  157.8390  212.8760  149.4640 C   0  0  0  0  0  3  0  0  0  0  0  0
  157.4020  213.4330  147.1810 C   0  0  0  0  0  0  0  0  0  0  0  0
  160.6890  213.8390  145.8380 C   0  0  0  0  0  0  0  0  0  0  0  0
  158.7720  213.5290  146.9430 C   0  0  0  0  0  0  0  0  0  0  0  0
  156.9700  213.1090  148.4350 N   0  0  0  0  0  0  0  0  0  0  0  0
  160.5170  210.9450  152.5390 O   0  0  0  0  0  0  0  0  0  0  0  0
  159.6240  213.0210  151.7260 C   0  0  0  0  0  0  0  0  0  0  0  0
  160.2030  212.7070  150.3680 C   0  0  1  0  0  3  0  0  0  0  0  0
  160.6630  211.3720  150.2910 O   0  0  0  0  0  0  0  0  0  0  0  0
  161.4060  211.0910  151.4560 C   0  0  2  0  0  3  0  0  0  0  0  0
  158.9230  214.0930  151.9320 N   0  0  0  0  0  0  0  0  0  0  0  0
  159.9720  212.1600  152.7750 O   0  0  0  0  0  0  0  0  0  0  0  0
  162.1970  209.8080  151.2710 C   0  0  0  0  0  2  0  0  0  0  0  0
  161.3260  207.9940  149.9860 O   0  0  0  0  0  1  0  0  0  0  0  0
  161.7000  207.6120  152.2980 C   0  0  0  0  0  1  0  0  0  0  0  0
  161.2690  208.6040  151.2390 C   0  0  1  0  0  3  0  0  0  0  0  0
  158.3900  214.4450  153.2400 C   0  0  0  0  0  2  0  0  0  0  0  0
  157.1400  213.7260  153.4760 N   0  0  0  0  0  2  0  0  0  0  0  0
  156.6590  213.9250  154.8510 C   0  0  1  0  0  3  0  0  0  0  0  0
  155.2170  214.4140  154.9050 C   0  0  0  0  0  1  0  0  0  0  0  0
  156.9080  212.7270  155.7720 C   0  0  2  0  0  3  0  0  0  0  0  0
  157.2330  211.4810  154.9690 C   0  0  0  0  0  1  0  0  0  0  0  0
  155.8170  212.4830  156.6080 O   0  0  0  0  0  1  0  0  0  0  0  0
  161.5850  214.0890  144.6780 C   0  0  0  0  0  2  0  0  0  0  0  0
  161.7680  212.8550  143.9330 N   0  0  0  0  0  2  0  0  0  0  0  0
  163.6650  214.1400  143.5150 O   0  0  0  0  0  1  0  0  0  0  0  0
  162.9370  213.0310  143.0840 C   0  0  2  0  0  3  0  0  0  0  0  0
  162.5260  213.2350  141.7660 O   0  0  0  0  0  0  0  0  0  0  0  0
  162.2780  211.9530  141.2610 C   0  0  2  0  0  3  0  0  0  0  0  0
  160.3270  213.2640  140.1270 C   0  0  0  0  0  1  0  0  0  0  0  0
  162.5240  211.8480  139.7400 C   0  0  1  0  0  3  0  0  0  0  0  0
  161.1030  211.9560  140.2930 C   0  0  1  0  0  0  0  0  0  0  0  0
  164.4230  213.3380  139.0480 O   0  0  0  0  0  1  0  0  0  0  0  0
  163.0550  213.1040  139.1000 C   0  0  0  0  0  0  0  0  0  0  0  0
  162.2650  213.9050  138.5340 O   0  0  0  0  0  0  0  0  0  0  0  0
  160.3250  210.6520  140.2440 C   0  0  0  0  0  2  0  0  0  0  0  0
  159.6760  209.3010  138.4610 C   0  0  0  0  0  2  0  0  0  0  0  0
  159.4710  210.6120  139.0660 N   0  0  0  0  0  0  0  0  0  0  0  0
  159.1530  209.2770  137.0280 C   0  0  0  0  0  2  0  0  0  0  0  0
  157.4040  210.8410  137.0770 C   0  0  0  0  0  2  0  0  0  0  0  0
  157.7020  209.4150  137.0110 N   0  0  0  0  0  2  0  0  0  0  0  0
  157.1600  211.3060  138.5230 C   0  0  2  0  0  3  0  0  0  0  0  0
  158.0950  210.6500  139.5480 C   0  0  0  0  0  2  0  0  0  0  0  0
  155.5040  209.8600  139.4490 F   0  0  0  0  0  0  0  0  0  0  0  0
  154.8840  211.2830  137.8250 F   0  0  0  0  0  0  0  0  0  0  0  0
  155.3470  212.0630  139.8890 F   0  0  0  0  0  0  0  0  0  0  0  0
  155.6980  211.1280  138.9330 C   0  0  0  0  0  0  0  0  0  0  0  0
  1  8  2  0  0  0  0
  1  9  1  0  0  0  0
  2  7  1  0  0  0  0
  3  6  1  0  0  0  0
  4  3  2  0  0  0  0
  5  4  1  0  0  0  0
  7 10  1  0  0  0  0
  8  5  1  0  0  0  0
  9  7  2  0  0  0  0
  9  4  1  0  0  0  0
 10  6  2  0  0  0  0
 11 17  1  0  0  0  0
 12 16  2  0  0  0  0
 12 17  1  0  0  0  0
 13  3  1  6  0  0  0
 13 12  1  0  0  0  0
 14 13  1  0  0  0  0
 14 15  1  0  0  0  0
 15 18  1  6  0  0  0
 15 11  1  0  0  0  0
 16 22  1  0  0  0  0
 19 21  1  0  0  0  0
 21 18  1  0  0  0  0
 21 20  1  1  0  0  0
 22 23  1  0  0  0  0
 23 24  1  0  0  0  0
 24 25  1  6  0  0  0
 24 26  1  0  0  0  0
 26 27  1  6  0  0  0
 26 28  1  0  0  0  0
 29  8  1  0  0  0  0
 30 29  1  0  0  0  0
 32 31  1  1  0  0  0
 32 30  1  0  0  0  0
 33 32  1  0  0  0  0
 34 33  1  6  0  0  0
 36 39  1  6  0  0  0
 36 37  1  0  0  0  0
 36 34  1  0  0  0  0
 37 35  1  6  0  0  0
 37 34  1  0  0  0  0
 38 39  1  0  0  0  0
 40 39  2  0  0  0  0
 41 37  1  0  0  0  0
 42 43  1  0  0  0  0
 43 48  1  0  0  0  0
 43 41  1  0  0  0  0
 44 42  1  0  0  0  0
 45 47  1  0  0  0  0
 46 44  1  0  0  0  0
 46 45  1  0  0  0  0
 47 52  1  1  0  0  0
 47 48  1  0  0  0  0
 50 52  1  0  0  0  0
 52 49  1  0  0  0  0
 52 51  1  0  0  0  0
M  END
>  <MODEL>
3

>  <REMARK>
 VINA RESULT:      -4.6      7.177      9.888
  Name = 
  16 active torsions:
  status: ('A' for Active; 'I' for Inactive)
    1  A    between atoms: N_4  and  C_14
    2  A    between atoms: N_4  and  C_21
    3  A    between atoms: C_6  and  C_36
    4  A    between atoms: C_6  and  C_38
    5  A    between atoms: C_7  and  C_17
    6  A    between atoms: C_8  and  C_21
    7  A    between atoms: N_9  and  C_19
    8  A    between atoms: O_10  and  C_16
    9  A    between atoms: O_10  and  C_18
   10  A    between atoms: C_14  and  N_37
   11  A    between atoms: C_16  and  N_46
   12  A    between atoms: C_19  and  C_42
   13  A    between atoms: C_27  and  C_29
   14  A    between atoms: C_40  and  C_50
   15  A    between atoms: C_45  and  C_49
   16  A    between atoms: N_46  and  C_50
                            x       y       z     vdW  Elec       q    Type
                         _______ _______ _______ _____ _____    ______ ____

>  <TORSDO>
F 16

$$$$
=
 OpenBabel11072412493D

 52 56  0  0  1  0  0  0  0  0999 V2000
  160.8770  204.6160  153.2200 N   0  0  0  0  0  0  0  0  0  0  0  0
  160.2100  202.2110  151.7280 N   0  0  0  0  0  1  0  0  0  0  0  0
  161.7640  205.6800  149.8730 C   0  0  0  0  0  0  0  0  0  0  0  0
  161.5490  205.6380  151.2490 C   0  0  0  0  0  0  0  0  0  0  0  0
  161.8070  206.8330  152.4030 S   0  0  0  0  0  0  0  0  0  0  0  0
  161.4350  204.5280  149.1370 C   0  0  0  0  0  3  0  0  0  0  0  0
  160.7340  203.3850  151.1160 C   0  0  0  0  0  0  0  0  0  0  0  0
  161.2650  205.8390  153.6590 C   0  0  0  0  0  0  0  0  0  0  0  0
  161.0440  204.5120  151.8760 C   0  0  0  0  0  0  0  0  0  0  0  0
  160.9370  203.4210  149.7660 N   0  0  0  0  0  0  0  0  0  0  0  0
  161.3480  209.0770  147.6840 O   0  0  0  0  0  0  0  0  0  0  0  0
  162.2060  206.8340  147.7030 C   0  0  0  0  0  0  0  0  0  0  0  0
  162.2990  206.9120  149.2080 C   0  0  1  0  0  3  0  0  0  0  0  0
  161.6360  208.0530  149.7150 O   0  0  0  0  0  0  0  0  0  0  0  0
  162.0020  209.1650  148.9280 C   0  0  2  0  0  3  0  0  0  0  0  0
  162.5200  205.7520  147.0610 N   0  0  0  0  0  0  0  0  0  0  0  0
  161.8740  208.0170  147.0300 O   0  0  0  0  0  0  0  0  0  0  0  0
  161.5980  210.4510  149.6260 C   0  0  0  0  0  2  0  0  0  0  0  0
  163.2790  211.3990  148.2200 O   0  0  0  0  0  1  0  0  0  0  0  0
  161.0210  211.9700  147.7590 C   0  0  0  0  0  1  0  0  0  0  0  0
  162.0500  211.6620  148.8260 C   0  0  1  0  0  3  0  0  0  0  0  0
  162.4840  205.6610  145.6080 C   0  0  0  0  0  2  0  0  0  0  0  0
  162.3790  204.2620  145.2020 N   0  0  0  0  0  2  0  0  0  0  0  0
  161.0570  203.7060  145.5250 C   0  0  1  0  0  3  0  0  0  0  0  0
  159.9610  204.2140  144.5970 C   0  0  0  0  0  1  0  0  0  0  0  0
  161.0470  202.1810  145.6680 C   0  0  2  0  0  3  0  0  0  0  0  0
  159.8060  201.5830  145.0320 C   0  0  0  0  0  1  0  0  0  0  0  0
  161.1330  201.7880  147.0050 O   0  0  0  0  0  1  0  0  0  0  0  0
  161.1580  206.2670  155.0790 C   0  0  0  0  0  2  0  0  0  0  0  0
  160.9360  207.7020  155.1370 N   0  0  0  0  0  2  0  0  0  0  0  0
  159.4860  207.3740  156.9300 O   0  0  0  0  0  1  0  0  0  0  0  0
  160.6420  208.0390  156.5220 C   0  0  2  0  0  3  0  0  0  0  0  0
  160.4430  209.4160  156.6310 O   0  0  0  0  0  0  0  0  0  0  0  0
  160.7440  209.9270  155.3620 C   0  0  2  0  0  3  0  0  0  0  0  0
  160.0420  212.1290  156.5760 C   0  0  0  0  0  1  0  0  0  0  0  0
  161.9960  210.8310  155.3610 C   0  0  1  0  0  3  0  0  0  0  0  0
  160.5960  211.4420  155.3260 C   0  0  1  0  0  0  0  0  0  0  0  0
  163.3100  209.8140  157.2440 O   0  0  0  0  0  0  0  0  0  0  0  0
  162.7020  210.9320  156.6880 C   0  0  0  0  0  0  0  0  0  0  0  0
  162.8170  212.0490  157.2570 O   0  0  0  0  0  1  0  0  0  0  0  0
  160.2060  212.0040  153.9700 C   0  0  0  0  0  2  0  0  0  0  0  0
  158.6810  213.2490  152.7240 C   0  0  0  0  0  2  0  0  0  0  0  0
  158.9880  212.7930  154.0750 N   0  0  0  0  0  0  0  0  0  0  0  0
  157.6720  214.3930  152.7540 C   0  0  0  0  0  2  0  0  0  0  0  0
  156.4260  213.9490  154.6930 C   0  0  0  0  0  2  0  0  0  0  0  0
  156.3800  213.9220  153.2360 N   0  0  0  0  0  2  0  0  0  0  0  0
  156.8360  212.5850  155.2760 C   0  0  2  0  0  3  0  0  0  0  0  0
  157.9280  211.8710  154.4670 C   0  0  0  0  0  2  0  0  0  0  0  0
  155.0780  211.3400  154.2490 F   0  0  0  0  0  0  0  0  0  0  0  0
  154.6670  212.3290  156.2240 F   0  0  0  0  0  0  0  0  0  0  0  0
  155.9990  210.5120  156.1300 F   0  0  0  0  0  0  0  0  0  0  0  0
  155.6260  211.6720  155.4740 C   0  0  0  0  0  0  0  0  0  0  0  0
  1  8  2  0  0  0  0
  3  4  1  0  0  0  0
  4  9  2  0  0  0  0
  4  5  1  0  0  0  0
  5  8  1  0  0  0  0
  6 10  1  0  0  0  0
  6  3  2  0  0  0  0
  7  2  1  0  0  0  0
  7  9  1  0  0  0  0
  8 29  1  0  0  0  0
  9  1  1  0  0  0  0
 10  7  2  0  0  0  0
 11 15  1  0  0  0  0
 12 13  1  0  0  0  0
 13 14  1  0  0  0  0
 13  3  1  1  0  0  0
 15 18  1  1  0  0  0
 15 14  1  0  0  0  0
 16 12  2  0  0  0  0
 17 11  1  0  0  0  0
 17 12  1  0  0  0  0
 19 21  1  0  0  0  0
 21 20  1  6  0  0  0
 21 18  1  0  0  0  0
 22 16  1  0  0  0  0
 23 24  1  0  0  0  0
 23 22  1  0  0  0  0
 24 25  1  6  0  0  0
 24 26  1  0  0  0  0
 26 27  1  1  0  0  0
 26 28  1  0  0  0  0
 29 30  1  0  0  0  0
 30 32  1  0  0  0  0
 32 33  1  0  0  0  0
 32 31  1  6  0  0  0
 34 33  1  1  0  0  0
 36 34  1  0  0  0  0
 36 39  1  1  0  0  0
 37 36  1  0  0  0  0
 37 34  1  0  0  0  0
 37 35  1  1  0  0  0
 39 38  2  0  0  0  0
 39 40  1  0  0  0  0
 41 43  1  0  0  0  0
 41 37  1  0  0  0  0
 42 44  1  0  0  0  0
 42 43  1  0  0  0  0
 43 48  1  0  0  0  0
 44 46  1  0  0  0  0
 45 47  1  0  0  0  0
 46 45  1  0  0  0  0
 47 52  1  6  0  0  0
 48 47  1  0  0  0  0
 49 52  1  0  0  0  0
 52 51  1  0  0  0  0
 52 50  1  0  0  0  0
M  END
>  <MODEL>
4

>  <REMARK>
 VINA RESULT:      -4.3      3.911     10.248
  Name = 
  16 active torsions:
  status: ('A' for Active; 'I' for Inactive)
    1  A    between atoms: N_4  and  C_14
    2  A    between atoms: N_4  and  C_21
    3  A    between atoms: C_6  and  C_36
    4  A    between atoms: C_6  and  C_38
    5  A    between atoms: C_7  and  C_17
    6  A    between atoms: C_8  and  C_21
    7  A    between atoms: N_9  and  C_19
    8  A    between atoms: O_10  and  C_16
    9  A    between atoms: O_10  and  C_18
   10  A    between atoms: C_14  and  N_37
   11  A    between atoms: C_16  and  N_46
   12  A    between atoms: C_19  and  C_42
   13  A    between atoms: C_27  and  C_29
   14  A    between atoms: C_40  and  C_50
   15  A    between atoms: C_45  and  C_49
   16  A    between atoms: N_46  and  C_50
                            x       y       z     vdW  Elec       q    Type
                         _______ _______ _______ _____ _____    ______ ____

>  <TORSDO>
F 16

$$$$
=
 OpenBabel11072412493D

 52 56  0  0  1  0  0  0  0  0999 V2000
  161.2500  211.3790  150.7720 N   0  0  0  0  0  0  0  0  0  0  0  0
  160.6010  213.9170  149.5090 N   0  0  0  0  0  1  0  0  0  0  0  0
  159.1320  212.8350  153.3250 C   0  0  0  0  0  0  0  0  0  0  0  0
  159.9650  211.9780  152.6080 C   0  0  0  0  0  0  0  0  0  0  0  0
  160.5270  210.4490  153.0200 S   0  0  0  0  0  0  0  0  0  0  0  0
  158.8010  214.0620  152.7220 C   0  0  0  0  0  3  0  0  0  0  0  0
  160.1140  213.5410  150.7930 C   0  0  0  0  0  0  0  0  0  0  0  0
  161.3890  210.2950  151.5740 C   0  0  0  0  0  0  0  0  0  0  0  0
  160.4580  212.3140  151.3590 C   0  0  0  0  0  0  0  0  0  0  0  0
  159.2950  214.3840  151.4880 N   0  0  0  0  0  0  0  0  0  0  0  0
  158.3610  213.5550  157.2480 O   0  0  0  0  0  0  0  0  0  0  0  0
  159.6910  212.2940  155.6980 C   0  0  0  0  0  0  0  0  0  0  0  0
  158.5960  212.4510  154.6710 C   0  0  1  0  0  3  0  0  0  0  0  0
  157.6250  213.3930  155.0830 O   0  0  0  0  0  0  0  0  0  0  0  0
  157.2960  213.1310  156.4290 C   0  0  2  0  0  3  0  0  0  0  0  0
  160.8000  211.6810  155.4170 N   0  0  0  0  0  0  0  0  0  0  0  0
  159.4090  212.7400  156.9950 O   0  0  0  0  0  0  0  0  0  0  0  0
  156.0310  213.8800  156.8100 C   0  0  0  0  0  2  0  0  0  0  0  0
  153.6970  213.3810  156.8570 O   0  0  0  0  0  1  0  0  0  0  0  0
  155.1980  211.5550  156.6360 C   0  0  0  0  0  1  0  0  0  0  0  0
  154.9480  212.9120  157.2590 C   0  0  1  0  0  3  0  0  0  0  0  0
  161.8550  211.4740  156.3980 C   0  0  0  0  0  2  0  0  0  0  0  0
  161.5410  210.3110  157.2250 N   0  0  0  0  0  2  0  0  0  0  0  0
  161.2110  209.1400  156.4010 C   0  0  1  0  0  3  0  0  0  0  0  0
  162.3240  208.1000  156.3820 C   0  0  0  0  0  1  0  0  0  0  0  0
  159.8420  208.5290  156.7150 C   0  0  2  0  0  3  0  0  0  0  0  0
  159.7780  207.0790  156.2750 C   0  0  0  0  0  1  0  0  0  0  0  0
  158.8050  209.2530  156.1230 O   0  0  0  0  0  1  0  0  0  0  0  0
  162.1610  209.0860  151.1840 C   0  0  0  0  0  2  0  0  0  0  0  0
  161.5330  208.4610  150.0330 N   0  0  0  0  0  2  0  0  0  0  0  0
  162.2240  209.9720  148.4000 O   0  0  0  0  0  1  0  0  0  0  0  0
  162.4070  208.6790  148.8900 C   0  0  2  0  0  3  0  0  0  0  0  0
  162.0970  207.7590  147.8870 O   0  0  0  0  0  0  0  0  0  0  0  0
  162.2520  206.5030  148.4860 C   0  0  2  0  0  3  0  0  0  0  0  0
  159.7560  206.3360  147.7400 C   0  0  0  0  0  1  0  0  0  0  0  0
  162.1890  205.3410  147.4710 C   0  0  1  0  0  3  0  0  0  0  0  0
  160.9860  205.6660  148.3560 C   0  0  1  0  0  0  0  0  0  0  0  0
  160.8090  206.0980  145.5140 O   0  0  0  0  0  1  0  0  0  0  0  0
  162.0550  205.7670  146.0330 C   0  0  0  0  0  0  0  0  0  0  0  0
  163.0830  205.9070  145.3190 O   0  0  0  0  0  0  0  0  0  0  0  0
  160.7700  204.6740  149.4850 C   0  0  0  0  0  2  0  0  0  0  0  0
  160.5700  202.4230  150.0510 C   0  0  0  0  0  2  0  0  0  0  0  0
  161.1410  203.3320  149.0630 N   0  0  0  0  0  0  0  0  0  0  0  0
  161.2080  201.0400  149.9480 C   0  0  0  0  0  2  0  0  0  0  0  0
  161.7900  200.8940  147.6790 C   0  0  0  0  0  2  0  0  0  0  0  0
  160.8530  200.4060  148.6850 N   0  0  0  0  0  2  0  0  0  0  0  0
  161.2290  202.1060  146.9170 C   0  0  2  0  0  3  0  0  0  0  0  0
  160.4480  203.0850  147.8040 C   0  0  0  0  0  2  0  0  0  0  0  0
  159.0540  201.5990  146.0760 F   0  0  0  0  0  0  0  0  0  0  0  0
  160.8010  200.4280  145.2830 F   0  0  0  0  0  0  0  0  0  0  0  0
  160.5230  202.5820  144.6800 F   0  0  0  0  0  0  0  0  0  0  0  0
  160.3870  201.6750  145.7160 C   0  0  0  0  0  0  0  0  0  0  0  0
  1  9  1  0  0  0  0
  1  8  2  0  0  0  0
  2  7  1  0  0  0  0
  4  5  1  0  0  0  0
  4  3  2  0  0  0  0
  6  3  1  0  0  0  0
  7  9  2  0  0  0  0
  7 10  1  0  0  0  0
  8  5  1  0  0  0  0
  9  4  1  0  0  0  0
 10  6  2  0  0  0  0
 12 17  1  0  0  0  0
 13  3  1  6  0  0  0
 13 14  1  0  0  0  0
 13 12  1  0  0  0  0
 14 15  1  0  0  0  0
 15 18  1  1  0  0  0
 15 11  1  0  0  0  0
 16 12  2  0  0  0  0
 16 22  1  0  0  0  0
 17 11  1  0  0  0  0
 18 21  1  0  0  0  0
 19 21  1  0  0  0  0
 21 20  1  6  0  0  0
 22 23  1  0  0  0  0
 24 25  1  1  0  0  0
 24 26  1  0  0  0  0
 24 23  1  0  0  0  0
 26 27  1  6  0  0  0
 28 26  1  0  0  0  0
 29  8  1  0  0  0  0
 30 29  1  0  0  0  0
 32 31  1  6  0  0  0
 32 30  1  0  0  0  0
 33 32  1  0  0  0  0
 34 33  1  6  0  0  0
 36 39  1  6  0  0  0
 36 37  1  0  0  0  0
 36 34  1  0  0  0  0
 37 35  1  6  0  0  0
 37 34  1  0  0  0  0
 37 41  1  0  0  0  0
 38 39  1  0  0  0  0
 40 39  2  0  0  0  0
 43 41  1  0  0  0  0
 43 42  1  0  0  0  0
 44 42  1  0  0  0  0
 45 46  1  0  0  0  0
 46 44  1  0  0  0  0
 47 52  1  6  0  0  0
 47 45  1  0  0  0  0
 47 48  1  0  0  0  0
 48 43  1  0  0  0  0
 50 52  1  0  0  0  0
 51 52  1  0  0  0  0
 52 49  1  0  0  0  0
M  END
>  <MODEL>
5

>  <REMARK>
 VINA RESULT:      -3.8      2.266      4.717
  Name = 
  16 active torsions:
  status: ('A' for Active; 'I' for Inactive)
    1  A    between atoms: N_4  and  C_14
    2  A    between atoms: N_4  and  C_21
    3  A    between atoms: C_6  and  C_36
    4  A    between atoms: C_6  and  C_38
    5  A    between atoms: C_7  and  C_17
    6  A    between atoms: C_8  and  C_21
    7  A    between atoms: N_9  and  C_19
    8  A    between atoms: O_10  and  C_16
    9  A    between atoms: O_10  and  C_18
   10  A    between atoms: C_14  and  N_37
   11  A    between atoms: C_16  and  N_46
   12  A    between atoms: C_19  and  C_42
   13  A    between atoms: C_27  and  C_29
   14  A    between atoms: C_40  and  C_50
   15  A    between atoms: C_45  and  C_49
   16  A    between atoms: N_46  and  C_50
                            x       y       z     vdW  Elec       q    Type
                         _______ _______ _______ _____ _____    ______ ____

>  <TORSDO>
F 16

$$$$
=
 OpenBabel11072412493D

 52 56  0  0  1  0  0  0  0  0999 V2000
  162.2170  208.8030  147.8020 N   0  0  0  0  0  0  0  0  0  0  0  0
  162.0130  206.6200  145.8910 N   0  0  0  0  0  1  0  0  0  0  0  0
  160.9270  206.1920  149.9560 C   0  0  0  0  0  0  0  0  0  0  0  0
  161.4020  207.4070  149.4660 C   0  0  0  0  0  0  0  0  0  0  0  0
  161.6590  208.8550  150.2780 S   0  0  0  0  0  0  0  0  0  0  0  0
  160.8330  205.1250  149.0450 C   0  0  0  0  0  3  0  0  0  0  0  0
  161.6500  206.4900  147.2610 C   0  0  0  0  0  0  0  0  0  0  0  0
  162.2090  209.6280  148.8780 C   0  0  0  0  0  0  0  0  0  0  0  0
  161.7610  207.5680  148.1390 C   0  0  0  0  0  0  0  0  0  0  0  0
  161.1890  205.2960  147.7370 N   0  0  0  0  0  0  0  0  0  0  0  0
  161.8250  205.8240  153.9010 O   0  0  0  0  0  0  0  0  0  0  0  0
  160.9900  204.6950  151.9530 C   0  0  0  0  0  0  0  0  0  0  0  0
  160.5550  206.0290  151.3990 C   0  0  1  0  0  3  0  0  0  0  0  0
  161.0830  207.1050  152.1500 O   0  0  0  0  0  0  0  0  0  0  0  0
  160.9040  206.8190  153.5200 C   0  0  2  0  0  3  0  0  0  0  0  0
  160.8330  203.5980  151.2790 N   0  0  0  0  0  0  0  0  0  0  0  0
  161.4650  204.6830  153.2710 O   0  0  0  0  0  0  0  0  0  0  0  0
  161.1360  208.0710  154.3460 C   0  0  0  0  0  2  0  0  0  0  0  0
  161.1390  207.6920  156.7040 O   0  0  0  0  0  1  0  0  0  0  0  0
  159.7050  209.3910  155.8750 C   0  0  0  0  0  1  0  0  0  0  0  0
  160.3180  208.0300  155.6270 C   0  0  1  0  0  3  0  0  0  0  0  0
  161.2000  202.2910  151.8050 C   0  0  0  0  0  2  0  0  0  0  0  0
  160.7540  201.2450  150.8880 N   0  0  0  0  0  2  0  0  0  0  0  0
  161.1570  201.5360  149.5050 C   0  0  1  0  0  3  0  0  0  0  0  0
  161.9650  200.4070  148.8760 C   0  0  0  0  0  1  0  0  0  0  0  0
  160.0040  202.0030  148.6110 C   0  0  2  0  0  3  0  0  0  0  0  0
  158.7040  201.3270  149.0020 C   0  0  0  0  0  1  0  0  0  0  0  0
  160.2730  201.7720  147.2600 O   0  0  0  0  0  1  0  0  0  0  0  0
  162.6970  211.0310  148.8330 C   0  0  0  0  0  2  0  0  0  0  0  0
  161.5970  211.9150  148.4850 N   0  0  0  0  0  2  0  0  0  0  0  0
  162.3190  213.9500  147.6100 O   0  0  0  0  0  1  0  0  0  0  0  0
  161.9840  212.6360  147.2820 C   0  0  2  0  0  3  0  0  0  0  0  0
  160.9160  212.6450  146.3830 O   0  0  0  0  0  0  0  0  0  0  0  0
  161.1550  213.7420  145.5470 C   0  0  2  0  0  3  0  0  0  0  0  0
  160.0830  212.0970  143.8280 C   0  0  0  0  0  1  0  0  0  0  0  0
  159.8560  214.4220  145.0620 C   0  0  1  0  0  3  0  0  0  0  0  0
  160.6370  213.4880  144.1380 C   0  0  1  0  0  0  0  0  0  0  0  0
  158.6290  213.0800  146.7940 O   0  0  0  0  0  1  0  0  0  0  0  0
  158.5890  213.8400  145.6320 C   0  0  0  0  0  0  0  0  0  0  0  0
  157.4790  214.1090  145.1040 O   0  0  0  0  0  0  0  0  0  0  0  0
  161.4070  214.2100  143.0450 C   0  0  0  0  0  2  0  0  0  0  0  0
  161.9700  212.1720  142.0680 C   0  0  0  0  0  2  0  0  0  0  0  0
  161.3460  213.4630  141.7990 N   0  0  0  0  0  0  0  0  0  0  0  0
  162.3210  211.4570  140.7660 C   0  0  0  0  0  2  0  0  0  0  0  0
  160.6940  212.2500  139.2720 C   0  0  0  0  0  2  0  0  0  0  0  0
  161.1110  211.0850  140.0450 N   0  0  0  0  0  2  0  0  0  0  0  0
  159.6570  213.0960  140.0300 C   0  0  2  0  0  3  0  0  0  0  0  0
  159.9340  213.2090  141.5350 C   0  0  0  0  0  2  0  0  0  0  0  0
  158.1590  211.2380  140.0140 F   0  0  0  0  0  0  0  0  0  0  0  0
  157.8830  212.8380  138.4620 F   0  0  0  0  0  0  0  0  0  0  0  0
  157.3390  213.2490  140.6110 F   0  0  0  0  0  0  0  0  0  0  0  0
  158.2330  212.5980  139.7780 C   0  0  0  0  0  0  0  0  0  0  0  0
  1  9  1  0  0  0  0
  1  8  2  0  0  0  0
  2  7  1  0  0  0  0
  4  3  1  0  0  0  0
  4  5  1  0  0  0  0
  6  3  2  0  0  0  0
  7 10  2  0  0  0  0
  7  9  1  0  0  0  0
  8  5  1  0  0  0  0
  9  4  2  0  0  0  0
 10  6  1  0  0  0  0
 12 17  1  0  0  0  0
 13  3  1  6  0  0  0
 13 12  1  0  0  0  0
 13 14  1  0  0  0  0
 14 15  1  0  0  0  0
 15 11  1  0  0  0  0
 15 18  1  1  0  0  0
 16 22  1  0  0  0  0
 16 12  2  0  0  0  0
 17 11  1  0  0  0  0
 18 21  1  0  0  0  0
 21 20  1  1  0  0  0
 21 19  1  0  0  0  0
 23 22  1  0  0  0  0
 24 25  1  6  0  0  0
 24 23  1  0  0  0  0
 26 27  1  1  0  0  0
 26 24  1  0  0  0  0
 28 26  1  0  0  0  0
 29  8  1  0  0  0  0
 30 29  1  0  0  0  0
 32 31  1  1  0  0  0
 32 30  1  0  0  0  0
 33 32  1  0  0  0  0
 34 33  1  1  0  0  0
 36 34  1  0  0  0  0
 36 39  1  1  0  0  0
 37 35  1  6  0  0  0
 37 36  1  0  0  0  0
 37 34  1  0  0  0  0
 39 38  1  0  0  0  0
 40 39  2  0  0  0  0
 41 37  1  0  0  0  0
 43 42  1  0  0  0  0
 43 41  1  0  0  0  0
 44 42  1  0  0  0  0
 45 47  1  0  0  0  0
 45 46  1  0  0  0  0
 46 44  1  0  0  0  0
 47 52  1  1  0  0  0
 47 48  1  0  0  0  0
 48 43  1  0  0  0  0
 50 52  1  0  0  0  0
 52 49  1  0  0  0  0
 52 51  1  0  0  0  0
M  END
>  <MODEL>
6

>  <REMARK>
 VINA RESULT:      -3.5      5.668     10.082
  Name = 
  16 active torsions:
  status: ('A' for Active; 'I' for Inactive)
    1  A    between atoms: N_4  and  C_14
    2  A    between atoms: N_4  and  C_21
    3  A    between atoms: C_6  and  C_36
    4  A    between atoms: C_6  and  C_38
    5  A    between atoms: C_7  and  C_17
    6  A    between atoms: C_8  and  C_21
    7  A    between atoms: N_9  and  C_19
    8  A    between atoms: O_10  and  C_16
    9  A    between atoms: O_10  and  C_18
   10  A    between atoms: C_14  and  N_37
   11  A    between atoms: C_16  and  N_46
   12  A    between atoms: C_19  and  C_42
   13  A    between atoms: C_27  and  C_29
   14  A    between atoms: C_40  and  C_50
   15  A    between atoms: C_45  and  C_49
   16  A    between atoms: N_46  and  C_50
                            x       y       z     vdW  Elec       q    Type
                         _______ _______ _______ _____ _____    ______ ____

>  <TORSDO>
F 16

$$$$
=
 OpenBabel11072412493D

 52 56  0  0  1  0  0  0  0  0999 V2000
  159.5390  213.8370  144.9300 N   0  0  0  0  0  0  0  0  0  0  0  0
  156.7150  214.0620  145.5870 N   0  0  0  0  0  1  0  0  0  0  0  0
  159.6440  213.0350  148.4610 C   0  0  0  0  0  0  0  0  0  0  0  0
  159.9970  213.2880  147.1370 C   0  0  0  0  0  0  0  0  0  0  0  0
  161.5120  213.2390  146.4110 S   0  0  0  0  0  0  0  0  0  0  0  0
  158.2800  213.1290  148.7900 C   0  0  0  0  0  3  0  0  0  0  0  0
  157.7100  213.7180  146.5450 C   0  0  0  0  0  0  0  0  0  0  0  0
  160.8840  213.6690  144.9010 C   0  0  0  0  0  0  0  0  0  0  0  0
  159.0540  213.6280  146.1820 C   0  0  0  0  0  0  0  0  0  0  0  0
  157.3570  213.4660  147.8390 N   0  0  0  0  0  0  0  0  0  0  0  0
  161.0810  210.6830  151.4450 O   0  0  0  0  0  0  0  0  0  0  0  0
  160.1740  212.8360  150.8920 C   0  0  0  0  0  0  0  0  0  0  0  0
  160.6750  212.6550  149.4800 C   0  0  1  0  0  3  0  0  0  0  0  0
  161.1100  211.3300  149.2450 O   0  0  0  0  0  0  0  0  0  0  0  0
  161.9120  210.9280  150.3340 C   0  0  2  0  0  3  0  0  0  0  0  0
  159.5010  213.8880  151.2420 N   0  0  0  0  0  0  0  0  0  0  0  0
  160.5670  211.8720  151.8300 O   0  0  0  0  0  0  0  0  0  0  0  0
  162.6730  209.6630  149.9790 C   0  0  0  0  0  2  0  0  0  0  0  0
  161.5710  208.0820  148.5690 O   0  0  0  0  0  1  0  0  0  0  0  0
  162.3120  207.3210  150.6920 C   0  0  0  0  0  1  0  0  0  0  0  0
  161.7320  208.4730  149.8990 C   0  0  1  0  0  3  0  0  0  0  0  0
  159.0450  214.1130  152.6060 C   0  0  0  0  0  2  0  0  0  0  0  0
  159.3070  212.9280  153.4190 N   0  0  0  0  0  2  0  0  0  0  0  0
  158.5340  212.9520  154.6680 C   0  0  1  0  0  3  0  0  0  0  0  0
  157.1030  212.4610  154.4850 C   0  0  0  0  0  1  0  0  0  0  0  0
  159.2410  212.2750  155.8460 C   0  0  2  0  0  3  0  0  0  0  0  0
  159.7560  213.3020  156.8360 C   0  0  0  0  0  1  0  0  0  0  0  0
  160.2900  211.4590  155.4170 O   0  0  0  0  0  1  0  0  0  0  0  0
  161.6930  213.7860  143.6600 C   0  0  0  0  0  2  0  0  0  0  0  0
  161.0740  213.0060  142.6020 N   0  0  0  0  0  2  0  0  0  0  0  0
  162.9630  213.8290  141.5150 O   0  0  0  0  0  1  0  0  0  0  0  0
  162.1000  212.7370  141.6050 C   0  0  2  0  0  3  0  0  0  0  0  0
  161.4960  212.5250  140.3650 O   0  0  0  0  0  0  0  0  0  0  0  0
  160.3370  211.7910  140.6470 C   0  0  2  0  0  3  0  0  0  0  0  0
  159.6450  212.8600  138.3680 C   0  0  0  0  0  1  0  0  0  0  0  0
  160.1200  210.6120  139.6740 C   0  0  1  0  0  3  0  0  0  0  0  0
  159.3210  211.9060  139.5190 C   0  0  1  0  0  0  0  0  0  0  0  0
  162.5430  210.6560  139.0140 O   0  0  0  0  0  1  0  0  0  0  0  0
  161.2200  210.4190  138.6630 C   0  0  0  0  0  0  0  0  0  0  0  0
  160.9530  209.9610  137.5210 O   0  0  0  0  0  0  0  0  0  0  0  0
  157.8730  211.7880  139.9630 C   0  0  0  0  0  2  0  0  0  0  0  0
  157.4870  209.8700  138.6990 C   0  0  0  0  0  2  0  0  0  0  0  0
  157.0520  211.2490  138.8890 N   0  0  0  0  0  0  0  0  0  0  0  0
  156.9920  209.3240  137.3620 C   0  0  0  0  0  2  0  0  0  0  0  0
  154.9990  210.5130  137.0110 C   0  0  0  0  0  2  0  0  0  0  0  0
  155.5400  209.2060  137.3650 N   0  0  0  0  0  2  0  0  0  0  0  0
  154.6630  211.3480  138.2590 C   0  0  2  0  0  3  0  0  0  0  0  0
  155.6850  211.2010  139.3940 C   0  0  0  0  0  2  0  0  0  0  0  0
  153.0460  209.6940  138.8470 F   0  0  0  0  0  0  0  0  0  0  0  0
  152.3240  211.5910  137.8830 F   0  0  0  0  0  0  0  0  0  0  0  0
  153.0580  211.6210  140.0140 F   0  0  0  0  0  0  0  0  0  0  0  0
  153.2490  211.0600  138.7640 C   0  0  0  0  0  0  0  0  0  0  0  0
  1  9  1  0  0  0  0
  2  7  1  0  0  0  0
  3  6  1  0  0  0  0
  4  3  2  0  0  0  0
  5  4  1  0  0  0  0
  7 10  1  0  0  0  0
  8  1  2  0  0  0  0
  8  5  1  0  0  0  0
  9  7  2  0  0  0  0
  9  4  1  0  0  0  0
 10  6  2  0  0  0  0
 11 17  1  0  0  0  0
 12 16  2  0  0  0  0
 12 17  1  0  0  0  0
 13  3  1  6  0  0  0
 13 12  1  0  0  0  0
 14 13  1  0  0  0  0
 14 15  1  0  0  0  0
 15 18  1  6  0  0  0
 15 11  1  0  0  0  0
 16 22  1  0  0  0  0
 19 21  1  0  0  0  0
 21 18  1  0  0  0  0
 21 20  1  1  0  0  0
 22 23  1  0  0  0  0
 23 24  1  0  0  0  0
 24 25  1  6  0  0  0
 24 26  1  0  0  0  0
 26 27  1  1  0  0  0
 28 26  1  0  0  0  0
 29  8  1  0  0  0  0
 30 29  1  0  0  0  0
 32 31  1  6  0  0  0
 32 30  1  0  0  0  0
 33 32  1  0  0  0  0
 34 33  1  6  0  0  0
 36 39  1  6  0  0  0
 36 34  1  0  0  0  0
 37 35  1  6  0  0  0
 37 36  1  0  0  0  0
 37 41  1  0  0  0  0
 37 34  1  0  0  0  0
 39 38  1  0  0  0  0
 40 39  2  0  0  0  0
 42 43  1  0  0  0  0
 43 48  1  0  0  0  0
 43 41  1  0  0  0  0
 44 46  1  0  0  0  0
 44 42  1  0  0  0  0
 45 46  1  0  0  0  0
 45 47  1  0  0  0  0
 47 52  1  1  0  0  0
 47 48  1  0  0  0  0
 50 52  1  0  0  0  0
 52 49  1  0  0  0  0
 52 51  1  0  0  0  0
M  END
>  <MODEL>
7

>  <REMARK>
 VINA RESULT:      -3.0      7.626     10.561
  Name = 
  16 active torsions:
  status: ('A' for Active; 'I' for Inactive)
    1  A    between atoms: N_4  and  C_14
    2  A    between atoms: N_4  and  C_21
    3  A    between atoms: C_6  and  C_36
    4  A    between atoms: C_6  and  C_38
    5  A    between atoms: C_7  and  C_17
    6  A    between atoms: C_8  and  C_21
    7  A    between atoms: N_9  and  C_19
    8  A    between atoms: O_10  and  C_16
    9  A    between atoms: O_10  and  C_18
   10  A    between atoms: C_14  and  N_37
   11  A    between atoms: C_16  and  N_46
   12  A    between atoms: C_19  and  C_42
   13  A    between atoms: C_27  and  C_29
   14  A    between atoms: C_40  and  C_50
   15  A    between atoms: C_45  and  C_49
   16  A    between atoms: N_46  and  C_50
                            x       y       z     vdW  Elec       q    Type
                         _______ _______ _______ _____ _____    ______ ____

>  <TORSDO>
F 16

$$$$
