=
 OpenBabel11072411363D

 25 26  0  0  1  0  0  0  0  0999 V2000
  160.7020  200.7820  148.7400 F   0  0  0  0  0  0  0  0  0  0  0  0
  161.0330  203.1240  148.7170 C   0  0  0  0  0  3  0  0  0  0  0  0
  160.8850  201.9210  148.0270 C   0  0  0  0  0  0  0  0  0  0  0  0
  161.2490  204.3350  146.6200 C   0  0  0  0  0  0  0  0  0  0  0  0
  161.1190  203.1150  145.9400 C   0  0  0  0  0  3  0  0  0  0  0  0
  160.9430  201.9050  146.6220 C   0  0  0  0  0  0  0  0  0  0  0  0
  161.2260  204.3370  148.0380 C   0  0  0  0  0  0  0  0  0  0  0  0
  161.7110  208.1440  150.6520 C   0  0  0  0  0  0  0  0  0  0  0  0
  161.9140  208.6760  149.2310 C   0  0  0  0  0  2  0  0  0  0  0  0
  160.9620  206.5760  152.2160 F   0  0  0  0  0  0  0  0  0  0  0  0
  162.6760  207.7330  148.3410 C   0  0  0  0  0  2  0  0  0  0  0  0
  161.4730  205.5620  148.8340 C   0  0  1  0  0  3  0  0  0  0  0  0
  161.0810  206.9670  150.9220 C   0  0  0  0  0  0  0  0  0  0  0  0
  162.1960  206.5390  148.3900 C   0  0  0  0  0  2  0  0  0  0  0  0
  160.4840  206.0260  149.8770 C   0  0  0  0  0  2  0  0  0  0  0  0
  162.2300  210.4870  153.4450 O   0  0  0  0  0  0  0  0  0  0  0  0
  160.0840  210.0300  152.5610 C   0  0  0  0  0  1  0  0  0  0  0  0
  162.2370  208.8820  151.7690 N   0  0  0  0  0  2  0  0  0  0  0  0
  161.5600  209.8270  152.6090 C   0  0  0  0  0  0  0  0  0  0  0  0
  160.2200  206.3590  145.5800 O   0  0  0  0  0  1  0  0  0  0  0  0
  161.3400  205.5670  145.8060 C   0  0  0  0  0  0  0  0  0  0  0  0
  162.4310  205.8830  145.2600 O   0  0  0  0  0  0  0  0  0  0  0  0
  160.8130  200.6530  145.8440 C   0  0  0  0  0  0  0  0  0  0  0  0
  161.4690  199.4660  146.2790 N   0  0  0  0  0  1  0  0  0  0  0  0
  160.1230  200.6170  144.7900 O   0  0  0  0  0  0  0  0  0  0  0  0
  3  2  2  0  0  0  0
  3  1  1  0  0  0  0
  4  7  2  0  0  0  0
  5  4  1  0  0  0  0
  5  6  2  0  0  0  0
  6  3  1  0  0  0  0
  7  2  1  0  0  0  0
  8 13  2  0  0  0  0
  8 18  1  0  0  0  0
  9  8  1  0  0  0  0
 11 14  1  0  0  0  0
 11  9  1  0  0  0  0
 12  7  1  6  0  0  0
 12 15  1  0  0  0  0
 13 10  1  0  0  0  0
 14 12  1  0  0  0  0
 15 13  1  0  0  0  0
 17 19  1  0  0  0  0
 18 19  1  0  0  0  0
 19 16  2  0  0  0  0
 20 21  1  0  0  0  0
 21  4  1  0  0  0  0
 22 21  2  0  0  0  0
 23 24  1  0  0  0  0
 23  6  1  0  0  0  0
 25 23  2  0  0  0  0
M  END
>  <MODEL>
1

>  <REMARK>
 VINA RESULT:      -9.3      0.000      0.000
  Name = 
  4 active torsions:
  status: ('A' for Active; 'I' for Inactive)
    1  A    between atoms: C_4  and  N_15
    2  A    between atoms: C_5  and  C_18
    3  A    between atoms: C_10  and  C_22
    4  A    between atoms: C_17  and  C_24
                            x       y       z     vdW  Elec       q    Type
                         _______ _______ _______ _____ _____    ______ ____

>  <TORSDO>
F 4

$$$$
=
 OpenBabel11072411363D

 25 26  0  0  1  0  0  0  0  0999 V2000
  160.5610  200.9010  148.9880 F   0  0  0  0  0  0  0  0  0  0  0  0
  160.9240  203.2380  148.9840 C   0  0  0  0  0  3  0  0  0  0  0  0
  160.8080  202.0350  148.2870 C   0  0  0  0  0  0  0  0  0  0  0  0
  161.3000  204.4400  146.9050 C   0  0  0  0  0  0  0  0  0  0  0  0
  161.2020  203.2200  146.2200 C   0  0  0  0  0  3  0  0  0  0  0  0
  160.9630  202.0140  146.8900 C   0  0  0  0  0  0  0  0  0  0  0  0
  161.1800  204.4470  148.3170 C   0  0  0  0  0  0  0  0  0  0  0  0
  162.0660  208.3580  150.6570 C   0  0  0  0  0  0  0  0  0  0  0  0
  162.2500  207.2730  151.7210 C   0  0  0  0  0  2  0  0  0  0  0  0
  161.9270  209.1330  148.4550 F   0  0  0  0  0  0  0  0  0  0  0  0
  161.2590  206.1480  151.6070 C   0  0  0  0  0  2  0  0  0  0  0  0
  161.3880  205.6710  149.1260 C   0  0  1  0  0  3  0  0  0  0  0  0
  162.1150  208.1040  149.3190 C   0  0  0  0  0  0  0  0  0  0  0  0
  161.1890  205.6950  150.4040 C   0  0  0  0  0  2  0  0  0  0  0  0
  162.3680  206.7350  148.6910 C   0  0  0  0  0  2  0  0  0  0  0  0
  160.7130  211.3910  152.2480 O   0  0  0  0  0  0  0  0  0  0  0  0
  160.4180  209.2360  153.1780 C   0  0  0  0  0  1  0  0  0  0  0  0
  161.7860  209.7090  151.0610 N   0  0  0  0  0  2  0  0  0  0  0  0
  160.9610  210.1620  152.1440 C   0  0  0  0  0  0  0  0  0  0  0  0
  160.4070  206.5550  145.9200 O   0  0  0  0  0  1  0  0  0  0  0  0
  161.4640  205.6690  146.0960 C   0  0  0  0  0  0  0  0  0  0  0  0
  162.5560  205.8970  145.5090 O   0  0  0  0  0  0  0  0  0  0  0  0
  160.8700  200.7620  146.1070 C   0  0  0  0  0  0  0  0  0  0  0  0
  160.0920  200.7180  144.9140 N   0  0  0  0  0  1  0  0  0  0  0  0
  161.4740  199.7210  146.4790 O   0  0  0  0  0  0  0  0  0  0  0  0
  3  2  2  0  0  0  0
  3  1  1  0  0  0  0
  4  7  2  0  0  0  0
  5  6  2  0  0  0  0
  5  4  1  0  0  0  0
  6  3  1  0  0  0  0
  7  2  1  0  0  0  0
  8 18  1  0  0  0  0
  8  9  1  0  0  0  0
 10 13  1  0  0  0  0
 11  9  1  0  0  0  0
 12  7  1  1  0  0  0
 12 14  1  0  0  0  0
 13  8  2  0  0  0  0
 14 11  1  0  0  0  0
 15 12  1  0  0  0  0
 15 13  1  0  0  0  0
 18 19  1  0  0  0  0
 19 16  2  0  0  0  0
 19 17  1  0  0  0  0
 20 21  1  0  0  0  0
 21  4  1  0  0  0  0
 22 21  2  0  0  0  0
 23 25  2  0  0  0  0
 23  6  1  0  0  0  0
 24 23  1  0  0  0  0
M  END
>  <MODEL>
2

>  <REMARK>
 VINA RESULT:      -9.2      1.360      1.802
  Name = 
  4 active torsions:
  status: ('A' for Active; 'I' for Inactive)
    1  A    between atoms: C_4  and  N_15
    2  A    between atoms: C_5  and  C_18
    3  A    between atoms: C_10  and  C_22
    4  A    between atoms: C_17  and  C_24
                            x       y       z     vdW  Elec       q    Type
                         _______ _______ _______ _____ _____    ______ ____

>  <TORSDO>
F 4

$$$$
=
 OpenBabel11072411363D

 25 26  0  0  1  0  0  0  0  0999 V2000
  160.8710  207.2870  154.3400 F   0  0  0  0  0  0  0  0  0  0  0  0
  161.1000  206.0880  152.3130 C   0  0  0  0  0  3  0  0  0  0  0  0
  161.0480  207.3040  152.9950 C   0  0  0  0  0  0  0  0  0  0  0  0
  161.4340  207.2510  150.2050 C   0  0  0  0  0  0  0  0  0  0  0  0
  161.3590  208.4670  150.9010 C   0  0  0  0  0  3  0  0  0  0  0  0
  161.1610  208.5130  152.2860 C   0  0  0  0  0  0  0  0  0  0  0  0
  161.2810  206.0380  150.9220 C   0  0  0  0  0  0  0  0  0  0  0  0
  160.9830  202.0460  148.5690 C   0  0  0  0  0  0  0  0  0  0  0  0
  160.1950  201.7490  149.8470 C   0  0  0  0  0  2  0  0  0  0  0  0
  161.9540  203.4690  146.9870 F   0  0  0  0  0  0  0  0  0  0  0  0
  160.7970  202.3680  151.0790 C   0  0  0  0  0  2  0  0  0  0  0  0
  161.2300  204.7190  150.2490 C   0  0  1  0  0  3  0  0  0  0  0  0
  161.2350  203.3100  148.1270 C   0  0  0  0  0  0  0  0  0  0  0  0
  161.0630  203.6160  150.9040 C   0  0  0  0  0  2  0  0  0  0  0  0
  160.7720  204.5930  148.8150 C   0  0  0  0  0  2  0  0  0  0  0  0
  161.6110  199.4120  146.0730 O   0  0  0  0  0  0  0  0  0  0  0  0
  160.1240  201.2070  145.6700 C   0  0  0  0  0  1  0  0  0  0  0  0
  161.5280  200.9590  147.8020 N   0  0  0  0  0  2  0  0  0  0  0  0
  161.1080  200.4760  146.5180 C   0  0  0  0  0  0  0  0  0  0  0  0
  163.0450  207.2630  148.2960 O   0  0  0  0  0  1  0  0  0  0  0  0
  161.7340  207.3080  148.7570 C   0  0  0  0  0  0  0  0  0  0  0  0
  160.7990  207.4550  147.9240 O   0  0  0  0  0  0  0  0  0  0  0  0
  161.0920  209.8290  152.9600 C   0  0  0  0  0  0  0  0  0  0  0  0
  159.9430  210.6560  152.8000 N   0  0  0  0  0  1  0  0  0  0  0  0
  162.0410  210.2360  153.6810 O   0  0  0  0  0  0  0  0  0  0  0  0
  2  3  1  0  0  0  0
  3  1  1  0  0  0  0
  4  5  2  0  0  0  0
  4  7  1  0  0  0  0
  5  6  1  0  0  0  0
  6 23  1  0  0  0  0
  6  3  2  0  0  0  0
  7  2  2  0  0  0  0
  8  9  1  0  0  0  0
  9 11  1  0  0  0  0
 10 13  1  0  0  0  0
 12 14  1  0  0  0  0
 12  7  1  1  0  0  0
 13  8  2  0  0  0  0
 13 15  1  0  0  0  0
 14 11  1  0  0  0  0
 15 12  1  0  0  0  0
 16 19  2  0  0  0  0
 17 19  1  0  0  0  0
 18  8  1  0  0  0  0
 19 18  1  0  0  0  0
 20 21  1  0  0  0  0
 21  4  1  0  0  0  0
 22 21  2  0  0  0  0
 23 25  2  0  0  0  0
 24 23  1  0  0  0  0
M  END
>  <MODEL>
3

>  <REMARK>
 VINA RESULT:      -8.9      1.873      7.880
  Name = 
  4 active torsions:
  status: ('A' for Active; 'I' for Inactive)
    1  A    between atoms: C_4  and  N_15
    2  A    between atoms: C_5  and  C_18
    3  A    between atoms: C_10  and  C_22
    4  A    between atoms: C_17  and  C_24
                            x       y       z     vdW  Elec       q    Type
                         _______ _______ _______ _____ _____    ______ ____

>  <TORSDO>
F 4

$$$$
=
 OpenBabel11072411363D

 25 26  0  0  1  0  0  0  0  0999 V2000
  160.6380  200.5740  149.7510 F   0  0  0  0  0  0  0  0  0  0  0  0
  160.8460  202.8900  150.1880 C   0  0  0  0  0  3  0  0  0  0  0  0
  160.8310  201.8310  149.2800 C   0  0  0  0  0  0  0  0  0  0  0  0
  161.2050  204.4740  148.3800 C   0  0  0  0  0  0  0  0  0  0  0  0
  161.2080  203.3980  147.4800 C   0  0  0  0  0  3  0  0  0  0  0  0
  161.0300  202.0770  147.9100 C   0  0  0  0  0  0  0  0  0  0  0  0
  161.0410  204.2140  149.7640 C   0  0  0  0  0  0  0  0  0  0  0  0
  161.5710  207.6900  152.7950 C   0  0  0  0  0  0  0  0  0  0  0  0
  161.9550  206.4570  153.6180 C   0  0  0  0  0  2  0  0  0  0  0  0
  161.2010  208.8440  150.7950 F   0  0  0  0  0  0  0  0  0  0  0  0
  161.1070  205.2510  153.3200 C   0  0  0  0  0  2  0  0  0  0  0  0
  161.1430  205.2780  150.7900 C   0  0  1  0  0  3  0  0  0  0  0  0
  161.5700  207.7040  151.4330 C   0  0  0  0  0  0  0  0  0  0  0  0
  161.0210  205.0310  152.0540 C   0  0  0  0  0  2  0  0  0  0  0  0
  161.9540  206.5270  150.5390 C   0  0  0  0  0  2  0  0  0  0  0  0
  160.0140  210.1450  155.0560 O   0  0  0  0  0  0  0  0  0  0  0  0
  160.1890  207.8520  155.6070 C   0  0  0  0  0  1  0  0  0  0  0  0
  161.1480  208.8890  153.4670 N   0  0  0  0  0  2  0  0  0  0  0  0
  160.4290  209.0120  154.7020 C   0  0  0  0  0  0  0  0  0  0  0  0
  162.5340  206.3400  147.3840 O   0  0  0  0  0  0  0  0  0  0  0  0
  161.3120  205.8390  147.8160 C   0  0  0  0  0  0  0  0  0  0  0  0
  160.2970  206.5850  147.7740 O   0  0  0  0  0  1  0  0  0  0  0  0
  161.0430  200.9880  146.9080 C   0  0  0  0  0  0  0  0  0  0  0  0
  160.4450  201.1800  145.6300 N   0  0  0  0  0  1  0  0  0  0  0  0
  161.5810  199.8790  147.1680 O   0  0  0  0  0  0  0  0  0  0  0  0
  3  1  1  0  0  0  0
  3  2  2  0  0  0  0
  4  7  2  0  0  0  0
  5  6  2  0  0  0  0
  5  4  1  0  0  0  0
  6  3  1  0  0  0  0
  7  2  1  0  0  0  0
  8 18  1  0  0  0  0
  8  9  1  0  0  0  0
 10 13  1  0  0  0  0
 11  9  1  0  0  0  0
 12  7  1  6  0  0  0
 12 14  1  0  0  0  0
 13  8  2  0  0  0  0
 14 11  1  0  0  0  0
 15 12  1  0  0  0  0
 15 13  1  0  0  0  0
 18 19  1  0  0  0  0
 19 16  2  0  0  0  0
 19 17  1  0  0  0  0
 20 21  2  0  0  0  0
 21  4  1  0  0  0  0
 22 21  1  0  0  0  0
 23 25  2  0  0  0  0
 23  6  1  0  0  0  0
 24 23  1  0  0  0  0
M  END
>  <MODEL>
4

>  <REMARK>
 VINA RESULT:      -8.9      2.017      2.683
  Name = 
  4 active torsions:
  status: ('A' for Active; 'I' for Inactive)
    1  A    between atoms: C_4  and  N_15
    2  A    between atoms: C_5  and  C_18
    3  A    between atoms: C_10  and  C_22
    4  A    between atoms: C_17  and  C_24
                            x       y       z     vdW  Elec       q    Type
                         _______ _______ _______ _____ _____    ______ ____

>  <TORSDO>
F 4

$$$$
=
 OpenBabel11072411363D

 25 26  0  0  1  0  0  0  0  0999 V2000
  161.3110  203.6840  144.7850 F   0  0  0  0  0  0  0  0  0  0  0  0
  161.4590  204.6240  146.9510 C   0  0  0  0  0  3  0  0  0  0  0  0
  161.2230  203.5220  146.1280 C   0  0  0  0  0  0  0  0  0  0  0  0
  161.0820  203.2640  148.9300 C   0  0  0  0  0  0  0  0  0  0  0  0
  160.8270  202.1700  148.0910 C   0  0  0  0  0  3  0  0  0  0  0  0
  160.8870  202.2800  146.6960 C   0  0  0  0  0  0  0  0  0  0  0  0
  161.3830  204.5210  148.3490 C   0  0  0  0  0  0  0  0  0  0  0  0
  161.6090  208.3340  150.9900 C   0  0  0  0  0  0  0  0  0  0  0  0
  161.8690  208.8760  149.5820 C   0  0  0  0  0  2  0  0  0  0  0  0
  160.8310  206.7370  152.5110 F   0  0  0  0  0  0  0  0  0  0  0  0
  162.7060  207.9610  148.7320 C   0  0  0  0  0  2  0  0  0  0  0  0
  161.5490  205.7510  149.1580 C   0  0  1  0  0  3  0  0  0  0  0  0
  161.0040  207.1360  151.2250 C   0  0  0  0  0  0  0  0  0  0  0  0
  162.2620  206.7520  148.7550 C   0  0  0  0  0  2  0  0  0  0  0  0
  160.4930  206.1800  150.1490 C   0  0  0  0  0  2  0  0  0  0  0  0
  161.9220  210.7050  153.7890 O   0  0  0  0  0  0  0  0  0  0  0  0
  159.8460  210.2300  152.7610 C   0  0  0  0  0  1  0  0  0  0  0  0
  162.0530  209.0840  152.1340 N   0  0  0  0  0  2  0  0  0  0  0  0
  161.3150  210.0340  152.9150 C   0  0  0  0  0  0  0  0  0  0  0  0
  161.9570  203.7020  151.2280 O   0  0  0  0  0  1  0  0  0  0  0  0
  161.0810  203.0220  150.3900 C   0  0  0  0  0  0  0  0  0  0  0  0
  160.3180  202.1490  150.8850 O   0  0  0  0  0  0  0  0  0  0  0  0
  160.6080  201.0860  145.8670 C   0  0  0  0  0  0  0  0  0  0  0  0
  161.2060  199.8340  146.1890 N   0  0  0  0  0  1  0  0  0  0  0  0
  159.8410  201.1570  144.8710 O   0  0  0  0  0  0  0  0  0  0  0  0
  1  3  1  0  0  0  0
  2  7  1  0  0  0  0
  3  6  1  0  0  0  0
  3  2  2  0  0  0  0
  4 21  1  0  0  0  0
  5  4  1  0  0  0  0
  6  5  2  0  0  0  0
  7  4  2  0  0  0  0
  8 13  2  0  0  0  0
  8 18  1  0  0  0  0
  9  8  1  0  0  0  0
 11 14  1  0  0  0  0
 11  9  1  0  0  0  0
 12  7  1  6  0  0  0
 12 15  1  0  0  0  0
 13 10  1  0  0  0  0
 14 12  1  0  0  0  0
 15 13  1  0  0  0  0
 17 19  1  0  0  0  0
 18 19  1  0  0  0  0
 19 16  2  0  0  0  0
 21 22  2  0  0  0  0
 21 20  1  0  0  0  0
 23 24  1  0  0  0  0
 23  6  1  0  0  0  0
 25 23  2  0  0  0  0
M  END
>  <MODEL>
5

>  <REMARK>
 VINA RESULT:      -8.5      2.108      2.616
  Name = 
  4 active torsions:
  status: ('A' for Active; 'I' for Inactive)
    1  A    between atoms: C_4  and  N_15
    2  A    between atoms: C_5  and  C_18
    3  A    between atoms: C_10  and  C_22
    4  A    between atoms: C_17  and  C_24
                            x       y       z     vdW  Elec       q    Type
                         _______ _______ _______ _____ _____    ______ ____

>  <TORSDO>
F 4

$$$$
=
 OpenBabel11072411363D

 25 26  0  0  1  0  0  0  0  0999 V2000
  160.5630  201.2300  150.4590 F   0  0  0  0  0  0  0  0  0  0  0  0
  160.8160  203.5770  150.6220 C   0  0  0  0  0  3  0  0  0  0  0  0
  160.8160  202.4150  149.8490 C   0  0  0  0  0  0  0  0  0  0  0  0
  161.3120  204.9180  148.6560 C   0  0  0  0  0  0  0  0  0  0  0  0
  161.3280  203.7400  147.8950 C   0  0  0  0  0  3  0  0  0  0  0  0
  161.0900  202.4860  148.4720 C   0  0  0  0  0  0  0  0  0  0  0  0
  161.0720  204.8340  150.0510 C   0  0  0  0  0  0  0  0  0  0  0  0
  161.5880  208.6140  152.6960 C   0  0  0  0  0  0  0  0  0  0  0  0
  161.6150  207.4750  153.7180 C   0  0  0  0  0  2  0  0  0  0  0  0
  161.7760  209.5020  150.5410 F   0  0  0  0  0  0  0  0  0  0  0  0
  160.6550  206.3620  153.4000 C   0  0  0  0  0  2  0  0  0  0  0  0
  161.1530  206.0130  150.9430 C   0  0  1  0  0  3  0  0  0  0  0  0
  161.8360  208.4290  151.3690 C   0  0  0  0  0  0  0  0  0  0  0  0
  160.7660  205.9720  152.1770 C   0  0  0  0  0  2  0  0  0  0  0  0
  162.1840  207.0930  150.7150 C   0  0  0  0  0  2  0  0  0  0  0  0
  160.7980  211.6340  154.6500 O   0  0  0  0  0  0  0  0  0  0  0  0
  161.9050  209.7700  155.5960 C   0  0  0  0  0  1  0  0  0  0  0  0
  161.2460  209.9440  153.1230 N   0  0  0  0  0  2  0  0  0  0  0  0
  161.2810  210.4900  154.4500 C   0  0  0  0  0  0  0  0  0  0  0  0
  160.3870  206.9540  147.5420 O   0  0  0  0  0  0  0  0  0  0  0  0
  161.4860  206.2000  147.9370 C   0  0  0  0  0  0  0  0  0  0  0  0
  162.6410  206.5970  147.6250 O   0  0  0  0  0  1  0  0  0  0  0  0
  161.1220  201.2820  147.6130 C   0  0  0  0  0  0  0  0  0  0  0  0
  160.6960  201.3570  146.2550 N   0  0  0  0  0  1  0  0  0  0  0  0
  161.5230  200.1770  148.0640 O   0  0  0  0  0  0  0  0  0  0  0  0
  3  1  1  0  0  0  0
  3  2  2  0  0  0  0
  4  7  2  0  0  0  0
  5  6  2  0  0  0  0
  5  4  1  0  0  0  0
  6  3  1  0  0  0  0
  7  2  1  0  0  0  0
  8 18  1  0  0  0  0
  8  9  1  0  0  0  0
 10 13  1  0  0  0  0
 11  9  1  0  0  0  0
 12  7  1  1  0  0  0
 12 14  1  0  0  0  0
 13  8  2  0  0  0  0
 14 11  1  0  0  0  0
 15 12  1  0  0  0  0
 15 13  1  0  0  0  0
 18 19  1  0  0  0  0
 19 16  2  0  0  0  0
 19 17  1  0  0  0  0
 20 21  2  0  0  0  0
 21  4  1  0  0  0  0
 22 21  1  0  0  0  0
 23 25  2  0  0  0  0
 23  6  1  0  0  0  0
 24 23  1  0  0  0  0
M  END
>  <MODEL>
6

>  <REMARK>
 VINA RESULT:      -8.5      1.950      2.739
  Name = 
  4 active torsions:
  status: ('A' for Active; 'I' for Inactive)
    1  A    between atoms: C_4  and  N_15
    2  A    between atoms: C_5  and  C_18
    3  A    between atoms: C_10  and  C_22
    4  A    between atoms: C_17  and  C_24
                            x       y       z     vdW  Elec       q    Type
                         _______ _______ _______ _____ _____    ______ ____

>  <TORSDO>
F 4

$$$$
=
 OpenBabel11072411363D

 25 26  0  0  1  0  0  0  0  0999 V2000
  160.5970  200.8660  149.9850 F   0  0  0  0  0  0  0  0  0  0  0  0
  160.8640  203.1860  150.3620 C   0  0  0  0  0  3  0  0  0  0  0  0
  160.8430  202.1020  149.4840 C   0  0  0  0  0  0  0  0  0  0  0  0
  161.3240  204.7060  148.5210 C   0  0  0  0  0  0  0  0  0  0  0  0
  161.3190  203.6040  147.6530 C   0  0  0  0  0  3  0  0  0  0  0  0
  161.0880  202.3030  148.1140 C   0  0  0  0  0  0  0  0  0  0  0  0
  161.1130  204.4910  149.9070 C   0  0  0  0  0  0  0  0  0  0  0  0
  161.2240  207.7570  153.2050 C   0  0  0  0  0  0  0  0  0  0  0  0
  160.8320  208.5470  151.9540 C   0  0  0  0  0  2  0  0  0  0  0  0
  161.4630  205.7970  154.4570 F   0  0  0  0  0  0  0  0  0  0  0  0
  161.5350  208.0830  150.7080 C   0  0  0  0  0  2  0  0  0  0  0  0
  161.2180  205.5800  150.9050 C   0  0  1  0  0  3  0  0  0  0  0  0
  161.0730  206.4070  153.3100 C   0  0  0  0  0  0  0  0  0  0  0  0
  161.4600  206.8050  150.5660 C   0  0  0  0  0  2  0  0  0  0  0  0
  160.4930  205.4980  152.2280 C   0  0  0  0  0  2  0  0  0  0  0  0
  161.8470  209.7240  156.2550 O   0  0  0  0  0  0  0  0  0  0  0  0
  159.7200  208.8240  155.7440 C   0  0  0  0  0  1  0  0  0  0  0  0
  161.8190  208.4420  154.3200 N   0  0  0  0  0  2  0  0  0  0  0  0
  161.1680  209.0320  155.4540 C   0  0  0  0  0  0  0  0  0  0  0  0
  160.3860  206.8460  147.6390 O   0  0  0  0  0  1  0  0  0  0  0  0
  161.4890  206.0500  147.9230 C   0  0  0  0  0  0  0  0  0  0  0  0
  162.6370  206.4650  147.6110 O   0  0  0  0  0  0  0  0  0  0  0  0
  161.0960  201.1840  147.1450 C   0  0  0  0  0  0  0  0  0  0  0  0
  160.5210  201.3510  145.8520 N   0  0  0  0  0  1  0  0  0  0  0  0
  161.6090  200.0740  147.4450 O   0  0  0  0  0  0  0  0  0  0  0  0
  3  1  1  0  0  0  0
  3  2  2  0  0  0  0
  4  7  2  0  0  0  0
  5  6  2  0  0  0  0
  5  4  1  0  0  0  0
  6  3  1  0  0  0  0
  7  2  1  0  0  0  0
  8 13  2  0  0  0  0
  8 18  1  0  0  0  0
  9  8  1  0  0  0  0
 11  9  1  0  0  0  0
 12  7  1  6  0  0  0
 12 15  1  0  0  0  0
 13 10  1  0  0  0  0
 14 11  1  0  0  0  0
 14 12  1  0  0  0  0
 15 13  1  0  0  0  0
 18 19  1  0  0  0  0
 19 17  1  0  0  0  0
 19 16  2  0  0  0  0
 20 21  1  0  0  0  0
 21  4  1  0  0  0  0
 22 21  2  0  0  0  0
 23 25  2  0  0  0  0
 23  6  1  0  0  0  0
 24 23  1  0  0  0  0
M  END
>  <MODEL>
7

>  <REMARK>
 VINA RESULT:      -8.3      1.977      2.339
  Name = 
  4 active torsions:
  status: ('A' for Active; 'I' for Inactive)
    1  A    between atoms: C_4  and  N_15
    2  A    between atoms: C_5  and  C_18
    3  A    between atoms: C_10  and  C_22
    4  A    between atoms: C_17  and  C_24
                            x       y       z     vdW  Elec       q    Type
                         _______ _______ _______ _____ _____    ______ ____

>  <TORSDO>
F 4

$$$$
=
 OpenBabel11072411363D

 25 26  0  0  1  0  0  0  0  0999 V2000
  162.1280  206.5820  146.3660 F   0  0  0  0  0  0  0  0  0  0  0  0
  161.6990  206.4600  148.6900 C   0  0  0  0  0  3  0  0  0  0  0  0
  161.8190  205.8290  147.4510 C   0  0  0  0  0  0  0  0  0  0  0  0
  161.2000  204.3330  149.7570 C   0  0  0  0  0  0  0  0  0  0  0  0
  161.3040  203.7160  148.5020 C   0  0  0  0  0  3  0  0  0  0  0  0
  161.6040  204.4430  147.3440 C   0  0  0  0  0  0  0  0  0  0  0  0
  161.3810  205.7360  149.8500 C   0  0  0  0  0  0  0  0  0  0  0  0
  160.8780  208.3170  153.6770 C   0  0  0  0  0  0  0  0  0  0  0  0
  161.6730  207.1090  154.1800 C   0  0  0  0  0  2  0  0  0  0  0  0
  160.0740  209.7530  152.0160 F   0  0  0  0  0  0  0  0  0  0  0  0
  161.2510  205.8100  153.5520 C   0  0  0  0  0  2  0  0  0  0  0  0
  161.1740  206.4820  151.1130 C   0  0  1  0  0  3  0  0  0  0  0  0
  160.8170  208.6720  152.3630 C   0  0  0  0  0  0  0  0  0  0  0  0
  161.1890  205.8990  152.2680 C   0  0  0  0  0  2  0  0  0  0  0  0
  161.5250  207.9470  151.2200 C   0  0  0  0  0  2  0  0  0  0  0  0
  159.7910  210.6140  156.3420 O   0  0  0  0  0  0  0  0  0  0  0  0
  161.9570  210.7080  155.3970 C   0  0  0  0  0  1  0  0  0  0  0  0
  160.1180  209.1050  154.6090 N   0  0  0  0  0  2  0  0  0  0  0  0
  160.5820  210.1400  155.4860 C   0  0  0  0  0  0  0  0  0  0  0  0
  162.0320  202.9030  151.6280 O   0  0  0  0  0  1  0  0  0  0  0  0
  160.9680  203.4640  150.9320 C   0  0  0  0  0  0  0  0  0  0  0  0
  159.7910  203.1750  151.2800 O   0  0  0  0  0  0  0  0  0  0  0  0
  161.6990  203.7300  146.0510 C   0  0  0  0  0  0  0  0  0  0  0  0
  160.8910  202.5830  145.8030 N   0  0  0  0  0  1  0  0  0  0  0  0
  162.4900  204.1230  145.1530 O   0  0  0  0  0  0  0  0  0  0  0  0
  1  3  1  0  0  0  0
  2  7  1  0  0  0  0
  3  2  2  0  0  0  0
  4  7  2  0  0  0  0
  4 21  1  0  0  0  0
  5  4  1  0  0  0  0
  6  3  1  0  0  0  0
  6  5  2  0  0  0  0
  8  9  1  0  0  0  0
  8 18  1  0  0  0  0
 10 13  1  0  0  0  0
 11  9  1  0  0  0  0
 12  7  1  6  0  0  0
 12 15  1  0  0  0  0
 12 14  1  0  0  0  0
 13  8  2  0  0  0  0
 14 11  1  0  0  0  0
 15 13  1  0  0  0  0
 17 19  1  0  0  0  0
 18 19  1  0  0  0  0
 19 16  2  0  0  0  0
 21 22  2  0  0  0  0
 21 20  1  0  0  0  0
 23  6  1  0  0  0  0
 24 23  1  0  0  0  0
 25 23  2  0  0  0  0
M  END
>  <MODEL>
8

>  <REMARK>
 VINA RESULT:      -8.3      3.076      4.166
  Name = 
  4 active torsions:
  status: ('A' for Active; 'I' for Inactive)
    1  A    between atoms: C_4  and  N_15
    2  A    between atoms: C_5  and  C_18
    3  A    between atoms: C_10  and  C_22
    4  A    between atoms: C_17  and  C_24
                            x       y       z     vdW  Elec       q    Type
                         _______ _______ _______ _____ _____    ______ ____

>  <TORSDO>
F 4

$$$$
=
 OpenBabel11072411363D

 25 26  0  0  1  0  0  0  0  0999 V2000
  160.2790  206.5930  156.1500 F   0  0  0  0  0  0  0  0  0  0  0  0
  160.8060  206.6790  153.8450 C   0  0  0  0  0  3  0  0  0  0  0  0
  160.5920  207.3340  155.0590 C   0  0  0  0  0  0  0  0  0  0  0  0
  161.2670  208.7990  152.7480 C   0  0  0  0  0  0  0  0  0  0  0  0
  161.0290  209.4460  153.9700 C   0  0  0  0  0  3  0  0  0  0  0  0
  160.6870  208.7360  155.1270 C   0  0  0  0  0  0  0  0  0  0  0  0
  161.1320  207.3900  152.6790 C   0  0  0  0  0  0  0  0  0  0  0  0
  161.3250  205.2690  148.5530 C   0  0  0  0  0  0  0  0  0  0  0  0
  160.6930  204.2060  149.4550 C   0  0  0  0  0  2  0  0  0  0  0  0
  161.9300  207.4590  148.0000 F   0  0  0  0  0  0  0  0  0  0  0  0
  161.2730  204.1750  150.8420 C   0  0  0  0  0  2  0  0  0  0  0  0
  161.2500  206.6420  151.4060 C   0  0  1  0  0  3  0  0  0  0  0  0
  161.3330  206.5970  148.8610 C   0  0  0  0  0  0  0  0  0  0  0  0
  161.3150  205.3510  151.3670 C   0  0  0  0  0  2  0  0  0  0  0  0
  160.7160  207.2150  150.1140 C   0  0  0  0  0  2  0  0  0  0  0  0
  162.1990  204.5270  145.0540 O   0  0  0  0  0  0  0  0  0  0  0  0
  160.4240  205.9800  145.6330 C   0  0  0  0  0  1  0  0  0  0  0  0
  161.9850  204.8700  147.3390 N   0  0  0  0  0  2  0  0  0  0  0  0
  161.5640  205.0860  145.9850 C   0  0  0  0  0  0  0  0  0  0  0  0
  162.7460  209.2160  150.7800 O   0  0  0  0  0  0  0  0  0  0  0  0
  161.7090  209.6310  151.6070 C   0  0  0  0  0  0  0  0  0  0  0  0
  161.1830  210.7590  151.4070 O   0  0  0  0  0  1  0  0  0  0  0  0
  160.4500  209.4800  156.3840 C   0  0  0  0  0  0  0  0  0  0  0  0
  161.5470  209.8700  157.2050 N   0  0  0  0  0  1  0  0  0  0  0  0
  159.2810  209.7780  156.7470 O   0  0  0  0  0  0  0  0  0  0  0  0
  2  3  1  0  0  0  0
  3  6  2  0  0  0  0
  3  1  1  0  0  0  0
  4  5  2  0  0  0  0
  5  6  1  0  0  0  0
  6 23  1  0  0  0  0
  7  4  1  0  0  0  0
  7  2  2  0  0  0  0
  8 13  2  0  0  0  0
  8  9  1  0  0  0  0
  9 11  1  0  0  0  0
 10 13  1  0  0  0  0
 11 14  1  0  0  0  0
 12  7  1  1  0  0  0
 13 15  1  0  0  0  0
 14 12  1  0  0  0  0
 15 12  1  0  0  0  0
 16 19  2  0  0  0  0
 17 19  1  0  0  0  0
 18  8  1  0  0  0  0
 19 18  1  0  0  0  0
 20 21  2  0  0  0  0
 21  4  1  0  0  0  0
 22 21  1  0  0  0  0
 23 25  2  0  0  0  0
 23 24  1  0  0  0  0
M  END
>  <MODEL>
9

>  <REMARK>
 VINA RESULT:      -8.1      2.983      8.222
  Name = 
  4 active torsions:
  status: ('A' for Active; 'I' for Inactive)
    1  A    between atoms: C_4  and  N_15
    2  A    between atoms: C_5  and  C_18
    3  A    between atoms: C_10  and  C_22
    4  A    between atoms: C_17  and  C_24
                            x       y       z     vdW  Elec       q    Type
                         _______ _______ _______ _____ _____    ______ ____

>  <TORSDO>
F 4

$$$$
