=
 OpenBabel11072410193D

 33 36  0  0  1  0  0  0  0  0999 V2000
  160.4570  203.3500  145.2880 C   0  0  0  0  0  2  0  0  0  0  0  0
  161.6180  205.7170  150.6690 C   0  0  0  0  0  0  0  0  0  0  0  0
  159.9570  201.9280  145.0030 C   0  0  0  0  0  2  0  0  0  0  0  0
  162.3240  207.9760  151.3170 O   0  0  0  0  0  1  0  0  0  0  0  0
  163.1640  205.1080  146.5110 C   0  0  0  0  0  1  0  0  0  0  0  0
  161.3640  203.4270  146.5110 C   0  0  1  0  0  3  0  0  0  0  0  0
  160.9420  204.2160  152.4370 N   0  0  0  0  0  0  0  0  0  0  0  0
  161.1150  203.6500  148.8440 C   0  0  0  0  0  0  0  0  0  0  0  0
  160.9880  200.8510  145.3360 C   0  0  0  0  0  2  0  0  0  0  0  0
  161.5710  204.8680  148.3870 C   0  0  0  0  0  0  0  0  0  0  0  0
  161.7170  204.8630  146.9020 C   0  0  1  0  0  3  0  0  0  0  0  0
  161.7980  205.9430  149.2760 C   0  0  0  0  0  0  0  0  0  0  0  0
  161.3960  201.3230  147.8330 C   0  0  1  0  0  3  0  0  0  0  0  0
  161.8600  206.7080  151.6510 C   0  0  0  0  0  0  0  0  0  0  0  0
  161.1780  205.1660  153.3770 C   0  0  0  0  0  3  0  0  0  0  0  0
  160.7700  202.7230  147.7320 C   0  0  2  0  0  3  0  0  0  0  0  0
  161.1470  204.4490  151.1140 C   0  0  0  0  0  0  0  0  0  0  0  0
  161.4070  199.1110  146.9050 O   0  0  0  0  0  1  0  0  0  0  0  0
  161.1690  200.7780  149.0990 O   0  0  0  0  0  1  0  0  0  0  0  0
  160.8110  200.3670  146.7770 C   0  0  2  0  0  3  0  0  0  0  0  0
  161.6400  206.4240  152.9990 C   0  0  0  0  0  3  0  0  0  0  0  0
  160.8740  203.4320  150.1980 C   0  0  0  0  0  3  0  0  0  0  0  0
  162.1660  207.2460  148.7960 N   0  0  0  0  0  2  0  0  0  0  0  0
  161.2740  208.2360  148.5520 O   0  0  0  0  0  0  0  0  0  0  0  0
  162.0460  209.3170  148.1190 C   0  0  0  0  0  2  0  0  0  0  0  0
  161.8740  210.4910  149.0650 C   0  0  0  0  0  2  0  0  0  0  0  0
  162.4650  211.7480  148.4500 C   0  0  0  0  0  2  0  0  0  0  0  0
  161.3590  212.6840  147.9950 C   0  0  0  0  0  2  0  0  0  0  0  0
  161.9170  213.7500  147.0680 C   0  0  0  0  0  2  0  0  0  0  0  0
  160.7170  212.6840  145.3140 O   0  0  0  0  0  0  0  0  0  0  0  0
  161.7420  213.3310  145.6470 C   0  0  0  0  0  0  0  0  0  0  0  0
  162.7590  213.6380  144.6390 C   0  0  0  0  0  3  0  0  0  0  0  0
  163.0010  212.8370  143.6970 O   0  0  0  0  0  0  0  0  0  0  0  0
  2 17  1  0  0  0  0
  2 14  2  0  0  0  0
  3  1  1  0  0  0  0
  3  9  1  0  0  0  0
  4 14  1  0  0  0  0
  6  1  1  6  0  0  0
  6 11  1  0  0  0  0
  6 16  1  0  0  0  0
  7 15  1  0  0  0  0
  8 22  2  0  0  0  0
  9 20  1  0  0  0  0
 10  8  1  0  0  0  0
 10 12  2  0  0  0  0
 11  5  1  1  0  0  0
 11 10  1  0  0  0  0
 12  2  1  0  0  0  0
 13 19  1  1  0  0  0
 14 21  1  0  0  0  0
 16 13  1  0  0  0  0
 16  8  1  1  0  0  0
 17  7  2  0  0  0  0
 20 18  1  6  0  0  0
 20 13  1  0  0  0  0
 21 15  2  0  0  0  0
 22 17  1  0  0  0  0
 23 12  1  0  0  0  0
 24 23  1  0  0  0  0
 25 24  1  0  0  0  0
 25 26  1  0  0  0  0
 27 26  1  0  0  0  0
 28 27  1  0  0  0  0
 29 28  1  0  0  0  0
 30 31  2  0  0  0  0
 31 29  1  0  0  0  0
 32 31  1  0  0  0  0
 33 32  2  0  0  0  0
M  END
>  <MODEL>
1

>  <REMARK>
 VINA RESULT:      -7.6      0.000      0.000
  Name = 
  9 active torsions:
  status: ('A' for Active; 'I' for Inactive)
    1  A    between atoms: N_6  and  C_17
    2  A    between atoms: N_6  and  O_21
    3  A    between atoms: C_9  and  O_21
    4  A    between atoms: C_9  and  C_33
    5  A    between atoms: C_14  and  C_18
    6  A    between atoms: C_14  and  C_28
    7  A    between atoms: C_16  and  C_18
    8  A    between atoms: C_24  and  C_28
    9  A    between atoms: C_24  and  C_33
                            x       y       z     vdW  Elec       q    Type
                         _______ _______ _______ _____ _____    ______ ____

>  <TORSDO>
F 9

$$$$
=
 OpenBabel11072410193D

 33 36  0  0  1  0  0  0  0  0999 V2000
  160.0750  206.6210  155.2740 C   0  0  0  0  0  2  0  0  0  0  0  0
  161.7140  208.5580  149.8450 C   0  0  0  0  0  0  0  0  0  0  0  0
  159.9040  207.4740  156.5360 C   0  0  0  0  0  2  0  0  0  0  0  0
  161.9450  207.3680  147.7120 O   0  0  0  0  0  1  0  0  0  0  0  0
  162.4440  205.4950  153.0290 C   0  0  0  0  0  1  0  0  0  0  0  0
  161.1710  207.1390  154.3500 C   0  0  1  0  0  3  0  0  0  0  0  0
  161.8320  210.9710  149.7890 N   0  0  0  0  0  0  0  0  0  0  0  0
  161.3760  208.7290  152.6230 C   0  0  0  0  0  0  0  0  0  0  0  0
  161.2200  208.0480  157.0570 C   0  0  0  0  0  2  0  0  0  0  0  0
  161.4000  207.4930  152.0140 C   0  0  0  0  0  0  0  0  0  0  0  0
  161.2240  206.4000  153.0130 C   0  0  1  0  0  3  0  0  0  0  0  0
  161.5310  207.3730  150.6110 C   0  0  0  0  0  0  0  0  0  0  0  0
  162.0160  209.3830  155.0070 C   0  0  1  0  0  3  0  0  0  0  0  0
  161.9000  208.5510  148.4420 C   0  0  0  0  0  0  0  0  0  0  0  0
  162.0140  210.9620  148.4440 C   0  0  0  0  0  3  0  0  0  0  0  0
  161.0490  208.6380  154.0720 C   0  0  2  0  0  3  0  0  0  0  0  0
  161.6860  209.8220  150.5010 C   0  0  0  0  0  0  0  0  0  0  0  0
  162.3900  210.1100  157.2610 O   0  0  0  0  0  1  0  0  0  0  0  0
  162.2090  210.6940  154.5630 O   0  0  0  0  0  1  0  0  0  0  0  0
  161.4820  209.4280  156.4500 C   0  0  2  0  0  3  0  0  0  0  0  0
  162.0510  209.7540  147.7510 C   0  0  0  0  0  3  0  0  0  0  0  0
  161.4910  209.9020  151.8810 C   0  0  0  0  0  3  0  0  0  0  0  0
  161.4460  206.0960  149.9590 N   0  0  0  0  0  2  0  0  0  0  0  0
  160.5450  205.1400  150.2930 O   0  0  0  0  0  0  0  0  0  0  0  0
  161.2370  203.9330  150.1620 C   0  0  0  0  0  2  0  0  0  0  0  0
  160.2870  202.8350  149.7230 C   0  0  0  0  0  2  0  0  0  0  0  0
  160.6830  202.3200  148.3490 C   0  0  0  0  0  2  0  0  0  0  0  0
  161.5490  203.3400  147.6300 C   0  0  0  0  0  2  0  0  0  0  0  0
  161.5700  203.0570  146.1380 C   0  0  0  0  0  2  0  0  0  0  0  0
  163.0510  204.7660  145.4050 O   0  0  0  0  0  0  0  0  0  0  0  0
  161.8800  204.3070  145.3870 C   0  0  0  0  0  0  0  0  0  0  0  0
  160.8370  205.0230  144.6490 C   0  0  0  0  0  3  0  0  0  0  0  0
  160.2390  206.0050  145.1620 O   0  0  0  0  0  0  0  0  0  0  0  0
  1  3  1  0  0  0  0
  2 17  2  0  0  0  0
  2 12  1  0  0  0  0
  3  9  1  0  0  0  0
  4 14  1  0  0  0  0
  6  1  1  1  0  0  0
  7 17  1  0  0  0  0
 10  8  1  0  0  0  0
 10 11  1  0  0  0  0
 11  5  1  1  0  0  0
 11  6  1  0  0  0  0
 12 10  2  0  0  0  0
 13 19  1  6  0  0  0
 13 20  1  0  0  0  0
 14  2  1  0  0  0  0
 15  7  2  0  0  0  0
 16  8  1  6  0  0  0
 16  6  1  0  0  0  0
 16 13  1  0  0  0  0
 17 22  1  0  0  0  0
 20  9  1  0  0  0  0
 20 18  1  1  0  0  0
 21 14  2  0  0  0  0
 21 15  1  0  0  0  0
 22  8  2  0  0  0  0
 23 24  1  0  0  0  0
 23 12  1  0  0  0  0
 25 24  1  0  0  0  0
 26 25  1  0  0  0  0
 27 26  1  0  0  0  0
 28 27  1  0  0  0  0
 29 28  1  0  0  0  0
 31 30  2  0  0  0  0
 31 29  1  0  0  0  0
 32 33  2  0  0  0  0
 32 31  1  0  0  0  0
M  END
>  <MODEL>
2

>  <REMARK>
 VINA RESULT:      -7.4      2.819      8.465
  Name = 
  9 active torsions:
  status: ('A' for Active; 'I' for Inactive)
    1  A    between atoms: N_6  and  C_17
    2  A    between atoms: N_6  and  O_21
    3  A    between atoms: C_9  and  O_21
    4  A    between atoms: C_9  and  C_33
    5  A    between atoms: C_14  and  C_18
    6  A    between atoms: C_14  and  C_28
    7  A    between atoms: C_16  and  C_18
    8  A    between atoms: C_24  and  C_28
    9  A    between atoms: C_24  and  C_33
                            x       y       z     vdW  Elec       q    Type
                         _______ _______ _______ _____ _____    ______ ____

>  <TORSDO>
F 9

$$$$
=
 OpenBabel11072410193D

 33 36  0  0  1  0  0  0  0  0999 V2000
  163.2440  211.0170  148.3550 C   0  0  0  0  0  2  0  0  0  0  0  0
  161.1010  208.2790  153.2350 C   0  0  0  0  0  0  0  0  0  0  0  0
  163.1350  212.5090  148.0220 C   0  0  0  0  0  2  0  0  0  0  0  0
  161.2610  205.9440  153.9730 O   0  0  0  0  0  1  0  0  0  0  0  0
  161.3530  208.1580  148.7660 C   0  0  0  0  0  1  0  0  0  0  0  0
  162.0440  210.4930  149.1360 C   0  0  1  0  0  3  0  0  0  0  0  0
  160.2360  209.8860  154.8170 N   0  0  0  0  0  0  0  0  0  0  0  0
  161.3590  210.3700  151.3870 C   0  0  0  0  0  0  0  0  0  0  0  0
  161.7040  212.9590  147.7360 C   0  0  0  0  0  2  0  0  0  0  0  0
  161.7240  209.0920  151.0250 C   0  0  0  0  0  0  0  0  0  0  0  0
  162.2300  209.0560  149.6220 C   0  0  1  0  0  3  0  0  0  0  0  0
  161.6430  208.0210  151.9440 C   0  0  0  0  0  0  0  0  0  0  0  0
  160.5380  212.3020  149.9340 C   0  0  1  0  0  3  0  0  0  0  0  0
  160.9310  207.2730  154.2170 C   0  0  0  0  0  0  0  0  0  0  0  0
  160.0700  208.9200  155.7570 C   0  0  0  0  0  3  0  0  0  0  0  0
  161.6920  211.3720  150.3370 C   0  0  2  0  0  3  0  0  0  0  0  0
  160.7310  209.6090  153.5820 C   0  0  0  0  0  0  0  0  0  0  0  0
  159.9480  214.2590  148.6790 O   0  0  0  0  0  1  0  0  0  0  0  0
  159.9470  212.8650  151.0680 O   0  0  0  0  0  1  0  0  0  0  0  0
  161.0260  213.4420  149.0200 C   0  0  2  0  0  3  0  0  0  0  0  0
  160.4150  207.6020  155.4710 C   0  0  0  0  0  3  0  0  0  0  0  0
  160.8860  210.6510  152.6660 C   0  0  0  0  0  3  0  0  0  0  0  0
  162.1250  206.7090  151.6110 N   0  0  0  0  0  2  0  0  0  0  0  0
  161.4630  205.8510  150.7990 O   0  0  0  0  0  0  0  0  0  0  0  0
  161.5590  204.6100  151.4340 C   0  0  0  0  0  2  0  0  0  0  0  0
  161.2780  203.4960  150.4440 C   0  0  0  0  0  2  0  0  0  0  0  0
  160.8190  204.0780  149.1180 C   0  0  0  0  0  2  0  0  0  0  0  0
  161.4440  203.3180  147.9610 C   0  0  0  0  0  2  0  0  0  0  0  0
  162.1160  204.2820  146.9980 C   0  0  0  0  0  2  0  0  0  0  0  0
  160.9690  203.1500  145.2490 O   0  0  0  0  0  0  0  0  0  0  0  0
  161.4290  204.2400  145.6740 C   0  0  0  0  0  0  0  0  0  0  0  0
  161.3050  205.4440  144.8500 C   0  0  0  0  0  3  0  0  0  0  0  0
  160.3240  206.2230  144.9820 O   0  0  0  0  0  0  0  0  0  0  0  0
  2 17  1  0  0  0  0
  2 14  2  0  0  0  0
  3  1  1  0  0  0  0
  4 14  1  0  0  0  0
  6  1  1  1  0  0  0
  6 11  1  0  0  0  0
  6 16  1  0  0  0  0
  7 15  1  0  0  0  0
  8 22  2  0  0  0  0
  9  3  1  0  0  0  0
  9 20  1  0  0  0  0
 10  8  1  0  0  0  0
 10 12  2  0  0  0  0
 11  5  1  6  0  0  0
 11 10  1  0  0  0  0
 12  2  1  0  0  0  0
 13 16  1  0  0  0  0
 13 19  1  1  0  0  0
 14 21  1  0  0  0  0
 16  8  1  1  0  0  0
 17  7  2  0  0  0  0
 20 18  1  6  0  0  0
 20 13  1  0  0  0  0
 21 15  2  0  0  0  0
 22 17  1  0  0  0  0
 23 12  1  0  0  0  0
 24 25  1  0  0  0  0
 24 23  1  0  0  0  0
 26 25  1  0  0  0  0
 27 26  1  0  0  0  0
 28 27  1  0  0  0  0
 29 28  1  0  0  0  0
 30 31  2  0  0  0  0
 31 29  1  0  0  0  0
 32 33  2  0  0  0  0
 32 31  1  0  0  0  0
M  END
>  <MODEL>
3

>  <REMARK>
 VINA RESULT:      -7.2      2.697      8.072
  Name = 
  9 active torsions:
  status: ('A' for Active; 'I' for Inactive)
    1  A    between atoms: N_6  and  C_17
    2  A    between atoms: N_6  and  O_21
    3  A    between atoms: C_9  and  O_21
    4  A    between atoms: C_9  and  C_33
    5  A    between atoms: C_14  and  C_18
    6  A    between atoms: C_14  and  C_28
    7  A    between atoms: C_16  and  C_18
    8  A    between atoms: C_24  and  C_28
    9  A    between atoms: C_24  and  C_33
                            x       y       z     vdW  Elec       q    Type
                         _______ _______ _______ _____ _____    ______ ____

>  <TORSDO>
F 9

$$$$
=
 OpenBabel11072410193D

 33 36  0  0  1  0  0  0  0  0999 V2000
  161.5470  201.7020  149.3420 C   0  0  0  0  0  2  0  0  0  0  0  0
  161.5610  207.6370  150.1660 C   0  0  0  0  0  0  0  0  0  0  0  0
  161.8020  200.9610  148.0250 C   0  0  0  0  0  2  0  0  0  0  0  0
  161.2710  208.9820  152.1970 O   0  0  0  0  0  1  0  0  0  0  0  0
  159.3210  203.8300  150.9020 C   0  0  0  0  0  1  0  0  0  0  0  0
  160.8590  203.0480  149.1450 C   0  0  1  0  0  3  0  0  0  0  0  0
  162.2970  208.7840  148.1710 N   0  0  0  0  0  0  0  0  0  0  0  0
  161.4940  205.2670  148.6710 C   0  0  0  0  0  0  0  0  0  0  0  0
  160.7020  201.1810  146.9890 C   0  0  0  0  0  2  0  0  0  0  0  0
  161.1390  205.2430  150.0020 C   0  0  0  0  0  0  0  0  0  0  0  0
  160.7660  203.8650  150.4330 C   0  0  1  0  0  3  0  0  0  0  0  0
  161.1980  206.4130  150.7940 C   0  0  0  0  0  0  0  0  0  0  0  0
  160.7530  203.7430  146.7610 C   0  0  1  0  0  3  0  0  0  0  0  0
  161.6070  208.8740  150.8520 C   0  0  0  0  0  0  0  0  0  0  0  0
  162.3380  209.9700  148.8300 C   0  0  0  0  0  3  0  0  0  0  0  0
  161.5360  203.9040  148.0730 C   0  0  2  0  0  3  0  0  0  0  0  0
  161.9220  207.6320  148.7890 C   0  0  0  0  0  0  0  0  0  0  0  0
  160.3030  202.2790  144.9160 O   0  0  0  0  0  1  0  0  0  0  0  0
  161.0990  204.7540  145.8600 O   0  0  0  0  0  1  0  0  0  0  0  0
  161.0340  202.3820  146.1000 C   0  0  2  0  0  3  0  0  0  0  0  0
  161.9940  210.0330  150.1780 C   0  0  0  0  0  3  0  0  0  0  0  0
  161.9110  206.4440  148.0560 C   0  0  0  0  0  3  0  0  0  0  0  0
  160.9370  206.3740  152.2070 N   0  0  0  0  0  2  0  0  0  0  0  0
  161.5780  205.5460  153.0660 O   0  0  0  0  0  0  0  0  0  0  0  0
  161.7470  206.2980  154.2310 C   0  0  0  0  0  2  0  0  0  0  0  0
  160.4400  206.9680  154.6120 C   0  0  0  0  0  2  0  0  0  0  0  0
  160.2890  206.9970  156.1240 C   0  0  0  0  0  2  0  0  0  0  0  0
  160.0960  208.4230  156.6090 C   0  0  0  0  0  2  0  0  0  0  0  0
  160.0230  209.3760  155.4290 C   0  0  0  0  0  2  0  0  0  0  0  0
  161.0070  211.4860  154.9430 O   0  0  0  0  0  0  0  0  0  0  0  0
  161.1340  210.3690  155.5060 C   0  0  0  0  0  0  0  0  0  0  0  0
  162.3820  210.0520  156.2040 C   0  0  0  0  0  3  0  0  0  0  0  0
  163.3900  210.8010  156.1020 O   0  0  0  0  0  0  0  0  0  0  0  0
  2 12  1  0  0  0  0
  2 14  2  0  0  0  0
  3  1  1  0  0  0  0
  6  1  1  1  0  0  0
  6 11  1  0  0  0  0
  7 17  2  0  0  0  0
  7 15  1  0  0  0  0
  8 10  1  0  0  0  0
  9  3  1  0  0  0  0
 10 11  1  0  0  0  0
 10 12  2  0  0  0  0
 11  5  1  6  0  0  0
 12 23  1  0  0  0  0
 13 19  1  6  0  0  0
 13 16  1  0  0  0  0
 14  4  1  0  0  0  0
 15 21  2  0  0  0  0
 16  8  1  1  0  0  0
 16  6  1  0  0  0  0
 17  2  1  0  0  0  0
 20 18  1  6  0  0  0
 20 13  1  0  0  0  0
 20  9  1  0  0  0  0
 21 14  1  0  0  0  0
 22  8  2  0  0  0  0
 22 17  1  0  0  0  0
 23 24  1  0  0  0  0
 24 25  1  0  0  0  0
 25 26  1  0  0  0  0
 26 27  1  0  0  0  0
 27 28  1  0  0  0  0
 29 31  1  0  0  0  0
 29 28  1  0  0  0  0
 30 31  2  0  0  0  0
 31 32  1  0  0  0  0
 33 32  2  0  0  0  0
M  END
>  <MODEL>
4

>  <REMARK>
 VINA RESULT:      -7.0      3.050      6.081
  Name = 
  9 active torsions:
  status: ('A' for Active; 'I' for Inactive)
    1  A    between atoms: N_6  and  C_17
    2  A    between atoms: N_6  and  O_21
    3  A    between atoms: C_9  and  O_21
    4  A    between atoms: C_9  and  C_33
    5  A    between atoms: C_14  and  C_18
    6  A    between atoms: C_14  and  C_28
    7  A    between atoms: C_16  and  C_18
    8  A    between atoms: C_24  and  C_28
    9  A    between atoms: C_24  and  C_33
                            x       y       z     vdW  Elec       q    Type
                         _______ _______ _______ _____ _____    ______ ____

>  <TORSDO>
F 9

$$$$
=
 OpenBabel11072410193D

 33 36  0  0  1  0  0  0  0  0999 V2000
  162.3090  210.4330  154.4730 C   0  0  0  0  0  2  0  0  0  0  0  0
  161.3130  206.7650  149.8400 C   0  0  0  0  0  0  0  0  0  0  0  0
  162.3670  210.0400  155.9540 C   0  0  0  0  0  2  0  0  0  0  0  0
  161.2800  207.1940  147.4240 O   0  0  0  0  0  1  0  0  0  0  0  0
  160.1660  210.6370  151.7750 C   0  0  0  0  0  1  0  0  0  0  0  0
  161.3320  209.5810  153.6690 C   0  0  1  0  0  3  0  0  0  0  0  0
  161.2650  204.4590  150.5590 N   0  0  0  0  0  0  0  0  0  0  0  0
  161.3560  207.5130  152.5410 C   0  0  0  0  0  0  0  0  0  0  0  0
  161.0180  209.5860  156.5080 C   0  0  0  0  0  2  0  0  0  0  0  0
  161.3650  208.4850  151.5640 C   0  0  0  0  0  0  0  0  0  0  0  0
  161.4040  209.8490  152.1660 C   0  0  1  0  0  3  0  0  0  0  0  0
  161.3820  208.1420  150.1930 C   0  0  0  0  0  0  0  0  0  0  0  0
  160.4820  207.6200  154.9370 C   0  0  1  0  0  3  0  0  0  0  0  0
  161.2780  206.3110  148.4990 C   0  0  0  0  0  0  0  0  0  0  0  0
  161.2280  204.0260  149.2730 C   0  0  0  0  0  3  0  0  0  0  0  0
  161.5230  208.0820  153.9060 C   0  0  2  0  0  3  0  0  0  0  0  0
  161.3040  205.7820  150.8700 C   0  0  0  0  0  0  0  0  0  0  0  0
  159.8880  207.6320  157.2610 O   0  0  0  0  0  1  0  0  0  0  0  0
  160.3720  206.2270  154.9280 O   0  0  0  0  0  1  0  0  0  0  0  0
  160.8590  208.0710  156.3600 C   0  0  2  0  0  3  0  0  0  0  0  0
  161.2340  204.9440  148.2250 C   0  0  0  0  0  3  0  0  0  0  0  0
  161.3520  206.1600  152.2120 C   0  0  0  0  0  3  0  0  0  0  0  0
  161.5030  209.1460  149.1720 N   0  0  0  0  0  2  0  0  0  0  0  0
  162.5410  210.0120  149.0900 O   0  0  0  0  0  0  0  0  0  0  0  0
  161.9830  211.1960  148.6010 C   0  0  0  0  0  2  0  0  0  0  0  0
  163.0800  212.1410  148.1500 C   0  0  0  0  0  2  0  0  0  0  0  0
  162.4790  213.3250  147.4110 C   0  0  0  0  0  2  0  0  0  0  0  0
  161.0320  213.0430  147.0480 C   0  0  0  0  0  2  0  0  0  0  0  0
  160.8890  212.8670  145.5460 C   0  0  0  0  0  2  0  0  0  0  0  0
  159.1150  212.6130  143.9840 O   0  0  0  0  0  0  0  0  0  0  0  0
  159.4580  212.6400  145.1940 C   0  0  0  0  0  0  0  0  0  0  0  0
  158.4410  212.4750  146.2350 C   0  0  0  0  0  3  0  0  0  0  0  0
  157.2320  212.7480  146.0090 O   0  0  0  0  0  0  0  0  0  0  0  0
  1  3  1  0  0  0  0
  2 12  2  0  0  0  0
  2 17  1  0  0  0  0
  3  9  1  0  0  0  0
  4 14  1  0  0  0  0
  6 16  1  0  0  0  0
  6  1  1  1  0  0  0
  7 17  1  0  0  0  0
 10 11  1  0  0  0  0
 10  8  2  0  0  0  0
 11  5  1  6  0  0  0
 11  6  1  0  0  0  0
 12 10  1  0  0  0  0
 13 19  1  1  0  0  0
 13 20  1  0  0  0  0
 14  2  1  0  0  0  0
 15  7  2  0  0  0  0
 16  8  1  6  0  0  0
 16 13  1  0  0  0  0
 17 22  2  0  0  0  0
 20  9  1  0  0  0  0
 20 18  1  1  0  0  0
 21 14  2  0  0  0  0
 21 15  1  0  0  0  0
 22  8  1  0  0  0  0
 23 12  1  0  0  0  0
 24 23  1  0  0  0  0
 25 24  1  0  0  0  0
 26 25  1  0  0  0  0
 27 26  1  0  0  0  0
 28 27  1  0  0  0  0
 29 28  1  0  0  0  0
 30 31  2  0  0  0  0
 31 29  1  0  0  0  0
 31 32  1  0  0  0  0
 33 32  2  0  0  0  0
M  END
>  <MODEL>
5

>  <REMARK>
 VINA RESULT:      -6.8      2.890      6.835
  Name = 
  9 active torsions:
  status: ('A' for Active; 'I' for Inactive)
    1  A    between atoms: N_6  and  C_17
    2  A    between atoms: N_6  and  O_21
    3  A    between atoms: C_9  and  O_21
    4  A    between atoms: C_9  and  C_33
    5  A    between atoms: C_14  and  C_18
    6  A    between atoms: C_14  and  C_28
    7  A    between atoms: C_16  and  C_18
    8  A    between atoms: C_24  and  C_28
    9  A    between atoms: C_24  and  C_33
                            x       y       z     vdW  Elec       q    Type
                         _______ _______ _______ _____ _____    ______ ____

>  <TORSDO>
F 9

$$$$
=
 OpenBabel11072410193D

 33 36  0  0  1  0  0  0  0  0999 V2000
  160.6490  203.8790  145.5210 C   0  0  0  0  0  2  0  0  0  0  0  0
  161.6410  206.3060  150.9090 C   0  0  0  0  0  0  0  0  0  0  0  0
  160.1140  202.4700  145.2370 C   0  0  0  0  0  2  0  0  0  0  0  0
  162.3950  208.5510  151.5500 O   0  0  0  0  0  1  0  0  0  0  0  0
  163.3560  205.5680  146.8380 C   0  0  0  0  0  1  0  0  0  0  0  0
  161.5010  203.9490  146.7830 C   0  0  1  0  0  3  0  0  0  0  0  0
  160.8330  204.8610  152.6690 N   0  0  0  0  0  0  0  0  0  0  0  0
  161.1530  204.2230  149.0970 C   0  0  0  0  0  0  0  0  0  0  0  0
  161.0900  201.3650  145.6360 C   0  0  0  0  0  2  0  0  0  0  0  0
  161.6710  205.4160  148.6410 C   0  0  0  0  0  0  0  0  0  0  0  0
  161.8840  205.3780  147.1660 C   0  0  1  0  0  3  0  0  0  0  0  0
  161.8940  206.4990  149.5220 C   0  0  0  0  0  0  0  0  0  0  0  0
  161.3990  201.8690  148.1400 C   0  0  1  0  0  3  0  0  0  0  0  0
  161.8730  207.3060  151.8840 C   0  0  0  0  0  0  0  0  0  0  0  0
  161.0590  205.8200  153.6030 C   0  0  0  0  0  3  0  0  0  0  0  0
  160.8270  203.2870  147.9860 C   0  0  2  0  0  3  0  0  0  0  0  0
  161.1070  205.0620  151.3520 C   0  0  0  0  0  0  0  0  0  0  0  0
  161.3770  199.6420  147.2520 O   0  0  0  0  0  1  0  0  0  0  0  0
  161.0950  201.3560  149.4040 O   0  0  0  0  0  1  0  0  0  0  0  0
  160.8310  200.9140  147.0750 C   0  0  2  0  0  3  0  0  0  0  0  0
  161.5810  207.0550  153.2250 C   0  0  0  0  0  3  0  0  0  0  0  0
  160.8420  204.0390  150.4420 C   0  0  0  0  0  3  0  0  0  0  0  0
  162.3280  207.7810  149.0370 N   0  0  0  0  0  2  0  0  0  0  0  0
  161.4810  208.7580  148.6370 O   0  0  0  0  0  0  0  0  0  0  0  0
  162.3080  209.8190  148.2610 C   0  0  0  0  0  2  0  0  0  0  0  0
  161.9210  211.0750  149.0190 C   0  0  0  0  0  2  0  0  0  0  0  0
  161.6140  212.2000  148.0440 C   0  0  0  0  0  2  0  0  0  0  0  0
  160.8850  213.3280  148.7520 C   0  0  0  0  0  2  0  0  0  0  0  0
  160.5460  212.9260  150.1770 C   0  0  0  0  0  2  0  0  0  0  0  0
  158.5350  214.1080  149.7120 O   0  0  0  0  0  0  0  0  0  0  0  0
  159.1650  213.3740  150.5170 C   0  0  0  0  0  0  0  0  0  0  0  0
  158.5390  212.9960  151.7860 C   0  0  0  0  0  3  0  0  0  0  0  0
  158.6570  211.8290  152.2450 O   0  0  0  0  0  0  0  0  0  0  0  0
  2 17  1  0  0  0  0
  2 14  2  0  0  0  0
  3  1  1  0  0  0  0
  3  9  1  0  0  0  0
  4 14  1  0  0  0  0
  6  1  1  6  0  0  0
  6 11  1  0  0  0  0
  6 16  1  0  0  0  0
  7 15  1  0  0  0  0
  8 22  2  0  0  0  0
  9 20  1  0  0  0  0
 10  8  1  0  0  0  0
 10 12  2  0  0  0  0
 11  5  1  1  0  0  0
 11 10  1  0  0  0  0
 12  2  1  0  0  0  0
 13 19  1  1  0  0  0
 14 21  1  0  0  0  0
 16 13  1  0  0  0  0
 16  8  1  1  0  0  0
 17  7  2  0  0  0  0
 20 18  1  6  0  0  0
 20 13  1  0  0  0  0
 21 15  2  0  0  0  0
 22 17  1  0  0  0  0
 23 12  1  0  0  0  0
 24 23  1  0  0  0  0
 25 24  1  0  0  0  0
 25 26  1  0  0  0  0
 27 28  1  0  0  0  0
 27 26  1  0  0  0  0
 28 29  1  0  0  0  0
 29 31  1  0  0  0  0
 30 31  2  0  0  0  0
 31 32  1  0  0  0  0
 32 33  2  0  0  0  0
M  END
>  <MODEL>
6

>  <REMARK>
 VINA RESULT:      -6.8      1.797      2.716
  Name = 
  9 active torsions:
  status: ('A' for Active; 'I' for Inactive)
    1  A    between atoms: N_6  and  C_17
    2  A    between atoms: N_6  and  O_21
    3  A    between atoms: C_9  and  O_21
    4  A    between atoms: C_9  and  C_33
    5  A    between atoms: C_14  and  C_18
    6  A    between atoms: C_14  and  C_28
    7  A    between atoms: C_16  and  C_18
    8  A    between atoms: C_24  and  C_28
    9  A    between atoms: C_24  and  C_33
                            x       y       z     vdW  Elec       q    Type
                         _______ _______ _______ _____ _____    ______ ____

>  <TORSDO>
F 9

$$$$
=
 OpenBabel11072410193D

 33 36  0  0  1  0  0  0  0  0999 V2000
  160.8540  206.3510  146.5970 C   0  0  0  0  0  2  0  0  0  0  0  0
  161.4300  208.1540  152.2830 C   0  0  0  0  0  0  0  0  0  0  0  0
  160.4040  204.9660  146.1180 C   0  0  0  0  0  2  0  0  0  0  0  0
  162.0380  210.3350  153.2270 O   0  0  0  0  0  1  0  0  0  0  0  0
  163.4000  207.9800  148.2650 C   0  0  0  0  0  1  0  0  0  0  0  0
  161.6310  206.3050  147.9080 C   0  0  1  0  0  3  0  0  0  0  0  0
  160.5960  206.4770  153.8090 N   0  0  0  0  0  0  0  0  0  0  0  0
  161.1430  206.2850  150.2130 C   0  0  0  0  0  0  0  0  0  0  0  0
  161.4090  203.8620  146.4430 C   0  0  0  0  0  2  0  0  0  0  0  0
  161.6270  207.5440  149.9320 C   0  0  0  0  0  0  0  0  0  0  0  0
  161.9240  207.6920  148.4780 C   0  0  1  0  0  3  0  0  0  0  0  0
  161.7490  208.5230  150.9450 C   0  0  0  0  0  0  0  0  0  0  0  0
  161.5540  204.0750  149.0040 C   0  0  1  0  0  3  0  0  0  0  0  0
  161.5590  209.0380  153.3800 C   0  0  0  0  0  0  0  0  0  0  0  0
  160.7230  207.3260  154.8610 C   0  0  0  0  0  3  0  0  0  0  0  0
  160.9240  205.4760  148.9830 C   0  0  2  0  0  3  0  0  0  0  0  0
  160.9330  206.8460  152.5440 C   0  0  0  0  0  0  0  0  0  0  0  0
  161.6880  201.9710  147.8600 O   0  0  0  0  0  1  0  0  0  0  0  0
  161.2060  203.4020  150.1780 O   0  0  0  0  0  1  0  0  0  0  0  0
  161.0920  203.2320  147.8010 C   0  0  2  0  0  3  0  0  0  0  0  0
  161.2060  208.6170  154.6630 C   0  0  0  0  0  3  0  0  0  0  0  0
  160.7670  205.9280  151.5060 C   0  0  0  0  0  3  0  0  0  0  0  0
  162.1480  209.8690  150.6420 N   0  0  0  0  0  2  0  0  0  0  0  0
  161.3090  210.8040  150.1340 O   0  0  0  0  0  0  0  0  0  0  0  0
  162.0040  211.3660  149.0610 C   0  0  0  0  0  2  0  0  0  0  0  0
  161.3120  212.6340  148.5980 C   0  0  0  0  0  2  0  0  0  0  0  0
  162.3060  213.5480  147.9020 C   0  0  0  0  0  2  0  0  0  0  0  0
  162.7060  212.9680  146.5570 C   0  0  0  0  0  2  0  0  0  0  0  0
  162.1780  213.8380  145.4290 C   0  0  0  0  0  2  0  0  0  0  0  0
  162.3130  212.5780  143.4170 O   0  0  0  0  0  0  0  0  0  0  0  0
  161.5860  212.9830  144.3610 C   0  0  0  0  0  0  0  0  0  0  0  0
  160.1650  212.6290  144.3770 C   0  0  0  0  0  3  0  0  0  0  0  0
  159.7060  211.8290  145.2350 O   0  0  0  0  0  0  0  0  0  0  0  0
  2 17  1  0  0  0  0
  2 14  2  0  0  0  0
  3  9  1  0  0  0  0
  3  1  1  0  0  0  0
  4 14  1  0  0  0  0
  6  1  1  6  0  0  0
  6 11  1  0  0  0  0
  6 16  1  0  0  0  0
  7 15  1  0  0  0  0
  8 22  2  0  0  0  0
  9 20  1  0  0  0  0
 10  8  1  0  0  0  0
 10 12  2  0  0  0  0
 11  5  1  1  0  0  0
 11 10  1  0  0  0  0
 12  2  1  0  0  0  0
 13 19  1  1  0  0  0
 14 21  1  0  0  0  0
 16 13  1  0  0  0  0
 16  8  1  1  0  0  0
 17  7  2  0  0  0  0
 20 18  1  6  0  0  0
 20 13  1  0  0  0  0
 21 15  2  0  0  0  0
 22 17  1  0  0  0  0
 23 12  1  0  0  0  0
 24 23  1  0  0  0  0
 25 24  1  0  0  0  0
 26 25  1  0  0  0  0
 27 26  1  0  0  0  0
 28 27  1  0  0  0  0
 29 28  1  0  0  0  0
 30 31  2  0  0  0  0
 31 32  1  0  0  0  0
 31 29  1  0  0  0  0
 32 33  2  0  0  0  0
M  END
>  <MODEL>
7

>  <REMARK>
 VINA RESULT:      -6.8      1.844      2.864
  Name = 
  9 active torsions:
  status: ('A' for Active; 'I' for Inactive)
    1  A    between atoms: N_6  and  C_17
    2  A    between atoms: N_6  and  O_21
    3  A    between atoms: C_9  and  O_21
    4  A    between atoms: C_9  and  C_33
    5  A    between atoms: C_14  and  C_18
    6  A    between atoms: C_14  and  C_28
    7  A    between atoms: C_16  and  C_18
    8  A    between atoms: C_24  and  C_28
    9  A    between atoms: C_24  and  C_33
                            x       y       z     vdW  Elec       q    Type
                         _______ _______ _______ _____ _____    ______ ____

>  <TORSDO>
F 9

$$$$
=
 OpenBabel11072410193D

 33 36  0  0  1  0  0  0  0  0999 V2000
  160.4530  206.5780  149.0390 C   0  0  0  0  0  2  0  0  0  0  0  0
  160.9980  208.6550  154.6330 C   0  0  0  0  0  0  0  0  0  0  0  0
  160.1290  205.1380  148.6260 C   0  0  0  0  0  2  0  0  0  0  0  0
  161.4150  210.9210  155.4770 O   0  0  0  0  0  1  0  0  0  0  0  0
  162.8700  208.5110  150.5680 C   0  0  0  0  0  1  0  0  0  0  0  0
  161.2640  206.6590  150.3270 C   0  0  1  0  0  3  0  0  0  0  0  0
  160.3730  206.9680  156.2460 N   0  0  0  0  0  0  0  0  0  0  0  0
  160.8410  206.6850  152.6450 C   0  0  0  0  0  0  0  0  0  0  0  0
  161.2440  204.1500  148.9620 C   0  0  0  0  0  2  0  0  0  0  0  0
  161.1930  207.9730  152.3030 C   0  0  0  0  0  0  0  0  0  0  0  0
  161.4350  208.0910  150.8360 C   0  0  1  0  0  3  0  0  0  0  0  0
  161.2450  208.9980  153.2740 C   0  0  0  0  0  0  0  0  0  0  0  0
  161.4350  204.4780  151.5070 C   0  0  1  0  0  3  0  0  0  0  0  0
  161.0690  209.5910  155.6930 C   0  0  0  0  0  0  0  0  0  0  0  0
  160.4440  207.8660  157.2610 C   0  0  0  0  0  3  0  0  0  0  0  0
  160.6710  205.8100  151.4530 C   0  0  2  0  0  3  0  0  0  0  0  0
  160.6380  207.3160  154.9590 C   0  0  0  0  0  0  0  0  0  0  0  0
  161.7440  202.3530  150.4400 O   0  0  0  0  0  1  0  0  0  0  0  0
  161.1850  203.8220  152.7160 O   0  0  0  0  0  1  0  0  0  0  0  0
  161.0260  203.5470  150.3520 C   0  0  2  0  0  3  0  0  0  0  0  0
  160.7920  209.1890  157.0000 C   0  0  0  0  0  3  0  0  0  0  0  0
  160.5360  206.3460  153.9610 C   0  0  0  0  0  3  0  0  0  0  0  0
  161.5020  210.3640  152.9090 N   0  0  0  0  0  2  0  0  0  0  0  0
  160.7690  211.0480  151.9980 O   0  0  0  0  0  0  0  0  0  0  0  0
  159.6840  211.5550  152.7170 C   0  0  0  0  0  2  0  0  0  0  0  0
  159.0300  212.6840  151.9440 C   0  0  0  0  0  2  0  0  0  0  0  0
  160.0720  213.4360  151.1340 C   0  0  0  0  0  2  0  0  0  0  0  0
  159.5820  213.6550  149.7130 C   0  0  0  0  0  2  0  0  0  0  0  0
  160.6700  214.3020  148.8730 C   0  0  0  0  0  2  0  0  0  0  0  0
  160.6360  213.2520  146.7400 O   0  0  0  0  0  0  0  0  0  0  0  0
  161.1860  213.3280  147.8690 C   0  0  0  0  0  0  0  0  0  0  0  0
  162.3050  212.4380  148.1860 C   0  0  0  0  0  3  0  0  0  0  0  0
  162.1060  211.2880  148.6570 O   0  0  0  0  0  0  0  0  0  0  0  0
  2 17  1  0  0  0  0
  2 14  2  0  0  0  0
  3  9  1  0  0  0  0
  3  1  1  0  0  0  0
  4 14  1  0  0  0  0
  6  1  1  6  0  0  0
  6 11  1  0  0  0  0
  6 16  1  0  0  0  0
  7 15  1  0  0  0  0
  8 22  2  0  0  0  0
  9 20  1  0  0  0  0
 10  8  1  0  0  0  0
 10 12  2  0  0  0  0
 11  5  1  1  0  0  0
 11 10  1  0  0  0  0
 12  2  1  0  0  0  0
 13 19  1  1  0  0  0
 14 21  1  0  0  0  0
 16 13  1  0  0  0  0
 16  8  1  1  0  0  0
 17  7  2  0  0  0  0
 20 18  1  6  0  0  0
 20 13  1  0  0  0  0
 21 15  2  0  0  0  0
 22 17  1  0  0  0  0
 23 12  1  0  0  0  0
 24 25  1  0  0  0  0
 24 23  1  0  0  0  0
 26 25  1  0  0  0  0
 27 26  1  0  0  0  0
 28 27  1  0  0  0  0
 29 28  1  0  0  0  0
 30 31  2  0  0  0  0
 31 32  1  0  0  0  0
 31 29  1  0  0  0  0
 32 33  2  0  0  0  0
M  END
>  <MODEL>
8

>  <REMARK>
 VINA RESULT:      -6.5      2.995      4.642
  Name = 
  9 active torsions:
  status: ('A' for Active; 'I' for Inactive)
    1  A    between atoms: N_6  and  C_17
    2  A    between atoms: N_6  and  O_21
    3  A    between atoms: C_9  and  O_21
    4  A    between atoms: C_9  and  C_33
    5  A    between atoms: C_14  and  C_18
    6  A    between atoms: C_14  and  C_28
    7  A    between atoms: C_16  and  C_18
    8  A    between atoms: C_24  and  C_28
    9  A    between atoms: C_24  and  C_33
                            x       y       z     vdW  Elec       q    Type
                         _______ _______ _______ _____ _____    ______ ____

>  <TORSDO>
F 9

$$$$
=
 OpenBabel11072410193D

 33 36  0  0  1  0  0  0  0  0999 V2000
  163.3310  212.2030  147.8850 C   0  0  0  0  0  2  0  0  0  0  0  0
  160.2110  211.0230  152.8640 C   0  0  0  0  0  0  0  0  0  0  0  0
  163.0800  213.3490  146.8990 C   0  0  0  0  0  2  0  0  0  0  0  0
  160.5220  209.3090  154.5920 O   0  0  0  0  0  1  0  0  0  0  0  0
  161.9400  209.2920  149.1130 C   0  0  0  0  0  1  0  0  0  0  0  0
  162.0510  211.6820  148.5300 C   0  0  1  0  0  3  0  0  0  0  0  0
  158.6050  212.7720  153.3110 N   0  0  0  0  0  0  0  0  0  0  0  0
  160.6950  212.2260  150.3780 C   0  0  0  0  0  0  0  0  0  0  0  0
  161.7680  213.2050  146.1310 C   0  0  0  0  0  2  0  0  0  0  0  0
  161.3760  211.0790  150.7250 C   0  0  0  0  0  0  0  0  0  0  0  0
  162.3140  210.6660  149.6420 C   0  0  1  0  0  3  0  0  0  0  0  0
  161.1840  210.4680  151.9850 C   0  0  0  0  0  0  0  0  0  0  0  0
  160.0760  213.1180  148.0670 C   0  0  1  0  0  3  0  0  0  0  0  0
  159.9040  210.4660  154.1280 C   0  0  0  0  0  0  0  0  0  0  0  0
  158.3110  212.2350  154.5230 C   0  0  0  0  0  3  0  0  0  0  0  0
  161.1760  212.8030  149.0930 C   0  0  2  0  0  3  0  0  0  0  0  0
  159.5210  212.2080  152.4790 C   0  0  0  0  0  0  0  0  0  0  0  0
  159.6010  214.1740  145.9680 O   0  0  0  0  0  1  0  0  0  0  0  0
  159.0550  213.8640  148.6620 O   0  0  0  0  0  1  0  0  0  0  0  0
  160.6310  213.9130  146.8720 C   0  0  2  0  0  3  0  0  0  0  0  0
  158.9550  211.0750  154.9490 C   0  0  0  0  0  3  0  0  0  0  0  0
  159.7850  212.8170  151.2520 C   0  0  0  0  0  3  0  0  0  0  0  0
  161.9700  209.3380  152.3970 N   0  0  0  0  0  2  0  0  0  0  0  0
  161.8110  208.0910  151.8940 O   0  0  0  0  0  0  0  0  0  0  0  0
  161.6630  207.2680  153.0140 C   0  0  0  0  0  2  0  0  0  0  0  0
  161.0440  205.9440  152.6080 C   0  0  0  0  0  2  0  0  0  0  0  0
  161.9570  205.2160  151.6360 C   0  0  0  0  0  2  0  0  0  0  0  0
  161.1370  204.4660  150.6010 C   0  0  0  0  0  2  0  0  0  0  0  0
  160.8320  205.3670  149.4160 C   0  0  0  0  0  2  0  0  0  0  0  0
  161.3130  203.4280  148.1260 O   0  0  0  0  0  0  0  0  0  0  0  0
  161.2060  204.6810  148.1450 C   0  0  0  0  0  0  0  0  0  0  0  0
  161.4780  205.4450  146.9260 C   0  0  0  0  0  3  0  0  0  0  0  0
  160.9600  206.5780  146.7420 O   0  0  0  0  0  0  0  0  0  0  0  0
  2 14  2  0  0  0  0
  3  1  1  0  0  0  0
  6  1  1  1  0  0  0
  6 16  1  0  0  0  0
  6 11  1  0  0  0  0
  7 15  1  0  0  0  0
  8 10  1  0  0  0  0
  8 22  2  0  0  0  0
  9 20  1  0  0  0  0
  9  3  1  0  0  0  0
 10 12  2  0  0  0  0
 11  5  1  6  0  0  0
 11 10  1  0  0  0  0
 12 23  1  0  0  0  0
 12  2  1  0  0  0  0
 13 19  1  1  0  0  0
 13 16  1  0  0  0  0
 14  4  1  0  0  0  0
 14 21  1  0  0  0  0
 15 21  2  0  0  0  0
 16  8  1  1  0  0  0
 17  2  1  0  0  0  0
 17  7  2  0  0  0  0
 20 18  1  6  0  0  0
 20 13  1  0  0  0  0
 22 17  1  0  0  0  0
 24 23  1  0  0  0  0
 24 25  1  0  0  0  0
 26 25  1  0  0  0  0
 27 26  1  0  0  0  0
 28 27  1  0  0  0  0
 29 28  1  0  0  0  0
 30 31  2  0  0  0  0
 31 29  1  0  0  0  0
 32 31  1  0  0  0  0
 33 32  2  0  0  0  0
M  END
>  <MODEL>
9

>  <REMARK>
 VINA RESULT:      -6.2      3.081      8.727
  Name = 
  9 active torsions:
  status: ('A' for Active; 'I' for Inactive)
    1  A    between atoms: N_6  and  C_17
    2  A    between atoms: N_6  and  O_21
    3  A    between atoms: C_9  and  O_21
    4  A    between atoms: C_9  and  C_33
    5  A    between atoms: C_14  and  C_18
    6  A    between atoms: C_14  and  C_28
    7  A    between atoms: C_16  and  C_18
    8  A    between atoms: C_24  and  C_28
    9  A    between atoms: C_24  and  C_33
                            x       y       z     vdW  Elec       q    Type
                         _______ _______ _______ _____ _____    ______ ____

>  <TORSDO>
F 9

$$$$
