=
 OpenBabel11072409553D

 48 54  0  0  1  0  0  0  0  0999 V2000
  160.4010  210.0640  152.0190 C   0  0  2  0  0  3  0  0  0  0  0  0
  161.7640  206.2990  153.6180 C   0  0  0  0  0  3  0  0  0  0  0  0
  163.5270  206.0910  151.8810 C   0  0  0  0  0  1  0  0  0  0  0  0
  162.2070  208.3670  150.4330 C   0  0  2  0  0  3  0  0  0  0  0  0
  161.7910  207.9320  151.8150 C   0  0  0  0  0  0  0  0  0  0  0  0
  160.1070  206.4490  155.4010 N   0  0  0  0  0  1  0  0  0  0  0  0
  160.6890  206.9610  154.2090 C   0  0  0  0  0  0  0  0  0  0  0  0
  160.7830  208.6660  152.4820 C   0  0  0  0  0  0  0  0  0  0  0  0
  160.2240  208.1570  153.6620 C   0  0  0  0  0  3  0  0  0  0  0  0
  160.9230  210.4300  150.6960 N   0  0  0  0  0  2  0  0  0  0  0  0
  162.3250  206.7820  152.4300 C   0  0  0  0  0  0  0  0  0  0  0  0
  162.2720  209.9050  150.4950 C   0  0  2  0  0  3  0  0  0  0  0  0
  162.9680  210.6650  149.3510 C   0  0  2  0  0  3  0  0  0  0  0  0
  162.4660  211.9730  149.2310 O   0  0  0  0  0  0  0  0  0  0  0  0
  162.0580  211.0460  148.2470 C   0  0  0  0  0  2  0  0  0  0  0  0
  160.8000  211.1270  153.0430 C   0  0  0  0  0  2  0  0  0  0  0  0
  159.5660  211.6280  153.7810 C   0  0  0  0  0  2  0  0  0  0  0  0
  156.1410  214.1590  152.1790 N   0  0  0  0  0  0  0  0  0  0  0  0
  157.3540  213.7780  152.4450 C   0  0  0  0  0  0  0  0  0  0  0  0
  157.8530  213.5610  153.8010 C   0  0  2  0  0  3  0  0  0  0  0  0
  159.6470  213.4510  152.1840 O   0  0  0  0  0  0  0  0  0  0  0  0
  159.2990  213.1150  153.5180 C   0  0  2  0  0  3  0  0  0  0  0  0
  158.4520  213.6660  151.4590 C   0  0  1  0  0  3  0  0  0  0  0  0
  157.1270  212.6340  156.0360 C   0  0  0  0  0  0  0  0  0  0  0  0
  156.8640  211.3470  156.7900 C   0  0  0  0  0  1  0  0  0  0  0  0
  158.0830  213.6330  156.6690 C   0  0  0  0  0  1  0  0  0  0  0  0
  156.9970  212.5430  154.5720 C   0  0  1  0  0  3  0  0  0  0  0  0
  155.5960  213.4140  155.4060 S   0  0  0  0  0  0  0  0  0  0  0  0
  155.6870  214.4520  150.8580 C   0  0  0  0  0  3  0  0  0  0  0  0
  154.7490  213.7830  150.3560 O   0  0  0  0  0  0  0  0  0  0  0  0
  158.2220  212.5880  150.5950 O   0  0  0  0  0  0  0  0  0  0  0  0
  158.9380  212.9000  149.4340 C   0  0  0  0  0  2  0  0  0  0  0  0
  158.0290  213.5940  148.4360 C   0  0  0  0  0  2  0  0  0  0  0  0
  157.7550  212.7350  147.3660 O   0  0  0  0  0  1  0  0  0  0  0  0
  161.1860  207.9980  149.5230 O   0  0  0  0  0  0  0  0  0  0  0  0
  162.9970  207.7420  148.0710 O   0  0  0  0  0  1  0  0  0  0  0  0
  160.4330  205.3090  149.2520 C   0  0  2  0  0  3  0  0  0  0  0  0
  161.6990  207.3280  148.3810 C   0  0  2  0  0  0  0  0  0  0  0  0
  159.9170  206.3720  147.1750 O   0  0  0  0  0  0  0  0  0  0  0  0
  160.8020  207.4570  147.1660 C   0  0  0  0  0  2  0  0  0  0  0  0
  160.6300  205.3000  147.7450 C   0  0  1  0  0  3  0  0  0  0  0  0
  161.7250  205.8420  148.6410 C   0  0  2  0  0  3  0  0  0  0  0  0
  161.1870  200.5090  148.7390 O   0  0  0  0  0  0  0  0  0  0  0  0
  161.0850  201.4660  149.5550 C   0  0  0  0  0  0  0  0  0  0  0  0
  160.7000  203.9720  149.8740 C   0  0  0  0  0  0  0  0  0  0  0  0
  160.8420  202.7920  149.0630 N   0  0  0  0  0  2  0  0  0  0  0  0
  161.1750  201.2030  150.9510 N   0  0  0  0  0  1  0  0  0  0  0  0
  160.7790  203.9000  151.1310 O   0  0  0  0  0  0  0  0  0  0  0  0
  1  8  1  0  0  0  0
  1 16  1  1  0  0  0
  2  7  1  0  0  0  0
  3 11  1  0  0  0  0
  4 35  1  6  0  0  0
  4 12  1  0  0  0  0
  4  5  1  0  0  0  0
  5 11  1  0  0  0  0
  5  8  2  0  0  0  0
  7  6  1  0  0  0  0
  8  9  1  0  0  0  0
  9  7  2  0  0  0  0
 10  1  1  0  0  0  0
 11  2  2  0  0  0  0
 12 10  1  6  0  0  0
 13 15  1  6  0  0  0
 13 12  1  0  0  0  0
 14 13  1  0  0  0  0
 15 14  1  0  0  0  0
 16 17  1  0  0  0  0
 18 19  2  0  0  0  0
 20 19  1  6  0  0  0
 20 27  1  0  0  0  0
 21 22  1  0  0  0  0
 22 17  1  6  0  0  0
 22 20  1  0  0  0  0
 23 31  1  6  0  0  0
 23 21  1  0  0  0  0
 23 19  1  0  0  0  0
 24 26  1  0  0  0  0
 24 25  1  0  0  0  0
 27 28  1  1  0  0  0
 27 24  1  0  0  0  0
 28 24  1  0  0  0  0
 29 18  1  0  0  0  0
 30 29  2  0  0  0  0
 32 31  1  0  0  0  0
 33 32  1  0  0  0  0
 34 33  1  0  0  0  0
 37 45  1  1  0  0  0
 38 36  1  6  0  0  0
 38 42  1  0  0  0  0
 38 35  1  0  0  0  0
 40 39  1  0  0  0  0
 40 38  1  0  0  0  0
 41 39  1  6  0  0  0
 41 42  1  0  0  0  0
 41 37  1  0  0  0  0
 42 37  1  0  0  0  0
 43 44  2  0  0  0  0
 44 47  1  0  0  0  0
 45 48  2  0  0  0  0
 46 44  1  0  0  0  0
 46 45  1  0  0  0  0
M  END
>  <MODEL>
1

>  <REMARK>
 VINA RESULT:      -4.0      0.000      0.000
  Name = 
  12 active torsions:
  status: ('A' for Active; 'I' for Inactive)
    1  A    between atoms: N_1  and  C_14
    2  A    between atoms: C_2  and  C_34
    3  A    between atoms: C_8  and  C_45
    4  A    between atoms: C_9  and  O_48
    5  A    between atoms: C_11  and  C_28
    6  A    between atoms: C_17  and  O_48
    7  A    between atoms: O_21  and  C_35
    8  A    between atoms: O_21  and  C_44
    9  A    between atoms: C_24  and  C_35
   10  A    between atoms: C_27  and  C_29
   11  A    between atoms: C_33  and  C_34
   12  A    between atoms: C_33  and  C_39
                            x       y       z     vdW  Elec       q    Type
                         _______ _______ _______ _____ _____    ______ ____

>  <TORSDO>
F 12

$$$$
=
 OpenBabel11072409553D

 48 54  0  0  1  0  0  0  0  0999 V2000
  160.5690  206.6850  152.5070 C   0  0  2  0  0  3  0  0  0  0  0  0
  162.6430  210.1850  151.0820 C   0  0  0  0  0  3  0  0  0  0  0  0
  163.1010  210.9730  153.3920 C   0  0  0  0  0  1  0  0  0  0  0  0
  161.1650  208.8910  154.3620 C   0  0  2  0  0  3  0  0  0  0  0  0
  161.6180  208.9750  152.9260 C   0  0  0  0  0  0  0  0  0  0  0  0
  162.2980  209.4590  148.7790 N   0  0  0  0  0  1  0  0  0  0  0  0
  162.0900  209.2830  150.1740 C   0  0  0  0  0  0  0  0  0  0  0  0
  161.1620  207.9960  152.0130 C   0  0  0  0  0  0  0  0  0  0  0  0
  161.3820  208.1750  150.6410 C   0  0  0  0  0  3  0  0  0  0  0  0
  160.2380  206.6690  153.9390 N   0  0  0  0  0  2  0  0  0  0  0  0
  162.4200  210.0330  152.4550 C   0  0  0  0  0  0  0  0  0  0  0  0
  161.2360  207.3940  154.7200 C   0  0  2  0  0  3  0  0  0  0  0  0
  161.1460  206.9820  156.2020 C   0  0  2  0  0  3  0  0  0  0  0  0
  160.2090  207.7710  156.8920 O   0  0  0  0  0  0  0  0  0  0  0  0
  161.5710  208.0420  157.1430 C   0  0  0  0  0  2  0  0  0  0  0  0
  161.4690  205.4950  152.1730 C   0  0  0  0  0  2  0  0  0  0  0  0
  161.7830  205.4830  150.6830 C   0  0  0  0  0  2  0  0  0  0  0  0
  161.0310  202.7770  147.1030 N   0  0  0  0  0  0  0  0  0  0  0  0
  160.8890  203.7630  147.9370 C   0  0  0  0  0  0  0  0  0  0  0  0
  160.6320  203.5850  149.3640 C   0  0  2  0  0  3  0  0  0  0  0  0
  160.4180  205.9060  148.7240 O   0  0  0  0  0  0  0  0  0  0  0  0
  160.5780  205.0460  149.8410 C   0  0  2  0  0  3  0  0  0  0  0  0
  160.7980  205.1920  147.5640 C   0  0  1  0  0  3  0  0  0  0  0  0
  161.3130  202.1800  151.3500 C   0  0  0  0  0  0  0  0  0  0  0  0
  162.4550  201.8990  152.3040 C   0  0  0  0  0  1  0  0  0  0  0  0
  159.9640  202.5300  151.9570 C   0  0  0  0  0  1  0  0  0  0  0  0
  161.7090  202.7190  150.0370 C   0  0  1  0  0  3  0  0  0  0  0  0
  161.1920  200.9450  150.0050 S   0  0  0  0  0  0  0  0  0  0  0  0
  161.1950  202.9590  145.6980 C   0  0  0  0  0  3  0  0  0  0  0  0
  160.2890  202.5920  144.9080 O   0  0  0  0  0  0  0  0  0  0  0  0
  162.0390  205.6550  147.1080 O   0  0  0  0  0  0  0  0  0  0  0  0
  161.7300  206.6790  146.2040 C   0  0  0  0  0  2  0  0  0  0  0  0
  160.6100  206.2350  145.2820 C   0  0  0  0  0  2  0  0  0  0  0  0
  161.1380  205.8350  144.0510 O   0  0  0  0  0  1  0  0  0  0  0  0
  159.8120  209.3030  154.4280 O   0  0  0  0  0  0  0  0  0  0  0  0
  160.7530  210.7650  155.9860 O   0  0  0  0  0  1  0  0  0  0  0  0
  158.4810  211.3850  153.0980 C   0  0  2  0  0  3  0  0  0  0  0  0
  159.6490  210.5030  155.1700 C   0  0  2  0  0  0  0  0  0  0  0  0
  157.3730  211.1000  155.1950 O   0  0  0  0  0  0  0  0  0  0  0  0
  158.3740  210.5260  155.9880 C   0  0  0  0  0  2  0  0  0  0  0  0
  158.0220  212.0500  154.3850 C   0  0  1  0  0  3  0  0  0  0  0  0
  159.4770  211.6610  154.2190 C   0  0  2  0  0  3  0  0  0  0  0  0
  161.2330  213.0010  149.3990 O   0  0  0  0  0  0  0  0  0  0  0  0
  160.1790  213.1800  150.0690 C   0  0  0  0  0  0  0  0  0  0  0  0
  158.7030  212.3690  151.9900 C   0  0  0  0  0  0  0  0  0  0  0  0
  159.8640  212.2840  151.1450 N   0  0  0  0  0  2  0  0  0  0  0  0
  159.3410  214.2910  149.7650 N   0  0  0  0  0  1  0  0  0  0  0  0
  157.8560  213.2900  151.8270 O   0  0  0  0  0  0  0  0  0  0  0  0
  1 16  1  1  0  0  0
  1 10  1  0  0  0  0
  2 11  1  0  0  0  0
  4 35  1  6  0  0  0
  4 12  1  0  0  0  0
  5  4  1  0  0  0  0
  6  7  1  0  0  0  0
  7  9  1  0  0  0  0
  7  2  2  0  0  0  0
  8  1  1  0  0  0  0
  8  5  1  0  0  0  0
  9  8  2  0  0  0  0
 11  5  2  0  0  0  0
 11  3  1  0  0  0  0
 12 10  1  6  0  0  0
 12 13  1  0  0  0  0
 13 14  1  0  0  0  0
 13 15  1  1  0  0  0
 14 15  1  0  0  0  0
 17 16  1  0  0  0  0
 18 19  2  0  0  0  0
 20 19  1  6  0  0  0
 20 22  1  0  0  0  0
 20 27  1  0  0  0  0
 21 22  1  0  0  0  0
 22 17  1  6  0  0  0
 23 31  1  1  0  0  0
 23 19  1  0  0  0  0
 23 21  1  0  0  0  0
 24 26  1  0  0  0  0
 24 25  1  0  0  0  0
 27 28  1  6  0  0  0
 27 24  1  0  0  0  0
 28 24  1  0  0  0  0
 29 18  1  0  0  0  0
 30 29  2  0  0  0  0
 32 31  1  0  0  0  0
 33 32  1  0  0  0  0
 34 33  1  0  0  0  0
 35 38  1  0  0  0  0
 37 45  1  6  0  0  0
 37 42  1  0  0  0  0
 37 41  1  0  0  0  0
 38 36  1  1  0  0  0
 38 40  1  0  0  0  0
 39 40  1  0  0  0  0
 41 39  1  1  0  0  0
 42 41  1  0  0  0  0
 42 38  1  0  0  0  0
 43 44  2  0  0  0  0
 44 46  1  0  0  0  0
 46 45  1  0  0  0  0
 47 44  1  0  0  0  0
 48 45  2  0  0  0  0
M  END
>  <MODEL>
2

>  <REMARK>
 VINA RESULT:      -3.1      3.238      9.117
  Name = 
  12 active torsions:
  status: ('A' for Active; 'I' for Inactive)
    1  A    between atoms: N_1  and  C_14
    2  A    between atoms: C_2  and  C_34
    3  A    between atoms: C_8  and  C_45
    4  A    between atoms: C_9  and  O_48
    5  A    between atoms: C_11  and  C_28
    6  A    between atoms: C_17  and  O_48
    7  A    between atoms: O_21  and  C_35
    8  A    between atoms: O_21  and  C_44
    9  A    between atoms: C_24  and  C_35
   10  A    between atoms: C_27  and  C_29
   11  A    between atoms: C_33  and  C_34
   12  A    between atoms: C_33  and  C_39
                            x       y       z     vdW  Elec       q    Type
                         _______ _______ _______ _____ _____    ______ ____

>  <TORSDO>
F 12

$$$$
=
 OpenBabel11072409553D

 48 54  0  0  1  0  0  0  0  0999 V2000
  160.2790  209.5860  151.6650 C   0  0  2  0  0  3  0  0  0  0  0  0
  162.1850  206.0090  153.1340 C   0  0  0  0  0  3  0  0  0  0  0  0
  163.9280  206.0970  151.3670 C   0  0  0  0  0  1  0  0  0  0  0  0
  162.2760  208.2030  150.0040 C   0  0  2  0  0  3  0  0  0  0  0  0
  161.9500  207.6770  151.3800 C   0  0  0  0  0  0  0  0  0  0  0  0
  160.5560  205.8770  154.9450 N   0  0  0  0  0  1  0  0  0  0  0  0
  161.0390  206.4970  153.7600 C   0  0  0  0  0  0  0  0  0  0  0  0
  160.8620  208.2440  152.0820 C   0  0  0  0  0  0  0  0  0  0  0  0
  160.4010  207.6300  153.2540 C   0  0  0  0  0  3  0  0  0  0  0  0
  160.7200  210.0580  150.3460 N   0  0  0  0  0  2  0  0  0  0  0  0
  162.6510  206.5980  151.9530 C   0  0  0  0  0  0  0  0  0  0  0  0
  162.1250  209.7330  150.1110 C   0  0  2  0  0  3  0  0  0  0  0  0
  162.6870  210.6130  148.9790 C   0  0  2  0  0  3  0  0  0  0  0  0
  162.4290  211.9750  149.2190 O   0  0  0  0  0  0  0  0  0  0  0  0
  161.6480  211.3490  148.2230 C   0  0  0  0  0  2  0  0  0  0  0  0
  160.5440  210.6670  152.7130 C   0  0  0  0  0  2  0  0  0  0  0  0
  159.4140  211.6890  152.7040 C   0  0  0  0  0  2  0  0  0  0  0  0
  157.5770  213.5730  156.4160 N   0  0  0  0  0  0  0  0  0  0  0  0
  158.2150  213.4720  155.2890 C   0  0  0  0  0  0  0  0  0  0  0  0
  159.4020  212.6400  155.1050 C   0  0  2  0  0  3  0  0  0  0  0  0
  159.0070  214.0340  153.1710 O   0  0  0  0  0  0  0  0  0  0  0  0
  159.7090  212.8850  153.6180 C   0  0  2  0  0  3  0  0  0  0  0  0
  157.9570  214.2890  154.0830 C   0  0  1  0  0  3  0  0  0  0  0  0
  160.1640  210.5840  156.3610 C   0  0  0  0  0  0  0  0  0  0  0  0
  160.3280  209.0830  156.2470 C   0  0  0  0  0  1  0  0  0  0  0  0
  161.3830  211.3920  156.7800 C   0  0  0  0  0  1  0  0  0  0  0  0
  159.1390  211.1730  155.4820 C   0  0  1  0  0  3  0  0  0  0  0  0
  158.6450  211.0660  157.2610 S   0  0  0  0  0  0  0  0  0  0  0  0
  156.4710  214.4530  156.6110 C   0  0  0  0  0  3  0  0  0  0  0  0
  155.2970  214.0140  156.5170 O   0  0  0  0  0  0  0  0  0  0  0  0
  156.7310  213.9330  153.5080 O   0  0  0  0  0  0  0  0  0  0  0  0
  157.0290  213.6670  152.1660 C   0  0  0  0  0  2  0  0  0  0  0  0
  156.0960  214.4530  151.2630 C   0  0  0  0  0  2  0  0  0  0  0  0
  156.4970  214.3160  149.9300 O   0  0  0  0  0  1  0  0  0  0  0  0
  161.3000  207.7190  149.0990 O   0  0  0  0  0  0  0  0  0  0  0  0
  163.1790  207.5300  147.7260 O   0  0  0  0  0  1  0  0  0  0  0  0
  160.6350  205.0130  148.7670 C   0  0  2  0  0  3  0  0  0  0  0  0
  161.8810  207.0770  147.9740 C   0  0  2  0  0  0  0  0  0  0  0  0
  160.1820  206.0860  146.6810 O   0  0  0  0  0  0  0  0  0  0  0  0
  161.0360  207.1950  146.7220 C   0  0  0  0  0  2  0  0  0  0  0  0
  160.8980  205.0270  147.2700 C   0  0  1  0  0  3  0  0  0  0  0  0
  161.9370  205.5890  148.2190 C   0  0  2  0  0  3  0  0  0  0  0  0
  161.1760  200.1830  148.2740 O   0  0  0  0  0  0  0  0  0  0  0  0
  161.1810  201.1550  149.0780 C   0  0  0  0  0  0  0  0  0  0  0  0
  160.9120  203.6770  149.3860 C   0  0  0  0  0  0  0  0  0  0  0  0
  160.9390  202.4810  148.5860 N   0  0  0  0  0  2  0  0  0  0  0  0
  161.3880  200.9090  150.4650 N   0  0  0  0  0  1  0  0  0  0  0  0
  161.1030  203.6210  150.6310 O   0  0  0  0  0  0  0  0  0  0  0  0
  1  8  1  0  0  0  0
  1 16  1  1  0  0  0
  2  7  1  0  0  0  0
  3 11  1  0  0  0  0
  4 35  1  6  0  0  0
  4 12  1  0  0  0  0
  4  5  1  0  0  0  0
  5 11  1  0  0  0  0
  5  8  2  0  0  0  0
  7  6  1  0  0  0  0
  8  9  1  0  0  0  0
  9  7  2  0  0  0  0
 10  1  1  0  0  0  0
 11  2  2  0  0  0  0
 12 10  1  6  0  0  0
 13 15  1  6  0  0  0
 13 14  1  0  0  0  0
 13 12  1  0  0  0  0
 15 14  1  0  0  0  0
 17 16  1  0  0  0  0
 18 29  1  0  0  0  0
 19 18  2  0  0  0  0
 20 19  1  6  0  0  0
 20 27  1  0  0  0  0
 21 22  1  0  0  0  0
 21 23  1  0  0  0  0
 22 17  1  6  0  0  0
 22 20  1  0  0  0  0
 23 31  1  6  0  0  0
 23 19  1  0  0  0  0
 24 26  1  0  0  0  0
 24 28  1  0  0  0  0
 25 24  1  0  0  0  0
 27 24  1  0  0  0  0
 27 28  1  1  0  0  0
 30 29  2  0  0  0  0
 32 31  1  0  0  0  0
 33 32  1  0  0  0  0
 34 33  1  0  0  0  0
 37 45  1  1  0  0  0
 38 36  1  6  0  0  0
 38 42  1  0  0  0  0
 38 35  1  0  0  0  0
 39 40  1  0  0  0  0
 40 38  1  0  0  0  0
 41 39  1  6  0  0  0
 41 42  1  0  0  0  0
 41 37  1  0  0  0  0
 42 37  1  0  0  0  0
 43 44  2  0  0  0  0
 44 47  1  0  0  0  0
 45 48  2  0  0  0  0
 46 44  1  0  0  0  0
 46 45  1  0  0  0  0
M  END
>  <MODEL>
3

>  <REMARK>
 VINA RESULT:      -1.6      1.735      2.268
  Name = 
  12 active torsions:
  status: ('A' for Active; 'I' for Inactive)
    1  A    between atoms: N_1  and  C_14
    2  A    between atoms: C_2  and  C_34
    3  A    between atoms: C_8  and  C_45
    4  A    between atoms: C_9  and  O_48
    5  A    between atoms: C_11  and  C_28
    6  A    between atoms: C_17  and  O_48
    7  A    between atoms: O_21  and  C_35
    8  A    between atoms: O_21  and  C_44
    9  A    between atoms: C_24  and  C_35
   10  A    between atoms: C_27  and  C_29
   11  A    between atoms: C_33  and  C_34
   12  A    between atoms: C_33  and  C_39
                            x       y       z     vdW  Elec       q    Type
                         _______ _______ _______ _____ _____    ______ ____

>  <TORSDO>
F 12

$$$$
=
 OpenBabel11072409553D

 48 54  0  0  1  0  0  0  0  0999 V2000
  160.4500  207.0420  152.5010 C   0  0  2  0  0  3  0  0  0  0  0  0
  162.7740  210.5920  151.7360 C   0  0  0  0  0  3  0  0  0  0  0  0
  163.1800  210.9640  154.1570 C   0  0  0  0  0  1  0  0  0  0  0  0
  161.0930  208.8770  154.7100 C   0  0  2  0  0  3  0  0  0  0  0  0
  161.6080  209.1650  153.3220 C   0  0  0  0  0  0  0  0  0  0  0  0
  162.4840  210.2720  149.3350 N   0  0  0  0  0  1  0  0  0  0  0  0
  162.2090  209.8850  150.6750 C   0  0  0  0  0  0  0  0  0  0  0  0
  161.1360  208.3770  152.2480 C   0  0  0  0  0  0  0  0  0  0  0  0
  161.4220  208.7620  150.9310 C   0  0  0  0  0  3  0  0  0  0  0  0
  160.0600  206.8150  153.8990 N   0  0  0  0  0  2  0  0  0  0  0  0
  162.4870  210.2340  153.0570 C   0  0  0  0  0  0  0  0  0  0  0  0
  161.0650  207.3400  154.8200 C   0  0  2  0  0  3  0  0  0  0  0  0
  160.8920  206.7000  156.2100 C   0  0  2  0  0  3  0  0  0  0  0  0
  159.5560  206.7790  156.6430 O   0  0  0  0  0  0  0  0  0  0  0  0
  160.4740  207.6560  157.2600 C   0  0  0  0  0  2  0  0  0  0  0  0
  161.2950  205.8690  152.0040 C   0  0  0  0  0  2  0  0  0  0  0  0
  160.8190  205.4310  150.6250 C   0  0  0  0  0  2  0  0  0  0  0  0
  160.9590  202.9140  146.8380 N   0  0  0  0  0  0  0  0  0  0  0  0
  161.1930  203.2950  148.0580 C   0  0  0  0  0  0  0  0  0  0  0  0
  161.8090  204.5750  148.4000 C   0  0  2  0  0  3  0  0  0  0  0  0
  161.6090  203.1560  150.3460 O   0  0  0  0  0  0  0  0  0  0  0  0
  161.8210  204.4970  149.9360 C   0  0  2  0  0  3  0  0  0  0  0  0
  161.0360  202.4510  149.2630 C   0  0  1  0  0  3  0  0  0  0  0  0
  161.8400  206.9760  147.6170 C   0  0  0  0  0  0  0  0  0  0  0  0
  161.0740  208.2820  147.6710 C   0  0  0  0  0  1  0  0  0  0  0  0
  163.3040  207.0060  148.0290 C   0  0  0  0  0  1  0  0  0  0  0  0
  161.0290  205.7620  147.8130 C   0  0  1  0  0  3  0  0  0  0  0  0
  161.5550  206.0500  146.0640 S   0  0  0  0  0  0  0  0  0  0  0  0
  160.4370  201.6280  146.5080 C   0  0  0  0  0  3  0  0  0  0  0  0
  160.4050  201.2530  145.3090 O   0  0  0  0  0  0  0  0  0  0  0  0
  159.6790  202.2140  149.5160 O   0  0  0  0  0  0  0  0  0  0  0  0
  159.6220  200.8860  149.9550 C   0  0  0  0  0  2  0  0  0  0  0  0
  158.2280  200.3280  149.7380 C   0  0  0  0  0  2  0  0  0  0  0  0
  157.5000  201.1800  148.9010 O   0  0  0  0  0  1  0  0  0  0  0  0
  159.7630  209.3560  154.8010 O   0  0  0  0  0  0  0  0  0  0  0  0
  160.8430  210.8010  156.2840 O   0  0  0  0  0  1  0  0  0  0  0  0
  158.3290  211.4540  153.6110 C   0  0  2  0  0  3  0  0  0  0  0  0
  159.6710  210.5490  155.5650 C   0  0  2  0  0  0  0  0  0  0  0  0
  157.4080  211.1540  155.7950 O   0  0  0  0  0  0  0  0  0  0  0  0
  158.4720  210.5690  156.4920 C   0  0  0  0  0  2  0  0  0  0  0  0
  157.9870  212.1090  154.9400 C   0  0  1  0  0  3  0  0  0  0  0  0
  159.4200  211.7170  154.6430 C   0  0  2  0  0  3  0  0  0  0  0  0
  160.8420  213.1980  149.8020 O   0  0  0  0  0  0  0  0  0  0  0  0
  159.8100  213.3270  150.5160 C   0  0  0  0  0  0  0  0  0  0  0  0
  158.4580  212.4490  152.4970 C   0  0  0  0  0  0  0  0  0  0  0  0
  159.5840  212.4180  151.6030 N   0  0  0  0  0  2  0  0  0  0  0  0
  158.9100  214.3990  150.2520 N   0  0  0  0  0  1  0  0  0  0  0  0
  157.5630  213.3290  152.3730 O   0  0  0  0  0  0  0  0  0  0  0  0
  1 16  1  1  0  0  0
  1 10  1  0  0  0  0
  2 11  1  0  0  0  0
  4 35  1  6  0  0  0
  4 12  1  0  0  0  0
  5  4  1  0  0  0  0
  6  7  1  0  0  0  0
  7  9  1  0  0  0  0
  7  2  2  0  0  0  0
  8  1  1  0  0  0  0
  8  5  1  0  0  0  0
  9  8  2  0  0  0  0
 11  5  2  0  0  0  0
 11  3  1  0  0  0  0
 12 10  1  6  0  0  0
 12 13  1  0  0  0  0
 13 14  1  0  0  0  0
 13 15  1  1  0  0  0
 14 15  1  0  0  0  0
 17 16  1  0  0  0  0
 18 19  2  0  0  0  0
 19 23  1  0  0  0  0
 20 19  1  6  0  0  0
 20 22  1  0  0  0  0
 22 21  1  0  0  0  0
 22 17  1  1  0  0  0
 23 31  1  1  0  0  0
 23 21  1  0  0  0  0
 24 25  1  0  0  0  0
 24 27  1  0  0  0  0
 24 26  1  0  0  0  0
 27 28  1  6  0  0  0
 27 20  1  0  0  0  0
 28 24  1  0  0  0  0
 29 18  1  0  0  0  0
 30 29  2  0  0  0  0
 31 32  1  0  0  0  0
 33 32  1  0  0  0  0
 34 33  1  0  0  0  0
 35 38  1  0  0  0  0
 37 45  1  6  0  0  0
 37 42  1  0  0  0  0
 37 41  1  0  0  0  0
 38 36  1  1  0  0  0
 38 40  1  0  0  0  0
 39 40  1  0  0  0  0
 41 39  1  1  0  0  0
 42 41  1  0  0  0  0
 42 38  1  0  0  0  0
 43 44  2  0  0  0  0
 44 46  1  0  0  0  0
 46 45  1  0  0  0  0
 47 44  1  0  0  0  0
 48 45  2  0  0  0  0
M  END
>  <MODEL>
4

>  <REMARK>
 VINA RESULT:      -1.0      3.070      9.590
  Name = 
  12 active torsions:
  status: ('A' for Active; 'I' for Inactive)
    1  A    between atoms: N_1  and  C_14
    2  A    between atoms: C_2  and  C_34
    3  A    between atoms: C_8  and  C_45
    4  A    between atoms: C_9  and  O_48
    5  A    between atoms: C_11  and  C_28
    6  A    between atoms: C_17  and  O_48
    7  A    between atoms: O_21  and  C_35
    8  A    between atoms: O_21  and  C_44
    9  A    between atoms: C_24  and  C_35
   10  A    between atoms: C_27  and  C_29
   11  A    between atoms: C_33  and  C_34
   12  A    between atoms: C_33  and  C_39
                            x       y       z     vdW  Elec       q    Type
                         _______ _______ _______ _____ _____    ______ ____

>  <TORSDO>
F 12

$$$$
