=
 OpenBabel11072414393D

 26 29  0  0  1  0  0  0  0  0999 V2000
  161.4340  210.5280  153.6640 C   0  0  2  0  0  3  0  0  0  0  0  0
  162.1300  210.7020  154.9980 C   0  0  0  0  0  2  0  0  0  0  0  0
  159.8810  211.6080  155.2660 N   0  0  0  0  0  0  0  0  0  0  0  0
  158.9460  211.0990  152.9470 C   0  0  1  0  0  3  0  0  0  0  0  0
  159.7940  212.3050  152.9560 N   0  0  0  0  0  0  0  0  0  0  0  0
  161.2350  211.6310  155.8190 C   0  0  0  0  0  2  0  0  0  0  0  0
  160.0780  211.1800  153.8850 C   0  0  2  0  0  0  0  0  0  0  0  0
  157.7310  211.3910  153.5710 O   0  0  0  0  0  1  0  0  0  0  0  0
  161.8810  207.7260  149.2960 C   0  0  0  0  0  0  0  0  0  0  0  0
  161.5530  206.8250  150.2330 C   0  0  1  0  0  3  0  0  0  0  0  0
  160.7750  206.8500  153.9700 C   0  0  0  0  0  3  0  0  0  0  0  0
  161.4890  208.6880  151.9480 C   0  0  0  0  0  0  0  0  0  0  0  0
  162.0000  209.2010  149.6050 C   0  0  0  0  0  3  0  0  0  0  0  0
  162.1110  207.3100  147.9910 O   0  0  0  0  0  1  0  0  0  0  0  0
  160.9240  208.1360  154.3000 C   0  0  0  0  0  3  0  0  0  0  0  0
  161.3000  209.1140  153.3100 N   0  0  0  0  0  0  0  0  0  0  0  0
  161.8060  209.5410  151.0200 N   0  0  0  0  0  0  0  0  0  0  0  0
  161.4490  205.4450  149.8880 N   0  0  0  0  0  1  0  0  0  0  0  0
  161.3270  207.2620  151.6180 C   0  0  0  0  0  0  0  0  0  0  0  0
  160.9880  206.3980  152.5820 C   0  0  0  0  0  3  0  0  0  0  0  0
  160.5690  212.2180  151.8440 O   0  0  0  0  0  0  0  0  0  0  0  0
  160.7130  213.0170  149.6110 C   0  0  0  0  0  1  0  0  0  0  0  0
  159.9780  213.0940  150.9320 C   0  0  0  0  0  2  0  0  0  0  0  0
  159.1540  210.5630  155.9790 C   0  0  0  0  0  2  0  0  0  0  0  0
  157.7010  211.8080  157.0730 C   0  0  0  0  0  1  0  0  0  0  0  0
  158.8260  211.0060  157.2610 O   0  0  0  0  0  0  0  0  0  0  0  0
  1 16  1  1  0  0  0
  1  7  1  0  0  0  0
  1  2  1  0  0  0  0
  2  6  1  0  0  0  0
  3  6  1  0  0  0  0
  3 24  1  0  0  0  0
  4  5  1  0  0  0  0
  4  8  1  1  0  0  0
  4  7  1  0  0  0  0
  7  5  1  6  0  0  0
  7  3  1  0  0  0  0
  9 13  2  0  0  0  0
  9 10  1  0  0  0  0
 10 18  1  1  0  0  0
 10 19  1  0  0  0  0
 11 15  2  0  0  0  0
 12 16  1  0  0  0  0
 13 17  1  0  0  0  0
 14  9  1  0  0  0  0
 16 15  1  0  0  0  0
 17 12  2  0  0  0  0
 19 12  1  0  0  0  0
 19 20  2  0  0  0  0
 20 11  1  0  0  0  0
 21  5  1  0  0  0  0
 22 23  1  0  0  0  0
 23 21  1  0  0  0  0
 24 26  1  0  0  0  0
 25 26  1  0  0  0  0
M  END
>  <MODEL>
1

>  <REMARK>
 VINA RESULT:      -6.1      0.000      0.000
  Name = 
  5 active torsions:
  status: ('A' for Active; 'I' for Inactive)
    1  A    between atoms: C_1  and  N_17
    2  A    between atoms: O_5  and  N_19
    3  A    between atoms: O_5  and  C_25
    4  A    between atoms: O_6  and  C_16
    5  A    between atoms: N_11  and  C_16
                            x       y       z     vdW  Elec       q    Type
                         _______ _______ _______ _____ _____    ______ ____

>  <TORSDO>
F 5

$$$$
=
 OpenBabel11072414393D

 26 29  0  0  1  0  0  0  0  0999 V2000
  161.5990  210.2550  153.3510 C   0  0  2  0  0  3  0  0  0  0  0  0
  162.3910  210.3520  154.6390 C   0  0  0  0  0  2  0  0  0  0  0  0
  160.1850  211.2810  155.1090 N   0  0  0  0  0  0  0  0  0  0  0  0
  159.0790  210.9000  152.8420 C   0  0  1  0  0  3  0  0  0  0  0  0
  159.9490  212.0900  152.8470 N   0  0  0  0  0  0  0  0  0  0  0  0
  161.5750  211.2560  155.5650 C   0  0  0  0  0  2  0  0  0  0  0  0
  160.2750  210.9170  153.6990 C   0  0  2  0  0  0  0  0  0  0  0  0
  157.9170  211.1820  153.5650 O   0  0  0  0  0  1  0  0  0  0  0  0
  161.8510  207.6280  148.8600 C   0  0  0  0  0  0  0  0  0  0  0  0
  161.5180  206.6990  149.7660 C   0  0  1  0  0  3  0  0  0  0  0  0
  160.8320  206.5880  153.5200 C   0  0  0  0  0  3  0  0  0  0  0  0
  161.5550  208.4880  151.5590 C   0  0  0  0  0  0  0  0  0  0  0  0
  162.0240  209.0850  149.2260 C   0  0  0  0  0  3  0  0  0  0  0  0
  162.0360  207.2620  147.5320 O   0  0  0  0  0  1  0  0  0  0  0  0
  161.0300  207.8540  153.9000 C   0  0  0  0  0  3  0  0  0  0  0  0
  161.4120  208.8610  152.9420 N   0  0  0  0  0  0  0  0  0  0  0  0
  161.8750  209.3700  150.6590 N   0  0  0  0  0  0  0  0  0  0  0  0
  161.3620  205.3380  149.3670 N   0  0  0  0  0  1  0  0  0  0  0  0
  161.3400  207.0830  151.1730 C   0  0  0  0  0  0  0  0  0  0  0  0
  160.9970  206.1890  152.1090 C   0  0  0  0  0  3  0  0  0  0  0  0
  160.6410  212.0440  151.6790 O   0  0  0  0  0  0  0  0  0  0  0  0
  159.7170  214.2070  151.3420 C   0  0  0  0  0  1  0  0  0  0  0  0
  159.8840  212.8080  150.7890 C   0  0  0  0  0  2  0  0  0  0  0  0
  159.4900  210.2150  155.8230 C   0  0  0  0  0  2  0  0  0  0  0  0
  160.1630  208.6860  157.2610 C   0  0  0  0  0  1  0  0  0  0  0  0
  160.0390  210.0650  157.0970 O   0  0  0  0  0  0  0  0  0  0  0  0
  1 16  1  1  0  0  0
  1  7  1  0  0  0  0
  1  2  1  0  0  0  0
  2  6  1  0  0  0  0
  3  6  1  0  0  0  0
  3 24  1  0  0  0  0
  4  5  1  0  0  0  0
  4  8  1  1  0  0  0
  4  7  1  0  0  0  0
  7  5  1  6  0  0  0
  7  3  1  0  0  0  0
  9 13  2  0  0  0  0
  9 10  1  0  0  0  0
 10 18  1  1  0  0  0
 10 19  1  0  0  0  0
 11 15  2  0  0  0  0
 12 16  1  0  0  0  0
 13 17  1  0  0  0  0
 14  9  1  0  0  0  0
 16 15  1  0  0  0  0
 17 12  2  0  0  0  0
 19 12  1  0  0  0  0
 19 20  2  0  0  0  0
 20 11  1  0  0  0  0
 21  5  1  0  0  0  0
 23 22  1  0  0  0  0
 23 21  1  0  0  0  0
 24 26  1  0  0  0  0
 26 25  1  0  0  0  0
M  END
>  <MODEL>
2

>  <REMARK>
 VINA RESULT:      -5.7      0.794      1.042
  Name = 
  5 active torsions:
  status: ('A' for Active; 'I' for Inactive)
    1  A    between atoms: C_1  and  N_17
    2  A    between atoms: O_5  and  N_19
    3  A    between atoms: O_5  and  C_25
    4  A    between atoms: O_6  and  C_16
    5  A    between atoms: N_11  and  C_16
                            x       y       z     vdW  Elec       q    Type
                         _______ _______ _______ _____ _____    ______ ____

>  <TORSDO>
F 5

$$$$
=
 OpenBabel11072414393D

 26 29  0  0  1  0  0  0  0  0999 V2000
  160.7060  211.2550  154.5030 C   0  0  2  0  0  3  0  0  0  0  0  0
  161.1680  211.7080  155.8730 C   0  0  0  0  0  2  0  0  0  0  0  0
  158.8520  212.4360  155.6480 N   0  0  0  0  0  0  0  0  0  0  0  0
  158.3320  211.4710  153.3440 C   0  0  1  0  0  3  0  0  0  0  0  0
  159.0870  212.7340  153.2640 N   0  0  0  0  0  0  0  0  0  0  0  0
  160.0960  212.6740  156.3790 C   0  0  0  0  0  2  0  0  0  0  0  0
  159.2920  211.8070  154.4080 C   0  0  2  0  0  0  0  0  0  0  0  0
  157.0170  211.7490  153.7240 O   0  0  0  0  0  1  0  0  0  0  0  0
  162.0660  207.8250  150.8270 C   0  0  0  0  0  0  0  0  0  0  0  0
  161.6390  207.0640  151.8440 C   0  0  1  0  0  3  0  0  0  0  0  0
  160.2310  207.6320  155.3470 C   0  0  0  0  0  3  0  0  0  0  0  0
  161.1680  209.1700  153.1710 C   0  0  0  0  0  0  0  0  0  0  0  0
  162.0400  209.3360  150.8850 C   0  0  0  0  0  3  0  0  0  0  0  0
  162.5420  207.2230  149.6690 O   0  0  0  0  0  1  0  0  0  0  0  0
  160.2420  208.9630  155.4640 C   0  0  0  0  0  3  0  0  0  0  0  0
  160.7220  209.7950  154.3890 N   0  0  0  0  0  0  0  0  0  0  0  0
  161.5850  209.8850  152.1690 N   0  0  0  0  0  0  0  0  0  0  0  0
  161.6800  205.6420  151.7370 N   0  0  0  0  0  1  0  0  0  0  0  0
  161.1520  207.7000  153.0770 C   0  0  0  0  0  0  0  0  0  0  0  0
  160.7070  206.9790  154.1130 C   0  0  0  0  0  3  0  0  0  0  0  0
  160.0320  212.5370  152.3090 O   0  0  0  0  0  0  0  0  0  0  0  0
  159.6810  213.2520  150.0700 C   0  0  0  0  0  1  0  0  0  0  0  0
  159.9590  213.6710  151.4990 C   0  0  0  0  0  2  0  0  0  0  0  0
  158.0900  211.4610  156.4210 C   0  0  0  0  0  2  0  0  0  0  0  0
  155.9580  211.5410  156.9730 C   0  0  0  0  0  1  0  0  0  0  0  0
  157.1930  212.1210  157.2610 O   0  0  0  0  0  0  0  0  0  0  0  0
  1 16  1  1  0  0  0
  1  2  1  0  0  0  0
  2  6  1  0  0  0  0
  3  6  1  0  0  0  0
  3 24  1  0  0  0  0
  4  8  1  1  0  0  0
  4  7  1  0  0  0  0
  5  4  1  0  0  0  0
  7  5  1  6  0  0  0
  7  1  1  0  0  0  0
  7  3  1  0  0  0  0
  9 13  2  0  0  0  0
  9 10  1  0  0  0  0
 10 18  1  1  0  0  0
 10 19  1  0  0  0  0
 11 15  2  0  0  0  0
 12 16  1  0  0  0  0
 13 17  1  0  0  0  0
 14  9  1  0  0  0  0
 16 15  1  0  0  0  0
 17 12  2  0  0  0  0
 19 12  1  0  0  0  0
 19 20  2  0  0  0  0
 20 11  1  0  0  0  0
 21  5  1  0  0  0  0
 22 23  1  0  0  0  0
 23 21  1  0  0  0  0
 24 26  1  0  0  0  0
 25 26  1  0  0  0  0
M  END
>  <MODEL>
3

>  <REMARK>
 VINA RESULT:      -5.3      1.237      1.429
  Name = 
  5 active torsions:
  status: ('A' for Active; 'I' for Inactive)
    1  A    between atoms: C_1  and  N_17
    2  A    between atoms: O_5  and  N_19
    3  A    between atoms: O_5  and  C_25
    4  A    between atoms: O_6  and  C_16
    5  A    between atoms: N_11  and  C_16
                            x       y       z     vdW  Elec       q    Type
                         _______ _______ _______ _____ _____    ______ ____

>  <TORSDO>
F 5

$$$$
