=
 OpenBabel11072412223D

 27 28  0  0  1  0  0  0  0  0999 V2000
  161.6020  208.8080  155.4990 O   0  0  0  0  0  1  0  0  0  0  0  0
  161.5040  208.9440  152.1670 C   0  0  0  0  0  0  0  0  0  0  0  0
  162.3840  207.8590  149.9100 S   0  0  0  0  0  0  0  0  0  0  0  0
  160.9690  207.3170  153.7390 C   0  0  0  0  0  2  0  0  0  0  0  0
  161.4210  207.6650  152.3730 C   0  0  0  0  0  0  0  0  0  0  0  0
  160.7590  208.6860  154.3960 C   0  0  2  0  0  3  0  0  0  0  0  0
  161.8630  206.7600  151.2850 C   0  0  1  0  0  3  0  0  0  0  0  0
  162.0650  209.3860  150.8680 C   0  0  0  0  0  2  0  0  0  0  0  0
  161.1160  209.7610  153.3510 C   0  0  2  0  0  3  0  0  0  0  0  0
  159.9010  210.6530  153.0480 C   0  0  1  0  0  3  0  0  0  0  0  0
  155.2970  211.7750  157.1170 O   0  0  0  0  0  1  0  0  0  0  0  0
  157.9690  211.0470  154.6510 N   0  0  0  0  0  2  0  0  0  0  0  0
  155.9440  211.2870  156.0340 N   0  0  0  0  0  2  0  0  0  0  0  0
  159.3430  211.2610  154.3000 C   0  0  0  0  0  0  0  0  0  0  0  0
  157.3200  211.5820  155.8090 C   0  0  0  0  0  0  0  0  0  0  0  0
  157.9490  212.3060  156.6260 O   0  0  0  0  0  0  0  0  0  0  0  0
  160.0980  211.9530  155.0340 O   0  0  0  0  0  0  0  0  0  0  0  0
  160.2660  211.7600  152.0660 C   0  0  0  0  0  2  0  0  0  0  0  0
  159.1570  212.5730  151.8280 O   0  0  0  0  0  1  0  0  0  0  0  0
  160.7040  205.8780  150.8430 C   0  0  0  0  0  2  0  0  0  0  0  0
  161.1930  204.6690  150.1140 C   0  0  0  0  0  3  0  0  0  0  0  0
  161.0500  204.5570  148.7900 C   0  0  0  0  0  3  0  0  0  0  0  0
  160.7850  202.0970  148.4330 C   0  0  0  0  0  1  0  0  0  0  0  0
  161.5330  203.3580  148.0270 C   0  0  1  0  0  3  0  0  0  0  0  0
  161.1010  202.6510  145.7750 O   0  0  0  0  0  0  0  0  0  0  0  0
  161.4830  203.5720  146.5470 C   0  0  0  0  0  0  0  0  0  0  0  0
  161.8390  204.8060  146.0210 O   0  0  0  0  0  1  0  0  0  0  0  0
  2  5  2  0  0  0  0
  2  9  1  0  0  0  0
  3  8  1  0  0  0  0
  3  7  1  0  0  0  0
  4  6  1  0  0  0  0
  5  4  1  0  0  0  0
  6  1  1  1  0  0  0
  7 20  1  6  0  0  0
  7  5  1  0  0  0  0
  8  2  1  0  0  0  0
  9 10  1  6  0  0  0
  9  6  1  0  0  0  0
 10 18  1  6  0  0  0
 10 14  1  0  0  0  0
 12 15  1  0  0  0  0
 13 11  1  0  0  0  0
 14 12  1  0  0  0  0
 14 17  2  0  0  0  0
 15 13  1  0  0  0  0
 15 16  2  0  0  0  0
 19 18  1  0  0  0  0
 21 20  1  0  0  0  0
 22 21  2  0  0  0  0
 24 23  1  6  0  0  0
 24 22  1  0  0  0  0
 25 26  2  0  0  0  0
 26 24  1  0  0  0  0
 27 26  1  0  0  0  0
M  END
>  <MODEL>
1

>  <REMARK>
 VINA RESULT:      -7.5      0.000      0.000
  Name = 
  7 active torsions:
  status: ('A' for Active; 'I' for Inactive)
    1  A    between atoms: C_3  and  C_17
    2  A    between atoms: C_3  and  C_19
    3  A    between atoms: C_3  and  C_26
    4  A    between atoms: C_4  and  C_18
    5  A    between atoms: C_11  and  C_15
    6  A    between atoms: C_14  and  C_15
    7  A    between atoms: C_18  and  C_21
                            x       y       z     vdW  Elec       q    Type
                         _______ _______ _______ _____ _____    ______ ____

>  <TORSDO>
F 7

$$$$
=
 OpenBabel11072412223D

 27 28  0  0  1  0  0  0  0  0999 V2000
  162.8380  207.3690  149.1620 O   0  0  0  0  0  1  0  0  0  0  0  0
  161.4470  206.8630  152.1520 C   0  0  0  0  0  0  0  0  0  0  0  0
  161.1810  207.7950  154.6230 S   0  0  0  0  0  0  0  0  0  0  0  0
  161.3370  208.5740  150.5820 C   0  0  0  0  0  2  0  0  0  0  0  0
  161.2570  208.1380  151.9940 C   0  0  0  0  0  0  0  0  0  0  0  0
  161.6180  207.2690  149.8280 C   0  0  2  0  0  3  0  0  0  0  0  0
  161.0870  208.9660  153.2120 C   0  0  1  0  0  3  0  0  0  0  0  0
  161.5060  206.3530  153.5420 C   0  0  0  0  0  2  0  0  0  0  0  0
  161.6900  206.1380  150.8730 C   0  0  2  0  0  3  0  0  0  0  0  0
  160.6070  205.0800  150.6080 C   0  0  1  0  0  3  0  0  0  0  0  0
  161.4390  200.0340  147.0200 O   0  0  0  0  0  1  0  0  0  0  0  0
  160.9310  202.9700  149.2300 N   0  0  0  0  0  2  0  0  0  0  0  0
  161.2360  200.7880  148.1260 N   0  0  0  0  0  2  0  0  0  0  0  0
  160.8200  204.3980  149.2890 C   0  0  0  0  0  0  0  0  0  0  0  0
  161.1450  202.2080  148.0370 C   0  0  0  0  0  0  0  0  0  0  0  0
  161.2550  202.7760  146.9180 O   0  0  0  0  0  0  0  0  0  0  0  0
  160.8950  205.0970  148.2440 O   0  0  0  0  0  0  0  0  0  0  0  0
  160.5780  204.0370  151.7190 C   0  0  0  0  0  2  0  0  0  0  0  0
  161.8390  203.4570  151.8640 O   0  0  0  0  0  1  0  0  0  0  0  0
  159.7270  209.6510  153.1860 C   0  0  0  0  0  2  0  0  0  0  0  0
  159.8360  211.0490  152.6710 C   0  0  0  0  0  3  0  0  0  0  0  0
  158.7860  211.8740  152.6890 C   0  0  0  0  0  3  0  0  0  0  0  0
  159.8080  213.4040  150.9970 C   0  0  0  0  0  1  0  0  0  0  0  0
  158.8630  213.2850  152.1830 C   0  0  1  0  0  3  0  0  0  0  0  0
  157.2220  214.2010  150.6910 O   0  0  0  0  0  0  0  0  0  0  0  0
  157.5120  213.8460  151.8650 C   0  0  0  0  0  0  0  0  0  0  0  0
  156.5620  213.9550  152.8710 O   0  0  0  0  0  1  0  0  0  0  0  0
  2  8  1  0  0  0  0
  4  5  1  0  0  0  0
  5  2  2  0  0  0  0
  5  7  1  0  0  0  0
  6  1  1  1  0  0  0
  6  4  1  0  0  0  0
  6  9  1  0  0  0  0
  7 20  1  6  0  0  0
  7  3  1  0  0  0  0
  8  3  1  0  0  0  0
  9 10  1  6  0  0  0
  9  2  1  0  0  0  0
 10 18  1  1  0  0  0
 11 13  1  0  0  0  0
 12 14  1  0  0  0  0
 14 10  1  0  0  0  0
 15 13  1  0  0  0  0
 15 12  1  0  0  0  0
 16 15  2  0  0  0  0
 17 14  2  0  0  0  0
 18 19  1  0  0  0  0
 21 22  2  0  0  0  0
 21 20  1  0  0  0  0
 24 23  1  6  0  0  0
 24 22  1  0  0  0  0
 25 26  2  0  0  0  0
 26 24  1  0  0  0  0
 26 27  1  0  0  0  0
M  END
>  <MODEL>
2

>  <REMARK>
 VINA RESULT:      -6.4      3.937      9.293
  Name = 
  7 active torsions:
  status: ('A' for Active; 'I' for Inactive)
    1  A    between atoms: C_3  and  C_17
    2  A    between atoms: C_3  and  C_19
    3  A    between atoms: C_3  and  C_26
    4  A    between atoms: C_4  and  C_18
    5  A    between atoms: C_11  and  C_15
    6  A    between atoms: C_14  and  C_15
    7  A    between atoms: C_18  and  C_21
                            x       y       z     vdW  Elec       q    Type
                         _______ _______ _______ _____ _____    ______ ____

>  <TORSDO>
F 7

$$$$
=
 OpenBabel11072412223D

 27 28  0  0  1  0  0  0  0  0999 V2000
  163.0960  207.4630  149.1590 O   0  0  0  0  0  1  0  0  0  0  0  0
  161.4780  206.8440  152.0110 C   0  0  0  0  0  0  0  0  0  0  0  0
  161.0660  207.6480  154.5070 S   0  0  0  0  0  0  0  0  0  0  0  0
  161.5370  208.6420  150.5390 C   0  0  0  0  0  2  0  0  0  0  0  0
  161.3420  208.1320  151.9140 C   0  0  0  0  0  0  0  0  0  0  0  0
  161.8290  207.3710  149.7320 C   0  0  2  0  0  3  0  0  0  0  0  0
  161.1120  208.8970  153.1630 C   0  0  1  0  0  3  0  0  0  0  0  0
  161.4210  206.2570  153.3700 C   0  0  0  0  0  2  0  0  0  0  0  0
  161.7890  206.1820  150.7120 C   0  0  2  0  0  3  0  0  0  0  0  0
  160.6940  205.1810  150.3120 C   0  0  1  0  0  3  0  0  0  0  0  0
  161.3710  205.5060  144.1100 O   0  0  0  0  0  1  0  0  0  0  0  0
  160.9600  205.4130  147.7960 N   0  0  0  0  0  2  0  0  0  0  0  0
  161.1560  205.8990  145.3880 N   0  0  0  0  0  2  0  0  0  0  0  0
  160.9670  204.5820  148.9640 C   0  0  0  0  0  0  0  0  0  0  0  0
  161.1930  204.9590  146.4590 C   0  0  0  0  0  0  0  0  0  0  0  0
  161.4290  203.7440  146.2210 O   0  0  0  0  0  0  0  0  0  0  0  0
  161.2050  203.3480  148.8790 O   0  0  0  0  0  0  0  0  0  0  0  0
  160.5670  204.0680  151.3450 C   0  0  0  0  0  2  0  0  0  0  0  0
  161.8230  203.5250  151.6210 O   0  0  0  0  0  1  0  0  0  0  0  0
  159.7810  209.6320  153.0810 C   0  0  0  0  0  2  0  0  0  0  0  0
  159.9760  211.0650  152.7090 C   0  0  0  0  0  3  0  0  0  0  0  0
  158.9330  211.8600  152.4550 C   0  0  0  0  0  3  0  0  0  0  0  0
  159.8640  213.4650  150.7800 C   0  0  0  0  0  1  0  0  0  0  0  0
  159.0950  213.3050  152.0820 C   0  0  1  0  0  3  0  0  0  0  0  0
  157.1940  214.3580  153.1000 O   0  0  0  0  0  1  0  0  0  0  0  0
  157.7850  214.0270  152.0370 C   0  0  0  0  0  0  0  0  0  0  0  0
  157.2260  214.3550  150.8090 O   0  0  0  0  0  0  0  0  0  0  0  0
  2  8  1  0  0  0  0
  4  5  1  0  0  0  0
  5  2  2  0  0  0  0
  5  7  1  0  0  0  0
  6  1  1  1  0  0  0
  6  4  1  0  0  0  0
  6  9  1  0  0  0  0
  7 20  1  6  0  0  0
  7  3  1  0  0  0  0
  8  3  1  0  0  0  0
  9 10  1  6  0  0  0
  9  2  1  0  0  0  0
 10 18  1  1  0  0  0
 11 13  1  0  0  0  0
 12 14  1  0  0  0  0
 13 15  1  0  0  0  0
 14 10  1  0  0  0  0
 15 12  1  0  0  0  0
 16 15  2  0  0  0  0
 17 14  2  0  0  0  0
 18 19  1  0  0  0  0
 21 20  1  0  0  0  0
 22 21  2  0  0  0  0
 24 23  1  6  0  0  0
 24 22  1  0  0  0  0
 26 24  1  0  0  0  0
 26 25  1  0  0  0  0
 27 26  2  0  0  0  0
M  END
>  <MODEL>
3

>  <REMARK>
 VINA RESULT:      -6.3      3.805      9.158
  Name = 
  7 active torsions:
  status: ('A' for Active; 'I' for Inactive)
    1  A    between atoms: C_3  and  C_17
    2  A    between atoms: C_3  and  C_19
    3  A    between atoms: C_3  and  C_26
    4  A    between atoms: C_4  and  C_18
    5  A    between atoms: C_11  and  C_15
    6  A    between atoms: C_14  and  C_15
    7  A    between atoms: C_18  and  C_21
                            x       y       z     vdW  Elec       q    Type
                         _______ _______ _______ _____ _____    ______ ____

>  <TORSDO>
F 7

$$$$
=
 OpenBabel11072412223D

 27 28  0  0  1  0  0  0  0  0999 V2000
  163.1220  207.3010  149.1140 O   0  0  0  0  0  1  0  0  0  0  0  0
  161.4650  207.1420  152.0060 C   0  0  0  0  0  0  0  0  0  0  0  0
  161.0760  208.2920  154.3670 S   0  0  0  0  0  0  0  0  0  0  0  0
  161.6090  208.7210  150.3060 C   0  0  0  0  0  2  0  0  0  0  0  0
  161.3860  208.4100  151.7350 C   0  0  0  0  0  0  0  0  0  0  0  0
  161.8490  207.3410  149.6810 C   0  0  2  0  0  3  0  0  0  0  0  0
  161.1820  209.3460  152.8670 C   0  0  1  0  0  3  0  0  0  0  0  0
  161.3760  206.7470  153.4310 C   0  0  0  0  0  2  0  0  0  0  0  0
  161.7530  206.2980  150.8120 C   0  0  2  0  0  3  0  0  0  0  0  0
  160.6180  205.2990  150.5390 C   0  0  1  0  0  3  0  0  0  0  0  0
  161.4090  200.1670  147.0670 O   0  0  0  0  0  1  0  0  0  0  0  0
  160.9260  203.1560  149.2090 N   0  0  0  0  0  2  0  0  0  0  0  0
  161.2160  200.9480  148.1550 N   0  0  0  0  0  2  0  0  0  0  0  0
  160.8200  204.5860  149.2350 C   0  0  0  0  0  0  0  0  0  0  0  0
  161.1300  202.3650  148.0340 C   0  0  0  0  0  0  0  0  0  0  0  0
  161.2340  202.9060  146.9010 O   0  0  0  0  0  0  0  0  0  0  0  0
  160.8890  205.2590  148.1730 O   0  0  0  0  0  0  0  0  0  0  0  0
  160.5060  204.2780  151.6640 C   0  0  0  0  0  2  0  0  0  0  0  0
  161.7550  203.7080  151.9190 O   0  0  0  0  0  1  0  0  0  0  0  0
  159.8850  210.1180  152.6730 C   0  0  0  0  0  2  0  0  0  0  0  0
  159.4010  210.6950  153.9630 C   0  0  0  0  0  3  0  0  0  0  0  0
  158.3200  211.4790  154.0060 C   0  0  0  0  0  3  0  0  0  0  0  0
  158.1770  213.5410  155.4120 C   0  0  0  0  0  1  0  0  0  0  0  0
  157.8070  212.0720  155.2860 C   0  0  1  0  0  3  0  0  0  0  0  0
  155.6180  212.7360  156.0110 O   0  0  0  0  0  1  0  0  0  0  0  0
  156.3350  211.8610  155.4550 C   0  0  0  0  0  0  0  0  0  0  0  0
  155.7500  210.6970  154.9740 O   0  0  0  0  0  0  0  0  0  0  0  0
  2  8  1  0  0  0  0
  4  5  1  0  0  0  0
  5  2  2  0  0  0  0
  5  7  1  0  0  0  0
  6  1  1  1  0  0  0
  6  4  1  0  0  0  0
  6  9  1  0  0  0  0
  7 20  1  6  0  0  0
  7  3  1  0  0  0  0
  8  3  1  0  0  0  0
  9 10  1  6  0  0  0
  9  2  1  0  0  0  0
 10 18  1  1  0  0  0
 11 13  1  0  0  0  0
 12 14  1  0  0  0  0
 14 10  1  0  0  0  0
 15 13  1  0  0  0  0
 15 12  1  0  0  0  0
 16 15  2  0  0  0  0
 17 14  2  0  0  0  0
 18 19  1  0  0  0  0
 20 21  1  0  0  0  0
 21 22  2  0  0  0  0
 22 24  1  0  0  0  0
 24 23  1  6  0  0  0
 24 26  1  0  0  0  0
 26 25  1  0  0  0  0
 27 26  2  0  0  0  0
M  END
>  <MODEL>
4

>  <REMARK>
 VINA RESULT:      -6.2      3.731      9.565
  Name = 
  7 active torsions:
  status: ('A' for Active; 'I' for Inactive)
    1  A    between atoms: C_3  and  C_17
    2  A    between atoms: C_3  and  C_19
    3  A    between atoms: C_3  and  C_26
    4  A    between atoms: C_4  and  C_18
    5  A    between atoms: C_11  and  C_15
    6  A    between atoms: C_14  and  C_15
    7  A    between atoms: C_18  and  C_21
                            x       y       z     vdW  Elec       q    Type
                         _______ _______ _______ _____ _____    ______ ____

>  <TORSDO>
F 7

$$$$
=
 OpenBabel11072412223D

 27 28  0  0  1  0  0  0  0  0999 V2000
  163.3780  207.4350  149.2600 O   0  0  0  0  0  1  0  0  0  0  0  0
  161.4940  207.1890  152.0020 C   0  0  0  0  0  0  0  0  0  0  0  0
  160.9430  208.2420  154.3760 S   0  0  0  0  0  0  0  0  0  0  0  0
  161.8070  208.8380  150.3940 C   0  0  0  0  0  2  0  0  0  0  0  0
  161.4640  208.4690  151.7850 C   0  0  0  0  0  0  0  0  0  0  0  0
  162.0660  207.4820  149.7260 C   0  0  2  0  0  3  0  0  0  0  0  0
  161.1910  209.3580  152.9400 C   0  0  1  0  0  3  0  0  0  0  0  0
  161.2830  206.7330  153.3960 C   0  0  0  0  0  2  0  0  0  0  0  0
  161.8580  206.3920  150.7970 C   0  0  2  0  0  3  0  0  0  0  0  0
  160.7270  205.4350  150.3890 C   0  0  1  0  0  3  0  0  0  0  0  0
  161.0350  205.7340  144.1570 O   0  0  0  0  0  1  0  0  0  0  0  0
  160.8350  205.6560  147.8600 N   0  0  0  0  0  2  0  0  0  0  0  0
  160.8590  206.1240  145.4410 N   0  0  0  0  0  2  0  0  0  0  0  0
  160.9730  204.8430  149.0330 C   0  0  0  0  0  0  0  0  0  0  0  0
  161.0310  205.2040  146.5160 C   0  0  0  0  0  0  0  0  0  0  0  0
  161.3510  204.0100  146.2760 O   0  0  0  0  0  0  0  0  0  0  0  0
  161.3050  203.6310  148.9460 O   0  0  0  0  0  0  0  0  0  0  0  0
  160.5630  204.3160  151.4100 C   0  0  0  0  0  2  0  0  0  0  0  0
  161.8120  203.7990  151.7570 O   0  0  0  0  0  1  0  0  0  0  0  0
  159.9300  210.1710  152.6810 C   0  0  0  0  0  2  0  0  0  0  0  0
  159.4550  210.8440  153.9270 C   0  0  0  0  0  3  0  0  0  0  0  0
  158.2450  211.4070  153.9890 C   0  0  0  0  0  3  0  0  0  0  0  0
  158.0890  213.5680  155.2370 C   0  0  0  0  0  1  0  0  0  0  0  0
  157.7370  212.0880  155.2270 C   0  0  1  0  0  3  0  0  0  0  0  0
  155.7200  210.8000  155.0590 O   0  0  0  0  0  0  0  0  0  0  0  0
  156.2700  211.8720  155.4280 C   0  0  0  0  0  0  0  0  0  0  0  0
  155.5120  212.8560  156.0480 O   0  0  0  0  0  1  0  0  0  0  0  0
  2  8  1  0  0  0  0
  4  5  1  0  0  0  0
  5  2  2  0  0  0  0
  5  7  1  0  0  0  0
  6  1  1  1  0  0  0
  6  4  1  0  0  0  0
  6  9  1  0  0  0  0
  7 20  1  6  0  0  0
  7  3  1  0  0  0  0
  8  3  1  0  0  0  0
  9 10  1  6  0  0  0
  9  2  1  0  0  0  0
 10 18  1  1  0  0  0
 11 13  1  0  0  0  0
 12 14  1  0  0  0  0
 13 15  1  0  0  0  0
 14 10  1  0  0  0  0
 15 12  1  0  0  0  0
 16 15  2  0  0  0  0
 17 14  2  0  0  0  0
 18 19  1  0  0  0  0
 20 21  1  0  0  0  0
 21 22  2  0  0  0  0
 22 24  1  0  0  0  0
 24 23  1  6  0  0  0
 24 26  1  0  0  0  0
 25 26  2  0  0  0  0
 26 27  1  0  0  0  0
M  END
>  <MODEL>
5

>  <REMARK>
 VINA RESULT:      -6.2      3.602      9.364
  Name = 
  7 active torsions:
  status: ('A' for Active; 'I' for Inactive)
    1  A    between atoms: C_3  and  C_17
    2  A    between atoms: C_3  and  C_19
    3  A    between atoms: C_3  and  C_26
    4  A    between atoms: C_4  and  C_18
    5  A    between atoms: C_11  and  C_15
    6  A    between atoms: C_14  and  C_15
    7  A    between atoms: C_18  and  C_21
                            x       y       z     vdW  Elec       q    Type
                         _______ _______ _______ _____ _____    ______ ____

>  <TORSDO>
F 7

$$$$
=
 OpenBabel11072412223D

 27 28  0  0  1  0  0  0  0  0999 V2000
  159.5370  201.7990  149.8070 O   0  0  0  0  0  1  0  0  0  0  0  0
  160.7240  204.8800  149.3260 C   0  0  0  0  0  0  0  0  0  0  0  0
  160.8420  207.3500  150.2900 S   0  0  0  0  0  0  0  0  0  0  0  0
  160.9590  203.2980  151.0130 C   0  0  0  0  0  2  0  0  0  0  0  0
  160.9410  204.7180  150.5960 C   0  0  0  0  0  0  0  0  0  0  0  0
  160.7100  202.5450  149.7010 C   0  0  2  0  0  3  0  0  0  0  0  0
  161.0440  205.9330  151.4390 C   0  0  1  0  0  3  0  0  0  0  0  0
  160.5670  206.2700  148.8370 C   0  0  0  0  0  2  0  0  0  0  0  0
  160.5540  203.5970  148.5860 C   0  0  2  0  0  3  0  0  0  0  0  0
  161.6370  203.4180  147.5100 C   0  0  1  0  0  3  0  0  0  0  0  0
  160.8630  197.7140  145.0830 O   0  0  0  0  0  1  0  0  0  0  0  0
  161.3550  201.0590  146.6100 N   0  0  0  0  0  2  0  0  0  0  0  0
  161.2040  198.6870  145.9610 N   0  0  0  0  0  2  0  0  0  0  0  0
  161.1890  202.4720  146.4360 C   0  0  0  0  0  0  0  0  0  0  0  0
  160.9800  200.0600  145.6560 C   0  0  0  0  0  0  0  0  0  0  0  0
  160.4580  200.3820  144.5550 O   0  0  0  0  0  0  0  0  0  0  0  0
  160.6650  202.9380  145.3900 O   0  0  0  0  0  0  0  0  0  0  0  0
  162.0130  204.7560  146.8850 C   0  0  0  0  0  2  0  0  0  0  0  0
  163.3160  204.7010  146.3850 O   0  0  0  0  0  1  0  0  0  0  0  0
  162.4110  205.9860  152.1060 C   0  0  0  0  0  2  0  0  0  0  0  0
  162.3330  206.6340  153.4490 C   0  0  0  0  0  3  0  0  0  0  0  0
  161.1770  207.1170  153.9160 C   0  0  0  0  0  3  0  0  0  0  0  0
  160.7280  209.2490  155.1410 C   0  0  0  0  0  1  0  0  0  0  0  0
  161.0640  207.7710  155.2620 C   0  0  1  0  0  3  0  0  0  0  0  0
  160.4690  206.5820  157.2600 O   0  0  0  0  0  1  0  0  0  0  0  0
  160.0950  207.0600  156.1550 C   0  0  0  0  0  0  0  0  0  0  0  0
  158.7660  206.9470  155.7700 O   0  0  0  0  0  0  0  0  0  0  0  0
  2  5  2  0  0  0  0
  3  7  1  0  0  0  0
  5  4  1  0  0  0  0
  5  7  1  0  0  0  0
  6  1  1  1  0  0  0
  6  4  1  0  0  0  0
  7 20  1  6  0  0  0
  8  2  1  0  0  0  0
  8  3  1  0  0  0  0
  9 10  1  6  0  0  0
  9  2  1  0  0  0  0
  9  6  1  0  0  0  0
 10 18  1  6  0  0  0
 11 13  1  0  0  0  0
 14 12  1  0  0  0  0
 14 10  1  0  0  0  0
 15 13  1  0  0  0  0
 15 12  1  0  0  0  0
 16 15  2  0  0  0  0
 17 14  2  0  0  0  0
 19 18  1  0  0  0  0
 20 21  1  0  0  0  0
 21 22  2  0  0  0  0
 22 24  1  0  0  0  0
 24 23  1  6  0  0  0
 24 26  1  0  0  0  0
 26 25  1  0  0  0  0
 27 26  2  0  0  0  0
M  END
>  <MODEL>
6

>  <REMARK>
 VINA RESULT:      -6.1      4.851     10.264
  Name = 
  7 active torsions:
  status: ('A' for Active; 'I' for Inactive)
    1  A    between atoms: C_3  and  C_17
    2  A    between atoms: C_3  and  C_19
    3  A    between atoms: C_3  and  C_26
    4  A    between atoms: C_4  and  C_18
    5  A    between atoms: C_11  and  C_15
    6  A    between atoms: C_14  and  C_15
    7  A    between atoms: C_18  and  C_21
                            x       y       z     vdW  Elec       q    Type
                         _______ _______ _______ _____ _____    ______ ____

>  <TORSDO>
F 7

$$$$
=
 OpenBabel11072412223D

 27 28  0  0  1  0  0  0  0  0999 V2000
  161.7920  207.5920  154.7230 O   0  0  0  0  0  1  0  0  0  0  0  0
  161.5450  208.7900  151.6190 C   0  0  0  0  0  0  0  0  0  0  0  0
  162.3740  208.5420  149.1090 S   0  0  0  0  0  0  0  0  0  0  0  0
  161.1500  206.7160  152.5910 C   0  0  0  0  0  2  0  0  0  0  0  0
  161.5270  207.5100  151.4010 C   0  0  0  0  0  0  0  0  0  0  0  0
  160.9080  207.7860  153.6630 C   0  0  2  0  0  3  0  0  0  0  0  0
  161.9610  207.0310  150.0670 C   0  0  1  0  0  3  0  0  0  0  0  0
  162.0290  209.6580  150.5200 C   0  0  0  0  0  2  0  0  0  0  0  0
  161.1720  209.1590  153.0140 C   0  0  2  0  0  3  0  0  0  0  0  0
  159.9070  210.0310  153.0490 C   0  0  1  0  0  3  0  0  0  0  0  0
  156.7180  213.3640  157.2610 O   0  0  0  0  0  1  0  0  0  0  0  0
  158.5290  211.3800  154.7030 N   0  0  0  0  0  2  0  0  0  0  0  0
  156.9960  212.6860  156.1230 N   0  0  0  0  0  2  0  0  0  0  0  0
  159.7630  210.7320  154.3670 C   0  0  0  0  0  0  0  0  0  0  0  0
  158.2740  212.0880  155.9200 C   0  0  0  0  0  0  0  0  0  0  0  0
  159.1620  212.1890  156.8070 O   0  0  0  0  0  0  0  0  0  0  0  0
  160.7360  210.7380  155.1670 O   0  0  0  0  0  0  0  0  0  0  0  0
  159.9220  211.0610  151.9250 C   0  0  0  0  0  2  0  0  0  0  0  0
  160.1950  212.3290  152.4420 O   0  0  0  0  0  1  0  0  0  0  0  0
  160.8240  206.2750  149.3930 C   0  0  0  0  0  2  0  0  0  0  0  0
  160.7690  204.8560  149.8570 C   0  0  0  0  0  3  0  0  0  0  0  0
  161.2830  203.8690  149.1170 C   0  0  0  0  0  3  0  0  0  0  0  0
  160.8090  202.3020  151.0060 C   0  0  0  0  0  1  0  0  0  0  0  0
  161.2470  202.4340  149.5560 C   0  0  1  0  0  3  0  0  0  0  0  0
  160.8920  201.0930  147.5980 O   0  0  0  0  0  0  0  0  0  0  0  0
  160.4070  201.5880  148.6510 C   0  0  0  0  0  0  0  0  0  0  0  0
  159.0860  201.3280  148.9880 O   0  0  0  0  0  1  0  0  0  0  0  0
  2  9  1  0  0  0  0
  3  7  1  0  0  0  0
  3  8  1  0  0  0  0
  4  6  1  0  0  0  0
  5  2  2  0  0  0  0
  5  4  1  0  0  0  0
  6  1  1  1  0  0  0
  7 20  1  6  0  0  0
  7  5  1  0  0  0  0
  8  2  1  0  0  0  0
  9 10  1  6  0  0  0
  9  6  1  0  0  0  0
 10 18  1  6  0  0  0
 10 14  1  0  0  0  0
 12 15  1  0  0  0  0
 13 11  1  0  0  0  0
 14 12  1  0  0  0  0
 14 17  2  0  0  0  0
 15 13  1  0  0  0  0
 15 16  2  0  0  0  0
 18 19  1  0  0  0  0
 20 21  1  0  0  0  0
 22 24  1  0  0  0  0
 22 21  2  0  0  0  0
 24 23  1  1  0  0  0
 25 26  2  0  0  0  0
 26 27  1  0  0  0  0
 26 24  1  0  0  0  0
M  END
>  <MODEL>
7

>  <REMARK>
 VINA RESULT:      -6.0      1.462      1.747
  Name = 
  7 active torsions:
  status: ('A' for Active; 'I' for Inactive)
    1  A    between atoms: C_3  and  C_17
    2  A    between atoms: C_3  and  C_19
    3  A    between atoms: C_3  and  C_26
    4  A    between atoms: C_4  and  C_18
    5  A    between atoms: C_11  and  C_15
    6  A    between atoms: C_14  and  C_15
    7  A    between atoms: C_18  and  C_21
                            x       y       z     vdW  Elec       q    Type
                         _______ _______ _______ _____ _____    ______ ____

>  <TORSDO>
F 7

$$$$
=
 OpenBabel11072412223D

 27 28  0  0  1  0  0  0  0  0999 V2000
  159.1800  210.8750  153.3550 O   0  0  0  0  0  1  0  0  0  0  0  0
  160.8040  207.9780  153.6730 C   0  0  0  0  0  0  0  0  0  0  0  0
  161.2070  205.5730  152.6230 S   0  0  0  0  0  0  0  0  0  0  0  0
  160.7260  209.6190  152.0290 C   0  0  0  0  0  2  0  0  0  0  0  0
  160.9260  208.2010  152.3990 C   0  0  0  0  0  0  0  0  0  0  0  0
  160.4490  210.2970  153.3770 C   0  0  2  0  0  3  0  0  0  0  0  0
  161.1490  207.0340  151.5130 C   0  0  1  0  0  3  0  0  0  0  0  0
  160.8670  206.5670  154.1230 C   0  0  0  0  0  2  0  0  0  0  0  0
  160.5010  209.2040  154.4630 C   0  0  2  0  0  3  0  0  0  0  0  0
  161.6060  209.5050  155.4870 C   0  0  1  0  0  3  0  0  0  0  0  0
  158.1100  214.3680  157.2600 O   0  0  0  0  0  1  0  0  0  0  0  0
  160.1020  211.4330  156.1780 N   0  0  0  0  0  2  0  0  0  0  0  0
  158.4420  213.1670  156.7320 N   0  0  0  0  0  2  0  0  0  0  0  0
  161.4110  210.8480  156.1240 C   0  0  0  0  0  0  0  0  0  0  0  0
  159.7910  212.7090  156.7470 C   0  0  0  0  0  0  0  0  0  0  0  0
  160.6930  213.4260  157.2570 O   0  0  0  0  0  0  0  0  0  0  0  0
  162.4070  211.4460  156.6100 O   0  0  0  0  0  0  0  0  0  0  0  0
  161.6560  208.4330  156.5690 C   0  0  0  0  0  2  0  0  0  0  0  0
  160.4080  208.3150  157.1830 O   0  0  0  0  0  1  0  0  0  0  0  0
  162.4720  207.1890  150.7760 C   0  0  0  0  0  2  0  0  0  0  0  0
  162.3720  206.6810  149.3740 C   0  0  0  0  0  3  0  0  0  0  0  0
  161.3150  205.9690  148.9720 C   0  0  0  0  0  3  0  0  0  0  0  0
  162.0840  206.2020  146.6050 C   0  0  0  0  0  1  0  0  0  0  0  0
  161.1830  205.4480  147.5700 C   0  0  1  0  0  3  0  0  0  0  0  0
  161.4540  203.2700  148.5410 O   0  0  0  0  0  1  0  0  0  0  0  0
  161.4120  203.9710  147.4940 C   0  0  0  0  0  0  0  0  0  0  0  0
  161.5590  203.3640  146.2540 O   0  0  0  0  0  0  0  0  0  0  0  0
  2  8  1  0  0  0  0
  2  9  1  0  0  0  0
  3  8  1  0  0  0  0
  4  5  1  0  0  0  0
  4  6  1  0  0  0  0
  5  2  2  0  0  0  0
  6  1  1  6  0  0  0
  6  9  1  0  0  0  0
  7 20  1  1  0  0  0
  7  5  1  0  0  0  0
  7  3  1  0  0  0  0
  9 10  1  1  0  0  0
 10 14  1  0  0  0  0
 10 18  1  1  0  0  0
 12 15  1  0  0  0  0
 13 15  1  0  0  0  0
 13 11  1  0  0  0  0
 14 12  1  0  0  0  0
 14 17  2  0  0  0  0
 15 16  2  0  0  0  0
 18 19  1  0  0  0  0
 21 20  1  0  0  0  0
 22 21  2  0  0  0  0
 24 23  1  6  0  0  0
 24 22  1  0  0  0  0
 26 24  1  0  0  0  0
 26 25  1  0  0  0  0
 27 26  2  0  0  0  0
M  END
>  <MODEL>
8

>  <REMARK>
 VINA RESULT:      -5.9      2.057      3.194
  Name = 
  7 active torsions:
  status: ('A' for Active; 'I' for Inactive)
    1  A    between atoms: C_3  and  C_17
    2  A    between atoms: C_3  and  C_19
    3  A    between atoms: C_3  and  C_26
    4  A    between atoms: C_4  and  C_18
    5  A    between atoms: C_11  and  C_15
    6  A    between atoms: C_14  and  C_15
    7  A    between atoms: C_18  and  C_21
                            x       y       z     vdW  Elec       q    Type
                         _______ _______ _______ _____ _____    ______ ____

>  <TORSDO>
F 7

$$$$
=
 OpenBabel11072412223D

 27 28  0  0  1  0  0  0  0  0999 V2000
  160.7880  208.3630  156.0400 O   0  0  0  0  0  1  0  0  0  0  0  0
  161.6130  207.7450  152.8670 C   0  0  0  0  0  0  0  0  0  0  0  0
  162.7630  206.0260  151.2030 S   0  0  0  0  0  0  0  0  0  0  0  0
  160.2960  206.6540  154.4400 C   0  0  0  0  0  2  0  0  0  0  0  0
  161.1640  206.5870  153.2440 C   0  0  0  0  0  0  0  0  0  0  0  0
  160.2630  208.1520  154.7660 C   0  0  2  0  0  3  0  0  0  0  0  0
  161.6410  205.3900  152.5100 C   0  0  1  0  0  3  0  0  0  0  0  0
  162.5890  207.7640  151.7510 C   0  0  0  0  0  2  0  0  0  0  0  0
  161.1390  208.8710  153.7210 C   0  0  2  0  0  3  0  0  0  0  0  0
  160.3070  209.8810  152.9140 C   0  0  1  0  0  3  0  0  0  0  0  0
  159.4700  214.2910  157.2590 O   0  0  0  0  0  1  0  0  0  0  0  0
  160.0650  211.6940  154.6780 N   0  0  0  0  0  2  0  0  0  0  0  0
  160.1000  213.4660  156.3890 N   0  0  0  0  0  2  0  0  0  0  0  0
  159.4550  210.7280  153.8120 C   0  0  0  0  0  0  0  0  0  0  0  0
  159.3630  212.5490  155.5850 C   0  0  0  0  0  0  0  0  0  0  0  0
  158.1070  212.4990  155.6790 O   0  0  0  0  0  0  0  0  0  0  0  0
  158.2040  210.5790  153.7880 O   0  0  0  0  0  0  0  0  0  0  0  0
  161.2050  210.7790  152.0710 C   0  0  0  0  0  2  0  0  0  0  0  0
  161.1100  210.4220  150.7250 O   0  0  0  0  0  1  0  0  0  0  0  0
  160.4600  204.6630  151.8820 C   0  0  0  0  0  2  0  0  0  0  0  0
  160.6860  204.4230  150.4250 C   0  0  0  0  0  3  0  0  0  0  0  0
  160.5290  203.2070  149.8950 C   0  0  0  0  0  3  0  0  0  0  0  0
  161.7430  203.9040  147.8240 C   0  0  0  0  0  1  0  0  0  0  0  0
  160.7450  202.9330  148.4350 C   0  0  1  0  0  3  0  0  0  0  0  0
  161.3490  200.7190  149.1370 O   0  0  0  0  0  1  0  0  0  0  0  0
  161.1380  201.5110  148.1790 C   0  0  0  0  0  0  0  0  0  0  0  0
  161.2470  201.0550  146.8730 O   0  0  0  0  0  0  0  0  0  0  0  0
  2  5  2  0  0  0  0
  2  9  1  0  0  0  0
  3  8  1  0  0  0  0
  3  7  1  0  0  0  0
  4  6  1  0  0  0  0
  5  4  1  0  0  0  0
  6  1  1  1  0  0  0
  7 20  1  6  0  0  0
  7  5  1  0  0  0  0
  8  2  1  0  0  0  0
  9 10  1  6  0  0  0
  9  6  1  0  0  0  0
 10 18  1  1  0  0  0
 10 14  1  0  0  0  0
 12 15  1  0  0  0  0
 13 11  1  0  0  0  0
 14 12  1  0  0  0  0
 15 16  2  0  0  0  0
 15 13  1  0  0  0  0
 17 14  2  0  0  0  0
 19 18  1  0  0  0  0
 21 20  1  0  0  0  0
 22 21  2  0  0  0  0
 24 23  1  1  0  0  0
 24 22  1  0  0  0  0
 26 24  1  0  0  0  0
 26 25  1  0  0  0  0
 27 26  2  0  0  0  0
M  END
>  <MODEL>
9

>  <REMARK>
 VINA RESULT:      -5.1      1.919      2.327
  Name = 
  7 active torsions:
  status: ('A' for Active; 'I' for Inactive)
    1  A    between atoms: C_3  and  C_17
    2  A    between atoms: C_3  and  C_19
    3  A    between atoms: C_3  and  C_26
    4  A    between atoms: C_4  and  C_18
    5  A    between atoms: C_11  and  C_15
    6  A    between atoms: C_14  and  C_15
    7  A    between atoms: C_18  and  C_21
                            x       y       z     vdW  Elec       q    Type
                         _______ _______ _______ _____ _____    ______ ____

>  <TORSDO>
F 7

$$$$
