=
 OpenBabel11072415183D

 58 61  0  0  1  0  0  0  0  0999 V2000
  160.7680  212.6600  146.3070 N   0  0  0  0  0  2  0  0  0  0  0  0
  161.7000  212.0390  147.2390 C   0  0  1  0  0  3  0  0  0  0  0  0
  162.8910  212.9510  147.4650 C   0  0  0  0  0  2  0  0  0  0  0  0
  161.7760  212.8740  148.4990 C   0  0  2  0  0  3  0  0  0  0  0  0
  162.1390  211.9320  149.6310 C   0  0  0  0  0  2  0  0  0  0  0  0
  162.1620  210.4710  149.1710 C   0  0  0  0  0  2  0  0  0  0  0  0
  162.3460  209.4970  150.3510 C   0  0  1  0  0  3  0  0  0  0  0  0
  161.7700  209.2380  152.7840 C   0  0  0  0  0  1  0  0  0  0  0  0
  161.2270  209.5420  151.4000 C   0  0  1  0  0  3  0  0  0  0  0  0
  160.6580  210.8130  151.4150 O   0  0  0  0  0  1  0  0  0  0  0  0
  162.7520  208.1960  149.9880 O   0  0  0  0  0  0  0  0  0  0  0  0
  161.7040  207.5340  149.3210 C   0  0  1  0  0  3  0  0  0  0  0  0
  161.7010  207.9250  147.8780 C   0  0  0  0  0  0  0  0  0  0  0  0
  162.8650  208.3670  147.2680 O   0  0  0  0  0  1  0  0  0  0  0  0
  160.6410  207.8340  147.2070 O   0  0  0  0  0  0  0  0  0  0  0  0
  161.8170  206.0200  149.5190 C   0  0  1  0  0  3  0  0  0  0  0  0
  160.9080  204.9210  153.5900 C   0  0  0  0  0  3  0  0  0  0  0  0
  161.9140  206.4480  151.9910 C   0  0  0  0  0  3  0  0  0  0  0  0
  161.6100  206.1040  153.3160 C   0  0  0  0  0  3  0  0  0  0  0  0
  160.5070  204.0870  152.5400 C   0  0  0  0  0  3  0  0  0  0  0  0
  160.8030  204.4340  151.2150 C   0  0  0  0  0  3  0  0  0  0  0  0
  161.5140  205.6140  150.9360 C   0  0  0  0  0  0  0  0  0  0  0  0
  161.0250  205.3250  148.5990 O   0  0  0  0  0  0  0  0  0  0  0  0
  161.8740  204.4690  147.9810 N   0  0  0  0  0  2  0  0  0  0  0  0
  163.0880  204.9590  145.6890 S   0  0  0  0  0  0  0  0  0  0  0  0
  161.8850  204.2860  146.5620 C   0  0  0  0  0  0  0  0  0  0  0  0
  160.7120  202.0580  146.1320 C   0  0  0  0  0  0  0  0  0  0  0  0
  159.6500  201.1240  145.0250 S   0  0  0  0  0  1  0  0  0  0  0  0
  160.9230  203.4520  145.8900 N   0  0  0  0  0  2  0  0  0  0  0  0
  161.2230  201.4850  147.1350 O   0  0  0  0  0  0  0  0  0  0  0  0
  160.8900  211.9690  145.0260 C   0  0  0  0  0  2  0  0  0  0  0  0
  160.0980  212.6710  143.9270 C   0  0  0  0  0  2  0  0  0  0  0  0
  160.7560  212.5010  142.5710 C   0  0  0  0  0  2  0  0  0  0  0  0
  160.0770  213.3250  141.5740 N   0  0  0  0  0  2  0  0  0  0  0  0
  160.2730  212.7150  140.3200 N   0  0  0  0  0  0  0  0  0  0  0  0
  158.0310  210.3830  138.7600 C   0  0  0  0  0  0  0  0  0  0  0  0
  157.8610  212.7870  140.1400 N   0  0  0  0  0  2  0  0  0  0  0  0
  156.7340  212.4760  139.2590 C   0  0  1  0  0  0  0  0  0  0  0  0
  159.1140  212.4480  139.4610 C   0  0  2  0  0  3  0  0  0  0  0  0
  156.8510  213.1660  138.0640 F   0  0  0  0  0  0  0  0  0  0  0  0
  156.6710  210.9760  138.9900 C   0  0  0  0  0  2  0  0  0  0  0  0
  155.4450  212.9010  139.9330 C   0  0  0  0  0  1  0  0  0  0  0  0
  159.1130  211.0510  139.0330 N   0  0  0  0  0  0  0  0  0  0  0  0
  158.1110  209.0730  138.2850 O   0  0  0  0  0  0  0  0  0  0  0  0
  158.6530  208.7620  137.0110 C   0  0  0  0  0  2  0  0  0  0  0  0
  161.3850  209.5570  137.0110 O   0  0  0  0  0  0  0  0  0  0  0  0
  161.1360  208.3330  137.1480 C   0  0  0  0  0  0  0  0  0  0  0  0
  159.7870  207.8620  137.1650 N   0  0  0  0  0  2  0  0  0  0  0  0
  162.2570  207.3670  137.3180 C   0  0  0  0  0  2  0  0  0  0  0  0
  162.2230  206.7750  138.7150 C   0  0  0  0  0  1  0  0  0  0  0  0
  162.0250  210.9790  140.1090 C   0  0  0  0  0  3  0  0  0  0  0  0
  161.6000  212.3040  139.9250 C   0  0  0  0  0  0  0  0  0  0  0  0
  164.1780  211.5050  139.1320 C   0  0  0  0  0  3  0  0  0  0  0  0
  163.7690  212.8310  138.9420 C   0  0  0  0  0  0  0  0  0  0  0  0
  163.3050  210.5800  139.7140 C   0  0  0  0  0  3  0  0  0  0  0  0
  162.4910  213.2250  139.3430 C   0  0  0  0  0  3  0  0  0  0  0  0
  164.6210  213.7680  138.3570 O   0  0  0  0  0  0  0  0  0  0  0  0
  164.2510  214.4440  137.2590 O   0  0  0  0  0  1  0  0  0  0  0  0
  2  1  1  6  0  0  0
  2  3  1  0  0  0  0
  2  4  1  0  0  0  0
  3  4  1  0  0  0  0
  4  5  1  1  0  0  0
  6  5  1  0  0  0  0
  7  6  1  6  0  0  0
  7  9  1  0  0  0  0
  9 10  1  0  0  0  0
  9  8  1  1  0  0  0
 11  7  1  0  0  0  0
 12 13  1  6  0  0  0
 12 16  1  0  0  0  0
 12 11  1  0  0  0  0
 14 13  1  0  0  0  0
 15 13  2  0  0  0  0
 16 23  1  6  0  0  0
 16 22  1  0  0  0  0
 18 19  2  0  0  0  0
 19 17  1  0  0  0  0
 20 17  2  0  0  0  0
 21 20  1  0  0  0  0
 22 21  2  0  0  0  0
 22 18  1  0  0  0  0
 24 23  1  0  0  0  0
 25 26  2  0  0  0  0
 26 24  1  0  0  0  0
 27 30  2  0  0  0  0
 28 27  1  0  0  0  0
 29 27  1  0  0  0  0
 29 26  1  0  0  0  0
 31  1  1  0  0  0  0
 32 31  1  0  0  0  0
 33 32  1  0  0  0  0
 34 33  1  0  0  0  0
 35 34  1  0  0  0  0
 36 41  1  0  0  0  0
 36 43  2  0  0  0  0
 38 42  1  1  0  0  0
 38 37  1  0  0  0  0
 39 37  1  0  0  0  0
 39 35  1  1  0  0  0
 40 38  1  0  0  0  0
 41 38  1  0  0  0  0
 43 39  1  0  0  0  0
 44 36  1  0  0  0  0
 45 48  1  0  0  0  0
 45 44  1  0  0  0  0
 46 47  2  0  0  0  0
 47 48  1  0  0  0  0
 47 49  1  0  0  0  0
 49 50  1  0  0  0  0
 52 51  1  0  0  0  0
 52 35  1  0  0  0  0
 53 55  1  0  0  0  0
 54 53  2  0  0  0  0
 54 56  1  0  0  0  0
 55 51  2  0  0  0  0
 56 52  2  0  0  0  0
 57 54  1  0  0  0  0
 58 57  1  0  0  0  0
M  END
>  <MODEL>
1

>  <REMARK>
 VINA RESULT:      -3.9      0.000      0.000
  Name = 
  26 active torsions:
  status: ('A' for Active; 'I' for Inactive)
    1  A    between atoms: C_2  and  C_15
    2  A    between atoms: C_2  and  C_55
    3  A    between atoms: N_3  and  O_48
    4  A    between atoms: N_3  and  C_56
    5  A    between atoms: C_4  and  O_50
    6  A    between atoms: C_5  and  C_53
    7  A    between atoms: C_7  and  O_8
    8  A    between atoms: C_7  and  C_21
    9  A    between atoms: C_7  and  C_44
   10  A    between atoms: O_8  and  C_55
   11  A    between atoms: C_11  and  N_45
   12  A    between atoms: C_11  and  O_50
   13  A    between atoms: C_14  and  N_28
   14  A    between atoms: C_15  and  C_38
   15  A    between atoms: C_16  and  C_55
   16  A    between atoms: N_17  and  C_20
   17  A    between atoms: N_17  and  C_46
   18  A    between atoms: C_22  and  N_28
   19  A    between atoms: O_24  and  C_35
   20  A    between atoms: N_26  and  N_28
   21  A    between atoms: N_26  and  C_29
   22  A    between atoms: C_29  and  C_47
   23  A    between atoms: N_34  and  C_56
   24  A    between atoms: C_44  and  O_48
   25  A    between atoms: C_44  and  C_52
   26  A    between atoms: C_46  and  C_47
                            x       y       z     vdW  Elec       q    Type
                         _______ _______ _______ _____ _____    ______ ____

>  <TORSDO>
F 26

$$$$
=
 OpenBabel11072415183D

 58 61  0  0  1  0  0  0  0  0999 V2000
  160.1320  212.7900  146.5820 N   0  0  0  0  0  2  0  0  0  0  0  0
  161.0960  212.2100  147.5080 C   0  0  1  0  0  3  0  0  0  0  0  0
  162.3630  213.0430  147.5240 C   0  0  0  0  0  2  0  0  0  0  0  0
  161.3410  213.1820  148.6440 C   0  0  2  0  0  3  0  0  0  0  0  0
  161.7350  212.3550  149.8540 C   0  0  0  0  0  2  0  0  0  0  0  0
  161.6710  210.8530  149.5620 C   0  0  0  0  0  2  0  0  0  0  0  0
  162.1580  210.0120  150.7570 C   0  0  1  0  0  3  0  0  0  0  0  0
  162.0110  210.5050  153.2180 C   0  0  0  0  0  1  0  0  0  0  0  0
  161.2440  210.0560  151.9880 C   0  0  1  0  0  3  0  0  0  0  0  0
  160.2050  210.9550  151.7600 O   0  0  0  0  0  1  0  0  0  0  0  0
  162.6240  208.7220  150.4240 O   0  0  0  0  0  0  0  0  0  0  0  0
  161.5800  207.9630  149.8650 C   0  0  1  0  0  3  0  0  0  0  0  0
  161.7880  207.8320  148.3900 C   0  0  0  0  0  0  0  0  0  0  0  0
  162.9840  207.3390  147.8920 O   0  0  0  0  0  1  0  0  0  0  0  0
  160.8660  208.1510  147.5970 O   0  0  0  0  0  0  0  0  0  0  0  0
  161.4690  206.6070  150.5650 C   0  0  1  0  0  3  0  0  0  0  0  0
  161.0910  206.9790  154.8450 C   0  0  0  0  0  3  0  0  0  0  0  0
  160.2300  207.3730  152.6090 C   0  0  0  0  0  3  0  0  0  0  0  0
  160.0930  207.4850  154.0000 C   0  0  0  0  0  3  0  0  0  0  0  0
  162.2200  206.3570  154.3000 C   0  0  0  0  0  3  0  0  0  0  0  0
  162.3540  206.2370  152.9100 C   0  0  0  0  0  3  0  0  0  0  0  0
  161.3610  206.7510  152.0590 C   0  0  0  0  0  0  0  0  0  0  0  0
  160.4210  205.8450  150.0390 O   0  0  0  0  0  0  0  0  0  0  0  0
  160.8550  204.5620  150.0970 N   0  0  0  0  0  2  0  0  0  0  0  0
  160.9270  202.2220  148.8790 S   0  0  0  0  0  0  0  0  0  0  0  0
  161.2320  203.8240  148.9310 C   0  0  0  0  0  0  0  0  0  0  0  0
  161.5640  204.0640  146.4090 C   0  0  0  0  0  0  0  0  0  0  0  0
  162.5350  204.8200  145.1010 S   0  0  0  0  0  1  0  0  0  0  0  0
  161.7840  204.4630  147.7650 N   0  0  0  0  0  2  0  0  0  0  0  0
  160.6680  203.2240  146.1140 O   0  0  0  0  0  0  0  0  0  0  0  0
  160.2930  212.1200  145.2940 C   0  0  0  0  0  2  0  0  0  0  0  0
  159.4060  212.7410  144.2190 C   0  0  0  0  0  2  0  0  0  0  0  0
  159.5410  212.0120  142.8960 C   0  0  0  0  0  2  0  0  0  0  0  0
  159.5110  212.9660  141.7900 N   0  0  0  0  0  2  0  0  0  0  0  0
  159.5300  212.2230  140.5930 N   0  0  0  0  0  0  0  0  0  0  0  0
  156.7610  210.5390  139.0450 C   0  0  0  0  0  0  0  0  0  0  0  0
  157.2350  212.9490  140.3400 N   0  0  0  0  0  2  0  0  0  0  0  0
  156.0830  212.9250  139.4370 C   0  0  1  0  0  0  0  0  0  0  0  0
  158.3580  212.2510  139.7100 C   0  0  2  0  0  3  0  0  0  0  0  0
  156.4090  213.5090  138.2240 F   0  0  0  0  0  0  0  0  0  0  0  0
  155.6140  211.4910  139.2150 C   0  0  0  0  0  2  0  0  0  0  0  0
  154.9490  213.7150  140.0590 C   0  0  0  0  0  1  0  0  0  0  0  0
  157.9800  210.8940  139.3280 N   0  0  0  0  0  0  0  0  0  0  0  0
  156.4850  209.2400  138.6160 O   0  0  0  0  0  0  0  0  0  0  0  0
  155.1590  208.7470  138.4980 C   0  0  0  0  0  2  0  0  0  0  0  0
  153.1370  210.1060  137.0280 O   0  0  0  0  0  0  0  0  0  0  0  0
  153.2370  210.3640  138.2540 C   0  0  0  0  0  0  0  0  0  0  0  0
  154.2240  209.7140  139.0570 N   0  0  0  0  0  2  0  0  0  0  0  0
  152.3020  211.3390  138.8800 C   0  0  0  0  0  2  0  0  0  0  0  0
  152.2160  211.0870  140.3740 C   0  0  0  0  0  1  0  0  0  0  0  0
  161.9600  211.7620  140.7060 C   0  0  0  0  0  3  0  0  0  0  0  0
  160.6720  211.3950  140.2840 C   0  0  0  0  0  0  0  0  0  0  0  0
  162.8890  209.7660  139.6970 C   0  0  0  0  0  3  0  0  0  0  0  0
  161.6100  209.3860  139.2680 C   0  0  0  0  0  0  0  0  0  0  0  0
  163.0620  210.9530  140.4170 C   0  0  0  0  0  3  0  0  0  0  0  0
  160.5140  210.2010  139.5570 C   0  0  0  0  0  3  0  0  0  0  0  0
  161.4140  208.2030  138.5560 O   0  0  0  0  0  0  0  0  0  0  0  0
  161.5090  207.0100  139.1620 O   0  0  0  0  0  1  0  0  0  0  0  0
  2  1  1  6  0  0  0
  2  3  1  0  0  0  0
  2  4  1  0  0  0  0
  3  4  1  0  0  0  0
  4  5  1  1  0  0  0
  6  5  1  0  0  0  0
  7  6  1  6  0  0  0
  7  9  1  0  0  0  0
  9  8  1  1  0  0  0
 10  9  1  0  0  0  0
 11  7  1  0  0  0  0
 12 13  1  6  0  0  0
 12 11  1  0  0  0  0
 12 16  1  0  0  0  0
 14 13  1  0  0  0  0
 15 13  2  0  0  0  0
 16 23  1  6  0  0  0
 16 22  1  0  0  0  0
 18 19  1  0  0  0  0
 19 17  2  0  0  0  0
 20 17  1  0  0  0  0
 21 20  2  0  0  0  0
 22 18  2  0  0  0  0
 22 21  1  0  0  0  0
 23 24  1  0  0  0  0
 25 26  2  0  0  0  0
 26 24  1  0  0  0  0
 27 29  1  0  0  0  0
 28 27  1  0  0  0  0
 29 26  1  0  0  0  0
 30 27  2  0  0  0  0
 31  1  1  0  0  0  0
 32 31  1  0  0  0  0
 33 32  1  0  0  0  0
 34 33  1  0  0  0  0
 35 34  1  0  0  0  0
 36 41  1  0  0  0  0
 36 43  2  0  0  0  0
 38 42  1  1  0  0  0
 38 37  1  0  0  0  0
 39 37  1  0  0  0  0
 39 35  1  1  0  0  0
 40 38  1  0  0  0  0
 41 38  1  0  0  0  0
 43 39  1  0  0  0  0
 44 36  1  0  0  0  0
 45 44  1  0  0  0  0
 45 48  1  0  0  0  0
 46 47  2  0  0  0  0
 47 49  1  0  0  0  0
 47 48  1  0  0  0  0
 49 50  1  0  0  0  0
 52 35  1  0  0  0  0
 52 51  2  0  0  0  0
 53 55  2  0  0  0  0
 54 56  2  0  0  0  0
 54 53  1  0  0  0  0
 55 51  1  0  0  0  0
 56 52  1  0  0  0  0
 57 58  1  0  0  0  0
 57 54  1  0  0  0  0
M  END
>  <MODEL>
2

>  <REMARK>
 VINA RESULT:      -3.3      2.031      3.495
  Name = 
  26 active torsions:
  status: ('A' for Active; 'I' for Inactive)
    1  A    between atoms: C_2  and  C_15
    2  A    between atoms: C_2  and  C_55
    3  A    between atoms: N_3  and  O_48
    4  A    between atoms: N_3  and  C_56
    5  A    between atoms: C_4  and  O_50
    6  A    between atoms: C_5  and  C_53
    7  A    between atoms: C_7  and  O_8
    8  A    between atoms: C_7  and  C_21
    9  A    between atoms: C_7  and  C_44
   10  A    between atoms: O_8  and  C_55
   11  A    between atoms: C_11  and  N_45
   12  A    between atoms: C_11  and  O_50
   13  A    between atoms: C_14  and  N_28
   14  A    between atoms: C_15  and  C_38
   15  A    between atoms: C_16  and  C_55
   16  A    between atoms: N_17  and  C_20
   17  A    between atoms: N_17  and  C_46
   18  A    between atoms: C_22  and  N_28
   19  A    between atoms: O_24  and  C_35
   20  A    between atoms: N_26  and  N_28
   21  A    between atoms: N_26  and  C_29
   22  A    between atoms: C_29  and  C_47
   23  A    between atoms: N_34  and  C_56
   24  A    between atoms: C_44  and  O_48
   25  A    between atoms: C_44  and  C_52
   26  A    between atoms: C_46  and  C_47
                            x       y       z     vdW  Elec       q    Type
                         _______ _______ _______ _____ _____    ______ ____

>  <TORSDO>
F 26

$$$$
=
 OpenBabel11072415183D

 58 61  0  0  1  0  0  0  0  0999 V2000
  161.9940  205.7030  141.7150 N   0  0  0  0  0  2  0  0  0  0  0  0
  161.5660  206.1950  143.0180 C   0  0  1  0  0  3  0  0  0  0  0  0
  160.8020  205.1120  143.7550 C   0  0  0  0  0  2  0  0  0  0  0  0
  162.2570  205.3960  144.1030 C   0  0  2  0  0  3  0  0  0  0  0  0
  162.3650  206.3020  145.3160 C   0  0  0  0  0  2  0  0  0  0  0  0
  162.9320  205.5610  146.5300 C   0  0  0  0  0  2  0  0  0  0  0  0
  162.0750  205.7820  147.7920 C   0  0  1  0  0  3  0  0  0  0  0  0
  159.7750  205.3550  146.8690 C   0  0  0  0  0  1  0  0  0  0  0  0
  160.8180  204.9050  147.8760 C   0  0  1  0  0  3  0  0  0  0  0  0
  161.1590  203.5820  147.6020 O   0  0  0  0  0  1  0  0  0  0  0  0
  162.8040  205.8710  148.9960 O   0  0  0  0  0  0  0  0  0  0  0  0
  162.5490  207.1040  149.6230 C   0  0  1  0  0  3  0  0  0  0  0  0
  161.9920  208.0690  148.6260 C   0  0  0  0  0  0  0  0  0  0  0  0
  162.7800  209.0940  148.1250 O   0  0  0  0  0  0  0  0  0  0  0  0
  160.8080  207.9390  148.2220 O   0  0  0  0  0  1  0  0  0  0  0  0
  161.6280  206.9100  150.8310 C   0  0  1  0  0  3  0  0  0  0  0  0
  160.9670  202.7250  151.6340 C   0  0  0  0  0  3  0  0  0  0  0  0
  160.1860  204.8570  150.7710 C   0  0  0  0  0  3  0  0  0  0  0  0
  159.9700  203.4930  151.0170 C   0  0  0  0  0  3  0  0  0  0  0  0
  162.1810  203.3180  151.9990 C   0  0  0  0  0  3  0  0  0  0  0  0
  162.4020  204.6790  151.7470 C   0  0  0  0  0  3  0  0  0  0  0  0
  161.4010  205.4550  151.1370 C   0  0  0  0  0  0  0  0  0  0  0  0
  162.0980  207.6100  151.9480 O   0  0  0  0  0  0  0  0  0  0  0  0
  160.9880  208.1230  152.5320 N   0  0  0  0  0  2  0  0  0  0  0  0
  160.2580  210.6590  152.4510 S   0  0  0  0  0  0  0  0  0  0  0  0
  160.9830  209.3960  153.1870 C   0  0  0  0  0  0  0  0  0  0  0  0
  160.7510  209.5760  155.7240 C   0  0  0  0  0  0  0  0  0  0  0  0
  161.5420  210.0690  157.2600 S   0  0  0  0  0  1  0  0  0  0  0  0
  161.5120  209.5770  154.5130 N   0  0  0  0  0  2  0  0  0  0  0  0
  159.5490  209.1910  155.7390 O   0  0  0  0  0  0  0  0  0  0  0  0
  162.6990  206.7880  141.0380 C   0  0  0  0  0  2  0  0  0  0  0  0
  161.9140  207.3110  139.8380 C   0  0  0  0  0  2  0  0  0  0  0  0
  161.7500  208.8180  139.8930 C   0  0  0  0  0  2  0  0  0  0  0  0
  161.9750  209.3980  138.5720 N   0  0  0  0  0  2  0  0  0  0  0  0
  161.0820  210.4780  138.4290 N   0  0  0  0  0  0  0  0  0  0  0  0
  161.7580  213.3000  140.5460 C   0  0  0  0  0  0  0  0  0  0  0  0
  163.0400  211.8980  138.5210 N   0  0  0  0  0  2  0  0  0  0  0  0
  163.4890  213.2760  138.7260 C   0  0  1  0  0  0  0  0  0  0  0  0
  161.5780  211.8490  138.6000 C   0  0  2  0  0  3  0  0  0  0  0  0
  162.9160  214.1160  137.7860 F   0  0  0  0  0  0  0  0  0  0  0  0
  163.1300  213.7460  140.1320 C   0  0  0  0  0  2  0  0  0  0  0  0
  164.9950  213.3360  138.5660 C   0  0  0  0  0  1  0  0  0  0  0  0
  161.1060  212.4040  139.8650 N   0  0  0  0  0  0  0  0  0  0  0  0
  161.2100  213.8400  141.7100 O   0  0  0  0  0  0  0  0  0  0  0  0
  160.5610  213.0360  142.6850 C   0  0  0  0  0  2  0  0  0  0  0  0
  159.5100  211.9880  145.1130 O   0  0  0  0  0  0  0  0  0  0  0  0
  160.3290  212.9370  145.1960 C   0  0  0  0  0  0  0  0  0  0  0  0
  160.9040  213.5080  144.0190 N   0  0  0  0  0  2  0  0  0  0  0  0
  160.7230  213.4560  146.5360 C   0  0  0  0  0  2  0  0  0  0  0  0
  161.5970  212.4390  147.2470 C   0  0  0  0  0  1  0  0  0  0  0  0
  159.2840  209.2120  137.2920 C   0  0  0  0  0  3  0  0  0  0  0  0
  159.6830  210.2210  138.1830 C   0  0  0  0  0  0  0  0  0  0  0  0
  156.9540  209.7120  137.7250 C   0  0  0  0  0  3  0  0  0  0  0  0
  157.3350  210.7230  138.6170 C   0  0  0  0  0  0  0  0  0  0  0  0
  157.9290  208.9570  137.0650 C   0  0  0  0  0  3  0  0  0  0  0  0
  158.6910  210.9760  138.8360 C   0  0  0  0  0  3  0  0  0  0  0  0
  156.3800  211.4830  139.2920 O   0  0  0  0  0  0  0  0  0  0  0  0
  155.2010  210.9510  139.6460 O   0  0  0  0  0  1  0  0  0  0  0  0
  2  1  1  6  0  0  0
  2  3  1  0  0  0  0
  2  4  1  0  0  0  0
  3  4  1  0  0  0  0
  4  5  1  1  0  0  0
  5  6  1  0  0  0  0
  7  6  1  6  0  0  0
  7  9  1  0  0  0  0
  7 11  1  0  0  0  0
  9  8  1  6  0  0  0
 10  9  1  0  0  0  0
 11 12  1  0  0  0  0
 12 13  1  6  0  0  0
 12 16  1  0  0  0  0
 14 13  2  0  0  0  0
 15 13  1  0  0  0  0
 16 22  1  0  0  0  0
 16 23  1  1  0  0  0
 17 20  1  0  0  0  0
 18 19  1  0  0  0  0
 18 22  2  0  0  0  0
 19 17  2  0  0  0  0
 21 20  2  0  0  0  0
 22 21  1  0  0  0  0
 23 24  1  0  0  0  0
 24 26  1  0  0  0  0
 25 26  2  0  0  0  0
 26 29  1  0  0  0  0
 27 30  2  0  0  0  0
 27 28  1  0  0  0  0
 29 27  1  0  0  0  0
 31  1  1  0  0  0  0
 32 33  1  0  0  0  0
 32 31  1  0  0  0  0
 34 33  1  0  0  0  0
 35 34  1  0  0  0  0
 36 44  1  0  0  0  0
 37 39  1  0  0  0  0
 37 38  1  0  0  0  0
 38 42  1  6  0  0  0
 38 41  1  0  0  0  0
 39 35  1  1  0  0  0
 39 43  1  0  0  0  0
 40 38  1  0  0  0  0
 41 36  1  0  0  0  0
 43 36  2  0  0  0  0
 44 45  1  0  0  0  0
 45 48  1  0  0  0  0
 46 47  2  0  0  0  0
 47 49  1  0  0  0  0
 48 47  1  0  0  0  0
 49 50  1  0  0  0  0
 51 52  1  0  0  0  0
 52 35  1  0  0  0  0
 52 56  2  0  0  0  0
 53 54  2  0  0  0  0
 54 56  1  0  0  0  0
 54 57  1  0  0  0  0
 55 51  2  0  0  0  0
 55 53  1  0  0  0  0
 57 58  1  0  0  0  0
M  END
>  <MODEL>
3

>  <REMARK>
 VINA RESULT:      -2.9      3.385      6.963
  Name = 
  26 active torsions:
  status: ('A' for Active; 'I' for Inactive)
    1  A    between atoms: C_2  and  C_15
    2  A    between atoms: C_2  and  C_55
    3  A    between atoms: N_3  and  O_48
    4  A    between atoms: N_3  and  C_56
    5  A    between atoms: C_4  and  O_50
    6  A    between atoms: C_5  and  C_53
    7  A    between atoms: C_7  and  O_8
    8  A    between atoms: C_7  and  C_21
    9  A    between atoms: C_7  and  C_44
   10  A    between atoms: O_8  and  C_55
   11  A    between atoms: C_11  and  N_45
   12  A    between atoms: C_11  and  O_50
   13  A    between atoms: C_14  and  N_28
   14  A    between atoms: C_15  and  C_38
   15  A    between atoms: C_16  and  C_55
   16  A    between atoms: N_17  and  C_20
   17  A    between atoms: N_17  and  C_46
   18  A    between atoms: C_22  and  N_28
   19  A    between atoms: O_24  and  C_35
   20  A    between atoms: N_26  and  N_28
   21  A    between atoms: N_26  and  C_29
   22  A    between atoms: C_29  and  C_47
   23  A    between atoms: N_34  and  C_56
   24  A    between atoms: C_44  and  O_48
   25  A    between atoms: C_44  and  C_52
   26  A    between atoms: C_46  and  C_47
                            x       y       z     vdW  Elec       q    Type
                         _______ _______ _______ _____ _____    ______ ____

>  <TORSDO>
F 26

$$$$
=
 OpenBabel11072415183D

 58 61  0  0  1  0  0  0  0  0999 V2000
  160.5610  212.5870  146.4510 N   0  0  0  0  0  2  0  0  0  0  0  0
  161.3340  211.6640  147.2710 C   0  0  1  0  0  3  0  0  0  0  0  0
  162.7480  212.1860  147.4440 C   0  0  0  0  0  2  0  0  0  0  0  0
  161.7280  212.3550  148.5600 C   0  0  2  0  0  3  0  0  0  0  0  0
  161.8780  211.2720  149.6120 C   0  0  0  0  0  2  0  0  0  0  0  0
  161.5260  209.8880  149.0580 C   0  0  0  0  0  2  0  0  0  0  0  0
  162.1230  208.7550  149.9150 C   0  0  1  0  0  3  0  0  0  0  0  0
  162.3630  207.9820  152.2950 C   0  0  0  0  0  1  0  0  0  0  0  0
  161.4010  208.5090  151.2460 C   0  0  1  0  0  3  0  0  0  0  0  0
  160.8550  209.7050  151.7040 O   0  0  0  0  0  1  0  0  0  0  0  0
  162.4480  207.5810  149.2030 O   0  0  0  0  0  0  0  0  0  0  0  0
  161.2730  206.9030  148.8320 C   0  0  1  0  0  3  0  0  0  0  0  0
  160.7850  207.4270  147.5190 C   0  0  0  0  0  0  0  0  0  0  0  0
  161.1980  208.6680  147.0610 O   0  0  0  0  0  1  0  0  0  0  0  0
  160.0110  206.7280  146.8150 O   0  0  0  0  0  0  0  0  0  0  0  0
  161.5120  205.3910  148.8090 C   0  0  1  0  0  3  0  0  0  0  0  0
  160.8270  203.6220  152.6820 C   0  0  0  0  0  3  0  0  0  0  0  0
  160.8050  205.5550  151.2120 C   0  0  0  0  0  3  0  0  0  0  0  0
  160.5670  204.9830  152.4700 C   0  0  0  0  0  3  0  0  0  0  0  0
  161.3180  202.8320  151.6360 C   0  0  0  0  0  3  0  0  0  0  0  0
  161.5490  203.4010  150.3760 C   0  0  0  0  0  3  0  0  0  0  0  0
  161.2990  204.7680  150.1620 C   0  0  0  0  0  0  0  0  0  0  0  0
  160.7400  204.7680  147.8230 O   0  0  0  0  0  0  0  0  0  0  0  0
  161.6160  204.0080  147.1210 N   0  0  0  0  0  2  0  0  0  0  0  0
  160.8640  204.4280  144.6250 S   0  0  0  0  0  0  0  0  0  0  0  0
  161.2920  203.4370  145.8490 C   0  0  0  0  0  0  0  0  0  0  0  0
  160.9510  200.9740  146.4330 C   0  0  0  0  0  0  0  0  0  0  0  0
  161.4250  199.2790  146.0730 S   0  0  0  0  0  1  0  0  0  0  0  0
  161.4220  202.0280  145.5880 N   0  0  0  0  0  2  0  0  0  0  0  0
  160.1720  201.2110  147.3980 O   0  0  0  0  0  0  0  0  0  0  0  0
  160.3570  211.9610  145.1470 C   0  0  0  0  0  2  0  0  0  0  0  0
  159.7850  212.9440  144.1300 C   0  0  0  0  0  2  0  0  0  0  0  0
  159.6500  212.3120  142.7580 C   0  0  0  0  0  2  0  0  0  0  0  0
  160.1990  213.2010  141.7380 N   0  0  0  0  0  2  0  0  0  0  0  0
  159.9810  212.5910  140.4870 N   0  0  0  0  0  0  0  0  0  0  0  0
  156.9550  211.3630  138.9930 C   0  0  0  0  0  0  0  0  0  0  0  0
  157.7240  213.4480  140.6570 N   0  0  0  0  0  2  0  0  0  0  0  0
  156.4800  213.6510  139.9120 C   0  0  1  0  0  0  0  0  0  0  0  0
  158.7230  212.8420  139.7740 C   0  0  2  0  0  3  0  0  0  0  0  0
  156.7060  214.4490  138.8030 F   0  0  0  0  0  0  0  0  0  0  0  0
  155.8970  212.3100  139.4790 C   0  0  0  0  0  2  0  0  0  0  0  0
  155.4750  214.3490  140.8070 C   0  0  0  0  0  1  0  0  0  0  0  0
  158.2180  211.6040  139.1880 N   0  0  0  0  0  0  0  0  0  0  0  0
  156.5490  210.1870  138.3600 O   0  0  0  0  0  0  0  0  0  0  0  0
  155.5710  209.3240  138.9200 C   0  0  0  0  0  2  0  0  0  0  0  0
  152.9000  209.8380  138.0820 O   0  0  0  0  0  0  0  0  0  0  0  0
  153.2700  210.3300  139.1780 C   0  0  0  0  0  0  0  0  0  0  0  0
  154.5950  210.1060  139.6660 N   0  0  0  0  0  2  0  0  0  0  0  0
  152.3120  211.1320  139.9880 C   0  0  0  0  0  2  0  0  0  0  0  0
  152.2430  212.5500  139.4540 C   0  0  0  0  0  1  0  0  0  0  0  0
  161.9240  212.1190  139.0280 C   0  0  0  0  0  3  0  0  0  0  0  0
  160.9660  211.6800  139.9550 C   0  0  0  0  0  0  0  0  0  0  0  0
  162.8960  209.9020  138.9390 C   0  0  0  0  0  3  0  0  0  0  0  0
  161.9450  209.4470  139.8630 C   0  0  0  0  0  0  0  0  0  0  0  0
  162.8850  211.2380  138.5240 C   0  0  0  0  0  3  0  0  0  0  0  0
  160.9860  210.3310  140.3600 C   0  0  0  0  0  3  0  0  0  0  0  0
  161.9420  208.1210  140.2960 O   0  0  0  0  0  0  0  0  0  0  0  0
  161.7440  207.1150  139.4320 O   0  0  0  0  0  1  0  0  0  0  0  0
  2  1  1  6  0  0  0
  2  3  1  0  0  0  0
  2  4  1  0  0  0  0
  3  4  1  0  0  0  0
  4  5  1  1  0  0  0
  6  5  1  0  0  0  0
  7  6  1  6  0  0  0
  7  9  1  0  0  0  0
  9 10  1  0  0  0  0
  9  8  1  1  0  0  0
 11  7  1  0  0  0  0
 12 13  1  6  0  0  0
 12 11  1  0  0  0  0
 14 13  1  0  0  0  0
 15 13  2  0  0  0  0
 16 23  1  6  0  0  0
 16 12  1  0  0  0  0
 16 22  1  0  0  0  0
 18 19  2  0  0  0  0
 19 17  1  0  0  0  0
 20 17  2  0  0  0  0
 21 20  1  0  0  0  0
 22 21  2  0  0  0  0
 22 18  1  0  0  0  0
 24 23  1  0  0  0  0
 25 26  2  0  0  0  0
 26 24  1  0  0  0  0
 27 30  2  0  0  0  0
 28 27  1  0  0  0  0
 29 26  1  0  0  0  0
 29 27  1  0  0  0  0
 31  1  1  0  0  0  0
 32 31  1  0  0  0  0
 33 32  1  0  0  0  0
 34 33  1  0  0  0  0
 35 34  1  0  0  0  0
 36 43  2  0  0  0  0
 36 41  1  0  0  0  0
 38 37  1  0  0  0  0
 38 42  1  1  0  0  0
 39 35  1  1  0  0  0
 39 37  1  0  0  0  0
 40 38  1  0  0  0  0
 41 38  1  0  0  0  0
 43 39  1  0  0  0  0
 44 45  1  0  0  0  0
 44 36  1  0  0  0  0
 45 48  1  0  0  0  0
 46 47  2  0  0  0  0
 47 48  1  0  0  0  0
 47 49  1  0  0  0  0
 50 49  1  0  0  0  0
 51 52  1  0  0  0  0
 52 56  2  0  0  0  0
 52 35  1  0  0  0  0
 53 54  2  0  0  0  0
 54 57  1  0  0  0  0
 54 56  1  0  0  0  0
 55 53  1  0  0  0  0
 55 51  2  0  0  0  0
 58 57  1  0  0  0  0
M  END
>  <MODEL>
4

>  <REMARK>
 VINA RESULT:      -2.6      2.046      3.391
  Name = 
  26 active torsions:
  status: ('A' for Active; 'I' for Inactive)
    1  A    between atoms: C_2  and  C_15
    2  A    between atoms: C_2  and  C_55
    3  A    between atoms: N_3  and  O_48
    4  A    between atoms: N_3  and  C_56
    5  A    between atoms: C_4  and  O_50
    6  A    between atoms: C_5  and  C_53
    7  A    between atoms: C_7  and  O_8
    8  A    between atoms: C_7  and  C_21
    9  A    between atoms: C_7  and  C_44
   10  A    between atoms: O_8  and  C_55
   11  A    between atoms: C_11  and  N_45
   12  A    between atoms: C_11  and  O_50
   13  A    between atoms: C_14  and  N_28
   14  A    between atoms: C_15  and  C_38
   15  A    between atoms: C_16  and  C_55
   16  A    between atoms: N_17  and  C_20
   17  A    between atoms: N_17  and  C_46
   18  A    between atoms: C_22  and  N_28
   19  A    between atoms: O_24  and  C_35
   20  A    between atoms: N_26  and  N_28
   21  A    between atoms: N_26  and  C_29
   22  A    between atoms: C_29  and  C_47
   23  A    between atoms: N_34  and  C_56
   24  A    between atoms: C_44  and  O_48
   25  A    between atoms: C_44  and  C_52
   26  A    between atoms: C_46  and  C_47
                            x       y       z     vdW  Elec       q    Type
                         _______ _______ _______ _____ _____    ______ ____

>  <TORSDO>
F 26

$$$$
=
 OpenBabel11072415183D

 58 61  0  0  1  0  0  0  0  0999 V2000
  161.5510  206.3130  142.6400 N   0  0  0  0  0  2  0  0  0  0  0  0
  162.4390  205.3670  143.3030 C   0  0  1  0  0  3  0  0  0  0  0  0
  163.2920  206.0890  144.3280 C   0  0  0  0  0  2  0  0  0  0  0  0
  162.0760  205.2880  144.7710 C   0  0  2  0  0  3  0  0  0  0  0  0
  162.4720  203.9040  145.2490 C   0  0  0  0  0  2  0  0  0  0  0  0
  162.5480  203.8300  146.7770 C   0  0  0  0  0  2  0  0  0  0  0  0
  161.1530  203.6910  147.4170 C   0  0  1  0  0  3  0  0  0  0  0  0
  160.4550  201.6140  146.1850 C   0  0  0  0  0  1  0  0  0  0  0  0
  160.6490  202.2490  147.5500 C   0  0  1  0  0  3  0  0  0  0  0  0
  161.5810  201.4970  148.2620 O   0  0  0  0  0  1  0  0  0  0  0  0
  160.9440  204.4890  148.5620 O   0  0  0  0  0  0  0  0  0  0  0  0
  161.1910  205.8400  148.2590 C   0  0  1  0  0  3  0  0  0  0  0  0
  160.2280  206.3050  147.2140 C   0  0  0  0  0  0  0  0  0  0  0  0
  158.8650  206.3040  147.4660 O   0  0  0  0  0  1  0  0  0  0  0  0
  160.6570  206.7190  146.1070 O   0  0  0  0  0  0  0  0  0  0  0  0
  161.1350  206.6920  149.5300 C   0  0  1  0  0  3  0  0  0  0  0  0
  161.1590  204.3150  153.1280 C   0  0  0  0  0  3  0  0  0  0  0  0
  161.3850  206.4620  152.0160 C   0  0  0  0  0  3  0  0  0  0  0  0
  161.3810  205.6970  153.1920 C   0  0  0  0  0  3  0  0  0  0  0  0
  160.9360  203.6980  151.8910 C   0  0  0  0  0  3  0  0  0  0  0  0
  160.9330  204.4630  150.7160 C   0  0  0  0  0  3  0  0  0  0  0  0
  161.1640  205.8480  150.7750 C   0  0  0  0  0  0  0  0  0  0  0  0
  162.1410  207.6640  149.5370 O   0  0  0  0  0  0  0  0  0  0  0  0
  161.4890  208.8430  149.6810 N   0  0  0  0  0  2  0  0  0  0  0  0
  162.3390  210.1430  151.8160 S   0  0  0  0  0  0  0  0  0  0  0  0
  162.1240  210.0140  150.2030 C   0  0  0  0  0  0  0  0  0  0  0  0
  161.9660  212.2030  148.8960 C   0  0  0  0  0  0  0  0  0  0  0  0
  162.7100  213.2390  147.6310 S   0  0  0  0  0  1  0  0  0  0  0  0
  162.6630  211.0380  149.3480 N   0  0  0  0  0  2  0  0  0  0  0  0
  160.8590  212.5390  149.4030 O   0  0  0  0  0  0  0  0  0  0  0  0
  161.8520  206.2810  141.2110 C   0  0  0  0  0  2  0  0  0  0  0  0
  162.7670  207.4310  140.8000 C   0  0  0  0  0  2  0  0  0  0  0  0
  162.0450  208.4300  139.9160 C   0  0  0  0  0  2  0  0  0  0  0  0
  161.0040  209.1160  140.6760 N   0  0  0  0  0  2  0  0  0  0  0  0
  161.2290  210.5000  140.5430 N   0  0  0  0  0  0  0  0  0  0  0  0
  160.5960  212.8580  137.9090 C   0  0  0  0  0  0  0  0  0  0  0  0
  162.7910  211.8450  139.2740 N   0  0  0  0  0  2  0  0  0  0  0  0
  163.0650  212.3980  137.9470 C   0  0  1  0  0  0  0  0  0  0  0  0
  161.5610  211.0510  139.2230 C   0  0  2  0  0  3  0  0  0  0  0  0
  163.1720  211.3810  137.0130 F   0  0  0  0  0  0  0  0  0  0  0  0
  161.9590  213.3650  137.5380 C   0  0  0  0  0  2  0  0  0  0  0  0
  164.3780  213.1540  137.9850 C   0  0  0  0  0  1  0  0  0  0  0  0
  160.4480  211.8470  138.7130 N   0  0  0  0  0  0  0  0  0  0  0  0
  159.4800  213.5270  137.4020 O   0  0  0  0  0  0  0  0  0  0  0  0
  158.2130  212.8990  137.2790 C   0  0  0  0  0  2  0  0  0  0  0  0
  156.7140  211.4000  139.1780 O   0  0  0  0  0  0  0  0  0  0  0  0
  156.5620  212.6470  139.1710 C   0  0  0  0  0  0  0  0  0  0  0  0
  157.2880  213.4650  138.2510 N   0  0  0  0  0  2  0  0  0  0  0  0
  155.6340  213.2810  140.1490 C   0  0  0  0  0  2  0  0  0  0  0  0
  154.1960  213.0330  139.7340 C   0  0  0  0  0  1  0  0  0  0  0  0
  160.1150  211.2880  142.6080 C   0  0  0  0  0  3  0  0  0  0  0  0
  161.1940  211.3460  141.7120 C   0  0  0  0  0  0  0  0  0  0  0  0
  161.1440  212.9820  144.0010 C   0  0  0  0  0  3  0  0  0  0  0  0
  162.2280  213.0530  143.1160 C   0  0  0  0  0  0  0  0  0  0  0  0
  160.0900  212.0990  143.7460 C   0  0  0  0  0  3  0  0  0  0  0  0
  162.2460  212.2430  141.9780 C   0  0  0  0  0  3  0  0  0  0  0  0
  163.2940  213.9210  143.3530 O   0  0  0  0  0  0  0  0  0  0  0  0
  164.0860  213.7620  144.4240 O   0  0  0  0  0  1  0  0  0  0  0  0
  2  1  1  6  0  0  0
  2  3  1  0  0  0  0
  2  4  1  0  0  0  0
  3  4  1  0  0  0  0
  4  5  1  1  0  0  0
  5  6  1  0  0  0  0
  7  6  1  1  0  0  0
  7  9  1  0  0  0  0
  7 11  1  0  0  0  0
  9  8  1  6  0  0  0
  9 10  1  0  0  0  0
 12 13  1  6  0  0  0
 12 11  1  0  0  0  0
 12 16  1  0  0  0  0
 13 14  1  0  0  0  0
 15 13  2  0  0  0  0
 16 23  1  1  0  0  0
 16 22  1  0  0  0  0
 17 19  1  0  0  0  0
 18 19  2  0  0  0  0
 20 17  2  0  0  0  0
 21 22  2  0  0  0  0
 21 20  1  0  0  0  0
 22 18  1  0  0  0  0
 23 24  1  0  0  0  0
 24 26  1  0  0  0  0
 26 25  2  0  0  0  0
 27 29  1  0  0  0  0
 27 30  2  0  0  0  0
 28 27  1  0  0  0  0
 29 26  1  0  0  0  0
 31  1  1  0  0  0  0
 32 31  1  0  0  0  0
 33 34  1  0  0  0  0
 33 32  1  0  0  0  0
 35 34  1  0  0  0  0
 35 52  1  0  0  0  0
 36 43  2  0  0  0  0
 38 42  1  1  0  0  0
 38 37  1  0  0  0  0
 39 37  1  0  0  0  0
 39 35  1  1  0  0  0
 40 38  1  0  0  0  0
 41 36  1  0  0  0  0
 41 38  1  0  0  0  0
 43 39  1  0  0  0  0
 44 36  1  0  0  0  0
 45 44  1  0  0  0  0
 45 48  1  0  0  0  0
 47 46  2  0  0  0  0
 47 49  1  0  0  0  0
 48 47  1  0  0  0  0
 50 49  1  0  0  0  0
 51 55  1  0  0  0  0
 52 56  1  0  0  0  0
 52 51  2  0  0  0  0
 54 57  1  0  0  0  0
 54 53  1  0  0  0  0
 55 53  2  0  0  0  0
 56 54  2  0  0  0  0
 57 58  1  0  0  0  0
M  END
>  <MODEL>
5

>  <REMARK>
 VINA RESULT:      -2.2      3.036      6.280
  Name = 
  26 active torsions:
  status: ('A' for Active; 'I' for Inactive)
    1  A    between atoms: C_2  and  C_15
    2  A    between atoms: C_2  and  C_55
    3  A    between atoms: N_3  and  O_48
    4  A    between atoms: N_3  and  C_56
    5  A    between atoms: C_4  and  O_50
    6  A    between atoms: C_5  and  C_53
    7  A    between atoms: C_7  and  O_8
    8  A    between atoms: C_7  and  C_21
    9  A    between atoms: C_7  and  C_44
   10  A    between atoms: O_8  and  C_55
   11  A    between atoms: C_11  and  N_45
   12  A    between atoms: C_11  and  O_50
   13  A    between atoms: C_14  and  N_28
   14  A    between atoms: C_15  and  C_38
   15  A    between atoms: C_16  and  C_55
   16  A    between atoms: N_17  and  C_20
   17  A    between atoms: N_17  and  C_46
   18  A    between atoms: C_22  and  N_28
   19  A    between atoms: O_24  and  C_35
   20  A    between atoms: N_26  and  N_28
   21  A    between atoms: N_26  and  C_29
   22  A    between atoms: C_29  and  C_47
   23  A    between atoms: N_34  and  C_56
   24  A    between atoms: C_44  and  O_48
   25  A    between atoms: C_44  and  C_52
   26  A    between atoms: C_46  and  C_47
                            x       y       z     vdW  Elec       q    Type
                         _______ _______ _______ _____ _____    ______ ____

>  <TORSDO>
F 26

$$$$
=
 OpenBabel11072415183D

 58 61  0  0  1  0  0  0  0  0999 V2000
  161.3760  206.4440  142.8730 N   0  0  0  0  0  2  0  0  0  0  0  0
  162.0010  205.2490  143.4260 C   0  0  1  0  0  3  0  0  0  0  0  0
  163.2180  205.6340  144.2460 C   0  0  0  0  0  2  0  0  0  0  0  0
  161.9050  205.2910  144.9360 C   0  0  2  0  0  3  0  0  0  0  0  0
  161.8960  203.8510  145.4170 C   0  0  0  0  0  2  0  0  0  0  0  0
  162.3270  203.7380  146.8820 C   0  0  0  0  0  2  0  0  0  0  0  0
  161.1180  203.7140  147.8380 C   0  0  1  0  0  3  0  0  0  0  0  0
  161.7990  201.5340  148.8870 C   0  0  0  0  0  1  0  0  0  0  0  0
  160.6590  202.3120  148.2570 C   0  0  1  0  0  3  0  0  0  0  0  0
  159.6280  202.4210  149.1870 O   0  0  0  0  0  1  0  0  0  0  0  0
  161.1800  204.6460  148.8950 O   0  0  0  0  0  0  0  0  0  0  0  0
  161.3770  205.9420  148.3840 C   0  0  1  0  0  3  0  0  0  0  0  0
  160.2160  206.3250  147.5230 C   0  0  0  0  0  0  0  0  0  0  0  0
  158.9210  206.2390  148.0130 O   0  0  0  0  0  1  0  0  0  0  0  0
  160.4140  206.7470  146.3560 O   0  0  0  0  0  0  0  0  0  0  0  0
  161.6160  206.9360  149.5240 C   0  0  1  0  0  3  0  0  0  0  0  0
  161.6620  204.9270  153.3400 C   0  0  0  0  0  3  0  0  0  0  0  0
  160.6410  205.3120  151.1700 C   0  0  0  0  0  3  0  0  0  0  0  0
  160.6570  204.6450  152.4040 C   0  0  0  0  0  3  0  0  0  0  0  0
  162.6530  205.8700  153.0400 C   0  0  0  0  0  3  0  0  0  0  0  0
  162.6410  206.5320  151.8050 C   0  0  0  0  0  3  0  0  0  0  0  0
  161.6300  206.2590  150.8670 C   0  0  0  0  0  0  0  0  0  0  0  0
  162.7760  207.6880  149.3090 O   0  0  0  0  0  0  0  0  0  0  0  0
  162.3480  208.8340  148.7260 N   0  0  0  0  0  2  0  0  0  0  0  0
  162.0880  211.4600  148.8080 S   0  0  0  0  0  0  0  0  0  0  0  0
  161.9520  209.9810  149.4850 C   0  0  0  0  0  0  0  0  0  0  0  0
  162.0460  209.9270  152.0370 C   0  0  0  0  0  0  0  0  0  0  0  0
  161.1720  209.5120  153.5500 S   0  0  0  0  0  1  0  0  0  0  0  0
  161.3510  209.8670  150.7880 N   0  0  0  0  0  2  0  0  0  0  0  0
  163.2470  210.3120  152.0970 O   0  0  0  0  0  0  0  0  0  0  0  0
  161.6510  206.4680  141.4390 C   0  0  0  0  0  2  0  0  0  0  0  0
  162.6520  207.5600  141.0730 C   0  0  0  0  0  2  0  0  0  0  0  0
  162.0330  208.5990  140.1560 C   0  0  0  0  0  2  0  0  0  0  0  0
  160.9400  209.2860  140.8390 N   0  0  0  0  0  2  0  0  0  0  0  0
  161.2210  210.6660  140.7980 N   0  0  0  0  0  0  0  0  0  0  0  0
  161.0200  213.3370  138.4060 C   0  0  0  0  0  0  0  0  0  0  0  0
  163.0000  211.8410  139.6520 N   0  0  0  0  0  2  0  0  0  0  0  0
  163.3750  212.4640  138.3810 C   0  0  1  0  0  0  0  0  0  0  0  0
  161.6540  211.2760  139.5350 C   0  0  2  0  0  3  0  0  0  0  0  0
  163.3170  211.5360  137.3540 F   0  0  0  0  0  0  0  0  0  0  0  0
  162.4530  213.6380  138.0750 C   0  0  0  0  0  2  0  0  0  0  0  0
  164.7970  212.9780  138.4820 C   0  0  0  0  0  1  0  0  0  0  0  0
  160.6960  212.2940  139.1110 N   0  0  0  0  0  0  0  0  0  0  0  0
  160.0390  214.2300  137.9740 O   0  0  0  0  0  0  0  0  0  0  0  0
  158.7240  213.8080  137.6430 C   0  0  0  0  0  2  0  0  0  0  0  0
  156.5590  211.9890  137.9590 O   0  0  0  0  0  0  0  0  0  0  0  0
  157.6170  211.5490  137.4430 C   0  0  0  0  0  0  0  0  0  0  0  0
  158.7420  212.4070  137.2460 N   0  0  0  0  0  2  0  0  0  0  0  0
  157.6900  210.1250  137.0110 C   0  0  0  0  0  2  0  0  0  0  0  0
  156.8570  209.2590  137.9380 C   0  0  0  0  0  1  0  0  0  0  0  0
  162.2810  212.0880  142.5260 C   0  0  0  0  0  3  0  0  0  0  0  0
  161.1430  211.4470  142.0100 C   0  0  0  0  0  0  0  0  0  0  0  0
  160.9780  212.9850  144.3600 C   0  0  0  0  0  3  0  0  0  0  0  0
  159.8340  212.3510  143.8590 C   0  0  0  0  0  0  0  0  0  0  0  0
  162.2000  212.8540  143.6920 C   0  0  0  0  0  3  0  0  0  0  0  0
  159.9220  211.5840  142.6960 C   0  0  0  0  0  3  0  0  0  0  0  0
  158.6040  212.4750  144.5050 O   0  0  0  0  0  0  0  0  0  0  0  0
  158.4750  213.2370  145.6010 O   0  0  0  0  0  1  0  0  0  0  0  0
  2  1  1  6  0  0  0
  2  3  1  0  0  0  0
  2  4  1  0  0  0  0
  3  4  1  0  0  0  0
  4  5  1  1  0  0  0
  5  6  1  0  0  0  0
  7  6  1  1  0  0  0
  7  9  1  0  0  0  0
  7 11  1  0  0  0  0
  9  8  1  1  0  0  0
  9 10  1  0  0  0  0
 12 13  1  1  0  0  0
 12 11  1  0  0  0  0
 12 16  1  0  0  0  0
 13 14  1  0  0  0  0
 15 13  2  0  0  0  0
 16 23  1  6  0  0  0
 16 22  1  0  0  0  0
 18 19  1  0  0  0  0
 19 17  2  0  0  0  0
 20 17  1  0  0  0  0
 21 20  2  0  0  0  0
 22 18  2  0  0  0  0
 22 21  1  0  0  0  0
 24 23  1  0  0  0  0
 24 26  1  0  0  0  0
 25 26  2  0  0  0  0
 26 29  1  0  0  0  0
 27 30  2  0  0  0  0
 27 28  1  0  0  0  0
 29 27  1  0  0  0  0
 31  1  1  0  0  0  0
 32 31  1  0  0  0  0
 33 34  1  0  0  0  0
 33 32  1  0  0  0  0
 35 34  1  0  0  0  0
 35 52  1  0  0  0  0
 36 43  2  0  0  0  0
 38 42  1  1  0  0  0
 38 37  1  0  0  0  0
 39 37  1  0  0  0  0
 39 35  1  1  0  0  0
 40 38  1  0  0  0  0
 41 38  1  0  0  0  0
 41 36  1  0  0  0  0
 43 39  1  0  0  0  0
 44 36  1  0  0  0  0
 45 44  1  0  0  0  0
 47 46  2  0  0  0  0
 48 47  1  0  0  0  0
 48 45  1  0  0  0  0
 49 47  1  0  0  0  0
 49 50  1  0  0  0  0
 51 55  1  0  0  0  0
 52 51  2  0  0  0  0
 52 56  1  0  0  0  0
 54 53  1  0  0  0  0
 54 57  1  0  0  0  0
 55 53  2  0  0  0  0
 56 54  2  0  0  0  0
 57 58  1  0  0  0  0
M  END
>  <MODEL>
6

>  <REMARK>
 VINA RESULT:      -2.1      3.074      6.108
  Name = 
  26 active torsions:
  status: ('A' for Active; 'I' for Inactive)
    1  A    between atoms: C_2  and  C_15
    2  A    between atoms: C_2  and  C_55
    3  A    between atoms: N_3  and  O_48
    4  A    between atoms: N_3  and  C_56
    5  A    between atoms: C_4  and  O_50
    6  A    between atoms: C_5  and  C_53
    7  A    between atoms: C_7  and  O_8
    8  A    between atoms: C_7  and  C_21
    9  A    between atoms: C_7  and  C_44
   10  A    between atoms: O_8  and  C_55
   11  A    between atoms: C_11  and  N_45
   12  A    between atoms: C_11  and  O_50
   13  A    between atoms: C_14  and  N_28
   14  A    between atoms: C_15  and  C_38
   15  A    between atoms: C_16  and  C_55
   16  A    between atoms: N_17  and  C_20
   17  A    between atoms: N_17  and  C_46
   18  A    between atoms: C_22  and  N_28
   19  A    between atoms: O_24  and  C_35
   20  A    between atoms: N_26  and  N_28
   21  A    between atoms: N_26  and  C_29
   22  A    between atoms: C_29  and  C_47
   23  A    between atoms: N_34  and  C_56
   24  A    between atoms: C_44  and  O_48
   25  A    between atoms: C_44  and  C_52
   26  A    between atoms: C_46  and  C_47
                            x       y       z     vdW  Elec       q    Type
                         _______ _______ _______ _____ _____    ______ ____

>  <TORSDO>
F 26

$$$$
=
 OpenBabel11072415183D

 58 61  0  0  1  0  0  0  0  0999 V2000
  162.5450  208.1150  150.2900 N   0  0  0  0  0  2  0  0  0  0  0  0
  161.9730  206.8720  149.7880 C   0  0  1  0  0  3  0  0  0  0  0  0
  160.5400  207.1040  149.3470 C   0  0  0  0  0  2  0  0  0  0  0  0
  161.6570  207.0290  148.3160 C   0  0  2  0  0  3  0  0  0  0  0  0
  161.7430  205.6460  147.6970 C   0  0  0  0  0  2  0  0  0  0  0  0
  161.2210  205.6340  146.2570 C   0  0  0  0  0  2  0  0  0  0  0  0
  162.0610  204.7170  145.3470 C   0  0  1  0  0  3  0  0  0  0  0  0
  163.9550  204.6190  146.9970 C   0  0  0  0  0  1  0  0  0  0  0  0
  163.5780  204.8350  145.5440 C   0  0  1  0  0  3  0  0  0  0  0  0
  164.2210  203.8710  144.7700 O   0  0  0  0  0  1  0  0  0  0  0  0
  161.5890  203.3910  145.2420 O   0  0  0  0  0  0  0  0  0  0  0  0
  160.3690  203.2590  145.9290 C   0  0  1  0  0  3  0  0  0  0  0  0
  159.2640  203.0210  144.9510 C   0  0  0  0  0  0  0  0  0  0  0  0
  158.1390  202.3020  145.3250 O   0  0  0  0  0  1  0  0  0  0  0  0
  159.3440  203.4940  143.7890 O   0  0  0  0  0  0  0  0  0  0  0  0
  160.4670  202.1550  146.9850 C   0  0  1  0  0  3  0  0  0  0  0  0
  161.3890  198.2930  145.3010 C   0  0  0  0  0  3  0  0  0  0  0  0
  161.7170  199.9780  147.0190 C   0  0  0  0  0  3  0  0  0  0  0  0
  162.0110  198.7160  146.4840 C   0  0  0  0  0  3  0  0  0  0  0  0
  160.4690  199.1300  144.6560 C   0  0  0  0  0  3  0  0  0  0  0  0
  160.1690  200.3890  145.1940 C   0  0  0  0  0  3  0  0  0  0  0  0
  160.7980  200.8200  146.3750 C   0  0  0  0  0  0  0  0  0  0  0  0
  161.3660  202.4980  148.0010 O   0  0  0  0  0  0  0  0  0  0  0  0
  161.2930  201.4810  148.8930 N   0  0  0  0  0  2  0  0  0  0  0  0
  159.2660  200.6210  150.3500 S   0  0  0  0  0  0  0  0  0  0  0  0
  160.5640  201.5840  150.1200 C   0  0  0  0  0  0  0  0  0  0  0  0
  160.6910  203.8330  151.3240 C   0  0  0  0  0  0  0  0  0  0  0  0
  161.5190  204.7970  152.5930 S   0  0  0  0  0  1  0  0  0  0  0  0
  160.9910  202.4400  151.1950 N   0  0  0  0  0  2  0  0  0  0  0  0
  159.8220  204.3840  150.5920 O   0  0  0  0  0  0  0  0  0  0  0  0
  161.9880  209.2120  149.5030 C   0  0  0  0  0  2  0  0  0  0  0  0
  161.5250  210.3650  150.3880 C   0  0  0  0  0  2  0  0  0  0  0  0
  161.2670  209.9060  151.8110 C   0  0  0  0  0  2  0  0  0  0  0  0
  161.9820  210.7610  152.7540 N   0  0  0  0  0  2  0  0  0  0  0  0
  161.1840  210.8740  153.9090 N   0  0  0  0  0  0  0  0  0  0  0  0
  159.0840  213.2690  152.2490 C   0  0  0  0  0  0  0  0  0  0  0  0
  158.8240  211.3220  154.2110 N   0  0  0  0  0  2  0  0  0  0  0  0
  157.8180  212.3860  154.2300 C   0  0  1  0  0  0  0  0  0  0  0  0
  160.1440  211.9090  153.9670 C   0  0  2  0  0  3  0  0  0  0  0  0
  158.1280  213.3250  155.2000 F   0  0  0  0  0  0  0  0  0  0  0  0
  157.7320  213.0560  152.8640 C   0  0  0  0  0  2  0  0  0  0  0  0
  156.4670  211.7840  154.5610 C   0  0  0  0  0  1  0  0  0  0  0  0
  160.1440  212.6960  152.7370 N   0  0  0  0  0  0  0  0  0  0  0  0
  159.1750  214.0680  151.1080 O   0  0  0  0  0  0  0  0  0  0  0  0
  159.2490  213.5170  149.8020 C   0  0  0  0  0  2  0  0  0  0  0  0
  160.4700  212.1780  147.6080 O   0  0  0  0  0  0  0  0  0  0  0  0
  161.0600  213.1850  148.0760 C   0  0  0  0  0  0  0  0  0  0  0  0
  160.5010  213.9120  149.1720 N   0  0  0  0  0  2  0  0  0  0  0  0
  162.3400  213.6390  147.4660 C   0  0  0  0  0  2  0  0  0  0  0  0
  162.3830  213.2470  146.0010 C   0  0  0  0  0  1  0  0  0  0  0  0
  162.3800  210.3780  156.0180 C   0  0  0  0  0  3  0  0  0  0  0  0
  161.4390  210.0160  155.0410 C   0  0  0  0  0  0  0  0  0  0  0  0
  161.9160  208.3480  157.2570 C   0  0  0  0  0  3  0  0  0  0  0  0
  160.9740  207.9720  156.2900 C   0  0  0  0  0  0  0  0  0  0  0  0
  162.6160  209.5510  157.1210 C   0  0  0  0  0  3  0  0  0  0  0  0
  160.7450  208.8000  155.1890 C   0  0  0  0  0  3  0  0  0  0  0  0
  160.2580  206.7810  156.4100 O   0  0  0  0  0  0  0  0  0  0  0  0
  158.9620  206.7190  156.0720 O   0  0  0  0  0  1  0  0  0  0  0  0
  2  1  1  1  0  0  0
  3  2  1  0  0  0  0
  4  5  1  6  0  0  0
  4  3  1  0  0  0  0
  4  2  1  0  0  0  0
  6  5  1  0  0  0  0
  7  9  1  0  0  0  0
  7  6  1  1  0  0  0
  9  8  1  1  0  0  0
 10  9  1  0  0  0  0
 11  7  1  0  0  0  0
 11 12  1  0  0  0  0
 12 13  1  6  0  0  0
 12 16  1  0  0  0  0
 13 14  1  0  0  0  0
 15 13  2  0  0  0  0
 16 23  1  1  0  0  0
 17 19  1  0  0  0  0
 19 18  2  0  0  0  0
 20 21  1  0  0  0  0
 20 17  2  0  0  0  0
 21 22  2  0  0  0  0
 22 16  1  0  0  0  0
 22 18  1  0  0  0  0
 23 24  1  0  0  0  0
 24 26  1  0  0  0  0
 26 25  2  0  0  0  0
 26 29  1  0  0  0  0
 27 28  1  0  0  0  0
 29 27  1  0  0  0  0
 30 27  2  0  0  0  0
 31  1  1  0  0  0  0
 31 32  1  0  0  0  0
 32 33  1  0  0  0  0
 33 34  1  0  0  0  0
 34 35  1  0  0  0  0
 35 52  1  0  0  0  0
 36 43  2  0  0  0  0
 36 41  1  0  0  0  0
 37 38  1  0  0  0  0
 38 42  1  1  0  0  0
 38 40  1  0  0  0  0
 39 35  1  6  0  0  0
 39 37  1  0  0  0  0
 41 38  1  0  0  0  0
 43 39  1  0  0  0  0
 44 36  1  0  0  0  0
 45 44  1  0  0  0  0
 46 47  2  0  0  0  0
 47 48  1  0  0  0  0
 48 45  1  0  0  0  0
 49 47  1  0  0  0  0
 50 49  1  0  0  0  0
 51 55  1  0  0  0  0
 52 56  1  0  0  0  0
 52 51  2  0  0  0  0
 54 57  1  0  0  0  0
 54 53  1  0  0  0  0
 55 53  2  0  0  0  0
 56 54  2  0  0  0  0
 58 57  1  0  0  0  0
M  END
>  <MODEL>
7

>  <REMARK>
 VINA RESULT:      -1.9      6.464     11.229
  Name = 
  26 active torsions:
  status: ('A' for Active; 'I' for Inactive)
    1  A    between atoms: C_2  and  C_15
    2  A    between atoms: C_2  and  C_55
    3  A    between atoms: N_3  and  O_48
    4  A    between atoms: N_3  and  C_56
    5  A    between atoms: C_4  and  O_50
    6  A    between atoms: C_5  and  C_53
    7  A    between atoms: C_7  and  O_8
    8  A    between atoms: C_7  and  C_21
    9  A    between atoms: C_7  and  C_44
   10  A    between atoms: O_8  and  C_55
   11  A    between atoms: C_11  and  N_45
   12  A    between atoms: C_11  and  O_50
   13  A    between atoms: C_14  and  N_28
   14  A    between atoms: C_15  and  C_38
   15  A    between atoms: C_16  and  C_55
   16  A    between atoms: N_17  and  C_20
   17  A    between atoms: N_17  and  C_46
   18  A    between atoms: C_22  and  N_28
   19  A    between atoms: O_24  and  C_35
   20  A    between atoms: N_26  and  N_28
   21  A    between atoms: N_26  and  C_29
   22  A    between atoms: C_29  and  C_47
   23  A    between atoms: N_34  and  C_56
   24  A    between atoms: C_44  and  O_48
   25  A    between atoms: C_44  and  C_52
   26  A    between atoms: C_46  and  C_47
                            x       y       z     vdW  Elec       q    Type
                         _______ _______ _______ _____ _____    ______ ____

>  <TORSDO>
F 26

$$$$
=
 OpenBabel11072415183D

 58 61  0  0  1  0  0  0  0  0999 V2000
  161.2600  210.2250  150.2830 N   0  0  0  0  0  2  0  0  0  0  0  0
  162.4480  209.3990  150.1090 C   0  0  1  0  0  3  0  0  0  0  0  0
  162.6850  208.5640  151.3530 C   0  0  0  0  0  2  0  0  0  0  0  0
  162.0450  207.9390  150.1210 C   0  0  2  0  0  3  0  0  0  0  0  0
  163.0690  207.1920  149.2880 C   0  0  0  0  0  2  0  0  0  0  0  0
  162.6030  207.0110  147.8400 C   0  0  0  0  0  2  0  0  0  0  0  0
  162.0610  205.5920  147.5820 C   0  0  1  0  0  3  0  0  0  0  0  0
  162.3430  205.7690  145.0900 C   0  0  0  0  0  1  0  0  0  0  0  0
  162.6070  204.9170  146.3180 C   0  0  1  0  0  3  0  0  0  0  0  0
  163.9830  204.7380  146.4470 O   0  0  0  0  0  1  0  0  0  0  0  0
  162.0220  204.7560  148.7180 O   0  0  0  0  0  0  0  0  0  0  0  0
  160.9580  205.1330  149.5570 C   0  0  1  0  0  3  0  0  0  0  0  0
  160.0460  206.0640  148.8240 C   0  0  0  0  0  0  0  0  0  0  0  0
  159.5860  207.2210  149.4350 O   0  0  0  0  0  1  0  0  0  0  0  0
  159.7090  205.8070  147.6400 O   0  0  0  0  0  0  0  0  0  0  0  0
  160.2320  203.8950  150.0890 C   0  0  1  0  0  3  0  0  0  0  0  0
  161.4230  200.3610  147.9230 C   0  0  0  0  0  3  0  0  0  0  0  0
  160.5020  202.6080  147.9510 C   0  0  0  0  0  3  0  0  0  0  0  0
  160.9000  201.4670  147.2390 C   0  0  0  0  0  3  0  0  0  0  0  0
  161.5530  200.3970  149.3170 C   0  0  0  0  0  3  0  0  0  0  0  0
  161.1620  201.5400  150.0280 C   0  0  0  0  0  3  0  0  0  0  0  0
  160.6290  202.6470  149.3470 C   0  0  0  0  0  0  0  0  0  0  0  0
  160.4050  203.7560  151.4700 O   0  0  0  0  0  0  0  0  0  0  0  0
  161.5760  204.3800  151.7410 N   0  0  0  0  0  2  0  0  0  0  0  0
  163.1750  205.9920  153.0890 S   0  0  0  0  0  0  0  0  0  0  0  0
  161.7000  205.3740  152.7640 C   0  0  0  0  0  0  0  0  0  0  0  0
  160.5920  206.7320  154.6220 C   0  0  0  0  0  0  0  0  0  0  0  0
  159.0600  207.1020  155.4850 S   0  0  0  0  0  1  0  0  0  0  0  0
  160.5550  205.9140  153.4490 N   0  0  0  0  0  2  0  0  0  0  0  0
  161.6750  207.2350  155.0330 O   0  0  0  0  0  0  0  0  0  0  0  0
  161.3970  211.3920  149.4150 C   0  0  0  0  0  2  0  0  0  0  0  0
  162.4460  211.1690  148.3290 C   0  0  0  0  0  2  0  0  0  0  0  0
  162.9530  212.4840  147.7670 C   0  0  0  0  0  2  0  0  0  0  0  0
  161.9030  213.4970  147.8270 N   0  0  0  0  0  2  0  0  0  0  0  0
  161.0030  213.2310  146.7760 N   0  0  0  0  0  0  0  0  0  0  0  0
  158.1830  213.6590  148.9590 C   0  0  0  0  0  0  0  0  0  0  0  0
  158.7180  213.8230  146.2400 N   0  0  0  0  0  2  0  0  0  0  0  0
  157.3210  213.5800  146.6020 C   0  0  1  0  0  0  0  0  0  0  0  0
  159.5860  212.9980  147.0830 C   0  0  2  0  0  3  0  0  0  0  0  0
  157.0120  212.2370  146.4630 F   0  0  0  0  0  0  0  0  0  0  0  0
  157.0600  214.0290  148.0350 C   0  0  0  0  0  2  0  0  0  0  0  0
  156.4230  214.3760  145.6740 C   0  0  0  0  0  1  0  0  0  0  0  0
  159.3280  213.2490  148.4990 N   0  0  0  0  0  0  0  0  0  0  0  0
  157.9860  213.8070  150.3330 O   0  0  0  0  0  0  0  0  0  0  0  0
  158.6210  212.9650  151.2830 C   0  0  0  0  0  2  0  0  0  0  0  0
  159.5740  211.9230  153.7540 O   0  0  0  0  0  0  0  0  0  0  0  0
  158.4430  212.4710  153.7520 C   0  0  0  0  0  0  0  0  0  0  0  0
  157.9040  213.0230  152.5500 N   0  0  0  0  0  2  0  0  0  0  0  0
  157.6680  212.5670  155.0200 C   0  0  0  0  0  2  0  0  0  0  0  0
  157.6210  211.2120  155.7030 C   0  0  0  0  0  1  0  0  0  0  0  0
  162.8090  213.5060  145.1060 C   0  0  0  0  0  3  0  0  0  0  0  0
  161.4950  213.1280  145.4230 C   0  0  0  0  0  0  0  0  0  0  0  0
  162.4520  212.9030  142.7870 C   0  0  0  0  0  3  0  0  0  0  0  0
  161.1380  212.5230  143.0870 C   0  0  0  0  0  0  0  0  0  0  0  0
  163.2870  213.3930  143.7970 C   0  0  0  0  0  3  0  0  0  0  0  0
  160.6650  212.6420  144.3950 C   0  0  0  0  0  3  0  0  0  0  0  0
  160.2900  212.0260  142.0970 O   0  0  0  0  0  0  0  0  0  0  0  0
  160.5320  210.8420  141.5150 O   0  0  0  0  0  1  0  0  0  0  0  0
  2  4  1  0  0  0  0
  2  1  1  1  0  0  0
  2  3  1  0  0  0  0
  4  5  1  6  0  0  0
  4  3  1  0  0  0  0
  6  5  1  0  0  0  0
  7  6  1  1  0  0  0
  7 11  1  0  0  0  0
  9  8  1  6  0  0  0
  9 10  1  0  0  0  0
  9  7  1  0  0  0  0
 12 11  1  6  0  0  0
 12 16  1  0  0  0  0
 13 14  1  0  0  0  0
 13 12  1  0  0  0  0
 15 13  2  0  0  0  0
 16 23  1  1  0  0  0
 17 20  1  0  0  0  0
 18 22  2  0  0  0  0
 19 17  2  0  0  0  0
 19 18  1  0  0  0  0
 20 21  2  0  0  0  0
 22 21  1  0  0  0  0
 22 16  1  0  0  0  0
 23 24  1  0  0  0  0
 24 26  1  0  0  0  0
 26 25  2  0  0  0  0
 26 29  1  0  0  0  0
 27 30  2  0  0  0  0
 27 28  1  0  0  0  0
 29 27  1  0  0  0  0
 31  1  1  0  0  0  0
 32 31  1  0  0  0  0
 33 34  1  0  0  0  0
 33 32  1  0  0  0  0
 35 34  1  0  0  0  0
 36 44  1  0  0  0  0
 37 38  1  0  0  0  0
 37 39  1  0  0  0  0
 38 42  1  6  0  0  0
 38 41  1  0  0  0  0
 39 35  1  6  0  0  0
 39 43  1  0  0  0  0
 40 38  1  0  0  0  0
 41 36  1  0  0  0  0
 43 36  2  0  0  0  0
 44 45  1  0  0  0  0
 45 48  1  0  0  0  0
 47 46  2  0  0  0  0
 47 49  1  0  0  0  0
 48 47  1  0  0  0  0
 49 50  1  0  0  0  0
 51 52  1  0  0  0  0
 52 35  1  0  0  0  0
 53 54  2  0  0  0  0
 53 55  1  0  0  0  0
 54 56  1  0  0  0  0
 55 51  2  0  0  0  0
 56 52  2  0  0  0  0
 57 54  1  0  0  0  0
 58 57  1  0  0  0  0
M  END
>  <MODEL>
8

>  <REMARK>
 VINA RESULT:      -1.4      4.593      8.327
  Name = 
  26 active torsions:
  status: ('A' for Active; 'I' for Inactive)
    1  A    between atoms: C_2  and  C_15
    2  A    between atoms: C_2  and  C_55
    3  A    between atoms: N_3  and  O_48
    4  A    between atoms: N_3  and  C_56
    5  A    between atoms: C_4  and  O_50
    6  A    between atoms: C_5  and  C_53
    7  A    between atoms: C_7  and  O_8
    8  A    between atoms: C_7  and  C_21
    9  A    between atoms: C_7  and  C_44
   10  A    between atoms: O_8  and  C_55
   11  A    between atoms: C_11  and  N_45
   12  A    between atoms: C_11  and  O_50
   13  A    between atoms: C_14  and  N_28
   14  A    between atoms: C_15  and  C_38
   15  A    between atoms: C_16  and  C_55
   16  A    between atoms: N_17  and  C_20
   17  A    between atoms: N_17  and  C_46
   18  A    between atoms: C_22  and  N_28
   19  A    between atoms: O_24  and  C_35
   20  A    between atoms: N_26  and  N_28
   21  A    between atoms: N_26  and  C_29
   22  A    between atoms: C_29  and  C_47
   23  A    between atoms: N_34  and  C_56
   24  A    between atoms: C_44  and  O_48
   25  A    between atoms: C_44  and  C_52
   26  A    between atoms: C_46  and  C_47
                            x       y       z     vdW  Elec       q    Type
                         _______ _______ _______ _____ _____    ______ ____

>  <TORSDO>
F 26

$$$$
