=
 OpenBabel11072412403D

 31 35  0  0  1  0  0  0  0  0999 V2000
  161.8920  205.5360  151.2660 C   0  0  0  0  0  3  0  0  0  0  0  0
  160.8990  208.7480  153.0470 C   0  0  0  0  0  0  0  0  0  0  0  0
  161.2640  208.3940  155.2250 C   0  0  1  0  0  3  0  0  0  0  0  0
  161.1260  208.1480  150.6640 C   0  0  0  0  0  3  0  0  0  0  0  0
  161.6300  206.4310  152.3090 C   0  0  0  0  0  0  0  0  0  0  0  0
  160.6480  205.9090  154.5650 C   0  0  0  0  0  2  0  0  0  0  0  0
  161.9080  205.9630  153.7060 C   0  0  0  0  0  2  0  0  0  0  0  0
  160.9080  211.0970  153.8520 C   0  0  2  0  0  3  0  0  0  0  0  0
  161.3840  207.2450  149.6320 C   0  0  0  0  0  0  0  0  0  0  0  0
  161.2320  207.7570  152.0050 C   0  0  0  0  0  0  0  0  0  0  0  0
  161.0250  209.5880  156.0000 N   0  0  0  0  0  2  0  0  0  0  0  0
  161.5440  211.8500  156.0510 O   0  0  0  0  0  0  0  0  0  0  0  0
  160.2940  207.2490  155.2120 C   0  0  1  0  0  0  0  0  0  0  0  0
  159.3470  207.2400  156.2350 O   0  0  0  0  0  1  0  0  0  0  0  0
  161.3000  209.9890  152.9380 N   0  0  0  0  0  0  0  0  0  0  0  0
  160.0940  208.3870  154.2380 C   0  0  2  0  0  3  0  0  0  0  0  0
  161.2140  210.8600  155.3470 C   0  0  0  0  0  0  0  0  0  0  0  0
  161.7650  205.9350  149.9340 C   0  0  0  0  0  3  0  0  0  0  0  0
  159.5030  211.5010  153.6440 N   0  0  0  0  0  0  0  0  0  0  0  0
  158.8930  211.6730  154.9590 C   0  0  0  0  0  1  0  0  0  0  0  0
  158.4670  212.8230  151.8560 C   0  0  0  0  0  2  0  0  0  0  0  0
  159.9440  212.7130  151.5720 C   0  0  0  0  0  2  0  0  0  0  0  0
  159.4610  212.8210  153.0080 C   0  0  0  0  0  3  0  0  0  0  0  0
  161.2750  207.6900  148.2140 C   0  0  0  0  0  2  0  0  0  0  0  0
  161.0840  206.4940  147.3020 C   0  0  0  0  0  2  0  0  0  0  0  0
  162.2420  206.3030  146.5450 O   0  0  0  0  0  0  0  0  0  0  0  0
  161.7800  204.0120  146.9990 C   0  0  0  0  0  1  0  0  0  0  0  0
  162.0780  205.0570  145.9370 C   0  0  1  0  0  3  0  0  0  0  0  0
  161.4310  205.7230  143.7160 O   0  0  0  0  0  1  0  0  0  0  0  0
  160.9630  205.1280  144.8910 C   0  0  0  0  0  3  0  0  0  0  0  0
  160.4680  203.8510  144.6110 O   0  0  0  0  0  1  0  0  0  0  0  0
  1  5  1  0  0  0  0
  3 11  1  1  0  0  0
  4 10  1  0  0  0  0
  5  7  1  0  0  0  0
  6 13  1  0  0  0  0
  7  6  1  0  0  0  0
  8 19  1  1  0  0  0
  8 17  1  0  0  0  0
  9 18  1  0  0  0  0
  9  4  2  0  0  0  0
 10  5  2  0  0  0  0
 10  2  1  0  0  0  0
 13  3  1  0  0  0  0
 13 14  1  1  0  0  0
 15  2  2  0  0  0  0
 15  8  1  0  0  0  0
 16  2  1  6  0  0  0
 16 13  1  0  0  0  0
 16  3  1  0  0  0  0
 17 11  1  0  0  0  0
 17 12  2  0  0  0  0
 18  1  2  0  0  0  0
 19 20  1  0  0  0  0
 21 23  1  0  0  0  0
 22 21  1  0  0  0  0
 22 23  1  0  0  0  0
 23 19  1  0  0  0  0
 24  9  1  0  0  0  0
 25 24  1  0  0  0  0
 26 25  1  0  0  0  0
 28 26  1  0  0  0  0
 28 27  1  1  0  0  0
 29 30  1  0  0  0  0
 30 28  1  0  0  0  0
 31 30  1  0  0  0  0
M  END
>  <MODEL>
1

>  <REMARK>
 VINA RESULT:      -7.1      0.000      0.000
  Name = 
  7 active torsions:
  status: ('A' for Active; 'I' for Inactive)
    1  A    between atoms: C_2  and  C_15
    2  A    between atoms: C_2  and  C_17
    3  A    between atoms: C_11  and  C_12
    4  A    between atoms: C_12  and  O_31
    5  A    between atoms: C_15  and  O_31
    6  A    between atoms: C_16  and  N_19
    7  A    between atoms: N_19  and  C_25
                            x       y       z     vdW  Elec       q    Type
                         _______ _______ _______ _____ _____    ______ ____

>  <TORSDO>
F 7

$$$$
=
 OpenBabel11072412403D

 31 35  0  0  1  0  0  0  0  0999 V2000
  162.2440  206.6560  150.9750 C   0  0  0  0  0  3  0  0  0  0  0  0
  161.1940  209.3160  153.4850 C   0  0  0  0  0  0  0  0  0  0  0  0
  161.3620  208.3710  155.5050 C   0  0  1  0  0  3  0  0  0  0  0  0
  161.6070  209.3690  151.0530 C   0  0  0  0  0  3  0  0  0  0  0  0
  161.9190  207.2490  152.2010 C   0  0  0  0  0  0  0  0  0  0  0  0
  160.7340  206.1900  154.1500 C   0  0  0  0  0  2  0  0  0  0  0  0
  162.0630  206.4090  153.4340 C   0  0  0  0  0  2  0  0  0  0  0  0
  161.2010  211.3580  154.8980 C   0  0  2  0  0  3  0  0  0  0  0  0
  161.9260  208.7650  149.8350 C   0  0  0  0  0  0  0  0  0  0  0  0
  161.5870  208.6270  152.2410 C   0  0  0  0  0  0  0  0  0  0  0  0
  161.0920  209.3230  156.5560 N   0  0  0  0  0  2  0  0  0  0  0  0
  161.6690  211.4590  157.2600 O   0  0  0  0  0  0  0  0  0  0  0  0
  160.3640  207.3220  155.1090 C   0  0  1  0  0  0  0  0  0  0  0  0
  159.3340  207.0860  156.0170 O   0  0  0  0  0  1  0  0  0  0  0  0
  161.6380  210.5190  153.7490 N   0  0  0  0  0  0  0  0  0  0  0  0
  160.2800  208.6890  154.4700 C   0  0  2  0  0  3  0  0  0  0  0  0
  161.3720  210.7120  156.2910 C   0  0  0  0  0  0  0  0  0  0  0  0
  162.2420  207.4050  149.7970 C   0  0  0  0  0  3  0  0  0  0  0  0
  159.8320  211.8740  154.7040 N   0  0  0  0  0  0  0  0  0  0  0  0
  159.6100  212.9210  155.6960 C   0  0  0  0  0  1  0  0  0  0  0  0
  158.3030  212.9730  153.1310 C   0  0  0  0  0  2  0  0  0  0  0  0
  158.8380  211.7220  152.4810 C   0  0  0  0  0  2  0  0  0  0  0  0
  159.7360  212.5330  153.3990 C   0  0  0  0  0  3  0  0  0  0  0  0
  161.9510  209.5810  148.5890 C   0  0  0  0  0  2  0  0  0  0  0  0
  161.9210  211.0580  148.9280 C   0  0  0  0  0  2  0  0  0  0  0  0
  161.9680  211.8030  147.7480 O   0  0  0  0  0  0  0  0  0  0  0  0
  160.8540  213.0640  149.4320 C   0  0  0  0  0  1  0  0  0  0  0  0
  161.0680  212.8520  147.9420 C   0  0  1  0  0  3  0  0  0  0  0  0
  162.8560  214.4530  147.7580 O   0  0  0  0  0  1  0  0  0  0  0  0
  161.5910  214.1210  147.2650 C   0  0  0  0  0  3  0  0  0  0  0  0
  161.6520  213.9510  145.8800 O   0  0  0  0  0  1  0  0  0  0  0  0
  1  5  1  0  0  0  0
  2 15  2  0  0  0  0
  3 11  1  1  0  0  0
  4 10  1  0  0  0  0
  5 10  2  0  0  0  0
  5  7  1  0  0  0  0
  6 13  1  0  0  0  0
  7  6  1  0  0  0  0
  8 19  1  6  0  0  0
  8 17  1  0  0  0  0
  9  4  2  0  0  0  0
 10  2  1  0  0  0  0
 13  3  1  0  0  0  0
 13 14  1  1  0  0  0
 15  8  1  0  0  0  0
 16  2  1  6  0  0  0
 16 13  1  0  0  0  0
 16  3  1  0  0  0  0
 17 11  1  0  0  0  0
 17 12  2  0  0  0  0
 18  9  1  0  0  0  0
 18  1  2  0  0  0  0
 19 20  1  0  0  0  0
 21 23  1  0  0  0  0
 22 21  1  0  0  0  0
 22 23  1  0  0  0  0
 23 19  1  0  0  0  0
 24 25  1  0  0  0  0
 24  9  1  0  0  0  0
 26 28  1  0  0  0  0
 26 25  1  0  0  0  0
 28 27  1  1  0  0  0
 30 29  1  0  0  0  0
 30 28  1  0  0  0  0
 31 30  1  0  0  0  0
M  END
>  <MODEL>
2

>  <REMARK>
 VINA RESULT:      -6.7      2.929      4.123
  Name = 
  7 active torsions:
  status: ('A' for Active; 'I' for Inactive)
    1  A    between atoms: C_2  and  C_15
    2  A    between atoms: C_2  and  C_17
    3  A    between atoms: C_11  and  C_12
    4  A    between atoms: C_12  and  O_31
    5  A    between atoms: C_15  and  O_31
    6  A    between atoms: C_16  and  N_19
    7  A    between atoms: N_19  and  C_25
                            x       y       z     vdW  Elec       q    Type
                         _______ _______ _______ _____ _____    ______ ____

>  <TORSDO>
F 7

$$$$
=
 OpenBabel11072412403D

 31 35  0  0  1  0  0  0  0  0999 V2000
  161.2950  205.5600  149.4100 C   0  0  0  0  0  3  0  0  0  0  0  0
  161.1370  207.6320  152.5960 C   0  0  0  0  0  0  0  0  0  0  0  0
  160.8150  209.7490  151.9500 C   0  0  1  0  0  3  0  0  0  0  0  0
  161.2110  205.2030  152.1740 C   0  0  0  0  0  3  0  0  0  0  0  0
  161.2140  206.6810  150.2440 C   0  0  0  0  0  0  0  0  0  0  0  0
  162.2180  208.9540  149.8560 C   0  0  0  0  0  2  0  0  0  0  0  0
  161.0430  208.0180  149.5880 C   0  0  0  0  0  2  0  0  0  0  0  0
  160.3460  208.6040  154.7400 C   0  0  2  0  0  3  0  0  0  0  0  0
  161.2970  204.0920  151.3320 C   0  0  0  0  0  0  0  0  0  0  0  0
  161.1800  206.5010  151.6500 C   0  0  0  0  0  0  0  0  0  0  0  0
  160.6280  210.6230  153.0840 N   0  0  0  0  0  2  0  0  0  0  0  0
  159.4130  210.8030  155.0530 O   0  0  0  0  0  0  0  0  0  0  0  0
  162.0990  209.7190  151.1750 C   0  0  1  0  0  0  0  0  0  0  0  0
  162.9570  210.8000  151.3720 O   0  0  0  0  0  1  0  0  0  0  0  0
  160.3660  207.5880  153.6530 N   0  0  0  0  0  0  0  0  0  0  0  0
  161.9650  208.8460  152.4010 C   0  0  2  0  0  3  0  0  0  0  0  0
  160.0700  210.0540  154.2850 C   0  0  0  0  0  0  0  0  0  0  0  0
  161.3420  204.2720  149.9470 C   0  0  0  0  0  3  0  0  0  0  0  0
  161.5550  208.5210  155.5830 N   0  0  0  0  0  0  0  0  0  0  0  0
  162.1840  209.8390  155.5850 C   0  0  0  0  0  1  0  0  0  0  0  0
  161.2050  206.7660  157.2610 C   0  0  0  0  0  2  0  0  0  0  0  0
  159.8860  207.4490  157.0020 C   0  0  0  0  0  2  0  0  0  0  0  0
  161.1690  208.2600  156.9720 C   0  0  0  0  0  3  0  0  0  0  0  0
  161.3160  202.7210  151.9150 C   0  0  0  0  0  2  0  0  0  0  0  0
  160.5590  201.7600  151.0200 C   0  0  0  0  0  2  0  0  0  0  0  0
  161.4660  201.0800  150.2030 O   0  0  0  0  0  0  0  0  0  0  0  0
  159.3920  201.4180  149.0830 C   0  0  0  0  0  1  0  0  0  0  0  0
  160.7290  200.6950  149.0820 C   0  0  1  0  0  3  0  0  0  0  0  0
  161.5190  199.8750  146.9620 O   0  0  0  0  0  1  0  0  0  0  0  0
  161.5230  200.9880  147.8080 C   0  0  0  0  0  3  0  0  0  0  0  0
  160.9920  202.0930  147.1380 O   0  0  0  0  0  1  0  0  0  0  0  0
  1 18  2  0  0  0  0
  1  5  1  0  0  0  0
  2 15  2  0  0  0  0
  3 16  1  0  0  0  0
  3 11  1  1  0  0  0
  5 10  2  0  0  0  0
  6 13  1  0  0  0  0
  7  6  1  0  0  0  0
  7  5  1  0  0  0  0
  8 19  1  6  0  0  0
  9 24  1  0  0  0  0
  9  4  2  0  0  0  0
 10  4  1  0  0  0  0
 10  2  1  0  0  0  0
 11 17  1  0  0  0  0
 13 14  1  1  0  0  0
 13  3  1  0  0  0  0
 13 16  1  0  0  0  0
 15  8  1  0  0  0  0
 16  2  1  6  0  0  0
 17  8  1  0  0  0  0
 17 12  2  0  0  0  0
 18  9  1  0  0  0  0
 19 20  1  0  0  0  0
 19 23  1  0  0  0  0
 22 21  1  0  0  0  0
 23 22  1  0  0  0  0
 23 21  1  0  0  0  0
 25 24  1  0  0  0  0
 26 25  1  0  0  0  0
 28 27  1  6  0  0  0
 28 26  1  0  0  0  0
 29 30  1  0  0  0  0
 30 28  1  0  0  0  0
 31 30  1  0  0  0  0
M  END
>  <MODEL>
3

>  <REMARK>
 VINA RESULT:      -6.3      2.647      4.644
  Name = 
  7 active torsions:
  status: ('A' for Active; 'I' for Inactive)
    1  A    between atoms: C_2  and  C_15
    2  A    between atoms: C_2  and  C_17
    3  A    between atoms: C_11  and  C_12
    4  A    between atoms: C_12  and  O_31
    5  A    between atoms: C_15  and  O_31
    6  A    between atoms: C_16  and  N_19
    7  A    between atoms: N_19  and  C_25
                            x       y       z     vdW  Elec       q    Type
                         _______ _______ _______ _____ _____    ______ ____

>  <TORSDO>
F 7

$$$$
=
 OpenBabel11072412403D

 31 35  0  0  1  0  0  0  0  0999 V2000
  162.3660  208.0610  149.4820 C   0  0  0  0  0  3  0  0  0  0  0  0
  161.5370  209.5270  152.8940 C   0  0  0  0  0  0  0  0  0  0  0  0
  161.8270  207.8740  154.3720 C   0  0  1  0  0  3  0  0  0  0  0  0
  161.7820  210.5240  150.6500 C   0  0  0  0  0  3  0  0  0  0  0  0
  162.1360  208.1290  150.8610 C   0  0  0  0  0  0  0  0  0  0  0  0
  161.0700  206.3830  152.3240 C   0  0  0  0  0  2  0  0  0  0  0  0
  162.3510  206.8770  151.6590 C   0  0  0  0  0  2  0  0  0  0  0  0
  161.6760  210.8600  154.9840 C   0  0  2  0  0  3  0  0  0  0  0  0
  162.0070  210.4440  149.2750 C   0  0  0  0  0  0  0  0  0  0  0  0
  161.8310  209.3790  151.4550 C   0  0  0  0  0  0  0  0  0  0  0  0
  161.6460  208.3400  155.7260 N   0  0  0  0  0  2  0  0  0  0  0  0
  162.3070  210.0420  157.1610 O   0  0  0  0  0  0  0  0  0  0  0  0
  160.7870  207.0500  153.6710 C   0  0  1  0  0  0  0  0  0  0  0  0
  159.8170  206.4690  154.4860 O   0  0  0  0  0  1  0  0  0  0  0  0
  162.0190  210.5380  153.5720 N   0  0  0  0  0  0  0  0  0  0  0  0
  160.6820  208.5570  153.6200 C   0  0  2  0  0  3  0  0  0  0  0  0
  161.9320  209.7260  156.0010 C   0  0  0  0  0  0  0  0  0  0  0  0
  162.2960  209.2080  148.6900 C   0  0  0  0  0  3  0  0  0  0  0  0
  160.3060  211.3960  155.1020 N   0  0  0  0  0  0  0  0  0  0  0  0
  160.2920  212.3310  156.2230 C   0  0  0  0  0  1  0  0  0  0  0  0
  158.6310  212.8650  154.0750 C   0  0  0  0  0  2  0  0  0  0  0  0
  158.7560  211.6220  153.2310 C   0  0  0  0  0  2  0  0  0  0  0  0
  159.9870  212.1930  153.9140 C   0  0  0  0  0  3  0  0  0  0  0  0
  161.9600  211.6800  148.4430 C   0  0  0  0  0  2  0  0  0  0  0  0
  160.7130  211.6850  147.5830 C   0  0  0  0  0  2  0  0  0  0  0  0
  159.8840  212.7370  147.9800 O   0  0  0  0  0  0  0  0  0  0  0  0
  159.7050  212.3070  145.6450 C   0  0  0  0  0  1  0  0  0  0  0  0
  159.2960  213.2020  146.8030 C   0  0  1  0  0  3  0  0  0  0  0  0
  157.1770  212.1850  146.2850 O   0  0  0  0  0  1  0  0  0  0  0  0
  157.7750  213.2520  146.9620 C   0  0  0  0  0  3  0  0  0  0  0  0
  157.4190  213.2150  148.3120 O   0  0  0  0  0  1  0  0  0  0  0  0
  1  5  1  0  0  0  0
  2 15  2  0  0  0  0
  3 11  1  1  0  0  0
  4 10  1  0  0  0  0
  5 10  2  0  0  0  0
  5  7  1  0  0  0  0
  6 13  1  0  0  0  0
  7  6  1  0  0  0  0
  8 19  1  6  0  0  0
  8 17  1  0  0  0  0
  9  4  2  0  0  0  0
 10  2  1  0  0  0  0
 11 17  1  0  0  0  0
 13  3  1  0  0  0  0
 13 14  1  1  0  0  0
 15  8  1  0  0  0  0
 16  2  1  6  0  0  0
 16 13  1  0  0  0  0
 16  3  1  0  0  0  0
 17 12  2  0  0  0  0
 18  9  1  0  0  0  0
 18  1  2  0  0  0  0
 19 20  1  0  0  0  0
 22 23  1  0  0  0  0
 22 21  1  0  0  0  0
 23 21  1  0  0  0  0
 23 19  1  0  0  0  0
 24  9  1  0  0  0  0
 25 26  1  0  0  0  0
 25 24  1  0  0  0  0
 28 27  1  6  0  0  0
 28 30  1  0  0  0  0
 28 26  1  0  0  0  0
 29 30  1  0  0  0  0
 30 31  1  0  0  0  0
M  END
>  <MODEL>
4

>  <REMARK>
 VINA RESULT:      -5.4      3.358      4.396
  Name = 
  7 active torsions:
  status: ('A' for Active; 'I' for Inactive)
    1  A    between atoms: C_2  and  C_15
    2  A    between atoms: C_2  and  C_17
    3  A    between atoms: C_11  and  C_12
    4  A    between atoms: C_12  and  O_31
    5  A    between atoms: C_15  and  O_31
    6  A    between atoms: C_16  and  N_19
    7  A    between atoms: N_19  and  C_25
                            x       y       z     vdW  Elec       q    Type
                         _______ _______ _______ _____ _____    ______ ____

>  <TORSDO>
F 7

$$$$
=
 OpenBabel11072412403D

 31 35  0  0  1  0  0  0  0  0999 V2000
  161.4560  208.7910  151.8720 C   0  0  0  0  0  3  0  0  0  0  0  0
  161.2960  205.6380  149.7490 C   0  0  0  0  0  0  0  0  0  0  0  0
  160.5750  204.0090  151.1010 C   0  0  1  0  0  3  0  0  0  0  0  0
  161.7150  208.0090  149.2080 C   0  0  0  0  0  3  0  0  0  0  0  0
  161.2830  207.4440  151.5330 C   0  0  0  0  0  0  0  0  0  0  0  0
  161.8640  205.4290  152.9210 C   0  0  0  0  0  2  0  0  0  0  0  0
  160.8340  206.5120  152.6180 C   0  0  0  0  0  2  0  0  0  0  0  0
  160.5840  203.9730  148.0490 C   0  0  2  0  0  3  0  0  0  0  0  0
  161.8910  209.3490  149.5590 C   0  0  0  0  0  0  0  0  0  0  0  0
  161.4230  207.0430  150.1800 C   0  0  0  0  0  0  0  0  0  0  0  0
  160.3680  202.7770  150.3780 N   0  0  0  0  0  2  0  0  0  0  0  0
  159.3480  201.9470  148.4650 O   0  0  0  0  0  0  0  0  0  0  0  0
  161.7610  204.2140  151.9980 C   0  0  1  0  0  0  0  0  0  0  0  0
  162.4500  203.0610  152.3710 O   0  0  0  0  0  1  0  0  0  0  0  0
  160.6550  205.3340  148.6490 N   0  0  0  0  0  0  0  0  0  0  0  0
  161.8950  204.5260  150.5250 C   0  0  2  0  0  3  0  0  0  0  0  0
  160.0340  202.8690  148.9790 C   0  0  0  0  0  0  0  0  0  0  0  0
  161.7640  209.7390  150.8940 C   0  0  0  0  0  3  0  0  0  0  0  0
  161.8720  203.5800  147.4420 N   0  0  0  0  0  0  0  0  0  0  0  0
  161.8590  202.1290  147.2810 C   0  0  0  0  0  1  0  0  0  0  0  0
  163.3590  204.6880  145.8370 C   0  0  0  0  0  2  0  0  0  0  0  0
  162.2240  205.6270  146.1610 C   0  0  0  0  0  2  0  0  0  0  0  0
  161.9640  204.1320  146.0880 C   0  0  0  0  0  3  0  0  0  0  0  0
  162.1890  210.3570  148.5030 C   0  0  0  0  0  2  0  0  0  0  0  0
  161.8630  211.7500  149.0020 C   0  0  0  0  0  2  0  0  0  0  0  0
  162.0590  212.6680  147.9680 O   0  0  0  0  0  0  0  0  0  0  0  0
  159.7620  213.2920  147.9320 C   0  0  0  0  0  1  0  0  0  0  0  0
  160.8990  212.6020  147.1960 C   0  0  1  0  0  3  0  0  0  0  0  0
  162.5150  213.2840  145.5480 O   0  0  0  0  0  1  0  0  0  0  0  0
  161.1460  213.2350  145.8250 C   0  0  0  0  0  3  0  0  0  0  0  0
  160.4860  212.5180  144.8240 O   0  0  0  0  0  1  0  0  0  0  0  0
  2 10  1  0  0  0  0
  3 11  1  6  0  0  0
  3 13  1  0  0  0  0
  4  9  2  0  0  0  0
  4 10  1  0  0  0  0
  5  1  1  0  0  0  0
  5  7  1  0  0  0  0
  7  6  1  0  0  0  0
  8 19  1  1  0  0  0
  8 15  1  0  0  0  0
  8 17  1  0  0  0  0
  9 18  1  0  0  0  0
 10  5  2  0  0  0  0
 12 17  2  0  0  0  0
 13 14  1  1  0  0  0
 13  6  1  0  0  0  0
 15  2  2  0  0  0  0
 16  2  1  1  0  0  0
 16  3  1  0  0  0  0
 16 13  1  0  0  0  0
 17 11  1  0  0  0  0
 18  1  2  0  0  0  0
 20 19  1  0  0  0  0
 21 23  1  0  0  0  0
 21 22  1  0  0  0  0
 23 22  1  0  0  0  0
 23 19  1  0  0  0  0
 24 25  1  0  0  0  0
 24  9  1  0  0  0  0
 26 25  1  0  0  0  0
 28 27  1  1  0  0  0
 28 26  1  0  0  0  0
 29 30  1  0  0  0  0
 30 28  1  0  0  0  0
 31 30  1  0  0  0  0
M  END
>  <MODEL>
5

>  <REMARK>
 VINA RESULT:      -5.3      4.099      7.431
  Name = 
  7 active torsions:
  status: ('A' for Active; 'I' for Inactive)
    1  A    between atoms: C_2  and  C_15
    2  A    between atoms: C_2  and  C_17
    3  A    between atoms: C_11  and  C_12
    4  A    between atoms: C_12  and  O_31
    5  A    between atoms: C_15  and  O_31
    6  A    between atoms: C_16  and  N_19
    7  A    between atoms: N_19  and  C_25
                            x       y       z     vdW  Elec       q    Type
                         _______ _______ _______ _____ _____    ______ ____

>  <TORSDO>
F 7

$$$$
=
 OpenBabel11072412403D

 31 35  0  0  1  0  0  0  0  0999 V2000
  162.3750  207.9590  149.4380 C   0  0  0  0  0  3  0  0  0  0  0  0
  161.5580  209.4320  152.8490 C   0  0  0  0  0  0  0  0  0  0  0  0
  161.8270  207.7750  154.3270 C   0  0  1  0  0  3  0  0  0  0  0  0
  161.8180  210.4280  150.6070 C   0  0  0  0  0  3  0  0  0  0  0  0
  162.1450  208.0290  150.8170 C   0  0  0  0  0  0  0  0  0  0  0  0
  161.0570  206.2940  152.2770 C   0  0  0  0  0  2  0  0  0  0  0  0
  162.3440  206.7740  151.6140 C   0  0  0  0  0  2  0  0  0  0  0  0
  161.7100  210.7620  154.9410 C   0  0  2  0  0  3  0  0  0  0  0  0
  162.0440  210.3460  149.2320 C   0  0  0  0  0  0  0  0  0  0  0  0
  161.8530  209.2820  151.4110 C   0  0  0  0  0  0  0  0  0  0  0  0
  161.6500  208.2420  155.6810 N   0  0  0  0  0  2  0  0  0  0  0  0
  162.3280  209.9350  157.1180 O   0  0  0  0  0  0  0  0  0  0  0  0
  160.7790  206.9630  153.6240 C   0  0  1  0  0  0  0  0  0  0  0  0
  159.8020  206.3920  154.4380 O   0  0  0  0  0  1  0  0  0  0  0  0
  162.0500  210.4360  153.5290 N   0  0  0  0  0  0  0  0  0  0  0  0
  160.6920  208.4710  153.5740 C   0  0  2  0  0  3  0  0  0  0  0  0
  161.9510  209.6250  155.9570 C   0  0  0  0  0  0  0  0  0  0  0  0
  162.3200  209.1080  148.6460 C   0  0  0  0  0  3  0  0  0  0  0  0
  160.3450  211.3130  155.0570 N   0  0  0  0  0  0  0  0  0  0  0  0
  160.3250  212.2020  156.2150 C   0  0  0  0  0  1  0  0  0  0  0  0
  158.7170  212.8600  154.0700 C   0  0  0  0  0  2  0  0  0  0  0  0
  158.8210  211.6470  153.1810 C   0  0  0  0  0  2  0  0  0  0  0  0
  160.0580  212.1610  153.8970 C   0  0  0  0  0  3  0  0  0  0  0  0
  162.0120  211.5820  148.4010 C   0  0  0  0  0  2  0  0  0  0  0  0
  160.5880  211.9040  147.9950 C   0  0  0  0  0  2  0  0  0  0  0  0
  160.3200  213.2450  148.2770 O   0  0  0  0  0  0  0  0  0  0  0  0
  160.0950  214.0160  150.5190 C   0  0  0  0  0  1  0  0  0  0  0  0
  159.4700  213.2220  149.3840 C   0  0  1  0  0  3  0  0  0  0  0  0
  157.5870  213.1010  147.8890 O   0  0  0  0  0  1  0  0  0  0  0  0
  158.0960  213.7780  149.0010 C   0  0  0  0  0  3  0  0  0  0  0  0
  157.2040  213.6690  150.0710 O   0  0  0  0  0  1  0  0  0  0  0  0
  1  5  1  0  0  0  0
  2 15  2  0  0  0  0
  3 11  1  1  0  0  0
  4 10  1  0  0  0  0
  5 10  2  0  0  0  0
  5  7  1  0  0  0  0
  6 13  1  0  0  0  0
  7  6  1  0  0  0  0
  8 19  1  6  0  0  0
  8 17  1  0  0  0  0
  9  4  2  0  0  0  0
 10  2  1  0  0  0  0
 11 17  1  0  0  0  0
 13  3  1  0  0  0  0
 13 14  1  1  0  0  0
 15  8  1  0  0  0  0
 16  2  1  6  0  0  0
 16 13  1  0  0  0  0
 16  3  1  0  0  0  0
 17 12  2  0  0  0  0
 18  9  1  0  0  0  0
 18  1  2  0  0  0  0
 19 20  1  0  0  0  0
 22 23  1  0  0  0  0
 22 21  1  0  0  0  0
 23 21  1  0  0  0  0
 23 19  1  0  0  0  0
 24  9  1  0  0  0  0
 25 26  1  0  0  0  0
 25 24  1  0  0  0  0
 26 28  1  0  0  0  0
 28 27  1  1  0  0  0
 29 30  1  0  0  0  0
 30 28  1  0  0  0  0
 30 31  1  0  0  0  0
M  END
>  <MODEL>
6

>  <REMARK>
 VINA RESULT:      -5.2      3.447      4.828
  Name = 
  7 active torsions:
  status: ('A' for Active; 'I' for Inactive)
    1  A    between atoms: C_2  and  C_15
    2  A    between atoms: C_2  and  C_17
    3  A    between atoms: C_11  and  C_12
    4  A    between atoms: C_12  and  O_31
    5  A    between atoms: C_15  and  O_31
    6  A    between atoms: C_16  and  N_19
    7  A    between atoms: N_19  and  C_25
                            x       y       z     vdW  Elec       q    Type
                         _______ _______ _______ _____ _____    ______ ____

>  <TORSDO>
F 7

$$$$
=
 OpenBabel11072412403D

 31 35  0  0  1  0  0  0  0  0999 V2000
  160.5030  202.9620  152.2840 C   0  0  0  0  0  3  0  0  0  0  0  0
  161.1020  203.5860  148.5780 C   0  0  0  0  0  0  0  0  0  0  0  0
  160.4010  201.7490  147.5130 C   0  0  1  0  0  3  0  0  0  0  0  0
  161.2790  205.0240  150.5760 C   0  0  0  0  0  3  0  0  0  0  0  0
  160.5670  202.7240  150.9060 C   0  0  0  0  0  0  0  0  0  0  0  0
  161.1860  200.5780  149.7490 C   0  0  0  0  0  2  0  0  0  0  0  0
  160.0810  201.3940  150.4110 C   0  0  0  0  0  2  0  0  0  0  0  0
  160.8950  204.4960  146.2770 C   0  0  2  0  0  3  0  0  0  0  0  0
  161.2170  205.2490  151.9520 C   0  0  0  0  0  0  0  0  0  0  0  0
  160.9700  203.7690  150.0370 C   0  0  0  0  0  0  0  0  0  0  0  0
  160.4770  201.9100  146.0810 N   0  0  0  0  0  2  0  0  0  0  0  0
  159.8910  203.3870  144.3880 O   0  0  0  0  0  0  0  0  0  0  0  0
  161.3930  200.9180  148.2720 C   0  0  1  0  0  0  0  0  0  0  0  0
  162.1620  200.0390  147.5110 O   0  0  0  0  0  1  0  0  0  0  0  0
  160.6880  204.5120  147.7510 N   0  0  0  0  0  0  0  0  0  0  0  0
  161.7150  202.3680  147.9960 C   0  0  2  0  0  3  0  0  0  0  0  0
  160.3590  203.2440  145.5480 C   0  0  0  0  0  0  0  0  0  0  0  0
  160.8310  204.2130  152.8080 C   0  0  0  0  0  3  0  0  0  0  0  0
  162.3030  204.7680  145.9240 N   0  0  0  0  0  0  0  0  0  0  0  0
  162.4760  204.4370  144.5120 C   0  0  0  0  0  1  0  0  0  0  0  0
  162.7060  206.6080  147.4940 C   0  0  0  0  0  2  0  0  0  0  0  0
  161.4190  206.8830  146.7580 C   0  0  0  0  0  2  0  0  0  0  0  0
  162.5680  206.2050  146.0330 C   0  0  0  0  0  3  0  0  0  0  0  0
  161.5410  206.5970  152.4980 C   0  0  0  0  0  2  0  0  0  0  0  0
  162.1100  207.4810  151.4070 C   0  0  0  0  0  2  0  0  0  0  0  0
  161.2140  208.5190  151.1400 O   0  0  0  0  0  0  0  0  0  0  0  0
  162.0710  210.5010  150.1380 C   0  0  0  0  0  1  0  0  0  0  0  0
  161.9200  209.6910  151.4150 C   0  0  1  0  0  3  0  0  0  0  0  0
  159.9370  209.9530  152.7530 O   0  0  0  0  0  1  0  0  0  0  0  0
  161.2040  210.4900  152.5050 C   0  0  0  0  0  3  0  0  0  0  0  0
  161.9530  210.4990  153.6840 O   0  0  0  0  0  1  0  0  0  0  0  0
  1 18  1  0  0  0  0
  2 10  1  0  0  0  0
  3 11  1  6  0  0  0
  3 16  1  0  0  0  0
  3 13  1  0  0  0  0
  4  9  1  0  0  0  0
  5  1  2  0  0  0  0
  6  7  1  0  0  0  0
  7  5  1  0  0  0  0
  8 19  1  1  0  0  0
  8 15  1  0  0  0  0
  9 24  1  0  0  0  0
  9 18  2  0  0  0  0
 10  4  2  0  0  0  0
 10  5  1  0  0  0  0
 12 17  2  0  0  0  0
 13 14  1  6  0  0  0
 13  6  1  0  0  0  0
 15  2  2  0  0  0  0
 16 13  1  0  0  0  0
 16  2  1  1  0  0  0
 17 11  1  0  0  0  0
 17  8  1  0  0  0  0
 19 23  1  0  0  0  0
 20 19  1  0  0  0  0
 22 21  1  0  0  0  0
 23 22  1  0  0  0  0
 23 21  1  0  0  0  0
 25 24  1  0  0  0  0
 26 25  1  0  0  0  0
 26 28  1  0  0  0  0
 28 27  1  6  0  0  0
 28 30  1  0  0  0  0
 30 29  1  0  0  0  0
 30 31  1  0  0  0  0
M  END
>  <MODEL>
7

>  <REMARK>
 VINA RESULT:      -5.2      3.815      8.633
  Name = 
  7 active torsions:
  status: ('A' for Active; 'I' for Inactive)
    1  A    between atoms: C_2  and  C_15
    2  A    between atoms: C_2  and  C_17
    3  A    between atoms: C_11  and  C_12
    4  A    between atoms: C_12  and  O_31
    5  A    between atoms: C_15  and  O_31
    6  A    between atoms: C_16  and  N_19
    7  A    between atoms: N_19  and  C_25
                            x       y       z     vdW  Elec       q    Type
                         _______ _______ _______ _____ _____    ______ ____

>  <TORSDO>
F 7

$$$$
=
 OpenBabel11072412403D

 31 35  0  0  1  0  0  0  0  0999 V2000
  160.5780  203.2610  152.3930 C   0  0  0  0  0  3  0  0  0  0  0  0
  161.0910  203.7080  148.6500 C   0  0  0  0  0  0  0  0  0  0  0  0
  160.3780  201.8180  147.6910 C   0  0  1  0  0  3  0  0  0  0  0  0
  161.3030  205.2420  150.5710 C   0  0  0  0  0  3  0  0  0  0  0  0
  160.6130  202.9570  151.0270 C   0  0  0  0  0  0  0  0  0  0  0  0
  161.2210  200.7610  149.9630 C   0  0  0  0  0  2  0  0  0  0  0  0
  160.1250  201.6020  150.6090 C   0  0  0  0  0  2  0  0  0  0  0  0
  160.8280  204.5030  146.3120 C   0  0  2  0  0  3  0  0  0  0  0  0
  161.2700  205.5320  151.9360 C   0  0  0  0  0  0  0  0  0  0  0  0
  160.9900  203.9610  150.1000 C   0  0  0  0  0  0  0  0  0  0  0  0
  160.4220  201.9090  146.2510 N   0  0  0  0  0  2  0  0  0  0  0  0
  159.7890  203.2990  144.5020 O   0  0  0  0  0  0  0  0  0  0  0  0
  161.3920  201.0290  148.4660 C   0  0  1  0  0  0  0  0  0  0  0  0
  162.1500  200.1190  147.7320 O   0  0  0  0  0  1  0  0  0  0  0  0
  160.6530  204.5900  147.7880 N   0  0  0  0  0  0  0  0  0  0  0  0
  161.6980  202.4660  148.1140 C   0  0  2  0  0  3  0  0  0  0  0  0
  160.2830  203.2150  145.6580 C   0  0  0  0  0  0  0  0  0  0  0  0
  160.9100  204.5380  152.8490 C   0  0  0  0  0  3  0  0  0  0  0  0
  162.2260  204.7650  145.9150 N   0  0  0  0  0  0  0  0  0  0  0  0
  162.3580  204.4090  144.5050 C   0  0  0  0  0  1  0  0  0  0  0  0
  162.7040  206.6270  147.4390 C   0  0  0  0  0  2  0  0  0  0  0  0
  161.3840  206.8930  146.7610 C   0  0  0  0  0  2  0  0  0  0  0  0
  162.4960  206.2030  145.9910 C   0  0  0  0  0  3  0  0  0  0  0  0
  161.5970  206.9070  152.4080 C   0  0  0  0  0  2  0  0  0  0  0  0
  160.8310  207.2210  153.6780 C   0  0  0  0  0  2  0  0  0  0  0  0
  161.0950  208.5370  154.0620 O   0  0  0  0  0  0  0  0  0  0  0  0
  160.0830  207.3140  155.8370 C   0  0  0  0  0  1  0  0  0  0  0  0
  160.4880  208.6810  155.3110 C   0  0  1  0  0  3  0  0  0  0  0  0
  162.2930  208.4720  156.8900 O   0  0  0  0  0  1  0  0  0  0  0  0
  161.4390  209.3930  156.2760 C   0  0  0  0  0  3  0  0  0  0  0  0
  162.1910  210.3600  155.6040 O   0  0  0  0  0  1  0  0  0  0  0  0
  1 18  1  0  0  0  0
  2 10  1  0  0  0  0
  3 11  1  6  0  0  0
  3 16  1  0  0  0  0
  3 13  1  0  0  0  0
  4  9  1  0  0  0  0
  5  1  2  0  0  0  0
  6  7  1  0  0  0  0
  7  5  1  0  0  0  0
  8 19  1  1  0  0  0
  8 15  1  0  0  0  0
  9 24  1  0  0  0  0
  9 18  2  0  0  0  0
 10  4  2  0  0  0  0
 10  5  1  0  0  0  0
 12 17  2  0  0  0  0
 13 14  1  6  0  0  0
 13  6  1  0  0  0  0
 15  2  2  0  0  0  0
 16 13  1  0  0  0  0
 16  2  1  1  0  0  0
 17 11  1  0  0  0  0
 17  8  1  0  0  0  0
 19 23  1  0  0  0  0
 20 19  1  0  0  0  0
 22 21  1  0  0  0  0
 23 22  1  0  0  0  0
 23 21  1  0  0  0  0
 24 25  1  0  0  0  0
 25 26  1  0  0  0  0
 26 28  1  0  0  0  0
 28 27  1  1  0  0  0
 28 30  1  0  0  0  0
 30 29  1  0  0  0  0
 31 30  1  0  0  0  0
M  END
>  <MODEL>
8

>  <REMARK>
 VINA RESULT:      -5.1      3.662      9.153
  Name = 
  7 active torsions:
  status: ('A' for Active; 'I' for Inactive)
    1  A    between atoms: C_2  and  C_15
    2  A    between atoms: C_2  and  C_17
    3  A    between atoms: C_11  and  C_12
    4  A    between atoms: C_12  and  O_31
    5  A    between atoms: C_15  and  O_31
    6  A    between atoms: C_16  and  N_19
    7  A    between atoms: N_19  and  C_25
                            x       y       z     vdW  Elec       q    Type
                         _______ _______ _______ _____ _____    ______ ____

>  <TORSDO>
F 7

$$$$
=
 OpenBabel11072412403D

 31 35  0  0  1  0  0  0  0  0999 V2000
  161.9360  206.5990  153.1350 C   0  0  0  0  0  3  0  0  0  0  0  0
  160.2780  210.0060  153.4820 C   0  0  0  0  0  0  0  0  0  0  0  0
  159.9290  210.3110  155.6700 C   0  0  1  0  0  3  0  0  0  0  0  0
  161.2950  208.8180  151.5740 C   0  0  0  0  0  3  0  0  0  0  0  0
  161.3090  207.6990  153.7320 C   0  0  0  0  0  0  0  0  0  0  0  0
  159.6700  207.6810  155.6390 C   0  0  0  0  0  2  0  0  0  0  0  0
  161.1370  207.6720  155.2210 C   0  0  0  0  0  2  0  0  0  0  0  0
  159.9220  212.4630  153.5060 C   0  0  2  0  0  3  0  0  0  0  0  0
  161.9140  207.7120  150.9880 C   0  0  0  0  0  0  0  0  0  0  0  0
  160.9750  208.8250  152.9370 C   0  0  0  0  0  0  0  0  0  0  0  0
  159.3990  211.6260  155.9410 N   0  0  0  0  0  2  0  0  0  0  0  0
  159.7740  213.8660  155.4590 O   0  0  0  0  0  0  0  0  0  0  0  0
  159.0670  209.0840  155.7150 C   0  0  1  0  0  0  0  0  0  0  0  0
  157.8390  209.2230  156.3610 O   0  0  0  0  0  1  0  0  0  0  0  0
  160.6380  211.2140  153.1300 N   0  0  0  0  0  0  0  0  0  0  0  0
  159.1450  209.8760  154.4300 C   0  0  2  0  0  3  0  0  0  0  0  0
  159.7350  212.6860  155.0230 C   0  0  0  0  0  0  0  0  0  0  0  0
  162.2320  206.5990  151.7710 C   0  0  0  0  0  3  0  0  0  0  0  0
  158.6450  212.5980  152.7760 N   0  0  0  0  0  0  0  0  0  0  0  0
  157.6050  212.8900  153.7570 C   0  0  0  0  0  1  0  0  0  0  0  0
  158.1040  213.4400  150.5370 C   0  0  0  0  0  2  0  0  0  0  0  0
  159.6020  213.4700  150.7080 C   0  0  0  0  0  2  0  0  0  0  0  0
  158.7050  213.7690  151.8960 C   0  0  0  0  0  3  0  0  0  0  0  0
  162.2540  207.7360  149.5380 C   0  0  0  0  0  2  0  0  0  0  0  0
  161.2240  206.9540  148.7460 C   0  0  0  0  0  2  0  0  0  0  0  0
  161.7940  206.5260  147.5450 O   0  0  0  0  0  0  0  0  0  0  0  0
  160.4870  206.2210  145.5780 C   0  0  0  0  0  1  0  0  0  0  0  0
  160.8360  205.6960  146.9620 C   0  0  1  0  0  3  0  0  0  0  0  0
  161.8470  203.9690  145.6240 O   0  0  0  0  0  1  0  0  0  0  0  0
  161.3560  204.2580  146.9010 C   0  0  0  0  0  3  0  0  0  0  0  0
  162.3600  204.0560  147.8510 O   0  0  0  0  0  1  0  0  0  0  0  0
  1  5  1  0  0  0  0
  3 13  1  0  0  0  0
  3 11  1  1  0  0  0
  4 10  1  0  0  0  0
  5  7  1  0  0  0  0
  6 13  1  0  0  0  0
  7  6  1  0  0  0  0
  8 19  1  6  0  0  0
  8 17  1  0  0  0  0
  9  4  2  0  0  0  0
  9 18  1  0  0  0  0
 10  2  1  0  0  0  0
 10  5  2  0  0  0  0
 13 14  1  1  0  0  0
 15  2  2  0  0  0  0
 15  8  1  0  0  0  0
 16  2  1  6  0  0  0
 16  3  1  0  0  0  0
 16 13  1  0  0  0  0
 17 12  2  0  0  0  0
 17 11  1  0  0  0  0
 18  1  2  0  0  0  0
 19 20  1  0  0  0  0
 21 22  1  0  0  0  0
 21 23  1  0  0  0  0
 22 23  1  0  0  0  0
 23 19  1  0  0  0  0
 24  9  1  0  0  0  0
 25 24  1  0  0  0  0
 26 25  1  0  0  0  0
 28 27  1  6  0  0  0
 28 26  1  0  0  0  0
 29 30  1  0  0  0  0
 30 28  1  0  0  0  0
 30 31  1  0  0  0  0
M  END
>  <MODEL>
9

>  <REMARK>
 VINA RESULT:      -4.7      1.475      2.078
  Name = 
  7 active torsions:
  status: ('A' for Active; 'I' for Inactive)
    1  A    between atoms: C_2  and  C_15
    2  A    between atoms: C_2  and  C_17
    3  A    between atoms: C_11  and  C_12
    4  A    between atoms: C_12  and  O_31
    5  A    between atoms: C_15  and  O_31
    6  A    between atoms: C_16  and  N_19
    7  A    between atoms: N_19  and  C_25
                            x       y       z     vdW  Elec       q    Type
                         _______ _______ _______ _____ _____    ______ ____

>  <TORSDO>
F 7

$$$$
