=
 OpenBabel11072413153D

 34 37  0  0  1  0  0  0  0  0999 V2000
  161.4830  206.7500  149.9620 C   0  0  0  0  0  3  0  0  0  0  0  0
  161.3320  208.6820  152.3880 C   0  0  0  0  0  0  0  0  0  0  0  0
  161.2130  208.1190  149.4370 C   0  0  0  0  0  2  0  0  0  0  0  0
  161.0320  207.3730  152.3240 C   0  0  0  0  0  3  0  0  0  0  0  0
  162.1370  209.3850  151.3600 C   0  0  0  0  0  3  0  0  0  0  0  0
  161.3770  206.4160  151.2500 C   0  0  0  0  0  0  0  0  0  0  0  0
  162.1240  209.1250  150.0540 C   0  0  0  0  0  3  0  0  0  0  0  0
  161.3120  209.4860  157.2610 O   0  0  0  0  0  0  0  0  0  0  0  0
  160.9450  209.7870  156.0960 C   0  0  0  0  0  0  0  0  0  0  0  0
  160.9000  209.4270  153.5900 C   0  0  0  0  0  0  0  0  0  0  0  0
  158.3700  212.3930  153.0590 C   0  0  1  0  0  3  0  0  0  0  0  0
  160.0190  210.8620  155.9000 N   0  0  0  0  0  0  0  0  0  0  0  0
  159.6030  211.1640  154.7120 C   0  0  0  0  0  0  0  0  0  0  0  0
  159.3070  211.1610  152.0520 S   0  0  0  0  0  0  0  0  0  0  0  0
  161.5010  209.0220  154.9220 C   0  0  0  0  0  2  0  0  0  0  0  0
  160.0240  210.4500  153.5300 C   0  0  0  0  0  0  0  0  0  0  0  0
  158.7050  212.2270  154.4680 N   0  0  0  0  0  2  0  0  0  0  0  0
  158.8050  214.0740  152.5290 S   0  0  0  0  0  0  0  0  0  0  0  0
  158.9540  213.5760  150.7890 C   0  0  0  0  0  2  0  0  0  0  0  0
  160.3990  214.3790  150.0410 S   0  0  0  0  0  0  0  0  0  0  0  0
  160.4890  213.1830  148.7470 N   0  0  0  0  0  1  0  0  0  0  0  0
  161.5540  204.9820  151.6200 C   0  0  0  0  0  2  0  0  0  0  0  0
  160.5010  204.1670  151.0240 N   0  0  0  0  0  2  0  0  0  0  0  0
  160.8640  201.7810  150.4960 C   0  0  0  0  0  3  0  0  0  0  0  0
  160.7430  203.1170  150.0840 C   0  0  0  0  0  0  0  0  0  0  0  0
  161.1000  200.7720  149.5580 C   0  0  0  0  0  3  0  0  0  0  0  0
  161.2120  201.0930  148.2020 C   0  0  0  0  0  3  0  0  0  0  0  0
  161.0830  202.4200  147.7840 C   0  0  0  0  0  0  0  0  0  0  0  0
  160.8520  203.4300  148.7250 C   0  0  0  0  0  3  0  0  0  0  0  0
  161.2360  202.8340  146.0510 S   0  0  0  0  0  0  0  0  0  0  0  0
  161.7350  204.5510  146.3880 C   0  0  0  0  0  2  0  0  0  0  0  0
  161.5470  205.5340  144.1060 O   0  0  0  0  0  0  0  0  0  0  0  0
  160.1520  206.2280  145.7870 O   0  0  0  0  0  1  0  0  0  0  0  0
  161.0930  205.4780  145.4160 C   0  0  0  0  0  0  0  0  0  0  0  0
  1  6  2  0  0  0  0
  2 10  1  0  0  0  0
  3  1  1  0  0  0  0
  3  7  1  0  0  0  0
  4  2  2  0  0  0  0
  5  2  1  0  0  0  0
  6 22  1  0  0  0  0
  6  4  1  0  0  0  0
  7  5  2  0  0  0  0
  9  8  2  0  0  0  0
 10 15  1  0  0  0  0
 11 18  1  6  0  0  0
 11 17  1  0  0  0  0
 12  9  1  0  0  0  0
 13 12  2  0  0  0  0
 14 11  1  0  0  0  0
 14 16  1  0  0  0  0
 15  9  1  0  0  0  0
 16 10  2  0  0  0  0
 16 13  1  0  0  0  0
 17 13  1  0  0  0  0
 19 18  1  0  0  0  0
 20 19  1  0  0  0  0
 21 20  1  0  0  0  0
 23 22  1  0  0  0  0
 25 24  1  0  0  0  0
 25 23  1  0  0  0  0
 26 24  2  0  0  0  0
 27 26  1  0  0  0  0
 28 27  2  0  0  0  0
 28 29  1  0  0  0  0
 29 25  2  0  0  0  0
 30 31  1  0  0  0  0
 30 28  1  0  0  0  0
 32 34  2  0  0  0  0
 34 33  1  0  0  0  0
 34 31  1  0  0  0  0
M  END
>  <MODEL>
1

>  <REMARK>
 VINA RESULT:      -7.6      0.000      0.000
  Name = 
  10 active torsions:
  status: ('A' for Active; 'I' for Inactive)
    1  A    between atoms: S_4  and  C_17
    2  A    between atoms: C_6  and  N_18
    3  A    between atoms: C_7  and  C_11
    4  A    between atoms: C_9  and  S_22
    5  A    between atoms: C_13  and  S_23
    6  A    between atoms: C_13  and  C_27
    7  A    between atoms: C_17  and  S_22
    8  A    between atoms: N_18  and  C_21
    9  A    between atoms: C_21  and  C_32
   10  A    between atoms: S_23  and  C_28
                            x       y       z     vdW  Elec       q    Type
                         _______ _______ _______ _____ _____    ______ ____

>  <TORSDO>
F 10

$$$$
=
 OpenBabel11072413153D

 34 37  0  0  1  0  0  0  0  0999 V2000
  162.3220  206.6730  151.2810 C   0  0  0  0  0  3  0  0  0  0  0  0
  161.3130  208.7150  153.3910 C   0  0  0  0  0  0  0  0  0  0  0  0
  162.4750  206.0500  152.6270 C   0  0  0  0  0  2  0  0  0  0  0  0
  161.8650  208.9410  152.1870 C   0  0  0  0  0  3  0  0  0  0  0  0
  160.7580  207.4020  153.8010 C   0  0  0  0  0  3  0  0  0  0  0  0
  162.0730  207.9700  151.0900 C   0  0  0  0  0  0  0  0  0  0  0  0
  161.2380  206.2120  153.4430 C   0  0  0  0  0  3  0  0  0  0  0  0
  162.8000  211.4000  157.2610 O   0  0  0  0  0  0  0  0  0  0  0  0
  162.0110  211.1970  156.3020 C   0  0  0  0  0  0  0  0  0  0  0  0
  161.1850  209.8640  154.3140 C   0  0  0  0  0  0  0  0  0  0  0  0
  158.1300  212.2820  153.7710 C   0  0  1  0  0  3  0  0  0  0  0  0
  160.8940  212.0720  156.1060 N   0  0  0  0  0  0  0  0  0  0  0  0
  160.0530  211.8590  155.1450 C   0  0  0  0  0  0  0  0  0  0  0  0
  158.8780  210.7830  152.9950 S   0  0  0  0  0  0  0  0  0  0  0  0
  162.2660  210.0460  155.3630 C   0  0  0  0  0  2  0  0  0  0  0  0
  160.1710  210.7460  154.2330 C   0  0  0  0  0  0  0  0  0  0  0  0
  158.9480  212.7050  154.9020 N   0  0  0  0  0  2  0  0  0  0  0  0
  158.0450  213.6250  152.5520 S   0  0  0  0  0  0  0  0  0  0  0  0
  159.1020  212.7330  151.3750 C   0  0  0  0  0  2  0  0  0  0  0  0
  159.3400  213.7360  149.8810 S   0  0  0  0  0  0  0  0  0  0  0  0
  160.8920  212.9760  149.5260 N   0  0  0  0  0  1  0  0  0  0  0  0
  162.0690  208.4850  149.6900 C   0  0  0  0  0  2  0  0  0  0  0  0
  161.1020  207.7530  148.8800 N   0  0  0  0  0  2  0  0  0  0  0  0
  162.0420  206.8800  146.7680 C   0  0  0  0  0  3  0  0  0  0  0  0
  161.4460  206.6630  148.0190 C   0  0  0  0  0  0  0  0  0  0  0  0
  162.3690  205.7990  145.9450 C   0  0  0  0  0  3  0  0  0  0  0  0
  162.1040  204.4940  146.3690 C   0  0  0  0  0  3  0  0  0  0  0  0
  161.5190  204.2700  147.6190 C   0  0  0  0  0  0  0  0  0  0  0  0
  161.1870  205.3540  148.4400 C   0  0  0  0  0  3  0  0  0  0  0  0
  161.1710  202.6010  148.1600 S   0  0  0  0  0  0  0  0  0  0  0  0
  160.4380  203.1450  149.7350 C   0  0  0  0  0  2  0  0  0  0  0  0
  161.2080  200.9560  150.6450 O   0  0  0  0  0  0  0  0  0  0  0  0
  161.0860  202.7980  152.0030 O   0  0  0  0  0  1  0  0  0  0  0  0
  160.9340  202.3000  150.8570 C   0  0  0  0  0  0  0  0  0  0  0  0
  1  3  1  0  0  0  0
  2  5  1  0  0  0  0
  2 10  1  0  0  0  0
  3  7  1  0  0  0  0
  4  2  2  0  0  0  0
  6  1  2  0  0  0  0
  6  4  1  0  0  0  0
  7  5  2  0  0  0  0
  9  8  2  0  0  0  0
 10 15  1  0  0  0  0
 11 18  1  6  0  0  0
 11 17  1  0  0  0  0
 12  9  1  0  0  0  0
 13 12  2  0  0  0  0
 14 11  1  0  0  0  0
 14 16  1  0  0  0  0
 15  9  1  0  0  0  0
 16 10  2  0  0  0  0
 16 13  1  0  0  0  0
 17 13  1  0  0  0  0
 19 18  1  0  0  0  0
 20 19  1  0  0  0  0
 21 20  1  0  0  0  0
 22  6  1  0  0  0  0
 23 22  1  0  0  0  0
 24 25  1  0  0  0  0
 25 29  2  0  0  0  0
 25 23  1  0  0  0  0
 26 27  1  0  0  0  0
 26 24  2  0  0  0  0
 27 28  2  0  0  0  0
 28 30  1  0  0  0  0
 28 29  1  0  0  0  0
 30 31  1  0  0  0  0
 31 34  1  0  0  0  0
 32 34  2  0  0  0  0
 34 33  1  0  0  0  0
M  END
>  <MODEL>
2

>  <REMARK>
 VINA RESULT:      -7.1      2.352      3.473
  Name = 
  10 active torsions:
  status: ('A' for Active; 'I' for Inactive)
    1  A    between atoms: S_4  and  C_17
    2  A    between atoms: C_6  and  N_18
    3  A    between atoms: C_7  and  C_11
    4  A    between atoms: C_9  and  S_22
    5  A    between atoms: C_13  and  S_23
    6  A    between atoms: C_13  and  C_27
    7  A    between atoms: C_17  and  S_22
    8  A    between atoms: N_18  and  C_21
    9  A    between atoms: C_21  and  C_32
   10  A    between atoms: S_23  and  C_28
                            x       y       z     vdW  Elec       q    Type
                         _______ _______ _______ _____ _____    ______ ____

>  <TORSDO>
F 10

$$$$
=
 OpenBabel11072413153D

 34 37  0  0  1  0  0  0  0  0999 V2000
  161.2960  207.8090  155.3340 C   0  0  0  0  0  3  0  0  0  0  0  0
  160.7260  209.9740  153.1840 C   0  0  0  0  0  0  0  0  0  0  0  0
  161.6400  209.1350  155.9210 C   0  0  0  0  0  2  0  0  0  0  0  0
  161.0840  208.6890  153.0210 C   0  0  0  0  0  3  0  0  0  0  0  0
  160.1930  210.5180  154.4560 C   0  0  0  0  0  3  0  0  0  0  0  0
  161.0720  207.6100  154.0340 C   0  0  0  0  0  0  0  0  0  0  0  0
  160.5600  210.1330  155.6770 C   0  0  0  0  0  3  0  0  0  0  0  0
  162.4560  211.1730  148.7150 O   0  0  0  0  0  0  0  0  0  0  0  0
  161.7180  211.4070  149.7070 C   0  0  0  0  0  0  0  0  0  0  0  0
  160.7970  210.8610  152.0020 C   0  0  0  0  0  0  0  0  0  0  0  0
  158.6570  214.1600  152.0930 C   0  0  1  0  0  3  0  0  0  0  0  0
  160.9430  212.6110  149.7460 N   0  0  0  0  0  0  0  0  0  0  0  0
  160.2050  212.8850  150.7730 C   0  0  0  0  0  0  0  0  0  0  0  0
  158.9690  212.6710  153.1370 S   0  0  0  0  0  0  0  0  0  0  0  0
  161.6480  210.4050  150.8310 C   0  0  0  0  0  2  0  0  0  0  0  0
  160.1210  212.0240  151.9290 C   0  0  0  0  0  0  0  0  0  0  0  0
  159.4100  214.0500  150.8490 N   0  0  0  0  0  2  0  0  0  0  0  0
  156.8850  214.2850  151.7170 S   0  0  0  0  0  0  0  0  0  0  0  0
  157.1770  214.2250  149.9260 C   0  0  0  0  0  2  0  0  0  0  0  0
  155.5960  214.3380  149.0410 S   0  0  0  0  0  0  0  0  0  0  0  0
  154.6770  214.4530  150.5430 N   0  0  0  0  0  1  0  0  0  0  0  0
  160.8600  206.2110  153.5640 C   0  0  0  0  0  2  0  0  0  0  0  0
  161.8140  205.8760  152.5130 N   0  0  0  0  0  2  0  0  0  0  0  0
  161.2080  203.7620  151.3850 C   0  0  0  0  0  3  0  0  0  0  0  0
  161.4740  205.1390  151.3340 C   0  0  0  0  0  0  0  0  0  0  0  0
  160.8790  203.0640  150.2190 C   0  0  0  0  0  3  0  0  0  0  0  0
  160.8100  203.7390  148.9980 C   0  0  0  0  0  3  0  0  0  0  0  0
  161.0640  205.1130  148.9420 C   0  0  0  0  0  0  0  0  0  0  0  0
  161.3990  205.8090  150.1090 C   0  0  0  0  0  3  0  0  0  0  0  0
  160.9850  205.9770  147.3780 S   0  0  0  0  0  0  0  0  0  0  0  0
  162.1660  204.8530  146.5690 C   0  0  0  0  0  2  0  0  0  0  0  0
  161.4080  204.9110  144.1960 O   0  0  0  0  0  0  0  0  0  0  0  0
  161.1050  203.0270  145.4660 O   0  0  0  0  0  1  0  0  0  0  0  0
  161.5380  204.2060  145.3850 C   0  0  0  0  0  0  0  0  0  0  0  0
  1  3  1  0  0  0  0
  2  5  1  0  0  0  0
  4  2  2  0  0  0  0
  4  6  1  0  0  0  0
  5  7  2  0  0  0  0
  6  1  2  0  0  0  0
  7  3  1  0  0  0  0
  8  9  2  0  0  0  0
  9 12  1  0  0  0  0
  9 15  1  0  0  0  0
 10  2  1  0  0  0  0
 11 18  1  6  0  0  0
 11 14  1  0  0  0  0
 12 13  2  0  0  0  0
 13 17  1  0  0  0  0
 13 16  1  0  0  0  0
 15 10  1  0  0  0  0
 16 10  2  0  0  0  0
 16 14  1  0  0  0  0
 17 11  1  0  0  0  0
 19 18  1  0  0  0  0
 20 19  1  0  0  0  0
 20 21  1  0  0  0  0
 22  6  1  0  0  0  0
 23 22  1  0  0  0  0
 25 24  1  0  0  0  0
 25 23  1  0  0  0  0
 26 24  2  0  0  0  0
 27 26  1  0  0  0  0
 28 27  2  0  0  0  0
 28 29  1  0  0  0  0
 29 25  2  0  0  0  0
 30 28  1  0  0  0  0
 31 30  1  0  0  0  0
 32 34  2  0  0  0  0
 34 33  1  0  0  0  0
 34 31  1  0  0  0  0
M  END
>  <MODEL>
3

>  <REMARK>
 VINA RESULT:      -6.8      2.561      3.920
  Name = 
  10 active torsions:
  status: ('A' for Active; 'I' for Inactive)
    1  A    between atoms: S_4  and  C_17
    2  A    between atoms: C_6  and  N_18
    3  A    between atoms: C_7  and  C_11
    4  A    between atoms: C_9  and  S_22
    5  A    between atoms: C_13  and  S_23
    6  A    between atoms: C_13  and  C_27
    7  A    between atoms: C_17  and  S_22
    8  A    between atoms: N_18  and  C_21
    9  A    between atoms: C_21  and  C_32
   10  A    between atoms: S_23  and  C_28
                            x       y       z     vdW  Elec       q    Type
                         _______ _______ _______ _____ _____    ______ ____

>  <TORSDO>
F 10

$$$$
=
 OpenBabel11072413153D

 34 37  0  0  1  0  0  0  0  0999 V2000
  161.8520  209.2770  155.9760 C   0  0  0  0  0  3  0  0  0  0  0  0
  159.5010  211.2360  155.4540 C   0  0  0  0  0  0  0  0  0  0  0  0
  162.3550  210.6630  156.2040 C   0  0  0  0  0  2  0  0  0  0  0  0
  159.7370  210.0290  154.9120 C   0  0  0  0  0  3  0  0  0  0  0  0
  160.1640  211.7200  156.6880 C   0  0  0  0  0  3  0  0  0  0  0  0
  160.6930  208.9990  155.3770 C   0  0  0  0  0  0  0  0  0  0  0  0
  161.4150  211.4470  157.0550 C   0  0  0  0  0  3  0  0  0  0  0  0
  155.2100  213.6820  155.5210 O   0  0  0  0  0  0  0  0  0  0  0  0
  156.2600  213.3210  154.9300 C   0  0  0  0  0  0  0  0  0  0  0  0
  158.4650  212.0810  154.8200 C   0  0  0  0  0  0  0  0  0  0  0  0
  159.0200  213.0950  151.0600 C   0  0  1  0  0  3  0  0  0  0  0  0
  156.4620  213.6840  153.5590 N   0  0  0  0  0  0  0  0  0  0  0  0
  157.5200  213.2930  152.9240 C   0  0  0  0  0  0  0  0  0  0  0  0
  159.8900  212.1660  152.3970 S   0  0  0  0  0  0  0  0  0  0  0  0
  157.2990  212.5280  155.6810 C   0  0  0  0  0  2  0  0  0  0  0  0
  158.5420  212.4750  153.5340 C   0  0  0  0  0  0  0  0  0  0  0  0
  157.7710  213.6400  151.5780 N   0  0  0  0  0  2  0  0  0  0  0  0
  160.0730  214.4530  150.4720 S   0  0  0  0  0  0  0  0  0  0  0  0
  160.0780  213.8220  148.7700 C   0  0  0  0  0  2  0  0  0  0  0  0
  161.5940  212.8690  148.4720 S   0  0  0  0  0  0  0  0  0  0  0  0
  160.8410  211.9280  147.1830 N   0  0  0  0  0  1  0  0  0  0  0  0
  160.3710  207.5690  155.1020 C   0  0  0  0  0  2  0  0  0  0  0  0
  161.4370  206.9460  154.3260 N   0  0  0  0  0  2  0  0  0  0  0  0
  161.2120  207.4760  151.9230 C   0  0  0  0  0  3  0  0  0  0  0  0
  161.2960  206.5370  152.9620 C   0  0  0  0  0  0  0  0  0  0  0  0
  161.0740  207.0520  150.5990 C   0  0  0  0  0  3  0  0  0  0  0  0
  161.0240  205.6870  150.3050 C   0  0  0  0  0  3  0  0  0  0  0  0
  161.1180  204.7460  151.3350 C   0  0  0  0  0  0  0  0  0  0  0  0
  161.2500  205.1720  152.6610 C   0  0  0  0  0  3  0  0  0  0  0  0
  161.0440  202.9980  150.9620 S   0  0  0  0  0  0  0  0  0  0  0  0
  161.0530  203.2660  149.1620 C   0  0  0  0  0  2  0  0  0  0  0  0
  161.1710  200.7770  149.1250 O   0  0  0  0  0  1  0  0  0  0  0  0
  160.6830  201.9440  147.2130 O   0  0  0  0  0  0  0  0  0  0  0  0
  160.9500  201.9660  148.4440 C   0  0  0  0  0  0  0  0  0  0  0  0
  1  3  1  0  0  0  0
  2  5  1  0  0  0  0
  3  7  1  0  0  0  0
  4  6  1  0  0  0  0
  4  2  2  0  0  0  0
  5  7  2  0  0  0  0
  6  1  2  0  0  0  0
  9  8  2  0  0  0  0
  9 15  1  0  0  0  0
 10  2  1  0  0  0  0
 10 15  1  0  0  0  0
 11 18  1  1  0  0  0
 11 17  1  0  0  0  0
 11 14  1  0  0  0  0
 12  9  1  0  0  0  0
 13 16  1  0  0  0  0
 13 12  2  0  0  0  0
 14 16  1  0  0  0  0
 16 10  2  0  0  0  0
 17 13  1  0  0  0  0
 19 18  1  0  0  0  0
 20 19  1  0  0  0  0
 21 20  1  0  0  0  0
 22  6  1  0  0  0  0
 23 22  1  0  0  0  0
 24 25  1  0  0  0  0
 25 23  1  0  0  0  0
 26 24  2  0  0  0  0
 27 26  1  0  0  0  0
 27 28  2  0  0  0  0
 28 29  1  0  0  0  0
 29 25  2  0  0  0  0
 30 28  1  0  0  0  0
 31 30  1  0  0  0  0
 33 34  2  0  0  0  0
 34 32  1  0  0  0  0
 34 31  1  0  0  0  0
M  END
>  <MODEL>
4

>  <REMARK>
 VINA RESULT:      -6.8      2.700      4.826
  Name = 
  10 active torsions:
  status: ('A' for Active; 'I' for Inactive)
    1  A    between atoms: S_4  and  C_17
    2  A    between atoms: C_6  and  N_18
    3  A    between atoms: C_7  and  C_11
    4  A    between atoms: C_9  and  S_22
    5  A    between atoms: C_13  and  S_23
    6  A    between atoms: C_13  and  C_27
    7  A    between atoms: C_17  and  S_22
    8  A    between atoms: N_18  and  C_21
    9  A    between atoms: C_21  and  C_32
   10  A    between atoms: S_23  and  C_28
                            x       y       z     vdW  Elec       q    Type
                         _______ _______ _______ _____ _____    ______ ____

>  <TORSDO>
F 10

$$$$
=
 OpenBabel11072413153D

 34 37  0  0  1  0  0  0  0  0999 V2000
  161.1120  210.3560  152.0240 C   0  0  0  0  0  3  0  0  0  0  0  0
  161.3920  207.3260  151.4070 C   0  0  0  0  0  0  0  0  0  0  0  0
  160.1720  209.6200  152.9180 C   0  0  0  0  0  2  0  0  0  0  0  0
  161.5780  208.3800  150.5940 C   0  0  0  0  0  3  0  0  0  0  0  0
  161.3450  207.4350  152.8850 C   0  0  0  0  0  3  0  0  0  0  0  0
  161.7190  209.8030  150.9730 C   0  0  0  0  0  0  0  0  0  0  0  0
  160.8410  208.4600  153.5710 C   0  0  0  0  0  3  0  0  0  0  0  0
  160.8310  202.4250  151.6440 O   0  0  0  0  0  0  0  0  0  0  0  0
  161.0060  203.4800  150.9820 C   0  0  0  0  0  0  0  0  0  0  0  0
  161.3120  205.9860  150.7860 C   0  0  0  0  0  0  0  0  0  0  0  0
  161.8190  205.7700  146.8910 C   0  0  1  0  0  3  0  0  0  0  0  0
  161.1980  203.4040  149.5650 N   0  0  0  0  0  0  0  0  0  0  0  0
  161.4140  204.4750  148.8720 C   0  0  0  0  0  0  0  0  0  0  0  0
  161.7380  207.0500  148.2190 S   0  0  0  0  0  0  0  0  0  0  0  0
  160.9930  204.8110  151.6910 C   0  0  0  0  0  2  0  0  0  0  0  0
  161.4860  205.7900  149.4650 C   0  0  0  0  0  0  0  0  0  0  0  0
  161.5900  204.4520  147.4710 N   0  0  0  0  0  2  0  0  0  0  0  0
  160.5500  206.1070  145.6370 S   0  0  0  0  0  0  0  0  0  0  0  0
  161.0110  204.6460  144.6610 C   0  0  0  0  0  2  0  0  0  0  0  0
  159.5850  203.5330  144.5110 S   0  0  0  0  0  0  0  0  0  0  0  0
  160.4560  202.1930  145.2580 N   0  0  0  0  0  1  0  0  0  0  0  0
  162.5360  210.6850  150.0910 C   0  0  0  0  0  2  0  0  0  0  0  0
  161.9180  210.8070  148.7760 N   0  0  0  0  0  2  0  0  0  0  0  0
  162.7930  213.0510  148.2260 C   0  0  0  0  0  3  0  0  0  0  0  0
  161.8500  212.0300  148.0370 C   0  0  0  0  0  0  0  0  0  0  0  0
  162.7050  214.2370  147.4920 C   0  0  0  0  0  3  0  0  0  0  0  0
  161.6770  214.4080  146.5620 C   0  0  0  0  0  3  0  0  0  0  0  0
  160.7390  213.3900  146.3620 C   0  0  0  0  0  0  0  0  0  0  0  0
  160.8250  212.2060  147.1010 C   0  0  0  0  0  3  0  0  0  0  0  0
  159.4160  213.6100  145.1780 S   0  0  0  0  0  0  0  0  0  0  0  0
  159.9480  212.2040  144.1520 C   0  0  0  0  0  2  0  0  0  0  0  0
  160.4150  213.9440  142.4290 O   0  0  0  0  0  1  0  0  0  0  0  0
  161.5470  211.9510  142.4030 O   0  0  0  0  0  0  0  0  0  0  0  0
  160.6880  212.6880  142.9540 C   0  0  0  0  0  0  0  0  0  0  0  0
  1  3  1  0  0  0  0
  2  5  1  0  0  0  0
  3  7  1  0  0  0  0
  4  6  1  0  0  0  0
  4  2  2  0  0  0  0
  5  7  2  0  0  0  0
  6  1  2  0  0  0  0
  9  8  2  0  0  0  0
  9 15  1  0  0  0  0
 10  2  1  0  0  0  0
 10 15  1  0  0  0  0
 11 18  1  6  0  0  0
 11 17  1  0  0  0  0
 11 14  1  0  0  0  0
 12  9  1  0  0  0  0
 13 16  1  0  0  0  0
 13 12  2  0  0  0  0
 14 16  1  0  0  0  0
 16 10  2  0  0  0  0
 17 13  1  0  0  0  0
 19 18  1  0  0  0  0
 20 19  1  0  0  0  0
 20 21  1  0  0  0  0
 22  6  1  0  0  0  0
 23 22  1  0  0  0  0
 25 24  1  0  0  0  0
 25 23  1  0  0  0  0
 26 24  2  0  0  0  0
 27 26  1  0  0  0  0
 28 27  2  0  0  0  0
 28 29  1  0  0  0  0
 29 25  2  0  0  0  0
 30 28  1  0  0  0  0
 31 30  1  0  0  0  0
 32 34  1  0  0  0  0
 33 34  2  0  0  0  0
 34 31  1  0  0  0  0
M  END
>  <MODEL>
5

>  <REMARK>
 VINA RESULT:      -6.7      3.977      8.573
  Name = 
  10 active torsions:
  status: ('A' for Active; 'I' for Inactive)
    1  A    between atoms: S_4  and  C_17
    2  A    between atoms: C_6  and  N_18
    3  A    between atoms: C_7  and  C_11
    4  A    between atoms: C_9  and  S_22
    5  A    between atoms: C_13  and  S_23
    6  A    between atoms: C_13  and  C_27
    7  A    between atoms: C_17  and  S_22
    8  A    between atoms: N_18  and  C_21
    9  A    between atoms: C_21  and  C_32
   10  A    between atoms: S_23  and  C_28
                            x       y       z     vdW  Elec       q    Type
                         _______ _______ _______ _____ _____    ______ ____

>  <TORSDO>
F 10

$$$$
=
 OpenBabel11072413153D

 34 37  0  0  1  0  0  0  0  0999 V2000
  161.8850  208.7610  155.7470 C   0  0  0  0  0  3  0  0  0  0  0  0
  159.4830  210.7160  155.5410 C   0  0  0  0  0  0  0  0  0  0  0  0
  162.3270  210.0820  156.2790 C   0  0  0  0  0  2  0  0  0  0  0  0
  159.7840  209.6560  154.7720 C   0  0  0  0  0  3  0  0  0  0  0  0
  160.0820  210.9510  156.8760 C   0  0  0  0  0  3  0  0  0  0  0  0
  160.7600  208.5800  155.0540 C   0  0  0  0  0  0  0  0  0  0  0  0
  161.3290  210.6440  157.2320 C   0  0  0  0  0  3  0  0  0  0  0  0
  155.2680  213.2330  156.0820 O   0  0  0  0  0  0  0  0  0  0  0  0
  156.2770  212.9140  155.4030 C   0  0  0  0  0  0  0  0  0  0  0  0
  158.4400  211.6440  155.0520 C   0  0  0  0  0  0  0  0  0  0  0  0
  158.8340  213.0310  151.3920 C   0  0  1  0  0  3  0  0  0  0  0  0
  156.4200  213.4120  154.0680 N   0  0  0  0  0  0  0  0  0  0  0  0
  157.4340  213.0660  153.3420 C   0  0  0  0  0  0  0  0  0  0  0  0
  159.7440  211.9500  152.5790 S   0  0  0  0  0  0  0  0  0  0  0  0
  157.3310  212.0250  156.0140 C   0  0  0  0  0  2  0  0  0  0  0  0
  158.4630  212.1680  153.8110 C   0  0  0  0  0  0  0  0  0  0  0  0
  157.6270  213.5460  152.0270 N   0  0  0  0  0  2  0  0  0  0  0  0
  159.8920  214.4200  150.8920 S   0  0  0  0  0  0  0  0  0  0  0  0
  159.7580  213.9950  149.1320 C   0  0  0  0  0  2  0  0  0  0  0  0
  161.2520  213.1140  148.5960 S   0  0  0  0  0  0  0  0  0  0  0  0
  160.4040  212.3350  147.2590 N   0  0  0  0  0  1  0  0  0  0  0  0
  160.5020  207.2310  154.4740 C   0  0  0  0  0  2  0  0  0  0  0  0
  161.4770  206.9270  153.4330 N   0  0  0  0  0  2  0  0  0  0  0  0
  161.1400  204.6010  152.6690 C   0  0  0  0  0  3  0  0  0  0  0  0
  161.2590  205.9710  152.3910 C   0  0  0  0  0  0  0  0  0  0  0  0
  160.9270  203.6870  151.6330 C   0  0  0  0  0  3  0  0  0  0  0  0
  160.8290  204.1380  150.3150 C   0  0  0  0  0  3  0  0  0  0  0  0
  160.9370  205.5030  150.0320 C   0  0  0  0  0  0  0  0  0  0  0  0
  161.1550  206.4160  151.0690 C   0  0  0  0  0  3  0  0  0  0  0  0
  160.8200  206.0810  148.3430 S   0  0  0  0  0  0  0  0  0  0  0  0
  161.5250  204.5510  147.6520 C   0  0  0  0  0  2  0  0  0  0  0  0
  161.2440  205.0090  145.2180 O   0  0  0  0  0  0  0  0  0  0  0  0
  163.3390  204.8190  146.1290 O   0  0  0  0  0  1  0  0  0  0  0  0
  162.0920  204.8070  146.2990 C   0  0  0  0  0  0  0  0  0  0  0  0
  1  3  1  0  0  0  0
  2  5  1  0  0  0  0
  3  7  1  0  0  0  0
  4  6  1  0  0  0  0
  4  2  2  0  0  0  0
  5  7  2  0  0  0  0
  6  1  2  0  0  0  0
  9 15  1  0  0  0  0
  9  8  2  0  0  0  0
 10  2  1  0  0  0  0
 10 15  1  0  0  0  0
 11 18  1  1  0  0  0
 11 17  1  0  0  0  0
 11 14  1  0  0  0  0
 12  9  1  0  0  0  0
 13 16  1  0  0  0  0
 13 12  2  0  0  0  0
 14 16  1  0  0  0  0
 16 10  2  0  0  0  0
 17 13  1  0  0  0  0
 19 18  1  0  0  0  0
 20 19  1  0  0  0  0
 21 20  1  0  0  0  0
 22  6  1  0  0  0  0
 23 22  1  0  0  0  0
 25 24  1  0  0  0  0
 25 23  1  0  0  0  0
 26 24  2  0  0  0  0
 27 26  1  0  0  0  0
 28 27  2  0  0  0  0
 28 29  1  0  0  0  0
 29 25  2  0  0  0  0
 30 28  1  0  0  0  0
 31 30  1  0  0  0  0
 32 34  2  0  0  0  0
 33 34  1  0  0  0  0
 34 31  1  0  0  0  0
M  END
>  <MODEL>
6

>  <REMARK>
 VINA RESULT:      -6.7      2.500      4.084
  Name = 
  10 active torsions:
  status: ('A' for Active; 'I' for Inactive)
    1  A    between atoms: S_4  and  C_17
    2  A    between atoms: C_6  and  N_18
    3  A    between atoms: C_7  and  C_11
    4  A    between atoms: C_9  and  S_22
    5  A    between atoms: C_13  and  S_23
    6  A    between atoms: C_13  and  C_27
    7  A    between atoms: C_17  and  S_22
    8  A    between atoms: N_18  and  C_21
    9  A    between atoms: C_21  and  C_32
   10  A    between atoms: S_23  and  C_28
                            x       y       z     vdW  Elec       q    Type
                         _______ _______ _______ _____ _____    ______ ____

>  <TORSDO>
F 10

$$$$
=
 OpenBabel11072413153D

 34 37  0  0  1  0  0  0  0  0999 V2000
  160.6630  207.9840  155.4120 C   0  0  0  0  0  3  0  0  0  0  0  0
  161.5810  208.1690  152.4530 C   0  0  0  0  0  0  0  0  0  0  0  0
  160.1530  206.7770  154.7020 C   0  0  0  0  0  2  0  0  0  0  0  0
  161.3140  209.1580  153.3220 C   0  0  0  0  0  3  0  0  0  0  0  0
  161.8180  206.7640  152.8630 C   0  0  0  0  0  3  0  0  0  0  0  0
  161.1580  209.0560  154.7900 C   0  0  0  0  0  0  0  0  0  0  0  0
  161.2210  206.1420  153.8780 C   0  0  0  0  0  3  0  0  0  0  0  0
  162.7060  211.3370  148.8350 O   0  0  0  0  0  0  0  0  0  0  0  0
  162.3260  210.2030  149.2230 C   0  0  0  0  0  0  0  0  0  0  0  0
  161.7220  208.5300  151.0250 C   0  0  0  0  0  0  0  0  0  0  0  0
  160.7080  205.8110  148.3690 C   0  0  1  0  0  3  0  0  0  0  0  0
  161.9500  209.2130  148.2590 N   0  0  0  0  0  0  0  0  0  0  0  0
  161.5240  208.0520  148.6400 C   0  0  0  0  0  0  0  0  0  0  0  0
  160.8300  205.9930  150.2020 S   0  0  0  0  0  0  0  0  0  0  0  0
  162.2900  209.8980  150.6990 C   0  0  0  0  0  2  0  0  0  0  0  0
  161.3890  207.6850  150.0290 C   0  0  0  0  0  0  0  0  0  0  0  0
  161.1590  207.0390  147.7260 N   0  0  0  0  0  2  0  0  0  0  0  0
  161.7470  204.4250  147.8210 S   0  0  0  0  0  0  0  0  0  0  0  0
  161.2380  203.3840  149.2190 C   0  0  0  0  0  2  0  0  0  0  0  0
  160.4570  201.8660  148.6020 S   0  0  0  0  0  0  0  0  0  0  0  0
  160.8950  200.9610  150.0520 N   0  0  0  0  0  1  0  0  0  0  0  0
  161.5150  210.2440  155.6170 C   0  0  0  0  0  2  0  0  0  0  0  0
  160.9650  211.4600  155.0280 N   0  0  0  0  0  2  0  0  0  0  0  0
  158.6390  211.1720  155.8110 C   0  0  0  0  0  3  0  0  0  0  0  0
  159.5640  211.7260  154.9130 C   0  0  0  0  0  0  0  0  0  0  0  0
  157.2750  211.4470  155.6770 C   0  0  0  0  0  3  0  0  0  0  0  0
  156.8290  212.2790  154.6470 C   0  0  0  0  0  3  0  0  0  0  0  0
  157.7470  212.8420  153.7550 C   0  0  0  0  0  0  0  0  0  0  0  0
  159.1110  212.5620  153.8870 C   0  0  0  0  0  3  0  0  0  0  0  0
  157.1770  213.9010  152.4310 S   0  0  0  0  0  0  0  0  0  0  0  0
  158.8520  214.1660  151.7700 C   0  0  0  0  0  2  0  0  0  0  0  0
  160.1910  213.5090  149.7730 O   0  0  0  0  0  1  0  0  0  0  0  0
  157.9060  213.3350  149.7460 O   0  0  0  0  0  0  0  0  0  0  0  0
  158.9490  213.6410  150.3800 C   0  0  0  0  0  0  0  0  0  0  0  0
  2  5  1  0  0  0  0
  2  4  2  0  0  0  0
  3  1  1  0  0  0  0
  4  6  1  0  0  0  0
  5  7  2  0  0  0  0
  6  1  2  0  0  0  0
  6 22  1  0  0  0  0
  7  3  1  0  0  0  0
  8  9  2  0  0  0  0
  9 15  1  0  0  0  0
 10  2  1  0  0  0  0
 11 18  1  6  0  0  0
 11 14  1  0  0  0  0
 12 13  2  0  0  0  0
 12  9  1  0  0  0  0
 13 16  1  0  0  0  0
 15 10  1  0  0  0  0
 16 14  1  0  0  0  0
 16 10  2  0  0  0  0
 17 11  1  0  0  0  0
 17 13  1  0  0  0  0
 18 19  1  0  0  0  0
 20 19  1  0  0  0  0
 20 21  1  0  0  0  0
 23 22  1  0  0  0  0
 25 23  1  0  0  0  0
 25 24  2  0  0  0  0
 26 24  1  0  0  0  0
 27 26  2  0  0  0  0
 28 29  2  0  0  0  0
 28 27  1  0  0  0  0
 29 25  1  0  0  0  0
 30 28  1  0  0  0  0
 31 30  1  0  0  0  0
 32 34  1  0  0  0  0
 33 34  2  0  0  0  0
 34 31  1  0  0  0  0
M  END
>  <MODEL>
7

>  <REMARK>
 VINA RESULT:      -6.7      3.067      8.853
  Name = 
  10 active torsions:
  status: ('A' for Active; 'I' for Inactive)
    1  A    between atoms: S_4  and  C_17
    2  A    between atoms: C_6  and  N_18
    3  A    between atoms: C_7  and  C_11
    4  A    between atoms: C_9  and  S_22
    5  A    between atoms: C_13  and  S_23
    6  A    between atoms: C_13  and  C_27
    7  A    between atoms: C_17  and  S_22
    8  A    between atoms: N_18  and  C_21
    9  A    between atoms: C_21  and  C_32
   10  A    between atoms: S_23  and  C_28
                            x       y       z     vdW  Elec       q    Type
                         _______ _______ _______ _____ _____    ______ ____

>  <TORSDO>
F 10

$$$$
=
 OpenBabel11072413153D

 34 37  0  0  1  0  0  0  0  0999 V2000
  161.9130  206.6870  152.2450 C   0  0  0  0  0  3  0  0  0  0  0  0
  160.7840  209.1130  153.8190 C   0  0  0  0  0  0  0  0  0  0  0  0
  161.9740  206.3560  153.6970 C   0  0  0  0  0  2  0  0  0  0  0  0
  161.4150  209.0890  152.6330 C   0  0  0  0  0  3  0  0  0  0  0  0
  160.1950  207.9100  154.4540 C   0  0  0  0  0  3  0  0  0  0  0  0
  161.6860  207.9150  151.7750 C   0  0  0  0  0  0  0  0  0  0  0  0
  160.6880  206.6740  154.3810 C   0  0  0  0  0  3  0  0  0  0  0  0
  161.9130  212.4710  157.2610 O   0  0  0  0  0  0  0  0  0  0  0  0
  161.2440  212.1050  156.2610 C   0  0  0  0  0  0  0  0  0  0  0  0
  160.6050  210.4270  154.4750 C   0  0  0  0  0  0  0  0  0  0  0  0
  157.7890  212.7800  153.0600 C   0  0  1  0  0  3  0  0  0  0  0  0
  160.2140  212.9570  155.7470 N   0  0  0  0  0  0  0  0  0  0  0  0
  159.4920  212.5830  154.7400 C   0  0  0  0  0  0  0  0  0  0  0  0
  158.5430  211.1340  152.6990 S   0  0  0  0  0  0  0  0  0  0  0  0
  161.5510  210.7820  155.6070 C   0  0  0  0  0  2  0  0  0  0  0  0
  159.6620  211.3060  154.0860 C   0  0  0  0  0  0  0  0  0  0  0  0
  158.4770  213.3960  154.1880 N   0  0  0  0  0  2  0  0  0  0  0  0
  157.9380  213.8540  151.6030 S   0  0  0  0  0  0  0  0  0  0  0  0
  159.5010  213.0830  151.0940 C   0  0  0  0  0  2  0  0  0  0  0  0
  160.0450  213.7860  149.5110 S   0  0  0  0  0  0  0  0  0  0  0  0
  158.4510  213.5790  148.7840 N   0  0  0  0  0  1  0  0  0  0  0  0
  161.7760  208.1300  150.3020 C   0  0  0  0  0  2  0  0  0  0  0  0
  160.7740  207.3300  149.6070 N   0  0  0  0  0  2  0  0  0  0  0  0
  160.5670  204.8800  149.8590 C   0  0  0  0  0  3  0  0  0  0  0  0
  161.0040  205.9990  149.1340 C   0  0  0  0  0  0  0  0  0  0  0  0
  160.8040  203.5900  149.3760 C   0  0  0  0  0  3  0  0  0  0  0  0
  161.4760  203.4120  148.1640 C   0  0  0  0  0  3  0  0  0  0  0  0
  161.9060  204.5230  147.4320 C   0  0  0  0  0  0  0  0  0  0  0  0
  161.6730  205.8130  147.9200 C   0  0  0  0  0  3  0  0  0  0  0  0
  162.7750  204.2960  145.8850 S   0  0  0  0  0  0  0  0  0  0  0  0
  161.2440  204.2280  144.9040 C   0  0  0  0  0  2  0  0  0  0  0  0
  161.5020  205.8330  143.0150 O   0  0  0  0  0  0  0  0  0  0  0  0
  160.2920  206.4130  144.8730 O   0  0  0  0  0  1  0  0  0  0  0  0
  160.9770  205.5470  144.2680 C   0  0  0  0  0  0  0  0  0  0  0  0
  1  3  1  0  0  0  0
  2  5  1  0  0  0  0
  2 10  1  0  0  0  0
  3  7  1  0  0  0  0
  4  2  2  0  0  0  0
  6  1  2  0  0  0  0
  6  4  1  0  0  0  0
  7  5  2  0  0  0  0
  9  8  2  0  0  0  0
 10 15  1  0  0  0  0
 11 18  1  6  0  0  0
 11 17  1  0  0  0  0
 12  9  1  0  0  0  0
 13 12  2  0  0  0  0
 14 11  1  0  0  0  0
 14 16  1  0  0  0  0
 15  9  1  0  0  0  0
 16 10  2  0  0  0  0
 16 13  1  0  0  0  0
 17 13  1  0  0  0  0
 19 18  1  0  0  0  0
 20 19  1  0  0  0  0
 21 20  1  0  0  0  0
 22  6  1  0  0  0  0
 23 22  1  0  0  0  0
 25 23  1  0  0  0  0
 25 24  2  0  0  0  0
 26 24  1  0  0  0  0
 27 26  2  0  0  0  0
 28 29  2  0  0  0  0
 28 27  1  0  0  0  0
 29 25  1  0  0  0  0
 30 28  1  0  0  0  0
 31 30  1  0  0  0  0
 32 34  2  0  0  0  0
 34 33  1  0  0  0  0
 34 31  1  0  0  0  0
M  END
>  <MODEL>
8

>  <REMARK>
 VINA RESULT:      -6.6      1.565      2.398
  Name = 
  10 active torsions:
  status: ('A' for Active; 'I' for Inactive)
    1  A    between atoms: S_4  and  C_17
    2  A    between atoms: C_6  and  N_18
    3  A    between atoms: C_7  and  C_11
    4  A    between atoms: C_9  and  S_22
    5  A    between atoms: C_13  and  S_23
    6  A    between atoms: C_13  and  C_27
    7  A    between atoms: C_17  and  S_22
    8  A    between atoms: N_18  and  C_21
    9  A    between atoms: C_21  and  C_32
   10  A    between atoms: S_23  and  C_28
                            x       y       z     vdW  Elec       q    Type
                         _______ _______ _______ _____ _____    ______ ____

>  <TORSDO>
F 10

$$$$
=
 OpenBabel11072413153D

 34 37  0  0  1  0  0  0  0  0999 V2000
  160.7450  208.4040  155.5100 C   0  0  0  0  0  3  0  0  0  0  0  0
  161.4520  208.0590  152.5070 C   0  0  0  0  0  0  0  0  0  0  0  0
  160.1020  207.1460  155.0330 C   0  0  0  0  0  2  0  0  0  0  0  0
  161.3190  209.1880  153.2240 C   0  0  0  0  0  3  0  0  0  0  0  0
  161.6200  206.7190  153.1190 C   0  0  0  0  0  3  0  0  0  0  0  0
  161.2660  209.3240  154.6970 C   0  0  0  0  0  0  0  0  0  0  0  0
  161.0590  206.3090  154.2550 C   0  0  0  0  0  3  0  0  0  0  0  0
  162.2630  210.6280  148.3680 O   0  0  0  0  0  0  0  0  0  0  0  0
  161.9550  209.5600  148.9550 C   0  0  0  0  0  0  0  0  0  0  0  0
  161.5110  208.1840  151.0340 C   0  0  0  0  0  0  0  0  0  0  0  0
  160.5070  205.0270  148.9140 C   0  0  1  0  0  3  0  0  0  0  0  0
  161.5830  208.4100  148.1860 N   0  0  0  0  0  0  0  0  0  0  0  0
  161.2280  207.3120  148.7720 C   0  0  0  0  0  0  0  0  0  0  0  0
  160.7030  205.5140  150.6830 S   0  0  0  0  0  0  0  0  0  0  0  0
  162.0000  209.5010  150.4610 C   0  0  0  0  0  2  0  0  0  0  0  0
  161.1740  207.1750  150.2090 C   0  0  0  0  0  0  0  0  0  0  0  0
  160.8710  206.1490  148.0560 N   0  0  0  0  0  2  0  0  0  0  0  0
  161.5840  203.6120  148.5450 S   0  0  0  0  0  0  0  0  0  0  0  0
  161.9850  204.2440  146.8910 C   0  0  0  0  0  2  0  0  0  0  0  0
  161.2000  203.2030  145.6280 S   0  0  0  0  0  0  0  0  0  0  0  0
  160.9290  201.8870  146.7710 N   0  0  0  0  0  1  0  0  0  0  0  0
  161.7660  210.5930  155.3010 C   0  0  0  0  0  2  0  0  0  0  0  0
  160.6500  211.4420  155.7020 N   0  0  0  0  0  2  0  0  0  0  0  0
  160.0240  212.2470  153.4510 C   0  0  0  0  0  3  0  0  0  0  0  0
  159.6910  211.9820  154.7880 C   0  0  0  0  0  0  0  0  0  0  0  0
  159.0690  212.7750  152.5780 C   0  0  0  0  0  3  0  0  0  0  0  0
  157.7750  213.0370  153.0350 C   0  0  0  0  0  3  0  0  0  0  0  0
  157.4340  212.7660  154.3630 C   0  0  0  0  0  0  0  0  0  0  0  0
  158.3920  212.2430  155.2380 C   0  0  0  0  0  3  0  0  0  0  0  0
  155.7800  213.1100  154.9530 S   0  0  0  0  0  0  0  0  0  0  0  0
  155.9820  212.0970  156.4510 C   0  0  0  0  0  2  0  0  0  0  0  0
  154.0550  210.7400  157.2610 O   0  0  0  0  0  1  0  0  0  0  0  0
  155.3620  209.9860  155.5350 O   0  0  0  0  0  0  0  0  0  0  0  0
  155.1180  210.8870  156.3800 C   0  0  0  0  0  0  0  0  0  0  0  0
  2  5  1  0  0  0  0
  2  4  2  0  0  0  0
  3  1  1  0  0  0  0
  4  6  1  0  0  0  0
  5  7  2  0  0  0  0
  6 22  1  0  0  0  0
  6  1  2  0  0  0  0
  7  3  1  0  0  0  0
  8  9  2  0  0  0  0
  9 15  1  0  0  0  0
 10  2  1  0  0  0  0
 11 18  1  6  0  0  0
 11 14  1  0  0  0  0
 12 13  2  0  0  0  0
 12  9  1  0  0  0  0
 13 16  1  0  0  0  0
 15 10  1  0  0  0  0
 16 14  1  0  0  0  0
 16 10  2  0  0  0  0
 17 13  1  0  0  0  0
 17 11  1  0  0  0  0
 19 18  1  0  0  0  0
 20 21  1  0  0  0  0
 20 19  1  0  0  0  0
 22 23  1  0  0  0  0
 24 25  1  0  0  0  0
 25 29  2  0  0  0  0
 25 23  1  0  0  0  0
 26 27  1  0  0  0  0
 26 24  2  0  0  0  0
 27 28  2  0  0  0  0
 28 30  1  0  0  0  0
 28 29  1  0  0  0  0
 30 31  1  0  0  0  0
 33 34  2  0  0  0  0
 34 31  1  0  0  0  0
 34 32  1  0  0  0  0
M  END
>  <MODEL>
9

>  <REMARK>
 VINA RESULT:      -6.4      3.112      9.543
  Name = 
  10 active torsions:
  status: ('A' for Active; 'I' for Inactive)
    1  A    between atoms: S_4  and  C_17
    2  A    between atoms: C_6  and  N_18
    3  A    between atoms: C_7  and  C_11
    4  A    between atoms: C_9  and  S_22
    5  A    between atoms: C_13  and  S_23
    6  A    between atoms: C_13  and  C_27
    7  A    between atoms: C_17  and  S_22
    8  A    between atoms: N_18  and  C_21
    9  A    between atoms: C_21  and  C_32
   10  A    between atoms: S_23  and  C_28
                            x       y       z     vdW  Elec       q    Type
                         _______ _______ _______ _____ _____    ______ ____

>  <TORSDO>
F 10

$$$$
