=
 OpenBabel11072410413D

 50 55  0  0  1  0  0  0  0  0999 V2000
  162.7180  214.4530  145.8100 C   0  0  0  0  0  2  0  0  0  0  0  0
  159.0730  214.2350  146.6130 F   0  0  0  0  0  0  0  0  0  0  0  0
  160.6010  212.7390  147.6240 C   0  0  0  0  0  3  0  0  0  0  0  0
  160.4120  214.0450  146.9050 C   0  0  1  0  0  3  0  0  0  0  0  0
  161.7710  212.1500  147.9470 C   0  0  0  0  0  0  0  0  0  0  0  0
  161.2630  214.1400  145.6700 C   0  0  0  0  0  0  0  0  0  0  0  0
  163.2220  214.1770  147.2220 C   0  0  0  0  0  2  0  0  0  0  0  0
  163.1330  212.6830  147.5310 C   0  0  0  0  0  2  0  0  0  0  0  0
  160.4160  213.2770  143.3530 C   0  0  0  0  0  3  0  0  0  0  0  0
  160.8270  213.7010  144.5180 C   0  0  0  0  0  0  0  0  0  0  0  0
  160.8950  209.6600  152.0360 C   0  0  2  0  0  0  0  0  0  0  0  0
  161.7810  209.5270  150.8080 C   0  0  1  0  0  0  0  0  0  0  0  0
  162.3130  210.7580  150.0580 C   0  0  0  0  0  2  0  0  0  0  0  0
  161.2710  208.4260  148.7370 C   0  0  0  0  0  3  0  0  0  0  0  0
  162.3860  209.2270  152.1630 C   0  0  1  0  0  0  0  0  0  0  0  0
  163.1670  210.2770  152.6630 O   0  0  0  0  0  1  0  0  0  0  0  0
  161.5190  208.3350  150.0070 N   0  0  0  0  0  0  0  0  0  0  0  0
  161.7470  210.8430  148.6570 C   0  0  0  0  0  0  0  0  0  0  0  0
  161.3030  209.7300  148.0470 C   0  0  0  0  0  3  0  0  0  0  0  0
  161.3610  208.7680  153.1760 C   0  0  0  0  0  2  0  0  0  0  0  0
  160.9500  211.3720  153.7830 O   0  0  0  0  0  1  0  0  0  0  0  0
  160.6090  211.1310  152.4460 C   0  0  2  0  0  3  0  0  0  0  0  0
  159.1300  211.4890  152.2190 C   0  0  1  0  0  3  0  0  0  0  0  0
  158.4850  212.9220  154.1410 C   0  0  0  0  0  3  0  0  0  0  0  0
  157.3760  210.6980  153.9350 C   0  0  0  0  0  2  0  0  0  0  0  0
  155.4790  210.4280  155.3620 O   0  0  0  0  0  0  0  0  0  0  0  0
  158.3480  211.7600  153.4790 C   0  0  0  0  0  0  0  0  0  0  0  0
  157.6880  213.2360  155.3350 C   0  0  0  0  0  3  0  0  0  0  0  0
  156.7240  212.4100  155.7690 C   0  0  0  0  0  0  0  0  0  0  0  0
  156.4630  211.1520  155.0420 C   0  0  0  0  0  0  0  0  0  0  0  0
  155.9490  212.7200  156.8930 O   0  0  0  0  0  0  0  0  0  0  0  0
  154.8590  213.6350  156.8550 C   0  0  0  0  0  1  0  0  0  0  0  0
  159.9080  213.2230  150.7480 O   0  0  0  0  0  0  0  0  0  0  0  0
  158.9260  212.5860  151.2170 C   0  0  0  0  0  0  0  0  0  0  0  0
  157.6400  212.8940  150.7950 O   0  0  0  0  0  1  0  0  0  0  0  0
  161.3710  211.7930  141.5500 C   0  0  0  0  0  0  0  0  0  0  0  0
  160.8540  211.9970  142.7750 C   0  0  0  0  0  3  0  0  0  0  0  0
  163.1490  213.3360  140.7320 O   0  0  0  0  0  1  0  0  0  0  0  0
  161.0520  213.3800  139.8170 O   0  0  0  0  0  0  0  0  0  0  0  0
  161.8330  212.8910  140.6770 C   0  0  0  0  0  0  0  0  0  0  0  0
  162.8410  210.2980  140.3930 O   0  0  0  0  0  1  0  0  0  0  0  0
  161.6330  210.3880  141.0930 C   0  0  2  0  0  3  0  0  0  0  0  0
  160.9700  209.2570  138.9660 C   0  0  2  0  0  3  0  0  0  0  0  0
  159.9220  209.6450  137.9680 C   0  0  0  0  0  2  0  0  0  0  0  0
  159.5330  210.8440  139.9790 O   0  0  0  0  0  0  0  0  0  0  0  0
  161.0330  207.8700  139.0660 O   0  0  0  0  0  1  0  0  0  0  0  0
  158.9290  210.4580  138.7730 C   0  0  1  0  0  3  0  0  0  0  0  0
  160.4700  209.8390  140.2660 C   0  0  2  0  0  3  0  0  0  0  0  0
  157.9300  212.6250  138.8650 O   0  0  0  0  0  1  0  0  0  0  0  0
  158.4990  211.6930  137.9990 C   0  0  0  0  0  2  0  0  0  0  0  0
  1  7  1  0  0  0  0
  3  5  2  0  0  0  0
  4  2  1  6  0  0  0
  4  3  1  0  0  0  0
  5 18  1  0  0  0  0
  6  1  1  0  0  0  0
  6  4  1  0  0  0  0
  7  8  1  0  0  0  0
  8  5  1  0  0  0  0
  9 10  2  0  0  0  0
 10  6  2  0  0  0  0
 11 15  1  0  0  0  0
 11 22  1  1  0  0  0
 11 20  1  0  0  0  0
 12 13  1  6  0  0  0
 12 11  1  0  0  0  0
 12 15  1  0  0  0  0
 14 17  2  0  0  0  0
 15 16  1  1  0  0  0
 15 20  1  0  0  0  0
 17 12  1  0  0  0  0
 18 13  1  0  0  0  0
 19 18  2  0  0  0  0
 19 14  1  0  0  0  0
 22 21  1  1  0  0  0
 23 34  1  6  0  0  0
 23 22  1  0  0  0  0
 23 27  1  0  0  0  0
 24 28  1  0  0  0  0
 25 30  1  0  0  0  0
 27 25  1  0  0  0  0
 27 24  2  0  0  0  0
 28 29  2  0  0  0  0
 29 31  1  0  0  0  0
 30 26  2  0  0  0  0
 30 29  1  0  0  0  0
 32 31  1  0  0  0  0
 33 34  2  0  0  0  0
 35 34  1  0  0  0  0
 36 37  2  0  0  0  0
 37  9  1  0  0  0  0
 39 40  2  0  0  0  0
 40 38  1  0  0  0  0
 40 36  1  0  0  0  0
 42 41  1  6  0  0  0
 42 36  1  0  0  0  0
 43 46  1  1  0  0  0
 43 48  1  0  0  0  0
 44 47  1  0  0  0  0
 44 43  1  0  0  0  0
 45 48  1  0  0  0  0
 47 50  1  6  0  0  0
 47 45  1  0  0  0  0
 48 42  1  6  0  0  0
 50 49  1  0  0  0  0
M  END
>  <MODEL>
1

>  <REMARK>
 VINA RESULT:      -4.0      0.000      0.000
  Name = 
  11 active torsions:
  status: ('A' for Active; 'I' for Inactive)
    1  A    between atoms: C_5  and  C_30
    2  A    between atoms: C_6  and  C_23
    3  A    between atoms: C_13  and  C_42
    4  A    between atoms: C_15  and  C_20
    5  A    between atoms: C_15  and  C_46
    6  A    between atoms: C_20  and  C_33
    7  A    between atoms: C_22  and  C_44
    8  A    between atoms: C_23  and  C_30
    9  A    between atoms: C_23  and  C_36
   10  A    between atoms: O_35  and  C_40
   11  A    between atoms: C_41  and  C_50
                            x       y       z     vdW  Elec       q    Type
                         _______ _______ _______ _____ _____    ______ ____

>  <TORSDO>
F 11

$$$$
=
 OpenBabel11072410413D

 50 55  0  0  1  0  0  0  0  0999 V2000
  157.5190  214.4520  154.6880 C   0  0  0  0  0  2  0  0  0  0  0  0
  155.7640  211.2000  154.1130 F   0  0  0  0  0  0  0  0  0  0  0  0
  157.9030  211.2310  155.1220 C   0  0  0  0  0  3  0  0  0  0  0  0
  156.6670  212.0120  154.7770 C   0  0  1  0  0  3  0  0  0  0  0  0
  159.0500  211.7120  155.6450 C   0  0  0  0  0  0  0  0  0  0  0  0
  156.9820  213.2480  153.9820 C   0  0  0  0  0  0  0  0  0  0  0  0
  158.1010  214.0940  156.0510 C   0  0  0  0  0  2  0  0  0  0  0  0
  159.3210  213.1890  155.8810 C   0  0  0  0  0  2  0  0  0  0  0  0
  157.1160  213.2010  151.3720 C   0  0  0  0  0  3  0  0  0  0  0  0
  157.0490  213.2080  152.6770 C   0  0  0  0  0  0  0  0  0  0  0  0
  161.8090  208.0050  154.1170 C   0  0  2  0  0  0  0  0  0  0  0  0
  161.3450  208.5880  155.4430 C   0  0  1  0  0  0  0  0  0  0  0  0
  159.9930  209.3050  155.5810 C   0  0  0  0  0  2  0  0  0  0  0  0
  162.4270  210.2700  156.7710 C   0  0  0  0  0  3  0  0  0  0  0  0
  161.3170  207.0840  155.2730 C   0  0  1  0  0  0  0  0  0  0  0  0
  160.0380  206.5840  154.9990 O   0  0  0  0  0  1  0  0  0  0  0  0
  162.4270  209.0600  156.3000 N   0  0  0  0  0  0  0  0  0  0  0  0
  160.1710  210.7710  155.9100 C   0  0  0  0  0  0  0  0  0  0  0  0
  161.3040  211.1900  156.5020 C   0  0  0  0  0  3  0  0  0  0  0  0
  162.3330  206.5860  154.2700 C   0  0  0  0  0  2  0  0  0  0  0  0
  160.1810  206.9830  152.6040 O   0  0  0  0  0  1  0  0  0  0  0  0
  160.7910  208.1940  152.9590 C   0  0  2  0  0  3  0  0  0  0  0  0
  161.4690  208.8110  151.7240 C   0  0  1  0  0  3  0  0  0  0  0  0
  161.9440  208.3870  149.3250 C   0  0  0  0  0  3  0  0  0  0  0  0
  160.7790  206.5930  150.6070 C   0  0  0  0  0  2  0  0  0  0  0  0
  160.6910  204.4930  149.4700 O   0  0  0  0  0  0  0  0  0  0  0  0
  161.4120  207.9590  150.4830 C   0  0  0  0  0  0  0  0  0  0  0  0
  161.9580  207.5480  148.1170 C   0  0  0  0  0  3  0  0  0  0  0  0
  161.5150  206.2820  148.1410 C   0  0  0  0  0  0  0  0  0  0  0  0
  160.9920  205.7180  149.4010 C   0  0  0  0  0  0  0  0  0  0  0  0
  161.5490  205.4760  146.9970 O   0  0  0  0  0  0  0  0  0  0  0  0
  162.7260  205.2810  146.2200 C   0  0  0  0  0  1  0  0  0  0  0  0
  160.1110  210.7550  152.1180 O   0  0  0  0  0  1  0  0  0  0  0  0
  161.0190  210.2120  151.4310 C   0  0  0  0  0  0  0  0  0  0  0  0
  161.6190  210.9200  150.3990 O   0  0  0  0  0  0  0  0  0  0  0  0
  158.5930  213.4740  149.3450 C   0  0  0  0  0  0  0  0  0  0  0  0
  158.3950  213.1880  150.6440 C   0  0  0  0  0  3  0  0  0  0  0  0
  157.7800  214.2820  147.1320 O   0  0  0  0  0  0  0  0  0  0  0  0
  156.4600  214.4510  148.9930 O   0  0  0  0  0  1  0  0  0  0  0  0
  157.5700  214.1170  148.4960 C   0  0  0  0  0  0  0  0  0  0  0  0
  160.9250  214.0070  149.4460 O   0  0  0  0  0  1  0  0  0  0  0  0
  159.9570  213.2720  148.7530 C   0  0  2  0  0  3  0  0  0  0  0  0
  160.0590  212.3330  146.4400 C   0  0  2  0  0  3  0  0  0  0  0  0
  160.9670  212.6940  145.3050 C   0  0  0  0  0  2  0  0  0  0  0  0
  161.0680  214.4180  146.9330 O   0  0  0  0  0  0  0  0  0  0  0  0
  158.7970  212.0090  145.9480 O   0  0  0  0  0  1  0  0  0  0  0  0
  161.3660  214.1260  145.5930 C   0  0  1  0  0  3  0  0  0  0  0  0
  159.9760  213.5980  147.2590 C   0  0  2  0  0  3  0  0  0  0  0  0
  163.3750  213.2280  144.6650 O   0  0  0  0  0  1  0  0  0  0  0  0
  162.8520  214.3260  145.3470 C   0  0  0  0  0  2  0  0  0  0  0  0
  1  7  1  0  0  0  0
  3  5  2  0  0  0  0
  4  2  1  6  0  0  0
  4  3  1  0  0  0  0
  5  8  1  0  0  0  0
  5 18  1  0  0  0  0
  6  1  1  0  0  0  0
  6  4  1  0  0  0  0
  8  7  1  0  0  0  0
  9 10  2  0  0  0  0
 10  6  2  0  0  0  0
 11 22  1  6  0  0  0
 11 20  1  0  0  0  0
 11 15  1  0  0  0  0
 11 12  1  0  0  0  0
 12 13  1  1  0  0  0
 12 17  1  0  0  0  0
 13 18  1  0  0  0  0
 15 16  1  6  0  0  0
 15 12  1  0  0  0  0
 17 14  2  0  0  0  0
 18 19  2  0  0  0  0
 19 14  1  0  0  0  0
 20 15  1  0  0  0  0
 22 21  1  6  0  0  0
 23 34  1  6  0  0  0
 23 22  1  0  0  0  0
 24 27  2  0  0  0  0
 27 25  1  0  0  0  0
 27 23  1  0  0  0  0
 28 29  2  0  0  0  0
 28 24  1  0  0  0  0
 29 30  1  0  0  0  0
 30 26  2  0  0  0  0
 30 25  1  0  0  0  0
 31 29  1  0  0  0  0
 32 31  1  0  0  0  0
 34 33  1  0  0  0  0
 35 34  2  0  0  0  0
 36 37  2  0  0  0  0
 37  9  1  0  0  0  0
 38 40  2  0  0  0  0
 40 39  1  0  0  0  0
 40 36  1  0  0  0  0
 42 36  1  0  0  0  0
 42 41  1  1  0  0  0
 43 46  1  6  0  0  0
 43 48  1  0  0  0  0
 44 47  1  0  0  0  0
 44 43  1  0  0  0  0
 45 48  1  0  0  0  0
 47 50  1  1  0  0  0
 47 45  1  0  0  0  0
 48 42  1  1  0  0  0
 49 50  1  0  0  0  0
M  END
>  <MODEL>
2

>  <REMARK>
 VINA RESULT:      -2.5      4.111      8.157
  Name = 
  11 active torsions:
  status: ('A' for Active; 'I' for Inactive)
    1  A    between atoms: C_5  and  C_30
    2  A    between atoms: C_6  and  C_23
    3  A    between atoms: C_13  and  C_42
    4  A    between atoms: C_15  and  C_20
    5  A    between atoms: C_15  and  C_46
    6  A    between atoms: C_20  and  C_33
    7  A    between atoms: C_22  and  C_44
    8  A    between atoms: C_23  and  C_30
    9  A    between atoms: C_23  and  C_36
   10  A    between atoms: O_35  and  C_40
   11  A    between atoms: C_41  and  C_50
                            x       y       z     vdW  Elec       q    Type
                         _______ _______ _______ _____ _____    ______ ____

>  <TORSDO>
F 11

$$$$
=
 OpenBabel11072410413D

 50 55  0  0  1  0  0  0  0  0999 V2000
  158.7670  210.0080  155.0560 C   0  0  0  0  0  2  0  0  0  0  0  0
  162.3400  211.0080  154.5910 F   0  0  0  0  0  0  0  0  0  0  0  0
  160.6890  211.7690  153.0770 C   0  0  0  0  0  3  0  0  0  0  0  0
  160.9780  211.1970  154.4360 C   0  0  1  0  0  3  0  0  0  0  0  0
  159.4780  211.9590  152.5150 C   0  0  0  0  0  0  0  0  0  0  0  0
  160.2150  209.9270  154.6900 C   0  0  0  0  0  0  0  0  0  0  0  0
  158.1610  211.3520  154.6680 C   0  0  0  0  0  2  0  0  0  0  0  0
  158.1690  211.5150  153.1480 C   0  0  0  0  0  2  0  0  0  0  0  0
  161.1780  207.5920  154.0170 C   0  0  0  0  0  3  0  0  0  0  0  0
  160.7080  208.7670  154.3450 C   0  0  0  0  0  0  0  0  0  0  0  0
  161.2700  212.1740  147.9950 C   0  0  2  0  0  0  0  0  0  0  0  0
  160.5030  213.0820  148.9440 C   0  0  1  0  0  0  0  0  0  0  0  0
  160.6760  212.9890  150.4680 C   0  0  0  0  0  2  0  0  0  0  0  0
  158.1240  213.2940  149.1780 C   0  0  0  0  0  3  0  0  0  0  0  0
  161.6490  213.6760  148.1520 C   0  0  1  0  0  0  0  0  0  0  0  0
  162.8240  213.8160  148.9030 O   0  0  0  0  0  1  0  0  0  0  0  0
  159.1870  213.4810  148.4570 N   0  0  0  0  0  0  0  0  0  0  0  0
  159.4020  212.5350  151.1460 C   0  0  0  0  0  0  0  0  0  0  0  0
  158.2180  212.7250  150.5370 C   0  0  0  0  0  3  0  0  0  0  0  0
  161.9060  212.9480  146.8520 C   0  0  0  0  0  2  0  0  0  0  0  0
  163.2880  210.7950  147.8820 O   0  0  0  0  0  1  0  0  0  0  0  0
  162.2280  211.1830  148.7130 C   0  0  2  0  0  3  0  0  0  0  0  0
  161.4700  209.9360  149.1980 C   0  0  1  0  0  3  0  0  0  0  0  0
  162.8440  207.9230  148.7280 C   0  0  0  0  0  3  0  0  0  0  0  0
  160.8000  208.2760  147.3430 C   0  0  0  0  0  2  0  0  0  0  0  0
  160.1680  206.3700  146.0490 O   0  0  0  0  0  0  0  0  0  0  0  0
  161.7720  208.6770  148.4270 C   0  0  0  0  0  0  0  0  0  0  0  0
  163.1250  206.6570  148.0330 C   0  0  0  0  0  3  0  0  0  0  0  0
  162.2740  206.1550  147.1260 C   0  0  0  0  0  0  0  0  0  0  0  0
  161.0350  206.8900  146.8050 C   0  0  0  0  0  0  0  0  0  0  0  0
  162.5310  204.9390  146.4810 O   0  0  0  0  0  0  0  0  0  0  0  0
  163.1090  204.8560  145.1830 C   0  0  0  0  0  1  0  0  0  0  0  0
  160.6130  209.2510  151.3370 O   0  0  0  0  0  1  0  0  0  0  0  0
  161.5880  209.7000  150.6740 C   0  0  0  0  0  0  0  0  0  0  0  0
  162.7900  209.9690  151.3150 O   0  0  0  0  0  0  0  0  0  0  0  0
  161.4990  206.2850  151.8840 C   0  0  0  0  0  0  0  0  0  0  0  0
  160.7270  206.8640  152.8210 C   0  0  0  0  0  3  0  0  0  0  0  0
  163.4480  205.5360  153.2440 O   0  0  0  0  0  1  0  0  0  0  0  0
  163.7370  206.2740  151.0980 O   0  0  0  0  0  0  0  0  0  0  0  0
  162.9480  206.0620  152.0580 C   0  0  0  0  0  0  0  0  0  0  0  0
  159.8350  206.5380  150.1800 O   0  0  0  0  0  1  0  0  0  0  0  0
  160.8500  205.7040  150.6620 C   0  0  2  0  0  3  0  0  0  0  0  0
  161.3280  203.4970  151.7300 C   0  0  2  0  0  3  0  0  0  0  0  0
  161.2620  202.1210  151.1420 C   0  0  0  0  0  2  0  0  0  0  0  0
  160.0910  203.6110  149.7130 O   0  0  0  0  0  0  0  0  0  0  0  0
  160.9230  203.4580  153.0620 O   0  0  0  0  0  1  0  0  0  0  0  0
  160.2640  202.2500  150.0100 C   0  0  1  0  0  3  0  0  0  0  0  0
  160.3320  204.2890  150.9180 C   0  0  2  0  0  3  0  0  0  0  0  0
  161.4370  202.4020  147.9340 O   0  0  0  0  0  1  0  0  0  0  0  0
  160.7610  201.5180  148.7740 C   0  0  0  0  0  2  0  0  0  0  0  0
  3  4  1  0  0  0  0
  4  2  1  6  0  0  0
  4  6  1  0  0  0  0
  5  3  2  0  0  0  0
  5  8  1  0  0  0  0
  6  1  1  0  0  0  0
  7  1  1  0  0  0  0
  8  7  1  0  0  0  0
  9 10  2  0  0  0  0
 10  6  2  0  0  0  0
 11 15  1  0  0  0  0
 11 22  1  1  0  0  0
 11 12  1  0  0  0  0
 12 13  1  1  0  0  0
 13 18  1  0  0  0  0
 14 19  1  0  0  0  0
 15 16  1  1  0  0  0
 15 12  1  0  0  0  0
 17 12  1  0  0  0  0
 17 14  2  0  0  0  0
 18  5  1  0  0  0  0
 19 18  2  0  0  0  0
 20 11  1  0  0  0  0
 20 15  1  0  0  0  0
 22 21  1  6  0  0  0
 22 23  1  0  0  0  0
 23 34  1  1  0  0  0
 25 27  1  0  0  0  0
 26 30  2  0  0  0  0
 27 24  2  0  0  0  0
 27 23  1  0  0  0  0
 28 24  1  0  0  0  0
 29 28  2  0  0  0  0
 30 29  1  0  0  0  0
 30 25  1  0  0  0  0
 31 29  1  0  0  0  0
 32 31  1  0  0  0  0
 34 35  2  0  0  0  0
 34 33  1  0  0  0  0
 36 40  1  0  0  0  0
 36 37  2  0  0  0  0
 37  9  1  0  0  0  0
 39 40  2  0  0  0  0
 40 38  1  0  0  0  0
 42 41  1  1  0  0  0
 42 36  1  0  0  0  0
 43 46  1  1  0  0  0
 44 43  1  0  0  0  0
 45 47  1  0  0  0  0
 45 48  1  0  0  0  0
 47 50  1  6  0  0  0
 47 44  1  0  0  0  0
 48 42  1  6  0  0  0
 48 43  1  0  0  0  0
 49 50  1  0  0  0  0
M  END
>  <MODEL>
3

>  <REMARK>
 VINA RESULT:      -1.6      5.011     10.070
  Name = 
  11 active torsions:
  status: ('A' for Active; 'I' for Inactive)
    1  A    between atoms: C_5  and  C_30
    2  A    between atoms: C_6  and  C_23
    3  A    between atoms: C_13  and  C_42
    4  A    between atoms: C_15  and  C_20
    5  A    between atoms: C_15  and  C_46
    6  A    between atoms: C_20  and  C_33
    7  A    between atoms: C_22  and  C_44
    8  A    between atoms: C_23  and  C_30
    9  A    between atoms: C_23  and  C_36
   10  A    between atoms: O_35  and  C_40
   11  A    between atoms: C_41  and  C_50
                            x       y       z     vdW  Elec       q    Type
                         _______ _______ _______ _____ _____    ______ ____

>  <TORSDO>
F 11

$$$$
