=
 OpenBabel11072413483D

 29 31  0  0  1  0  0  0  0  0999 V2000
  158.2010  214.4530  143.4860 C   0  0  0  0  0  2  0  0  0  0  0  0
  159.7270  214.1250  138.9440 F   0  0  0  0  0  0  0  0  0  0  0  0
  156.2140  213.8840  139.4240 C   0  0  0  0  0  3  0  0  0  0  0  0
  163.0030  214.2410  142.0790 C   0  0  0  0  0  3  0  0  0  0  0  0
  158.6500  213.1480  143.9480 N   0  0  0  0  0  2  0  0  0  0  0  0
  158.0830  213.1830  137.0110 C   0  0  0  0  0  1  0  0  0  0  0  0
  156.4240  214.4340  141.8460 C   0  0  0  0  0  3  0  0  0  0  0  0
  160.3810  211.1750  144.2840 S   0  0  0  0  0  0  0  0  0  0  0  0
  158.7770  214.4420  141.0110 C   0  0  0  0  0  3  0  0  0  0  0  0
  158.5440  210.1410  137.0330 O   0  0  0  0  0  0  0  0  0  0  0  0
  158.6800  213.9300  139.7850 C   0  0  0  0  0  0  0  0  0  0  0  0
  157.4840  213.0950  139.3840 C   0  0  2  0  0  3  0  0  0  0  0  0
  155.7440  214.4410  140.5380 C   0  0  0  0  0  3  0  0  0  0  0  0
  157.5910  212.3630  138.1130 N   0  0  0  0  0  0  0  0  0  0  0  0
  162.1590  211.9350  141.5150 C   0  0  0  0  0  3  0  0  0  0  0  0
  158.0660  210.1290  139.4380 O   0  0  0  0  0  0  0  0  0  0  0  0
  160.9010  213.4460  142.9460 N   0  0  0  0  0  2  0  0  0  0  0  0
  160.8830  209.2650  139.2750 O   0  0  0  0  0  0  0  0  0  0  0  0
  163.4560  213.2490  139.9530 C   0  0  0  0  0  0  0  0  0  0  0  0
  162.6050  210.9010  139.3160 C   0  0  0  0  0  2  0  0  0  0  0  0
  163.5420  214.3180  140.8960 N   0  0  0  0  0  0  0  0  0  0  0  0
  157.7450  214.3830  142.0690 C   0  0  0  0  0  0  0  0  0  0  0  0
  162.2410  213.0310  142.5530 C   0  0  2  0  0  3  0  0  0  0  0  0
  162.7030  212.0340  140.3000 C   0  0  0  0  0  0  0  0  0  0  0  0
  158.5920  210.9530  138.2980 S   0  0  0  0  0  0  0  0  0  0  0  0
  161.2000  210.4680  139.0810 C   0  0  0  0  0  0  0  0  0  0  0  0
  164.0470  213.3400  138.8430 O   0  0  0  0  0  0  0  0  0  0  0  0
  159.9630  212.6450  143.6850 C   0  0  0  0  0  0  0  0  0  0  0  0
  160.2320  211.4040  138.6140 N   0  0  0  0  0  2  0  0  0  0  0  0
  1  5  1  0  0  0  0
  2 11  1  0  0  0  0
  3 13  2  0  0  0  0
  4 23  1  0  0  0  0
  6 14  1  0  0  0  0
  7 22  2  0  0  0  0
  9 22  1  0  0  0  0
 10 25  2  0  0  0  0
 11  9  2  0  0  0  0
 12  3  1  6  0  0  0
 12 11  1  0  0  0  0
 13  7  1  0  0  0  0
 14 25  1  0  0  0  0
 14 12  1  0  0  0  0
 17 28  1  0  0  0  0
 19 24  1  0  0  0  0
 19 21  1  0  0  0  0
 20 24  1  0  0  0  0
 21  4  2  0  0  0  0
 22  1  1  0  0  0  0
 23 15  1  6  0  0  0
 23 17  1  0  0  0  0
 24 15  2  0  0  0  0
 25 29  1  0  0  0  0
 25 16  2  0  0  0  0
 26 18  2  0  0  0  0
 26 20  1  0  0  0  0
 27 19  2  0  0  0  0
 28  5  1  0  0  0  0
 28  8  2  0  0  0  0
 29 26  1  0  0  0  0
M  END
>  <MODEL>
1

>  <REMARK>
 VINA RESULT:      -1.9      0.000      0.000
  Name = 
  0 active torsions:
  status: ('A' for Active; 'I' for Inactive)
                            x       y       z     vdW  Elec       q    Type
                         _______ _______ _______ _____ _____    ______ ____

>  <TORSDO>
F 0

$$$$
=
 OpenBabel11072413483D

 29 31  0  0  1  0  0  0  0  0999 V2000
  154.6630  213.7620  153.0830 C   0  0  0  0  0  2  0  0  0  0  0  0
  159.4150  214.4530  153.0110 F   0  0  0  0  0  0  0  0  0  0  0  0
  157.8720  213.9300  149.8530 C   0  0  0  0  0  3  0  0  0  0  0  0
  157.5770  214.1010  157.1430 C   0  0  0  0  0  3  0  0  0  0  0  0
  154.6590  212.4160  153.6380 N   0  0  0  0  0  2  0  0  0  0  0  0
  160.8540  213.8400  150.8030 C   0  0  0  0  0  1  0  0  0  0  0  0
  155.5950  213.9830  150.8640 C   0  0  0  0  0  3  0  0  0  0  0  0
  155.3340  210.5120  155.3480 S   0  0  0  0  0  0  0  0  0  0  0  0
  157.1330  214.2890  152.8060 C   0  0  0  0  0  3  0  0  0  0  0  0
  161.6270  210.8870  151.1910 O   0  0  0  0  0  0  0  0  0  0  0  0
  158.3380  214.0340  152.2990 C   0  0  0  0  0  0  0  0  0  0  0  0
  158.4920  213.2360  151.0240 C   0  0  2  0  0  3  0  0  0  0  0  0
  156.5750  214.2220  149.7890 C   0  0  0  0  0  3  0  0  0  0  0  0
  159.8510  212.7860  150.6900 N   0  0  0  0  0  0  0  0  0  0  0  0
  158.3060  211.9170  156.1190 C   0  0  0  0  0  3  0  0  0  0  0  0
  159.2580  210.3570  151.5390 O   0  0  0  0  0  0  0  0  0  0  0  0
  156.2570  213.0330  155.4340 N   0  0  0  0  0  2  0  0  0  0  0  0
  160.5140  209.6980  154.1260 O   0  0  0  0  0  0  0  0  0  0  0  0
  159.8930  213.5910  156.8470 C   0  0  0  0  0  0  0  0  0  0  0  0
  160.6950  211.3810  155.7930 C   0  0  0  0  0  2  0  0  0  0  0  0
  158.8270  214.4470  157.2610 N   0  0  0  0  0  0  0  0  0  0  0  0
  155.8330  213.9580  152.1830 C   0  0  0  0  0  0  0  0  0  0  0  0
  157.1460  212.7800  156.5600 C   0  0  2  0  0  3  0  0  0  0  0  0
  159.5830  212.2920  156.2310 C   0  0  0  0  0  0  0  0  0  0  0  0
  160.3070  211.4240  151.6710 S   0  0  0  0  0  0  0  0  0  0  0  0
  160.5430  210.9300  154.3810 C   0  0  0  0  0  0  0  0  0  0  0  0
  161.0890  213.9390  157.0390 O   0  0  0  0  0  0  0  0  0  0  0  0
  155.4380  212.0490  154.7800 C   0  0  0  0  0  0  0  0  0  0  0  0
  160.4580  211.8880  153.3310 N   0  0  0  0  0  2  0  0  0  0  0  0
  1  5  1  0  0  0  0
  4 21  2  0  0  0  0
  5 28  1  0  0  0  0
  7 22  2  0  0  0  0
 10 25  2  0  0  0  0
 11  9  2  0  0  0  0
 11  2  1  0  0  0  0
 12  3  1  6  0  0  0
 12 11  1  0  0  0  0
 13  3  2  0  0  0  0
 13  7  1  0  0  0  0
 14  6  1  0  0  0  0
 14 12  1  0  0  0  0
 14 25  1  0  0  0  0
 15 24  2  0  0  0  0
 16 25  2  0  0  0  0
 17 23  1  0  0  0  0
 18 26  2  0  0  0  0
 19 27  2  0  0  0  0
 19 21  1  0  0  0  0
 20 24  1  0  0  0  0
 22  9  1  0  0  0  0
 22  1  1  0  0  0  0
 23 15  1  6  0  0  0
 23  4  1  0  0  0  0
 24 19  1  0  0  0  0
 25 29  1  0  0  0  0
 26 20  1  0  0  0  0
 28  8  2  0  0  0  0
 28 17  1  0  0  0  0
 29 26  1  0  0  0  0
M  END
>  <MODEL>
2

>  <REMARK>
 VINA RESULT:       0.3     11.264     13.713
  Name = 
  0 active torsions:
  status: ('A' for Active; 'I' for Inactive)
                            x       y       z     vdW  Elec       q    Type
                         _______ _______ _______ _____ _____    ______ ____

>  <TORSDO>
F 0

$$$$
