=
 OpenBabel11072410253D

 51 56  0  0  1  0  0  0  0  0999 V2000
  160.5730  208.4170  154.4160 C   0  0  0  0  0  2  0  0  0  0  0  0
  161.1350  209.0720  153.2550 N   0  0  0  0  0  0  0  0  0  0  0  0
  160.0510  210.7950  154.4500 C   0  0  1  0  0  0  0  0  0  0  0  0
  160.9500  210.5110  153.2550 C   0  0  0  0  0  2  0  0  0  0  0  0
  161.3890  211.0500  156.3780 C   0  0  0  0  0  2  0  0  0  0  0  0
  160.9170  209.7170  156.4090 O   0  0  0  0  0  0  0  0  0  0  0  0
  160.0630  209.5380  155.3030 C   0  0  2  0  0  3  0  0  0  0  0  0
  160.6360  211.8460  155.3330 C   0  0  0  0  0  2  0  0  0  0  0  0
  161.5700  208.3630  152.0900 C   0  0  0  0  0  0  0  0  0  0  0  0
  162.5190  208.8130  151.3930 O   0  0  0  0  0  0  0  0  0  0  0  0
  157.7060  211.0950  154.8820 O   0  0  0  0  0  0  0  0  0  0  0  0
  158.6420  211.1220  154.0420 C   0  0  0  0  0  0  0  0  0  0  0  0
  158.3890  211.4780  152.7130 O   0  0  0  0  0  0  0  0  0  0  0  0
  158.5930  213.9590  146.0700 C   0  0  0  0  0  2  0  0  0  0  0  0
  158.7270  212.7510  152.1280 C   0  0  2  0  0  0  0  0  0  0  0  0
  156.8830  214.0870  149.1510 O   0  0  0  0  0  0  0  0  0  0  0  0
  157.7370  213.5360  148.1590 C   0  0  2  0  0  3  0  0  0  0  0  0
  159.8990  214.4180  146.5460 N   0  0  0  0  0  2  0  0  0  0  0  0
  160.3970  213.1240  150.6970 O   0  0  0  0  0  0  0  0  0  0  0  0
  156.8600  213.2750  150.3140 C   0  0  0  0  0  2  0  0  0  0  0  0
  161.3870  214.4520  148.3740 N   0  0  0  0  0  2  0  0  0  0  0  0
  158.2640  212.8190  150.7150 C   0  0  1  0  0  3  0  0  0  0  0  0
  160.2120  214.1630  147.9070 C   0  0  0  0  0  0  0  0  0  0  0  0
  159.2690  213.6390  150.1360 N   0  0  2  0  0  0  0  0  0  0  0  0
  159.2160  213.3550  148.7030 C   0  0  1  0  0  3  0  0  0  0  0  0
  157.6150  214.3430  147.0020 O   0  0  0  0  0  0  0  0  0  0  0  0
  160.1310  212.9030  151.9980 O   0  0  0  0  0  0  0  0  0  0  0  0
  158.1950  213.8590  153.0210 C   0  0  0  0  0  0  0  0  0  0  0  0
  158.9190  214.4410  153.8260 O   0  0  0  0  0  0  0  0  0  0  0  0
  156.1130  213.8070  154.1350 O   0  0  0  0  0  1  0  0  0  0  0  0
  156.7410  214.2110  152.9670 C   0  0  0  0  0  2  0  0  0  0  0  0
  160.8760  207.1080  151.6690 C   0  0  0  0  0  2  0  0  0  0  0  0
  161.8340  206.0850  151.0610 C   0  0  1  0  0  3  0  0  0  0  0  0
  162.8280  205.7210  151.9670 O   0  0  0  0  0  1  0  0  0  0  0  0
  161.1180  204.8690  150.4580 C   0  0  2  0  0  3  0  0  0  0  0  0
  161.0440  203.8090  151.3620 O   0  0  0  0  0  0  0  0  0  0  0  0
  159.7630  203.6290  151.5530 O   0  0  0  0  0  1  0  0  0  0  0  0
  161.6680  204.4210  149.0780 C   0  0  2  0  0  3  0  0  0  0  0  0
  160.9350  204.9330  147.8370 C   0  0  1  0  0  3  0  0  0  0  0  0
  160.0570  205.9890  148.1150 O   0  0  0  0  0  1  0  0  0  0  0  0
  162.9410  204.7460  146.6190 O   0  0  0  0  0  0  0  0  0  0  0  0
  161.5280  206.4230  145.8240 C   0  0  0  0  0  1  0  0  0  0  0  0
  161.8770  205.3140  146.7460 C   0  0  0  0  0  0  0  0  0  0  0  0
  161.8180  203.0100  148.9930 O   0  0  0  0  0  0  0  0  0  0  0  0
  159.9430  201.6930  148.5810 N   0  0  0  0  0  2  0  0  0  0  0  0
  161.4920  201.9370  146.8160 N   0  0  0  0  0  2  0  0  0  0  0  0
  161.0510  202.2100  148.1440 C   0  0  0  0  0  0  0  0  0  0  0  0
  160.0310  201.8300  144.8030 C   0  0  0  0  0  2  0  0  0  0  0  0
  159.3590  201.4080  145.9750 O   0  0  0  0  0  0  0  0  0  0  0  0
  161.0070  199.6500  145.7880 C   0  0  0  0  0  1  0  0  0  0  0  0
  160.7250  201.1310  145.8880 C   0  0  2  0  0  0  0  0  0  0  0  0
  2  1  1  0  0  0  0
  3 12  1  6  0  0  0
  3  7  1  0  0  0  0
  3  8  1  0  0  0  0
  4  2  1  0  0  0  0
  4  3  1  0  0  0  0
  5  6  1  0  0  0  0
  7  1  1  6  0  0  0
  7  6  1  0  0  0  0
  8  5  1  0  0  0  0
  9  2  1  0  0  0  0
 10  9  2  0  0  0  0
 12 11  2  0  0  0  0
 13 12  1  0  0  0  0
 14 18  1  0  0  0  0
 14 26  1  0  0  0  0
 15 13  1  1  0  0  0
 15 28  1  0  0  0  0
 16 20  1  0  0  0  0
 17 26  1  6  0  0  0
 17 25  1  0  0  0  0
 17 16  1  0  0  0  0
 18 23  1  0  0  0  0
 19 27  1  0  0  0  0
 22 20  1  1  0  0  0
 22 15  1  0  0  0  0
 23 21  2  0  0  0  0
 24 19  1  1  0  0  0
 24 22  1  0  0  0  0
 25 23  1  6  0  0  0
 25 24  1  0  0  0  0
 27 15  1  0  0  0  0
 28 29  2  0  0  0  0
 31 28  1  0  0  0  0
 31 30  1  0  0  0  0
 32  9  1  0  0  0  0
 33 32  1  0  0  0  0
 33 34  1  1  0  0  0
 35 33  1  0  0  0  0
 35 36  1  1  0  0  0
 36 37  1  0  0  0  0
 38 44  1  1  0  0  0
 38 35  1  0  0  0  0
 39 40  1  1  0  0  0
 39 38  1  0  0  0  0
 41 43  2  0  0  0  0
 42 43  1  0  0  0  0
 43 39  1  0  0  0  0
 46 47  1  0  0  0  0
 47 45  2  0  0  0  0
 47 44  1  0  0  0  0
 48 51  1  0  0  0  0
 48 49  1  0  0  0  0
 51 50  1  6  0  0  0
 51 49  1  0  0  0  0
 51 46  1  0  0  0  0
M  END
>  <MODEL>
1

>  <REMARK>
 VINA RESULT:      -5.6      0.000      0.000
  Name = 
  15 active torsions:
  status: ('A' for Active; 'I' for Inactive)
    1  A    between atoms: C_2  and  C_4
    2  A    between atoms: C_2  and  O_13
    3  A    between atoms: C_3  and  C_23
    4  A    between atoms: C_3  and  C_46
    5  A    between atoms: C_4  and  C_50
    6  A    between atoms: C_7  and  O_9
    7  A    between atoms: C_7  and  C_10
    8  A    between atoms: C_7  and  C_23
    9  A    between atoms: C_10  and  C_11
   10  A    between atoms: C_11  and  C_44
   11  A    between atoms: O_13  and  C_49
   12  A    between atoms: C_18  and  C_49
   13  A    between atoms: C_23  and  O_28
   14  A    between atoms: N_26  and  C_48
   15  A    between atoms: O_28  and  C_32
                            x       y       z     vdW  Elec       q    Type
                         _______ _______ _______ _____ _____    ______ ____

>  <TORSDO>
F 15

$$$$
=
 OpenBabel11072410253D

 51 56  0  0  1  0  0  0  0  0999 V2000
  159.8750  212.3480  146.1530 C   0  0  0  0  0  2  0  0  0  0  0  0
  161.0440  213.2000  146.1300 N   0  0  0  0  0  0  0  0  0  0  0  0
  160.2350  213.2300  143.9130 C   0  0  1  0  0  0  0  0  0  0  0  0
  161.2670  213.8430  144.8490 C   0  0  0  0  0  2  0  0  0  0  0  0
  158.2220  214.4490  144.0800 C   0  0  0  0  0  2  0  0  0  0  0  0
  158.0580  213.3170  144.9130 O   0  0  0  0  0  0  0  0  0  0  0  0
  159.2190  212.5280  144.7970 C   0  0  2  0  0  3  0  0  0  0  0  0
  159.4470  214.2820  143.2080 C   0  0  0  0  0  2  0  0  0  0  0  0
  162.0400  213.1910  147.1580 C   0  0  0  0  0  0  0  0  0  0  0  0
  162.6790  214.2430  147.4300 O   0  0  0  0  0  0  0  0  0  0  0  0
  160.4200  211.0640  142.8890 O   0  0  0  0  0  0  0  0  0  0  0  0
  160.8460  212.2460  142.9550 C   0  0  0  0  0  0  0  0  0  0  0  0
  161.8830  212.6710  142.1180 O   0  0  0  0  0  0  0  0  0  0  0  0
  157.8290  209.2780  137.3880 C   0  0  0  0  0  2  0  0  0  0  0  0
  162.0880  212.2110  140.7690 C   0  0  2  0  0  0  0  0  0  0  0  0
  159.3480  212.3500  138.2160 O   0  0  0  0  0  0  0  0  0  0  0  0
  158.8260  211.0520  138.4540 C   0  0  2  0  0  3  0  0  0  0  0  0
  159.0470  208.4710  137.2950 N   0  0  0  0  0  2  0  0  0  0  0  0
  162.0020  210.0880  140.0890 O   0  0  0  0  0  0  0  0  0  0  0  0
  159.9230  212.8940  139.3930 C   0  0  0  0  0  2  0  0  0  0  0  0
  161.2360  208.1730  138.1170 N   0  0  0  0  0  2  0  0  0  0  0  0
  160.7900  211.8700  140.1260 C   0  0  1  0  0  3  0  0  0  0  0  0
  160.1580  208.8920  138.0720 C   0  0  0  0  0  0  0  0  0  0  0  0
  161.1780  210.8020  139.2730 N   0  0  2  0  0  0  0  0  0  0  0  0
  159.9450  210.0660  138.9960 C   0  0  1  0  0  3  0  0  0  0  0  0
  158.1780  210.6320  137.2660 O   0  0  0  0  0  0  0  0  0  0  0  0
  162.7780  210.9720  140.7450 O   0  0  0  0  0  0  0  0  0  0  0  0
  162.9130  213.2430  140.0180 C   0  0  0  0  0  0  0  0  0  0  0  0
  162.7690  214.4480  140.2110 O   0  0  0  0  0  0  0  0  0  0  0  0
  163.2040  212.4810  137.8010 O   0  0  0  0  0  1  0  0  0  0  0  0
  163.8820  212.7880  138.9710 C   0  0  0  0  0  2  0  0  0  0  0  0
  162.3580  211.9250  147.8890 C   0  0  0  0  0  2  0  0  0  0  0  0
  161.9310  211.9730  149.3550 C   0  0  1  0  0  3  0  0  0  0  0  0
  160.6710  212.5490  149.4970 O   0  0  0  0  0  1  0  0  0  0  0  0
  162.0350  210.6140  150.0600 C   0  0  2  0  0  3  0  0  0  0  0  0
  161.3690  209.6110  149.3550 O   0  0  0  0  0  0  0  0  0  0  0  0
  162.3090  208.7680  149.0170 O   0  0  0  0  0  1  0  0  0  0  0  0
  161.6340  210.6370  151.5590 C   0  0  2  0  0  3  0  0  0  0  0  0
  162.3160  209.6230  152.4780 C   0  0  1  0  0  3  0  0  0  0  0  0
  163.1240  210.2220  153.4530 O   0  0  0  0  0  1  0  0  0  0  0  0
  160.8520  208.9510  154.1950 O   0  0  0  0  0  0  0  0  0  0  0  0
  160.9810  207.4230  152.4360 C   0  0  0  0  0  1  0  0  0  0  0  0
  161.3390  208.6940  153.1130 C   0  0  0  0  0  0  0  0  0  0  0  0
  160.2250  210.5680  151.7380 O   0  0  0  0  0  0  0  0  0  0  0  0
  159.9110  212.7270  152.5470 N   0  0  0  0  0  2  0  0  0  0  0  0
  158.3460  211.0910  153.2180 N   0  0  0  0  0  2  0  0  0  0  0  0
  159.5040  211.4960  152.4900 C   0  0  0  0  0  0  0  0  0  0  0  0
  157.4250  211.7560  155.4340 C   0  0  0  0  0  2  0  0  0  0  0  0
  156.4080  211.4020  154.5160 O   0  0  0  0  0  0  0  0  0  0  0  0
  157.2620  213.3920  153.4410 C   0  0  0  0  0  1  0  0  0  0  0  0
  157.5500  212.0170  153.9970 C   0  0  2  0  0  0  0  0  0  0  0  0
  2  1  1  0  0  0  0
  2  9  1  0  0  0  0
  3 12  1  6  0  0  0
  3  7  1  0  0  0  0
  3  4  1  0  0  0  0
  4  2  1  0  0  0  0
  5  6  1  0  0  0  0
  7  6  1  0  0  0  0
  7  1  1  1  0  0  0
  8  3  1  0  0  0  0
  8  5  1  0  0  0  0
  9 10  2  0  0  0  0
  9 32  1  0  0  0  0
 11 12  2  0  0  0  0
 13 12  1  0  0  0  0
 15 28  1  6  0  0  0
 15 13  1  0  0  0  0
 16 17  1  0  0  0  0
 16 20  1  0  0  0  0
 17 26  1  6  0  0  0
 17 25  1  0  0  0  0
 18 14  1  0  0  0  0
 18 23  1  0  0  0  0
 19 27  1  0  0  0  0
 22 20  1  6  0  0  0
 22 15  1  0  0  0  0
 23 21  2  0  0  0  0
 24 19  1  1  0  0  0
 24 22  1  0  0  0  0
 25 23  1  6  0  0  0
 25 24  1  0  0  0  0
 26 14  1  0  0  0  0
 27 15  1  0  0  0  0
 28 29  2  0  0  0  0
 30 31  1  0  0  0  0
 31 28  1  0  0  0  0
 32 33  1  0  0  0  0
 33 34  1  6  0  0  0
 33 35  1  0  0  0  0
 35 36  1  6  0  0  0
 35 38  1  0  0  0  0
 37 36  1  0  0  0  0
 38 44  1  6  0  0  0
 38 39  1  0  0  0  0
 39 43  1  0  0  0  0
 39 40  1  1  0  0  0
 42 43  1  0  0  0  0
 43 41  2  0  0  0  0
 44 47  1  0  0  0  0
 46 51  1  0  0  0  0
 47 45  2  0  0  0  0
 47 46  1  0  0  0  0
 49 48  1  0  0  0  0
 51 50  1  6  0  0  0
 51 49  1  0  0  0  0
 51 48  1  0  0  0  0
M  END
>  <MODEL>
2

>  <REMARK>
 VINA RESULT:      -5.5      5.699     10.842
  Name = 
  15 active torsions:
  status: ('A' for Active; 'I' for Inactive)
    1  A    between atoms: C_2  and  C_4
    2  A    between atoms: C_2  and  O_13
    3  A    between atoms: C_3  and  C_23
    4  A    between atoms: C_3  and  C_46
    5  A    between atoms: C_4  and  C_50
    6  A    between atoms: C_7  and  O_9
    7  A    between atoms: C_7  and  C_10
    8  A    between atoms: C_7  and  C_23
    9  A    between atoms: C_10  and  C_11
   10  A    between atoms: C_11  and  C_44
   11  A    between atoms: O_13  and  C_49
   12  A    between atoms: C_18  and  C_49
   13  A    between atoms: C_23  and  O_28
   14  A    between atoms: N_26  and  C_48
   15  A    between atoms: O_28  and  C_32
                            x       y       z     vdW  Elec       q    Type
                         _______ _______ _______ _____ _____    ______ ____

>  <TORSDO>
F 15

$$$$
=
 OpenBabel11072410253D

 51 56  0  0  1  0  0  0  0  0999 V2000
  158.6700  214.4220  152.8740 C   0  0  0  0  0  2  0  0  0  0  0  0
  157.4650  213.7830  152.3920 N   0  0  0  0  0  0  0  0  0  0  0  0
  158.2130  212.4020  154.1540 C   0  0  1  0  0  0  0  0  0  0  0  0
  157.0720  212.6240  153.1710 C   0  0  0  0  0  2  0  0  0  0  0  0
  157.8400  213.7170  156.0770 C   0  0  0  0  0  2  0  0  0  0  0  0
  158.7450  214.4530  155.2770 O   0  0  0  0  0  0  0  0  0  0  0  0
  159.0430  213.6740  154.1400 C   0  0  2  0  0  3  0  0  0  0  0  0
  157.7120  212.3020  155.5550 C   0  0  0  0  0  2  0  0  0  0  0  0
  156.8790  214.0760  151.1190 C   0  0  0  0  0  0  0  0  0  0  0  0
  155.6320  213.9850  150.9600 O   0  0  0  0  0  0  0  0  0  0  0  0
  159.0030  210.7220  152.6270 O   0  0  0  0  0  0  0  0  0  0  0  0
  159.0730  211.2270  153.7770 C   0  0  0  0  0  0  0  0  0  0  0  0
  159.9700  210.7160  154.7200 O   0  0  0  0  0  0  0  0  0  0  0  0
  161.4970  206.6890  149.0840 C   0  0  0  0  0  2  0  0  0  0  0  0
  160.9730  209.7200  154.4420 C   0  0  2  0  0  0  0  0  0  0  0  0
  162.5440  209.4200  151.0520 O   0  0  0  0  0  0  0  0  0  0  0  0
  161.6270  208.4760  150.5220 C   0  0  2  0  0  3  0  0  0  0  0  0
  161.5180  205.6670  150.1320 N   0  0  0  0  0  2  0  0  0  0  0  0
  160.5820  207.5790  153.9560 O   0  0  0  0  0  0  0  0  0  0  0  0
  161.9210  210.2510  152.0190 C   0  0  0  0  0  2  0  0  0  0  0  0
  161.2230  205.2520  152.4340 N   0  0  0  0  0  2  0  0  0  0  0  0
  161.0480  209.4440  152.9810 C   0  0  1  0  0  3  0  0  0  0  0  0
  161.3160  206.1100  151.4650 C   0  0  0  0  0  0  0  0  0  0  0  0
  161.3970  208.0670  152.9810 N   0  0  2  0  0  0  0  0  0  0  0  0
  160.9980  207.5710  151.6640 C   0  0  1  0  0  3  0  0  0  0  0  0
  162.2970  207.7680  149.4940 O   0  0  0  0  0  0  0  0  0  0  0  0
  160.6090  208.4580  154.9750 O   0  0  0  0  0  0  0  0  0  0  0  0
  162.2860  210.1570  155.0700 C   0  0  0  0  0  0  0  0  0  0  0  0
  163.2370  210.5270  154.3860 O   0  0  0  0  0  0  0  0  0  0  0  0
  163.6210  210.7120  156.9380 O   0  0  0  0  0  1  0  0  0  0  0  0
  162.4500  210.0750  156.5560 C   0  0  0  0  0  2  0  0  0  0  0  0
  157.7450  214.4510  149.9590 C   0  0  0  0  0  2  0  0  0  0  0  0
  158.0970  213.2530  149.0790 C   0  0  1  0  0  3  0  0  0  0  0  0
  157.0840  212.2970  149.0970 O   0  0  0  0  0  1  0  0  0  0  0  0
  158.5020  213.6480  147.6530 C   0  0  2  0  0  3  0  0  0  0  0  0
  157.5990  213.1680  146.7040 O   0  0  0  0  0  0  0  0  0  0  0  0
  156.8670  214.2040  146.3910 O   0  0  0  0  0  1  0  0  0  0  0  0
  159.9700  213.3070  147.2850 C   0  0  2  0  0  3  0  0  0  0  0  0
  161.0380  213.5990  148.3410 C   0  0  1  0  0  3  0  0  0  0  0  0
  160.8720  212.8470  149.5120 O   0  0  0  0  0  1  0  0  0  0  0  0
  163.0130  214.3680  147.3180 O   0  0  0  0  0  0  0  0  0  0  0  0
  163.0630  212.0940  147.8370 C   0  0  0  0  0  1  0  0  0  0  0  0
  162.4190  213.4300  147.8060 C   0  0  0  0  0  0  0  0  0  0  0  0
  160.3600  213.8810  146.0450 O   0  0  0  0  0  0  0  0  0  0  0  0
  159.8790  211.9660  144.8140 N   0  0  0  0  0  2  0  0  0  0  0  0
  160.6970  213.8310  143.6210 N   0  0  0  0  0  2  0  0  0  0  0  0
  160.2910  213.1970  144.8310 C   0  0  0  0  0  0  0  0  0  0  0  0
  161.5590  212.0700  142.0840 C   0  0  0  0  0  2  0  0  0  0  0  0
  161.7910  213.3750  141.5870 O   0  0  0  0  0  0  0  0  0  0  0  0
  159.3760  213.3210  141.4960 C   0  0  0  0  0  1  0  0  0  0  0  0
  160.6260  213.1740  142.3320 C   0  0  2  0  0  0  0  0  0  0  0  0
  2  1  1  0  0  0  0
  2  4  1  0  0  0  0
  3 12  1  6  0  0  0
  3  8  1  0  0  0  0
  4  3  1  0  0  0  0
  6  5  1  0  0  0  0
  7  1  1  6  0  0  0
  7  3  1  0  0  0  0
  7  6  1  0  0  0  0
  8  5  1  0  0  0  0
  9  2  1  0  0  0  0
 10  9  2  0  0  0  0
 11 12  2  0  0  0  0
 12 13  1  0  0  0  0
 14 26  1  0  0  0  0
 14 18  1  0  0  0  0
 15 13  1  1  0  0  0
 15 27  1  0  0  0  0
 15 28  1  0  0  0  0
 16 20  1  0  0  0  0
 17 26  1  6  0  0  0
 17 16  1  0  0  0  0
 17 25  1  0  0  0  0
 18 23  1  0  0  0  0
 19 27  1  0  0  0  0
 22 20  1  1  0  0  0
 22 24  1  0  0  0  0
 22 15  1  0  0  0  0
 23 21  2  0  0  0  0
 24 19  1  1  0  0  0
 25 23  1  6  0  0  0
 25 24  1  0  0  0  0
 28 31  1  0  0  0  0
 29 28  2  0  0  0  0
 31 30  1  0  0  0  0
 32  9  1  0  0  0  0
 33 34  1  6  0  0  0
 33 32  1  0  0  0  0
 35 36  1  6  0  0  0
 35 33  1  0  0  0  0
 37 36  1  0  0  0  0
 38 44  1  6  0  0  0
 38 35  1  0  0  0  0
 38 39  1  0  0  0  0
 39 40  1  1  0  0  0
 41 43  2  0  0  0  0
 43 42  1  0  0  0  0
 43 39  1  0  0  0  0
 45 47  2  0  0  0  0
 46 47  1  0  0  0  0
 47 44  1  0  0  0  0
 48 51  1  0  0  0  0
 49 48  1  0  0  0  0
 49 51  1  0  0  0  0
 51 50  1  6  0  0  0
 51 46  1  0  0  0  0
M  END
>  <MODEL>
3

>  <REMARK>
 VINA RESULT:      -5.5      3.180      8.236
  Name = 
  15 active torsions:
  status: ('A' for Active; 'I' for Inactive)
    1  A    between atoms: C_2  and  C_4
    2  A    between atoms: C_2  and  O_13
    3  A    between atoms: C_3  and  C_23
    4  A    between atoms: C_3  and  C_46
    5  A    between atoms: C_4  and  C_50
    6  A    between atoms: C_7  and  O_9
    7  A    between atoms: C_7  and  C_10
    8  A    between atoms: C_7  and  C_23
    9  A    between atoms: C_10  and  C_11
   10  A    between atoms: C_11  and  C_44
   11  A    between atoms: O_13  and  C_49
   12  A    between atoms: C_18  and  C_49
   13  A    between atoms: C_23  and  O_28
   14  A    between atoms: N_26  and  C_48
   15  A    between atoms: O_28  and  C_32
                            x       y       z     vdW  Elec       q    Type
                         _______ _______ _______ _____ _____    ______ ____

>  <TORSDO>
F 15

$$$$
=
 OpenBabel11072410253D

 51 56  0  0  1  0  0  0  0  0999 V2000
  160.7540  208.3160  154.7560 C   0  0  0  0  0  2  0  0  0  0  0  0
  161.1660  209.0250  153.5650 N   0  0  0  0  0  0  0  0  0  0  0  0
  160.2710  210.6920  154.9760 C   0  0  1  0  0  0  0  0  0  0  0  0
  161.0010  210.4630  153.6590 C   0  0  0  0  0  2  0  0  0  0  0  0
  161.8550  210.8420  156.7180 C   0  0  0  0  0  2  0  0  0  0  0  0
  161.3760  209.5110  156.7470 O   0  0  0  0  0  0  0  0  0  0  0  0
  160.3800  209.3930  155.7570 C   0  0  2  0  0  3  0  0  0  0  0  0
  160.9810  211.6940  155.8230 C   0  0  0  0  0  2  0  0  0  0  0  0
  161.4340  208.3730  152.3180 C   0  0  0  0  0  0  0  0  0  0  0  0
  162.2880  208.8500  151.5240 O   0  0  0  0  0  0  0  0  0  0  0  0
  158.0120  211.0030  155.7340 O   0  0  0  0  0  0  0  0  0  0  0  0
  158.8250  211.0470  154.7740 C   0  0  0  0  0  0  0  0  0  0  0  0
  158.3980  211.4490  153.5050 O   0  0  0  0  0  0  0  0  0  0  0  0
  157.9770  214.0100  146.9030 C   0  0  0  0  0  2  0  0  0  0  0  0
  158.7100  212.7200  152.9000 C   0  0  2  0  0  0  0  0  0  0  0  0
  156.6040  214.1450  150.1470 O   0  0  0  0  0  0  0  0  0  0  0  0
  157.3330  213.5840  149.0660 C   0  0  2  0  0  3  0  0  0  0  0  0
  159.3390  214.4260  147.2440 N   0  0  0  0  0  2  0  0  0  0  0  0
  160.2310  213.0650  151.3060 O   0  0  0  0  0  0  0  0  0  0  0  0
  156.6790  213.3200  151.2980 C   0  0  0  0  0  2  0  0  0  0  0  0
  161.0110  214.3950  148.9050 N   0  0  0  0  0  2  0  0  0  0  0  0
  158.1030  212.8190  151.5440 C   0  0  1  0  0  3  0  0  0  0  0  0
  159.7850  214.1450  148.5610 C   0  0  0  0  0  0  0  0  0  0  0  0
  159.0660  213.6190  150.8720 N   0  0  2  0  0  0  0  0  0  0  0  0
  158.8550  213.3540  149.4490 C   0  0  1  0  0  3  0  0  0  0  0  0
  157.1140  214.4090  147.9350 O   0  0  0  0  0  0  0  0  0  0  0  0
  160.0960  212.8340  152.6250 O   0  0  0  0  0  0  0  0  0  0  0  0
  158.3070  213.8300  153.8550 C   0  0  0  0  0  0  0  0  0  0  0  0
  159.1220  214.3650  154.6030 O   0  0  0  0  0  0  0  0  0  0  0  0
  156.2660  213.6440  155.0290 O   0  0  0  0  0  1  0  0  0  0  0  0
  156.8700  214.2440  153.9360 C   0  0  0  0  0  2  0  0  0  0  0  0
  160.6740  207.1430  151.9330 C   0  0  0  0  0  2  0  0  0  0  0  0
  161.5230  206.1580  151.1300 C   0  0  1  0  0  3  0  0  0  0  0  0
  162.8200  206.0810  151.6330 O   0  0  0  0  0  1  0  0  0  0  0  0
  160.8700  204.7780  150.9820 C   0  0  2  0  0  3  0  0  0  0  0  0
  161.3520  203.8700  151.9240 O   0  0  0  0  0  0  0  0  0  0  0  0
  160.3740  203.7330  152.7800 O   0  0  0  0  0  1  0  0  0  0  0  0
  160.9130  204.2010  149.5420 C   0  0  2  0  0  3  0  0  0  0  0  0
  161.5750  202.8340  149.3590 C   0  0  1  0  0  3  0  0  0  0  0  0
  162.3580  202.4520  150.4570 O   0  0  0  0  0  1  0  0  0  0  0  0
  159.3950  201.9650  149.1750 O   0  0  0  0  0  0  0  0  0  0  0  0
  161.0540  200.4420  148.5650 C   0  0  0  0  0  1  0  0  0  0  0  0
  160.5840  201.7690  149.0340 C   0  0  0  0  0  0  0  0  0  0  0  0
  161.4630  205.1230  148.6100 O   0  0  0  0  0  0  0  0  0  0  0  0
  162.7690  204.2440  146.8960 N   0  0  0  0  0  2  0  0  0  0  0  0
  160.6810  205.1660  146.2910 N   0  0  0  0  0  2  0  0  0  0  0  0
  161.6650  204.8200  147.2640 C   0  0  0  0  0  0  0  0  0  0  0  0
  159.8590  203.9330  144.2890 C   0  0  0  0  0  2  0  0  0  0  0  0
  161.1510  203.5100  144.6850 O   0  0  0  0  0  0  0  0  0  0  0  0
  161.6470  205.7770  144.0080 C   0  0  0  0  0  1  0  0  0  0  0  0
  160.8310  204.8560  144.8840 C   0  0  2  0  0  0  0  0  0  0  0  0
  2  4  1  0  0  0  0
  2  1  1  0  0  0  0
  3 12  1  6  0  0  0
  3  7  1  0  0  0  0
  3  8  1  0  0  0  0
  4  3  1  0  0  0  0
  5  6  1  0  0  0  0
  7  1  1  6  0  0  0
  7  6  1  0  0  0  0
  8  5  1  0  0  0  0
  9  2  1  0  0  0  0
 10  9  2  0  0  0  0
 12 11  2  0  0  0  0
 13 12  1  0  0  0  0
 14 18  1  0  0  0  0
 14 26  1  0  0  0  0
 15 13  1  1  0  0  0
 15 28  1  0  0  0  0
 16 20  1  0  0  0  0
 17 26  1  6  0  0  0
 17 25  1  0  0  0  0
 17 16  1  0  0  0  0
 18 23  1  0  0  0  0
 19 27  1  0  0  0  0
 22 20  1  1  0  0  0
 22 15  1  0  0  0  0
 23 21  2  0  0  0  0
 24 19  1  1  0  0  0
 24 22  1  0  0  0  0
 25 23  1  6  0  0  0
 25 24  1  0  0  0  0
 27 15  1  0  0  0  0
 28 31  1  0  0  0  0
 28 29  2  0  0  0  0
 31 30  1  0  0  0  0
 32  9  1  0  0  0  0
 33 34  1  1  0  0  0
 33 32  1  0  0  0  0
 35 33  1  0  0  0  0
 35 36  1  1  0  0  0
 36 37  1  0  0  0  0
 38 44  1  6  0  0  0
 38 35  1  0  0  0  0
 39 38  1  0  0  0  0
 39 40  1  1  0  0  0
 42 43  1  0  0  0  0
 43 41  2  0  0  0  0
 43 39  1  0  0  0  0
 45 47  2  0  0  0  0
 46 47  1  0  0  0  0
 47 44  1  0  0  0  0
 48 49  1  0  0  0  0
 48 51  1  0  0  0  0
 49 51  1  0  0  0  0
 51 50  1  6  0  0  0
 51 46  1  0  0  0  0
M  END
>  <MODEL>
4

>  <REMARK>
 VINA RESULT:      -4.6      1.363      2.230
  Name = 
  15 active torsions:
  status: ('A' for Active; 'I' for Inactive)
    1  A    between atoms: C_2  and  C_4
    2  A    between atoms: C_2  and  O_13
    3  A    between atoms: C_3  and  C_23
    4  A    between atoms: C_3  and  C_46
    5  A    between atoms: C_4  and  C_50
    6  A    between atoms: C_7  and  O_9
    7  A    between atoms: C_7  and  C_10
    8  A    between atoms: C_7  and  C_23
    9  A    between atoms: C_10  and  C_11
   10  A    between atoms: C_11  and  C_44
   11  A    between atoms: O_13  and  C_49
   12  A    between atoms: C_18  and  C_49
   13  A    between atoms: C_23  and  O_28
   14  A    between atoms: N_26  and  C_48
   15  A    between atoms: O_28  and  C_32
                            x       y       z     vdW  Elec       q    Type
                         _______ _______ _______ _____ _____    ______ ____

>  <TORSDO>
F 15

$$$$
=
 OpenBabel11072410253D

 51 56  0  0  1  0  0  0  0  0999 V2000
  159.8830  208.0610  154.0160 C   0  0  0  0  0  2  0  0  0  0  0  0
  161.2100  207.5760  153.7090 N   0  0  0  0  0  0  0  0  0  0  0  0
  161.4430  209.9210  153.8390 C   0  0  1  0  0  0  0  0  0  0  0  0
  162.2180  208.6200  153.6850 C   0  0  0  0  0  2  0  0  0  0  0  0
  161.1470  210.3750  156.1350 C   0  0  0  0  0  2  0  0  0  0  0  0
  159.9420  209.7730  155.7030 O   0  0  0  0  0  0  0  0  0  0  0  0
  160.0540  209.5380  154.3180 C   0  0  2  0  0  3  0  0  0  0  0  0
  161.9980  210.7570  154.9430 C   0  0  0  0  0  2  0  0  0  0  0  0
  161.4660  206.2630  153.1970 C   0  0  0  0  0  0  0  0  0  0  0  0
  162.5480  205.6770  153.4700 O   0  0  0  0  0  0  0  0  0  0  0  0
  161.7140  210.1650  151.4630 O   0  0  0  0  0  0  0  0  0  0  0  0
  161.3460  210.6850  152.5480 C   0  0  0  0  0  0  0  0  0  0  0  0
  160.8170  211.9800  152.5670 O   0  0  0  0  0  0  0  0  0  0  0  0
  155.5610  212.7980  157.2600 C   0  0  0  0  0  2  0  0  0  0  0  0
  159.4160  212.2950  152.4580 C   0  0  2  0  0  0  0  0  0  0  0  0
  157.6920  214.4530  154.9910 O   0  0  0  0  0  0  0  0  0  0  0  0
  157.2700  213.4050  155.8500 C   0  0  2  0  0  3  0  0  0  0  0  0
  154.9030  211.9070  156.3040 N   0  0  0  0  0  2  0  0  0  0  0  0
  157.7320  210.9790  153.0960 O   0  0  0  0  0  0  0  0  0  0  0  0
  158.8960  214.1130  154.3220 C   0  0  0  0  0  2  0  0  0  0  0  0
  155.1600  210.6940  154.2990 N   0  0  0  0  0  2  0  0  0  0  0  0
  158.8590  212.6820  153.7830 C   0  0  1  0  0  3  0  0  0  0  0  0
  155.6390  211.5560  155.1410 C   0  0  0  0  0  0  0  0  0  0  0  0
  157.5290  212.1940  153.6750 N   0  0  2  0  0  0  0  0  0  0  0  0
  157.0620  212.0490  155.0530 C   0  0  1  0  0  3  0  0  0  0  0  0
  156.1330  213.8690  156.5560 O   0  0  0  0  0  0  0  0  0  0  0  0
  158.6530  211.1460  152.1280 O   0  0  0  0  0  0  0  0  0  0  0  0
  159.2290  213.3350  151.3660 C   0  0  0  0  0  0  0  0  0  0  0  0
  160.0330  214.2500  151.2030 O   0  0  0  0  0  0  0  0  0  0  0  0
  157.1600  214.3360  150.8230 O   0  0  0  0  0  1  0  0  0  0  0  0
  158.0050  213.2840  150.5060 C   0  0  0  0  0  2  0  0  0  0  0  0
  160.4700  205.5960  152.3040 C   0  0  0  0  0  2  0  0  0  0  0  0
  160.9990  204.2920  151.7070 C   0  0  1  0  0  3  0  0  0  0  0  0
  160.7480  203.2120  152.5490 O   0  0  0  0  0  1  0  0  0  0  0  0
  160.5140  204.0420  150.2730 C   0  0  2  0  0  3  0  0  0  0  0  0
  160.1510  202.7110  150.0720 O   0  0  0  0  0  0  0  0  0  0  0  0
  161.2310  202.0300  150.3520 O   0  0  0  0  0  1  0  0  0  0  0  0
  161.4780  204.5570  149.1720 C   0  0  2  0  0  3  0  0  0  0  0  0
  161.0650  205.8250  148.4220 C   0  0  1  0  0  3  0  0  0  0  0  0
  159.8270  206.3320  148.8420 O   0  0  0  0  0  1  0  0  0  0  0  0
  162.8250  207.1140  147.5370 O   0  0  0  0  0  0  0  0  0  0  0  0
  162.3070  207.6460  149.7490 C   0  0  0  0  0  1  0  0  0  0  0  0
  162.1100  206.8850  148.4910 C   0  0  0  0  0  0  0  0  0  0  0  0
  161.8150  203.5410  148.2360 O   0  0  0  0  0  0  0  0  0  0  0  0
  160.8900  202.3670  146.4530 N   0  0  0  0  0  2  0  0  0  0  0  0
  161.2630  204.6770  146.1400 N   0  0  0  0  0  2  0  0  0  0  0  0
  161.3040  203.4970  146.9390 C   0  0  0  0  0  0  0  0  0  0  0  0
  161.3620  205.5830  143.8210 C   0  0  0  0  0  2  0  0  0  0  0  0
  160.1590  205.9310  144.4810 O   0  0  0  0  0  0  0  0  0  0  0  0
  159.8700  203.5350  144.3300 C   0  0  0  0  0  1  0  0  0  0  0  0
  160.7240  204.6920  144.7950 C   0  0  2  0  0  0  0  0  0  0  0  0
  2  1  1  0  0  0  0
  3 12  1  6  0  0  0
  3  7  1  0  0  0  0
  3  8  1  0  0  0  0
  4  2  1  0  0  0  0
  4  3  1  0  0  0  0
  6  5  1  0  0  0  0
  7  1  1  1  0  0  0
  7  6  1  0  0  0  0
  8  5  1  0  0  0  0
  9 10  2  0  0  0  0
  9  2  1  0  0  0  0
 11 12  2  0  0  0  0
 12 13  1  0  0  0  0
 15 28  1  6  0  0  0
 15 13  1  0  0  0  0
 15 22  1  0  0  0  0
 17 16  1  6  0  0  0
 17 26  1  0  0  0  0
 18 14  1  0  0  0  0
 20 16  1  0  0  0  0
 21 23  2  0  0  0  0
 22 20  1  6  0  0  0
 23 18  1  0  0  0  0
 24 19  1  1  0  0  0
 24 22  1  0  0  0  0
 24 25  1  0  0  0  0
 25 23  1  6  0  0  0
 25 17  1  0  0  0  0
 26 14  1  0  0  0  0
 27 15  1  0  0  0  0
 27 19  1  0  0  0  0
 29 28  2  0  0  0  0
 31 30  1  0  0  0  0
 31 28  1  0  0  0  0
 32  9  1  0  0  0  0
 33 32  1  0  0  0  0
 33 34  1  1  0  0  0
 35 36  1  6  0  0  0
 35 33  1  0  0  0  0
 36 37  1  0  0  0  0
 38 44  1  6  0  0  0
 38 35  1  0  0  0  0
 39 43  1  0  0  0  0
 39 40  1  1  0  0  0
 39 38  1  0  0  0  0
 41 43  2  0  0  0  0
 43 42  1  0  0  0  0
 45 47  2  0  0  0  0
 46 47  1  0  0  0  0
 47 44  1  0  0  0  0
 48 49  1  0  0  0  0
 48 51  1  0  0  0  0
 49 51  1  0  0  0  0
 51 50  1  6  0  0  0
 51 46  1  0  0  0  0
M  END
>  <MODEL>
5

>  <REMARK>
 VINA RESULT:      -3.9      2.484      4.435
  Name = 
  15 active torsions:
  status: ('A' for Active; 'I' for Inactive)
    1  A    between atoms: C_2  and  C_4
    2  A    between atoms: C_2  and  O_13
    3  A    between atoms: C_3  and  C_23
    4  A    between atoms: C_3  and  C_46
    5  A    between atoms: C_4  and  C_50
    6  A    between atoms: C_7  and  O_9
    7  A    between atoms: C_7  and  C_10
    8  A    between atoms: C_7  and  C_23
    9  A    between atoms: C_10  and  C_11
   10  A    between atoms: C_11  and  C_44
   11  A    between atoms: O_13  and  C_49
   12  A    between atoms: C_18  and  C_49
   13  A    between atoms: C_23  and  O_28
   14  A    between atoms: N_26  and  C_48
   15  A    between atoms: O_28  and  C_32
                            x       y       z     vdW  Elec       q    Type
                         _______ _______ _______ _____ _____    ______ ____

>  <TORSDO>
F 15

$$$$
=
 OpenBabel11072410253D

 51 56  0  0  1  0  0  0  0  0999 V2000
  159.7400  212.0680  146.2120 C   0  0  0  0  0  2  0  0  0  0  0  0
  160.6740  213.1580  146.3920 N   0  0  0  0  0  0  0  0  0  0  0  0
  159.7720  213.4900  144.2360 C   0  0  1  0  0  0  0  0  0  0  0  0
  160.6760  214.1060  145.2940 C   0  0  0  0  0  2  0  0  0  0  0  0
  157.5400  214.1220  144.6670 C   0  0  0  0  0  2  0  0  0  0  0  0
  157.6870  212.8270  145.2180 O   0  0  0  0  0  0  0  0  0  0  0  0
  158.9940  212.3850  144.9300 C   0  0  2  0  0  3  0  0  0  0  0  0
  158.7260  214.4530  143.7870 C   0  0  0  0  0  2  0  0  0  0  0  0
  161.6940  213.1570  147.3970 C   0  0  0  0  0  0  0  0  0  0  0  0
  162.0820  214.2430  147.9060 O   0  0  0  0  0  0  0  0  0  0  0  0
  160.8950  211.7110  143.0740 O   0  0  0  0  0  0  0  0  0  0  0  0
  160.5480  212.9200  143.0810 C   0  0  0  0  0  0  0  0  0  0  0  0
  160.8610  213.7520  142.0020 O   0  0  0  0  0  0  0  0  0  0  0  0
  161.5700  207.7900  138.2240 C   0  0  0  0  0  2  0  0  0  0  0  0
  160.6530  213.4110  140.6170 C   0  0  2  0  0  0  0  0  0  0  0  0
  159.2710  210.0770  139.6090 O   0  0  0  0  0  0  0  0  0  0  0  0
  160.5170  209.4120  139.4640 C   0  0  2  0  0  3  0  0  0  0  0  0
  162.2790  208.7240  137.3480 N   0  0  0  0  0  2  0  0  0  0  0  0
  162.2200  212.6860  139.2050 O   0  0  0  0  0  0  0  0  0  0  0  0
  159.3480  211.0990  140.5890 C   0  0  0  0  0  2  0  0  0  0  0  0
  162.9880  210.9550  137.0710 N   0  0  0  0  0  2  0  0  0  0  0  0
  160.6210  211.9340  140.4380 C   0  0  1  0  0  3  0  0  0  0  0  0
  162.2970  210.0870  137.7430 C   0  0  0  0  0  0  0  0  0  0  0  0
  161.1860  211.8020  139.1420 N   0  0  2  0  0  0  0  0  0  0  0  0
  161.6750  210.4250  139.0760 C   0  0  1  0  0  3  0  0  0  0  0  0
  160.3220  208.3430  138.5550 O   0  0  0  0  0  0  0  0  0  0  0  0
  161.7620  213.7930  139.8190 O   0  0  0  0  0  0  0  0  0  0  0  0
  159.4160  214.1360  140.1140 C   0  0  0  0  0  0  0  0  0  0  0  0
  158.4870  214.4240  140.8640 O   0  0  0  0  0  0  0  0  0  0  0  0
  158.3800  213.5980  138.0600 O   0  0  0  0  0  1  0  0  0  0  0  0
  159.2940  214.4530  138.6550 C   0  0  0  0  0  2  0  0  0  0  0  0
  162.3350  211.8740  147.8190 C   0  0  0  0  0  2  0  0  0  0  0  0
  162.0720  211.5440  149.2880 C   0  0  1  0  0  3  0  0  0  0  0  0
  160.8060  211.9690  149.6830 O   0  0  0  0  0  1  0  0  0  0  0  0
  162.3290  210.0710  149.6320 C   0  0  2  0  0  3  0  0  0  0  0  0
  161.7320  209.2100  148.7110 O   0  0  0  0  0  0  0  0  0  0  0  0
  162.7130  208.4650  148.2750 O   0  0  0  0  0  1  0  0  0  0  0  0
  161.9870  209.6870  151.0960 C   0  0  2  0  0  3  0  0  0  0  0  0
  161.2490  208.3650  151.3150 C   0  0  1  0  0  3  0  0  0  0  0  0
  160.4090  208.0220  150.2460 O   0  0  0  0  0  1  0  0  0  0  0  0
  163.1680  207.0550  150.9390 O   0  0  0  0  0  0  0  0  0  0  0  0
  161.8890  206.3270  152.7490 C   0  0  0  0  0  1  0  0  0  0  0  0
  162.1830  207.2440  151.6210 C   0  0  0  0  0  0  0  0  0  0  0  0
  161.3040  210.7300  151.7790 O   0  0  0  0  0  0  0  0  0  0  0  0
  159.5630  210.5520  153.3130 N   0  0  0  0  0  2  0  0  0  0  0  0
  161.7590  210.5810  154.1800 N   0  0  0  0  0  2  0  0  0  0  0  0
  160.8400  210.6100  153.0890 C   0  0  0  0  0  0  0  0  0  0  0  0
  161.4240  209.1010  156.1550 C   0  0  0  0  0  2  0  0  0  0  0  0
  160.2030  209.6200  155.6620 O   0  0  0  0  0  0  0  0  0  0  0  0
  161.2400  211.6630  156.4330 C   0  0  0  0  0  1  0  0  0  0  0  0
  161.3320  210.4360  155.5570 C   0  0  2  0  0  0  0  0  0  0  0  0
  1  2  1  0  0  0  0
  2  9  1  0  0  0  0
  3 12  1  6  0  0  0
  3  7  1  0  0  0  0
  3  4  1  0  0  0  0
  4  2  1  0  0  0  0
  5  6  1  0  0  0  0
  7  6  1  0  0  0  0
  7  1  1  1  0  0  0
  8  3  1  0  0  0  0
  8  5  1  0  0  0  0
  9 32  1  0  0  0  0
  9 10  2  0  0  0  0
 11 12  2  0  0  0  0
 13 12  1  0  0  0  0
 14 26  1  0  0  0  0
 15 28  1  6  0  0  0
 15 13  1  0  0  0  0
 16 20  1  0  0  0  0
 17 26  1  6  0  0  0
 17 16  1  0  0  0  0
 18 23  1  0  0  0  0
 18 14  1  0  0  0  0
 19 27  1  0  0  0  0
 21 23  2  0  0  0  0
 22 20  1  6  0  0  0
 22 15  1  0  0  0  0
 24 19  1  1  0  0  0
 24 22  1  0  0  0  0
 25 23  1  6  0  0  0
 25 24  1  0  0  0  0
 25 17  1  0  0  0  0
 27 15  1  0  0  0  0
 28 29  2  0  0  0  0
 30 31  1  0  0  0  0
 31 28  1  0  0  0  0
 32 33  1  0  0  0  0
 33 35  1  0  0  0  0
 33 34  1  6  0  0  0
 35 36  1  6  0  0  0
 35 38  1  0  0  0  0
 37 36  1  0  0  0  0
 38 39  1  0  0  0  0
 38 44  1  6  0  0  0
 39 40  1  6  0  0  0
 39 43  1  0  0  0  0
 41 43  2  0  0  0  0
 43 42  1  0  0  0  0
 44 47  1  0  0  0  0
 46 51  1  0  0  0  0
 47 45  2  0  0  0  0
 47 46  1  0  0  0  0
 49 48  1  0  0  0  0
 51 49  1  0  0  0  0
 51 48  1  0  0  0  0
 51 50  1  1  0  0  0
M  END
>  <MODEL>
6

>  <REMARK>
 VINA RESULT:      -3.7      5.254     10.361
  Name = 
  15 active torsions:
  status: ('A' for Active; 'I' for Inactive)
    1  A    between atoms: C_2  and  C_4
    2  A    between atoms: C_2  and  O_13
    3  A    between atoms: C_3  and  C_23
    4  A    between atoms: C_3  and  C_46
    5  A    between atoms: C_4  and  C_50
    6  A    between atoms: C_7  and  O_9
    7  A    between atoms: C_7  and  C_10
    8  A    between atoms: C_7  and  C_23
    9  A    between atoms: C_10  and  C_11
   10  A    between atoms: C_11  and  C_44
   11  A    between atoms: O_13  and  C_49
   12  A    between atoms: C_18  and  C_49
   13  A    between atoms: C_23  and  O_28
   14  A    between atoms: N_26  and  C_48
   15  A    between atoms: O_28  and  C_32
                            x       y       z     vdW  Elec       q    Type
                         _______ _______ _______ _____ _____    ______ ____

>  <TORSDO>
F 15

$$$$
