=
 OpenBabel11072412233D

 27 30  0  0  1  0  0  0  0  0999 V2000
  161.4450  202.5480  148.3010 C   0  0  1  0  0  3  0  0  0  0  0  0
  161.7000  208.1140  149.3100 C   0  0  0  0  0  2  0  0  0  0  0  0
  160.4660  202.4160  146.2010 N   0  0  0  0  0  2  0  0  0  0  0  0
  161.7800  205.0140  148.2460 C   0  0  0  0  0  0  0  0  0  0  0  0
  162.0970  204.8220  149.7430 C   0  0  2  0  0  3  0  0  0  0  0  0
  161.1960  207.1030  150.3430 C   0  0  1  0  0  3  0  0  0  0  0  0
  160.8490  203.6420  146.3050 C   0  0  0  0  0  0  0  0  0  0  0  0
  160.7580  201.3950  150.4030 C   0  0  0  0  0  1  0  0  0  0  0  0
  161.1090  203.8650  150.4470 C   0  0  0  0  0  2  0  0  0  0  0  0
  160.7730  201.7330  147.3530 O   0  0  0  0  0  0  0  0  0  0  0  0
  162.6050  207.4750  148.2570 C   0  0  0  0  0  2  0  0  0  0  0  0
  160.5580  204.6040  145.2540 C   0  0  0  0  0  3  0  0  0  0  0  0
  161.4530  203.8750  147.6110 C   0  0  2  0  0  3  0  0  0  0  0  0
  162.2750  206.0620  150.6200 C   0  0  0  0  0  2  0  0  0  0  0  0
  160.6460  202.6720  149.5940 C   0  0  1  0  0  3  0  0  0  0  0  0
  160.8490  205.8950  145.2700 C   0  0  0  0  0  3  0  0  0  0  0  0
  161.9240  206.3440  147.5550 C   0  0  0  0  0  0  0  0  0  0  0  0
  161.5190  206.6670  146.3220 C   0  0  0  0  0  3  0  0  0  0  0  0
  160.7400  207.7770  151.6440 C   0  0  2  0  0  3  0  0  0  0  0  0
  160.8160  209.3020  151.4780 C   0  0  2  0  0  3  0  0  0  0  0  0
  162.4890  209.9470  151.8110 S   0  0  0  0  0  1  0  0  0  0  0  0
  159.8900  209.9410  152.3030 O   0  0  0  0  0  0  0  0  0  0  0  0
  160.6490  210.8230  153.0730 C   0  0  0  0  0  1  0  0  0  0  0  0
  161.5400  207.3570  152.7310 O   0  0  0  0  0  0  0  0  0  0  0  0
  160.9690  205.2310  153.8260 C   0  0  0  0  0  1  0  0  0  0  0  0
  160.7360  206.7300  153.7150 C   0  0  0  0  0  3  0  0  0  0  0  0
  160.7640  207.4120  155.0770 C   0  0  0  0  0  1  0  0  0  0  0  0
  1 10  1  6  0  0  0
  1 15  1  0  0  0  0
  2  6  1  0  0  0  0
  3  7  1  0  0  0  0
  3 10  1  0  0  0  0
  4  5  1  0  0  0  0
  5  9  1  1  0  0  0
  5 14  1  0  0  0  0
  6 14  1  0  0  0  0
  6 19  1  1  0  0  0
 11  2  1  0  0  0  0
 12 16  1  0  0  0  0
 12  7  2  0  0  0  0
 13  7  1  1  0  0  0
 13  4  1  0  0  0  0
 13  1  1  0  0  0  0
 15  8  1  1  0  0  0
 15  9  1  0  0  0  0
 16 18  2  0  0  0  0
 17  4  2  0  0  0  0
 17 11  1  0  0  0  0
 18 17  1  0  0  0  0
 19 24  1  1  0  0  0
 20 19  1  0  0  0  0
 20 21  1  1  0  0  0
 20 22  1  0  0  0  0
 22 23  1  0  0  0  0
 24 26  1  0  0  0  0
 26 25  1  0  0  0  0
 26 27  1  0  0  0  0
M  END
>  <MODEL>
1

>  <REMARK>
 VINA RESULT:      -6.7      0.000      0.000
  Name = 
  5 active torsions:
  status: ('A' for Active; 'I' for Inactive)
    1  A    between atoms: C_1  and  C_3
    2  A    between atoms: C_1  and  C_10
    3  A    between atoms: C_1  and  O_25
    4  A    between atoms: C_3  and  O_7
    5  A    between atoms: C_17  and  O_25
                            x       y       z     vdW  Elec       q    Type
                         _______ _______ _______ _____ _____    ______ ____

>  <TORSDO>
F 5

$$$$
=
 OpenBabel11072412233D

 27 30  0  0  1  0  0  0  0  0999 V2000
  162.2000  209.9100  151.0630 C   0  0  1  0  0  3  0  0  0  0  0  0
  161.4390  204.2990  150.9630 C   0  0  0  0  0  2  0  0  0  0  0  0
  160.9840  210.5950  152.9170 N   0  0  0  0  0  2  0  0  0  0  0  0
  162.0080  207.4750  151.5460 C   0  0  0  0  0  0  0  0  0  0  0  0
  162.5640  207.3320  150.1150 C   0  0  2  0  0  3  0  0  0  0  0  0
  161.3050  205.1800  149.7180 C   0  0  1  0  0  3  0  0  0  0  0  0
  161.1170  209.3220  153.0660 C   0  0  0  0  0  0  0  0  0  0  0  0
  162.0680  210.7660  148.7240 C   0  0  0  0  0  1  0  0  0  0  0  0
  161.9050  208.3070  149.1140 C   0  0  0  0  0  2  0  0  0  0  0  0
  161.5850  210.9900  151.7460 O   0  0  0  0  0  0  0  0  0  0  0  0
  162.3000  204.9460  152.0490 C   0  0  0  0  0  2  0  0  0  0  0  0
  160.4900  208.6350  154.1840 C   0  0  0  0  0  3  0  0  0  0  0  0
  161.8370  208.7510  151.9350 C   0  0  0  0  0  0  0  0  0  0  0  0
  162.6040  205.9420  149.4780 C   0  0  0  0  0  2  0  0  0  0  0  0
  161.5830  209.6980  149.6840 C   0  0  1  0  0  3  0  0  0  0  0  0
  160.5060  207.3320  154.4130 C   0  0  0  0  0  3  0  0  0  0  0  0
  161.7750  206.2890  152.4430 C   0  0  1  0  0  3  0  0  0  0  0  0
  161.1430  206.2740  153.6220 C   0  0  0  0  0  3  0  0  0  0  0  0
  160.9070  204.3740  148.4740 C   0  0  2  0  0  3  0  0  0  0  0  0
  160.9450  202.8750  148.8080 C   0  0  2  0  0  3  0  0  0  0  0  0
  161.1530  201.8440  147.3180 S   0  0  0  0  0  1  0  0  0  0  0  0
  159.7950  202.4870  149.4950 O   0  0  0  0  0  0  0  0  0  0  0  0
  159.9990  201.1400  149.7970 C   0  0  0  0  0  1  0  0  0  0  0  0
  161.7710  204.6630  147.3940 O   0  0  0  0  0  0  0  0  0  0  0  0
  160.5400  206.5060  146.3320 C   0  0  0  0  0  1  0  0  0  0  0  0
  161.0210  205.0650  146.2620 C   0  0  0  0  0  3  0  0  0  0  0  0
  161.6820  204.7510  144.9260 C   0  0  0  0  0  1  0  0  0  0  0  0
  1 10  1  1  0  0  0
  1 13  1  0  0  0  0
  2 11  1  0  0  0  0
  3  7  1  0  0  0  0
  4 13  2  0  0  0  0
  4 17  1  0  0  0  0
  5  9  1  6  0  0  0
  5  4  1  0  0  0  0
  6 19  1  6  0  0  0
  6  2  1  0  0  0  0
  7 12  2  0  0  0  0
  9 15  1  0  0  0  0
 10  3  1  0  0  0  0
 12 16  1  0  0  0  0
 13  7  1  0  0  0  0
 14  6  1  0  0  0  0
 14  5  1  0  0  0  0
 15  8  1  6  0  0  0
 15  1  1  0  0  0  0
 17 11  1  1  0  0  0
 17 18  1  0  0  0  0
 18 16  2  0  0  0  0
 19 24  1  6  0  0  0
 19 20  1  0  0  0  0
 20 21  1  6  0  0  0
 20 22  1  0  0  0  0
 22 23  1  0  0  0  0
 26 25  1  0  0  0  0
 26 24  1  0  0  0  0
 27 26  1  0  0  0  0
M  END
>  <MODEL>
2

>  <REMARK>
 VINA RESULT:      -6.6      3.098      7.408
  Name = 
  5 active torsions:
  status: ('A' for Active; 'I' for Inactive)
    1  A    between atoms: C_1  and  C_3
    2  A    between atoms: C_1  and  C_10
    3  A    between atoms: C_1  and  O_25
    4  A    between atoms: C_3  and  O_7
    5  A    between atoms: C_17  and  O_25
                            x       y       z     vdW  Elec       q    Type
                         _______ _______ _______ _____ _____    ______ ____

>  <TORSDO>
F 5

$$$$
=
 OpenBabel11072412233D

 27 30  0  0  1  0  0  0  0  0999 V2000
  161.4740  206.4390  153.8580 C   0  0  1  0  0  3  0  0  0  0  0  0
  160.9590  211.2280  150.8810 C   0  0  0  0  0  2  0  0  0  0  0  0
  161.0370  204.7750  152.3000 N   0  0  0  0  0  2  0  0  0  0  0  0
  161.5790  208.2900  152.1970 C   0  0  0  0  0  0  0  0  0  0  0  0
  161.5490  209.1800  153.4570 C   0  0  2  0  0  3  0  0  0  0  0  0
  160.3220  211.0320  152.2590 C   0  0  1  0  0  3  0  0  0  0  0  0
  161.2680  205.8290  151.5950 C   0  0  0  0  0  0  0  0  0  0  0  0
  160.4200  206.7810  156.0920 C   0  0  0  0  0  1  0  0  0  0  0  0
  160.5170  208.7030  154.5030 C   0  0  0  0  0  2  0  0  0  0  0  0
  161.1260  205.0820  153.6360 O   0  0  0  0  0  0  0  0  0  0  0  0
  162.1430  210.2920  150.6440 C   0  0  0  0  0  2  0  0  0  0  0  0
  161.1450  205.7970  150.1470 C   0  0  0  0  0  3  0  0  0  0  0  0
  161.5200  206.9740  152.4620 C   0  0  2  0  0  3  0  0  0  0  0  0
  161.3970  210.6920  153.2850 C   0  0  0  0  0  2  0  0  0  0  0  0
  160.3840  207.1760  154.6300 C   0  0  1  0  0  3  0  0  0  0  0  0
  161.3010  206.8210  149.3230 C   0  0  0  0  0  3  0  0  0  0  0  0
  161.7570  208.8580  150.8140 C   0  0  0  0  0  0  0  0  0  0  0  0
  161.6270  208.2140  149.6490 C   0  0  0  0  0  3  0  0  0  0  0  0
  159.5090  212.2550  152.7050 C   0  0  2  0  0  3  0  0  0  0  0  0
  159.2060  212.1400  154.2070 C   0  0  2  0  0  3  0  0  0  0  0  0
  157.5180  211.5250  154.5230 S   0  0  0  0  0  1  0  0  0  0  0  0
  159.3910  213.3640  154.8490 O   0  0  0  0  0  0  0  0  0  0  0  0
  159.9970  213.0410  156.0640 C   0  0  0  0  0  1  0  0  0  0  0  0
  158.3090  212.3550  151.9650 O   0  0  0  0  0  0  0  0  0  0  0  0
  158.2220  213.6870  149.9010 C   0  0  0  0  0  1  0  0  0  0  0  0
  158.1780  213.6560  151.4210 C   0  0  0  0  0  3  0  0  0  0  0  0
  157.0020  214.4530  151.9720 C   0  0  0  0  0  1  0  0  0  0  0  0
  1 10  1  6  0  0  0
  1 15  1  0  0  0  0
  2  6  1  0  0  0  0
  3 10  1  0  0  0  0
  4 13  1  0  0  0  0
  4  5  1  0  0  0  0
  5 14  1  6  0  0  0
  5  9  1  0  0  0  0
  6 19  1  1  0  0  0
  6 14  1  0  0  0  0
  7  3  1  0  0  0  0
  9 15  1  0  0  0  0
 11 17  1  0  0  0  0
 11  2  1  0  0  0  0
 12  7  2  0  0  0  0
 13  7  1  6  0  0  0
 13  1  1  0  0  0  0
 15  8  1  1  0  0  0
 16 18  2  0  0  0  0
 16 12  1  0  0  0  0
 17  4  2  0  0  0  0
 18 17  1  0  0  0  0
 19 24  1  6  0  0  0
 19 20  1  0  0  0  0
 20 21  1  6  0  0  0
 20 22  1  0  0  0  0
 22 23  1  0  0  0  0
 25 26  1  0  0  0  0
 26 24  1  0  0  0  0
 26 27  1  0  0  0  0
M  END
>  <MODEL>
3

>  <REMARK>
 VINA RESULT:      -6.5      3.287      5.881
  Name = 
  5 active torsions:
  status: ('A' for Active; 'I' for Inactive)
    1  A    between atoms: C_1  and  C_3
    2  A    between atoms: C_1  and  C_10
    3  A    between atoms: C_1  and  O_25
    4  A    between atoms: C_3  and  O_7
    5  A    between atoms: C_17  and  O_25
                            x       y       z     vdW  Elec       q    Type
                         _______ _______ _______ _____ _____    ______ ____

>  <TORSDO>
F 5

$$$$
=
 OpenBabel11072412233D

 27 30  0  0  1  0  0  0  0  0999 V2000
  161.7670  210.3210  152.3550 C   0  0  1  0  0  3  0  0  0  0  0  0
  160.8480  204.7420  152.6630 C   0  0  0  0  0  2  0  0  0  0  0  0
  160.3490  211.2000  153.9680 N   0  0  0  0  0  2  0  0  0  0  0  0
  161.4380  207.9460  153.0260 C   0  0  0  0  0  0  0  0  0  0  0  0
  162.1670  207.6590  151.6970 C   0  0  2  0  0  3  0  0  0  0  0  0
  160.9010  205.5050  151.3370 C   0  0  1  0  0  3  0  0  0  0  0  0
  160.4210  209.9440  154.2470 C   0  0  0  0  0  0  0  0  0  0  0  0
  161.9590  210.9580  149.9510 C   0  0  0  0  0  1  0  0  0  0  0  0
  161.6700  208.5490  150.5360 C   0  0  0  0  0  2  0  0  0  0  0  0
  161.1050  211.4720  152.8540 O   0  0  0  0  0  0  0  0  0  0  0  0
  161.5850  205.4700  153.7880 C   0  0  0  0  0  2  0  0  0  0  0  0
  159.6360  209.3770  155.3310 C   0  0  0  0  0  3  0  0  0  0  0  0
  161.2600  209.2560  153.2740 C   0  0  0  0  0  0  0  0  0  0  0  0
  162.2430  206.2150  151.1990 C   0  0  0  0  0  2  0  0  0  0  0  0
  161.3230  209.9940  150.9330 C   0  0  1  0  0  3  0  0  0  0  0  0
  159.5830  208.1010  155.6770 C   0  0  0  0  0  3  0  0  0  0  0  0
  161.0570  206.8530  153.9890 C   0  0  1  0  0  3  0  0  0  0  0  0
  160.2810  206.9610  155.0730 C   0  0  0  0  0  3  0  0  0  0  0  0
  160.6380  204.5950  150.1300 C   0  0  2  0  0  3  0  0  0  0  0  0
  160.4460  203.1510  150.6170 C   0  0  2  0  0  3  0  0  0  0  0  0
  161.9950  202.4280  151.2540 S   0  0  0  0  0  1  0  0  0  0  0  0
  159.9310  202.3460  149.6000 O   0  0  0  0  0  0  0  0  0  0  0  0
  160.7940  201.2500  149.5440 C   0  0  0  0  0  1  0  0  0  0  0  0
  161.7060  204.6680  149.2070 O   0  0  0  0  0  0  0  0  0  0  0  0
  161.3640  206.4190  147.5170 C   0  0  0  0  0  1  0  0  0  0  0  0
  161.2130  204.9580  147.9110 C   0  0  0  0  0  3  0  0  0  0  0  0
  161.7180  204.0200  146.8220 C   0  0  0  0  0  1  0  0  0  0  0  0
  1 10  1  1  0  0  0
  1 13  1  0  0  0  0
  2 11  1  0  0  0  0
  3  7  1  0  0  0  0
  4 13  2  0  0  0  0
  4 17  1  0  0  0  0
  5  9  1  6  0  0  0
  5  4  1  0  0  0  0
  6 19  1  6  0  0  0
  6  2  1  0  0  0  0
  7 12  2  0  0  0  0
  9 15  1  0  0  0  0
 10  3  1  0  0  0  0
 12 16  1  0  0  0  0
 13  7  1  0  0  0  0
 14  6  1  0  0  0  0
 14  5  1  0  0  0  0
 15  8  1  6  0  0  0
 15  1  1  0  0  0  0
 17 11  1  1  0  0  0
 17 18  1  0  0  0  0
 18 16  2  0  0  0  0
 19 24  1  6  0  0  0
 19 20  1  0  0  0  0
 20 21  1  6  0  0  0
 22 20  1  0  0  0  0
 23 22  1  0  0  0  0
 25 26  1  0  0  0  0
 26 24  1  0  0  0  0
 27 26  1  0  0  0  0
M  END
>  <MODEL>
4

>  <REMARK>
 VINA RESULT:      -6.5      3.095      7.693
  Name = 
  5 active torsions:
  status: ('A' for Active; 'I' for Inactive)
    1  A    between atoms: C_1  and  C_3
    2  A    between atoms: C_1  and  C_10
    3  A    between atoms: C_1  and  O_25
    4  A    between atoms: C_3  and  O_7
    5  A    between atoms: C_17  and  O_25
                            x       y       z     vdW  Elec       q    Type
                         _______ _______ _______ _____ _____    ______ ____

>  <TORSDO>
F 5

$$$$
=
 OpenBabel11072412233D

 27 30  0  0  1  0  0  0  0  0999 V2000
  161.5250  204.0000  150.3660 C   0  0  1  0  0  3  0  0  0  0  0  0
  161.8220  209.4970  151.6920 C   0  0  0  0  0  2  0  0  0  0  0  0
  160.5690  203.9960  148.2520 N   0  0  0  0  0  2  0  0  0  0  0  0
  161.8850  206.4610  150.4550 C   0  0  0  0  0  0  0  0  0  0  0  0
  162.1830  206.1810  151.9420 C   0  0  2  0  0  3  0  0  0  0  0  0
  161.2970  208.4340  152.6610 C   0  0  1  0  0  3  0  0  0  0  0  0
  160.9630  205.2100  148.4290 C   0  0  0  0  0  0  0  0  0  0  0  0
  160.8030  202.7370  152.3920 C   0  0  0  0  0  1  0  0  0  0  0  0
  161.1780  205.1960  152.5800 C   0  0  0  0  0  2  0  0  0  0  0  0
  160.8570  203.2470  149.3660 O   0  0  0  0  0  0  0  0  0  0  0  0
  162.7330  208.9090  150.6150 C   0  0  0  0  0  2  0  0  0  0  0  0
  160.6940  206.2330  147.4320 C   0  0  0  0  0  3  0  0  0  0  0  0
  161.5540  205.3630  149.7530 C   0  0  0  0  0  0  0  0  0  0  0  0
  162.3630  207.3680  152.8900 C   0  0  0  0  0  2  0  0  0  0  0  0
  160.7130  204.0580  151.6560 C   0  0  1  0  0  3  0  0  0  0  0  0
  160.9960  207.5180  147.5240 C   0  0  0  0  0  3  0  0  0  0  0  0
  162.0500  207.8270  149.8430 C   0  0  1  0  0  3  0  0  0  0  0  0
  161.6620  208.2230  148.6250 C   0  0  0  0  0  3  0  0  0  0  0  0
  160.8320  209.0370  153.9930 C   0  0  2  0  0  3  0  0  0  0  0  0
  161.0980  208.0320  155.1240 C   0  0  2  0  0  3  0  0  0  0  0  0
  159.5540  207.3520  155.8170 S   0  0  0  0  0  1  0  0  0  0  0  0
  161.8570  208.6130  156.1390 O   0  0  0  0  0  0  0  0  0  0  0  0
  161.0260  208.5920  157.2610 C   0  0  0  0  0  1  0  0  0  0  0  0
  159.4590  209.3690  153.9400 O   0  0  0  0  0  0  0  0  0  0  0  0
  158.0580  211.1260  154.9360 C   0  0  0  0  0  1  0  0  0  0  0  0
  159.2870  210.7640  154.1160 C   0  0  0  0  0  3  0  0  0  0  0  0
  160.5320  211.4940  154.6040 C   0  0  0  0  0  1  0  0  0  0  0  0
  1 10  1  6  0  0  0
  1 15  1  0  0  0  0
  2  6  1  0  0  0  0
  3  7  1  0  0  0  0
  3 10  1  0  0  0  0
  4  5  1  0  0  0  0
  5  9  1  1  0  0  0
  5 14  1  0  0  0  0
  6 14  1  0  0  0  0
  6 19  1  1  0  0  0
  7 13  1  0  0  0  0
 11  2  1  0  0  0  0
 12 16  1  0  0  0  0
 12  7  2  0  0  0  0
 13  1  1  0  0  0  0
 13  4  2  0  0  0  0
 15  8  1  1  0  0  0
 15  9  1  0  0  0  0
 16 18  2  0  0  0  0
 17 18  1  6  0  0  0
 17  4  1  0  0  0  0
 17 11  1  0  0  0  0
 19 24  1  6  0  0  0
 19 20  1  0  0  0  0
 20 21  1  1  0  0  0
 20 22  1  0  0  0  0
 22 23  1  0  0  0  0
 24 26  1  0  0  0  0
 26 27  1  0  0  0  0
 26 25  1  0  0  0  0
M  END
>  <MODEL>
5

>  <REMARK>
 VINA RESULT:      -5.8      2.061      3.394
  Name = 
  5 active torsions:
  status: ('A' for Active; 'I' for Inactive)
    1  A    between atoms: C_1  and  C_3
    2  A    between atoms: C_1  and  C_10
    3  A    between atoms: C_1  and  O_25
    4  A    between atoms: C_3  and  O_7
    5  A    between atoms: C_17  and  O_25
                            x       y       z     vdW  Elec       q    Type
                         _______ _______ _______ _____ _____    ______ ____

>  <TORSDO>
F 5

$$$$
=
 OpenBabel11072412233D

 27 30  0  0  1  0  0  0  0  0999 V2000
  160.7680  211.0890  153.5200 C   0  0  1  0  0  3  0  0  0  0  0  0
  161.4950  205.5690  152.4890 C   0  0  0  0  0  2  0  0  0  0  0  0
  159.2270  211.1250  155.2550 N   0  0  0  0  0  2  0  0  0  0  0  0
  161.1600  208.6320  153.6080 C   0  0  0  0  0  0  0  0  0  0  0  0
  161.8840  208.8830  152.2690 C   0  0  2  0  0  3  0  0  0  0  0  0
  161.2720  206.6000  151.3810 C   0  0  1  0  0  3  0  0  0  0  0  0
  159.6670  209.9140  155.2340 C   0  0  0  0  0  0  0  0  0  0  0  0
  160.6700  212.2940  151.3390 C   0  0  0  0  0  1  0  0  0  0  0  0
  161.1050  209.8370  151.3360 C   0  0  0  0  0  2  0  0  0  0  0  0
  159.8270  211.8530  154.2570 O   0  0  0  0  0  0  0  0  0  0  0  0
  162.0400  206.1960  153.7720 C   0  0  0  0  0  2  0  0  0  0  0  0
  159.1230  208.9090  156.1340 C   0  0  0  0  0  3  0  0  0  0  0  0
  160.6260  209.7400  154.1510 C   0  0  0  0  0  0  0  0  0  0  0  0
  162.3480  207.6790  151.4490 C   0  0  0  0  0  2  0  0  0  0  0  0
  160.3770  210.9880  152.0500 C   0  0  1  0  0  3  0  0  0  0  0  0
  159.4510  207.6280  156.1700 C   0  0  0  0  0  3  0  0  0  0  0  0
  161.1480  207.2840  154.2770 C   0  0  1  0  0  3  0  0  0  0  0  0
  160.4190  206.9090  155.3350 C   0  0  0  0  0  3  0  0  0  0  0  0
  161.2290  205.9590  149.9870 C   0  0  2  0  0  3  0  0  0  0  0  0
  160.7360  206.9980  148.9670 C   0  0  2  0  0  3  0  0  0  0  0  0
  160.4150  206.2560  147.3320 S   0  0  0  0  0  1  0  0  0  0  0  0
  161.6480  208.0450  148.8410 O   0  0  0  0  0  0  0  0  0  0  0  0
  162.6060  207.5760  147.9410 C   0  0  0  0  0  1  0  0  0  0  0  0
  160.3870  204.8250  149.9840 O   0  0  0  0  0  0  0  0  0  0  0  0
  160.8120  202.5470  150.8050 C   0  0  0  0  0  1  0  0  0  0  0  0
  161.1550  203.6470  149.8120 C   0  0  0  0  0  3  0  0  0  0  0  0
  161.1990  203.1280  148.3810 C   0  0  0  0  0  1  0  0  0  0  0  0
  1 13  1  1  0  0  0
  1 10  1  0  0  0  0
  2 11  1  0  0  0  0
  4 13  2  0  0  0  0
  4 17  1  0  0  0  0
  5  9  1  6  0  0  0
  5  4  1  0  0  0  0
  6 19  1  6  0  0  0
  6 14  1  0  0  0  0
  6  2  1  0  0  0  0
  7  3  1  0  0  0  0
  7 12  2  0  0  0  0
  9 15  1  0  0  0  0
 10  3  1  0  0  0  0
 12 16  1  0  0  0  0
 13  7  1  0  0  0  0
 14  5  1  0  0  0  0
 15  8  1  6  0  0  0
 15  1  1  0  0  0  0
 17 11  1  1  0  0  0
 17 18  1  0  0  0  0
 18 16  2  0  0  0  0
 19 24  1  1  0  0  0
 20 21  1  6  0  0  0
 20 19  1  0  0  0  0
 22 20  1  0  0  0  0
 23 22  1  0  0  0  0
 26 24  1  0  0  0  0
 26 25  1  0  0  0  0
 27 26  1  0  0  0  0
M  END
>  <MODEL>
6

>  <REMARK>
 VINA RESULT:      -5.8      3.308      7.666
  Name = 
  5 active torsions:
  status: ('A' for Active; 'I' for Inactive)
    1  A    between atoms: C_1  and  C_3
    2  A    between atoms: C_1  and  C_10
    3  A    between atoms: C_1  and  O_25
    4  A    between atoms: C_3  and  O_7
    5  A    between atoms: C_17  and  O_25
                            x       y       z     vdW  Elec       q    Type
                         _______ _______ _______ _____ _____    ______ ____

>  <TORSDO>
F 5

$$$$
=
 OpenBabel11072412233D

 27 30  0  0  1  0  0  0  0  0999 V2000
  161.8970  210.4250  151.4190 C   0  0  1  0  0  3  0  0  0  0  0  0
  161.3600  204.8900  152.4860 C   0  0  0  0  0  2  0  0  0  0  0  0
  160.3040  211.4060  152.7920 N   0  0  0  0  0  2  0  0  0  0  0  0
  161.6910  208.1510  152.4100 C   0  0  0  0  0  0  0  0  0  0  0  0
  162.5350  207.7390  151.1870 C   0  0  2  0  0  3  0  0  0  0  0  0
  161.4560  205.4590  151.0690 C   0  0  1  0  0  3  0  0  0  0  0  0
  160.4450  210.2130  153.2570 C   0  0  0  0  0  0  0  0  0  0  0  0
  162.2210  210.7280  148.9650 C   0  0  0  0  0  1  0  0  0  0  0  0
  162.0630  208.4120  149.8780 C   0  0  0  0  0  2  0  0  0  0  0  0
  161.1200  211.5780  151.7000 O   0  0  0  0  0  0  0  0  0  0  0  0
  161.9570  205.8280  153.5360 C   0  0  0  0  0  2  0  0  0  0  0  0
  159.6250  209.7430  154.3620 C   0  0  0  0  0  3  0  0  0  0  0  0
  161.4010  209.4640  152.4510 C   0  0  0  0  0  0  0  0  0  0  0  0
  162.7510  206.2500  150.9120 C   0  0  0  0  0  2  0  0  0  0  0  0
  161.5850  209.8650  150.0350 C   0  0  1  0  0  3  0  0  0  0  0  0
  159.6370  208.5280  154.8870 C   0  0  0  0  0  3  0  0  0  0  0  0
  161.3190  207.1790  153.4970 C   0  0  1  0  0  3  0  0  0  0  0  0
  160.4580  207.3750  154.5030 C   0  0  0  0  0  3  0  0  0  0  0  0
  161.3490  204.3690  149.9940 C   0  0  2  0  0  3  0  0  0  0  0  0
  161.7100  204.9700  148.6260 C   0  0  2  0  0  3  0  0  0  0  0  0
  160.4130  206.0920  148.0050 S   0  0  0  0  0  1  0  0  0  0  0  0
  161.9560  203.9660  147.6890 O   0  0  0  0  0  0  0  0  0  0  0  0
  161.6300  204.5400  146.4600 C   0  0  0  0  0  1  0  0  0  0  0  0
  160.0470  203.8210  149.9650 O   0  0  0  0  0  0  0  0  0  0  0  0
  160.0060  201.7010  148.7220 C   0  0  0  0  0  1  0  0  0  0  0  0
  160.1100  202.4090  150.0640 C   0  0  0  0  0  3  0  0  0  0  0  0
  161.2770  201.8880  150.8930 C   0  0  0  0  0  1  0  0  0  0  0  0
  1 10  1  1  0  0  0
  1 13  1  0  0  0  0
  2 11  1  0  0  0  0
  3  7  1  0  0  0  0
  4 13  2  0  0  0  0
  4 17  1  0  0  0  0
  5  9  1  6  0  0  0
  5  4  1  0  0  0  0
  6 19  1  6  0  0  0
  6  2  1  0  0  0  0
  7 12  2  0  0  0  0
  9 15  1  0  0  0  0
 10  3  1  0  0  0  0
 12 16  1  0  0  0  0
 13  7  1  0  0  0  0
 14  6  1  0  0  0  0
 14  5  1  0  0  0  0
 15  8  1  6  0  0  0
 15  1  1  0  0  0  0
 17 11  1  1  0  0  0
 17 18  1  0  0  0  0
 18 16  2  0  0  0  0
 19 24  1  6  0  0  0
 20 21  1  6  0  0  0
 20 19  1  0  0  0  0
 22 20  1  0  0  0  0
 23 22  1  0  0  0  0
 24 26  1  0  0  0  0
 25 26  1  0  0  0  0
 26 27  1  0  0  0  0
M  END
>  <MODEL>
7

>  <REMARK>
 VINA RESULT:      -5.8      2.883      7.195
  Name = 
  5 active torsions:
  status: ('A' for Active; 'I' for Inactive)
    1  A    between atoms: C_1  and  C_3
    2  A    between atoms: C_1  and  C_10
    3  A    between atoms: C_1  and  O_25
    4  A    between atoms: C_3  and  O_7
    5  A    between atoms: C_17  and  O_25
                            x       y       z     vdW  Elec       q    Type
                         _______ _______ _______ _____ _____    ______ ____

>  <TORSDO>
F 5

$$$$
=
 OpenBabel11072412233D

 27 30  0  0  1  0  0  0  0  0999 V2000
  161.2790  213.3210  149.4000 C   0  0  1  0  0  3  0  0  0  0  0  0
  160.7900  208.3680  152.1020 C   0  0  0  0  0  2  0  0  0  0  0  0
  159.2920  214.4130  149.8940 N   0  0  0  0  0  2  0  0  0  0  0  0
  160.9270  211.4580  151.0130 C   0  0  0  0  0  0  0  0  0  0  0  0
  162.1200  210.8270  150.2670 C   0  0  2  0  0  3  0  0  0  0  0  0
  161.2680  208.4820  150.6520 C   0  0  1  0  0  3  0  0  0  0  0  0
  159.3610  213.4580  150.7550 C   0  0  0  0  0  0  0  0  0  0  0  0
  162.2990  212.9020  147.1630 C   0  0  0  0  0  1  0  0  0  0  0  0
  162.0190  210.9830  148.7330 C   0  0  0  0  0  2  0  0  0  0  0  0
  160.3830  214.3670  149.0600 O   0  0  0  0  0  0  0  0  0  0  0  0
  160.9890  209.6640  152.8880 C   0  0  0  0  0  2  0  0  0  0  0  0
  158.2800  213.2270  151.6990 C   0  0  0  0  0  3  0  0  0  0  0  0
  160.5580  212.6570  150.5300 C   0  0  0  0  0  0  0  0  0  0  0  0
  162.5000  209.3790  150.5800 C   0  0  0  0  0  2  0  0  0  0  0  0
  161.4270  212.3210  148.2570 C   0  0  1  0  0  3  0  0  0  0  0  0
  158.2100  212.2510  152.5900 C   0  0  0  0  0  3  0  0  0  0  0  0
  160.3090  210.8200  152.2290 C   0  0  1  0  0  3  0  0  0  0  0  0
  159.1780  211.1790  152.8470 C   0  0  0  0  0  3  0  0  0  0  0  0
  161.5530  207.1120  150.0230 C   0  0  2  0  0  3  0  0  0  0  0  0
  161.5250  207.2430  148.4920 C   0  0  2  0  0  3  0  0  0  0  0  0
  160.1760  206.2700  147.7440 S   0  0  0  0  0  1  0  0  0  0  0  0
  162.7470  206.8630  147.9360 O   0  0  0  0  0  0  0  0  0  0  0  0
  162.4170  205.9080  146.9730 C   0  0  0  0  0  1  0  0  0  0  0  0
  160.6060  206.1560  150.4550 O   0  0  0  0  0  0  0  0  0  0  0  0
  161.2210  204.9620  152.5140 C   0  0  0  0  0  1  0  0  0  0  0  0
  161.2660  205.0250  150.9950 C   0  0  0  0  0  3  0  0  0  0  0  0
  160.8640  203.7000  150.3590 C   0  0  0  0  0  1  0  0  0  0  0  0
  1 10  1  6  0  0  0
  1 13  1  0  0  0  0
  2 11  1  0  0  0  0
  3  7  1  0  0  0  0
  4 17  1  0  0  0  0
  5  9  1  6  0  0  0
  5 14  1  0  0  0  0
  5  4  1  0  0  0  0
  6 19  1  1  0  0  0
  6  2  1  0  0  0  0
  7 12  2  0  0  0  0
 10  3  1  0  0  0  0
 12 16  1  0  0  0  0
 13  7  1  0  0  0  0
 13  4  2  0  0  0  0
 14  6  1  0  0  0  0
 15  8  1  6  0  0  0
 15  9  1  0  0  0  0
 15  1  1  0  0  0  0
 16 18  2  0  0  0  0
 17 18  1  1  0  0  0
 17 11  1  0  0  0  0
 19 24  1  1  0  0  0
 20 21  1  6  0  0  0
 20 19  1  0  0  0  0
 22 20  1  0  0  0  0
 23 22  1  0  0  0  0
 24 26  1  0  0  0  0
 26 25  1  0  0  0  0
 27 26  1  0  0  0  0
M  END
>  <MODEL>
8

>  <REMARK>
 VINA RESULT:      -5.7      3.870      7.748
  Name = 
  5 active torsions:
  status: ('A' for Active; 'I' for Inactive)
    1  A    between atoms: C_1  and  C_3
    2  A    between atoms: C_1  and  C_10
    3  A    between atoms: C_1  and  O_25
    4  A    between atoms: C_3  and  O_7
    5  A    between atoms: C_17  and  O_25
                            x       y       z     vdW  Elec       q    Type
                         _______ _______ _______ _____ _____    ______ ____

>  <TORSDO>
F 5

$$$$
=
 OpenBabel11072412233D

 27 30  0  0  1  0  0  0  0  0999 V2000
  161.2930  213.2690  146.9610 C   0  0  1  0  0  3  0  0  0  0  0  0
  157.3700  213.3820  151.0420 C   0  0  0  0  0  2  0  0  0  0  0  0
  160.0960  212.6720  145.0650 N   0  0  0  0  0  2  0  0  0  0  0  0
  159.2920  213.6260  148.3970 C   0  0  0  0  0  0  0  0  0  0  0  0
  160.3380  213.6750  149.5300 C   0  0  2  0  0  3  0  0  0  0  0  0
  158.7280  212.6980  151.2120 C   0  0  1  0  0  3  0  0  0  0  0  0
  159.1990  213.0390  145.9140 C   0  0  0  0  0  0  0  0  0  0  0  0
  163.3590  212.2170  147.8800 C   0  0  0  0  0  1  0  0  0  0  0  0
  161.4130  212.5720  149.4010 C   0  0  0  0  0  2  0  0  0  0  0  0
  161.3420  212.7690  145.6340 O   0  0  0  0  0  0  0  0  0  0  0  0
  157.3850  214.4530  149.9510 C   0  0  0  0  0  2  0  0  0  0  0  0
  157.7850  212.9440  145.5910 C   0  0  0  0  0  3  0  0  0  0  0  0
  159.8210  213.4070  147.1810 C   0  0  0  0  0  0  0  0  0  0  0  0
  159.8500  213.7050  150.9790 C   0  0  0  0  0  2  0  0  0  0  0  0
  161.8460  212.2570  147.9590 C   0  0  1  0  0  3  0  0  0  0  0  0
  156.7750  213.2360  146.3950 C   0  0  0  0  0  3  0  0  0  0  0  0
  157.8310  213.8980  148.6370 C   0  0  1  0  0  3  0  0  0  0  0  0
  156.8200  213.7170  147.7800 C   0  0  0  0  0  3  0  0  0  0  0  0
  158.8750  212.0260  152.5840 C   0  0  2  0  0  3  0  0  0  0  0  0
  157.8370  212.6150  153.5500 C   0  0  2  0  0  3  0  0  0  0  0  0
  158.5760  213.8270  154.6970 S   0  0  0  0  0  1  0  0  0  0  0  0
  157.1990  211.6080  154.2730 O   0  0  0  0  0  0  0  0  0  0  0  0
  155.9840  212.1690  154.6700 C   0  0  0  0  0  1  0  0  0  0  0  0
  160.1820  212.2060  153.0910 O   0  0  0  0  0  0  0  0  0  0  0  0
  160.5040  210.4950  154.8260 C   0  0  0  0  0  1  0  0  0  0  0  0
  160.7640  210.9520  153.3990 C   0  0  0  0  0  3  0  0  0  0  0  0
  160.4630  209.8540  152.3870 C   0  0  0  0  0  1  0  0  0  0  0  0
  1 10  1  6  0  0  0
  1 13  1  0  0  0  0
  1 15  1  0  0  0  0
  2  6  1  0  0  0  0
  3 10  1  0  0  0  0
  3  7  1  0  0  0  0
  4 17  1  0  0  0  0
  4  5  1  0  0  0  0
  5  9  1  1  0  0  0
  5 14  1  0  0  0  0
  6 19  1  1  0  0  0
  7 13  1  0  0  0  0
 11  2  1  0  0  0  0
 12  7  2  0  0  0  0
 12 16  1  0  0  0  0
 13  4  2  0  0  0  0
 14  6  1  0  0  0  0
 15  8  1  1  0  0  0
 15  9  1  0  0  0  0
 16 18  2  0  0  0  0
 17 18  1  6  0  0  0
 17 11  1  0  0  0  0
 19 24  1  1  0  0  0
 19 20  1  0  0  0  0
 20 22  1  0  0  0  0
 20 21  1  1  0  0  0
 22 23  1  0  0  0  0
 24 26  1  0  0  0  0
 26 25  1  0  0  0  0
 27 26  1  0  0  0  0
M  END
>  <MODEL>
9

>  <REMARK>
 VINA RESULT:      -5.2      6.287      8.024
  Name = 
  5 active torsions:
  status: ('A' for Active; 'I' for Inactive)
    1  A    between atoms: C_1  and  C_3
    2  A    between atoms: C_1  and  C_10
    3  A    between atoms: C_1  and  O_25
    4  A    between atoms: C_3  and  O_7
    5  A    between atoms: C_17  and  O_25
                            x       y       z     vdW  Elec       q    Type
                         _______ _______ _______ _____ _____    ______ ____

>  <TORSDO>
F 5

$$$$
