=
 OpenBabel11072412383D

 31 34  0  0  1  0  0  0  0  0999 V2000
  161.9660  208.6500  151.5450 C   0  0  0  0  0  2  0  0  0  0  0  0
  161.9390  208.3010  148.9730 C   0  0  0  0  0  3  0  0  0  0  0  0
  161.2860  207.3250  151.9350 C   0  0  1  0  0  3  0  0  0  0  0  0
  162.1020  206.7940  148.9680 C   0  0  1  0  0  3  0  0  0  0  0  0
  161.9570  206.2610  151.1050 C   0  0  1  0  0  3  0  0  0  0  0  0
  161.4050  205.0080  150.5990 C   0  0  2  0  0  3  0  0  0  0  0  0
  161.1240  206.2640  149.8950 N   0  0  2  0  0  0  0  0  0  0  0  0
  161.8460  209.0730  150.0830 C   0  0  0  0  0  3  0  0  0  0  0  0
  160.7600  206.6190  146.8650 C   0  0  0  0  0  3  0  0  0  0  0  0
  161.4260  205.2510  145.0410 C   0  0  0  0  0  3  0  0  0  0  0  0
  162.7980  205.3380  147.0190 C   0  0  0  0  0  3  0  0  0  0  0  0
  160.5530  206.1230  145.6160 N   0  0  0  0  0  0  0  0  0  0  0  0
  162.5660  204.8400  145.7360 C   0  0  0  0  0  3  0  0  0  0  0  0
  161.8910  206.2390  147.5940 C   0  0  0  0  0  0  0  0  0  0  0  0
  161.4440  207.0540  153.3630 N   0  0  0  0  0  2  0  0  0  0  0  0
  160.9920  207.9140  154.4170 C   0  0  0  0  0  0  0  0  0  0  0  0
  160.4190  209.0060  154.1600 O   0  0  0  0  0  0  0  0  0  0  0  0
  161.1960  207.5410  155.7390 O   0  0  0  0  0  1  0  0  0  0  0  0
  160.2920  204.6330  151.3530 O   0  0  0  0  0  0  0  0  0  0  0  0
  160.7670  203.6370  152.2060 C   0  0  0  0  0  2  0  0  0  0  0  0
  161.4300  202.5430  151.3870 C   0  0  0  0  0  2  0  0  0  0  0  0
  160.4430  201.9560  150.3950 C   0  0  0  0  0  2  0  0  0  0  0  0
  161.1670  201.0820  149.3840 C   0  0  0  0  0  2  0  0  0  0  0  0
  160.4580  202.9450  148.0840 O   0  0  0  0  0  1  0  0  0  0  0  0
  161.2270  201.7800  148.0340 C   0  0  2  0  0  3  0  0  0  0  0  0
  161.5220  199.7280  146.8330 O   0  0  0  0  0  1  0  0  0  0  0  0
  160.7040  200.8560  146.9350 C   0  0  2  0  0  3  0  0  0  0  0  0
  159.3440  202.7860  144.2680 O   0  0  0  0  0  1  0  0  0  0  0  0
  160.6870  201.5760  145.5970 C   0  0  1  0  0  3  0  0  0  0  0  0
  160.1280  200.7730  144.6540 O   0  0  0  0  0  0  0  0  0  0  0  0
  159.3250  201.7760  145.1700 N   0  0  0  0  0  0  0  0  0  0  0  0
  1  3  1  0  0  0  0
  2  8  2  0  0  0  0
  3 15  1  1  0  0  0
  4 14  1  6  0  0  0
  4  2  1  0  0  0  0
  4  7  1  0  0  0  0
  5  3  1  0  0  0  0
  6  5  1  0  0  0  0
  6 19  1  0  0  0  0
  7  6  1  0  0  0  0
  7  5  1  0  0  0  0
  8  1  1  0  0  0  0
  9 14  1  0  0  0  0
 10 12  1  0  0  0  0
 10 13  2  0  0  0  0
 11 14  2  0  0  0  0
 12  9  2  0  0  0  0
 13 11  1  0  0  0  0
 15 16  1  0  0  0  0
 16 18  1  0  0  0  0
 17 16  2  0  0  0  0
 19 20  1  0  0  0  0
 21 20  1  0  0  0  0
 22 21  1  0  0  0  0
 23 22  1  0  0  0  0
 25 24  1  0  0  0  0
 25 23  1  0  0  0  0
 26 27  1  0  0  0  0
 27 25  1  0  0  0  0
 28 31  1  0  0  0  0
 29 27  1  0  0  0  0
 30 31  1  0  0  0  0
 30 29  1  0  0  0  0
 31 29  1  0  0  0  0
M  END
>  <MODEL>
1

>  <REMARK>
 VINA RESULT:      -7.8      0.000      0.000
  Name = 
  10 active torsions:
  status: ('A' for Active; 'I' for Inactive)
    1  A    between atoms: C_4  and  C_23
    2  A    between atoms: C_4  and  C_26
    3  A    between atoms: C_6  and  N_10
    4  A    between atoms: C_7  and  C_25
    5  A    between atoms: O_8  and  C_20
    6  A    between atoms: O_8  and  C_28
    7  A    between atoms: C_9  and  C_30
    8  A    between atoms: C_17  and  C_25
    9  A    between atoms: C_17  and  C_26
   10  A    between atoms: C_23  and  C_28
                            x       y       z     vdW  Elec       q    Type
                         _______ _______ _______ _____ _____    ______ ____

>  <TORSDO>
F 10

$$$$
=
 OpenBabel11072412383D

 31 34  0  0  1  0  0  0  0  0999 V2000
  161.0670  208.7780  154.1730 C   0  0  0  0  0  2  0  0  0  0  0  0
  161.0350  206.2180  153.7380 C   0  0  0  0  0  3  0  0  0  0  0  0
  161.5820  209.2110  152.7870 C   0  0  1  0  0  3  0  0  0  0  0  0
  160.6880  206.2650  152.2630 C   0  0  1  0  0  3  0  0  0  0  0  0
  160.7790  208.4180  151.7880 C   0  0  1  0  0  3  0  0  0  0  0  0
  161.1690  207.9530  150.4600 C   0  0  2  0  0  3  0  0  0  0  0  0
  161.5990  207.2070  151.6480 N   0  0  2  0  0  0  0  0  0  0  0  0
  161.2290  207.3020  154.5300 C   0  0  0  0  0  3  0  0  0  0  0  0
  161.0300  203.7950  152.4600 C   0  0  0  0  0  3  0  0  0  0  0  0
  161.0810  202.3630  150.5650 C   0  0  0  0  0  3  0  0  0  0  0  0
  160.7470  204.7280  150.2540 C   0  0  0  0  0  3  0  0  0  0  0  0
  161.1540  202.5570  151.9100 N   0  0  0  0  0  0  0  0  0  0  0  0
  160.8780  203.4500  149.7110 C   0  0  0  0  0  3  0  0  0  0  0  0
  160.8210  204.9100  151.6420 C   0  0  0  0  0  0  0  0  0  0  0  0
  161.3990  210.6470  152.5860 N   0  0  0  0  0  2  0  0  0  0  0  0
  160.1370  211.3260  152.6110 C   0  0  0  0  0  0  0  0  0  0  0  0
  159.0660  210.6930  152.8030 O   0  0  0  0  0  1  0  0  0  0  0  0
  160.0960  212.7000  152.4130 O   0  0  0  0  0  0  0  0  0  0  0  0
  162.2320  208.7180  149.9760 O   0  0  0  0  0  0  0  0  0  0  0  0
  162.1160  208.6390  148.5890 C   0  0  0  0  0  2  0  0  0  0  0  0
  162.4120  207.2200  148.1350 C   0  0  0  0  0  2  0  0  0  0  0  0
  161.2990  206.7100  147.2400 C   0  0  0  0  0  2  0  0  0  0  0  0
  161.8790  206.0290  146.0110 C   0  0  0  0  0  2  0  0  0  0  0  0
  163.7220  204.5330  146.1720 O   0  0  0  0  0  1  0  0  0  0  0  0
  162.3410  204.6220  146.3580 C   0  0  2  0  0  3  0  0  0  0  0  0
  160.7960  204.2510  144.5660 O   0  0  0  0  0  1  0  0  0  0  0  0
  161.6280  203.5970  145.4790 C   0  0  2  0  0  3  0  0  0  0  0  0
  160.8960  200.7040  147.4230 O   0  0  0  0  0  1  0  0  0  0  0  0
  160.7860  202.6590  146.3280 C   0  0  1  0  0  3  0  0  0  0  0  0
  160.2810  201.6670  145.5490 O   0  0  0  0  0  0  0  0  0  0  0  0
  161.3770  201.3450  146.3320 N   0  0  0  0  0  0  0  0  0  0  0  0
  1  8  1  0  0  0  0
  2  8  2  0  0  0  0
  3 15  1  6  0  0  0
  3  1  1  0  0  0  0
  4 14  1  6  0  0  0
  4  2  1  0  0  0  0
  5  3  1  0  0  0  0
  6  7  1  0  0  0  0
  6  5  1  0  0  0  0
  7  5  1  0  0  0  0
  7  4  1  0  0  0  0
 10 12  2  0  0  0  0
 11 14  1  0  0  0  0
 12  9  1  0  0  0  0
 13 11  2  0  0  0  0
 13 10  1  0  0  0  0
 14  9  2  0  0  0  0
 15 16  1  0  0  0  0
 16 17  1  0  0  0  0
 18 16  2  0  0  0  0
 19  6  1  0  0  0  0
 20 19  1  0  0  0  0
 21 20  1  0  0  0  0
 22 21  1  0  0  0  0
 23 25  1  0  0  0  0
 23 22  1  0  0  0  0
 24 25  1  0  0  0  0
 26 27  1  0  0  0  0
 27 29  1  0  0  0  0
 27 25  1  0  0  0  0
 29 31  1  0  0  0  0
 30 29  1  0  0  0  0
 30 31  1  0  0  0  0
 31 28  1  0  0  0  0
M  END
>  <MODEL>
2

>  <REMARK>
 VINA RESULT:      -7.7      2.168      4.447
  Name = 
  10 active torsions:
  status: ('A' for Active; 'I' for Inactive)
    1  A    between atoms: C_4  and  C_23
    2  A    between atoms: C_4  and  C_26
    3  A    between atoms: C_6  and  N_10
    4  A    between atoms: C_7  and  C_25
    5  A    between atoms: O_8  and  C_20
    6  A    between atoms: O_8  and  C_28
    7  A    between atoms: C_9  and  C_30
    8  A    between atoms: C_17  and  C_25
    9  A    between atoms: C_17  and  C_26
   10  A    between atoms: C_23  and  C_28
                            x       y       z     vdW  Elec       q    Type
                         _______ _______ _______ _____ _____    ______ ____

>  <TORSDO>
F 10

$$$$
=
 OpenBabel11072412383D

 31 34  0  0  1  0  0  0  0  0999 V2000
  160.6000  205.0540  151.6320 C   0  0  0  0  0  2  0  0  0  0  0  0
  160.9170  204.2080  149.1980 C   0  0  0  0  0  3  0  0  0  0  0  0
  161.2990  206.4160  151.4650 C   0  0  1  0  0  3  0  0  0  0  0  0
  160.8290  205.5510  148.5010 C   0  0  1  0  0  3  0  0  0  0  0  0
  160.7720  206.9890  150.1750 C   0  0  1  0  0  3  0  0  0  0  0  0
  161.4350  207.8820  149.2290 C   0  0  2  0  0  3  0  0  0  0  0  0
  161.7280  206.4450  149.2000 N   0  0  2  0  0  0  0  0  0  0  0  0
  160.8530  204.0180  150.5390 C   0  0  0  0  0  3  0  0  0  0  0  0
  160.4670  206.1120  146.0910 C   0  0  0  0  0  3  0  0  0  0  0  0
  161.8530  205.2510  144.3630 C   0  0  0  0  0  3  0  0  0  0  0  0
  162.2940  204.6400  146.6510 C   0  0  0  0  0  3  0  0  0  0  0  0
  160.8010  206.0100  144.7760 N   0  0  0  0  0  0  0  0  0  0  0  0
  162.6190  204.5490  145.2970 C   0  0  0  0  0  3  0  0  0  0  0  0
  161.2110  205.4290  147.0590 C   0  0  0  0  0  0  0  0  0  0  0  0
  161.0040  207.2990  152.5910 N   0  0  0  0  0  2  0  0  0  0  0  0
  161.1410  206.9420  153.9720 C   0  0  0  0  0  0  0  0  0  0  0  0
  161.5290  205.7920  154.3080 O   0  0  0  0  0  0  0  0  0  0  0  0
  160.8350  207.8760  154.9540 O   0  0  0  0  0  1  0  0  0  0  0  0
  162.4790  208.5610  149.8600 O   0  0  0  0  0  0  0  0  0  0  0  0
  162.0290  209.8770  149.9630 C   0  0  0  0  0  2  0  0  0  0  0  0
  161.9880  210.5080  148.5820 C   0  0  0  0  0  2  0  0  0  0  0  0
  161.8970  212.0180  148.6950 C   0  0  0  0  0  2  0  0  0  0  0  0
  162.9870  212.6770  147.8670 C   0  0  0  0  0  2  0  0  0  0  0  0
  161.2450  214.2730  147.5870 O   0  0  0  0  0  1  0  0  0  0  0  0
  162.3910  213.7590  146.9780 C   0  0  2  0  0  3  0  0  0  0  0  0
  162.7780  213.8360  144.6160 O   0  0  0  0  0  1  0  0  0  0  0  0
  162.0400  213.1840  145.6070 C   0  0  2  0  0  3  0  0  0  0  0  0
  158.5750  212.3630  145.6220 O   0  0  0  0  0  1  0  0  0  0  0  0
  160.5590  213.3630  145.3170 C   0  0  1  0  0  3  0  0  0  0  0  0
  160.2240  212.6590  144.2040 O   0  0  0  0  0  0  0  0  0  0  0  0
  159.8860  212.0930  145.4220 N   0  0  0  0  0  0  0  0  0  0  0  0
  2  8  2  0  0  0  0
  3  1  1  0  0  0  0
  3 15  1  1  0  0  0
  4 14  1  6  0  0  0
  4  2  1  0  0  0  0
  4  7  1  0  0  0  0
  5  3  1  0  0  0  0
  6 19  1  0  0  0  0
  6  5  1  0  0  0  0
  7  6  1  0  0  0  0
  7  5  1  0  0  0  0
  8  1  1  0  0  0  0
  9 14  1  0  0  0  0
 10 12  1  0  0  0  0
 10 13  2  0  0  0  0
 11 14  2  0  0  0  0
 12  9  2  0  0  0  0
 13 11  1  0  0  0  0
 15 16  1  0  0  0  0
 16 17  2  0  0  0  0
 16 18  1  0  0  0  0
 19 20  1  0  0  0  0
 21 22  1  0  0  0  0
 21 20  1  0  0  0  0
 23 22  1  0  0  0  0
 25 24  1  0  0  0  0
 25 23  1  0  0  0  0
 26 27  1  0  0  0  0
 27 25  1  0  0  0  0
 29 31  1  0  0  0  0
 29 27  1  0  0  0  0
 30 29  1  0  0  0  0
 30 31  1  0  0  0  0
 31 28  1  0  0  0  0
M  END
>  <MODEL>
3

>  <REMARK>
 VINA RESULT:      -7.4      4.417      7.186
  Name = 
  10 active torsions:
  status: ('A' for Active; 'I' for Inactive)
    1  A    between atoms: C_4  and  C_23
    2  A    between atoms: C_4  and  C_26
    3  A    between atoms: C_6  and  N_10
    4  A    between atoms: C_7  and  C_25
    5  A    between atoms: O_8  and  C_20
    6  A    between atoms: O_8  and  C_28
    7  A    between atoms: C_9  and  C_30
    8  A    between atoms: C_17  and  C_25
    9  A    between atoms: C_17  and  C_26
   10  A    between atoms: C_23  and  C_28
                            x       y       z     vdW  Elec       q    Type
                         _______ _______ _______ _____ _____    ______ ____

>  <TORSDO>
F 10

$$$$
=
 OpenBabel11072412383D

 31 34  0  0  1  0  0  0  0  0999 V2000
  161.1470  203.7650  148.9700 C   0  0  0  0  0  2  0  0  0  0  0  0
  160.6980  204.5780  151.3950 C   0  0  0  0  0  3  0  0  0  0  0  0
  161.1740  205.1500  148.2960 C   0  0  1  0  0  3  0  0  0  0  0  0
  161.4600  205.8860  151.3170 C   0  0  1  0  0  3  0  0  0  0  0  0
  162.0220  206.0210  149.1870 C   0  0  1  0  0  3  0  0  0  0  0  0
  161.9360  207.4600  149.4130 C   0  0  2  0  0  3  0  0  0  0  0  0
  161.0160  206.5580  150.1140 N   0  0  2  0  0  0  0  0  0  0  0  0
  160.5440  203.7020  150.3720 C   0  0  0  0  0  3  0  0  0  0  0  0
  161.0110  208.1060  152.3780 C   0  0  0  0  0  3  0  0  0  0  0  0
  160.7120  208.3600  154.7210 C   0  0  0  0  0  3  0  0  0  0  0  0
  161.1420  206.1710  153.8110 C   0  0  0  0  0  3  0  0  0  0  0  0
  160.7730  208.8860  153.4670 N   0  0  0  0  0  0  0  0  0  0  0  0
  160.8980  206.9890  154.9150 C   0  0  0  0  0  3  0  0  0  0  0  0
  161.1980  206.7280  152.5270 C   0  0  0  0  0  0  0  0  0  0  0  0
  161.7400  205.0660  146.9510 N   0  0  0  0  0  2  0  0  0  0  0  0
  161.1650  205.6570  145.7800 C   0  0  0  0  0  0  0  0  0  0  0  0
  160.0830  206.3000  145.8440 O   0  0  0  0  0  1  0  0  0  0  0  0
  161.8050  205.5140  144.5550 O   0  0  0  0  0  0  0  0  0  0  0  0
  161.2710  208.0750  148.3490 O   0  0  0  0  0  0  0  0  0  0  0  0
  161.9200  209.2990  148.1920 C   0  0  0  0  0  2  0  0  0  0  0  0
  162.0790  209.9660  149.5480 C   0  0  0  0  0  2  0  0  0  0  0  0
  162.0390  211.4750  149.4000 C   0  0  0  0  0  2  0  0  0  0  0  0
  161.6980  211.8570  147.9690 C   0  0  0  0  0  2  0  0  0  0  0  0
  160.9910  213.7570  149.2160 O   0  0  0  0  0  1  0  0  0  0  0  0
  161.1920  213.2910  147.9150 C   0  0  2  0  0  3  0  0  0  0  0  0
  158.8010  213.1600  147.9840 O   0  0  0  0  0  1  0  0  0  0  0  0
  159.8850  213.3630  147.1270 C   0  0  2  0  0  3  0  0  0  0  0  0
  160.1170  212.0440  143.8260 O   0  0  0  0  0  1  0  0  0  0  0  0
  159.8590  212.3010  146.0400 C   0  0  1  0  0  3  0  0  0  0  0  0
  158.6440  212.2990  145.4330 O   0  0  0  0  0  0  0  0  0  0  0  0
  159.6760  212.9260  144.7540 N   0  0  0  0  0  0  0  0  0  0  0  0
  1  8  1  0  0  0  0
  3 15  1  6  0  0  0
  3  1  1  0  0  0  0
  3  5  1  0  0  0  0
  4  2  1  0  0  0  0
  4 14  1  1  0  0  0
  5  6  1  0  0  0  0
  5  7  1  0  0  0  0
  6  7  1  0  0  0  0
  7  4  1  0  0  0  0
  8  2  2  0  0  0  0
  9 14  2  0  0  0  0
  9 12  1  0  0  0  0
 10 13  1  0  0  0  0
 11 13  2  0  0  0  0
 12 10  2  0  0  0  0
 14 11  1  0  0  0  0
 16 17  1  0  0  0  0
 16 15  1  0  0  0  0
 18 16  2  0  0  0  0
 19  6  1  0  0  0  0
 20 19  1  0  0  0  0
 20 21  1  0  0  0  0
 22 21  1  0  0  0  0
 23 22  1  0  0  0  0
 25 23  1  0  0  0  0
 25 24  1  0  0  0  0
 27 25  1  0  0  0  0
 27 26  1  0  0  0  0
 28 31  1  0  0  0  0
 29 27  1  0  0  0  0
 30 29  1  0  0  0  0
 31 30  1  0  0  0  0
 31 29  1  0  0  0  0
M  END
>  <MODEL>
4

>  <REMARK>
 VINA RESULT:      -7.3      4.065      8.473
  Name = 
  10 active torsions:
  status: ('A' for Active; 'I' for Inactive)
    1  A    between atoms: C_4  and  C_23
    2  A    between atoms: C_4  and  C_26
    3  A    between atoms: C_6  and  N_10
    4  A    between atoms: C_7  and  C_25
    5  A    between atoms: O_8  and  C_20
    6  A    between atoms: O_8  and  C_28
    7  A    between atoms: C_9  and  C_30
    8  A    between atoms: C_17  and  C_25
    9  A    between atoms: C_17  and  C_26
   10  A    between atoms: C_23  and  C_28
                            x       y       z     vdW  Elec       q    Type
                         _______ _______ _______ _____ _____    ______ ____

>  <TORSDO>
F 10

$$$$
=
 OpenBabel11072412383D

 31 34  0  0  1  0  0  0  0  0999 V2000
  161.8670  208.2830  148.7110 C   0  0  0  0  0  2  0  0  0  0  0  0
  161.3230  205.8960  147.8460 C   0  0  0  0  0  3  0  0  0  0  0  0
  161.4770  208.0570  150.1840 C   0  0  1  0  0  3  0  0  0  0  0  0
  161.6860  205.1340  149.1050 C   0  0  1  0  0  3  0  0  0  0  0  0
  162.0890  206.7350  150.5700 C   0  0  1  0  0  3  0  0  0  0  0  0
  161.6170  205.7550  151.5430 C   0  0  2  0  0  3  0  0  0  0  0  0
  161.0180  205.7980  150.2040 N   0  0  2  0  0  0  0  0  0  0  0  0
  161.3710  207.2440  147.7070 C   0  0  0  0  0  3  0  0  0  0  0  0
  161.3270  203.0490  147.7710 C   0  0  0  0  0  3  0  0  0  0  0  0
  160.4740  201.0530  148.7360 C   0  0  0  0  0  3  0  0  0  0  0  0
  160.7770  203.0020  150.1190 C   0  0  0  0  0  3  0  0  0  0  0  0
  160.9390  201.7500  147.6630 N   0  0  0  0  0  0  0  0  0  0  0  0
  160.3840  201.6690  149.9860 C   0  0  0  0  0  3  0  0  0  0  0  0
  161.2570  203.7040  149.0050 C   0  0  0  0  0  0  0  0  0  0  0  0
  161.9810  209.1360  151.0300 N   0  0  0  0  0  2  0  0  0  0  0  0
  161.2480  209.7560  152.0940 C   0  0  0  0  0  0  0  0  0  0  0  0
  160.0710  209.3990  152.3630 O   0  0  0  0  0  0  0  0  0  0  0  0
  161.8420  210.7700  152.8350 O   0  0  0  0  0  1  0  0  0  0  0  0
  160.7590  206.3640  152.4610 O   0  0  0  0  0  0  0  0  0  0  0  0
  161.4760  206.3720  153.6570 C   0  0  0  0  0  2  0  0  0  0  0  0
  160.5710  206.8300  154.7870 C   0  0  0  0  0  2  0  0  0  0  0  0
  161.1880  208.0120  155.5110 C   0  0  0  0  0  2  0  0  0  0  0  0
  160.1180  209.0290  155.8710 C   0  0  0  0  0  2  0  0  0  0  0  0
  161.5030  210.4150  157.2210 O   0  0  0  0  0  1  0  0  0  0  0  0
  160.7410  210.4050  156.0510 C   0  0  2  0  0  3  0  0  0  0  0  0
  158.8480  211.2540  157.2500 O   0  0  0  0  0  1  0  0  0  0  0  0
  159.6520  211.4740  156.1280 C   0  0  2  0  0  3  0  0  0  0  0  0
  158.5990  212.3440  152.8390 O   0  0  0  0  0  1  0  0  0  0  0  0
  158.7810  211.4390  154.8830 C   0  0  1  0  0  3  0  0  0  0  0  0
  157.8980  212.4700  154.9150 O   0  0  0  0  0  0  0  0  0  0  0  0
  159.0050  212.6270  154.0990 N   0  0  0  0  0  0  0  0  0  0  0  0
  1  3  1  0  0  0  0
  2  4  1  0  0  0  0
  3  5  1  0  0  0  0
  3 15  1  1  0  0  0
  4 14  1  6  0  0  0
  4  7  1  0  0  0  0
  5  6  1  0  0  0  0
  6 19  1  0  0  0  0
  7  5  1  0  0  0  0
  7  6  1  0  0  0  0
  8  2  2  0  0  0  0
  8  1  1  0  0  0  0
  9 14  1  0  0  0  0
 10 13  2  0  0  0  0
 12  9  2  0  0  0  0
 12 10  1  0  0  0  0
 13 11  1  0  0  0  0
 14 11  2  0  0  0  0
 15 16  1  0  0  0  0
 16 17  2  0  0  0  0
 16 18  1  0  0  0  0
 19 20  1  0  0  0  0
 20 21  1  0  0  0  0
 21 22  1  0  0  0  0
 22 23  1  0  0  0  0
 23 25  1  0  0  0  0
 25 27  1  0  0  0  0
 25 24  1  0  0  0  0
 27 26  1  0  0  0  0
 28 31  1  0  0  0  0
 29 30  1  0  0  0  0
 29 27  1  0  0  0  0
 31 29  1  0  0  0  0
 31 30  1  0  0  0  0
M  END
>  <MODEL>
5

>  <REMARK>
 VINA RESULT:      -7.2      3.562      7.919
  Name = 
  10 active torsions:
  status: ('A' for Active; 'I' for Inactive)
    1  A    between atoms: C_4  and  C_23
    2  A    between atoms: C_4  and  C_26
    3  A    between atoms: C_6  and  N_10
    4  A    between atoms: C_7  and  C_25
    5  A    between atoms: O_8  and  C_20
    6  A    between atoms: O_8  and  C_28
    7  A    between atoms: C_9  and  C_30
    8  A    between atoms: C_17  and  C_25
    9  A    between atoms: C_17  and  C_26
   10  A    between atoms: C_23  and  C_28
                            x       y       z     vdW  Elec       q    Type
                         _______ _______ _______ _____ _____    ______ ____

>  <TORSDO>
F 10

$$$$
=
 OpenBabel11072412383D

 31 34  0  0  1  0  0  0  0  0999 V2000
  160.8490  205.1800  151.7420 C   0  0  0  0  0  2  0  0  0  0  0  0
  161.0210  204.2540  149.3230 C   0  0  0  0  0  3  0  0  0  0  0  0
  161.4930  206.5540  151.4780 C   0  0  1  0  0  3  0  0  0  0  0  0
  160.8430  205.5670  148.5870 C   0  0  1  0  0  3  0  0  0  0  0  0
  160.8600  207.0640  150.2090 C   0  0  1  0  0  3  0  0  0  0  0  0
  161.4270  207.9400  149.1880 C   0  0  2  0  0  3  0  0  0  0  0  0
  161.7610  206.5110  149.1880 N   0  0  2  0  0  0  0  0  0  0  0  0
  161.0570  204.1120  150.6710 C   0  0  0  0  0  3  0  0  0  0  0  0
  160.3980  206.1490  146.1960 C   0  0  0  0  0  3  0  0  0  0  0  0
  161.5910  205.1500  144.4000 C   0  0  0  0  0  3  0  0  0  0  0  0
  162.1040  204.5100  146.6650 C   0  0  0  0  0  3  0  0  0  0  0  0
  160.6430  206.0100  144.8650 N   0  0  0  0  0  0  0  0  0  0  0  0
  162.3390  204.3820  145.2950 C   0  0  0  0  0  3  0  0  0  0  0  0
  161.1270  205.4020  147.1270 C   0  0  0  0  0  0  0  0  0  0  0  0
  161.2500  207.4700  152.5900 N   0  0  0  0  0  2  0  0  0  0  0  0
  161.2020  207.0900  153.9710 C   0  0  0  0  0  0  0  0  0  0  0  0
  161.3610  205.8890  154.3170 O   0  0  0  0  0  0  0  0  0  0  0  0
  160.9700  208.0580  154.9400 O   0  0  0  0  0  1  0  0  0  0  0  0
  162.4920  208.6710  149.7190 O   0  0  0  0  0  0  0  0  0  0  0  0
  161.9890  209.9630  149.8660 C   0  0  0  0  0  2  0  0  0  0  0  0
  161.9960  210.6660  148.5190 C   0  0  0  0  0  2  0  0  0  0  0  0
  162.0050  212.1700  148.7090 C   0  0  0  0  0  2  0  0  0  0  0  0
  161.1950  212.8470  147.6160 C   0  0  0  0  0  2  0  0  0  0  0  0
  159.9570  213.4000  149.5720 O   0  0  0  0  0  1  0  0  0  0  0  0
  160.1300  213.7440  148.2290 C   0  0  2  0  0  3  0  0  0  0  0  0
  157.8070  213.1730  148.3560 O   0  0  0  0  0  1  0  0  0  0  0  0
  158.8090  213.5890  147.4770 C   0  0  2  0  0  3  0  0  0  0  0  0
  159.1250  212.4030  144.1330 O   0  0  0  0  0  1  0  0  0  0  0  0
  158.9460  212.5640  146.3640 C   0  0  1  0  0  3  0  0  0  0  0  0
  157.7260  212.3120  145.8230 O   0  0  0  0  0  0  0  0  0  0  0  0
  158.5600  213.1550  145.1080 N   0  0  0  0  0  0  0  0  0  0  0  0
  2  8  2  0  0  0  0
  3  1  1  0  0  0  0
  3 15  1  1  0  0  0
  4 14  1  6  0  0  0
  4  7  1  0  0  0  0
  4  2  1  0  0  0  0
  5  3  1  0  0  0  0
  6 19  1  0  0  0  0
  6  5  1  0  0  0  0
  7  6  1  0  0  0  0
  7  5  1  0  0  0  0
  8  1  1  0  0  0  0
  9 14  1  0  0  0  0
 10 12  1  0  0  0  0
 10 13  2  0  0  0  0
 11 14  2  0  0  0  0
 12  9  2  0  0  0  0
 13 11  1  0  0  0  0
 15 16  1  0  0  0  0
 16 17  2  0  0  0  0
 16 18  1  0  0  0  0
 19 20  1  0  0  0  0
 21 22  1  0  0  0  0
 21 20  1  0  0  0  0
 23 25  1  0  0  0  0
 23 22  1  0  0  0  0
 25 24  1  0  0  0  0
 27 25  1  0  0  0  0
 27 26  1  0  0  0  0
 28 31  1  0  0  0  0
 29 27  1  0  0  0  0
 30 29  1  0  0  0  0
 31 30  1  0  0  0  0
 31 29  1  0  0  0  0
M  END
>  <MODEL>
6

>  <REMARK>
 VINA RESULT:      -7.1      4.085      7.175
  Name = 
  10 active torsions:
  status: ('A' for Active; 'I' for Inactive)
    1  A    between atoms: C_4  and  C_23
    2  A    between atoms: C_4  and  C_26
    3  A    between atoms: C_6  and  N_10
    4  A    between atoms: C_7  and  C_25
    5  A    between atoms: O_8  and  C_20
    6  A    between atoms: O_8  and  C_28
    7  A    between atoms: C_9  and  C_30
    8  A    between atoms: C_17  and  C_25
    9  A    between atoms: C_17  and  C_26
   10  A    between atoms: C_23  and  C_28
                            x       y       z     vdW  Elec       q    Type
                         _______ _______ _______ _____ _____    ______ ____

>  <TORSDO>
F 10

$$$$
=
 OpenBabel11072412383D

 31 34  0  0  1  0  0  0  0  0999 V2000
  160.7690  204.8760  151.6030 C   0  0  0  0  0  2  0  0  0  0  0  0
  160.9730  204.0810  149.1400 C   0  0  0  0  0  3  0  0  0  0  0  0
  161.4200  206.2600  151.4220 C   0  0  1  0  0  3  0  0  0  0  0  0
  160.8080  205.4330  148.4740 C   0  0  1  0  0  3  0  0  0  0  0  0
  160.8050  206.8400  150.1740 C   0  0  1  0  0  3  0  0  0  0  0  0
  161.3880  207.7680  149.2100 C   0  0  2  0  0  3  0  0  0  0  0  0
  161.7200  206.3410  149.1380 N   0  0  2  0  0  0  0  0  0  0  0  0
  160.9910  203.8670  150.4780 C   0  0  0  0  0  3  0  0  0  0  0  0
  160.4000  206.1470  146.1120 C   0  0  0  0  0  3  0  0  0  0  0  0
  161.6140  205.2430  144.2810 C   0  0  0  0  0  3  0  0  0  0  0  0
  162.0920  204.4760  146.5140 C   0  0  0  0  0  3  0  0  0  0  0  0
  160.6640  206.0800  144.7790 N   0  0  0  0  0  0  0  0  0  0  0  0
  162.3460  204.4220  145.1430 C   0  0  0  0  0  3  0  0  0  0  0  0
  161.1120  205.3470  147.0110 C   0  0  0  0  0  0  0  0  0  0  0  0
  161.1630  207.1150  152.5790 N   0  0  0  0  0  2  0  0  0  0  0  0
  161.1580  206.6720  153.9420 C   0  0  0  0  0  0  0  0  0  0  0  0
  161.3720  205.4650  154.2310 O   0  0  0  0  0  0  0  0  0  0  0  0
  160.9070  207.5860  154.9580 O   0  0  0  0  0  1  0  0  0  0  0  0
  162.4470  208.4670  149.7950 O   0  0  0  0  0  0  0  0  0  0  0  0
  161.9530  209.7570  149.9820 C   0  0  0  0  0  2  0  0  0  0  0  0
  162.0150  210.1150  151.4570 C   0  0  0  0  0  2  0  0  0  0  0  0
  160.8320  210.9850  151.8380 C   0  0  0  0  0  2  0  0  0  0  0  0
  160.1880  210.4710  153.1150 C   0  0  0  0  0  2  0  0  0  0  0  0
  161.6820  210.9380  154.9070 O   0  0  0  0  0  1  0  0  0  0  0  0
  160.5210  211.3920  154.2790 C   0  0  2  0  0  3  0  0  0  0  0  0
  159.4120  210.2920  156.0950 O   0  0  0  0  0  1  0  0  0  0  0  0
  159.3650  211.4240  155.2770 C   0  0  2  0  0  3  0  0  0  0  0  0
  156.3200  212.8170  154.0640 O   0  0  0  0  0  1  0  0  0  0  0  0
  158.0320  211.4510  154.5480 C   0  0  1  0  0  3  0  0  0  0  0  0
  157.0220  211.2550  155.4360 O   0  0  0  0  0  0  0  0  0  0  0  0
  157.2410  212.5580  155.0220 N   0  0  0  0  0  0  0  0  0  0  0  0
  2  8  2  0  0  0  0
  3  1  1  0  0  0  0
  3 15  1  1  0  0  0
  4 14  1  6  0  0  0
  4  7  1  0  0  0  0
  4  2  1  0  0  0  0
  5  3  1  0  0  0  0
  6 19  1  0  0  0  0
  6  5  1  0  0  0  0
  7  6  1  0  0  0  0
  7  5  1  0  0  0  0
  8  1  1  0  0  0  0
  9 14  1  0  0  0  0
 10 12  1  0  0  0  0
 10 13  2  0  0  0  0
 11 14  2  0  0  0  0
 12  9  2  0  0  0  0
 13 11  1  0  0  0  0
 15 16  1  0  0  0  0
 16 17  2  0  0  0  0
 16 18  1  0  0  0  0
 19 20  1  0  0  0  0
 20 21  1  0  0  0  0
 21 22  1  0  0  0  0
 22 23  1  0  0  0  0
 23 25  1  0  0  0  0
 25 24  1  0  0  0  0
 25 27  1  0  0  0  0
 27 26  1  0  0  0  0
 28 31  1  0  0  0  0
 29 31  1  0  0  0  0
 29 27  1  0  0  0  0
 29 30  1  0  0  0  0
 31 30  1  0  0  0  0
M  END
>  <MODEL>
7

>  <REMARK>
 VINA RESULT:      -7.1      3.542      7.800
  Name = 
  10 active torsions:
  status: ('A' for Active; 'I' for Inactive)
    1  A    between atoms: C_4  and  C_23
    2  A    between atoms: C_4  and  C_26
    3  A    between atoms: C_6  and  N_10
    4  A    between atoms: C_7  and  C_25
    5  A    between atoms: O_8  and  C_20
    6  A    between atoms: O_8  and  C_28
    7  A    between atoms: C_9  and  C_30
    8  A    between atoms: C_17  and  C_25
    9  A    between atoms: C_17  and  C_26
   10  A    between atoms: C_23  and  C_28
                            x       y       z     vdW  Elec       q    Type
                         _______ _______ _______ _____ _____    ______ ____

>  <TORSDO>
F 10

$$$$
=
 OpenBabel11072412383D

 31 34  0  0  1  0  0  0  0  0999 V2000
  161.3530  207.1180  153.7390 C   0  0  0  0  0  2  0  0  0  0  0  0
  161.1660  209.5230  152.7800 C   0  0  0  0  0  3  0  0  0  0  0  0
  161.2030  206.3580  152.4080 C   0  0  1  0  0  3  0  0  0  0  0  0
  161.8240  209.2620  151.4400 C   0  0  1  0  0  3  0  0  0  0  0  0
  162.0990  207.0710  151.4280 C   0  0  1  0  0  3  0  0  0  0  0  0
  161.9480  207.2140  149.9830 C   0  0  2  0  0  3  0  0  0  0  0  0
  161.1870  208.0870  150.8830 N   0  0  2  0  0  0  0  0  0  0  0  0
  160.9400  208.5880  153.7350 C   0  0  0  0  0  3  0  0  0  0  0  0
  160.9710  211.5670  150.9780 C   0  0  0  0  0  3  0  0  0  0  0  0
  161.3220  212.6600  148.8990 C   0  0  0  0  0  3  0  0  0  0  0  0
  162.1880  210.4370  149.2290 C   0  0  0  0  0  3  0  0  0  0  0  0
  160.8170  212.6440  150.1630 N   0  0  0  0  0  0  0  0  0  0  0  0
  162.0170  211.5520  148.4080 C   0  0  0  0  0  3  0  0  0  0  0  0
  161.6650  210.4390  150.5290 C   0  0  0  0  0  0  0  0  0  0  0  0
  161.5970  204.9590  152.5560 N   0  0  0  0  0  2  0  0  0  0  0  0
  161.0230  203.8630  151.8310 C   0  0  0  0  0  0  0  0  0  0  0  0
  160.0970  204.0520  150.9990 O   0  0  0  0  0  0  0  0  0  0  0  0
  161.4900  202.5750  152.0560 O   0  0  0  0  0  1  0  0  0  0  0  0
  161.1140  206.2110  149.4850 O   0  0  0  0  0  0  0  0  0  0  0  0
  160.8930  206.5680  148.1560 C   0  0  0  0  0  2  0  0  0  0  0  0
  162.2240  206.6900  147.4350 C   0  0  0  0  0  2  0  0  0  0  0  0
  162.2160  205.8560  146.1680 C   0  0  0  0  0  2  0  0  0  0  0  0
  162.1890  204.3750  146.5100 C   0  0  0  0  0  2  0  0  0  0  0  0
  160.5440  204.2860  144.7920 O   0  0  0  0  0  1  0  0  0  0  0  0
  161.6120  203.5790  145.3490 C   0  0  2  0  0  3  0  0  0  0  0  0
  159.9210  201.8870  145.2230 O   0  0  0  0  0  1  0  0  0  0  0  0
  161.1380  202.2090  145.8300 C   0  0  2  0  0  3  0  0  0  0  0  0
  161.4610  201.0200  149.1710 O   0  0  0  0  0  1  0  0  0  0  0  0
  160.9520  202.2080  147.3380 C   0  0  1  0  0  3  0  0  0  0  0  0
  159.9080  201.4040  147.6690 O   0  0  0  0  0  0  0  0  0  0  0  0
  161.1770  200.8820  147.8550 N   0  0  0  0  0  0  0  0  0  0  0  0
  2  8  2  0  0  0  0
  3 15  1  1  0  0  0
  3  1  1  0  0  0  0
  4 14  1  6  0  0  0
  4  2  1  0  0  0  0
  5  3  1  0  0  0  0
  6  7  1  0  0  0  0
  6  5  1  0  0  0  0
  7  5  1  0  0  0  0
  7  4  1  0  0  0  0
  8  1  1  0  0  0  0
 10 12  1  0  0  0  0
 11 14  2  0  0  0  0
 12  9  2  0  0  0  0
 13 10  2  0  0  0  0
 13 11  1  0  0  0  0
 14  9  1  0  0  0  0
 16 18  1  0  0  0  0
 16 15  1  0  0  0  0
 17 16  2  0  0  0  0
 19  6  1  0  0  0  0
 20 19  1  0  0  0  0
 21 20  1  0  0  0  0
 22 23  1  0  0  0  0
 22 21  1  0  0  0  0
 24 25  1  0  0  0  0
 25 27  1  0  0  0  0
 25 23  1  0  0  0  0
 26 27  1  0  0  0  0
 27 29  1  0  0  0  0
 29 30  1  0  0  0  0
 29 31  1  0  0  0  0
 30 31  1  0  0  0  0
 31 28  1  0  0  0  0
M  END
>  <MODEL>
8

>  <REMARK>
 VINA RESULT:      -7.0      2.323      4.622
  Name = 
  10 active torsions:
  status: ('A' for Active; 'I' for Inactive)
    1  A    between atoms: C_4  and  C_23
    2  A    between atoms: C_4  and  C_26
    3  A    between atoms: C_6  and  N_10
    4  A    between atoms: C_7  and  C_25
    5  A    between atoms: O_8  and  C_20
    6  A    between atoms: O_8  and  C_28
    7  A    between atoms: C_9  and  C_30
    8  A    between atoms: C_17  and  C_25
    9  A    between atoms: C_17  and  C_26
   10  A    between atoms: C_23  and  C_28
                            x       y       z     vdW  Elec       q    Type
                         _______ _______ _______ _____ _____    ______ ____

>  <TORSDO>
F 10

$$$$
=
 OpenBabel11072412383D

 31 34  0  0  1  0  0  0  0  0999 V2000
  160.7430  206.5820  154.9880 C   0  0  0  0  0  2  0  0  0  0  0  0
  159.7000  208.8600  155.6690 C   0  0  0  0  0  3  0  0  0  0  0  0
  160.9510  206.8940  153.4940 C   0  0  1  0  0  3  0  0  0  0  0  0
  160.4660  209.7350  154.6970 C   0  0  1  0  0  3  0  0  0  0  0  0
  161.5510  208.2760  153.4460 C   0  0  1  0  0  3  0  0  0  0  0  0
  161.4220  209.2960  152.4100 C   0  0  2  0  0  3  0  0  0  0  0  0
  160.3470  209.1170  153.3930 N   0  0  2  0  0  0  0  0  0  0  0  0
  159.8040  207.5110  155.7550 C   0  0  0  0  0  3  0  0  0  0  0  0
  160.2450  212.0110  155.7110 C   0  0  0  0  0  3  0  0  0  0  0  0
  158.9220  213.7200  154.7250 C   0  0  0  0  0  3  0  0  0  0  0  0
  159.0590  211.5640  153.6590 C   0  0  0  0  0  3  0  0  0  0  0  0
  159.7490  213.2770  155.7110 N   0  0  0  0  0  0  0  0  0  0  0  0
  158.5600  212.8670  153.6800 C   0  0  0  0  0  3  0  0  0  0  0  0
  159.9120  211.1250  154.6810 C   0  0  0  0  0  0  0  0  0  0  0  0
  161.8400  205.9140  152.8730 N   0  0  0  0  0  2  0  0  0  0  0  0
  161.4070  204.7400  152.1750 C   0  0  0  0  0  0  0  0  0  0  0  0
  160.1820  204.4680  152.0630 O   0  0  0  0  0  1  0  0  0  0  0  0
  162.3520  203.8870  151.6190 O   0  0  0  0  0  0  0  0  0  0  0  0
  161.0530  208.7080  151.1990 O   0  0  0  0  0  0  0  0  0  0  0  0
  162.2300  208.6780  150.4530 C   0  0  0  0  0  2  0  0  0  0  0  0
  162.2340  207.4480  149.5610 C   0  0  0  0  0  2  0  0  0  0  0  0
  160.8170  206.9520  149.3420 C   0  0  0  0  0  2  0  0  0  0  0  0
  160.8300  205.5010  148.8890 C   0  0  0  0  0  2  0  0  0  0  0  0
  160.8460  205.9960  146.5610 O   0  0  0  0  0  1  0  0  0  0  0  0
  161.5790  205.3690  147.5710 C   0  0  2  0  0  3  0  0  0  0  0  0
  161.5550  203.6880  145.8640 O   0  0  0  0  0  1  0  0  0  0  0  0
  161.7880  203.8950  147.2260 C   0  0  2  0  0  3  0  0  0  0  0  0
  160.8210  201.4820  149.6600 O   0  0  0  0  0  1  0  0  0  0  0  0
  160.8390  203.0200  148.0270 C   0  0  1  0  0  3  0  0  0  0  0  0
  160.7990  201.7750  147.4850 O   0  0  0  0  0  0  0  0  0  0  0  0
  161.5690  201.9310  148.6250 N   0  0  0  0  0  0  0  0  0  0  0  0
  1  8  1  0  0  0  0
  2  8  2  0  0  0  0
  3 15  1  1  0  0  0
  3  1  1  0  0  0  0
  4 14  1  6  0  0  0
  4  2  1  0  0  0  0
  5  3  1  0  0  0  0
  6  7  1  0  0  0  0
  6  5  1  0  0  0  0
  7  5  1  0  0  0  0
  7  4  1  0  0  0  0
 10 12  2  0  0  0  0
 11 13  2  0  0  0  0
 11 14  1  0  0  0  0
 12  9  1  0  0  0  0
 13 10  1  0  0  0  0
 14  9  2  0  0  0  0
 16 15  1  0  0  0  0
 17 16  1  0  0  0  0
 18 16  2  0  0  0  0
 19  6  1  0  0  0  0
 20 19  1  0  0  0  0
 21 20  1  0  0  0  0
 22 21  1  0  0  0  0
 23 22  1  0  0  0  0
 24 25  1  0  0  0  0
 25 23  1  0  0  0  0
 26 27  1  0  0  0  0
 27 25  1  0  0  0  0
 27 29  1  0  0  0  0
 29 31  1  0  0  0  0
 30 29  1  0  0  0  0
 30 31  1  0  0  0  0
 31 28  1  0  0  0  0
M  END
>  <MODEL>
9

>  <REMARK>
 VINA RESULT:      -6.8      2.896      6.407
  Name = 
  10 active torsions:
  status: ('A' for Active; 'I' for Inactive)
    1  A    between atoms: C_4  and  C_23
    2  A    between atoms: C_4  and  C_26
    3  A    between atoms: C_6  and  N_10
    4  A    between atoms: C_7  and  C_25
    5  A    between atoms: O_8  and  C_20
    6  A    between atoms: O_8  and  C_28
    7  A    between atoms: C_9  and  C_30
    8  A    between atoms: C_17  and  C_25
    9  A    between atoms: C_17  and  C_26
   10  A    between atoms: C_23  and  C_28
                            x       y       z     vdW  Elec       q    Type
                         _______ _______ _______ _____ _____    ______ ____

>  <TORSDO>
F 10

$$$$
