=
 OpenBabel11072413163D

 27 31  0  0  1  0  0  0  0  0999 V2000
  162.2840  207.9950  150.5340 C   0  0  1  0  0  3  0  0  0  0  0  0
  160.9770  209.3410  151.9730 N   0  0  0  0  0  0  0  0  0  0  0  0
  160.9290  206.0630  150.2900 C   0  0  1  0  0  3  0  0  0  0  0  0
  161.3640  207.2540  151.0550 C   0  0  2  0  0  3  0  0  0  0  0  0
  162.8580  207.4900  148.9330 S   0  0  0  0  0  0  0  0  0  0  0  0
  161.5180  206.2320  148.8850 C   0  0  2  0  0  3  0  0  0  0  0  0
  162.1010  209.3930  151.0190 C   0  0  0  0  0  2  0  0  0  0  0  0
  160.5410  208.0060  151.9180 N   0  0  0  0  0  2  0  0  0  0  0  0
  161.4810  204.8090  150.9510 C   0  0  0  0  0  2  0  0  0  0  0  0
  160.6010  203.6020  150.6610 C   0  0  1  0  0  3  0  0  0  0  0  0
  160.5970  203.3090  149.2390 N   0  0  0  0  0  0  0  0  0  0  0  0
  161.1970  201.1550  150.0120 C   0  0  0  0  0  2  0  0  0  0  0  0
  160.8940  201.7060  147.5370 N   0  0  0  0  0  2  0  0  0  0  0  0
  161.2600  202.1450  151.5350 S   0  0  0  0  0  0  0  0  0  0  0  0
  160.8840  202.0990  148.9100 C   0  0  0  0  0  0  0  0  0  0  0  0
  161.2150  200.3510  147.1190 C   0  0  0  0  0  2  0  0  0  0  0  0
  160.8070  200.1470  145.6730 C   0  0  0  0  0  2  0  0  0  0  0  0
  160.1630  201.2890  145.1960 O   0  0  0  0  0  1  0  0  0  0  0  0
  160.4200  206.6690  147.9260 C   0  0  0  0  0  2  0  0  0  0  0  0
  160.7440  206.2510  146.5020 C   0  0  0  0  0  2  0  0  0  0  0  0
  161.4330  205.0380  146.4980 O   0  0  0  0  0  1  0  0  0  0  0  0
  161.5240  209.5560  153.3040 C   0  0  0  0  0  2  0  0  0  0  0  0
  160.5560  209.0320  154.3530 C   0  0  2  0  0  3  0  0  0  0  0  0
  160.7660  209.7640  155.6600 C   0  0  1  0  0  0  0  0  0  0  0  0
  161.3170  208.3540  155.4710 C   0  0  2  0  0  3  0  0  0  0  0  0
  162.0400  209.3430  156.3580 C   0  0  0  0  0  2  0  0  0  0  0  0
  159.6570  209.6590  156.4960 O   0  0  0  0  0  1  0  0  0  0  0  0
  1  7  1  6  0  0  0
  1  4  1  0  0  0  0
  2 22  1  0  0  0  0
  3  9  1  1  0  0  0
  3  4  1  0  0  0  0
  4  8  1  6  0  0  0
  5  1  1  0  0  0  0
  6 19  1  6  0  0  0
  6  5  1  0  0  0  0
  6  3  1  0  0  0  0
  7  2  1  0  0  0  0
  8  2  1  0  0  0  0
 10  9  1  6  0  0  0
 10 14  1  0  0  0  0
 11 10  1  0  0  0  0
 12 14  1  0  0  0  0
 13 15  1  0  0  0  0
 15 11  2  0  0  0  0
 15 12  1  0  0  0  0
 16 13  1  0  0  0  0
 17 16  1  0  0  0  0
 18 17  1  0  0  0  0
 20 19  1  0  0  0  0
 21 20  1  0  0  0  0
 23 22  1  6  0  0  0
 23 25  1  0  0  0  0
 23 24  1  0  0  0  0
 24 26  1  0  0  0  0
 24 27  1  1  0  0  0
 25 24  1  0  0  0  0
 25 26  1  6  0  0  0
M  END
>  <MODEL>
1

>  <REMARK>
 VINA RESULT:      -6.4      0.000      0.000
  Name = 
  8 active torsions:
  status: ('A' for Active; 'I' for Inactive)
    1  A    between atoms: C_2  and  C_7
    2  A    between atoms: C_4  and  C_11
    3  A    between atoms: C_4  and  N_16
    4  A    between atoms: N_5  and  C_21
    5  A    between atoms: C_6  and  C_7
    6  A    between atoms: C_10  and  C_21
    7  A    between atoms: C_13  and  C_19
    8  A    between atoms: C_18  and  C_19
                            x       y       z     vdW  Elec       q    Type
                         _______ _______ _______ _____ _____    ______ ____

>  <TORSDO>
F 8

$$$$
=
 OpenBabel11072413163D

 27 31  0  0  1  0  0  0  0  0999 V2000
  159.7930  210.1800  154.9170 C   0  0  1  0  0  3  0  0  0  0  0  0
  160.6810  211.7540  153.3910 N   0  0  0  0  0  0  0  0  0  0  0  0
  161.2690  208.3420  154.6520 C   0  0  1  0  0  3  0  0  0  0  0  0
  160.6150  209.5650  154.1340 C   0  0  2  0  0  3  0  0  0  0  0  0
  159.6100  209.4810  156.5370 S   0  0  0  0  0  0  0  0  0  0  0  0
  160.9930  208.3300  156.1610 C   0  0  2  0  0  3  0  0  0  0  0  0
  159.7920  211.6290  154.5610 C   0  0  0  0  0  2  0  0  0  0  0  0
  161.1880  210.4570  153.2050 N   0  0  0  0  0  2  0  0  0  0  0  0
  160.6520  207.1190  153.9900 C   0  0  0  0  0  2  0  0  0  0  0  0
  161.6610  206.4110  153.0970 C   0  0  1  0  0  3  0  0  0  0  0  0
  161.2550  205.0350  152.8690 N   0  0  0  0  0  0  0  0  0  0  0  0
  161.5320  205.6700  150.6070 C   0  0  0  0  0  2  0  0  0  0  0  0
  160.8190  203.3210  151.3110 N   0  0  0  0  0  2  0  0  0  0  0  0
  161.7390  207.2500  151.4820 S   0  0  0  0  0  0  0  0  0  0  0  0
  161.1950  204.6590  151.6400 C   0  0  0  0  0  0  0  0  0  0  0  0
  160.7360  202.8530  149.9380 C   0  0  0  0  0  2  0  0  0  0  0  0
  160.5710  201.3460  149.9150 C   0  0  0  0  0  2  0  0  0  0  0  0
  161.3300  200.8010  148.8780 O   0  0  0  0  0  1  0  0  0  0  0  0
  162.2500  208.7530  156.9070 C   0  0  0  0  0  2  0  0  0  0  0  0
  162.1990  210.2300  157.2610 C   0  0  0  0  0  2  0  0  0  0  0  0
  162.9950  210.9660  156.3820 O   0  0  0  0  0  1  0  0  0  0  0  0
  159.8450  212.0540  152.2380 C   0  0  0  0  0  2  0  0  0  0  0  0
  159.1760  213.4070  152.4230 C   0  0  2  0  0  3  0  0  0  0  0  0
  157.8620  213.4380  151.6730 C   0  0  1  0  0  0  0  0  0  0  0  0
  159.0930  214.1310  151.0970 C   0  0  2  0  0  3  0  0  0  0  0  0
  158.0550  213.5300  150.1760 C   0  0  0  0  0  2  0  0  0  0  0  0
  157.0180  214.4390  152.1500 O   0  0  0  0  0  1  0  0  0  0  0  0
  1  7  1  1  0  0  0
  1  5  1  0  0  0  0
  2  7  1  0  0  0  0
  3  9  1  6  0  0  0
  3  6  1  0  0  0  0
  4  8  1  1  0  0  0
  4  3  1  0  0  0  0
  4  1  1  0  0  0  0
  6  5  1  0  0  0  0
  6 19  1  1  0  0  0
  8  2  1  0  0  0  0
 10  9  1  1  0  0  0
 11 10  1  0  0  0  0
 12 14  1  0  0  0  0
 12 15  1  0  0  0  0
 13 15  1  0  0  0  0
 14 10  1  0  0  0  0
 15 11  2  0  0  0  0
 16 13  1  0  0  0  0
 17 16  1  0  0  0  0
 18 17  1  0  0  0  0
 19 20  1  0  0  0  0
 21 20  1  0  0  0  0
 22  2  1  0  0  0  0
 23 22  1  6  0  0  0
 24 27  1  1  0  0  0
 24 23  1  0  0  0  0
 25 26  1  6  0  0  0
 25 24  1  0  0  0  0
 25 23  1  0  0  0  0
 26 24  1  0  0  0  0
M  END
>  <MODEL>
2

>  <REMARK>
 VINA RESULT:      -5.8      3.512      6.148
  Name = 
  8 active torsions:
  status: ('A' for Active; 'I' for Inactive)
    1  A    between atoms: C_2  and  C_7
    2  A    between atoms: C_4  and  C_11
    3  A    between atoms: C_4  and  N_16
    4  A    between atoms: N_5  and  C_21
    5  A    between atoms: C_6  and  C_7
    6  A    between atoms: C_10  and  C_21
    7  A    between atoms: C_13  and  C_19
    8  A    between atoms: C_18  and  C_19
                            x       y       z     vdW  Elec       q    Type
                         _______ _______ _______ _____ _____    ______ ____

>  <TORSDO>
F 8

$$$$
=
 OpenBabel11072413163D

 27 31  0  0  1  0  0  0  0  0999 V2000
  158.8660  211.5510  154.2380 C   0  0  1  0  0  3  0  0  0  0  0  0
  158.9550  213.4320  152.8080 N   0  0  0  0  0  0  0  0  0  0  0  0
  160.7070  210.2610  153.4820 C   0  0  1  0  0  3  0  0  0  0  0  0
  159.6490  211.2710  153.2510 C   0  0  2  0  0  3  0  0  0  0  0  0
  159.2160  210.7040  155.7580 S   0  0  0  0  0  0  0  0  0  0  0  0
  160.7580  210.0500  155.0000 C   0  0  2  0  0  3  0  0  0  0  0  0
  158.3910  212.9570  154.0850 C   0  0  0  0  0  2  0  0  0  0  0  0
  159.7520  212.3630  152.3650 N   0  0  0  0  0  2  0  0  0  0  0  0
  160.3320  208.9660  152.7770 C   0  0  0  0  0  2  0  0  0  0  0  0
  161.5000  208.4240  151.9660 C   0  0  1  0  0  3  0  0  0  0  0  0
  161.1430  207.1580  151.3500 N   0  0  0  0  0  0  0  0  0  0  0  0
  161.8850  208.2680  149.3980 C   0  0  0  0  0  2  0  0  0  0  0  0
  161.0310  205.8620  149.3850 N   0  0  0  0  0  2  0  0  0  0  0  0
  161.9150  209.5990  150.6360 S   0  0  0  0  0  0  0  0  0  0  0  0
  161.3370  207.0710  150.0820 C   0  0  0  0  0  0  0  0  0  0  0  0
  161.2310  205.7190  147.9530 C   0  0  0  0  0  2  0  0  0  0  0  0
  161.6020  204.2850  147.6240 C   0  0  0  0  0  2  0  0  0  0  0  0
  161.0620  203.4250  148.5810 O   0  0  0  0  0  1  0  0  0  0  0  0
  161.9720  210.7680  155.5690 C   0  0  0  0  0  2  0  0  0  0  0  0
  162.5060  210.0450  156.7940 C   0  0  0  0  0  2  0  0  0  0  0  0
  162.0970  208.7110  156.7860 O   0  0  0  0  0  1  0  0  0  0  0  0
  157.8530  213.5590  151.8660 C   0  0  0  0  0  2  0  0  0  0  0  0
  158.3470  213.2950  150.4530 C   0  0  2  0  0  3  0  0  0  0  0  0
  157.8700  214.3920  149.5260 C   0  0  1  0  0  0  0  0  0  0  0  0
  157.1740  213.0340  149.5320 C   0  0  2  0  0  3  0  0  0  0  0  0
  156.3910  214.2910  149.2270 C   0  0  0  0  0  2  0  0  0  0  0  0
  158.6320  214.4530  148.3610 O   0  0  0  0  0  1  0  0  0  0  0  0
  1  7  1  1  0  0  0
  1  5  1  0  0  0  0
  2  7  1  0  0  0  0
  3  9  1  6  0  0  0
  3  6  1  0  0  0  0
  4  8  1  1  0  0  0
  4  3  1  0  0  0  0
  4  1  1  0  0  0  0
  6 19  1  1  0  0  0
  6  5  1  0  0  0  0
  8  2  1  0  0  0  0
 10  9  1  6  0  0  0
 11 10  1  0  0  0  0
 12 15  1  0  0  0  0
 12 14  1  0  0  0  0
 13 15  1  0  0  0  0
 14 10  1  0  0  0  0
 15 11  2  0  0  0  0
 16 13  1  0  0  0  0
 17 16  1  0  0  0  0
 17 18  1  0  0  0  0
 19 20  1  0  0  0  0
 21 20  1  0  0  0  0
 22  2  1  0  0  0  0
 23 22  1  1  0  0  0
 24 27  1  6  0  0  0
 24 25  1  0  0  0  0
 24 23  1  0  0  0  0
 25 26  1  1  0  0  0
 25 23  1  0  0  0  0
 26 24  1  0  0  0  0
M  END
>  <MODEL>
3

>  <REMARK>
 VINA RESULT:      -5.7      4.221      6.966
  Name = 
  8 active torsions:
  status: ('A' for Active; 'I' for Inactive)
    1  A    between atoms: C_2  and  C_7
    2  A    between atoms: C_4  and  C_11
    3  A    between atoms: C_4  and  N_16
    4  A    between atoms: N_5  and  C_21
    5  A    between atoms: C_6  and  C_7
    6  A    between atoms: C_10  and  C_21
    7  A    between atoms: C_13  and  C_19
    8  A    between atoms: C_18  and  C_19
                            x       y       z     vdW  Elec       q    Type
                         _______ _______ _______ _____ _____    ______ ____

>  <TORSDO>
F 8

$$$$
=
 OpenBabel11072413163D

 27 31  0  0  1  0  0  0  0  0999 V2000
  161.8670  206.1060  150.8120 C   0  0  1  0  0  3  0  0  0  0  0  0
  160.2830  206.0030  149.0600 N   0  0  0  0  0  0  0  0  0  0  0  0
  161.3050  208.1510  151.8740 C   0  0  1  0  0  3  0  0  0  0  0  0
  161.3330  207.2740  150.6820 C   0  0  2  0  0  3  0  0  0  0  0  0
  162.4490  205.7080  152.4410 S   0  0  0  0  0  0  0  0  0  0  0  0
  161.6680  207.2520  153.0620 C   0  0  2  0  0  3  0  0  0  0  0  0
  161.2230  205.1760  149.8400 C   0  0  0  0  0  2  0  0  0  0  0  0
  160.3670  207.2740  149.6550 N   0  0  0  0  0  2  0  0  0  0  0  0
  162.3350  209.2590  151.7110 C   0  0  0  0  0  2  0  0  0  0  0  0
  161.8760  210.5410  152.3900 C   0  0  1  0  0  3  0  0  0  0  0  0
  160.4550  210.7470  152.1730 N   0  0  0  0  0  0  0  0  0  0  0  0
  160.4520  210.9390  154.5300 C   0  0  0  0  0  2  0  0  0  0  0  0
  158.3390  211.1780  153.1170 N   0  0  0  0  0  2  0  0  0  0  0  0
  162.1580  210.4130  154.1860 S   0  0  0  0  0  0  0  0  0  0  0  0
  159.7450  210.9510  153.2250 C   0  0  0  0  0  0  0  0  0  0  0  0
  157.4970  211.4110  154.2780 C   0  0  0  0  0  2  0  0  0  0  0  0
  157.0280  212.8530  154.2960 C   0  0  0  0  0  2  0  0  0  0  0  0
  157.1360  213.4020  153.0170 O   0  0  0  0  0  1  0  0  0  0  0  0
  160.4090  206.9260  153.8520 C   0  0  0  0  0  2  0  0  0  0  0  0
  160.6280  207.1490  155.3390 C   0  0  0  0  0  2  0  0  0  0  0  0
  159.4030  207.2540  155.9980 O   0  0  0  0  0  1  0  0  0  0  0  0
  160.8240  206.1260  147.7150 C   0  0  0  0  0  2  0  0  0  0  0  0
  161.8200  205.0080  147.4540 C   0  0  2  0  0  3  0  0  0  0  0  0
  162.5610  205.2690  146.1610 C   0  0  1  0  0  0  0  0  0  0  0  0
  161.4310  204.2450  146.2060 C   0  0  2  0  0  3  0  0  0  0  0  0
  161.6950  205.0340  144.9430 C   0  0  0  0  0  2  0  0  0  0  0  0
  163.7550  204.5540  146.0950 O   0  0  0  0  0  1  0  0  0  0  0  0
  1  7  1  1  0  0  0
  1  5  1  0  0  0  0
  2  8  1  0  0  0  0
  2  7  1  0  0  0  0
  3  9  1  6  0  0  0
  3  6  1  0  0  0  0
  4  8  1  1  0  0  0
  4  1  1  0  0  0  0
  4  3  1  0  0  0  0
  5  6  1  0  0  0  0
  6 19  1  6  0  0  0
 10  9  1  6  0  0  0
 10 14  1  0  0  0  0
 11 10  1  0  0  0  0
 11 15  2  0  0  0  0
 13 15  1  0  0  0  0
 13 16  1  0  0  0  0
 14 12  1  0  0  0  0
 15 12  1  0  0  0  0
 16 17  1  0  0  0  0
 18 17  1  0  0  0  0
 19 20  1  0  0  0  0
 20 21  1  0  0  0  0
 22  2  1  0  0  0  0
 23 22  1  6  0  0  0
 24 27  1  6  0  0  0
 24 25  1  0  0  0  0
 24 23  1  0  0  0  0
 25 26  1  6  0  0  0
 25 23  1  0  0  0  0
 26 24  1  0  0  0  0
M  END
>  <MODEL>
4

>  <REMARK>
 VINA RESULT:      -5.6      2.763      8.904
  Name = 
  8 active torsions:
  status: ('A' for Active; 'I' for Inactive)
    1  A    between atoms: C_2  and  C_7
    2  A    between atoms: C_4  and  C_11
    3  A    between atoms: C_4  and  N_16
    4  A    between atoms: N_5  and  C_21
    5  A    between atoms: C_6  and  C_7
    6  A    between atoms: C_10  and  C_21
    7  A    between atoms: C_13  and  C_19
    8  A    between atoms: C_18  and  C_19
                            x       y       z     vdW  Elec       q    Type
                         _______ _______ _______ _____ _____    ______ ____

>  <TORSDO>
F 8

$$$$
=
 OpenBabel11072413163D

 27 31  0  0  1  0  0  0  0  0999 V2000
  159.3640  211.6550  153.1610 C   0  0  1  0  0  3  0  0  0  0  0  0
  160.1260  213.0770  151.4320 N   0  0  0  0  0  0  0  0  0  0  0  0
  160.9960  209.9340  153.1470 C   0  0  1  0  0  3  0  0  0  0  0  0
  160.2430  211.0130  152.4680 C   0  0  2  0  0  3  0  0  0  0  0  0
  159.2280  211.1700  154.8630 S   0  0  0  0  0  0  0  0  0  0  0  0
  160.7100  210.1040  154.6440 C   0  0  2  0  0  3  0  0  0  0  0  0
  159.2400  213.0360  152.6110 C   0  0  0  0  0  2  0  0  0  0  0  0
  160.7450  211.8160  151.4240 N   0  0  0  0  0  2  0  0  0  0  0  0
  160.4950  208.5830  152.6590 C   0  0  0  0  0  2  0  0  0  0  0  0
  161.6040  207.8010  151.9700 C   0  0  1  0  0  3  0  0  0  0  0  0
  161.2630  206.3910  151.9070 N   0  0  0  0  0  0  0  0  0  0  0  0
  161.7310  206.7140  149.6110 C   0  0  0  0  0  2  0  0  0  0  0  0
  161.0280  204.4580  150.5790 N   0  0  0  0  0  2  0  0  0  0  0  0
  161.8070  208.4080  150.2650 S   0  0  0  0  0  0  0  0  0  0  0  0
  161.3300  205.8440  150.7450 C   0  0  0  0  0  0  0  0  0  0  0  0
  161.0880  203.7990  149.2850 C   0  0  0  0  0  2  0  0  0  0  0  0
  160.5970  202.3690  149.4110 C   0  0  0  0  0  2  0  0  0  0  0  0
  160.9810  201.6360  148.2880 O   0  0  0  0  0  1  0  0  0  0  0  0
  161.9170  210.7330  155.3210 C   0  0  0  0  0  2  0  0  0  0  0  0
  162.3730  209.8970  156.5050 C   0  0  0  0  0  2  0  0  0  0  0  0
  161.3930  208.9640  156.8450 O   0  0  0  0  0  1  0  0  0  0  0  0
  159.2770  213.1430  150.2520 C   0  0  0  0  0  2  0  0  0  0  0  0
  159.8550  214.1330  149.2540 C   0  0  2  0  0  3  0  0  0  0  0  0
  159.9330  213.4970  147.8830 C   0  0  1  0  0  0  0  0  0  0  0  0
  161.1890  213.6350  148.7400 C   0  0  2  0  0  3  0  0  0  0  0  0
  161.0400  212.4700  147.7870 C   0  0  0  0  0  2  0  0  0  0  0  0
  160.0240  214.4530  146.8730 O   0  0  0  0  0  1  0  0  0  0  0  0
  1  7  1  1  0  0  0
  1  5  1  0  0  0  0
  2  7  1  0  0  0  0
  3  9  1  6  0  0  0
  3  6  1  0  0  0  0
  4  8  1  1  0  0  0
  4  3  1  0  0  0  0
  4  1  1  0  0  0  0
  6  5  1  0  0  0  0
  6 19  1  1  0  0  0
  8  2  1  0  0  0  0
 10  9  1  6  0  0  0
 11 10  1  0  0  0  0
 12 14  1  0  0  0  0
 12 15  1  0  0  0  0
 13 15  1  0  0  0  0
 14 10  1  0  0  0  0
 15 11  2  0  0  0  0
 16 17  1  0  0  0  0
 16 13  1  0  0  0  0
 18 17  1  0  0  0  0
 19 20  1  0  0  0  0
 20 21  1  0  0  0  0
 22  2  1  0  0  0  0
 23 22  1  1  0  0  0
 24 27  1  6  0  0  0
 24 25  1  0  0  0  0
 24 23  1  0  0  0  0
 25 26  1  1  0  0  0
 25 23  1  0  0  0  0
 26 24  1  0  0  0  0
M  END
>  <MODEL>
5

>  <REMARK>
 VINA RESULT:      -5.4      3.707      6.617
  Name = 
  8 active torsions:
  status: ('A' for Active; 'I' for Inactive)
    1  A    between atoms: C_2  and  C_7
    2  A    between atoms: C_4  and  C_11
    3  A    between atoms: C_4  and  N_16
    4  A    between atoms: N_5  and  C_21
    5  A    between atoms: C_6  and  C_7
    6  A    between atoms: C_10  and  C_21
    7  A    between atoms: C_13  and  C_19
    8  A    between atoms: C_18  and  C_19
                            x       y       z     vdW  Elec       q    Type
                         _______ _______ _______ _____ _____    ______ ____

>  <TORSDO>
F 8

$$$$
=
 OpenBabel11072413163D

 27 31  0  0  1  0  0  0  0  0999 V2000
  159.5920  210.0470  155.1960 C   0  0  1  0  0  3  0  0  0  0  0  0
  160.1880  212.1640  154.3270 N   0  0  0  0  0  0  0  0  0  0  0  0
  161.2210  208.6290  154.2160 C   0  0  1  0  0  3  0  0  0  0  0  0
  160.4050  209.8640  154.2110 C   0  0  2  0  0  3  0  0  0  0  0  0
  159.6140  208.7910  156.4500 S   0  0  0  0  0  0  0  0  0  0  0  0
  161.0720  208.0360  155.6220 C   0  0  2  0  0  3  0  0  0  0  0  0
  159.4140  211.5130  155.4020 C   0  0  0  0  0  2  0  0  0  0  0  0
  160.8070  211.0960  153.6560 N   0  0  0  0  0  2  0  0  0  0  0  0
  160.6800  207.6620  153.1720 C   0  0  0  0  0  2  0  0  0  0  0  0
  161.7120  207.3920  152.0860 C   0  0  1  0  0  3  0  0  0  0  0  0
  161.2170  206.3920  151.1570 N   0  0  0  0  0  0  0  0  0  0  0  0
  161.7750  208.0560  149.5720 C   0  0  0  0  0  2  0  0  0  0  0  0
  160.8010  205.7890  148.9180 N   0  0  0  0  0  2  0  0  0  0  0  0
  162.0240  208.9240  151.1500 S   0  0  0  0  0  0  0  0  0  0  0  0
  161.2520  206.7100  149.9120 C   0  0  0  0  0  0  0  0  0  0  0  0
  160.8190  206.1050  147.4990 C   0  0  0  0  0  2  0  0  0  0  0  0
  161.8670  205.2650  146.7960 C   0  0  0  0  0  2  0  0  0  0  0  0
  162.1930  205.8430  145.5680 O   0  0  0  0  0  1  0  0  0  0  0  0
  162.3350  208.3140  156.4230 C   0  0  0  0  0  2  0  0  0  0  0  0
  162.2280  209.6350  157.1660 C   0  0  0  0  0  2  0  0  0  0  0  0
  163.0080  210.6080  156.5390 O   0  0  0  0  0  1  0  0  0  0  0  0
  159.2340  212.7540  153.4000 C   0  0  0  0  0  2  0  0  0  0  0  0
  158.0330  213.2880  154.1640 C   0  0  2  0  0  3  0  0  0  0  0  0
  156.7710  213.0670  153.3590 C   0  0  1  0  0  0  0  0  0  0  0  0
  157.4150  214.4490  153.4150 C   0  0  2  0  0  3  0  0  0  0  0  0
  156.6700  214.0040  152.1760 C   0  0  0  0  0  2  0  0  0  0  0  0
  155.6310  213.1170  154.1600 O   0  0  0  0  0  1  0  0  0  0  0  0
  1  7  1  1  0  0  0
  1  5  1  0  0  0  0
  2  7  1  0  0  0  0
  3  9  1  6  0  0  0
  3  6  1  0  0  0  0
  4  8  1  1  0  0  0
  4  3  1  0  0  0  0
  4  1  1  0  0  0  0
  6 19  1  1  0  0  0
  6  5  1  0  0  0  0
  8  2  1  0  0  0  0
 10  9  1  1  0  0  0
 11 10  1  0  0  0  0
 12 15  1  0  0  0  0
 12 14  1  0  0  0  0
 13 15  1  0  0  0  0
 14 10  1  0  0  0  0
 15 11  2  0  0  0  0
 16 13  1  0  0  0  0
 17 16  1  0  0  0  0
 18 17  1  0  0  0  0
 19 20  1  0  0  0  0
 21 20  1  0  0  0  0
 22  2  1  0  0  0  0
 23 22  1  6  0  0  0
 24 25  1  0  0  0  0
 24 27  1  1  0  0  0
 24 23  1  0  0  0  0
 25 26  1  6  0  0  0
 25 23  1  0  0  0  0
 26 24  1  0  0  0  0
M  END
>  <MODEL>
6

>  <REMARK>
 VINA RESULT:      -5.0      3.473      6.344
  Name = 
  8 active torsions:
  status: ('A' for Active; 'I' for Inactive)
    1  A    between atoms: C_2  and  C_7
    2  A    between atoms: C_4  and  C_11
    3  A    between atoms: C_4  and  N_16
    4  A    between atoms: N_5  and  C_21
    5  A    between atoms: C_6  and  C_7
    6  A    between atoms: C_10  and  C_21
    7  A    between atoms: C_13  and  C_19
    8  A    between atoms: C_18  and  C_19
                            x       y       z     vdW  Elec       q    Type
                         _______ _______ _______ _____ _____    ______ ____

>  <TORSDO>
F 8

$$$$
=
 OpenBabel11072413163D

 27 31  0  0  1  0  0  0  0  0999 V2000
  160.7970  212.7920  146.3000 C   0  0  1  0  0  3  0  0  0  0  0  0
  162.0520  213.9790  144.6850 N   0  0  0  0  0  0  0  0  0  0  0  0
  162.2220  212.8720  148.1960 C   0  0  1  0  0  3  0  0  0  0  0  0
  162.0090  212.9000  146.7310 C   0  0  2  0  0  3  0  0  0  0  0  0
  159.5480  212.6720  147.5540 S   0  0  0  0  0  0  0  0  0  0  0  0
  160.8310  213.0310  148.8210 C   0  0  2  0  0  3  0  0  0  0  0  0
  160.6900  213.5040  144.9950 C   0  0  0  0  0  2  0  0  0  0  0  0
  162.8080  213.6120  145.8120 N   0  0  0  0  0  2  0  0  0  0  0  0
  162.8320  211.5350  148.5920 C   0  0  0  0  0  2  0  0  0  0  0  0
  161.7770  210.5930  149.1520 C   0  0  1  0  0  3  0  0  0  0  0  0
  161.5830  209.4640  148.2610 N   0  0  0  0  0  0  0  0  0  0  0  0
  161.9770  208.2430  150.2480 C   0  0  0  0  0  2  0  0  0  0  0  0
  161.4860  207.1230  148.0070 N   0  0  0  0  0  2  0  0  0  0  0  0
  162.3310  209.9500  150.7640 S   0  0  0  0  0  0  0  0  0  0  0  0
  161.6740  208.2980  148.7970 C   0  0  0  0  0  0  0  0  0  0  0  0
  161.5810  205.7860  148.5690 C   0  0  0  0  0  2  0  0  0  0  0  0
  161.6620  204.7610  147.4530 C   0  0  0  0  0  2  0  0  0  0  0  0
  162.8120  204.9770  146.6940 O   0  0  0  0  0  1  0  0  0  0  0  0
  160.6720  214.4510  149.3440 C   0  0  0  0  0  2  0  0  0  0  0  0
  160.0800  214.4520  150.7430 C   0  0  0  0  0  2  0  0  0  0  0  0
  160.0360  213.1540  151.2520 O   0  0  0  0  0  1  0  0  0  0  0  0
  162.5450  213.1900  143.5670 C   0  0  0  0  0  2  0  0  0  0  0  0
  161.3850  212.7670  142.6800 C   0  0  2  0  0  3  0  0  0  0  0  0
  161.8720  211.8120  141.6130 C   0  0  1  0  0  0  0  0  0  0  0  0
  161.5960  213.2730  141.2700 C   0  0  2  0  0  3  0  0  0  0  0  0
  162.6790  212.5110  140.5410 C   0  0  0  0  0  2  0  0  0  0  0  0
  160.8290  211.0640  141.0720 O   0  0  0  0  0  1  0  0  0  0  0  0
  1  7  1  1  0  0  0
  1  4  1  0  0  0  0
  1  5  1  0  0  0  0
  2  7  1  0  0  0  0
  2  8  1  0  0  0  0
  3  9  1  6  0  0  0
  3  6  1  0  0  0  0
  4  8  1  1  0  0  0
  4  3  1  0  0  0  0
  5  6  1  0  0  0  0
  6 19  1  6  0  0  0
 10  9  1  6  0  0  0
 10 14  1  0  0  0  0
 11 15  2  0  0  0  0
 11 10  1  0  0  0  0
 12 14  1  0  0  0  0
 13 16  1  0  0  0  0
 13 15  1  0  0  0  0
 15 12  1  0  0  0  0
 17 16  1  0  0  0  0
 18 17  1  0  0  0  0
 19 20  1  0  0  0  0
 20 21  1  0  0  0  0
 22  2  1  0  0  0  0
 23 22  1  1  0  0  0
 24 27  1  6  0  0  0
 24 23  1  0  0  0  0
 25 26  1  1  0  0  0
 25 24  1  0  0  0  0
 25 23  1  0  0  0  0
 26 24  1  0  0  0  0
M  END
>  <MODEL>
7

>  <REMARK>
 VINA RESULT:      -5.0      5.768      9.178
  Name = 
  8 active torsions:
  status: ('A' for Active; 'I' for Inactive)
    1  A    between atoms: C_2  and  C_7
    2  A    between atoms: C_4  and  C_11
    3  A    between atoms: C_4  and  N_16
    4  A    between atoms: N_5  and  C_21
    5  A    between atoms: C_6  and  C_7
    6  A    between atoms: C_10  and  C_21
    7  A    between atoms: C_13  and  C_19
    8  A    between atoms: C_18  and  C_19
                            x       y       z     vdW  Elec       q    Type
                         _______ _______ _______ _____ _____    ______ ____

>  <TORSDO>
F 8

$$$$
=
 OpenBabel11072413163D

 27 31  0  0  1  0  0  0  0  0999 V2000
  160.3010  209.5680  153.4950 C   0  0  1  0  0  3  0  0  0  0  0  0
  161.7630  210.6910  152.0140 N   0  0  0  0  0  0  0  0  0  0  0  0
  161.3460  207.4510  153.7180 C   0  0  1  0  0  3  0  0  0  0  0  0
  161.0810  208.6920  152.9560 C   0  0  2  0  0  3  0  0  0  0  0  0
  159.6970  209.1630  155.1130 S   0  0  0  0  0  0  0  0  0  0  0  0
  160.8270  207.7130  155.1370 C   0  0  2  0  0  3  0  0  0  0  0  0
  160.6850  210.9190  152.9950 C   0  0  0  0  0  2  0  0  0  0  0  0
  161.9870  209.3050  152.0670 N   0  0  0  0  0  2  0  0  0  0  0  0
  160.5890  206.2950  153.0810 C   0  0  0  0  0  2  0  0  0  0  0  0
  161.4490  205.5760  152.0510 C   0  0  1  0  0  3  0  0  0  0  0  0
  161.1260  204.1600  152.0230 N   0  0  0  0  0  0  0  0  0  0  0  0
  160.8710  204.5950  149.7120 C   0  0  0  0  0  2  0  0  0  0  0  0
  160.5280  202.2810  150.7340 N   0  0  0  0  0  2  0  0  0  0  0  0
  161.1160  206.2610  150.3960 S   0  0  0  0  0  0  0  0  0  0  0  0
  160.8460  203.6660  150.8690 C   0  0  0  0  0  0  0  0  0  0  0  0
  160.2030  201.6790  149.4510 C   0  0  0  0  0  2  0  0  0  0  0  0
  161.4270  200.9900  148.8790 C   0  0  0  0  0  2  0  0  0  0  0  0
  161.2080  200.6710  147.5390 O   0  0  0  0  0  1  0  0  0  0  0  0
  162.0040  207.9770  156.0640 C   0  0  0  0  0  2  0  0  0  0  0  0
  161.7070  209.1340  157.0030 C   0  0  0  0  0  2  0  0  0  0  0  0
  162.7290  210.0820  156.9430 O   0  0  0  0  0  1  0  0  0  0  0  0
  161.2200  210.9840  150.6950 C   0  0  0  0  0  2  0  0  0  0  0  0
  162.3310  210.9450  149.6590 C   0  0  2  0  0  3  0  0  0  0  0  0
  162.2430  212.1600  148.7620 C   0  0  1  0  0  0  0  0  0  0  0  0
  161.7430  210.8040  148.2710 C   0  0  2  0  0  3  0  0  0  0  0  0
  161.0830  212.0780  147.7940 C   0  0  0  0  0  2  0  0  0  0  0  0
  163.4470  212.4100  148.1080 O   0  0  0  0  0  1  0  0  0  0  0  0
  1  7  1  1  0  0  0
  1  5  1  0  0  0  0
  2  8  1  0  0  0  0
  2  7  1  0  0  0  0
  3  9  1  6  0  0  0
  3  6  1  0  0  0  0
  4  8  1  1  0  0  0
  4  1  1  0  0  0  0
  4  3  1  0  0  0  0
  5  6  1  0  0  0  0
  6 19  1  1  0  0  0
 10  9  1  1  0  0  0
 11 10  1  0  0  0  0
 12 14  1  0  0  0  0
 12 15  1  0  0  0  0
 13 15  1  0  0  0  0
 14 10  1  0  0  0  0
 15 11  2  0  0  0  0
 16 13  1  0  0  0  0
 17 16  1  0  0  0  0
 18 17  1  0  0  0  0
 19 20  1  0  0  0  0
 21 20  1  0  0  0  0
 22  2  1  0  0  0  0
 23 22  1  1  0  0  0
 24 27  1  6  0  0  0
 24 23  1  0  0  0  0
 25 26  1  1  0  0  0
 25 24  1  0  0  0  0
 25 23  1  0  0  0  0
 26 24  1  0  0  0  0
M  END
>  <MODEL>
8

>  <REMARK>
 VINA RESULT:      -5.0      2.869      5.742
  Name = 
  8 active torsions:
  status: ('A' for Active; 'I' for Inactive)
    1  A    between atoms: C_2  and  C_7
    2  A    between atoms: C_4  and  C_11
    3  A    between atoms: C_4  and  N_16
    4  A    between atoms: N_5  and  C_21
    5  A    between atoms: C_6  and  C_7
    6  A    between atoms: C_10  and  C_21
    7  A    between atoms: C_13  and  C_19
    8  A    between atoms: C_18  and  C_19
                            x       y       z     vdW  Elec       q    Type
                         _______ _______ _______ _____ _____    ______ ____

>  <TORSDO>
F 8

$$$$
=
 OpenBabel11072413163D

 27 31  0  0  1  0  0  0  0  0999 V2000
  161.6840  205.2390  152.1520 C   0  0  1  0  0  3  0  0  0  0  0  0
  160.1490  203.8110  151.0580 N   0  0  0  0  0  0  0  0  0  0  0  0
  161.6620  207.1570  150.7570 C   0  0  1  0  0  3  0  0  0  0  0  0
  161.4750  205.7040  150.9660 C   0  0  2  0  0  3  0  0  0  0  0  0
  162.1230  206.4430  153.3790 S   0  0  0  0  0  0  0  0  0  0  0  0
  161.7640  207.7700  152.1590 C   0  0  2  0  0  3  0  0  0  0  0  0
  160.8320  204.0310  152.3470 C   0  0  0  0  0  2  0  0  0  0  0  0
  160.5550  204.8970  150.2650 N   0  0  0  0  0  2  0  0  0  0  0  0
  162.9470  207.3950  149.9780 C   0  0  0  0  0  2  0  0  0  0  0  0
  162.6650  207.5740  148.4940 C   0  0  1  0  0  3  0  0  0  0  0  0
  163.0800  206.3950  147.7550 N   0  0  0  0  0  0  0  0  0  0  0  0
  160.8600  206.5190  146.9460 C   0  0  0  0  0  2  0  0  0  0  0  0
  162.5090  204.7160  146.2020 N   0  0  0  0  0  2  0  0  0  0  0  0
  160.8750  207.7980  148.2370 S   0  0  0  0  0  0  0  0  0  0  0  0
  162.1950  205.8710  146.9820 C   0  0  0  0  0  0  0  0  0  0  0  0
  161.5400  204.0890  145.3180 C   0  0  0  0  0  2  0  0  0  0  0  0
  160.8270  205.1480  144.4990 C   0  0  0  0  0  2  0  0  0  0  0  0
  161.5770  205.4530  143.3620 O   0  0  0  0  0  1  0  0  0  0  0  0
  160.4540  208.4630  152.5040 C   0  0  0  0  0  2  0  0  0  0  0  0
  160.6700  209.9500  152.7330 C   0  0  0  0  0  2  0  0  0  0  0  0
  161.8620  210.1650  153.4250 O   0  0  0  0  0  1  0  0  0  0  0  0
  160.7200  202.6120  150.4620 C   0  0  0  0  0  2  0  0  0  0  0  0
  160.8140  202.7790  148.9540 C   0  0  2  0  0  3  0  0  0  0  0  0
  160.4710  201.4740  148.2690 C   0  0  1  0  0  0  0  0  0  0  0  0
  161.9270  201.9130  148.4040 C   0  0  2  0  0  3  0  0  0  0  0  0
  161.5690  200.4430  148.4100 C   0  0  0  0  0  2  0  0  0  0  0  0
  160.1110  201.6690  146.9370 O   0  0  0  0  0  1  0  0  0  0  0  0
  1  7  1  1  0  0  0
  1  5  1  0  0  0  0
  2  7  1  0  0  0  0
  3  9  1  6  0  0  0
  3  4  1  0  0  0  0
  3  6  1  0  0  0  0
  4  8  1  1  0  0  0
  4  1  1  0  0  0  0
  6 19  1  1  0  0  0
  6  5  1  0  0  0  0
  8  2  1  0  0  0  0
 10  9  1  1  0  0  0
 11 10  1  0  0  0  0
 12 15  1  0  0  0  0
 12 14  1  0  0  0  0
 13 15  1  0  0  0  0
 14 10  1  0  0  0  0
 15 11  2  0  0  0  0
 16 13  1  0  0  0  0
 17 16  1  0  0  0  0
 18 17  1  0  0  0  0
 19 20  1  0  0  0  0
 20 21  1  0  0  0  0
 22  2  1  0  0  0  0
 23 22  1  1  0  0  0
 24 27  1  6  0  0  0
 24 25  1  0  0  0  0
 24 26  1  0  0  0  0
 24 23  1  0  0  0  0
 25 26  1  1  0  0  0
 25 23  1  0  0  0  0
M  END
>  <MODEL>
9

>  <REMARK>
 VINA RESULT:      -4.9      2.518      6.524
  Name = 
  8 active torsions:
  status: ('A' for Active; 'I' for Inactive)
    1  A    between atoms: C_2  and  C_7
    2  A    between atoms: C_4  and  C_11
    3  A    between atoms: C_4  and  N_16
    4  A    between atoms: N_5  and  C_21
    5  A    between atoms: C_6  and  C_7
    6  A    between atoms: C_10  and  C_21
    7  A    between atoms: C_13  and  C_19
    8  A    between atoms: C_18  and  C_19
                            x       y       z     vdW  Elec       q    Type
                         _______ _______ _______ _____ _____    ______ ____

>  <TORSDO>
F 8

$$$$
