=
 OpenBabel11072410443D

 38 41  0  0  1  0  0  0  0  0999 V2000
  160.9050  207.2290  151.9750 C   0  0  2  0  0  3  0  0  0  0  0  0
  161.4300  210.0790  151.3100 O   0  0  0  0  0  0  0  0  0  0  0  0
  161.2220  207.5610  154.7690 C   0  0  2  0  0  3  0  0  0  0  0  0
  160.0580  208.0540  154.1190 O   0  0  0  0  0  0  0  0  0  0  0  0
  161.7670  206.2930  154.0860 C   0  0  0  0  0  2  0  0  0  0  0  0
  162.1240  206.6030  152.6440 C   0  0  0  0  0  2  0  0  0  0  0  0
  162.3100  208.2110  150.0720 C   0  0  0  0  0  2  0  0  0  0  0  0
  161.0310  207.4540  150.4570 C   0  0  1  0  0  3  0  0  0  0  0  0
  162.1790  209.9070  153.5110 O   0  0  0  0  0  1  0  0  0  0  0  0
  162.6100  209.3830  150.9990 C   0  0  0  0  0  2  0  0  0  0  0  0
  161.0620  209.8260  152.6590 C   0  0  2  0  0  0  0  0  0  0  0  0
  160.3630  208.4310  152.7840 C   0  0  1  0  0  3  0  0  0  0  0  0
  160.4220  206.3160  148.2730 C   0  0  0  0  0  2  0  0  0  0  0  0
  161.1630  205.4420  147.2430 C   0  0  1  0  0  0  0  0  0  0  0  0
  160.1260  205.0760  150.4530 C   0  0  0  0  0  2  0  0  0  0  0  0
  159.9920  203.7290  149.7390 C   0  0  0  0  0  2  0  0  0  0  0  0
  162.6620  205.7060  147.3070 C   0  0  0  0  0  1  0  0  0  0  0  0
  161.1770  203.4110  148.8310 C   0  0  2  0  0  3  0  0  0  0  0  0
  160.8950  203.9380  147.4230 C   0  0  0  0  0  2  0  0  0  0  0  0
  160.9550  206.1230  149.6950 C   0  0  2  0  0  3  0  0  0  0  0  0
  161.5270  201.3610  147.6740 O   0  0  0  0  0  0  0  0  0  0  0  0
  161.5000  201.1800  149.9940 N   0  0  0  0  0  1  0  0  0  0  0  0
  161.4160  201.9390  148.7910 C   0  0  0  0  0  0  0  0  0  0  0  0
  160.7000  205.8460  145.8460 C   0  0  0  0  0  2  0  0  0  0  0  0
  161.6060  205.4190  144.8680 O   0  0  0  0  0  1  0  0  0  0  0  0
  160.0500  210.9180  153.0840 C   0  0  1  0  0  3  0  0  0  0  0  0
  160.6190  211.7680  154.1250 N   0  0  0  0  0  1  0  0  0  0  0  0
  160.4070  212.9010  151.7220 O   0  0  0  0  0  1  0  0  0  0  0  0
  158.1570  212.2820  152.1420 C   0  0  0  0  0  1  0  0  0  0  0  0
  159.5740  211.7870  151.8990 C   0  0  2  0  0  3  0  0  0  0  0  0
  160.9280  207.3140  156.2540 C   0  0  2  0  0  3  0  0  0  0  0  0
  159.5790  207.0070  156.4420 O   0  0  0  0  0  1  0  0  0  0  0  0
  161.4300  208.4620  157.1570 C   0  0  2  0  0  3  0  0  0  0  0  0
  159.5730  210.3900  157.2480 O   0  0  0  0  0  0  0  0  0  0  0  0
  160.5810  209.7390  157.0270 C   0  0  0  0  0  0  0  0  0  0  0  0
  161.9770  209.5610  156.4090 C   0  0  1  0  0  3  0  0  0  0  0  0
  162.9950  210.3100  157.2440 C   0  0  0  0  0  2  0  0  0  0  0  0
  163.8790  211.1470  156.3380 C   0  0  0  0  0  1  0  0  0  0  0  0
  1  6  1  1  0  0  0
  1 12  1  0  0  0  0
  2 11  1  0  0  0  0
  3 31  1  1  0  0  0
  4  3  1  0  0  0  0
  5  3  1  0  0  0  0
  6  5  1  0  0  0  0
  7 10  1  0  0  0  0
  8  7  1  1  0  0  0
  8  1  1  0  0  0  0
 10  2  1  0  0  0  0
 11 12  1  0  0  0  0
 11 26  1  0  0  0  0
 11  9  1  1  0  0  0
 12  4  1  1  0  0  0
 14 17  1  1  0  0  0
 14 19  1  0  0  0  0
 14 13  1  0  0  0  0
 16 15  1  0  0  0  0
 18 23  1  6  0  0  0
 18 16  1  0  0  0  0
 19 18  1  0  0  0  0
 20 13  1  6  0  0  0
 20 15  1  0  0  0  0
 20  8  1  0  0  0  0
 21 23  2  0  0  0  0
 23 22  1  0  0  0  0
 24 14  1  0  0  0  0
 25 24  1  0  0  0  0
 26 27  1  1  0  0  0
 28 30  1  0  0  0  0
 30 29  1  1  0  0  0
 30 26  1  0  0  0  0
 31 32  1  6  0  0  0
 33 31  1  6  0  0  0
 35 33  1  0  0  0  0
 35 34  2  0  0  0  0
 36 35  1  0  0  0  0
 36 33  1  0  0  0  0
 36 37  1  1  0  0  0
 38 37  1  0  0  0  0
M  END
>  <MODEL>
1

>  <REMARK>
 VINA RESULT:      -6.8      0.000      0.000
  Name = 
  8 active torsions:
  status: ('A' for Active; 'I' for Inactive)
    1  A    between atoms: C_3  and  C_14
    2  A    between atoms: C_6  and  C_27
    3  A    between atoms: C_7  and  C_19
    4  A    between atoms: C_8  and  C_19
    5  A    between atoms: C_11  and  C_33
    6  A    between atoms: C_11  and  C_37
    7  A    between atoms: C_25  and  C_38
    8  A    between atoms: C_31  and  C_35
                            x       y       z     vdW  Elec       q    Type
                         _______ _______ _______ _____ _____    ______ ____

>  <TORSDO>
F 8

$$$$
=
 OpenBabel11072410443D

 38 41  0  0  1  0  0  0  0  0999 V2000
  161.1930  207.0090  150.9200 C   0  0  2  0  0  3  0  0  0  0  0  0
  161.8240  209.6750  149.7630 O   0  0  0  0  0  0  0  0  0  0  0  0
  161.5550  207.8110  153.6110 C   0  0  2  0  0  3  0  0  0  0  0  0
  160.4040  208.2310  152.8890 O   0  0  0  0  0  0  0  0  0  0  0  0
  162.0400  206.4220  153.1590 C   0  0  0  0  0  2  0  0  0  0  0  0
  162.3930  206.4600  151.6830 C   0  0  0  0  0  2  0  0  0  0  0  0
  162.6140  207.5840  148.8680 C   0  0  0  0  0  2  0  0  0  0  0  0
  161.3110  206.9600  149.3860 C   0  0  1  0  0  3  0  0  0  0  0  0
  162.5900  209.8600  151.9580 O   0  0  0  0  0  1  0  0  0  0  0  0
  162.9720  208.8860  149.5750 C   0  0  0  0  0  2  0  0  0  0  0  0
  161.4620  209.6770  151.1370 C   0  0  2  0  0  0  0  0  0  0  0  0
  160.7090  208.3560  151.5080 C   0  0  1  0  0  3  0  0  0  0  0  0
  160.6890  205.4850  147.4170 C   0  0  0  0  0  2  0  0  0  0  0  0
  161.4010  204.4010  146.5850 C   0  0  1  0  0  0  0  0  0  0  0  0
  160.2620  204.6740  149.7700 C   0  0  0  0  0  2  0  0  0  0  0  0
  160.0640  203.2300  149.3010 C   0  0  0  0  0  2  0  0  0  0  0  0
  162.9110  204.5880  146.6560 C   0  0  0  0  0  1  0  0  0  0  0  0
  161.2500  202.6890  148.5070 C   0  0  2  0  0  3  0  0  0  0  0  0
  161.0370  202.9710  147.0190 C   0  0  0  0  0  2  0  0  0  0  0  0
  161.1730  205.5200  148.8690 C   0  0  2  0  0  3  0  0  0  0  0  0
  161.3550  200.7740  149.9160 O   0  0  0  0  0  0  0  0  0  0  0  0
  161.6090  200.3300  147.6450 N   0  0  0  0  0  1  0  0  0  0  0  0
  161.3990  201.2230  148.7370 C   0  0  0  0  0  0  0  0  0  0  0  0
  161.0000  204.5740  145.1230 C   0  0  0  0  0  2  0  0  0  0  0  0
  160.6740  205.9060  144.8400 O   0  0  0  0  0  1  0  0  0  0  0  0
  160.4990  210.8680  151.3680 C   0  0  1  0  0  3  0  0  0  0  0  0
  160.7570  211.4920  152.6620 N   0  0  0  0  0  1  0  0  0  0  0  0
  161.9080  212.1780  149.8820 O   0  0  0  0  0  1  0  0  0  0  0  0
  159.9540  213.2350  150.7120 C   0  0  0  0  0  1  0  0  0  0  0  0
  160.5780  211.9280  150.2480 C   0  0  2  0  0  3  0  0  0  0  0  0
  161.2680  207.8400  155.1180 C   0  0  2  0  0  3  0  0  0  0  0  0
  160.2950  206.8950  155.4490 O   0  0  0  0  0  1  0  0  0  0  0  0
  160.9480  209.2600  155.6340 C   0  0  2  0  0  3  0  0  0  0  0  0
  163.0240  210.1680  157.0630 O   0  0  0  0  0  0  0  0  0  0  0  0
  161.9360  209.7410  156.7110 C   0  0  0  0  0  0  0  0  0  0  0  0
  160.5020  209.2700  157.0000 C   0  0  1  0  0  3  0  0  0  0  0  0
  159.6200  210.4740  157.2570 C   0  0  0  0  0  2  0  0  0  0  0  0
  158.9970  210.9360  155.9530 C   0  0  0  0  0  1  0  0  0  0  0  0
  1 12  1  0  0  0  0
  1  6  1  1  0  0  0
  2 11  1  0  0  0  0
  3 31  1  1  0  0  0
  4  3  1  0  0  0  0
  5  3  1  0  0  0  0
  6  5  1  0  0  0  0
  7 10  1  0  0  0  0
  8  7  1  1  0  0  0
  8  1  1  0  0  0  0
 10  2  1  0  0  0  0
 11 26  1  0  0  0  0
 11 12  1  0  0  0  0
 11  9  1  1  0  0  0
 12  4  1  1  0  0  0
 14 17  1  1  0  0  0
 14 19  1  0  0  0  0
 14 13  1  0  0  0  0
 16 15  1  0  0  0  0
 18 23  1  6  0  0  0
 18 16  1  0  0  0  0
 19 18  1  0  0  0  0
 20 13  1  6  0  0  0
 20  8  1  0  0  0  0
 20 15  1  0  0  0  0
 22 23  1  0  0  0  0
 23 21  2  0  0  0  0
 24 14  1  0  0  0  0
 25 24  1  0  0  0  0
 26 27  1  1  0  0  0
 28 30  1  0  0  0  0
 30 29  1  1  0  0  0
 30 26  1  0  0  0  0
 31 32  1  6  0  0  0
 33 31  1  1  0  0  0
 33 35  1  0  0  0  0
 33 36  1  0  0  0  0
 35 36  1  0  0  0  0
 35 34  2  0  0  0  0
 36 37  1  6  0  0  0
 38 37  1  0  0  0  0
M  END
>  <MODEL>
2

>  <REMARK>
 VINA RESULT:      -6.4      1.480      1.820
  Name = 
  8 active torsions:
  status: ('A' for Active; 'I' for Inactive)
    1  A    between atoms: C_3  and  C_14
    2  A    between atoms: C_6  and  C_27
    3  A    between atoms: C_7  and  C_19
    4  A    between atoms: C_8  and  C_19
    5  A    between atoms: C_11  and  C_33
    6  A    between atoms: C_11  and  C_37
    7  A    between atoms: C_25  and  C_38
    8  A    between atoms: C_31  and  C_35
                            x       y       z     vdW  Elec       q    Type
                         _______ _______ _______ _____ _____    ______ ____

>  <TORSDO>
F 8

$$$$
=
 OpenBabel11072410443D

 38 41  0  0  1  0  0  0  0  0999 V2000
  161.0240  207.5970  151.5930 C   0  0  2  0  0  3  0  0  0  0  0  0
  161.3030  210.5270  151.1680 O   0  0  0  0  0  0  0  0  0  0  0  0
  161.0630  207.7490  154.4200 C   0  0  2  0  0  3  0  0  0  0  0  0
  159.9140  208.1730  153.6980 O   0  0  0  0  0  0  0  0  0  0  0  0
  161.7940  206.5960  153.7090 C   0  0  0  0  0  2  0  0  0  0  0  0
  162.2400  207.0460  152.3300 C   0  0  0  0  0  2  0  0  0  0  0  0
  162.4760  208.8520  149.8970 C   0  0  0  0  0  2  0  0  0  0  0  0
  161.2560  207.9460  150.1110 C   0  0  1  0  0  3  0  0  0  0  0  0
  161.8730  210.2660  153.4130 O   0  0  0  0  0  1  0  0  0  0  0  0
  162.5720  209.9750  150.9230 C   0  0  0  0  0  2  0  0  0  0  0  0
  160.8490  210.1390  152.4570 C   0  0  2  0  0  0  0  0  0  0  0  0
  160.2920  208.6760  152.4250 C   0  0  1  0  0  3  0  0  0  0  0  0
  161.8870  205.4890  150.0880 C   0  0  0  0  0  2  0  0  0  0  0  0
  161.1750  204.1720  149.7240 C   0  0  1  0  0  0  0  0  0  0  0  0
  162.2770  206.8990  148.0300 C   0  0  0  0  0  2  0  0  0  0  0  0
  162.4660  205.6640  147.1460 C   0  0  0  0  0  2  0  0  0  0  0  0
  159.6670  204.3340  149.8550 C   0  0  0  0  0  1  0  0  0  0  0  0
  161.2850  204.6990  147.2020 C   0  0  2  0  0  3  0  0  0  0  0  0
  161.5200  203.6720  148.3110 C   0  0  0  0  0  2  0  0  0  0  0  0
  161.3850  206.6750  149.2600 C   0  0  2  0  0  3  0  0  0  0  0  0
  161.2190  202.7520  145.8340 O   0  0  0  0  0  0  0  0  0  0  0  0
  160.8690  204.7550  144.7000 N   0  0  0  0  0  1  0  0  0  0  0  0
  161.1190  204.0100  145.8900 C   0  0  0  0  0  0  0  0  0  0  0  0
  161.5970  203.1020  150.7260 C   0  0  0  0  0  2  0  0  0  0  0  0
  161.5800  203.5980  152.0360 O   0  0  0  0  0  1  0  0  0  0  0  0
  159.6950  211.0910  152.8570 C   0  0  1  0  0  3  0  0  0  0  0  0
  159.9900  211.7510  154.1250 N   0  0  0  0  0  1  0  0  0  0  0  0
  159.9990  213.3740  152.0770 O   0  0  0  0  0  1  0  0  0  0  0  0
  157.8900  212.3740  151.6630 C   0  0  0  0  0  1  0  0  0  0  0  0
  159.3890  212.1490  151.7740 C   0  0  2  0  0  3  0  0  0  0  0  0
  160.6700  207.3640  155.8520 C   0  0  2  0  0  3  0  0  0  0  0  0
  159.2850  207.2190  155.9580 O   0  0  0  0  0  1  0  0  0  0  0  0
  161.2720  208.3160  156.9080 C   0  0  2  0  0  3  0  0  0  0  0  0
  159.6240  210.3980  157.2610 O   0  0  0  0  0  0  0  0  0  0  0  0
  160.5630  209.6810  156.9550 C   0  0  0  0  0  0  0  0  0  0  0  0
  161.9440  209.4450  156.3230 C   0  0  1  0  0  3  0  0  0  0  0  0
  163.0190  209.9590  157.2590 C   0  0  0  0  0  2  0  0  0  0  0  0
  163.7400  211.1280  156.6120 C   0  0  0  0  0  1  0  0  0  0  0  0
  1  6  1  1  0  0  0
  1 12  1  0  0  0  0
  2 11  1  0  0  0  0
  3 31  1  1  0  0  0
  4  3  1  0  0  0  0
  5  3  1  0  0  0  0
  6  5  1  0  0  0  0
  7 10  1  0  0  0  0
  8  7  1  1  0  0  0
  8  1  1  0  0  0  0
 10  2  1  0  0  0  0
 11 26  1  0  0  0  0
 11  9  1  1  0  0  0
 12 11  1  0  0  0  0
 12  4  1  1  0  0  0
 14 17  1  1  0  0  0
 14 13  1  0  0  0  0
 14 24  1  0  0  0  0
 16 18  1  0  0  0  0
 16 15  1  0  0  0  0
 18 23  1  6  0  0  0
 18 19  1  0  0  0  0
 19 14  1  0  0  0  0
 20 15  1  6  0  0  0
 20 13  1  0  0  0  0
 20  8  1  0  0  0  0
 21 23  2  0  0  0  0
 22 23  1  0  0  0  0
 24 25  1  0  0  0  0
 26 27  1  1  0  0  0
 30 29  1  1  0  0  0
 30 28  1  0  0  0  0
 30 26  1  0  0  0  0
 31 32  1  6  0  0  0
 33 31  1  6  0  0  0
 33 35  1  0  0  0  0
 35 34  2  0  0  0  0
 36 33  1  0  0  0  0
 36 35  1  0  0  0  0
 36 37  1  1  0  0  0
 38 37  1  0  0  0  0
M  END
>  <MODEL>
3

>  <REMARK>
 VINA RESULT:      -6.2      1.539      2.406
  Name = 
  8 active torsions:
  status: ('A' for Active; 'I' for Inactive)
    1  A    between atoms: C_3  and  C_14
    2  A    between atoms: C_6  and  C_27
    3  A    between atoms: C_7  and  C_19
    4  A    between atoms: C_8  and  C_19
    5  A    between atoms: C_11  and  C_33
    6  A    between atoms: C_11  and  C_37
    7  A    between atoms: C_25  and  C_38
    8  A    between atoms: C_31  and  C_35
                            x       y       z     vdW  Elec       q    Type
                         _______ _______ _______ _____ _____    ______ ____

>  <TORSDO>
F 8

$$$$
=
 OpenBabel11072410443D

 38 41  0  0  1  0  0  0  0  0999 V2000
  160.8470  208.1600  152.2960 C   0  0  2  0  0  3  0  0  0  0  0  0
  161.1360  205.4420  153.4690 O   0  0  0  0  0  0  0  0  0  0  0  0
  162.1280  207.5160  149.8550 C   0  0  2  0  0  3  0  0  0  0  0  0
  160.8150  207.0390  150.1200 O   0  0  0  0  0  0  0  0  0  0  0  0
  162.3850  208.8840  150.5120 C   0  0  0  0  0  2  0  0  0  0  0  0
  162.2160  208.7690  152.0160 C   0  0  0  0  0  2  0  0  0  0  0  0
  161.5050  207.4910  154.6800 C   0  0  0  0  0  2  0  0  0  0  0  0
  160.4350  208.1240  153.7790 C   0  0  1  0  0  3  0  0  0  0  0  0
  162.6080  205.3930  151.6620 O   0  0  0  0  0  1  0  0  0  0  0  0
  162.1240  206.2360  154.0760 C   0  0  0  0  0  2  0  0  0  0  0  0
  161.2620  205.5120  152.0560 C   0  0  2  0  0  0  0  0  0  0  0  0
  160.6360  206.8410  151.5150 C   0  0  1  0  0  3  0  0  0  0  0  0
  160.5810  210.6170  153.3310 C   0  0  0  0  0  2  0  0  0  0  0  0
  159.5700  211.7680  153.1680 C   0  0  1  0  0  0  0  0  0  0  0  0
  160.6040  209.7720  155.7100 C   0  0  0  0  0  2  0  0  0  0  0  0
  160.3040  211.1640  156.2710 C   0  0  0  0  0  2  0  0  0  0  0  0
  158.2180  211.2240  152.7230 C   0  0  0  0  0  1  0  0  0  0  0  0
  159.0370  211.7850  155.6910 C   0  0  2  0  0  3  0  0  0  0  0  0
  159.3950  212.6020  154.4480 C   0  0  0  0  0  2  0  0  0  0  0  0
  160.0820  209.5300  154.2860 C   0  0  2  0  0  3  0  0  0  0  0  0
  157.2490  212.3230  157.1670 O   0  0  0  0  0  0  0  0  0  0  0  0
  158.9940  213.8630  157.1450 N   0  0  0  0  0  1  0  0  0  0  0  0
  158.3770  212.6560  156.7060 C   0  0  0  0  0  0  0  0  0  0  0  0
  160.0640  212.6910  152.0590 C   0  0  0  0  0  2  0  0  0  0  0  0
  158.9950  213.2900  151.3820 O   0  0  0  0  0  1  0  0  0  0  0  0
  160.4760  204.3230  151.4530 C   0  0  1  0  0  3  0  0  0  0  0  0
  159.6310  204.7710  150.3510 N   0  0  0  0  0  1  0  0  0  0  0  0
  160.8680  202.5440  149.8430 O   0  0  0  0  0  1  0  0  0  0  0  0
  161.5560  202.1370  152.0750 C   0  0  0  0  0  1  0  0  0  0  0  0
  161.3950  203.1770  150.9770 C   0  0  2  0  0  3  0  0  0  0  0  0
  162.3720  207.5680  148.3410 C   0  0  2  0  0  3  0  0  0  0  0  0
  162.4070  208.8910  147.8960 O   0  0  0  0  0  1  0  0  0  0  0  0
  161.3870  206.6790  147.5510 C   0  0  2  0  0  3  0  0  0  0  0  0
  162.2190  204.1350  147.6520 O   0  0  0  0  0  0  0  0  0  0  0  0
  161.9360  205.2660  147.2900 C   0  0  0  0  0  0  0  0  0  0  0  0
  161.8530  206.3720  146.2260 C   0  0  1  0  0  3  0  0  0  0  0  0
  160.6800  206.0980  145.3070 C   0  0  0  0  0  2  0  0  0  0  0  0
  161.0670  205.0390  144.2900 C   0  0  0  0  0  1  0  0  0  0  0  0
  1  6  1  1  0  0  0
  1  8  1  0  0  0  0
  2 10  1  0  0  0  0
  3 31  1  6  0  0  0
  3  4  1  0  0  0  0
  3  5  1  0  0  0  0
  5  6  1  0  0  0  0
  8 20  1  0  0  0  0
  8  7  1  1  0  0  0
 10  7  1  0  0  0  0
 11  9  1  6  0  0  0
 11  2  1  0  0  0  0
 12  4  1  6  0  0  0
 12 11  1  0  0  0  0
 12  1  1  0  0  0  0
 14 17  1  6  0  0  0
 14 13  1  0  0  0  0
 14 19  1  0  0  0  0
 15 16  1  0  0  0  0
 18 16  1  0  0  0  0
 18 23  1  1  0  0  0
 19 18  1  0  0  0  0
 20 13  1  6  0  0  0
 20 15  1  0  0  0  0
 23 22  1  0  0  0  0
 23 21  2  0  0  0  0
 24 14  1  0  0  0  0
 25 24  1  0  0  0  0
 26 27  1  6  0  0  0
 26 11  1  0  0  0  0
 28 30  1  0  0  0  0
 30 26  1  0  0  0  0
 30 29  1  1  0  0  0
 31 32  1  6  0  0  0
 33 31  1  1  0  0  0
 35 33  1  0  0  0  0
 35 34  2  0  0  0  0
 36 37  1  6  0  0  0
 36 35  1  0  0  0  0
 36 33  1  0  0  0  0
 38 37  1  0  0  0  0
M  END
>  <MODEL>
4

>  <REMARK>
 VINA RESULT:      -5.3      2.204      8.946
  Name = 
  8 active torsions:
  status: ('A' for Active; 'I' for Inactive)
    1  A    between atoms: C_3  and  C_14
    2  A    between atoms: C_6  and  C_27
    3  A    between atoms: C_7  and  C_19
    4  A    between atoms: C_8  and  C_19
    5  A    between atoms: C_11  and  C_33
    6  A    between atoms: C_11  and  C_37
    7  A    between atoms: C_25  and  C_38
    8  A    between atoms: C_31  and  C_35
                            x       y       z     vdW  Elec       q    Type
                         _______ _______ _______ _____ _____    ______ ____

>  <TORSDO>
F 8

$$$$
=
 OpenBabel11072410443D

 38 41  0  0  1  0  0  0  0  0999 V2000
  160.9030  208.8070  153.3880 C   0  0  2  0  0  3  0  0  0  0  0  0
  161.1120  207.8700  156.2030 O   0  0  0  0  0  0  0  0  0  0  0  0
  159.6750  211.2740  154.0350 C   0  0  2  0  0  3  0  0  0  0  0  0
  161.0570  211.0730  154.3010 O   0  0  0  0  0  0  0  0  0  0  0  0
  159.2120  210.4970  152.7900 C   0  0  0  0  0  2  0  0  0  0  0  0
  159.4420  209.0110  153.0000 C   0  0  0  0  0  2  0  0  0  0  0  0
  160.4390  206.4800  154.3550 C   0  0  0  0  0  2  0  0  0  0  0  0
  161.3600  207.3390  153.4760 C   0  0  1  0  0  3  0  0  0  0  0  0
  159.6150  209.6520  156.3520 O   0  0  0  0  0  1  0  0  0  0  0  0
  160.0220  207.1820  155.6430 C   0  0  0  0  0  2  0  0  0  0  0  0
  160.9320  209.2700  156.0380 C   0  0  2  0  0  0  0  0  0  0  0  0
  161.3090  209.7030  154.5810 C   0  0  1  0  0  3  0  0  0  0  0  0
  161.9550  205.2620  152.1470 C   0  0  0  0  0  2  0  0  0  0  0  0
  161.2310  204.3590  151.1310 C   0  0  1  0  0  0  0  0  0  0  0  0
  162.4020  207.5440  151.1640 C   0  0  0  0  0  2  0  0  0  0  0  0
  162.5880  206.9680  149.7580 C   0  0  0  0  0  2  0  0  0  0  0  0
  159.7220  204.4580  151.3180 C   0  0  0  0  0  1  0  0  0  0  0  0
  161.3920  206.1490  149.2810 C   0  0  2  0  0  3  0  0  0  0  0  0
  161.5920  204.6830  149.6710 C   0  0  0  0  0  2  0  0  0  0  0  0
  161.4860  206.7170  152.0780 C   0  0  2  0  0  3  0  0  0  0  0  0
  160.0790  206.2830  147.3000 O   0  0  0  0  0  0  0  0  0  0  0  0
  162.3800  206.3560  146.9540 N   0  0  0  0  0  1  0  0  0  0  0  0
  161.2380  206.2710  147.8030 C   0  0  0  0  0  0  0  0  0  0  0  0
  161.6190  202.9100  151.4090 C   0  0  0  0  0  2  0  0  0  0  0  0
  160.5590  202.0380  151.1310 O   0  0  0  0  0  1  0  0  0  0  0  0
  161.8900  209.9860  157.0220 C   0  0  1  0  0  3  0  0  0  0  0  0
  163.0840  209.1800  157.2550 N   0  0  0  0  0  1  0  0  0  0  0  0
  163.6510  211.6480  156.7950 O   0  0  0  0  0  1  0  0  0  0  0  0
  161.4700  212.4560  157.2600 C   0  0  0  0  0  1  0  0  0  0  0  0
  162.2940  211.3980  156.5430 C   0  0  2  0  0  3  0  0  0  0  0  0
  159.3810  212.7740  153.9000 C   0  0  2  0  0  3  0  0  0  0  0  0
  159.1220  213.3370  155.1510 O   0  0  0  0  0  1  0  0  0  0  0  0
  158.2850  213.0710  152.8530 C   0  0  2  0  0  3  0  0  0  0  0  0
  159.3590  214.4360  150.8140 O   0  0  0  0  0  0  0  0  0  0  0  0
  158.7260  214.1070  151.8040 C   0  0  0  0  0  0  0  0  0  0  0  0
  157.7580  214.4040  152.9600 C   0  0  1  0  0  3  0  0  0  0  0  0
  156.3400  214.4530  152.4280 C   0  0  0  0  0  2  0  0  0  0  0  0
  155.3600  214.3250  153.5790 C   0  0  0  0  0  1  0  0  0  0  0  0
  1  6  1  1  0  0  0
  1  8  1  0  0  0  0
  1 12  1  0  0  0  0
  3 31  1  6  0  0  0
  3  4  1  0  0  0  0
  5  6  1  0  0  0  0
  5  3  1  0  0  0  0
  7 10  1  0  0  0  0
  8  7  1  1  0  0  0
 10  2  1  0  0  0  0
 11  2  1  0  0  0  0
 11  9  1  1  0  0  0
 11 26  1  0  0  0  0
 12  4  1  6  0  0  0
 12 11  1  0  0  0  0
 14 17  1  1  0  0  0
 14 24  1  0  0  0  0
 14 13  1  0  0  0  0
 16 15  1  0  0  0  0
 18 23  1  6  0  0  0
 18 19  1  0  0  0  0
 18 16  1  0  0  0  0
 19 14  1  0  0  0  0
 20 15  1  6  0  0  0
 20 13  1  0  0  0  0
 20  8  1  0  0  0  0
 21 23  2  0  0  0  0
 22 23  1  0  0  0  0
 25 24  1  0  0  0  0
 26 27  1  6  0  0  0
 30 28  1  0  0  0  0
 30 26  1  0  0  0  0
 30 29  1  1  0  0  0
 31 32  1  1  0  0  0
 33 36  1  0  0  0  0
 33 31  1  1  0  0  0
 34 35  2  0  0  0  0
 35 33  1  0  0  0  0
 35 36  1  0  0  0  0
 36 37  1  6  0  0  0
 37 38  1  0  0  0  0
M  END
>  <MODEL>
5

>  <REMARK>
 VINA RESULT:      -4.7      2.311      5.369
  Name = 
  8 active torsions:
  status: ('A' for Active; 'I' for Inactive)
    1  A    between atoms: C_3  and  C_14
    2  A    between atoms: C_6  and  C_27
    3  A    between atoms: C_7  and  C_19
    4  A    between atoms: C_8  and  C_19
    5  A    between atoms: C_11  and  C_33
    6  A    between atoms: C_11  and  C_37
    7  A    between atoms: C_25  and  C_38
    8  A    between atoms: C_31  and  C_35
                            x       y       z     vdW  Elec       q    Type
                         _______ _______ _______ _____ _____    ______ ____

>  <TORSDO>
F 8

$$$$
=
 OpenBabel11072410443D

 38 41  0  0  1  0  0  0  0  0999 V2000
  160.0580  210.3870  152.2890 C   0  0  2  0  0  3  0  0  0  0  0  0
  160.1460  211.1230  155.1690 O   0  0  0  0  0  0  0  0  0  0  0  0
  161.5540  208.0030  152.5940 C   0  0  2  0  0  3  0  0  0  0  0  0
  160.2070  208.0640  153.0450 O   0  0  0  0  0  0  0  0  0  0  0  0
  161.7870  208.8950  151.3610 C   0  0  0  0  0  2  0  0  0  0  0  0
  161.4670  210.3380  151.7070 C   0  0  0  0  0  2  0  0  0  0  0  0
  160.4570  212.6800  153.3590 C   0  0  0  0  0  2  0  0  0  0  0  0
  159.5010  211.8000  152.5420 C   0  0  1  0  0  3  0  0  0  0  0  0
  161.7870  209.4750  154.9980 O   0  0  0  0  0  1  0  0  0  0  0  0
  161.0940  211.9390  154.5290 C   0  0  0  0  0  2  0  0  0  0  0  0
  160.4130  209.7580  154.8800 C   0  0  2  0  0  0  0  0  0  0  0  0
  159.8860  209.3850  153.4540 C   0  0  1  0  0  3  0  0  0  0  0  0
  160.1950  213.5350  150.8260 C   0  0  0  0  0  2  0  0  0  0  0  0
  160.4900  213.5330  149.3140 C   0  0  1  0  0  0  0  0  0  0  0  0
  157.7430  213.1240  151.2650 C   0  0  0  0  0  2  0  0  0  0  0  0
  157.3300  213.8520  149.9840 C   0  0  0  0  0  2  0  0  0  0  0  0
  160.8990  212.1380  148.8580 C   0  0  0  0  0  1  0  0  0  0  0  0
  157.9900  213.2850  148.7300 C   0  0  2  0  0  3  0  0  0  0  0  0
  159.3030  214.0250  148.4680 C   0  0  0  0  0  2  0  0  0  0  0  0
  159.1430  212.4950  151.2200 C   0  0  2  0  0  3  0  0  0  0  0  0
  156.2290  214.3580  147.5430 O   0  0  0  0  0  0  0  0  0  0  0  0
  157.1420  212.5050  146.4700 N   0  0  0  0  0  1  0  0  0  0  0  0
  157.0780  213.4240  147.5580 C   0  0  0  0  0  0  0  0  0  0  0  0
  161.6780  214.4530  149.0510 C   0  0  0  0  0  2  0  0  0  0  0  0
  162.0330  214.4500  147.6970 O   0  0  0  0  0  1  0  0  0  0  0  0
  159.6540  208.8990  155.9210 C   0  0  1  0  0  3  0  0  0  0  0  0
  158.2120  209.0690  155.7730 N   0  0  0  0  0  1  0  0  0  0  0  0
  158.8710  206.5970  155.9300 O   0  0  0  0  0  1  0  0  0  0  0  0
  160.9580  207.0210  156.9720 C   0  0  0  0  0  1  0  0  0  0  0  0
  160.0170  207.4000  155.8390 C   0  0  2  0  0  3  0  0  0  0  0  0
  161.9470  206.5470  152.3120 C   0  0  2  0  0  3  0  0  0  0  0  0
  163.2790  206.4710  151.8960 O   0  0  0  0  0  1  0  0  0  0  0  0
  160.9620  205.8410  151.3550 C   0  0  2  0  0  3  0  0  0  0  0  0
  160.4680  203.3700  152.2620 O   0  0  0  0  0  0  0  0  0  0  0  0
  160.8580  204.3280  151.6150 C   0  0  0  0  0  0  0  0  0  0  0  0
  161.6190  204.9520  150.4350 C   0  0  1  0  0  3  0  0  0  0  0  0
  160.7980  204.8020  149.1710 C   0  0  0  0  0  2  0  0  0  0  0  0
  161.3660  203.6780  148.3250 C   0  0  0  0  0  1  0  0  0  0  0  0
  1  6  1  1  0  0  0
  1  8  1  0  0  0  0
  1 12  1  0  0  0  0
  3 31  1  6  0  0  0
  3  4  1  0  0  0  0
  5  6  1  0  0  0  0
  5  3  1  0  0  0  0
  7 10  1  0  0  0  0
  8  7  1  6  0  0  0
 10  2  1  0  0  0  0
 11  9  1  1  0  0  0
 11  2  1  0  0  0  0
 11 26  1  0  0  0  0
 12  4  1  6  0  0  0
 12 11  1  0  0  0  0
 14 17  1  6  0  0  0
 14 13  1  0  0  0  0
 16 15  1  0  0  0  0
 18 23  1  6  0  0  0
 18 16  1  0  0  0  0
 19 18  1  0  0  0  0
 19 14  1  0  0  0  0
 20 13  1  1  0  0  0
 20 15  1  0  0  0  0
 20  8  1  0  0  0  0
 21 23  2  0  0  0  0
 22 23  1  0  0  0  0
 24 14  1  0  0  0  0
 25 24  1  0  0  0  0
 26 27  1  6  0  0  0
 30 26  1  0  0  0  0
 30 28  1  0  0  0  0
 30 29  1  1  0  0  0
 31 32  1  6  0  0  0
 33 35  1  0  0  0  0
 33 31  1  1  0  0  0
 35 34  2  0  0  0  0
 36 37  1  6  0  0  0
 36 33  1  0  0  0  0
 36 35  1  0  0  0  0
 38 37  1  0  0  0  0
M  END
>  <MODEL>
6

>  <REMARK>
 VINA RESULT:      -3.9      2.985      7.515
  Name = 
  8 active torsions:
  status: ('A' for Active; 'I' for Inactive)
    1  A    between atoms: C_3  and  C_14
    2  A    between atoms: C_6  and  C_27
    3  A    between atoms: C_7  and  C_19
    4  A    between atoms: C_8  and  C_19
    5  A    between atoms: C_11  and  C_33
    6  A    between atoms: C_11  and  C_37
    7  A    between atoms: C_25  and  C_38
    8  A    between atoms: C_31  and  C_35
                            x       y       z     vdW  Elec       q    Type
                         _______ _______ _______ _____ _____    ______ ____

>  <TORSDO>
F 8

$$$$
