=
 OpenBabel11072414493D

 47 49  0  0  1  0  0  0  0  0999 V2000
  162.3370  210.1950  152.7230 C   0  0  0  0  0  2  0  0  0  0  0  0
  160.7730  208.1910  152.5470 C   0  0  1  0  0  3  0  0  0  0  0  0
  160.9250  209.6750  152.9540 C   0  0  1  0  0  3  0  0  0  0  0  0
  162.4600  210.7120  151.3220 C   0  0  0  0  0  3  0  0  0  0  0  0
  162.0820  210.0390  150.2280 C   0  0  0  0  0  3  0  0  0  0  0  0
  161.5350  208.7100  150.2410 N   0  0  0  0  0  2  0  0  0  0  0  0
  161.6430  207.7750  151.3550 C   0  0  0  0  0  2  0  0  0  0  0  0
  160.9370  207.2080  153.7140 C   0  0  0  0  0  2  0  0  0  0  0  0
  161.7490  205.9710  153.3370 C   0  0  0  0  0  2  0  0  0  0  0  0
  160.8520  204.8900  152.7550 C   0  0  0  0  0  2  0  0  0  0  0  0
  160.6020  204.0940  150.4610 C   0  0  0  0  0  3  0  0  0  0  0  0
  161.4120  204.4030  151.4660 C   0  0  0  0  0  3  0  0  0  0  0  0
  161.0940  205.9700  148.2510 C   0  0  0  0  0  2  0  0  0  0  0  0
  163.1040  204.9760  146.4380 O   0  0  0  0  0  0  0  0  0  0  0  0
  162.5730  206.2770  146.2990 C   0  0  0  0  0  2  0  0  0  0  0  0
  162.0940  204.0920  146.8940 C   0  0  1  0  0  3  0  0  0  0  0  0
  161.1140  203.6240  149.1640 C   0  0  0  0  0  0  0  0  0  0  0  0
  161.4710  204.5630  148.1380 N   0  0  0  0  0  0  0  0  0  0  0  0
  162.1850  206.8440  147.6570 C   0  0  0  0  0  2  0  0  0  0  0  0
  161.2620  202.3860  148.9610 O   0  0  0  0  0  0  0  0  0  0  0  0
  161.0840  203.7480  145.8330 C   0  0  0  0  0  0  0  0  0  0  0  0
  160.2050  204.5400  145.5280 O   0  0  0  0  0  0  0  0  0  0  0  0
  161.1490  202.4070  145.1680 C   0  0  0  0  0  2  0  0  0  0  0  0
  159.5790  201.5590  146.7620 F   0  0  0  0  0  0  0  0  0  0  0  0
  159.8920  201.5750  145.4140 C   0  0  2  0  0  3  0  0  0  0  0  0
  160.0480  200.1570  144.8770 C   0  0  0  0  0  2  0  0  0  0  0  0
  161.4900  199.9110  147.0140 C   0  0  0  0  0  1  0  0  0  0  0  0
  161.0080  199.3710  145.7080 C   0  0  0  0  0  0  0  0  0  0  0  0
  161.5140  198.2320  145.2390 C   0  0  0  0  0  2  0  0  0  0  0  0
  160.5300  209.8960  154.2790 O   0  0  0  0  0  0  0  0  0  0  0  0
  157.5020  212.7420  154.8650 C   0  0  0  0  0  0  0  0  0  0  0  0
  157.2260  211.3210  155.2650 C   0  0  0  0  0  2  0  0  0  0  0  0
  158.7000  213.0710  154.1390 N   0  0  0  0  0  0  0  0  0  0  0  0
  156.6360  213.6270  155.0950 O   0  0  0  0  0  0  0  0  0  0  0  0
  159.8600  212.1850  154.1820 C   0  0  0  0  0  2  0  0  0  0  0  0
  158.5130  210.5110  155.4010 C   0  0  0  0  0  2  0  0  0  0  0  0
  159.4120  210.7290  154.1900 C   0  0  2  0  0  3  0  0  0  0  0  0
  158.7430  214.2440  153.2780 C   0  0  0  0  0  2  0  0  0  0  0  0
  158.7450  213.8240  151.8440 C   0  0  0  0  0  0  0  0  0  0  0  0
  159.8040  213.6900  151.2520 O   0  0  0  0  0  0  0  0  0  0  0  0
  157.4530  213.5630  151.1440 C   0  0  0  0  0  2  0  0  0  0  0  0
  157.4700  214.1770  149.7530 C   0  0  0  0  0  2  0  0  0  0  0  0
  157.3060  213.1280  148.7600 N   0  0  0  0  0  2  0  0  0  0  0  0
  158.3590  213.2200  147.9120 O   0  0  0  0  0  0  0  0  0  0  0  0
  156.3480  213.8060  146.0880 O   0  0  0  0  0  0  0  0  0  0  0  0
  158.3890  212.3880  145.2610 O   0  0  0  0  0  0  0  0  0  0  0  0
  157.6760  213.1330  146.3650 P   0  0  0  0  0  0  0  0  0  0  0  0
  1  3  1  0  0  0  0
  2  3  1  0  0  0  0
  2  8  1  1  0  0  0
  3 30  1  1  0  0  0
  4  1  1  0  0  0  0
  5  6  1  0  0  0  0
  5  4  2  0  0  0  0
  6  7  1  0  0  0  0
  7  2  1  0  0  0  0
  9  8  1  0  0  0  0
 10  9  1  0  0  0  0
 11 12  2  0  0  0  0
 12 10  1  0  0  0  0
 14 16  1  0  0  0  0
 15 14  1  0  0  0  0
 15 19  1  0  0  0  0
 16 21  1  6  0  0  0
 16 18  1  0  0  0  0
 17 11  1  0  0  0  0
 18 13  1  0  0  0  0
 18 17  1  0  0  0  0
 19 13  1  0  0  0  0
 20 17  2  0  0  0  0
 22 21  2  0  0  0  0
 23 25  1  0  0  0  0
 23 21  1  0  0  0  0
 25 24  1  1  0  0  0
 26 25  1  0  0  0  0
 26 28  1  0  0  0  0
 28 27  1  0  0  0  0
 29 28  2  0  0  0  0
 31 34  2  0  0  0  0
 31 32  1  0  0  0  0
 32 36  1  0  0  0  0
 33 35  1  0  0  0  0
 33 31  1  0  0  0  0
 35 37  1  0  0  0  0
 37 30  1  1  0  0  0
 37 36  1  0  0  0  0
 38 33  1  0  0  0  0
 39 38  1  0  0  0  0
 40 39  2  0  0  0  0
 41 39  1  0  0  0  0
 42 41  1  0  0  0  0
 43 42  1  0  0  0  0
 44 43  1  0  0  0  0
 45 47  2  0  0  0  0
 46 47  2  0  0  0  0
 47 44  1  0  0  0  0
M  END
>  <MODEL>
1

>  <REMARK>
 VINA RESULT:      -6.1      0.000      0.000
  Name = 
  19 active torsions:
  status: ('A' for Active; 'I' for Inactive)
    1  A    between atoms: O_2  and  C_24
    2  A    between atoms: O_2  and  C_46
    3  A    between atoms: C_4  and  C_32
    4  A    between atoms: C_4  and  C_35
    5  A    between atoms: C_5  and  C_29
    6  A    between atoms: C_5  and  C_37
    7  A    between atoms: N_8  and  C_47
    8  A    between atoms: C_9  and  C_33
    9  A    between atoms: C_11  and  C_19
   10  A    between atoms: C_11  and  C_22
   11  A    between atoms: C_13  and  C_19
   12  A    between atoms: C_15  and  C_17
   13  A    between atoms: C_15  and  C_27
   14  A    between atoms: C_22  and  C_31
   15  A    between atoms: N_23  and  C_32
   16  A    between atoms: N_23  and  O_41
   17  A    between atoms: C_27  and  C_37
   18  A    between atoms: P_30  and  O_41
   19  A    between atoms: C_35  and  C_47
                            x       y       z     vdW  Elec       q    Type
                         _______ _______ _______ _____ _____    ______ ____

>  <TORSDO>
F 19

$$$$
=
 OpenBabel11072414493D

 47 49  0  0  1  0  0  0  0  0999 V2000
  162.9080  206.1990  151.9710 C   0  0  0  0  0  2  0  0  0  0  0  0
  161.5200  208.3160  151.6850 C   0  0  1  0  0  3  0  0  0  0  0  0
  162.0450  207.0220  151.0240 C   0  0  1  0  0  3  0  0  0  0  0  0
  162.0400  205.2730  152.7680 C   0  0  0  0  0  3  0  0  0  0  0  0
  160.9380  205.6470  153.4300 C   0  0  0  0  0  3  0  0  0  0  0  0
  160.4500  206.9970  153.4970 N   0  0  0  0  0  2  0  0  0  0  0  0
  161.2380  208.1850  153.1860 C   0  0  0  0  0  2  0  0  0  0  0  0
  162.3800  209.5530  151.3960 C   0  0  0  0  0  2  0  0  0  0  0  0
  162.2160  210.0690  149.9690 C   0  0  0  0  0  2  0  0  0  0  0  0
  161.8680  211.5490  149.9630 C   0  0  0  0  0  2  0  0  0  0  0  0
  161.3800  213.0300  148.0860 C   0  0  0  0  0  3  0  0  0  0  0  0
  162.1980  212.1470  148.6410 C   0  0  0  0  0  3  0  0  0  0  0  0
  159.8690  212.3100  145.6680 C   0  0  0  0  0  2  0  0  0  0  0  0
  159.8650  214.4510  143.7370 O   0  0  0  0  0  0  0  0  0  0  0  0
  159.0910  213.2870  143.5390 C   0  0  0  0  0  2  0  0  0  0  0  0
  161.0790  214.1160  144.3860 C   0  0  1  0  0  3  0  0  0  0  0  0
  161.6770  213.6580  146.7870 C   0  0  0  0  0  0  0  0  0  0  0  0
  160.8500  213.3930  145.6440 N   0  0  0  0  0  0  0  0  0  0  0  0
  158.6380  212.7120  144.8740 C   0  0  0  0  0  2  0  0  0  0  0  0
  162.6530  214.4520  146.6850 O   0  0  0  0  0  0  0  0  0  0  0  0
  162.0590  213.4150  143.4850 C   0  0  0  0  0  0  0  0  0  0  0  0
  163.0220  212.8230  143.9500 O   0  0  0  0  0  0  0  0  0  0  0  0
  161.8580  213.4690  142.0010 C   0  0  0  0  0  2  0  0  0  0  0  0
  162.6670  212.3940  140.0230 F   0  0  0  0  0  0  0  0  0  0  0  0
  162.2330  212.1580  141.3160 C   0  0  2  0  0  3  0  0  0  0  0  0
  161.0710  211.1710  141.3250 C   0  0  0  0  0  2  0  0  0  0  0  0
  159.4590  212.4460  139.7500 C   0  0  0  0  0  1  0  0  0  0  0  0
  160.2930  211.2460  140.0510 C   0  0  0  0  0  0  0  0  0  0  0  0
  160.2630  210.1980  139.2300 C   0  0  0  0  0  2  0  0  0  0  0  0
  162.7360  207.2850  149.8340 O   0  0  0  0  0  0  0  0  0  0  0  0
  160.3530  206.2110  146.5520 C   0  0  0  0  0  0  0  0  0  0  0  0
  159.7130  206.2450  147.9100 C   0  0  0  0  0  2  0  0  0  0  0  0
  161.7760  206.3640  146.4170 N   0  0  0  0  0  0  0  0  0  0  0  0
  159.6420  205.9590  145.5420 O   0  0  0  0  0  0  0  0  0  0  0  0
  162.5560  207.0080  147.4710 C   0  0  0  0  0  2  0  0  0  0  0  0
  160.5470  207.0450  148.9080 C   0  0  0  0  0  2  0  0  0  0  0  0
  162.0100  206.6250  148.8400 C   0  0  2  0  0  3  0  0  0  0  0  0
  162.4760  205.8010  145.2700 C   0  0  0  0  0  2  0  0  0  0  0  0
  162.8070  204.3680  145.5300 C   0  0  0  0  0  0  0  0  0  0  0  0
  163.9640  204.0390  145.7340 O   0  0  0  0  0  0  0  0  0  0  0  0
  161.7200  203.3440  145.5470 C   0  0  0  0  0  2  0  0  0  0  0  0
  161.3450  202.9930  146.9780 C   0  0  0  0  0  2  0  0  0  0  0  0
  160.8360  201.6310  147.0230 N   0  0  0  0  0  2  0  0  0  0  0  0
  161.4160  201.0290  148.0900 O   0  0  0  0  0  0  0  0  0  0  0  0
  159.9160  200.9260  150.4250 O   0  0  0  0  0  0  0  0  0  0  0  0
  160.8530  203.2490  149.6620 O   0  0  0  0  0  0  0  0  0  0  0  0
  160.7030  201.7630  149.4390 P   0  0  0  0  0  0  0  0  0  0  0  0
  1  4  1  0  0  0  0
  2  8  1  1  0  0  0
  2  7  1  0  0  0  0
  3 30  1  6  0  0  0
  3  2  1  0  0  0  0
  3  1  1  0  0  0  0
  4  5  2  0  0  0  0
  5  6  1  0  0  0  0
  7  6  1  0  0  0  0
  9  8  1  0  0  0  0
 10  9  1  0  0  0  0
 11 12  2  0  0  0  0
 12 10  1  0  0  0  0
 14 16  1  0  0  0  0
 15 14  1  0  0  0  0
 15 19  1  0  0  0  0
 16 21  1  6  0  0  0
 16 18  1  0  0  0  0
 17 11  1  0  0  0  0
 18 13  1  0  0  0  0
 18 17  1  0  0  0  0
 19 13  1  0  0  0  0
 20 17  2  0  0  0  0
 21 22  2  0  0  0  0
 23 21  1  0  0  0  0
 25 24  1  6  0  0  0
 25 26  1  0  0  0  0
 25 23  1  0  0  0  0
 27 28  1  0  0  0  0
 28 26  1  0  0  0  0
 29 28  2  0  0  0  0
 31 32  1  0  0  0  0
 32 36  1  0  0  0  0
 33 31  1  0  0  0  0
 33 35  1  0  0  0  0
 34 31  2  0  0  0  0
 35 37  1  0  0  0  0
 37 36  1  0  0  0  0
 37 30  1  1  0  0  0
 38 39  1  0  0  0  0
 38 33  1  0  0  0  0
 39 41  1  0  0  0  0
 39 40  2  0  0  0  0
 41 42  1  0  0  0  0
 42 43  1  0  0  0  0
 43 44  1  0  0  0  0
 44 47  1  0  0  0  0
 47 46  2  0  0  0  0
 47 45  2  0  0  0  0
M  END
>  <MODEL>
2

>  <REMARK>
 VINA RESULT:      -5.7      4.917      9.905
  Name = 
  19 active torsions:
  status: ('A' for Active; 'I' for Inactive)
    1  A    between atoms: O_2  and  C_24
    2  A    between atoms: O_2  and  C_46
    3  A    between atoms: C_4  and  C_32
    4  A    between atoms: C_4  and  C_35
    5  A    between atoms: C_5  and  C_29
    6  A    between atoms: C_5  and  C_37
    7  A    between atoms: N_8  and  C_47
    8  A    between atoms: C_9  and  C_33
    9  A    between atoms: C_11  and  C_19
   10  A    between atoms: C_11  and  C_22
   11  A    between atoms: C_13  and  C_19
   12  A    between atoms: C_15  and  C_17
   13  A    between atoms: C_15  and  C_27
   14  A    between atoms: C_22  and  C_31
   15  A    between atoms: N_23  and  C_32
   16  A    between atoms: N_23  and  O_41
   17  A    between atoms: C_27  and  C_37
   18  A    between atoms: P_30  and  O_41
   19  A    between atoms: C_35  and  C_47
                            x       y       z     vdW  Elec       q    Type
                         _______ _______ _______ _____ _____    ______ ____

>  <TORSDO>
F 19

$$$$
=
 OpenBabel11072414493D

 47 49  0  0  1  0  0  0  0  0999 V2000
  159.1070  210.6680  153.4140 C   0  0  0  0  0  2  0  0  0  0  0  0
  161.5310  210.6630  154.1960 C   0  0  1  0  0  3  0  0  0  0  0  0
  160.3280  211.5170  153.7370 C   0  0  1  0  0  3  0  0  0  0  0  0
  158.2990  210.4520  154.6580 C   0  0  0  0  0  3  0  0  0  0  0  0
  158.8010  210.0300  155.8250 C   0  0  0  0  0  3  0  0  0  0  0  0
  160.1810  209.6910  156.0400 N   0  0  0  0  0  2  0  0  0  0  0  0
  161.1440  209.4050  154.9830 C   0  0  0  0  0  2  0  0  0  0  0  0
  162.5150  210.3220  153.0690 C   0  0  0  0  0  2  0  0  0  0  0  0
  162.0500  209.1510  152.2090 C   0  0  0  0  0  2  0  0  0  0  0  0
  162.0780  209.5160  150.7330 C   0  0  0  0  0  2  0  0  0  0  0  0
  160.9620  207.3750  150.3760 C   0  0  0  0  0  3  0  0  0  0  0  0
  161.7630  208.3210  149.9050 C   0  0  0  0  0  3  0  0  0  0  0  0
  161.8000  204.6860  151.2210 C   0  0  0  0  0  2  0  0  0  0  0  0
  160.0290  202.6500  150.2050 O   0  0  0  0  0  0  0  0  0  0  0  0
  161.0640  202.3330  151.1120 C   0  0  0  0  0  2  0  0  0  0  0  0
  160.4540  203.6850  149.3350 C   0  0  1  0  0  3  0  0  0  0  0  0
  160.6110  206.1850  149.5840 C   0  0  0  0  0  0  0  0  0  0  0  0
  160.9150  204.8690  150.0730 N   0  0  0  0  0  0  0  0  0  0  0  0
  161.3310  203.5020  152.0490 C   0  0  0  0  0  2  0  0  0  0  0  0
  160.0190  206.3220  148.4780 O   0  0  0  0  0  0  0  0  0  0  0  0
  161.4460  203.2230  148.3020 C   0  0  0  0  0  0  0  0  0  0  0  0
  161.4680  202.0580  147.9350 O   0  0  0  0  0  0  0  0  0  0  0  0
  162.4310  204.2040  147.7430 C   0  0  0  0  0  2  0  0  0  0  0  0
  163.4310  205.0490  145.7400 F   0  0  0  0  0  0  0  0  0  0  0  0
  162.6250  204.0390  146.2380 C   0  0  2  0  0  3  0  0  0  0  0  0
  161.2900  204.0010  145.5040 C   0  0  0  0  0  2  0  0  0  0  0  0
  159.9010  206.1610  145.1710 C   0  0  0  0  0  1  0  0  0  0  0  0
  161.0400  205.2820  144.7760 C   0  0  0  0  0  0  0  0  0  0  0  0
  161.7730  205.5910  143.7080 C   0  0  0  0  0  2  0  0  0  0  0  0
  160.6540  212.3400  152.6520 O   0  0  0  0  0  0  0  0  0  0  0  0
  157.3490  213.9160  150.6020 C   0  0  0  0  0  0  0  0  0  0  0  0
  157.2510  213.7630  152.0930 C   0  0  0  0  0  2  0  0  0  0  0  0
  158.4720  213.3680  149.8900 N   0  0  0  0  0  0  0  0  0  0  0  0
  156.3970  214.4510  149.9740 O   0  0  0  0  0  0  0  0  0  0  0  0
  159.7260  213.0880  150.5850 C   0  0  0  0  0  2  0  0  0  0  0  0
  158.6260  213.5990  152.7360 C   0  0  0  0  0  2  0  0  0  0  0  0
  159.4470  212.5580  151.9850 C   0  0  2  0  0  3  0  0  0  0  0  0
  158.3490  212.9990  148.4860 C   0  0  0  0  0  2  0  0  0  0  0  0
  159.5710  213.4220  147.7400 C   0  0  0  0  0  0  0  0  0  0  0  0
  160.2880  214.3000  148.1930 O   0  0  0  0  0  0  0  0  0  0  0  0
  159.9160  212.7650  146.4440 C   0  0  0  0  0  2  0  0  0  0  0  0
  161.0920  213.4700  145.7880 C   0  0  0  0  0  2  0  0  0  0  0  0
  161.4670  212.7600  144.5750 N   0  0  0  0  0  2  0  0  0  0  0  0
  160.3840  212.0430  144.1890 O   0  0  0  0  0  0  0  0  0  0  0  0
  161.0140  211.4100  141.5590 O   0  0  0  0  0  0  0  0  0  0  0  0
  159.4120  213.4370  141.9910 O   0  0  0  0  0  0  0  0  0  0  0  0
  160.2650  212.3080  142.5200 P   0  0  0  0  0  0  0  0  0  0  0  0
  1  3  1  0  0  0  0
  1  4  1  0  0  0  0
  2  8  1  6  0  0  0
  2  7  1  0  0  0  0
  3 30  1  6  0  0  0
  3  2  1  0  0  0  0
  4  5  2  0  0  0  0
  5  6  1  0  0  0  0
  7  6  1  0  0  0  0
  9  8  1  0  0  0  0
 10  9  1  0  0  0  0
 12 11  2  0  0  0  0
 12 10  1  0  0  0  0
 13 19  1  0  0  0  0
 14 15  1  0  0  0  0
 15 19  1  0  0  0  0
 16 21  1  1  0  0  0
 16 18  1  0  0  0  0
 16 14  1  0  0  0  0
 17 18  1  0  0  0  0
 17 11  1  0  0  0  0
 18 13  1  0  0  0  0
 20 17  2  0  0  0  0
 22 21  2  0  0  0  0
 23 21  1  0  0  0  0
 25 24  1  6  0  0  0
 25 23  1  0  0  0  0
 26 25  1  0  0  0  0
 28 27  1  0  0  0  0
 28 26  1  0  0  0  0
 29 28  2  0  0  0  0
 31 32  1  0  0  0  0
 32 36  1  0  0  0  0
 33 35  1  0  0  0  0
 33 31  1  0  0  0  0
 34 31  2  0  0  0  0
 35 37  1  0  0  0  0
 37 30  1  1  0  0  0
 37 36  1  0  0  0  0
 38 33  1  0  0  0  0
 39 40  2  0  0  0  0
 39 38  1  0  0  0  0
 41 39  1  0  0  0  0
 42 41  1  0  0  0  0
 43 42  1  0  0  0  0
 44 43  1  0  0  0  0
 45 47  2  0  0  0  0
 46 47  2  0  0  0  0
 47 44  1  0  0  0  0
M  END
>  <MODEL>
3

>  <REMARK>
 VINA RESULT:      -5.7      2.640      4.569
  Name = 
  19 active torsions:
  status: ('A' for Active; 'I' for Inactive)
    1  A    between atoms: O_2  and  C_24
    2  A    between atoms: O_2  and  C_46
    3  A    between atoms: C_4  and  C_32
    4  A    between atoms: C_4  and  C_35
    5  A    between atoms: C_5  and  C_29
    6  A    between atoms: C_5  and  C_37
    7  A    between atoms: N_8  and  C_47
    8  A    between atoms: C_9  and  C_33
    9  A    between atoms: C_11  and  C_19
   10  A    between atoms: C_11  and  C_22
   11  A    between atoms: C_13  and  C_19
   12  A    between atoms: C_15  and  C_17
   13  A    between atoms: C_15  and  C_27
   14  A    between atoms: C_22  and  C_31
   15  A    between atoms: N_23  and  C_32
   16  A    between atoms: N_23  and  O_41
   17  A    between atoms: C_27  and  C_37
   18  A    between atoms: P_30  and  O_41
   19  A    between atoms: C_35  and  C_47
                            x       y       z     vdW  Elec       q    Type
                         _______ _______ _______ _____ _____    ______ ____

>  <TORSDO>
F 19

$$$$
=
 OpenBabel11072414493D

 47 49  0  0  1  0  0  0  0  0999 V2000
  159.3770  209.4240  155.6370 C   0  0  0  0  0  2  0  0  0  0  0  0
  161.8460  209.5840  155.0300 C   0  0  1  0  0  3  0  0  0  0  0  0
  160.7410  209.9650  156.0420 C   0  0  1  0  0  3  0  0  0  0  0  0
  159.2020  208.0390  156.1820 C   0  0  0  0  0  3  0  0  0  0  0  0
  160.0960  207.0510  156.0480 C   0  0  0  0  0  3  0  0  0  0  0  0
  161.3360  207.1710  155.3310 N   0  0  0  0  0  2  0  0  0  0  0  0
  161.6420  208.2190  154.3630 C   0  0  0  0  0  2  0  0  0  0  0  0
  162.1290  210.6680  153.9820 C   0  0  0  0  0  2  0  0  0  0  0  0
  161.1930  210.5890  152.7800 C   0  0  0  0  0  2  0  0  0  0  0  0
  161.8900  209.9490  151.5900 C   0  0  0  0  0  2  0  0  0  0  0  0
  161.6010  207.9990  150.1500 C   0  0  0  0  0  3  0  0  0  0  0  0
  161.1860  208.6980  151.1990 C   0  0  0  0  0  3  0  0  0  0  0  0
  162.0070  205.5040  151.6520 C   0  0  0  0  0  2  0  0  0  0  0  0
  159.7790  203.7000  151.3410 O   0  0  0  0  0  0  0  0  0  0  0  0
  160.8310  203.4140  152.2380 C   0  0  0  0  0  2  0  0  0  0  0  0
  160.2900  204.3620  150.1960 C   0  0  1  0  0  3  0  0  0  0  0  0
  160.9440  206.7480  149.7380 C   0  0  0  0  0  0  0  0  0  0  0  0
  161.0470  205.5690  150.5520 N   0  0  0  0  0  0  0  0  0  0  0  0
  161.4190  204.7010  152.8000 C   0  0  0  0  0  2  0  0  0  0  0  0
  160.2660  206.7190  148.6730 O   0  0  0  0  0  0  0  0  0  0  0  0
  161.0530  203.4490  149.2750 C   0  0  0  0  0  0  0  0  0  0  0  0
  161.9820  202.7750  149.6920 O   0  0  0  0  0  0  0  0  0  0  0  0
  160.6780  203.3930  147.8250 C   0  0  0  0  0  2  0  0  0  0  0  0
  162.3650  204.9900  147.2510 F   0  0  0  0  0  0  0  0  0  0  0  0
  161.8450  203.7530  146.9090 C   0  0  2  0  0  3  0  0  0  0  0  0
  161.4310  203.7270  145.4420 C   0  0  0  0  0  2  0  0  0  0  0  0
  160.0700  205.9290  145.4130 C   0  0  0  0  0  1  0  0  0  0  0  0
  161.2160  205.1100  144.9200 C   0  0  0  0  0  0  0  0  0  0  0  0
  161.9870  205.5770  143.9390 C   0  0  0  0  0  2  0  0  0  0  0  0
  160.6790  211.3480  156.2510 O   0  0  0  0  0  0  0  0  0  0  0  0
  156.9500  213.2100  155.7660 C   0  0  0  0  0  0  0  0  0  0  0  0
  157.0680  212.1180  156.7900 C   0  0  0  0  0  2  0  0  0  0  0  0
  158.0350  213.4750  154.8610 N   0  0  0  0  0  0  0  0  0  0  0  0
  155.8590  213.8300  155.6510 O   0  0  0  0  0  0  0  0  0  0  0  0
  159.3950  213.0580  155.1920 C   0  0  0  0  0  2  0  0  0  0  0  0
  158.5250  211.8420  157.1570 C   0  0  0  0  0  2  0  0  0  0  0  0
  159.3760  211.7100  155.9000 C   0  0  2  0  0  3  0  0  0  0  0  0
  157.7830  214.0830  153.5620 C   0  0  0  0  0  2  0  0  0  0  0  0
  158.0710  213.1000  152.4750 C   0  0  0  0  0  0  0  0  0  0  0  0
  158.0150  211.9030  152.7070 O   0  0  0  0  0  0  0  0  0  0  0  0
  158.4200  213.5850  151.1070 C   0  0  0  0  0  2  0  0  0  0  0  0
  159.9160  213.8330  150.9970 C   0  0  0  0  0  2  0  0  0  0  0  0
  160.4750  212.9710  149.9680 N   0  0  0  0  0  2  0  0  0  0  0  0
  160.8780  213.7770  148.9550 O   0  0  0  0  0  0  0  0  0  0  0  0
  160.4640  212.1630  146.7330 O   0  0  0  0  0  0  0  0  0  0  0  0
  158.6420  213.9530  147.3150 O   0  0  0  0  0  0  0  0  0  0  0  0
  159.9610  213.2820  147.6200 P   0  0  0  0  0  0  0  0  0  0  0  0
  1  3  1  0  0  0  0
  1  4  1  0  0  0  0
  2  8  1  6  0  0  0
  2  3  1  0  0  0  0
  3 30  1  6  0  0  0
  5  4  2  0  0  0  0
  6  5  1  0  0  0  0
  7  2  1  0  0  0  0
  7  6  1  0  0  0  0
  9  8  1  0  0  0  0
 10  9  1  0  0  0  0
 11 12  2  0  0  0  0
 12 10  1  0  0  0  0
 13 19  1  0  0  0  0
 14 15  1  0  0  0  0
 15 19  1  0  0  0  0
 16 21  1  1  0  0  0
 16 18  1  0  0  0  0
 16 14  1  0  0  0  0
 17 11  1  0  0  0  0
 17 18  1  0  0  0  0
 18 13  1  0  0  0  0
 20 17  2  0  0  0  0
 21 22  2  0  0  0  0
 23 21  1  0  0  0  0
 25 24  1  1  0  0  0
 25 23  1  0  0  0  0
 26 25  1  0  0  0  0
 28 27  1  0  0  0  0
 28 26  1  0  0  0  0
 29 28  2  0  0  0  0
 31 32  1  0  0  0  0
 32 36  1  0  0  0  0
 33 35  1  0  0  0  0
 33 31  1  0  0  0  0
 34 31  2  0  0  0  0
 35 37  1  0  0  0  0
 37 30  1  1  0  0  0
 37 36  1  0  0  0  0
 38 33  1  0  0  0  0
 39 40  2  0  0  0  0
 39 38  1  0  0  0  0
 41 39  1  0  0  0  0
 42 41  1  0  0  0  0
 43 42  1  0  0  0  0
 44 43  1  0  0  0  0
 45 47  2  0  0  0  0
 46 47  2  0  0  0  0
 47 44  1  0  0  0  0
M  END
>  <MODEL>
4

>  <REMARK>
 VINA RESULT:      -5.6      2.306      4.007
  Name = 
  19 active torsions:
  status: ('A' for Active; 'I' for Inactive)
    1  A    between atoms: O_2  and  C_24
    2  A    between atoms: O_2  and  C_46
    3  A    between atoms: C_4  and  C_32
    4  A    between atoms: C_4  and  C_35
    5  A    between atoms: C_5  and  C_29
    6  A    between atoms: C_5  and  C_37
    7  A    between atoms: N_8  and  C_47
    8  A    between atoms: C_9  and  C_33
    9  A    between atoms: C_11  and  C_19
   10  A    between atoms: C_11  and  C_22
   11  A    between atoms: C_13  and  C_19
   12  A    between atoms: C_15  and  C_17
   13  A    between atoms: C_15  and  C_27
   14  A    between atoms: C_22  and  C_31
   15  A    between atoms: N_23  and  C_32
   16  A    between atoms: N_23  and  O_41
   17  A    between atoms: C_27  and  C_37
   18  A    between atoms: P_30  and  O_41
   19  A    between atoms: C_35  and  C_47
                            x       y       z     vdW  Elec       q    Type
                         _______ _______ _______ _____ _____    ______ ____

>  <TORSDO>
F 19

$$$$
=
 OpenBabel11072414493D

 47 49  0  0  1  0  0  0  0  0999 V2000
  160.2960  205.4890  146.3860 C   0  0  0  0  0  2  0  0  0  0  0  0
  162.3190  206.4540  147.5960 C   0  0  1  0  0  3  0  0  0  0  0  0
  160.9960  205.6650  147.7260 C   0  0  1  0  0  3  0  0  0  0  0  0
  160.8040  204.2530  145.7090 C   0  0  0  0  0  3  0  0  0  0  0  0
  162.0990  203.9560  145.5420 C   0  0  0  0  0  3  0  0  0  0  0  0
  163.1850  204.8010  145.9580 N   0  0  0  0  0  2  0  0  0  0  0  0
  163.0640  206.2190  146.2770 C   0  0  0  0  0  2  0  0  0  0  0  0
  162.1760  207.9540  147.8840 C   0  0  0  0  0  2  0  0  0  0  0  0
  162.3720  208.2970  149.3580 C   0  0  0  0  0  2  0  0  0  0  0  0
  161.9490  209.7280  149.6440 C   0  0  0  0  0  2  0  0  0  0  0  0
  161.8600  211.8640  148.4650 C   0  0  0  0  0  3  0  0  0  0  0  0
  162.2250  210.5890  148.4620 C   0  0  0  0  0  3  0  0  0  0  0  0
  160.0840  211.9090  146.1220 C   0  0  0  0  0  2  0  0  0  0  0  0
  160.1920  214.4430  144.7520 O   0  0  0  0  0  0  0  0  0  0  0  0
  159.2670  213.4470  144.3740 C   0  0  0  0  0  2  0  0  0  0  0  0
  161.4040  213.8390  145.1720 C   0  0  1  0  0  3  0  0  0  0  0  0
  162.1290  212.7540  147.3240 C   0  0  0  0  0  0  0  0  0  0  0  0
  161.1860  212.8600  146.2450 N   0  0  0  0  0  0  0  0  0  0  0  0
  158.8540  212.6150  145.5800 C   0  0  0  0  0  2  0  0  0  0  0  0
  163.1850  213.4460  147.3050 O   0  0  0  0  0  0  0  0  0  0  0  0
  162.2140  213.2810  144.0340 C   0  0  0  0  0  0  0  0  0  0  0  0
  163.3820  213.6060  143.8810 O   0  0  0  0  0  0  0  0  0  0  0  0
  161.5660  212.3370  143.0670 C   0  0  0  0  0  2  0  0  0  0  0  0
  161.3420  214.1490  141.5210 F   0  0  0  0  0  0  0  0  0  0  0  0
  161.6870  212.8120  141.6210 C   0  0  2  0  0  3  0  0  0  0  0  0
  160.8400  211.9620  140.6820 C   0  0  0  0  0  2  0  0  0  0  0  0
  161.7820  209.8540  139.5120 C   0  0  0  0  0  1  0  0  0  0  0  0
  161.6810  211.3390  139.6160 C   0  0  0  0  0  0  0  0  0  0  0  0
  162.4210  212.1080  138.8210 C   0  0  0  0  0  2  0  0  0  0  0  0
  160.1300  206.2450  148.6610 O   0  0  0  0  0  0  0  0  0  0  0  0
  161.3350  203.6330  151.7160 C   0  0  0  0  0  0  0  0  0  0  0  0
  160.4740  203.0850  150.6150 C   0  0  0  0  0  2  0  0  0  0  0  0
  161.5810  205.0470  151.8080 N   0  0  0  0  0  0  0  0  0  0  0  0
  161.7670  202.8530  152.6070 O   0  0  0  0  0  0  0  0  0  0  0  0
  161.4240  205.9050  150.6370 C   0  0  0  0  0  2  0  0  0  0  0  0
  160.4740  203.9970  149.3900 C   0  0  0  0  0  2  0  0  0  0  0  0
  160.2380  205.4450  149.8010 C   0  0  2  0  0  3  0  0  0  0  0  0
  161.9030  205.6600  153.0900 C   0  0  0  0  0  2  0  0  0  0  0  0
  160.9180  206.7390  153.4000 C   0  0  0  0  0  0  0  0  0  0  0  0
  160.1930  206.6390  154.3760 O   0  0  0  0  0  0  0  0  0  0  0  0
  160.8290  207.9400  152.5170 C   0  0  0  0  0  2  0  0  0  0  0  0
  161.7050  209.0610  153.0570 C   0  0  0  0  0  2  0  0  0  0  0  0
  161.0040  210.3280  152.9250 N   0  0  0  0  0  2  0  0  0  0  0  0
  159.8830  210.2390  153.6820 O   0  0  0  0  0  0  0  0  0  0  0  0
  157.6550  211.8770  153.9350 O   0  0  0  0  0  0  0  0  0  0  0  0
  159.7310  212.8110  152.6420 O   0  0  0  0  0  0  0  0  0  0  0  0
  159.0620  211.6940  153.4080 P   0  0  0  0  0  0  0  0  0  0  0  0
  1  3  1  0  0  0  0
  2  3  1  0  0  0  0
  2  8  1  6  0  0  0
  3 30  1  1  0  0  0
  4  1  1  0  0  0  0
  5  4  2  0  0  0  0
  5  6  1  0  0  0  0
  6  7  1  0  0  0  0
  7  2  1  0  0  0  0
  8  9  1  0  0  0  0
  9 10  1  0  0  0  0
 12 11  2  0  0  0  0
 12 10  1  0  0  0  0
 13 18  1  0  0  0  0
 14 16  1  0  0  0  0
 15 14  1  0  0  0  0
 15 19  1  0  0  0  0
 16 21  1  6  0  0  0
 16 18  1  0  0  0  0
 17 11  1  0  0  0  0
 18 17  1  0  0  0  0
 19 13  1  0  0  0  0
 20 17  2  0  0  0  0
 22 21  2  0  0  0  0
 23 21  1  0  0  0  0
 25 24  1  1  0  0  0
 25 23  1  0  0  0  0
 26 25  1  0  0  0  0
 27 28  1  0  0  0  0
 28 26  1  0  0  0  0
 29 28  2  0  0  0  0
 31 33  1  0  0  0  0
 31 34  2  0  0  0  0
 32 31  1  0  0  0  0
 33 38  1  0  0  0  0
 35 33  1  0  0  0  0
 36 37  1  0  0  0  0
 36 32  1  0  0  0  0
 37 30  1  6  0  0  0
 37 35  1  0  0  0  0
 38 39  1  0  0  0  0
 39 40  2  0  0  0  0
 41 42  1  0  0  0  0
 41 39  1  0  0  0  0
 43 42  1  0  0  0  0
 43 44  1  0  0  0  0
 46 47  2  0  0  0  0
 47 44  1  0  0  0  0
 47 45  2  0  0  0  0
M  END
>  <MODEL>
5

>  <REMARK>
 VINA RESULT:      -5.1      4.644      8.957
  Name = 
  19 active torsions:
  status: ('A' for Active; 'I' for Inactive)
    1  A    between atoms: O_2  and  C_24
    2  A    between atoms: O_2  and  C_46
    3  A    between atoms: C_4  and  C_32
    4  A    between atoms: C_4  and  C_35
    5  A    between atoms: C_5  and  C_29
    6  A    between atoms: C_5  and  C_37
    7  A    between atoms: N_8  and  C_47
    8  A    between atoms: C_9  and  C_33
    9  A    between atoms: C_11  and  C_19
   10  A    between atoms: C_11  and  C_22
   11  A    between atoms: C_13  and  C_19
   12  A    between atoms: C_15  and  C_17
   13  A    between atoms: C_15  and  C_27
   14  A    between atoms: C_22  and  C_31
   15  A    between atoms: N_23  and  C_32
   16  A    between atoms: N_23  and  O_41
   17  A    between atoms: C_27  and  C_37
   18  A    between atoms: P_30  and  O_41
   19  A    between atoms: C_35  and  C_47
                            x       y       z     vdW  Elec       q    Type
                         _______ _______ _______ _____ _____    ______ ____

>  <TORSDO>
F 19

$$$$
=
 OpenBabel11072414493D

 47 49  0  0  1  0  0  0  0  0999 V2000
  159.5970  209.3950  154.3420 C   0  0  0  0  0  2  0  0  0  0  0  0
  161.5070  208.5000  152.9130 C   0  0  1  0  0  3  0  0  0  0  0  0
  160.9180  209.7190  153.6580 C   0  0  1  0  0  3  0  0  0  0  0  0
  159.8600  208.8600  155.7170 C   0  0  0  0  0  3  0  0  0  0  0  0
  160.7250  207.8770  155.9970 C   0  0  0  0  0  3  0  0  0  0  0  0
  161.4980  207.1710  155.0120 N   0  0  0  0  0  2  0  0  0  0  0  0
  161.2100  207.1530  153.5820 C   0  0  0  0  0  2  0  0  0  0  0  0
  161.1590  208.4570  151.4200 C   0  0  0  0  0  2  0  0  0  0  0  0
  162.3410  208.8160  150.5250 C   0  0  0  0  0  2  0  0  0  0  0  0
  161.9390  208.7940  149.0590 C   0  0  0  0  0  2  0  0  0  0  0  0
  162.6760  206.9660  147.6180 C   0  0  0  0  0  3  0  0  0  0  0  0
  161.8580  207.3900  148.5720 C   0  0  0  0  0  3  0  0  0  0  0  0
  160.2930  205.8990  146.2650 C   0  0  0  0  0  2  0  0  0  0  0  0
  160.9650  203.7500  144.4620 O   0  0  0  0  0  0  0  0  0  0  0  0
  159.6540  204.2700  144.5240 C   0  0  0  0  0  2  0  0  0  0  0  0
  161.5500  203.7710  145.7530 C   0  0  1  0  0  3  0  0  0  0  0  0
  162.6400  205.5810  147.1190 C   0  0  0  0  0  0  0  0  0  0  0  0
  161.5220  205.1130  146.3490 N   0  0  0  0  0  0  0  0  0  0  0  0
  159.6810  205.7490  144.8830 C   0  0  0  0  0  2  0  0  0  0  0  0
  163.6100  204.8080  147.3520 O   0  0  0  0  0  0  0  0  0  0  0  0
  160.9950  202.7170  146.6730 C   0  0  0  0  0  0  0  0  0  0  0  0
  159.9180  202.1890  146.4390 O   0  0  0  0  0  0  0  0  0  0  0  0
  161.7670  202.3360  147.8990 C   0  0  0  0  0  2  0  0  0  0  0  0
  159.7060  201.9180  149.0400 F   0  0  0  0  0  0  0  0  0  0  0  0
  160.9490  202.5100  149.1770 C   0  0  2  0  0  3  0  0  0  0  0  0
  160.8110  203.9800  149.5550 C   0  0  0  0  0  2  0  0  0  0  0  0
  160.4540  203.5710  152.0870 C   0  0  0  0  0  1  0  0  0  0  0  0
  161.2160  204.2100  150.9750 C   0  0  0  0  0  0  0  0  0  0  0  0
  162.1970  205.0660  151.2540 C   0  0  0  0  0  2  0  0  0  0  0  0
  160.7740  210.8280  152.8140 O   0  0  0  0  0  0  0  0  0  0  0  0
  157.8680  213.5640  154.1080 C   0  0  0  0  0  0  0  0  0  0  0  0
  158.6130  212.7770  155.1480 C   0  0  0  0  0  2  0  0  0  0  0  0
  158.0250  213.2510  152.7130 N   0  0  0  0  0  0  0  0  0  0  0  0
  157.0410  214.4410  154.4740 O   0  0  0  0  0  0  0  0  0  0  0  0
  159.2050  212.5320  152.2420 C   0  0  0  0  0  2  0  0  0  0  0  0
  159.8940  212.1670  154.5850 C   0  0  0  0  0  2  0  0  0  0  0  0
  159.6180  211.4740  153.2570 C   0  0  2  0  0  3  0  0  0  0  0  0
  156.9680  213.5670  151.7620 C   0  0  0  0  0  2  0  0  0  0  0  0
  157.5520  213.7870  150.4050 C   0  0  0  0  0  0  0  0  0  0  0  0
  158.7020  214.1810  150.2950 O   0  0  0  0  0  0  0  0  0  0  0  0
  156.7310  213.5160  149.1880 C   0  0  0  0  0  2  0  0  0  0  0  0
  157.5530  212.7720  148.1470 C   0  0  0  0  0  2  0  0  0  0  0  0
  158.2520  213.7320  147.3080 N   0  0  0  0  0  2  0  0  0  0  0  0
  159.5660  213.4030  147.3440 O   0  0  0  0  0  0  0  0  0  0  0  0
  161.3370  212.7990  145.2910 O   0  0  0  0  0  0  0  0  0  0  0  0
  158.7900  212.3370  144.8980 O   0  0  0  0  0  0  0  0  0  0  0  0
  159.9080  212.8260  145.7890 P   0  0  0  0  0  0  0  0  0  0  0  0
  1  4  1  0  0  0  0
  2  8  1  6  0  0  0
  2  7  1  0  0  0  0
  2  3  1  0  0  0  0
  3 30  1  6  0  0  0
  3  1  1  0  0  0  0
  4  5  2  0  0  0  0
  6  5  1  0  0  0  0
  7  6  1  0  0  0  0
  9  8  1  0  0  0  0
 10  9  1  0  0  0  0
 11 12  2  0  0  0  0
 12 10  1  0  0  0  0
 13 18  1  0  0  0  0
 14 15  1  0  0  0  0
 14 16  1  0  0  0  0
 15 19  1  0  0  0  0
 16 18  1  0  0  0  0
 16 21  1  1  0  0  0
 17 20  2  0  0  0  0
 17 11  1  0  0  0  0
 18 17  1  0  0  0  0
 19 13  1  0  0  0  0
 21 23  1  0  0  0  0
 22 21  2  0  0  0  0
 23 25  1  0  0  0  0
 25 24  1  6  0  0  0
 25 26  1  0  0  0  0
 26 28  1  0  0  0  0
 28 29  2  0  0  0  0
 28 27  1  0  0  0  0
 31 34  2  0  0  0  0
 31 32  1  0  0  0  0
 33 31  1  0  0  0  0
 35 33  1  0  0  0  0
 35 37  1  0  0  0  0
 36 32  1  0  0  0  0
 37 30  1  6  0  0  0
 37 36  1  0  0  0  0
 38 33  1  0  0  0  0
 39 38  1  0  0  0  0
 40 39  2  0  0  0  0
 41 39  1  0  0  0  0
 42 41  1  0  0  0  0
 43 44  1  0  0  0  0
 43 42  1  0  0  0  0
 45 47  2  0  0  0  0
 46 47  2  0  0  0  0
 47 44  1  0  0  0  0
M  END
>  <MODEL>
6

>  <REMARK>
 VINA RESULT:      -4.7      1.913      3.600
  Name = 
  19 active torsions:
  status: ('A' for Active; 'I' for Inactive)
    1  A    between atoms: O_2  and  C_24
    2  A    between atoms: O_2  and  C_46
    3  A    between atoms: C_4  and  C_32
    4  A    between atoms: C_4  and  C_35
    5  A    between atoms: C_5  and  C_29
    6  A    between atoms: C_5  and  C_37
    7  A    between atoms: N_8  and  C_47
    8  A    between atoms: C_9  and  C_33
    9  A    between atoms: C_11  and  C_19
   10  A    between atoms: C_11  and  C_22
   11  A    between atoms: C_13  and  C_19
   12  A    between atoms: C_15  and  C_17
   13  A    between atoms: C_15  and  C_27
   14  A    between atoms: C_22  and  C_31
   15  A    between atoms: N_23  and  C_32
   16  A    between atoms: N_23  and  O_41
   17  A    between atoms: C_27  and  C_37
   18  A    between atoms: P_30  and  O_41
   19  A    between atoms: C_35  and  C_47
                            x       y       z     vdW  Elec       q    Type
                         _______ _______ _______ _____ _____    ______ ____

>  <TORSDO>
F 19

$$$$
=
 OpenBabel11072414493D

 47 49  0  0  1  0  0  0  0  0999 V2000
  160.9620  203.7080  145.9860 C   0  0  0  0  0  2  0  0  0  0  0  0
  161.5520  205.9670  147.0050 C   0  0  1  0  0  3  0  0  0  0  0  0
  162.0600  204.5640  146.6010 C   0  0  1  0  0  3  0  0  0  0  0  0
  160.8970  203.9560  144.5100 C   0  0  0  0  0  3  0  0  0  0  0  0
  160.8430  205.1680  143.9440 C   0  0  0  0  0  3  0  0  0  0  0  0
  160.8040  206.4040  144.6770 N   0  0  0  0  0  2  0  0  0  0  0  0
  160.4580  206.5270  146.0890 C   0  0  0  0  0  2  0  0  0  0  0  0
  161.1410  206.0770  148.4790 C   0  0  0  0  0  2  0  0  0  0  0  0
  160.8460  207.5120  148.9070 C   0  0  0  0  0  2  0  0  0  0  0  0
  162.1170  208.2160  149.3550 C   0  0  0  0  0  2  0  0  0  0  0  0
  161.9570  210.6030  148.8670 C   0  0  0  0  0  3  0  0  0  0  0  0
  162.3750  209.4010  148.4930 C   0  0  0  0  0  3  0  0  0  0  0  0
  159.9360  211.6040  146.9800 C   0  0  0  0  0  2  0  0  0  0  0  0
  160.2230  214.4350  146.5150 O   0  0  0  0  0  0  0  0  0  0  0  0
  159.1330  213.7140  145.9830 C   0  0  0  0  0  2  0  0  0  0  0  0
  161.3830  213.6200  146.5180 C   0  0  1  0  0  3  0  0  0  0  0  0
  162.2050  211.8030  148.0530 C   0  0  0  0  0  0  0  0  0  0  0  0
  161.1640  212.3550  147.2310 N   0  0  0  0  0  0  0  0  0  0  0  0
  158.7570  212.5580  146.9000 C   0  0  0  0  0  2  0  0  0  0  0  0
  163.3350  212.3650  148.0950 O   0  0  0  0  0  0  0  0  0  0  0  0
  161.9690  213.4180  145.1470 C   0  0  0  0  0  0  0  0  0  0  0  0
  163.0890  212.9490  145.0090 O   0  0  0  0  0  0  0  0  0  0  0  0
  161.1730  213.8230  143.9430 C   0  0  0  0  0  2  0  0  0  0  0  0
  160.3400  211.5900  143.7350 F   0  0  0  0  0  0  0  0  0  0  0  0
  160.8780  212.6450  143.0180 C   0  0  2  0  0  3  0  0  0  0  0  0
  162.1240  212.2050  142.2600 C   0  0  0  0  0  2  0  0  0  0  0  0
  160.3350  211.4740  140.5370 C   0  0  0  0  0  1  0  0  0  0  0  0
  161.7660  211.6010  140.9420 C   0  0  0  0  0  0  0  0  0  0  0  0
  162.7180  211.0810  140.1690 C   0  0  0  0  0  2  0  0  0  0  0  0
  162.6600  203.8960  147.6760 O   0  0  0  0  0  0  0  0  0  0  0  0
  160.1390  201.3980  149.9140 C   0  0  0  0  0  0  0  0  0  0  0  0
  160.0540  201.3310  148.4160 C   0  0  0  0  0  2  0  0  0  0  0  0
  160.9300  202.4170  150.5500 N   0  0  0  0  0  0  0  0  0  0  0  0
  159.4420  200.6090  150.6070 O   0  0  0  0  0  0  0  0  0  0  0  0
  162.0060  203.0830  149.8220 C   0  0  0  0  0  2  0  0  0  0  0  0
  161.2840  201.9450  147.7520 C   0  0  0  0  0  2  0  0  0  0  0  0
  161.6030  203.3010  148.3690 C   0  0  2  0  0  3  0  0  0  0  0  0
  160.6130  202.8640  151.9000 C   0  0  0  0  0  2  0  0  0  0  0  0
  160.6770  204.3540  151.9710 C   0  0  0  0  0  0  0  0  0  0  0  0
  160.0290  205.0290  151.1880 O   0  0  0  0  0  0  0  0  0  0  0  0
  161.5300  205.0130  153.0040 C   0  0  0  0  0  2  0  0  0  0  0  0
  161.5850  206.5150  152.7680 C   0  0  0  0  0  2  0  0  0  0  0  0
  160.7870  207.1920  153.7780 N   0  0  0  0  0  2  0  0  0  0  0  0
  161.3590  208.4030  153.9840 O   0  0  0  0  0  0  0  0  0  0  0  0
  160.3730  210.6260  155.3260 O   0  0  0  0  0  0  0  0  0  0  0  0
  159.6420  208.2550  156.1640 O   0  0  0  0  0  0  0  0  0  0  0  0
  160.4250  209.1180  155.2030 P   0  0  0  0  0  0  0  0  0  0  0  0
  1  3  1  0  0  0  0
  2  8  1  1  0  0  0
  3  2  1  0  0  0  0
  3 30  1  1  0  0  0
  4  1  1  0  0  0  0
  5  4  2  0  0  0  0
  5  6  1  0  0  0  0
  6  7  1  0  0  0  0
  7  2  1  0  0  0  0
  8  9  1  0  0  0  0
  9 10  1  0  0  0  0
 12 11  2  0  0  0  0
 12 10  1  0  0  0  0
 13 18  1  0  0  0  0
 14 16  1  0  0  0  0
 15 14  1  0  0  0  0
 15 19  1  0  0  0  0
 16 21  1  6  0  0  0
 16 18  1  0  0  0  0
 17 20  2  0  0  0  0
 17 11  1  0  0  0  0
 18 17  1  0  0  0  0
 19 13  1  0  0  0  0
 22 21  2  0  0  0  0
 23 21  1  0  0  0  0
 25 24  1  1  0  0  0
 25 23  1  0  0  0  0
 26 25  1  0  0  0  0
 27 28  1  0  0  0  0
 28 26  1  0  0  0  0
 29 28  2  0  0  0  0
 31 33  1  0  0  0  0
 31 34  2  0  0  0  0
 32 31  1  0  0  0  0
 33 38  1  0  0  0  0
 35 33  1  0  0  0  0
 36 37  1  0  0  0  0
 36 32  1  0  0  0  0
 37 30  1  6  0  0  0
 37 35  1  0  0  0  0
 38 39  1  0  0  0  0
 39 41  1  0  0  0  0
 40 39  2  0  0  0  0
 42 41  1  0  0  0  0
 42 43  1  0  0  0  0
 43 44  1  0  0  0  0
 44 47  1  0  0  0  0
 47 45  2  0  0  0  0
 47 46  2  0  0  0  0
M  END
>  <MODEL>
7

>  <REMARK>
 VINA RESULT:      -4.4      4.302      9.714
  Name = 
  19 active torsions:
  status: ('A' for Active; 'I' for Inactive)
    1  A    between atoms: O_2  and  C_24
    2  A    between atoms: O_2  and  C_46
    3  A    between atoms: C_4  and  C_32
    4  A    between atoms: C_4  and  C_35
    5  A    between atoms: C_5  and  C_29
    6  A    between atoms: C_5  and  C_37
    7  A    between atoms: N_8  and  C_47
    8  A    between atoms: C_9  and  C_33
    9  A    between atoms: C_11  and  C_19
   10  A    between atoms: C_11  and  C_22
   11  A    between atoms: C_13  and  C_19
   12  A    between atoms: C_15  and  C_17
   13  A    between atoms: C_15  and  C_27
   14  A    between atoms: C_22  and  C_31
   15  A    between atoms: N_23  and  C_32
   16  A    between atoms: N_23  and  O_41
   17  A    between atoms: C_27  and  C_37
   18  A    between atoms: P_30  and  O_41
   19  A    between atoms: C_35  and  C_47
                            x       y       z     vdW  Elec       q    Type
                         _______ _______ _______ _____ _____    ______ ____

>  <TORSDO>
F 19

$$$$
=
 OpenBabel11072414493D

 47 49  0  0  1  0  0  0  0  0999 V2000
  159.5330  208.8240  154.6910 C   0  0  0  0  0  2  0  0  0  0  0  0
  161.3900  207.9740  153.1680 C   0  0  1  0  0  3  0  0  0  0  0  0
  160.9060  209.1090  154.0990 C   0  0  1  0  0  3  0  0  0  0  0  0
  159.6830  208.0390  155.9580 C   0  0  0  0  0  3  0  0  0  0  0  0
  160.4250  206.9320  156.0820 C   0  0  0  0  0  3  0  0  0  0  0  0
  161.1570  206.3200  155.0060 N   0  0  0  0  0  2  0  0  0  0  0  0
  160.9250  206.5760  153.5890 C   0  0  0  0  0  2  0  0  0  0  0  0
  161.0980  208.2240  151.6830 C   0  0  0  0  0  2  0  0  0  0  0  0
  162.2490  208.9200  150.9610 C   0  0  0  0  0  2  0  0  0  0  0  0
  162.0110  208.9470  149.4600 C   0  0  0  0  0  2  0  0  0  0  0  0
  162.6580  207.3170  147.7620 C   0  0  0  0  0  3  0  0  0  0  0  0
  162.0450  207.5640  148.9120 C   0  0  0  0  0  3  0  0  0  0  0  0
  160.4510  206.2230  146.1560 C   0  0  0  0  0  2  0  0  0  0  0  0
  161.3730  204.2070  144.3120 O   0  0  0  0  0  0  0  0  0  0  0  0
  160.0380  204.6660  144.2860 C   0  0  0  0  0  2  0  0  0  0  0  0
  161.8460  204.1820  145.6480 C   0  0  1  0  0  3  0  0  0  0  0  0
  162.7300  205.9610  147.1930 C   0  0  0  0  0  0  0  0  0  0  0  0
  161.7040  205.4880  146.3060 N   0  0  0  0  0  0  0  0  0  0  0  0
  159.9650  206.1240  144.7200 C   0  0  0  0  0  2  0  0  0  0  0  0
  163.7130  205.2180  147.4690 O   0  0  0  0  0  0  0  0  0  0  0  0
  161.2660  203.0570  146.4610 C   0  0  0  0  0  0  0  0  0  0  0  0
  160.8360  202.0510  145.9180 O   0  0  0  0  0  0  0  0  0  0  0  0
  161.1960  203.1930  147.9520 C   0  0  0  0  0  2  0  0  0  0  0  0
  161.1400  200.8060  147.7900 F   0  0  0  0  0  0  0  0  0  0  0  0
  161.3670  201.8540  148.6660 C   0  0  2  0  0  3  0  0  0  0  0  0
  160.4560  201.7500  149.8830 C   0  0  0  0  0  2  0  0  0  0  0  0
  160.3990  204.2490  150.5600 C   0  0  0  0  0  1  0  0  0  0  0  0
  160.7520  202.8320  150.8700 C   0  0  0  0  0  0  0  0  0  0  0  0
  161.4240  202.5480  151.9840 C   0  0  0  0  0  2  0  0  0  0  0  0
  160.9150  210.3530  153.4560 O   0  0  0  0  0  0  0  0  0  0  0  0
  159.6930  213.4720  155.9840 C   0  0  0  0  0  0  0  0  0  0  0  0
  160.2600  212.2310  156.6130 C   0  0  0  0  0  2  0  0  0  0  0  0
  159.4130  213.5060  154.5740 N   0  0  0  0  0  0  0  0  0  0  0  0
  159.3830  214.4480  156.7180 O   0  0  0  0  0  0  0  0  0  0  0  0
  160.0780  212.5790  153.6630 C   0  0  0  0  0  2  0  0  0  0  0  0
  161.0400  211.3910  155.6040 C   0  0  0  0  0  2  0  0  0  0  0  0
  160.2360  211.2150  154.3210 C   0  0  2  0  0  3  0  0  0  0  0  0
  158.3970  214.4050  154.0430 C   0  0  0  0  0  2  0  0  0  0  0  0
  157.6140  213.7140  152.9750 C   0  0  0  0  0  0  0  0  0  0  0  0
  158.1180  212.7960  152.3490 O   0  0  0  0  0  0  0  0  0  0  0  0
  156.2150  214.1450  152.6830 C   0  0  0  0  0  2  0  0  0  0  0  0
  155.3940  214.1840  153.9620 C   0  0  0  0  0  2  0  0  0  0  0  0
  154.8870  212.8520  154.2520 N   0  0  0  0  0  2  0  0  0  0  0  0
  155.9490  212.1020  154.6350 O   0  0  0  0  0  0  0  0  0  0  0  0
  155.1170  210.9880  157.0400 O   0  0  0  0  0  0  0  0  0  0  0  0
  156.5730  213.1630  157.1260 O   0  0  0  0  0  0  0  0  0  0  0  0
  155.8780  212.0860  156.3270 P   0  0  0  0  0  0  0  0  0  0  0  0
  1  4  1  0  0  0  0
  2  8  1  6  0  0  0
  2  7  1  0  0  0  0
  2  3  1  0  0  0  0
  3 30  1  6  0  0  0
  3  1  1  0  0  0  0
  4  5  2  0  0  0  0
  6  5  1  0  0  0  0
  7  6  1  0  0  0  0
  9  8  1  0  0  0  0
 10  9  1  0  0  0  0
 11 12  2  0  0  0  0
 12 10  1  0  0  0  0
 13 18  1  0  0  0  0
 14 16  1  0  0  0  0
 15 14  1  0  0  0  0
 15 19  1  0  0  0  0
 16 18  1  0  0  0  0
 16 21  1  1  0  0  0
 17 20  2  0  0  0  0
 17 11  1  0  0  0  0
 18 17  1  0  0  0  0
 19 13  1  0  0  0  0
 21 23  1  0  0  0  0
 22 21  2  0  0  0  0
 23 25  1  0  0  0  0
 25 24  1  6  0  0  0
 25 26  1  0  0  0  0
 26 28  1  0  0  0  0
 27 28  1  0  0  0  0
 28 29  2  0  0  0  0
 31 32  1  0  0  0  0
 31 34  2  0  0  0  0
 33 31  1  0  0  0  0
 35 37  1  0  0  0  0
 35 33  1  0  0  0  0
 36 32  1  0  0  0  0
 37 30  1  6  0  0  0
 37 36  1  0  0  0  0
 38 33  1  0  0  0  0
 39 38  1  0  0  0  0
 40 39  2  0  0  0  0
 41 39  1  0  0  0  0
 41 42  1  0  0  0  0
 42 43  1  0  0  0  0
 43 44  1  0  0  0  0
 44 47  1  0  0  0  0
 47 45  2  0  0  0  0
 47 46  2  0  0  0  0
M  END
>  <MODEL>
8

>  <REMARK>
 VINA RESULT:      -4.2      3.069      4.687
  Name = 
  19 active torsions:
  status: ('A' for Active; 'I' for Inactive)
    1  A    between atoms: O_2  and  C_24
    2  A    between atoms: O_2  and  C_46
    3  A    between atoms: C_4  and  C_32
    4  A    between atoms: C_4  and  C_35
    5  A    between atoms: C_5  and  C_29
    6  A    between atoms: C_5  and  C_37
    7  A    between atoms: N_8  and  C_47
    8  A    between atoms: C_9  and  C_33
    9  A    between atoms: C_11  and  C_19
   10  A    between atoms: C_11  and  C_22
   11  A    between atoms: C_13  and  C_19
   12  A    between atoms: C_15  and  C_17
   13  A    between atoms: C_15  and  C_27
   14  A    between atoms: C_22  and  C_31
   15  A    between atoms: N_23  and  C_32
   16  A    between atoms: N_23  and  O_41
   17  A    between atoms: C_27  and  C_37
   18  A    between atoms: P_30  and  O_41
   19  A    between atoms: C_35  and  C_47
                            x       y       z     vdW  Elec       q    Type
                         _______ _______ _______ _____ _____    ______ ____

>  <TORSDO>
F 19

$$$$
=
 OpenBabel11072414493D

 47 49  0  0  1  0  0  0  0  0999 V2000
  162.5290  208.0040  151.4230 C   0  0  0  0  0  2  0  0  0  0  0  0
  160.8210  206.1450  151.7630 C   0  0  1  0  0  3  0  0  0  0  0  0
  161.3030  207.5470  152.2010 C   0  0  1  0  0  3  0  0  0  0  0  0
  162.0990  208.6990  150.1670 C   0  0  0  0  0  3  0  0  0  0  0  0
  161.2130  208.2070  149.2920 C   0  0  0  0  0  3  0  0  0  0  0  0
  160.5750  206.9250  149.4180 N   0  0  0  0  0  2  0  0  0  0  0  0
  161.0400  205.8420  150.2760 C   0  0  0  0  0  2  0  0  0  0  0  0
  161.3540  205.0040  152.6390 C   0  0  0  0  0  2  0  0  0  0  0  0
  162.2090  204.0090  151.8600 C   0  0  0  0  0  2  0  0  0  0  0  0
  161.4780  202.6870  151.6830 C   0  0  0  0  0  2  0  0  0  0  0  0
  160.5940  201.4820  149.7530 C   0  0  0  0  0  3  0  0  0  0  0  0
  160.8160  202.6450  150.3510 C   0  0  0  0  0  3  0  0  0  0  0  0
  161.9490  200.2790  147.4360 C   0  0  0  0  0  2  0  0  0  0  0  0
  160.0620  199.2240  145.5290 O   0  0  0  0  0  0  0  0  0  0  0  0
  161.4500  199.0190  145.3730 C   0  0  0  0  0  2  0  0  0  0  0  0
  159.8250  200.5030  146.0920 C   0  0  1  0  0  3  0  0  0  0  0  0
  159.9280  201.3930  148.4430 C   0  0  0  0  0  0  0  0  0  0  0  0
  160.5490  200.6900  147.3560 N   0  0  0  0  0  0  0  0  0  0  0  0
  162.1350  198.9470  146.7310 C   0  0  0  0  0  2  0  0  0  0  0  0
  158.7920  201.9200  148.2830 O   0  0  0  0  0  0  0  0  0  0  0  0
  160.0520  201.6300  145.1210 C   0  0  0  0  0  0  0  0  0  0  0  0
  159.3290  201.7690  144.1450 O   0  0  0  0  0  0  0  0  0  0  0  0
  161.1960  202.5710  145.3470 C   0  0  0  0  0  2  0  0  0  0  0  0
  161.1110  204.8070  144.4990 F   0  0  0  0  0  0  0  0  0  0  0  0
  160.7310  204.0090  145.5650 C   0  0  2  0  0  3  0  0  0  0  0  0
  161.2590  204.5730  146.8780 C   0  0  0  0  0  2  0  0  0  0  0  0
  163.8200  204.6950  146.5150 C   0  0  0  0  0  1  0  0  0  0  0  0
  162.5000  205.3760  146.6570 C   0  0  0  0  0  0  0  0  0  0  0  0
  162.4440  206.7060  146.6890 C   0  0  0  0  0  2  0  0  0  0  0  0
  161.5440  207.6100  153.5790 O   0  0  0  0  0  0  0  0  0  0  0  0
  159.7050  210.8280  155.5470 C   0  0  0  0  0  0  0  0  0  0  0  0
  159.4800  209.4460  156.0880 C   0  0  0  0  0  2  0  0  0  0  0  0
  160.3800  211.0140  154.2900 N   0  0  0  0  0  0  0  0  0  0  0  0
  159.2210  211.8160  156.1610 O   0  0  0  0  0  0  0  0  0  0  0  0
  161.2530  209.9720  153.7570 C   0  0  0  0  0  2  0  0  0  0  0  0
  160.5200  208.4570  155.5640 C   0  0  0  0  0  2  0  0  0  0  0  0
  160.6750  208.5950  154.0540 C   0  0  2  0  0  3  0  0  0  0  0  0
  160.1330  212.2040  153.4880 C   0  0  0  0  0  2  0  0  0  0  0  0
  158.9230  212.0020  152.6360 C   0  0  0  0  0  0  0  0  0  0  0  0
  158.2790  210.9690  152.7290 O   0  0  0  0  0  0  0  0  0  0  0  0
  158.5010  213.0670  151.6790 C   0  0  0  0  0  2  0  0  0  0  0  0
  159.7080  213.8570  151.1980 C   0  0  0  0  0  2  0  0  0  0  0  0
  159.9590  213.5530  149.7990 N   0  0  0  0  0  2  0  0  0  0  0  0
  160.7990  212.4900  149.7710 O   0  0  0  0  0  0  0  0  0  0  0  0
  160.9680  213.2560  147.1070 O   0  0  0  0  0  0  0  0  0  0  0  0
  163.0860  212.1940  148.2220 O   0  0  0  0  0  0  0  0  0  0  0  0
  161.6490  212.6510  148.3150 P   0  0  0  0  0  0  0  0  0  0  0  0
  1  3  1  0  0  0  0
  2  3  1  0  0  0  0
  2  8  1  1  0  0  0
  3 30  1  1  0  0  0
  4  1  1  0  0  0  0
  5  6  1  0  0  0  0
  5  4  2  0  0  0  0
  6  7  1  0  0  0  0
  7  2  1  0  0  0  0
  9  8  1  0  0  0  0
 10  9  1  0  0  0  0
 11 12  2  0  0  0  0
 12 10  1  0  0  0  0
 14 16  1  0  0  0  0
 15 14  1  0  0  0  0
 15 19  1  0  0  0  0
 16 21  1  6  0  0  0
 16 18  1  0  0  0  0
 17 11  1  0  0  0  0
 18 13  1  0  0  0  0
 18 17  1  0  0  0  0
 19 13  1  0  0  0  0
 20 17  2  0  0  0  0
 21 23  1  0  0  0  0
 22 21  2  0  0  0  0
 23 25  1  0  0  0  0
 25 24  1  6  0  0  0
 25 26  1  0  0  0  0
 27 28  1  0  0  0  0
 28 29  2  0  0  0  0
 28 26  1  0  0  0  0
 31 32  1  0  0  0  0
 31 34  2  0  0  0  0
 33 31  1  0  0  0  0
 35 37  1  0  0  0  0
 35 33  1  0  0  0  0
 36 32  1  0  0  0  0
 37 30  1  1  0  0  0
 37 36  1  0  0  0  0
 38 33  1  0  0  0  0
 39 40  2  0  0  0  0
 39 38  1  0  0  0  0
 41 39  1  0  0  0  0
 42 41  1  0  0  0  0
 43 42  1  0  0  0  0
 44 43  1  0  0  0  0
 45 47  2  0  0  0  0
 46 47  2  0  0  0  0
 47 44  1  0  0  0  0
M  END
>  <MODEL>
9

>  <REMARK>
 VINA RESULT:      -4.0      2.251      3.880
  Name = 
  19 active torsions:
  status: ('A' for Active; 'I' for Inactive)
    1  A    between atoms: O_2  and  C_24
    2  A    between atoms: O_2  and  C_46
    3  A    between atoms: C_4  and  C_32
    4  A    between atoms: C_4  and  C_35
    5  A    between atoms: C_5  and  C_29
    6  A    between atoms: C_5  and  C_37
    7  A    between atoms: N_8  and  C_47
    8  A    between atoms: C_9  and  C_33
    9  A    between atoms: C_11  and  C_19
   10  A    between atoms: C_11  and  C_22
   11  A    between atoms: C_13  and  C_19
   12  A    between atoms: C_15  and  C_17
   13  A    between atoms: C_15  and  C_27
   14  A    between atoms: C_22  and  C_31
   15  A    between atoms: N_23  and  C_32
   16  A    between atoms: N_23  and  O_41
   17  A    between atoms: C_27  and  C_37
   18  A    between atoms: P_30  and  O_41
   19  A    between atoms: C_35  and  C_47
                            x       y       z     vdW  Elec       q    Type
                         _______ _______ _______ _____ _____    ______ ____

>  <TORSDO>
F 19

$$$$
