=
 OpenBabel11072412533D

 41 45  0  0  1  0  0  0  0  0999 V2000
  161.2670  207.1770  150.6460 C   0  0  1  0  0  3  0  0  0  0  0  0
  161.9890  209.2890  150.4860 N   0  0  0  0  0  0  0  0  0  0  0  0
  161.8550  209.5050  152.8690 N   0  0  0  0  0  2  0  0  0  0  0  0
  162.3710  208.2060  147.5660 O   0  0  0  0  0  0  0  0  0  0  0  0
  161.1040  209.2370  151.6500 C   0  0  2  0  0  3  0  0  0  0  0  0
  159.8420  206.5500  147.5890 C   0  0  0  0  0  1  0  0  0  0  0  0
  161.0600  206.3310  148.4780 C   0  0  2  0  0  0  0  0  0  0  0  0
  160.6220  206.1700  149.8690 N   0  0  0  0  0  2  0  0  0  0  0  0
  161.9990  207.9800  149.9380 C   0  0  2  0  0  3  0  0  0  0  0  0
  160.6690  207.8580  151.7390 N   0  0  2  0  0  0  0  0  0  0  0  0
  161.4690  208.5300  153.8160 N   0  0  0  0  0  2  0  0  0  0  0  0
  161.9000  207.5750  148.5490 C   0  0  0  0  0  0  0  0  0  0  0  0
  160.8870  207.4070  153.0870 C   0  0  0  0  0  2  0  0  0  0  0  0
  161.1330  203.3440  146.6320 C   0  0  0  0  0  2  0  0  0  0  0  0
  161.8870  205.1050  148.0450 C   0  0  2  0  0  3  0  0  0  0  0  0
  161.6720  204.7420  146.5770 C   0  0  1  0  0  3  0  0  0  0  0  0
  161.5450  202.8800  148.0050 C   0  0  1  0  0  3  0  0  0  0  0  0
  161.5730  203.9960  148.8560 O   0  0  0  0  0  0  0  0  0  0  0  0
  162.9850  204.7950  145.7860 C   0  0  0  0  0  0  0  0  0  0  0  0
  163.0470  205.9620  145.0500 F   0  0  0  0  0  0  0  0  0  0  0  0
  163.0390  203.7210  144.9160 F   0  0  0  0  0  0  0  0  0  0  0  0
  164.0760  204.7450  146.6370 F   0  0  0  0  0  0  0  0  0  0  0  0
  160.5620  201.8410  148.5200 C   0  0  0  0  0  2  0  0  0  0  0  0
  161.0640  201.2140  149.8110 C   0  0  0  0  0  2  0  0  0  0  0  0
  160.4150  201.8370  150.9520 N   0  0  0  0  0  2  0  0  0  0  0  0
  160.8790  203.7600  152.3450 C   0  0  0  0  0  1  0  0  0  0  0  0
  161.4520  202.5110  151.7080 C   0  0  0  0  0  2  0  0  0  0  0  0
  162.2700  210.5080  149.7390 C   0  0  0  0  0  2  0  0  0  0  0  0
  161.4540  211.6660  150.2840 C   0  0  0  0  0  2  0  0  0  0  0  0
  160.9380  212.5160  149.1240 C   0  0  1  0  0  3  0  0  0  0  0  0
  157.6710  213.8870  149.8770 C   0  0  0  0  0  2  0  0  0  0  0  0
  160.0440  213.5870  149.6000 N   0  0  0  0  0  0  0  0  0  0  0  0
  159.7070  213.3520  151.0010 C   0  0  0  0  0  2  0  0  0  0  0  0
  158.7630  213.4750  148.9100 C   0  0  0  0  0  2  0  0  0  0  0  0
  158.3290  213.9240  151.2310 C   0  0  0  0  0  2  0  0  0  0  0  0
  162.2900  214.4490  148.5530 O   0  0  0  0  0  1  0  0  0  0  0  0
  162.1590  213.0670  148.3710 C   0  0  2  0  0  3  0  0  0  0  0  0
  162.1030  212.7240  146.8900 C   0  0  0  0  0  2  0  0  0  0  0  0
  161.0230  213.3760  146.2920 O   0  0  0  0  0  0  0  0  0  0  0  0
  161.3750  213.4840  144.9470 C   0  0  0  0  0  2  0  0  0  0  0  0
  162.8760  213.3360  144.8070 C   0  0  0  0  0  1  0  0  0  0  0  0
  1  8  1  6  0  0  0
  1 10  1  0  0  0  0
  2  5  1  0  0  0  0
  3 11  1  0  0  0  0
  4 12  2  0  0  0  0
  5 10  1  0  0  0  0
  5  3  1  1  0  0  0
  7  6  1  6  0  0  0
  7 12  1  0  0  0  0
  7  8  1  0  0  0  0
  9 12  1  6  0  0  0
  9  2  1  0  0  0  0
  9  1  1  0  0  0  0
 10 13  1  1  0  0  0
 13 11  1  0  0  0  0
 14 17  1  0  0  0  0
 15  7  1  0  0  0  0
 15 18  1  1  0  0  0
 16 19  1  6  0  0  0
 16 14  1  0  0  0  0
 16 15  1  0  0  0  0
 17 23  1  1  0  0  0
 17 18  1  0  0  0  0
 19 22  1  0  0  0  0
 20 19  1  0  0  0  0
 21 19  1  0  0  0  0
 23 24  1  0  0  0  0
 24 25  1  0  0  0  0
 25 27  1  0  0  0  0
 27 26  1  0  0  0  0
 28 29  1  0  0  0  0
 28  2  1  0  0  0  0
 30 32  1  0  0  0  0
 30 29  1  1  0  0  0
 31 35  1  0  0  0  0
 32 33  1  0  0  0  0
 33 35  1  0  0  0  0
 34 32  1  0  0  0  0
 34 31  1  0  0  0  0
 37 36  1  6  0  0  0
 37 30  1  0  0  0  0
 38 37  1  0  0  0  0
 39 38  1  0  0  0  0
 40 39  1  0  0  0  0
 41 40  1  0  0  0  0
M  END
>  <MODEL>
1

>  <REMARK>
 VINA RESULT:      -6.5      0.000      0.000
  Name = 
  14 active torsions:
  status: ('A' for Active; 'I' for Inactive)
    1  A    between atoms: C_2  and  C_30
    2  A    between atoms: C_2  and  C_37
    3  A    between atoms: N_3  and  C_35
    4  A    between atoms: C_4  and  O_14
    5  A    between atoms: C_4  and  C_39
    6  A    between atoms: C_9  and  C_16
    7  A    between atoms: C_9  and  C_35
    8  A    between atoms: C_12  and  C_23
    9  A    between atoms: O_14  and  C_15
   10  A    between atoms: C_16  and  N_20
   11  A    between atoms: C_16  and  C_39
   12  A    between atoms: C_18  and  C_19
   13  A    between atoms: C_25  and  N_27
   14  A    between atoms: N_27  and  C_37
                            x       y       z     vdW  Elec       q    Type
                         _______ _______ _______ _____ _____    ______ ____

>  <TORSDO>
F 14

$$$$
=
 OpenBabel11072412533D

 41 45  0  0  1  0  0  0  0  0999 V2000
  161.2510  206.9970  150.7630 C   0  0  1  0  0  3  0  0  0  0  0  0
  162.0620  209.0830  150.7990 N   0  0  0  0  0  0  0  0  0  0  0  0
  161.8090  209.1290  153.1820 N   0  0  0  0  0  2  0  0  0  0  0  0
  162.5570  208.2020  147.8290 O   0  0  0  0  0  0  0  0  0  0  0  0
  161.1150  208.9830  151.9110 C   0  0  2  0  0  3  0  0  0  0  0  0
  159.9670  206.6570  147.5990 C   0  0  0  0  0  1  0  0  0  0  0  0
  161.1270  206.3220  148.5300 C   0  0  2  0  0  0  0  0  0  0  0  0
  160.6100  206.0780  149.8800 N   0  0  0  0  0  2  0  0  0  0  0  0
  162.0500  207.8180  150.1560 C   0  0  2  0  0  3  0  0  0  0  0  0
  160.6220  207.6200  151.8730 N   0  0  2  0  0  0  0  0  0  0  0  0
  161.3360  208.1040  154.0330 N   0  0  0  0  0  2  0  0  0  0  0  0
  162.0100  207.5210  148.7360 C   0  0  0  0  0  0  0  0  0  0  0  0
  160.7510  207.0630  153.1920 C   0  0  0  0  0  2  0  0  0  0  0  0
  161.1300  203.3990  146.5830 C   0  0  0  0  0  2  0  0  0  0  0  0
  161.9280  205.0980  148.0480 C   0  0  2  0  0  3  0  0  0  0  0  0
  161.6930  204.7880  146.5700 C   0  0  1  0  0  3  0  0  0  0  0  0
  161.5470  202.8810  147.9360 C   0  0  1  0  0  3  0  0  0  0  0  0
  161.6020  203.9670  148.8230 O   0  0  0  0  0  0  0  0  0  0  0  0
  162.9990  204.8450  145.7690 C   0  0  0  0  0  0  0  0  0  0  0  0
  164.0820  204.8110  146.6250 F   0  0  0  0  0  0  0  0  0  0  0  0
  163.0430  206.0250  145.0490 F   0  0  0  0  0  0  0  0  0  0  0  0
  163.0890  203.7760  144.8930 F   0  0  0  0  0  0  0  0  0  0  0  0
  160.5500  201.8430  148.4260 C   0  0  0  0  0  2  0  0  0  0  0  0
  161.0610  201.1520  149.6790 C   0  0  0  0  0  2  0  0  0  0  0  0
  160.4130  201.7090  150.8540 N   0  0  0  0  0  2  0  0  0  0  0  0
  160.8400  203.5760  152.3350 C   0  0  0  0  0  1  0  0  0  0  0  0
  161.4430  202.3840  151.6200 C   0  0  0  0  0  2  0  0  0  0  0  0
  162.4290  210.3400  150.1620 C   0  0  0  0  0  2  0  0  0  0  0  0
  161.2030  211.0200  149.5810 C   0  0  0  0  0  2  0  0  0  0  0  0
  161.2890  212.5250  149.8310 C   0  0  1  0  0  3  0  0  0  0  0  0
  162.5880  213.0320  146.4870 C   0  0  0  0  0  2  0  0  0  0  0  0
  161.3950  213.2740  148.5660 N   0  0  0  0  0  0  0  0  0  0  0  0
  160.4920  212.6900  147.5780 C   0  0  0  0  0  2  0  0  0  0  0  0
  162.7210  213.0570  147.9970 C   0  0  0  0  0  2  0  0  0  0  0  0
  161.1090  212.9160  146.2190 C   0  0  0  0  0  2  0  0  0  0  0  0
  159.9590  214.3240  150.7710 O   0  0  0  0  0  1  0  0  0  0  0  0
  160.0520  212.9340  150.6480 C   0  0  2  0  0  3  0  0  0  0  0  0
  160.0450  212.2710  152.0170 C   0  0  0  0  0  2  0  0  0  0  0  0
  158.8150  211.6470  152.2350 O   0  0  0  0  0  0  0  0  0  0  0  0
  158.7520  211.4620  153.6160 C   0  0  0  0  0  2  0  0  0  0  0  0
  160.0080  212.0180  154.2550 C   0  0  0  0  0  1  0  0  0  0  0  0
  1  8  1  6  0  0  0
  1 10  1  0  0  0  0
  2  5  1  0  0  0  0
  3 11  1  0  0  0  0
  4 12  2  0  0  0  0
  5  3  1  1  0  0  0
  7  6  1  6  0  0  0
  7 12  1  0  0  0  0
  7  8  1  0  0  0  0
  9 12  1  6  0  0  0
  9  1  1  0  0  0  0
  9  2  1  0  0  0  0
 10  5  1  0  0  0  0
 10 13  1  1  0  0  0
 13 11  1  0  0  0  0
 14 17  1  0  0  0  0
 15  7  1  0  0  0  0
 15 18  1  1  0  0  0
 16 19  1  6  0  0  0
 16 14  1  0  0  0  0
 16 15  1  0  0  0  0
 17 23  1  1  0  0  0
 17 18  1  0  0  0  0
 19 20  1  0  0  0  0
 21 19  1  0  0  0  0
 22 19  1  0  0  0  0
 23 24  1  0  0  0  0
 24 25  1  0  0  0  0
 25 27  1  0  0  0  0
 27 26  1  0  0  0  0
 28  2  1  0  0  0  0
 29 28  1  0  0  0  0
 30 29  1  6  0  0  0
 30 37  1  0  0  0  0
 31 34  1  0  0  0  0
 32 30  1  0  0  0  0
 33 32  1  0  0  0  0
 34 32  1  0  0  0  0
 35 31  1  0  0  0  0
 35 33  1  0  0  0  0
 37 36  1  1  0  0  0
 37 38  1  0  0  0  0
 38 39  1  0  0  0  0
 39 40  1  0  0  0  0
 40 41  1  0  0  0  0
M  END
>  <MODEL>
2

>  <REMARK>
 VINA RESULT:      -6.5      1.412      3.125
  Name = 
  14 active torsions:
  status: ('A' for Active; 'I' for Inactive)
    1  A    between atoms: C_2  and  C_30
    2  A    between atoms: C_2  and  C_37
    3  A    between atoms: N_3  and  C_35
    4  A    between atoms: C_4  and  O_14
    5  A    between atoms: C_4  and  C_39
    6  A    between atoms: C_9  and  C_16
    7  A    between atoms: C_9  and  C_35
    8  A    between atoms: C_12  and  C_23
    9  A    between atoms: O_14  and  C_15
   10  A    between atoms: C_16  and  N_20
   11  A    between atoms: C_16  and  C_39
   12  A    between atoms: C_18  and  C_19
   13  A    between atoms: C_25  and  N_27
   14  A    between atoms: N_27  and  C_37
                            x       y       z     vdW  Elec       q    Type
                         _______ _______ _______ _____ _____    ______ ____

>  <TORSDO>
F 14

$$$$
=
 OpenBabel11072412533D

 41 45  0  0  1  0  0  0  0  0999 V2000
  161.5690  208.7170  150.4740 C   0  0  1  0  0  3  0  0  0  0  0  0
  160.8280  209.7350  152.3240 N   0  0  0  0  0  0  0  0  0  0  0  0
  160.9600  211.8490  151.2010 N   0  0  0  0  0  2  0  0  0  0  0  0
  160.4570  206.6970  153.0130 O   0  0  0  0  0  0  0  0  0  0  0  0
  161.7130  210.6860  151.6490 C   0  0  2  0  0  3  0  0  0  0  0  0
  163.0010  205.8230  151.6320 C   0  0  0  0  0  1  0  0  0  0  0  0
  161.7840  206.4410  150.9530 C   0  0  2  0  0  0  0  0  0  0  0  0
  162.2230  207.5190  150.0600 N   0  0  0  0  0  2  0  0  0  0  0  0
  160.8310  208.5610  151.5280 C   0  0  2  0  0  3  0  0  0  0  0  0
  162.1610  210.0080  150.4490 N   0  0  2  0  0  0  0  0  0  0  0  0
  161.3540  212.1100  149.8700 N   0  0  0  0  0  2  0  0  0  0  0  0
  160.9340  207.1770  151.9500 C   0  0  0  0  0  0  0  0  0  0  0  0
  161.9460  210.8880  149.3330 C   0  0  0  0  0  2  0  0  0  0  0  0
  161.8420  203.8680  148.5640 C   0  0  0  0  0  2  0  0  0  0  0  0
  160.9680  205.4040  150.1590 C   0  0  2  0  0  3  0  0  0  0  0  0
  161.6840  204.0590  150.0410 C   0  0  1  0  0  3  0  0  0  0  0  0
  160.8150  204.8110  147.9920 C   0  0  1  0  0  3  0  0  0  0  0  0
  160.6780  205.8960  148.8710 O   0  0  0  0  0  0  0  0  0  0  0  0
  160.8550  202.9260  150.6580 C   0  0  0  0  0  0  0  0  0  0  0  0
  161.5250  202.3820  151.7370 F   0  0  0  0  0  0  0  0  0  0  0  0
  160.6630  201.9340  149.7130 F   0  0  0  0  0  0  0  0  0  0  0  0
  159.6230  203.3900  151.0850 F   0  0  0  0  0  0  0  0  0  0  0  0
  161.2550  205.2890  146.6170 C   0  0  0  0  0  2  0  0  0  0  0  0
  161.8630  204.1490  145.8170 C   0  0  0  0  0  2  0  0  0  0  0  0
  160.8170  203.4020  145.1390 N   0  0  0  0  0  2  0  0  0  0  0  0
  159.9060  201.1750  144.8810 C   0  0  0  0  0  1  0  0  0  0  0  0
  160.8450  202.0560  145.6780 C   0  0  0  0  0  2  0  0  0  0  0  0
  160.5370  209.7760  153.7500 C   0  0  0  0  0  2  0  0  0  0  0  0
  161.3120  210.8960  154.4200 C   0  0  0  0  0  2  0  0  0  0  0  0
  160.3380  211.8420  155.1220 C   0  0  1  0  0  3  0  0  0  0  0  0
  156.7500  212.2530  155.3980 C   0  0  0  0  0  2  0  0  0  0  0  0
  158.9550  211.6260  154.6600 N   0  0  0  0  0  0  0  0  0  0  0  0
  158.5170  212.7830  153.8830 C   0  0  0  0  0  2  0  0  0  0  0  0
  158.0640  211.6260  155.8160 C   0  0  0  0  0  2  0  0  0  0  0  0
  157.0230  212.9050  154.0670 C   0  0  0  0  0  2  0  0  0  0  0  0
  161.1120  212.7190  157.2470 O   0  0  0  0  0  1  0  0  0  0  0  0
  160.4880  211.6260  156.6360 C   0  0  2  0  0  3  0  0  0  0  0  0
  161.2360  210.3380  156.9450 C   0  0  0  0  0  2  0  0  0  0  0  0
  160.3270  209.3260  157.2600 O   0  0  0  0  0  0  0  0  0  0  0  0
  161.0120  208.1410  156.9950 C   0  0  0  0  0  2  0  0  0  0  0  0
  160.0400  207.1050  156.4680 C   0  0  0  0  0  1  0  0  0  0  0  0
  1  8  1  1  0  0  0
  1  9  1  0  0  0  0
  2 28  1  0  0  0  0
  5  3  1  6  0  0  0
  5  2  1  0  0  0  0
  7  6  1  1  0  0  0
  7 12  1  0  0  0  0
  8  7  1  0  0  0  0
  9 12  1  1  0  0  0
  9  2  1  0  0  0  0
 10 13  1  6  0  0  0
 10  1  1  0  0  0  0
 10  5  1  0  0  0  0
 11  3  1  0  0  0  0
 12  4  2  0  0  0  0
 13 11  1  0  0  0  0
 14 16  1  0  0  0  0
 15 18  1  6  0  0  0
 15  7  1  0  0  0  0
 16 15  1  0  0  0  0
 16 19  1  6  0  0  0
 17 23  1  6  0  0  0
 17 14  1  0  0  0  0
 17 18  1  0  0  0  0
 19 22  1  0  0  0  0
 19 20  1  0  0  0  0
 21 19  1  0  0  0  0
 24 23  1  0  0  0  0
 25 27  1  0  0  0  0
 25 24  1  0  0  0  0
 26 27  1  0  0  0  0
 28 29  1  0  0  0  0
 30 29  1  6  0  0  0
 30 37  1  0  0  0  0
 31 34  1  0  0  0  0
 32 30  1  0  0  0  0
 32 34  1  0  0  0  0
 33 35  1  0  0  0  0
 33 32  1  0  0  0  0
 35 31  1  0  0  0  0
 37 38  1  0  0  0  0
 37 36  1  6  0  0  0
 38 39  1  0  0  0  0
 40 39  1  0  0  0  0
 41 40  1  0  0  0  0
M  END
>  <MODEL>
3

>  <REMARK>
 VINA RESULT:      -6.3      3.839      6.075
  Name = 
  14 active torsions:
  status: ('A' for Active; 'I' for Inactive)
    1  A    between atoms: C_2  and  C_30
    2  A    between atoms: C_2  and  C_37
    3  A    between atoms: N_3  and  C_35
    4  A    between atoms: C_4  and  O_14
    5  A    between atoms: C_4  and  C_39
    6  A    between atoms: C_9  and  C_16
    7  A    between atoms: C_9  and  C_35
    8  A    between atoms: C_12  and  C_23
    9  A    between atoms: O_14  and  C_15
   10  A    between atoms: C_16  and  N_20
   11  A    between atoms: C_16  and  C_39
   12  A    between atoms: C_18  and  C_19
   13  A    between atoms: C_25  and  N_27
   14  A    between atoms: N_27  and  C_37
                            x       y       z     vdW  Elec       q    Type
                         _______ _______ _______ _____ _____    ______ ____

>  <TORSDO>
F 14

$$$$
=
 OpenBabel11072412533D

 41 45  0  0  1  0  0  0  0  0999 V2000
  161.7150  208.7600  150.2040 C   0  0  1  0  0  3  0  0  0  0  0  0
  161.0240  210.0170  151.9220 N   0  0  0  0  0  0  0  0  0  0  0  0
  161.2190  211.9760  150.5540 N   0  0  0  0  0  2  0  0  0  0  0  0
  160.5550  207.0970  152.9700 O   0  0  0  0  0  0  0  0  0  0  0  0
  161.9350  210.8490  151.1350 C   0  0  2  0  0  3  0  0  0  0  0  0
  163.0570  205.9770  151.6940 C   0  0  0  0  0  1  0  0  0  0  0  0
  161.8560  206.5520  150.9510 C   0  0  2  0  0  0  0  0  0  0  0  0
  162.3240  207.5000  149.9340 N   0  0  0  0  0  2  0  0  0  0  0  0
  160.9800  208.7560  151.2710 C   0  0  2  0  0  3  0  0  0  0  0  0
  162.3500  210.0180  150.0230 N   0  0  2  0  0  0  0  0  0  0  0  0
  161.6110  212.0630  149.1990 N   0  0  0  0  0  2  0  0  0  0  0  0
  161.0390  207.4300  151.8560 C   0  0  0  0  0  0  0  0  0  0  0  0
  162.1570  210.7650  148.8110 C   0  0  0  0  0  2  0  0  0  0  0  0
  161.8060  203.7220  148.8710 C   0  0  0  0  0  2  0  0  0  0  0  0
  160.9990  205.4560  150.2890 C   0  0  2  0  0  3  0  0  0  0  0  0
  161.6740  204.0860  150.3190 C   0  0  1  0  0  3  0  0  0  0  0  0
  160.7990  204.6250  148.2060 C   0  0  1  0  0  3  0  0  0  0  0  0
  160.7060  205.8070  148.9560 O   0  0  0  0  0  0  0  0  0  0  0  0
  160.8210  203.0560  151.0700 C   0  0  0  0  0  0  0  0  0  0  0  0
  160.2570  202.1660  150.1760 F   0  0  0  0  0  0  0  0  0  0  0  0
  159.8040  203.7070  151.7430 F   0  0  0  0  0  0  0  0  0  0  0  0
  161.5880  202.3480  151.9800 F   0  0  0  0  0  0  0  0  0  0  0  0
  161.2340  204.9290  146.7810 C   0  0  0  0  0  2  0  0  0  0  0  0
  161.5780  203.6490  146.0360 C   0  0  0  0  0  2  0  0  0  0  0  0
  160.4580  203.2380  145.2080 N   0  0  0  0  0  2  0  0  0  0  0  0
  160.6560  201.2950  146.6380 C   0  0  0  0  0  1  0  0  0  0  0  0
  160.4360  201.7880  145.2230 C   0  0  0  0  0  2  0  0  0  0  0  0
  160.7450  210.2380  153.3340 C   0  0  0  0  0  2  0  0  0  0  0  0
  159.3760  210.8680  153.5150 C   0  0  0  0  0  2  0  0  0  0  0  0
  159.5370  212.3520  153.8390 C   0  0  1  0  0  3  0  0  0  0  0  0
  158.7130  214.4530  151.0060 C   0  0  0  0  0  2  0  0  0  0  0  0
  158.6100  213.1790  153.0460 N   0  0  0  0  0  0  0  0  0  0  0  0
  158.0430  212.3740  151.9680 C   0  0  0  0  0  2  0  0  0  0  0  0
  159.3710  214.2100  152.3490 C   0  0  0  0  0  2  0  0  0  0  0  0
  157.7510  213.3090  150.8190 C   0  0  0  0  0  2  0  0  0  0  0  0
  160.4220  212.0480  156.0790 O   0  0  0  0  0  1  0  0  0  0  0  0
  159.3250  212.5250  155.3520 C   0  0  2  0  0  3  0  0  0  0  0  0
  158.0410  211.8540  155.8150 C   0  0  0  0  0  2  0  0  0  0  0  0
  157.1330  212.8190  156.2540 O   0  0  0  0  0  0  0  0  0  0  0  0
  155.8780  212.2680  155.9950 C   0  0  0  0  0  2  0  0  0  0  0  0
  156.0340  211.0690  155.0820 C   0  0  0  0  0  1  0  0  0  0  0  0
  1  8  1  1  0  0  0
  1  9  1  0  0  0  0
  2 28  1  0  0  0  0
  5  3  1  6  0  0  0
  5  2  1  0  0  0  0
  7  6  1  1  0  0  0
  7 12  1  0  0  0  0
  8  7  1  0  0  0  0
  9 12  1  1  0  0  0
  9  2  1  0  0  0  0
 10 13  1  6  0  0  0
 10  1  1  0  0  0  0
 10  5  1  0  0  0  0
 11  3  1  0  0  0  0
 12  4  2  0  0  0  0
 13 11  1  0  0  0  0
 14 16  1  0  0  0  0
 15 18  1  6  0  0  0
 15 16  1  0  0  0  0
 15  7  1  0  0  0  0
 16 19  1  1  0  0  0
 17 23  1  6  0  0  0
 17 14  1  0  0  0  0
 17 18  1  0  0  0  0
 19 21  1  0  0  0  0
 19 22  1  0  0  0  0
 20 19  1  0  0  0  0
 24 23  1  0  0  0  0
 25 27  1  0  0  0  0
 25 24  1  0  0  0  0
 27 26  1  0  0  0  0
 28 29  1  0  0  0  0
 30 29  1  6  0  0  0
 30 37  1  0  0  0  0
 31 34  1  0  0  0  0
 32 30  1  0  0  0  0
 33 32  1  0  0  0  0
 34 32  1  0  0  0  0
 35 31  1  0  0  0  0
 35 33  1  0  0  0  0
 37 38  1  0  0  0  0
 37 36  1  1  0  0  0
 38 39  1  0  0  0  0
 40 39  1  0  0  0  0
 41 40  1  0  0  0  0
M  END
>  <MODEL>
4

>  <REMARK>
 VINA RESULT:      -5.8      3.607      5.603
  Name = 
  14 active torsions:
  status: ('A' for Active; 'I' for Inactive)
    1  A    between atoms: C_2  and  C_30
    2  A    between atoms: C_2  and  C_37
    3  A    between atoms: N_3  and  C_35
    4  A    between atoms: C_4  and  O_14
    5  A    between atoms: C_4  and  C_39
    6  A    between atoms: C_9  and  C_16
    7  A    between atoms: C_9  and  C_35
    8  A    between atoms: C_12  and  C_23
    9  A    between atoms: O_14  and  C_15
   10  A    between atoms: C_16  and  N_20
   11  A    between atoms: C_16  and  C_39
   12  A    between atoms: C_18  and  C_19
   13  A    between atoms: C_25  and  N_27
   14  A    between atoms: N_27  and  C_37
                            x       y       z     vdW  Elec       q    Type
                         _______ _______ _______ _____ _____    ______ ____

>  <TORSDO>
F 14

$$$$
=
 OpenBabel11072412533D

 41 45  0  0  1  0  0  0  0  0999 V2000
  161.1970  206.5120  151.0220 C   0  0  1  0  0  3  0  0  0  0  0  0
  161.8940  208.6280  151.2390 N   0  0  0  0  0  0  0  0  0  0  0  0
  161.7240  208.4280  153.6220 N   0  0  0  0  0  2  0  0  0  0  0  0
  162.3290  208.0680  148.1830 O   0  0  0  0  0  0  0  0  0  0  0  0
  160.9940  208.3660  152.3640 C   0  0  2  0  0  3  0  0  0  0  0  0
  159.8210  206.4060  147.8810 C   0  0  0  0  0  1  0  0  0  0  0  0
  161.0300  206.0500  148.7380 C   0  0  2  0  0  0  0  0  0  0  0  0
  160.5760  205.6470  150.0730 N   0  0  0  0  0  2  0  0  0  0  0  0
  161.9270  207.4320  150.4750 C   0  0  2  0  0  3  0  0  0  0  0  0
  160.5750  206.9870  152.2070 N   0  0  2  0  0  0  0  0  0  0  0  0
  161.3380  207.3000  154.3810 N   0  0  0  0  0  2  0  0  0  0  0  0
  161.8530  207.2730  149.0350 C   0  0  0  0  0  0  0  0  0  0  0  0
  160.7810  206.3140  153.4600 C   0  0  0  0  0  2  0  0  0  0  0  0
  161.1120  203.3060  146.5470 C   0  0  0  0  0  2  0  0  0  0  0  0
  161.8790  204.9260  148.1130 C   0  0  2  0  0  3  0  0  0  0  0  0
  161.5850  204.7260  146.6270 C   0  0  1  0  0  3  0  0  0  0  0  0
  161.6310  202.7070  147.8280 C   0  0  1  0  0  3  0  0  0  0  0  0
  161.6670  203.7160  148.8030 O   0  0  0  0  0  0  0  0  0  0  0  0
  162.8400  204.9370  145.7720 C   0  0  0  0  0  0  0  0  0  0  0  0
  162.7810  206.1640  145.1390 F   0  0  0  0  0  0  0  0  0  0  0  0
  162.9090  203.9470  144.8090 F   0  0  0  0  0  0  0  0  0  0  0  0
  163.9830  204.8920  146.5520 F   0  0  0  0  0  0  0  0  0  0  0  0
  160.7290  201.5660  148.2730 C   0  0  0  0  0  2  0  0  0  0  0  0
  160.2630  201.7740  149.7050 C   0  0  0  0  0  2  0  0  0  0  0  0
  161.0980  201.0110  150.6170 N   0  0  0  0  0  2  0  0  0  0  0  0
  160.6950  202.9090  152.0640 C   0  0  0  0  0  1  0  0  0  0  0  0
  161.7390  201.9690  151.4980 C   0  0  0  0  0  2  0  0  0  0  0  0
  162.1680  209.9600  150.7180 C   0  0  0  0  0  2  0  0  0  0  0  0
  161.8130  211.0180  151.7470 C   0  0  0  0  0  2  0  0  0  0  0  0
  160.5690  211.7770  151.2890 C   0  0  1  0  0  3  0  0  0  0  0  0
  158.0570  211.4270  153.8760 C   0  0  0  0  0  2  0  0  0  0  0  0
  159.7910  212.2770  152.4370 N   0  0  0  0  0  0  0  0  0  0  0  0
  160.4050  211.8120  153.6780 C   0  0  0  0  0  2  0  0  0  0  0  0
  158.4800  211.6370  152.4360 C   0  0  0  0  0  2  0  0  0  0  0  0
  159.2990  211.6650  154.6950 C   0  0  0  0  0  2  0  0  0  0  0  0
  160.2440  214.0560  150.5220 O   0  0  0  0  0  1  0  0  0  0  0  0
  161.0300  212.9100  150.3590 C   0  0  2  0  0  3  0  0  0  0  0  0
  161.0400  212.4690  148.9030 C   0  0  0  0  0  2  0  0  0  0  0  0
  161.7270  213.4060  148.1280 O   0  0  0  0  0  0  0  0  0  0  0  0
  160.8970  213.6310  147.0300 C   0  0  0  0  0  2  0  0  0  0  0  0
  160.1020  212.3760  146.7350 C   0  0  0  0  0  1  0  0  0  0  0  0
  1  8  1  6  0  0  0
  1 10  1  0  0  0  0
  2  5  1  0  0  0  0
  3 11  1  0  0  0  0
  4 12  2  0  0  0  0
  5  3  1  1  0  0  0
  7  6  1  6  0  0  0
  7 12  1  0  0  0  0
  7  8  1  0  0  0  0
  9 12  1  6  0  0  0
  9  1  1  0  0  0  0
  9  2  1  0  0  0  0
 10  5  1  0  0  0  0
 10 13  1  1  0  0  0
 13 11  1  0  0  0  0
 14 16  1  0  0  0  0
 14 17  1  0  0  0  0
 15  7  1  0  0  0  0
 15 18  1  1  0  0  0
 16 19  1  6  0  0  0
 16 15  1  0  0  0  0
 17 23  1  1  0  0  0
 17 18  1  0  0  0  0
 19 22  1  0  0  0  0
 20 19  1  0  0  0  0
 21 19  1  0  0  0  0
 23 24  1  0  0  0  0
 24 25  1  0  0  0  0
 25 27  1  0  0  0  0
 27 26  1  0  0  0  0
 28  2  1  0  0  0  0
 28 29  1  0  0  0  0
 30 29  1  1  0  0  0
 30 32  1  0  0  0  0
 31 35  1  0  0  0  0
 32 33  1  0  0  0  0
 33 35  1  0  0  0  0
 34 32  1  0  0  0  0
 34 31  1  0  0  0  0
 37 36  1  6  0  0  0
 37 30  1  0  0  0  0
 38 37  1  0  0  0  0
 39 38  1  0  0  0  0
 40 39  1  0  0  0  0
 41 40  1  0  0  0  0
M  END
>  <MODEL>
5

>  <REMARK>
 VINA RESULT:      -5.7      1.508      1.846
  Name = 
  14 active torsions:
  status: ('A' for Active; 'I' for Inactive)
    1  A    between atoms: C_2  and  C_30
    2  A    between atoms: C_2  and  C_37
    3  A    between atoms: N_3  and  C_35
    4  A    between atoms: C_4  and  O_14
    5  A    between atoms: C_4  and  C_39
    6  A    between atoms: C_9  and  C_16
    7  A    between atoms: C_9  and  C_35
    8  A    between atoms: C_12  and  C_23
    9  A    between atoms: O_14  and  C_15
   10  A    between atoms: C_16  and  N_20
   11  A    between atoms: C_16  and  C_39
   12  A    between atoms: C_18  and  C_19
   13  A    between atoms: C_25  and  N_27
   14  A    between atoms: N_27  and  C_37
                            x       y       z     vdW  Elec       q    Type
                         _______ _______ _______ _____ _____    ______ ____

>  <TORSDO>
F 14

$$$$
=
 OpenBabel11072412533D

 41 45  0  0  1  0  0  0  0  0999 V2000
  160.3600  212.6390  150.3150 C   0  0  1  0  0  3  0  0  0  0  0  0
  161.2740  210.6540  150.7990 N   0  0  0  0  0  0  0  0  0  0  0  0
  159.9520  210.5430  152.7950 N   0  0  0  0  0  2  0  0  0  0  0  0
  162.3180  211.2050  147.8920 O   0  0  0  0  0  0  0  0  0  0  0  0
  160.9700  211.2980  152.0780 C   0  0  2  0  0  3  0  0  0  0  0  0
  162.6990  214.1730  148.3290 C   0  0  0  0  0  1  0  0  0  0  0  0
  161.3690  213.4290  148.3620 C   0  0  2  0  0  0  0  0  0  0  0  0
  160.6240  213.8220  149.5630 N   0  0  0  0  0  2  0  0  0  0  0  0
  160.8780  211.5730  149.7920 C   0  0  2  0  0  3  0  0  0  0  0  0
  160.3640  212.5680  151.7340 N   0  0  2  0  0  0  0  0  0  0  0  0
  159.0020  211.4760  153.2700 N   0  0  0  0  0  2  0  0  0  0  0  0
  161.5850  211.9590  148.5860 C   0  0  0  0  0  0  0  0  0  0  0  0
  159.1380  212.6930  152.4740 C   0  0  0  0  0  2  0  0  0  0  0  0
  160.0890  212.1470  145.3530 C   0  0  0  0  0  2  0  0  0  0  0  0
  160.5170  213.6990  147.1080 C   0  0  2  0  0  3  0  0  0  0  0  0
  159.6320  212.5110  146.7330 C   0  0  1  0  0  3  0  0  0  0  0  0
  160.7930  213.3980  144.8930 C   0  0  1  0  0  3  0  0  0  0  0  0
  161.3470  214.0290  146.0180 O   0  0  0  0  0  0  0  0  0  0  0  0
  158.1470  212.8920  146.7380 C   0  0  0  0  0  0  0  0  0  0  0  0
  157.4970  212.2530  147.7760 F   0  0  0  0  0  0  0  0  0  0  0  0
  157.5680  212.4970  145.5450 F   0  0  0  0  0  0  0  0  0  0  0  0
  157.9880  214.2600  146.8870 F   0  0  0  0  0  0  0  0  0  0  0  0
  161.8800  213.0460  143.8900 C   0  0  0  0  0  2  0  0  0  0  0  0
  161.3190  212.1960  142.7620 C   0  0  0  0  0  2  0  0  0  0  0  0
  162.3550  211.9240  141.7800 N   0  0  0  0  0  2  0  0  0  0  0  0
  162.7630  210.8470  139.6520 C   0  0  0  0  0  1  0  0  0  0  0  0
  161.7510  211.1030  140.7490 C   0  0  0  0  0  2  0  0  0  0  0  0
  162.2890  209.6230  150.6360 C   0  0  0  0  0  2  0  0  0  0  0  0
  161.9340  208.3930  151.4520 C   0  0  0  0  0  2  0  0  0  0  0  0
  161.9880  207.1550  150.5590 C   0  0  1  0  0  3  0  0  0  0  0  0
  161.3230  203.7690  151.6610 C   0  0  0  0  0  2  0  0  0  0  0  0
  161.1010  206.0910  151.0620 N   0  0  0  0  0  0  0  0  0  0  0  0
  161.2300  205.9970  152.5140 C   0  0  0  0  0  2  0  0  0  0  0  0
  161.5900  204.8010  150.5840 C   0  0  0  0  0  2  0  0  0  0  0  0
  160.9670  204.5600  152.8930 C   0  0  0  0  0  2  0  0  0  0  0  0
  160.3500  207.1390  148.7690 O   0  0  0  0  0  1  0  0  0  0  0  0
  161.6220  207.5930  149.1320 C   0  0  2  0  0  3  0  0  0  0  0  0
  162.6640  207.1350  148.1220 C   0  0  0  0  0  2  0  0  0  0  0  0
  162.0320  206.5920  147.0020 O   0  0  0  0  0  0  0  0  0  0  0  0
  162.7160  205.4030  146.7520 C   0  0  0  0  0  2  0  0  0  0  0  0
  161.9620  204.5960  145.7160 C   0  0  0  0  0  1  0  0  0  0  0  0
  1  8  1  1  0  0  0
  1 10  1  0  0  0  0
  2  5  1  0  0  0  0
  3 11  1  0  0  0  0
  4 12  2  0  0  0  0
  5  3  1  1  0  0  0
  7  6  1  6  0  0  0
  7 12  1  0  0  0  0
  7  8  1  0  0  0  0
  9 12  1  1  0  0  0
  9  1  1  0  0  0  0
  9  2  1  0  0  0  0
 10  5  1  0  0  0  0
 10 13  1  6  0  0  0
 13 11  1  0  0  0  0
 14 16  1  0  0  0  0
 15 18  1  6  0  0  0
 15  7  1  0  0  0  0
 16 19  1  6  0  0  0
 16 15  1  0  0  0  0
 17 23  1  6  0  0  0
 17 14  1  0  0  0  0
 17 18  1  0  0  0  0
 19 22  1  0  0  0  0
 19 20  1  0  0  0  0
 21 19  1  0  0  0  0
 24 23  1  0  0  0  0
 25 24  1  0  0  0  0
 26 27  1  0  0  0  0
 27 25  1  0  0  0  0
 28  2  1  0  0  0  0
 28 29  1  0  0  0  0
 30 32  1  0  0  0  0
 30 29  1  1  0  0  0
 31 35  1  0  0  0  0
 32 33  1  0  0  0  0
 33 35  1  0  0  0  0
 34 32  1  0  0  0  0
 34 31  1  0  0  0  0
 37 36  1  6  0  0  0
 37 30  1  0  0  0  0
 38 37  1  0  0  0  0
 39 38  1  0  0  0  0
 40 39  1  0  0  0  0
 41 40  1  0  0  0  0
M  END
>  <MODEL>
6

>  <REMARK>
 VINA RESULT:      -5.5      3.402      8.388
  Name = 
  14 active torsions:
  status: ('A' for Active; 'I' for Inactive)
    1  A    between atoms: C_2  and  C_30
    2  A    between atoms: C_2  and  C_37
    3  A    between atoms: N_3  and  C_35
    4  A    between atoms: C_4  and  O_14
    5  A    between atoms: C_4  and  C_39
    6  A    between atoms: C_9  and  C_16
    7  A    between atoms: C_9  and  C_35
    8  A    between atoms: C_12  and  C_23
    9  A    between atoms: O_14  and  C_15
   10  A    between atoms: C_16  and  N_20
   11  A    between atoms: C_16  and  C_39
   12  A    between atoms: C_18  and  C_19
   13  A    between atoms: C_25  and  N_27
   14  A    between atoms: N_27  and  C_37
                            x       y       z     vdW  Elec       q    Type
                         _______ _______ _______ _____ _____    ______ ____

>  <TORSDO>
F 14

$$$$
=
 OpenBabel11072412533D

 41 45  0  0  1  0  0  0  0  0999 V2000
  161.1710  207.2040  152.5020 C   0  0  1  0  0  3  0  0  0  0  0  0
  161.7210  206.3680  150.5000 N   0  0  0  0  0  0  0  0  0  0  0  0
  161.4490  204.1490  151.3630 N   0  0  0  0  0  2  0  0  0  0  0  0
  161.4440  209.4380  149.9140 O   0  0  0  0  0  0  0  0  0  0  0  0
  162.1800  205.4010  151.4970 C   0  0  2  0  0  3  0  0  0  0  0  0
  162.6520  210.2980  152.5500 C   0  0  0  0  0  1  0  0  0  0  0  0
  161.3470  209.5300  152.3740 C   0  0  2  0  0  0  0  0  0  0  0  0
  161.3330  208.3830  153.2880 N   0  0  0  0  0  2  0  0  0  0  0  0
  161.1380  207.4380  151.2270 C   0  0  2  0  0  3  0  0  0  0  0  0
  161.7940  205.9580  152.7780 N   0  0  2  0  0  0  0  0  0  0  0  0
  161.0570  203.7560  152.6620 N   0  0  0  0  0  2  0  0  0  0  0  0
  161.2950  208.8660  151.0260 C   0  0  0  0  0  0  0  0  0  0  0  0
  161.0970  204.9400  153.5150 C   0  0  0  0  0  2  0  0  0  0  0  0
  159.9940  212.2530  154.1310 C   0  0  0  0  0  2  0  0  0  0  0  0
  160.1100  210.4130  152.6250 C   0  0  2  0  0  3  0  0  0  0  0  0
  160.4640  211.8940  152.7540 C   0  0  1  0  0  3  0  0  0  0  0  0
  159.0180  211.1510  154.4510 C   0  0  1  0  0  3  0  0  0  0  0  0
  159.4370  209.9870  153.7870 O   0  0  0  0  0  0  0  0  0  0  0  0
  159.7480  212.7370  151.6920 C   0  0  0  0  0  0  0  0  0  0  0  0
  160.3920  212.6130  150.4760 F   0  0  0  0  0  0  0  0  0  0  0  0
  159.7720  214.0670  152.0700 F   0  0  0  0  0  0  0  0  0  0  0  0
  158.4320  212.3310  151.5430 F   0  0  0  0  0  0  0  0  0  0  0  0
  158.9660  210.9190  155.9530 C   0  0  0  0  0  2  0  0  0  0  0  0
  160.3440  211.0830  156.5730 C   0  0  0  0  0  2  0  0  0  0  0  0
  161.0450  209.8100  156.5710 N   0  0  0  0  0  2  0  0  0  0  0  0
  160.7060  207.4330  156.8720 C   0  0  0  0  0  1  0  0  0  0  0  0
  160.1050  208.8120  157.0440 C   0  0  0  0  0  2  0  0  0  0  0  0
  162.2870  206.4790  149.1620 C   0  0  0  0  0  2  0  0  0  0  0  0
  161.4130  205.7560  148.1530 C   0  0  0  0  0  2  0  0  0  0  0  0
  162.0570  204.4200  147.7870 C   0  0  1  0  0  3  0  0  0  0  0  0
  161.1040  200.9250  147.7590 C   0  0  0  0  0  2  0  0  0  0  0  0
  161.0620  203.3330  147.7620 N   0  0  0  0  0  0  0  0  0  0  0  0
  160.8210  202.8630  149.1240 C   0  0  0  0  0  2  0  0  0  0  0  0
  161.6420  202.1740  147.0910 C   0  0  0  0  0  2  0  0  0  0  0  0
  160.4570  201.4010  149.0340 C   0  0  0  0  0  2  0  0  0  0  0  0
  164.1480  204.6960  146.5860 O   0  0  0  0  0  1  0  0  0  0  0  0
  162.7610  204.5980  146.4320 C   0  0  2  0  0  3  0  0  0  0  0  0
  162.2180  205.8000  145.6740 C   0  0  0  0  0  2  0  0  0  0  0  0
  161.9680  205.4510  144.3460 O   0  0  0  0  0  0  0  0  0  0  0  0
  160.5850  205.2890  144.2770 C   0  0  0  0  0  2  0  0  0  0  0  0
  159.9230  206.1760  145.3120 C   0  0  0  0  0  1  0  0  0  0  0  0
  1 10  1  0  0  0  0
  1  8  1  1  0  0  0
  2  9  1  0  0  0  0
  2  5  1  0  0  0  0
  3 11  1  0  0  0  0
  4 12  2  0  0  0  0
  5  3  1  6  0  0  0
  5 10  1  0  0  0  0
  7  6  1  1  0  0  0
  7 15  1  0  0  0  0
  7  8  1  0  0  0  0
  9 12  1  1  0  0  0
  9  1  1  0  0  0  0
 10 13  1  6  0  0  0
 11 13  1  0  0  0  0
 12  7  1  0  0  0  0
 14 17  1  0  0  0  0
 15 16  1  0  0  0  0
 15 18  1  1  0  0  0
 16 19  1  6  0  0  0
 16 14  1  0  0  0  0
 17 23  1  1  0  0  0
 18 17  1  0  0  0  0
 19 21  1  0  0  0  0
 20 19  1  0  0  0  0
 22 19  1  0  0  0  0
 23 24  1  0  0  0  0
 25 24  1  0  0  0  0
 25 27  1  0  0  0  0
 26 27  1  0  0  0  0
 28  2  1  0  0  0  0
 29 28  1  0  0  0  0
 30 29  1  6  0  0  0
 31 35  1  0  0  0  0
 32 30  1  0  0  0  0
 32 33  1  0  0  0  0
 34 31  1  0  0  0  0
 34 32  1  0  0  0  0
 35 33  1  0  0  0  0
 37 36  1  1  0  0  0
 37 30  1  0  0  0  0
 38 37  1  0  0  0  0
 39 38  1  0  0  0  0
 40 39  1  0  0  0  0
 40 41  1  0  0  0  0
M  END
>  <MODEL>
7

>  <REMARK>
 VINA RESULT:      -5.5      3.980      8.384
  Name = 
  14 active torsions:
  status: ('A' for Active; 'I' for Inactive)
    1  A    between atoms: C_2  and  C_30
    2  A    between atoms: C_2  and  C_37
    3  A    between atoms: N_3  and  C_35
    4  A    between atoms: C_4  and  O_14
    5  A    between atoms: C_4  and  C_39
    6  A    between atoms: C_9  and  C_16
    7  A    between atoms: C_9  and  C_35
    8  A    between atoms: C_12  and  C_23
    9  A    between atoms: O_14  and  C_15
   10  A    between atoms: C_16  and  N_20
   11  A    between atoms: C_16  and  C_39
   12  A    between atoms: C_18  and  C_19
   13  A    between atoms: C_25  and  N_27
   14  A    between atoms: N_27  and  C_37
                            x       y       z     vdW  Elec       q    Type
                         _______ _______ _______ _____ _____    ______ ____

>  <TORSDO>
F 14

$$$$
=
 OpenBabel11072412533D

 41 45  0  0  1  0  0  0  0  0999 V2000
  160.1740  212.9580  150.2200 C   0  0  1  0  0  3  0  0  0  0  0  0
  161.0970  211.0420  150.9170 N   0  0  0  0  0  0  0  0  0  0  0  0
  159.5870  211.0050  152.7790 N   0  0  0  0  0  2  0  0  0  0  0  0
  162.4060  211.4520  148.0950 O   0  0  0  0  0  0  0  0  0  0  0  0
  160.6480  211.7510  152.1160 C   0  0  2  0  0  3  0  0  0  0  0  0
  162.6500  214.4530  148.3740 C   0  0  0  0  0  1  0  0  0  0  0  0
  161.3470  213.6640  148.3270 C   0  0  2  0  0  0  0  0  0  0  0  0
  160.4750  214.1020  149.4220 N   0  0  0  0  0  2  0  0  0  0  0  0
  160.7740  211.8820  149.8190 C   0  0  2  0  0  3  0  0  0  0  0  0
  160.0400  212.9750  151.6330 N   0  0  2  0  0  0  0  0  0  0  0  0
  158.5670  211.9290  153.0970 N   0  0  0  0  0  2  0  0  0  0  0  0
  161.5850  212.2190  148.6640 C   0  0  0  0  0  0  0  0  0  0  0  0
  158.7440  213.0990  152.2420 C   0  0  0  0  0  2  0  0  0  0  0  0
  160.4130  212.1540  145.2970 C   0  0  0  0  0  2  0  0  0  0  0  0
  160.6150  213.8250  146.9800 C   0  0  2  0  0  3  0  0  0  0  0  0
  159.8100  212.5830  146.5990 C   0  0  1  0  0  3  0  0  0  0  0  0
  161.1190  213.4000  144.8270 C   0  0  1  0  0  3  0  0  0  0  0  0
  161.5390  214.1180  145.9570 O   0  0  0  0  0  0  0  0  0  0  0  0
  158.3200  212.9090  146.4350 C   0  0  0  0  0  0  0  0  0  0  0  0
  158.1090  214.2630  146.6100 F   0  0  0  0  0  0  0  0  0  0  0  0
  157.5930  212.2230  147.3910 F   0  0  0  0  0  0  0  0  0  0  0  0
  157.8710  212.5460  145.1770 F   0  0  0  0  0  0  0  0  0  0  0  0
  162.3110  213.0270  143.9590 C   0  0  0  0  0  2  0  0  0  0  0  0
  162.4070  213.9430  142.7510 C   0  0  0  0  0  2  0  0  0  0  0  0
  161.8590  213.2810  141.5790 N   0  0  0  0  0  2  0  0  0  0  0  0
  161.5600  211.0840  140.6080 C   0  0  0  0  0  1  0  0  0  0  0  0
  161.8080  211.8640  141.8830 C   0  0  0  0  0  2  0  0  0  0  0  0
  162.1540  210.0410  150.9200 C   0  0  0  0  0  2  0  0  0  0  0  0
  161.9570  209.0550  149.7830 C   0  0  0  0  0  2  0  0  0  0  0  0
  161.4130  207.7390  150.3380 C   0  0  1  0  0  3  0  0  0  0  0  0
  160.8320  205.6410  147.4430 C   0  0  0  0  0  2  0  0  0  0  0  0
  161.7410  206.6070  149.4530 N   0  0  0  0  0  0  0  0  0  0  0  0
  162.5180  207.0900  148.3140 C   0  0  0  0  0  2  0  0  0  0  0  0
  160.5110  206.1060  148.8490 C   0  0  0  0  0  2  0  0  0  0  0  0
  162.2050  206.1870  147.1460 C   0  0  0  0  0  2  0  0  0  0  0  0
  162.6260  206.3220  151.8900 O   0  0  0  0  0  1  0  0  0  0  0  0
  161.9860  207.5580  151.7530 C   0  0  2  0  0  3  0  0  0  0  0  0
  160.9110  207.7270  152.8160 C   0  0  0  0  0  2  0  0  0  0  0  0
  160.7610  206.5370  153.5320 O   0  0  0  0  0  0  0  0  0  0  0  0
  161.0520  206.8800  154.8510 C   0  0  0  0  0  2  0  0  0  0  0  0
  160.1580  208.0250  155.2830 C   0  0  0  0  0  1  0  0  0  0  0  0
  1  8  1  1  0  0  0
  1 10  1  0  0  0  0
  2 28  1  0  0  0  0
  2  5  1  0  0  0  0
  3 11  1  0  0  0  0
  4 12  2  0  0  0  0
  5  3  1  6  0  0  0
  7  6  1  1  0  0  0
  7 12  1  0  0  0  0
  7  8  1  0  0  0  0
  9 12  1  1  0  0  0
  9  1  1  0  0  0  0
  9  2  1  0  0  0  0
 10  5  1  0  0  0  0
 10 13  1  6  0  0  0
 13 11  1  0  0  0  0
 14 16  1  0  0  0  0
 15 18  1  6  0  0  0
 15  7  1  0  0  0  0
 16 19  1  6  0  0  0
 16 15  1  0  0  0  0
 17 23  1  6  0  0  0
 17 14  1  0  0  0  0
 17 18  1  0  0  0  0
 19 20  1  0  0  0  0
 19 21  1  0  0  0  0
 22 19  1  0  0  0  0
 24 23  1  0  0  0  0
 25 27  1  0  0  0  0
 25 24  1  0  0  0  0
 26 27  1  0  0  0  0
 29 28  1  0  0  0  0
 30 29  1  6  0  0  0
 30 37  1  0  0  0  0
 31 34  1  0  0  0  0
 32 30  1  0  0  0  0
 33 32  1  0  0  0  0
 34 32  1  0  0  0  0
 35 31  1  0  0  0  0
 35 33  1  0  0  0  0
 37 36  1  6  0  0  0
 37 38  1  0  0  0  0
 38 39  1  0  0  0  0
 39 40  1  0  0  0  0
 40 41  1  0  0  0  0
M  END
>  <MODEL>
8

>  <REMARK>
 VINA RESULT:      -5.5      3.483      8.727
  Name = 
  14 active torsions:
  status: ('A' for Active; 'I' for Inactive)
    1  A    between atoms: C_2  and  C_30
    2  A    between atoms: C_2  and  C_37
    3  A    between atoms: N_3  and  C_35
    4  A    between atoms: C_4  and  O_14
    5  A    between atoms: C_4  and  C_39
    6  A    between atoms: C_9  and  C_16
    7  A    between atoms: C_9  and  C_35
    8  A    between atoms: C_12  and  C_23
    9  A    between atoms: O_14  and  C_15
   10  A    between atoms: C_16  and  N_20
   11  A    between atoms: C_16  and  C_39
   12  A    between atoms: C_18  and  C_19
   13  A    between atoms: C_25  and  N_27
   14  A    between atoms: N_27  and  C_37
                            x       y       z     vdW  Elec       q    Type
                         _______ _______ _______ _____ _____    ______ ____

>  <TORSDO>
F 14

$$$$
=
 OpenBabel11072412533D

 41 45  0  0  1  0  0  0  0  0999 V2000
  161.7220  208.7330  150.0510 C   0  0  1  0  0  3  0  0  0  0  0  0
  161.2530  210.1650  151.7060 N   0  0  0  0  0  0  0  0  0  0  0  0
  161.2750  211.9740  150.1330 N   0  0  0  0  0  2  0  0  0  0  0  0
  160.9190  207.3710  153.0940 O   0  0  0  0  0  0  0  0  0  0  0  0
  162.0590  210.9020  150.7310 C   0  0  2  0  0  3  0  0  0  0  0  0
  163.2400  206.0960  151.6350 C   0  0  0  0  0  1  0  0  0  0  0  0
  161.9560  206.6090  150.9940 C   0  0  2  0  0  0  0  0  0  0  0  0
  162.2930  207.4440  149.8360 N   0  0  0  0  0  2  0  0  0  0  0  0
  161.1280  208.8460  151.1970 C   0  0  2  0  0  3  0  0  0  0  0  0
  162.3300  209.9580  149.6660 N   0  0  2  0  0  0  0  0  0  0  0  0
  161.4940  211.9190  148.7380 N   0  0  0  0  0  2  0  0  0  0  0  0
  161.2590  207.5840  151.9010 C   0  0  0  0  0  0  0  0  0  0  0  0
  161.9860  210.5820  148.4180 C   0  0  0  0  0  2  0  0  0  0  0  0
  161.7090  203.3820  149.6300 C   0  0  0  0  0  2  0  0  0  0  0  0
  161.0220  205.4630  150.5590 C   0  0  2  0  0  3  0  0  0  0  0  0
  161.5640  204.0870  150.9440 C   0  0  1  0  0  3  0  0  0  0  0  0
  160.8150  204.1830  148.7190 C   0  0  1  0  0  3  0  0  0  0  0  0
  160.8090  205.5130  149.1670 O   0  0  0  0  0  0  0  0  0  0  0  0
  160.5930  203.3390  151.8650 C   0  0  0  0  0  0  0  0  0  0  0  0
  159.2960  203.4980  151.4150 F   0  0  0  0  0  0  0  0  0  0  0  0
  160.6820  203.8590  153.1440 F   0  0  0  0  0  0  0  0  0  0  0  0
  160.8900  201.9870  151.9030 F   0  0  0  0  0  0  0  0  0  0  0  0
  161.3240  204.1040  147.2880 C   0  0  0  0  0  2  0  0  0  0  0  0
  162.3960  205.1520  147.0370 C   0  0  0  0  0  2  0  0  0  0  0  0
  162.1050  205.8790  145.8130 N   0  0  0  0  0  2  0  0  0  0  0  0
  161.2250  205.4420  143.6010 C   0  0  0  0  0  1  0  0  0  0  0  0
  161.1460  205.0830  145.0710 C   0  0  0  0  0  2  0  0  0  0  0  0
  161.1540  210.5300  153.1120 C   0  0  0  0  0  2  0  0  0  0  0  0
  160.1520  211.6540  153.3010 C   0  0  0  0  0  2  0  0  0  0  0  0
  158.9520  211.1390  154.0930 C   0  0  1  0  0  3  0  0  0  0  0  0
  160.5510  210.4060  157.2600 C   0  0  0  0  0  2  0  0  0  0  0  0
  159.1410  211.3330  155.5420 N   0  0  0  0  0  0  0  0  0  0  0  0
  160.2580  212.2460  155.7680 C   0  0  0  0  0  2  0  0  0  0  0  0
  159.5920  210.0780  156.1330 C   0  0  0  0  0  2  0  0  0  0  0  0
  160.8880  211.8640  157.0860 C   0  0  0  0  0  2  0  0  0  0  0  0
  158.0350  213.0660  152.9380 O   0  0  0  0  0  1  0  0  0  0  0  0
  157.7010  211.8610  153.5670 C   0  0  2  0  0  3  0  0  0  0  0  0
  156.6850  212.0960  154.6740 C   0  0  0  0  0  2  0  0  0  0  0  0
  156.5720  213.4640  154.9320 O   0  0  0  0  0  0  0  0  0  0  0  0
  156.5760  213.5620  156.3230 C   0  0  0  0  0  2  0  0  0  0  0  0
  155.8320  212.3820  156.9120 C   0  0  0  0  0  1  0  0  0  0  0  0
  1  8  1  1  0  0  0
  1  9  1  0  0  0  0
  2 28  1  0  0  0  0
  5  3  1  6  0  0  0
  5  2  1  0  0  0  0
  7  6  1  1  0  0  0
  7 12  1  0  0  0  0
  8  7  1  0  0  0  0
  9  2  1  0  0  0  0
  9 12  1  1  0  0  0
 10 13  1  6  0  0  0
 10  1  1  0  0  0  0
 10  5  1  0  0  0  0
 11  3  1  0  0  0  0
 12  4  2  0  0  0  0
 13 11  1  0  0  0  0
 14 16  1  0  0  0  0
 15 18  1  6  0  0  0
 15 16  1  0  0  0  0
 15  7  1  0  0  0  0
 16 19  1  1  0  0  0
 17 23  1  6  0  0  0
 17 18  1  0  0  0  0
 17 14  1  0  0  0  0
 19 22  1  0  0  0  0
 19 21  1  0  0  0  0
 20 19  1  0  0  0  0
 24 23  1  0  0  0  0
 25 24  1  0  0  0  0
 26 27  1  0  0  0  0
 27 25  1  0  0  0  0
 28 29  1  0  0  0  0
 30 29  1  6  0  0  0
 30 32  1  0  0  0  0
 32 33  1  0  0  0  0
 32 34  1  0  0  0  0
 33 35  1  0  0  0  0
 34 31  1  0  0  0  0
 35 31  1  0  0  0  0
 37 36  1  1  0  0  0
 37 30  1  0  0  0  0
 37 38  1  0  0  0  0
 38 39  1  0  0  0  0
 39 40  1  0  0  0  0
 40 41  1  0  0  0  0
M  END
>  <MODEL>
9

>  <REMARK>
 VINA RESULT:      -5.5      3.864      6.234
  Name = 
  14 active torsions:
  status: ('A' for Active; 'I' for Inactive)
    1  A    between atoms: C_2  and  C_30
    2  A    between atoms: C_2  and  C_37
    3  A    between atoms: N_3  and  C_35
    4  A    between atoms: C_4  and  O_14
    5  A    between atoms: C_4  and  C_39
    6  A    between atoms: C_9  and  C_16
    7  A    between atoms: C_9  and  C_35
    8  A    between atoms: C_12  and  C_23
    9  A    between atoms: O_14  and  C_15
   10  A    between atoms: C_16  and  N_20
   11  A    between atoms: C_16  and  C_39
   12  A    between atoms: C_18  and  C_19
   13  A    between atoms: C_25  and  N_27
   14  A    between atoms: N_27  and  C_37
                            x       y       z     vdW  Elec       q    Type
                         _______ _______ _______ _____ _____    ______ ____

>  <TORSDO>
F 14

$$$$
