=
 OpenBabel11072412383D

 31 36  0  0  1  0  0  0  0  0999 V2000
  162.0380  208.4240  152.6370 N   0  0  2  0  0  0  0  0  0  0  0  0
  160.8580  205.5970  154.1730 C   0  0  0  0  0  2  0  0  0  0  0  0
  160.9450  207.5600  152.1570 C   0  0  1  0  0  3  0  0  0  0  0  0
  161.5210  206.1960  151.7940 C   0  0  1  0  0  3  0  0  0  0  0  0
  161.0110  205.0930  152.7310 C   0  0  0  0  0  2  0  0  0  0  0  0
  161.6240  206.8250  154.3880 N   0  0  0  0  0  2  0  0  0  0  0  0
  161.0310  207.9040  153.5870 C   0  0  1  0  0  3  0  0  0  0  0  0
  161.0170  206.9550  149.4360 C   0  0  0  0  0  3  0  0  0  0  0  0
  161.2930  204.3220  148.5150 C   0  0  0  0  0  0  0  0  0  0  0  0
  160.6300  202.5060  146.9810 C   0  0  0  0  0  2  0  0  0  0  0  0
  161.3560  202.7950  145.6730 C   0  0  0  0  0  2  0  0  0  0  0  0
  161.3490  202.9840  148.1120 O   0  0  0  0  0  0  0  0  0  0  0  0
  161.9730  204.1860  145.6190 C   0  0  0  0  0  2  0  0  0  0  0  0
  161.2570  205.9180  150.3470 C   0  0  0  0  0  0  0  0  0  0  0  0
  160.9320  206.6830  148.0690 C   0  0  0  0  0  3  0  0  0  0  0  0
  161.1320  205.1720  146.2130 O   0  0  0  0  0  0  0  0  0  0  0  0
  161.4020  204.6090  149.8790 C   0  0  0  0  0  3  0  0  0  0  0  0
  161.1030  205.3780  147.5960 C   0  0  0  0  0  0  0  0  0  0  0  0
  162.5530  210.4320  151.0940 C   0  0  0  0  0  2  0  0  0  0  0  0
  161.7160  209.7850  152.1920 C   0  0  0  0  0  0  0  0  0  0  0  0
  161.2360  209.7680  150.7500 C   0  0  0  0  0  2  0  0  0  0  0  0
  160.8040  210.6070  153.0730 C   0  0  0  0  0  0  0  0  0  0  0  0
  161.1860  210.9960  154.3750 C   0  0  0  0  0  0  0  0  0  0  0  0
  159.4920  210.8470  152.6440 C   0  0  0  0  0  3  0  0  0  0  0  0
  160.2590  211.6370  155.2120 C   0  0  0  0  0  0  0  0  0  0  0  0
  160.6210  212.0090  156.4660 F   0  0  0  0  0  0  0  0  0  0  0  0
  162.8000  210.6600  154.9970 Cl  0  0  0  0  0  0  0  0  0  0  0  0
  158.9520  211.8810  154.7720 C   0  0  0  0  0  0  0  0  0  0  0  0
  158.5760  211.4850  153.4800 C   0  0  0  0  0  3  0  0  0  0  0  0
  158.0470  212.5090  155.6320 O   0  0  0  0  0  0  0  0  0  0  0  0
  156.9950  211.8100  156.2850 C   0  0  0  0  0  1  0  0  0  0  0  0
  1 20  1  6  0  0  0
  1  7  1  0  0  0  0
  2  6  1  0  0  0  0
  3  1  1  0  0  0  0
  3  7  1  0  0  0  0
  4  3  1  0  0  0  0
  4  5  1  0  0  0  0
  5  2  1  0  0  0  0
  7  6  1  0  0  0  0
  8 14  1  0  0  0  0
  9 17  1  0  0  0  0
 10 12  1  0  0  0  0
 11 10  1  0  0  0  0
 12  9  1  0  0  0  0
 13 11  1  0  0  0  0
 13 16  1  0  0  0  0
 14  4  1  0  0  0  0
 15  8  2  0  0  0  0
 16 18  1  0  0  0  0
 17 14  2  0  0  0  0
 18 15  1  0  0  0  0
 18  9  2  0  0  0  0
 19 20  1  0  0  0  0
 20 22  1  0  0  0  0
 21 19  1  0  0  0  0
 21 20  1  0  0  0  0
 22 23  1  0  0  0  0
 23 27  1  0  0  0  0
 23 25  2  0  0  0  0
 24 22  2  0  0  0  0
 24 29  1  0  0  0  0
 25 26  1  0  0  0  0
 28 25  1  0  0  0  0
 28 30  1  0  0  0  0
 29 28  2  0  0  0  0
 30 31  1  0  0  0  0
M  END
>  <MODEL>
1

>  <REMARK>
 VINA RESULT:      -9.1      0.000      0.000
  Name = 
  4 active torsions:
  status: ('A' for Active; 'I' for Inactive)
    1  A    between atoms: N_1  and  C_11
    2  A    between atoms: C_3  and  C_11
    3  A    between atoms: O_13  and  C_22
    4  A    between atoms: C_14  and  C_24
                            x       y       z     vdW  Elec       q    Type
                         _______ _______ _______ _____ _____    ______ ____

>  <TORSDO>
F 4

$$$$
=
 OpenBabel11072412383D

 31 36  0  0  1  0  0  0  0  0999 V2000
  160.6450  210.2610  154.8610 N   0  0  2  0  0  0  0  0  0  0  0  0
  160.2020  207.6560  157.0430 C   0  0  0  0  0  2  0  0  0  0  0  0
  160.0560  208.9470  154.5460 C   0  0  1  0  0  3  0  0  0  0  0  0
  161.1340  207.8790  154.6900 C   0  0  1  0  0  3  0  0  0  0  0  0
  160.8410  206.9240  155.8550 C   0  0  0  0  0  2  0  0  0  0  0  0
  160.4260  209.1000  156.9580 N   0  0  0  0  0  2  0  0  0  0  0  0
  159.6930  209.6290  155.8020 C   0  0  1  0  0  3  0  0  0  0  0  0
  161.2610  205.7850  153.2800 C   0  0  0  0  0  3  0  0  0  0  0  0
  161.4340  207.3440  150.9570 C   0  0  0  0  0  0  0  0  0  0  0  0
  162.3050  207.7050  148.6760 C   0  0  0  0  0  2  0  0  0  0  0  0
  161.4210  206.8610  147.7670 C   0  0  0  0  0  2  0  0  0  0  0  0
  161.6100  208.1570  149.8320 O   0  0  0  0  0  0  0  0  0  0  0  0
  160.5360  205.8800  148.5250 C   0  0  0  0  0  2  0  0  0  0  0  0
  161.3160  207.1810  153.3790 C   0  0  0  0  0  0  0  0  0  0  0  0
  161.2750  205.1690  152.0270 C   0  0  0  0  0  3  0  0  0  0  0  0
  161.2130  205.2860  149.6280 O   0  0  0  0  0  0  0  0  0  0  0  0
  161.3940  207.9520  152.2150 C   0  0  0  0  0  3  0  0  0  0  0  0
  161.3250  205.9390  150.8600 C   0  0  0  0  0  0  0  0  0  0  0  0
  160.7170  211.7620  152.7600 C   0  0  0  0  0  2  0  0  0  0  0  0
  159.9800  211.2330  153.9850 C   0  0  0  0  0  0  0  0  0  0  0  0
  159.7300  210.6230  152.6160 C   0  0  0  0  0  2  0  0  0  0  0  0
  158.7490  211.9240  154.5210 C   0  0  0  0  0  0  0  0  0  0  0  0
  158.8100  212.7910  155.6340 C   0  0  0  0  0  0  0  0  0  0  0  0
  157.4970  211.5680  154.0000 C   0  0  0  0  0  3  0  0  0  0  0  0
  157.6260  213.3020  156.1870 C   0  0  0  0  0  0  0  0  0  0  0  0
  157.6810  214.1320  157.2600 F   0  0  0  0  0  0  0  0  0  0  0  0
  160.3490  213.2200  156.3770 Cl  0  0  0  0  0  0  0  0  0  0  0  0
  156.3800  212.9480  155.6540 C   0  0  0  0  0  0  0  0  0  0  0  0
  156.3250  212.0800  154.5540 C   0  0  0  0  0  3  0  0  0  0  0  0
  155.2170  213.4620  156.2350 O   0  0  0  0  0  0  0  0  0  0  0  0
  154.5050  212.7820  157.2610 C   0  0  0  0  0  1  0  0  0  0  0  0
  1 20  1  6  0  0  0
  1  7  1  0  0  0  0
  3  4  1  0  0  0  0
  3  1  1  0  0  0  0
  3  7  1  0  0  0  0
  4  5  1  0  0  0  0
  5  2  1  0  0  0  0
  6  2  1  0  0  0  0
  7  6  1  0  0  0  0
  8 14  1  0  0  0  0
  9 17  1  0  0  0  0
 10 12  1  0  0  0  0
 11 13  1  0  0  0  0
 11 10  1  0  0  0  0
 12  9  1  0  0  0  0
 13 16  1  0  0  0  0
 14  4  1  0  0  0  0
 15  8  2  0  0  0  0
 16 18  1  0  0  0  0
 17 14  2  0  0  0  0
 18  9  2  0  0  0  0
 18 15  1  0  0  0  0
 19 20  1  0  0  0  0
 20 22  1  0  0  0  0
 21 19  1  0  0  0  0
 21 20  1  0  0  0  0
 22 23  1  0  0  0  0
 23 25  2  0  0  0  0
 23 27  1  0  0  0  0
 24 22  2  0  0  0  0
 24 29  1  0  0  0  0
 25 26  1  0  0  0  0
 28 25  1  0  0  0  0
 28 30  1  0  0  0  0
 29 28  2  0  0  0  0
 30 31  1  0  0  0  0
M  END
>  <MODEL>
2

>  <REMARK>
 VINA RESULT:      -9.1      2.293      3.566
  Name = 
  4 active torsions:
  status: ('A' for Active; 'I' for Inactive)
    1  A    between atoms: N_1  and  C_11
    2  A    between atoms: C_3  and  C_11
    3  A    between atoms: O_13  and  C_22
    4  A    between atoms: C_14  and  C_24
                            x       y       z     vdW  Elec       q    Type
                         _______ _______ _______ _____ _____    ______ ____

>  <TORSDO>
F 4

$$$$
=
 OpenBabel11072412383D

 31 36  0  0  1  0  0  0  0  0999 V2000
  160.4820  208.9810  152.3770 N   0  0  2  0  0  0  0  0  0  0  0  0
  162.3310  209.7390  149.5920 C   0  0  0  0  0  2  0  0  0  0  0  0
  161.5930  208.1860  151.8230 C   0  0  1  0  0  3  0  0  0  0  0  0
  161.1780  207.6470  150.4580 C   0  0  1  0  0  3  0  0  0  0  0  0
  162.0060  208.2630  149.3230 C   0  0  0  0  0  2  0  0  0  0  0  0
  161.4370  210.3010  150.6050 N   0  0  0  0  0  2  0  0  0  0  0  0
  161.7090  209.6540  151.8940 C   0  0  1  0  0  3  0  0  0  0  0  0
  161.2110  205.4410  151.6930 C   0  0  0  0  0  3  0  0  0  0  0  0
  161.0300  204.0610  149.2600 C   0  0  0  0  0  0  0  0  0  0  0  0
  161.5940  202.1140  147.8510 C   0  0  0  0  0  2  0  0  0  0  0  0
  160.6380  201.0110  148.2840 C   0  0  0  0  0  2  0  0  0  0  0  0
  161.0310  203.4100  148.0220 O   0  0  0  0  0  0  0  0  0  0  0  0
  159.8950  201.3270  149.5760 C   0  0  0  0  0  2  0  0  0  0  0  0
  161.2220  206.1510  150.4850 C   0  0  0  0  0  0  0  0  0  0  0  0
  161.0930  204.0500  151.6890 C   0  0  0  0  0  3  0  0  0  0  0  0
  160.7280  201.9770  150.5310 O   0  0  0  0  0  0  0  0  0  0  0  0
  161.1230  205.4560  149.2760 C   0  0  0  0  0  3  0  0  0  0  0  0
  160.9670  203.3550  150.4820 C   0  0  0  0  0  0  0  0  0  0  0  0
  160.3030  207.3710  154.3890 C   0  0  0  0  0  2  0  0  0  0  0  0
  160.5100  208.7730  153.8300 C   0  0  0  0  0  0  0  0  0  0  0  0
  161.7050  207.9170  154.2160 C   0  0  0  0  0  2  0  0  0  0  0  0
  160.3920  209.9960  154.7090 C   0  0  0  0  0  0  0  0  0  0  0  0
  159.5920  211.0990  154.3400 C   0  0  0  0  0  0  0  0  0  0  0  0
  161.2220  210.0980  155.8340 C   0  0  0  0  0  3  0  0  0  0  0  0
  159.6190  212.2710  155.1130 C   0  0  0  0  0  0  0  0  0  0  0  0
  158.8550  213.3350  154.7590 F   0  0  0  0  0  0  0  0  0  0  0  0
  158.5810  211.0580  152.8980 Cl  0  0  0  0  0  0  0  0  0  0  0  0
  160.4450  212.3600  156.2410 C   0  0  0  0  0  0  0  0  0  0  0  0
  161.2440  211.2640  156.5980 C   0  0  0  0  0  3  0  0  0  0  0  0
  160.4610  213.5440  156.9840 O   0  0  0  0  0  0  0  0  0  0  0  0
  159.2930  214.3190  157.2220 C   0  0  0  0  0  1  0  0  0  0  0  0
  1 20  1  1  0  0  0
  2  6  1  0  0  0  0
  3  7  1  0  0  0  0
  3  1  1  0  0  0  0
  4 14  1  0  0  0  0
  4  3  1  0  0  0  0
  5  2  1  0  0  0  0
  5  4  1  0  0  0  0
  6  7  1  0  0  0  0
  7  1  1  0  0  0  0
  9 17  2  0  0  0  0
  9 18  1  0  0  0  0
 10 12  1  0  0  0  0
 10 11  1  0  0  0  0
 11 13  1  0  0  0  0
 12  9  1  0  0  0  0
 13 16  1  0  0  0  0
 14  8  2  0  0  0  0
 15  8  1  0  0  0  0
 17 14  1  0  0  0  0
 18 16  1  0  0  0  0
 18 15  2  0  0  0  0
 20 21  1  0  0  0  0
 20 19  1  0  0  0  0
 20 22  1  0  0  0  0
 21 19  1  0  0  0  0
 22 24  1  0  0  0  0
 23 22  2  0  0  0  0
 23 25  1  0  0  0  0
 24 29  2  0  0  0  0
 25 28  2  0  0  0  0
 26 25  1  0  0  0  0
 27 23  1  0  0  0  0
 28 29  1  0  0  0  0
 28 30  1  0  0  0  0
 30 31  1  0  0  0  0
M  END
>  <MODEL>
3

>  <REMARK>
 VINA RESULT:      -8.9      1.921      3.381
  Name = 
  4 active torsions:
  status: ('A' for Active; 'I' for Inactive)
    1  A    between atoms: N_1  and  C_11
    2  A    between atoms: C_3  and  C_11
    3  A    between atoms: O_13  and  C_22
    4  A    between atoms: C_14  and  C_24
                            x       y       z     vdW  Elec       q    Type
                         _______ _______ _______ _____ _____    ______ ____

>  <TORSDO>
F 4

$$$$
=
 OpenBabel11072412383D

 31 36  0  0  1  0  0  0  0  0999 V2000
  162.3420  207.0670  150.7150 N   0  0  2  0  0  0  0  0  0  0  0  0
  161.9280  209.7590  148.6340 C   0  0  0  0  0  2  0  0  0  0  0  0
  161.3290  208.1300  150.8510 C   0  0  1  0  0  3  0  0  0  0  0  0
  162.0360  209.4460  151.1540 C   0  0  1  0  0  3  0  0  0  0  0  0
  161.8900  210.4510  150.0040 C   0  0  0  0  0  2  0  0  0  0  0  0
  162.5160  208.4230  148.7330 N   0  0  0  0  0  2  0  0  0  0  0  0
  161.6220  207.5650  149.5220 C   0  0  1  0  0  3  0  0  0  0  0  0
  162.4240  210.1050  153.5630 C   0  0  0  0  0  3  0  0  0  0  0  0
  159.8070  211.0940  153.7280 C   0  0  0  0  0  0  0  0  0  0  0  0
  157.7410  211.4910  155.0190 C   0  0  0  0  0  2  0  0  0  0  0  0
  158.0180  212.7350  155.8540 C   0  0  0  0  0  2  0  0  0  0  0  0
  158.4680  211.4930  153.7960 O   0  0  0  0  0  0  0  0  0  0  0  0
  159.4870  213.1380  155.8690 C   0  0  0  0  0  2  0  0  0  0  0  0
  161.5580  209.9720  152.4700 C   0  0  0  0  0  0  0  0  0  0  0  0
  161.9930  210.7430  154.7270 C   0  0  0  0  0  3  0  0  0  0  0  0
  160.3540  212.0100  155.9440 O   0  0  0  0  0  0  0  0  0  0  0  0
  160.2560  210.4760  152.5580 C   0  0  0  0  0  3  0  0  0  0  0  0
  160.7010  211.2720  154.8070 C   0  0  0  0  0  0  0  0  0  0  0  0
  161.8240  205.5500  152.7410 C   0  0  0  0  0  2  0  0  0  0  0  0
  161.7310  205.8440  151.2480 C   0  0  0  0  0  0  0  0  0  0  0  0
  160.5750  206.1910  152.1720 C   0  0  0  0  0  2  0  0  0  0  0  0
  161.3500  204.7680  150.2580 C   0  0  0  0  0  0  0  0  0  0  0  0
  160.9420  203.4840  150.6790 C   0  0  0  0  0  0  0  0  0  0  0  0
  161.5630  205.0060  148.8930 C   0  0  0  0  0  3  0  0  0  0  0  0
  160.7320  202.4720  149.7290 C   0  0  0  0  0  0  0  0  0  0  0  0
  160.3430  201.2350  150.1300 F   0  0  0  0  0  0  0  0  0  0  0  0
  160.7250  203.1050  152.3860 Cl  0  0  0  0  0  0  0  0  0  0  0  0
  160.9380  202.7210  148.3660 C   0  0  0  0  0  0  0  0  0  0  0  0
  161.3520  203.9960  147.9550 C   0  0  0  0  0  3  0  0  0  0  0  0
  160.7340  201.6900  147.4450 O   0  0  0  0  0  0  0  0  0  0  0  0
  160.7880  201.8930  146.0390 C   0  0  0  0  0  1  0  0  0  0  0  0
  1  3  1  0  0  0  0
  1 20  1  1  0  0  0
  2  6  1  0  0  0  0
  2  5  1  0  0  0  0
  3  4  1  0  0  0  0
  4 14  1  0  0  0  0
  5  4  1  0  0  0  0
  6  7  1  0  0  0  0
  7  1  1  0  0  0  0
  7  3  1  0  0  0  0
  8 15  1  0  0  0  0
  9 12  1  0  0  0  0
  9 18  1  0  0  0  0
 10 11  1  0  0  0  0
 11 13  1  0  0  0  0
 12 10  1  0  0  0  0
 13 16  1  0  0  0  0
 14 17  1  0  0  0  0
 14  8  2  0  0  0  0
 15 18  2  0  0  0  0
 17  9  2  0  0  0  0
 18 16  1  0  0  0  0
 20 21  1  0  0  0  0
 20 19  1  0  0  0  0
 21 19  1  0  0  0  0
 22 23  1  0  0  0  0
 22 20  1  0  0  0  0
 23 27  1  0  0  0  0
 24 22  2  0  0  0  0
 25 26  1  0  0  0  0
 25 23  2  0  0  0  0
 28 25  1  0  0  0  0
 29 28  2  0  0  0  0
 29 24  1  0  0  0  0
 30 28  1  0  0  0  0
 31 30  1  0  0  0  0
M  END
>  <MODEL>
4

>  <REMARK>
 VINA RESULT:      -8.9      3.126      8.949
  Name = 
  4 active torsions:
  status: ('A' for Active; 'I' for Inactive)
    1  A    between atoms: N_1  and  C_11
    2  A    between atoms: C_3  and  C_11
    3  A    between atoms: O_13  and  C_22
    4  A    between atoms: C_14  and  C_24
                            x       y       z     vdW  Elec       q    Type
                         _______ _______ _______ _____ _____    ______ ____

>  <TORSDO>
F 4

$$$$
=
 OpenBabel11072412383D

 31 36  0  0  1  0  0  0  0  0999 V2000
  160.7400  206.1070  150.7350 N   0  0  2  0  0  0  0  0  0  0  0  0
  161.7130  205.8280  154.0090 C   0  0  0  0  0  2  0  0  0  0  0  0
  161.5760  207.0640  151.4830 C   0  0  1  0  0  3  0  0  0  0  0  0
  160.7330  207.6920  152.5870 C   0  0  1  0  0  3  0  0  0  0  0  0
  161.2220  207.2820  153.9830 C   0  0  0  0  0  2  0  0  0  0  0  0
  161.2060  205.0770  152.8600 N   0  0  0  0  0  2  0  0  0  0  0  0
  161.8080  205.6160  151.6340 C   0  0  1  0  0  3  0  0  0  0  0  0
  161.4820  209.8090  151.4270 C   0  0  0  0  0  3  0  0  0  0  0  0
  159.5340  211.2730  152.8130 C   0  0  0  0  0  0  0  0  0  0  0  0
  158.7970  213.3540  153.9170 C   0  0  0  0  0  2  0  0  0  0  0  0
  158.3580  214.2780  152.7880 C   0  0  0  0  0  2  0  0  0  0  0  0
  158.6120  211.9820  153.5900 O   0  0  0  0  0  0  0  0  0  0  0  0
  158.7740  213.7860  151.4080 C   0  0  0  0  0  2  0  0  0  0  0  0
  160.6810  209.1740  152.3850 C   0  0  0  0  0  0  0  0  0  0  0  0
  161.3010  211.1650  151.1490 C   0  0  0  0  0  3  0  0  0  0  0  0
  160.0810  213.2180  151.4110 O   0  0  0  0  0  0  0  0  0  0  0  0
  159.7060  209.9100  153.0660 C   0  0  0  0  0  3  0  0  0  0  0  0
  160.3080  211.8970  151.8080 C   0  0  0  0  0  0  0  0  0  0  0  0
  161.2060  207.5120  148.6170 C   0  0  0  0  0  2  0  0  0  0  0  0
  161.1890  206.1690  149.3390 C   0  0  0  0  0  0  0  0  0  0  0  0
  162.4780  206.9690  149.2350 C   0  0  0  0  0  2  0  0  0  0  0  0
  161.2790  204.8670  148.5790 C   0  0  0  0  0  0  0  0  0  0  0  0
  161.6460  204.8270  147.2170 C   0  0  0  0  0  0  0  0  0  0  0  0
  160.8310  203.6930  149.2010 C   0  0  0  0  0  3  0  0  0  0  0  0
  161.5810  203.6150  146.5110 C   0  0  0  0  0  0  0  0  0  0  0  0
  161.9290  203.5750  145.1990 F   0  0  0  0  0  0  0  0  0  0  0  0
  162.1500  206.2820  146.3600 Cl  0  0  0  0  0  0  0  0  0  0  0  0
  161.1410  202.4460  147.1440 C   0  0  0  0  0  0  0  0  0  0  0  0
  160.7700  202.4930  148.4950 C   0  0  0  0  0  3  0  0  0  0  0  0
  161.0740  201.2570  146.4110 O   0  0  0  0  0  0  0  0  0  0  0  0
  160.1690  201.0690  145.3310 C   0  0  0  0  0  1  0  0  0  0  0  0
  1 20  1  6  0  0  0
  1  3  1  0  0  0  0
  1  7  1  0  0  0  0
  3  7  1  0  0  0  0
  3  4  1  0  0  0  0
  4  5  1  0  0  0  0
  5  2  1  0  0  0  0
  6  2  1  0  0  0  0
  7  6  1  0  0  0  0
  8 14  1  0  0  0  0
  9 17  1  0  0  0  0
  9 12  1  0  0  0  0
 11 10  1  0  0  0  0
 12 10  1  0  0  0  0
 13 16  1  0  0  0  0
 13 11  1  0  0  0  0
 14  4  1  0  0  0  0
 14 17  2  0  0  0  0
 15  8  2  0  0  0  0
 15 18  1  0  0  0  0
 16 18  1  0  0  0  0
 18  9  2  0  0  0  0
 19 21  1  0  0  0  0
 19 20  1  0  0  0  0
 21 20  1  0  0  0  0
 22 24  1  0  0  0  0
 22 20  1  0  0  0  0
 23 22  2  0  0  0  0
 25 28  2  0  0  0  0
 25 23  1  0  0  0  0
 26 25  1  0  0  0  0
 27 23  1  0  0  0  0
 28 29  1  0  0  0  0
 29 24  2  0  0  0  0
 30 28  1  0  0  0  0
 31 30  1  0  0  0  0
M  END
>  <MODEL>
5

>  <REMARK>
 VINA RESULT:      -8.8      3.544      8.792
  Name = 
  4 active torsions:
  status: ('A' for Active; 'I' for Inactive)
    1  A    between atoms: N_1  and  C_11
    2  A    between atoms: C_3  and  C_11
    3  A    between atoms: O_13  and  C_22
    4  A    between atoms: C_14  and  C_24
                            x       y       z     vdW  Elec       q    Type
                         _______ _______ _______ _____ _____    ______ ____

>  <TORSDO>
F 4

$$$$
=
 OpenBabel11072412383D

 31 36  0  0  1  0  0  0  0  0999 V2000
  162.1310  206.3050  149.7180 N   0  0  2  0  0  0  0  0  0  0  0  0
  161.7310  209.3790  148.2560 C   0  0  0  0  0  2  0  0  0  0  0  0
  161.2700  207.3980  150.2030 C   0  0  1  0  0  3  0  0  0  0  0  0
  162.1530  208.5670  150.6270 C   0  0  1  0  0  3  0  0  0  0  0  0
  161.9600  209.7880  149.7180 C   0  0  0  0  0  2  0  0  0  0  0  0
  162.1770  208.0060  148.0150 N   0  0  0  0  0  2  0  0  0  0  0  0
  161.3120  207.0850  148.7640 C   0  0  1  0  0  3  0  0  0  0  0  0
  161.9570  210.1700  152.5710 C   0  0  0  0  0  3  0  0  0  0  0  0
  161.1690  208.0640  154.2450 C   0  0  0  0  0  0  0  0  0  0  0  0
  161.1500  206.9780  156.4610 C   0  0  0  0  0  2  0  0  0  0  0  0
  160.0790  207.7080  157.2610 C   0  0  0  0  0  2  0  0  0  0  0  0
  160.8680  206.9730  155.0660 O   0  0  0  0  0  0  0  0  0  0  0  0
  159.6040  208.9960  156.6000 C   0  0  0  0  0  2  0  0  0  0  0  0
  161.9230  208.8600  152.0760 C   0  0  0  0  0  0  0  0  0  0  0  0
  161.5830  210.4310  153.8910 C   0  0  0  0  0  3  0  0  0  0  0  0
  160.6740  209.7180  155.9970 O   0  0  0  0  0  0  0  0  0  0  0  0
  161.5210  207.8160  152.9150 C   0  0  0  0  0  3  0  0  0  0  0  0
  161.1550  209.3930  154.7240 C   0  0  0  0  0  0  0  0  0  0  0  0
  161.3960  204.6730  151.5810 C   0  0  0  0  0  2  0  0  0  0  0  0
  161.4690  205.0540  150.1070 C   0  0  0  0  0  0  0  0  0  0  0  0
  160.2170  205.3500  150.9150 C   0  0  0  0  0  2  0  0  0  0  0  0
  161.2050  204.0390  149.0190 C   0  0  0  0  0  0  0  0  0  0  0  0
  161.0420  202.6670  149.3090 C   0  0  0  0  0  0  0  0  0  0  0  0
  161.2840  204.4520  147.6820 C   0  0  0  0  0  3  0  0  0  0  0  0
  160.9380  201.7400  148.2600 C   0  0  0  0  0  0  0  0  0  0  0  0
  160.7860  200.4190  148.5350 F   0  0  0  0  0  0  0  0  0  0  0  0
  161.0050  202.0790  150.9690 Cl  0  0  0  0  0  0  0  0  0  0  0  0
  161.0090  202.1620  146.9270 C   0  0  0  0  0  0  0  0  0  0  0  0
  161.1800  203.5250  146.6450 C   0  0  0  0  0  3  0  0  0  0  0  0
  160.9170  201.2140  145.9040 O   0  0  0  0  0  0  0  0  0  0  0  0
  159.9270  201.2750  144.8860 C   0  0  0  0  0  1  0  0  0  0  0  0
  1 20  1  1  0  0  0
  1  3  1  0  0  0  0
  2  5  1  0  0  0  0
  3  4  1  0  0  0  0
  4 14  1  0  0  0  0
  5  4  1  0  0  0  0
  6  2  1  0  0  0  0
  6  7  1  0  0  0  0
  7  1  1  0  0  0  0
  7  3  1  0  0  0  0
  8 15  1  0  0  0  0
  9 18  1  0  0  0  0
  9 12  1  0  0  0  0
 10 11  1  0  0  0  0
 12 10  1  0  0  0  0
 13 11  1  0  0  0  0
 14  8  2  0  0  0  0
 14 17  1  0  0  0  0
 15 18  2  0  0  0  0
 16 13  1  0  0  0  0
 17  9  2  0  0  0  0
 18 16  1  0  0  0  0
 20 21  1  0  0  0  0
 20 19  1  0  0  0  0
 21 19  1  0  0  0  0
 22 23  1  0  0  0  0
 22 20  1  0  0  0  0
 23 27  1  0  0  0  0
 24 22  2  0  0  0  0
 25 26  1  0  0  0  0
 25 23  2  0  0  0  0
 28 25  1  0  0  0  0
 29 28  2  0  0  0  0
 29 24  1  0  0  0  0
 30 28  1  0  0  0  0
 31 30  1  0  0  0  0
M  END
>  <MODEL>
6

>  <REMARK>
 VINA RESULT:      -8.6      3.821      8.959
  Name = 
  4 active torsions:
  status: ('A' for Active; 'I' for Inactive)
    1  A    between atoms: N_1  and  C_11
    2  A    between atoms: C_3  and  C_11
    3  A    between atoms: O_13  and  C_22
    4  A    between atoms: C_14  and  C_24
                            x       y       z     vdW  Elec       q    Type
                         _______ _______ _______ _____ _____    ______ ____

>  <TORSDO>
F 4

$$$$
=
 OpenBabel11072412383D

 31 36  0  0  1  0  0  0  0  0999 V2000
  161.2060  209.9750  153.0250 N   0  0  2  0  0  0  0  0  0  0  0  0
  161.1460  207.4150  155.3030 C   0  0  0  0  0  2  0  0  0  0  0  0
  160.4290  208.7270  152.9180 C   0  0  1  0  0  3  0  0  0  0  0  0
  161.3960  207.5560  152.7790 C   0  0  1  0  0  3  0  0  0  0  0  0
  161.3510  206.6300  154.0010 C   0  0  0  0  0  2  0  0  0  0  0  0
  161.4750  208.8300  155.1250 N   0  0  0  0  0  2  0  0  0  0  0  0
  160.5010  209.4350  154.2090 C   0  0  1  0  0  3  0  0  0  0  0  0
  160.9590  207.5590  150.2890 C   0  0  0  0  0  3  0  0  0  0  0  0
  161.1030  204.7600  150.2470 C   0  0  0  0  0  0  0  0  0  0  0  0
  160.3590  202.5880  149.3420 C   0  0  0  0  0  2  0  0  0  0  0  0
  161.1140  202.4160  148.0300 C   0  0  0  0  0  2  0  0  0  0  0  0
  161.0910  203.3620  150.2850 O   0  0  0  0  0  0  0  0  0  0  0  0
  161.8060  203.6890  147.5600 C   0  0  0  0  0  2  0  0  0  0  0  0
  161.1330  206.8510  151.4850 C   0  0  0  0  0  0  0  0  0  0  0  0
  160.8740  206.8760  149.0750 C   0  0  0  0  0  3  0  0  0  0  0  0
  161.0130  204.8500  147.7910 O   0  0  0  0  0  0  0  0  0  0  0  0
  161.2120  205.4550  151.4550 C   0  0  0  0  0  3  0  0  0  0  0  0
  160.9800  205.4820  149.0380 C   0  0  0  0  0  0  0  0  0  0  0  0
  158.9770  211.2560  152.7750 C   0  0  0  0  0  2  0  0  0  0  0  0
  160.4200  211.0120  152.3480 C   0  0  0  0  0  0  0  0  0  0  0  0
  160.0860  212.1350  153.3150 C   0  0  0  0  0  2  0  0  0  0  0  0
  160.9530  211.5440  151.0380 C   0  0  0  0  0  0  0  0  0  0  0  0
  160.4470  212.7280  150.4590 C   0  0  0  0  0  0  0  0  0  0  0  0
  161.8540  210.7570  150.3090 C   0  0  0  0  0  3  0  0  0  0  0  0
  160.8690  213.1130  149.1760 C   0  0  0  0  0  0  0  0  0  0  0  0
  160.3810  214.2480  148.6140 F   0  0  0  0  0  0  0  0  0  0  0  0
  159.2590  213.7240  151.2960 Cl  0  0  0  0  0  0  0  0  0  0  0  0
  161.7770  212.3240  148.4590 C   0  0  0  0  0  0  0  0  0  0  0  0
  162.2690  211.1450  149.0360 C   0  0  0  0  0  3  0  0  0  0  0  0
  162.1680  212.7260  147.1780 O   0  0  0  0  0  0  0  0  0  0  0  0
  161.2490  212.8650  146.1020 C   0  0  0  0  0  1  0  0  0  0  0  0
  1 20  1  6  0  0  0
  1  7  1  0  0  0  0
  3  1  1  0  0  0  0
  3  7  1  0  0  0  0
  4  3  1  0  0  0  0
  4  5  1  0  0  0  0
  5  2  1  0  0  0  0
  6  2  1  0  0  0  0
  7  6  1  0  0  0  0
  8 14  1  0  0  0  0
  9 12  1  0  0  0  0
  9 17  1  0  0  0  0
 10 12  1  0  0  0  0
 11 10  1  0  0  0  0
 13 16  1  0  0  0  0
 13 11  1  0  0  0  0
 14  4  1  0  0  0  0
 15  8  2  0  0  0  0
 16 18  1  0  0  0  0
 17 14  2  0  0  0  0
 18 15  1  0  0  0  0
 18  9  2  0  0  0  0
 19 21  1  0  0  0  0
 20 19  1  0  0  0  0
 20 21  1  0  0  0  0
 22 20  1  0  0  0  0
 23 22  1  0  0  0  0
 23 27  1  0  0  0  0
 24 22  2  0  0  0  0
 25 23  2  0  0  0  0
 26 25  1  0  0  0  0
 28 29  2  0  0  0  0
 28 25  1  0  0  0  0
 29 24  1  0  0  0  0
 30 28  1  0  0  0  0
 31 30  1  0  0  0  0
M  END
>  <MODEL>
7

>  <REMARK>
 VINA RESULT:      -8.2      2.987      4.261
  Name = 
  4 active torsions:
  status: ('A' for Active; 'I' for Inactive)
    1  A    between atoms: N_1  and  C_11
    2  A    between atoms: C_3  and  C_11
    3  A    between atoms: O_13  and  C_22
    4  A    between atoms: C_14  and  C_24
                            x       y       z     vdW  Elec       q    Type
                         _______ _______ _______ _____ _____    ______ ____

>  <TORSDO>
F 4

$$$$
=
 OpenBabel11072412383D

 31 36  0  0  1  0  0  0  0  0999 V2000
  160.7090  206.8580  152.6850 N   0  0  2  0  0  0  0  0  0  0  0  0
  161.5090  207.7050  155.9070 C   0  0  0  0  0  2  0  0  0  0  0  0
  161.3000  208.1310  153.1320 C   0  0  1  0  0  3  0  0  0  0  0  0
  160.2870  208.8640  154.0050 C   0  0  1  0  0  3  0  0  0  0  0  0
  160.7550  208.9660  155.4620 C   0  0  0  0  0  2  0  0  0  0  0  0
  161.2250  206.5780  155.0190 N   0  0  0  0  0  2  0  0  0  0  0  0
  161.7910  206.8600  153.6940 C   0  0  1  0  0  3  0  0  0  0  0  0
  160.8280  210.7840  152.4530 C   0  0  0  0  0  3  0  0  0  0  0  0
  158.3280  211.9350  152.9830 C   0  0  0  0  0  0  0  0  0  0  0  0
  156.9090  213.9300  153.2980 C   0  0  0  0  0  2  0  0  0  0  0  0
  156.5780  214.4170  151.8940 C   0  0  0  0  0  2  0  0  0  0  0  0
  157.1110  212.5220  153.3440 O   0  0  0  0  0  0  0  0  0  0  0  0
  157.4220  213.7580  150.8110 C   0  0  0  0  0  2  0  0  0  0  0  0
  159.9690  210.1890  153.3860 C   0  0  0  0  0  0  0  0  0  0  0  0
  160.4360  211.9390  151.7740 C   0  0  0  0  0  3  0  0  0  0  0  0
  158.7770  213.5840  151.2150 O   0  0  0  0  0  0  0  0  0  0  0  0
  158.7210  210.7650  153.6390 C   0  0  0  0  0  3  0  0  0  0  0  0
  159.1760  212.5020  152.0050 C   0  0  0  0  0  0  0  0  0  0  0  0
  161.4220  207.7910  150.3840 C   0  0  0  0  0  2  0  0  0  0  0  0
  161.2250  206.6150  151.3320 C   0  0  0  0  0  0  0  0  0  0  0  0
  162.5960  207.2490  151.1710 C   0  0  0  0  0  2  0  0  0  0  0  0
  161.2050  205.1910  150.8260 C   0  0  0  0  0  0  0  0  0  0  0  0
  160.9860  204.8920  149.4650 C   0  0  0  0  0  0  0  0  0  0  0  0
  161.2460  204.1460  151.7590 C   0  0  0  0  0  3  0  0  0  0  0  0
  160.8350  203.5570  149.0590 C   0  0  0  0  0  0  0  0  0  0  0  0
  160.6190  203.2650  147.7510 F   0  0  0  0  0  0  0  0  0  0  0  0
  160.8550  206.1660  148.2550 Cl  0  0  0  0  0  0  0  0  0  0  0  0
  160.8870  202.5180  149.9970 C   0  0  0  0  0  0  0  0  0  0  0  0
  161.0970  202.8220  151.3490 C   0  0  0  0  0  3  0  0  0  0  0  0
  160.7190  201.1990  149.5650 O   0  0  0  0  0  0  0  0  0  0  0  0
  161.5790  200.5860  148.6130 C   0  0  0  0  0  1  0  0  0  0  0  0
  1 20  1  6  0  0  0
  1  3  1  0  0  0  0
  1  7  1  0  0  0  0
  3  7  1  0  0  0  0
  3  4  1  0  0  0  0
  4  5  1  0  0  0  0
  5  2  1  0  0  0  0
  6  2  1  0  0  0  0
  7  6  1  0  0  0  0
  8 14  1  0  0  0  0
  9 12  1  0  0  0  0
  9 17  1  0  0  0  0
 10 12  1  0  0  0  0
 11 10  1  0  0  0  0
 13 16  1  0  0  0  0
 13 11  1  0  0  0  0
 14 17  2  0  0  0  0
 14  4  1  0  0  0  0
 15 18  1  0  0  0  0
 15  8  2  0  0  0  0
 16 18  1  0  0  0  0
 18  9  2  0  0  0  0
 19 21  1  0  0  0  0
 19 20  1  0  0  0  0
 21 20  1  0  0  0  0
 22 20  1  0  0  0  0
 22 24  1  0  0  0  0
 23 22  2  0  0  0  0
 25 23  1  0  0  0  0
 25 28  2  0  0  0  0
 26 25  1  0  0  0  0
 27 23  1  0  0  0  0
 28 29  1  0  0  0  0
 29 24  2  0  0  0  0
 30 28  1  0  0  0  0
 31 30  1  0  0  0  0
M  END
>  <MODEL>
8

>  <REMARK>
 VINA RESULT:      -8.2      3.370      8.424
  Name = 
  4 active torsions:
  status: ('A' for Active; 'I' for Inactive)
    1  A    between atoms: N_1  and  C_11
    2  A    between atoms: C_3  and  C_11
    3  A    between atoms: O_13  and  C_22
    4  A    between atoms: C_14  and  C_24
                            x       y       z     vdW  Elec       q    Type
                         _______ _______ _______ _____ _____    ______ ____

>  <TORSDO>
F 4

$$$$
=
 OpenBabel11072412383D

 31 36  0  0  1  0  0  0  0  0999 V2000
  160.8210  208.3240  151.4280 N   0  0  2  0  0  0  0  0  0  0  0  0
  162.5530  209.7130  148.8170 C   0  0  0  0  0  2  0  0  0  0  0  0
  161.7830  207.6330  150.5510 C   0  0  1  0  0  3  0  0  0  0  0  0
  161.2100  207.5800  149.1380 C   0  0  1  0  0  3  0  0  0  0  0  0
  162.0280  208.4300  148.1580 C   0  0  0  0  0  2  0  0  0  0  0  0
  161.8080  210.0230  150.0380 N   0  0  0  0  0  2  0  0  0  0  0  0
  162.0850  208.9890  151.0420 C   0  0  1  0  0  3  0  0  0  0  0  0
  161.2900  205.7570  147.3900 C   0  0  0  0  0  3  0  0  0  0  0  0
  160.8500  203.8210  149.3700 C   0  0  0  0  0  0  0  0  0  0  0  0
  159.8640  201.6760  150.0910 C   0  0  0  0  0  2  0  0  0  0  0  0
  160.8120  200.6020  149.5750 C   0  0  0  0  0  2  0  0  0  0  0  0
  160.5380  202.8970  150.3720 O   0  0  0  0  0  0  0  0  0  0  0  0
  161.8350  201.1260  148.5760 C   0  0  0  0  0  2  0  0  0  0  0  0
  161.0690  206.1520  148.7160 C   0  0  0  0  0  0  0  0  0  0  0  0
  161.3070  204.4010  147.0550 C   0  0  0  0  0  3  0  0  0  0  0  0
  161.2730  202.0830  147.6820 O   0  0  0  0  0  0  0  0  0  0  0  0
  160.8590  205.1800  149.6990 C   0  0  0  0  0  3  0  0  0  0  0  0
  161.1250  203.4260  148.0410 C   0  0  0  0  0  0  0  0  0  0  0  0
  160.6990  206.1760  152.8590 C   0  0  0  0  0  2  0  0  0  0  0  0
  160.9230  207.6790  152.7420 C   0  0  0  0  0  0  0  0  0  0  0  0
  162.1070  206.7270  152.7710 C   0  0  0  0  0  2  0  0  0  0  0  0
  160.8980  208.5750  153.9590 C   0  0  0  0  0  0  0  0  0  0  0  0
  160.2960  209.8510  153.9270 C   0  0  0  0  0  0  0  0  0  0  0  0
  161.6290  208.1910  155.0920 C   0  0  0  0  0  3  0  0  0  0  0  0
  160.4160  210.7080  155.0330 C   0  0  0  0  0  0  0  0  0  0  0  0
  159.8430  211.9380  155.0040 F   0  0  0  0  0  0  0  0  0  0  0  0
  159.4230  210.4180  152.5050 Cl  0  0  0  0  0  0  0  0  0  0  0  0
  161.1400  210.3120  156.1640 C   0  0  0  0  0  0  0  0  0  0  0  0
  161.7430  209.0460  156.1870 C   0  0  0  0  0  3  0  0  0  0  0  0
  161.2540  211.1920  157.2450 O   0  0  0  0  0  0  0  0  0  0  0  0
  162.1680  212.2800  157.2570 C   0  0  0  0  0  1  0  0  0  0  0  0
  1 20  1  1  0  0  0
  2  6  1  0  0  0  0
  3  7  1  0  0  0  0
  3  1  1  0  0  0  0
  4  3  1  0  0  0  0
  5  2  1  0  0  0  0
  5  4  1  0  0  0  0
  6  7  1  0  0  0  0
  7  1  1  0  0  0  0
  8 14  1  0  0  0  0
  9 17  1  0  0  0  0
  9 12  1  0  0  0  0
 10 12  1  0  0  0  0
 11 10  1  0  0  0  0
 13 11  1  0  0  0  0
 14  4  1  0  0  0  0
 14 17  2  0  0  0  0
 15  8  2  0  0  0  0
 15 18  1  0  0  0  0
 16 18  1  0  0  0  0
 16 13  1  0  0  0  0
 18  9  2  0  0  0  0
 20 21  1  0  0  0  0
 20 19  1  0  0  0  0
 20 22  1  0  0  0  0
 21 19  1  0  0  0  0
 22 24  1  0  0  0  0
 23 22  2  0  0  0  0
 23 25  1  0  0  0  0
 24 29  2  0  0  0  0
 25 28  2  0  0  0  0
 26 25  1  0  0  0  0
 27 23  1  0  0  0  0
 28 29  1  0  0  0  0
 28 30  1  0  0  0  0
 30 31  1  0  0  0  0
M  END
>  <MODEL>
9

>  <REMARK>
 VINA RESULT:      -8.1      2.036      3.537
  Name = 
  4 active torsions:
  status: ('A' for Active; 'I' for Inactive)
    1  A    between atoms: N_1  and  C_11
    2  A    between atoms: C_3  and  C_11
    3  A    between atoms: O_13  and  C_22
    4  A    between atoms: C_14  and  C_24
                            x       y       z     vdW  Elec       q    Type
                         _______ _______ _______ _____ _____    ______ ____

>  <TORSDO>
F 4

$$$$
