=
 OpenBabel11072412143D

 31 33  0  0  1  0  0  0  0  0999 V2000
  161.3260  203.2660  149.2380 C   0  0  1  0  0  3  0  0  0  0  0  0
  162.2380  207.5030  147.6920 N   0  0  0  0  0  2  0  0  0  0  0  0
  161.0730  205.6150  148.5890 N   0  0  0  0  0  0  0  0  0  0  0  0
  161.9130  205.2930  146.4420 C   0  0  1  0  0  3  0  0  0  0  0  0
  161.1800  204.0150  146.8370 C   0  0  0  0  0  2  0  0  0  0  0  0
  160.6760  204.2560  148.2640 C   0  0  1  0  0  3  0  0  0  0  0  0
  161.7370  206.1600  147.6310 C   0  0  0  0  0  0  0  0  0  0  0  0
  161.9360  210.6470  149.6700 C   0  0  0  0  0  0  0  0  0  0  0  0
  162.3440  207.9250  150.1370 C   0  0  0  0  0  3  0  0  0  0  0  0
  162.1850  208.3870  148.8210 C   0  0  0  0  0  0  0  0  0  0  0  0
  161.7400  211.9680  149.4420 F   0  0  0  0  0  0  0  0  0  0  0  0
  162.2950  208.8180  151.2100 C   0  0  0  0  0  3  0  0  0  0  0  0
  162.0920  210.1800  150.9770 C   0  0  0  0  0  3  0  0  0  0  0  0
  161.9840  209.7540  148.5950 C   0  0  0  0  0  3  0  0  0  0  0  0
  163.5470  203.9040  145.3260 O   0  0  0  0  0  1  0  0  0  0  0  0
  163.3880  205.0160  146.1600 C   0  0  0  0  0  2  0  0  0  0  0  0
  161.4060  204.9250  152.3860 C   0  0  0  0  0  0  0  0  0  0  0  0
  160.7210  203.8010  152.8020 C   0  0  0  0  0  3  0  0  0  0  0  0
  161.2070  203.7270  150.6580 C   0  0  0  0  0  0  0  0  0  0  0  0
  160.5930  203.0130  151.6680 C   0  0  0  0  0  3  0  0  0  0  0  0
  161.6810  204.8620  151.1090 O   0  0  0  0  0  0  0  0  0  0  0  0
  161.7640  206.0780  153.2560 C   0  0  0  0  0  2  0  0  0  0  0  0
  160.6140  206.5690  153.8770 O   0  0  0  0  0  0  0  0  0  0  0  0
  161.0680  207.5820  154.7230 C   0  0  1  0  0  3  0  0  0  0  0  0
  160.6910  208.8240  154.2090 O   0  0  0  0  0  1  0  0  0  0  0  0
  159.2990  207.0090  156.2100 O   0  0  0  0  0  0  0  0  0  0  0  0
  161.2490  207.6790  157.2130 O   0  0  0  0  0  1  0  0  0  0  0  0
  160.4880  207.4040  156.0830 C   0  0  0  0  0  0  0  0  0  0  0  0
  159.5140  201.6980  149.1310 O   0  0  0  0  0  0  0  0  0  0  0  0
  161.6360  200.7800  148.9220 N   0  0  0  0  0  1  0  0  0  0  0  0
  160.7580  201.8870  149.0920 C   0  0  0  0  0  0  0  0  0  0  0  0
  1 31  1  1  0  0  0
  1 19  1  0  0  0  0
  2 10  1  0  0  0  0
  4 16  1  1  0  0  0
  4  5  1  0  0  0  0
  4  7  1  0  0  0  0
  5  6  1  0  0  0  0
  6  3  1  0  0  0  0
  6  1  1  1  0  0  0
  7  2  1  0  0  0  0
  7  3  2  0  0  0  0
  8 13  1  0  0  0  0
  9 12  1  0  0  0  0
 10  9  2  0  0  0  0
 11  8  1  0  0  0  0
 13 12  2  0  0  0  0
 14 10  1  0  0  0  0
 14  8  2  0  0  0  0
 15 16  1  0  0  0  0
 17 18  2  0  0  0  0
 17 22  1  0  0  0  0
 19 21  1  0  0  0  0
 19 20  2  0  0  0  0
 20 18  1  0  0  0  0
 21 17  1  0  0  0  0
 22 23  1  0  0  0  0
 23 24  1  0  0  0  0
 24 25  1  6  0  0  0
 24 28  1  0  0  0  0
 28 26  2  0  0  0  0
 28 27  1  0  0  0  0
 30 31  1  0  0  0  0
 31 29  2  0  0  0  0
M  END
>  <MODEL>
1

>  <REMARK>
 VINA RESULT:      -7.6      0.000      0.000
  Name = 
  9 active torsions:
  status: ('A' for Active; 'I' for Inactive)
    1  A    between atoms: C_4  and  N_5
    2  A    between atoms: C_6  and  C_16
    3  A    between atoms: C_9  and  C_24
    4  A    between atoms: C_11  and  O_15
    5  A    between atoms: C_11  and  C_21
    6  A    between atoms: C_14  and  C_18
    7  A    between atoms: C_14  and  C_23
    8  A    between atoms: C_14  and  C_30
    9  A    between atoms: O_15  and  C_16
                            x       y       z     vdW  Elec       q    Type
                         _______ _______ _______ _____ _____    ______ ____

>  <TORSDO>
F 9

$$$$
=
 OpenBabel11072412143D

 31 33  0  0  1  0  0  0  0  0999 V2000
  160.8700  208.3010  152.1130 C   0  0  1  0  0  3  0  0  0  0  0  0
  159.6430  212.7000  152.6740 N   0  0  0  0  0  2  0  0  0  0  0  0
  160.8520  210.7480  151.9990 N   0  0  0  0  0  0  0  0  0  0  0  0
  160.6910  211.0290  154.3040 C   0  0  1  0  0  3  0  0  0  0  0  0
  161.5130  209.7680  154.0580 C   0  0  0  0  0  2  0  0  0  0  0  0
  161.5630  209.6020  152.5350 C   0  0  1  0  0  3  0  0  0  0  0  0
  160.3800  211.4970  152.9330 C   0  0  0  0  0  0  0  0  0  0  0  0
  157.4450  213.5240  149.7790 C   0  0  0  0  0  0  0  0  0  0  0  0
  160.1320  213.7800  150.4920 C   0  0  0  0  0  3  0  0  0  0  0  0
  159.2280  213.1920  151.3910 C   0  0  0  0  0  0  0  0  0  0  0  0
  156.1410  213.3990  149.4330 F   0  0  0  0  0  0  0  0  0  0  0  0
  159.6930  214.2390  149.2470 C   0  0  0  0  0  3  0  0  0  0  0  0
  158.3490  214.1100  148.8900 C   0  0  0  0  0  3  0  0  0  0  0  0
  157.8840  213.0650  151.0250 C   0  0  0  0  0  3  0  0  0  0  0  0
  159.5810  209.5630  155.8750 O   0  0  0  0  0  1  0  0  0  0  0  0
  159.4220  210.7120  155.0930 C   0  0  0  0  0  2  0  0  0  0  0  0
  161.2020  206.8920  148.8620 C   0  0  0  0  0  0  0  0  0  0  0  0
  162.1460  207.8890  148.7150 C   0  0  0  0  0  3  0  0  0  0  0  0
  161.2100  207.9240  150.7050 C   0  0  0  0  0  0  0  0  0  0  0  0
  162.1530  208.5650  149.9250 C   0  0  0  0  0  3  0  0  0  0  0  0
  160.6570  206.9340  150.0490 O   0  0  0  0  0  0  0  0  0  0  0  0
  160.8240  205.9120  147.8080 C   0  0  0  0  0  2  0  0  0  0  0  0
  161.7490  205.9680  146.7640 O   0  0  0  0  0  0  0  0  0  0  0  0
  162.1140  204.6400  146.5380 C   0  0  1  0  0  3  0  0  0  0  0  0
  161.7990  203.8700  147.6580 O   0  0  0  0  0  1  0  0  0  0  0  0
  161.0370  202.9060  145.3110 O   0  0  0  0  0  1  0  0  0  0  0  0
  161.1130  204.9460  144.2690 O   0  0  0  0  0  0  0  0  0  0  0  0
  161.3910  204.1130  145.3460 C   0  0  0  0  0  0  0  0  0  0  0  0
  160.4740  206.9460  154.0540 O   0  0  0  0  0  0  0  0  0  0  0  0
  162.3290  206.3550  152.7890 N   0  0  0  0  0  1  0  0  0  0  0  0
  161.1920  207.1710  153.0440 C   0  0  0  0  0  0  0  0  0  0  0  0
  1 31  1  1  0  0  0
  2  7  1  0  0  0  0
  3  6  1  0  0  0  0
  3  7  2  0  0  0  0
  4 16  1  1  0  0  0
  5  4  1  0  0  0  0
  6  1  1  1  0  0  0
  6  5  1  0  0  0  0
  7  4  1  0  0  0  0
  8 14  1  0  0  0  0
  9 10  1  0  0  0  0
 10  2  1  0  0  0  0
 11  8  1  0  0  0  0
 12  9  2  0  0  0  0
 13 12  1  0  0  0  0
 13  8  2  0  0  0  0
 14 10  2  0  0  0  0
 16 15  1  0  0  0  0
 17 21  1  0  0  0  0
 18 17  2  0  0  0  0
 18 20  1  0  0  0  0
 19  1  1  0  0  0  0
 20 19  2  0  0  0  0
 21 19  1  0  0  0  0
 22 17  1  0  0  0  0
 23 22  1  0  0  0  0
 24 23  1  0  0  0  0
 24 25  1  1  0  0  0
 26 28  1  0  0  0  0
 27 28  2  0  0  0  0
 28 24  1  0  0  0  0
 30 31  1  0  0  0  0
 31 29  2  0  0  0  0
M  END
>  <MODEL>
2

>  <REMARK>
 VINA RESULT:      -7.5      3.449      7.779
  Name = 
  9 active torsions:
  status: ('A' for Active; 'I' for Inactive)
    1  A    between atoms: C_4  and  N_5
    2  A    between atoms: C_6  and  C_16
    3  A    between atoms: C_9  and  C_24
    4  A    between atoms: C_11  and  O_15
    5  A    between atoms: C_11  and  C_21
    6  A    between atoms: C_14  and  C_18
    7  A    between atoms: C_14  and  C_23
    8  A    between atoms: C_14  and  C_30
    9  A    between atoms: O_15  and  C_16
                            x       y       z     vdW  Elec       q    Type
                         _______ _______ _______ _____ _____    ______ ____

>  <TORSDO>
F 9

$$$$
=
 OpenBabel11072412143D

 31 33  0  0  1  0  0  0  0  0999 V2000
  160.8380  208.2830  152.2490 C   0  0  1  0  0  3  0  0  0  0  0  0
  159.7140  212.7300  152.6190 N   0  0  0  0  0  2  0  0  0  0  0  0
  160.8610  210.7210  152.0060 N   0  0  0  0  0  0  0  0  0  0  0  0
  160.7880  211.1240  154.2980 C   0  0  1  0  0  3  0  0  0  0  0  0
  161.5770  209.8360  154.0900 C   0  0  0  0  0  2  0  0  0  0  0  0
  161.5700  209.5900  152.5770 C   0  0  1  0  0  3  0  0  0  0  0  0
  160.4370  211.5270  152.9150 C   0  0  0  0  0  0  0  0  0  0  0  0
  157.4230  213.4830  149.7770 C   0  0  0  0  0  0  0  0  0  0  0  0
  160.1500  213.6500  150.3540 C   0  0  0  0  0  3  0  0  0  0  0  0
  159.2630  213.1630  151.3270 C   0  0  0  0  0  0  0  0  0  0  0  0
  156.1000  213.4010  149.4980 F   0  0  0  0  0  0  0  0  0  0  0  0
  159.6750  214.0540  149.1040 C   0  0  0  0  0  3  0  0  0  0  0  0
  158.3100  213.9700  148.8150 C   0  0  0  0  0  3  0  0  0  0  0  0
  157.8980  213.0800  151.0290 C   0  0  0  0  0  3  0  0  0  0  0  0
  159.8250  210.0430  156.2340 O   0  0  0  0  0  1  0  0  0  0  0  0
  159.5430  210.8750  155.1460 C   0  0  0  0  0  2  0  0  0  0  0  0
  161.2820  206.5240  149.1870 C   0  0  0  0  0  0  0  0  0  0  0  0
  162.1410  207.5700  148.9110 C   0  0  0  0  0  3  0  0  0  0  0  0
  161.2070  207.7690  150.8920 C   0  0  0  0  0  0  0  0  0  0  0  0
  162.0940  208.3850  150.0310 C   0  0  0  0  0  3  0  0  0  0  0  0
  160.7360  206.6650  150.3660 O   0  0  0  0  0  0  0  0  0  0  0  0
  160.9840  205.3970  148.2620 C   0  0  0  0  0  2  0  0  0  0  0  0
  161.7240  204.2750  148.6410 O   0  0  0  0  0  0  0  0  0  0  0  0
  160.7800  203.2570  148.7860 C   0  0  1  0  0  3  0  0  0  0  0  0
  161.0450  202.2400  147.8690 O   0  0  0  0  0  1  0  0  0  0  0  0
  161.0470  201.4840  150.3540 O   0  0  0  0  0  0  0  0  0  0  0  0
  160.6460  203.5490  151.2640 O   0  0  0  0  0  1  0  0  0  0  0  0
  160.8360  202.7110  150.1720 C   0  0  0  0  0  0  0  0  0  0  0  0
  160.3250  207.1220  154.2850 O   0  0  0  0  0  0  0  0  0  0  0  0
  162.1980  206.3560  153.1480 N   0  0  0  0  0  1  0  0  0  0  0  0
  161.0850  207.2300  153.2870 C   0  0  0  0  0  0  0  0  0  0  0  0
  1 31  1  1  0  0  0
  2  7  1  0  0  0  0
  3  6  1  0  0  0  0
  3  7  2  0  0  0  0
  4 16  1  1  0  0  0
  5  4  1  0  0  0  0
  6  1  1  1  0  0  0
  6  5  1  0  0  0  0
  7  4  1  0  0  0  0
  8 14  1  0  0  0  0
  9 10  1  0  0  0  0
 10  2  1  0  0  0  0
 11  8  1  0  0  0  0
 12  9  2  0  0  0  0
 13 12  1  0  0  0  0
 13  8  2  0  0  0  0
 14 10  2  0  0  0  0
 16 15  1  0  0  0  0
 17 21  1  0  0  0  0
 18 17  2  0  0  0  0
 18 20  1  0  0  0  0
 19  1  1  0  0  0  0
 20 19  2  0  0  0  0
 21 19  1  0  0  0  0
 22 23  1  0  0  0  0
 22 17  1  0  0  0  0
 23 24  1  0  0  0  0
 24 25  1  6  0  0  0
 24 28  1  0  0  0  0
 28 26  2  0  0  0  0
 28 27  1  0  0  0  0
 30 31  1  0  0  0  0
 31 29  2  0  0  0  0
M  END
>  <MODEL>
3

>  <REMARK>
 VINA RESULT:      -7.3      3.384      7.163
  Name = 
  9 active torsions:
  status: ('A' for Active; 'I' for Inactive)
    1  A    between atoms: C_4  and  N_5
    2  A    between atoms: C_6  and  C_16
    3  A    between atoms: C_9  and  C_24
    4  A    between atoms: C_11  and  O_15
    5  A    between atoms: C_11  and  C_21
    6  A    between atoms: C_14  and  C_18
    7  A    between atoms: C_14  and  C_23
    8  A    between atoms: C_14  and  C_30
    9  A    between atoms: O_15  and  C_16
                            x       y       z     vdW  Elec       q    Type
                         _______ _______ _______ _____ _____    ______ ____

>  <TORSDO>
F 9

$$$$
=
 OpenBabel11072412143D

 31 33  0  0  1  0  0  0  0  0999 V2000
  161.5770  208.0710  150.3250 C   0  0  1  0  0  3  0  0  0  0  0  0
  161.3040  204.2240  147.8160 N   0  0  0  0  0  2  0  0  0  0  0  0
  162.1070  205.8980  149.3250 N   0  0  0  0  0  0  0  0  0  0  0  0
  161.8150  206.6380  147.1370 C   0  0  1  0  0  3  0  0  0  0  0  0
  162.3580  207.8130  147.9430 C   0  0  0  0  0  2  0  0  0  0  0  0
  162.5010  207.2950  149.3790 C   0  0  1  0  0  3  0  0  0  0  0  0
  161.7330  205.5530  148.1430 C   0  0  0  0  0  0  0  0  0  0  0  0
  160.8340  202.3750  151.0180 C   0  0  0  0  0  0  0  0  0  0  0  0
  161.0650  201.7990  148.2960 C   0  0  0  0  0  3  0  0  0  0  0  0
  161.1190  203.1330  148.7300 C   0  0  0  0  0  0  0  0  0  0  0  0
  160.7230  202.6550  152.3390 F   0  0  0  0  0  0  0  0  0  0  0  0
  160.8930  200.7620  149.2170 C   0  0  0  0  0  3  0  0  0  0  0  0
  160.7780  201.0500  150.5790 C   0  0  0  0  0  3  0  0  0  0  0  0
  161.0050  203.4130  150.0960 C   0  0  0  0  0  3  0  0  0  0  0  0
  160.2590  206.3320  145.3120 O   0  0  0  0  0  1  0  0  0  0  0  0
  160.4450  206.9640  146.5460 C   0  0  0  0  0  2  0  0  0  0  0  0
  160.9180  207.0340  153.6650 C   0  0  0  0  0  0  0  0  0  0  0  0
  161.5850  205.8950  153.2600 C   0  0  0  0  0  3  0  0  0  0  0  0
  161.4370  207.3840  151.6480 C   0  0  0  0  0  0  0  0  0  0  0  0
  161.9280  206.1260  151.9370 C   0  0  0  0  0  3  0  0  0  0  0  0
  160.8390  207.9030  152.6920 O   0  0  0  0  0  0  0  0  0  0  0  0
  160.3350  207.2470  155.0170 C   0  0  0  0  0  2  0  0  0  0  0  0
  161.2870  207.8400  155.8490 O   0  0  0  0  0  0  0  0  0  0  0  0
  160.8600  209.1610  155.9970 C   0  0  1  0  0  3  0  0  0  0  0  0
  160.2920  209.3300  157.2600 O   0  0  0  0  0  1  0  0  0  0  0  0
  162.2280  210.6380  154.7260 O   0  0  0  0  0  0  0  0  0  0  0  0
  162.8660  210.3390  156.9070 O   0  0  0  0  0  1  0  0  0  0  0  0
  162.0160  210.0870  155.8370 C   0  0  0  0  0  0  0  0  0  0  0  0
  162.6870  209.8100  151.5510 O   0  0  0  0  0  0  0  0  0  0  0  0
  161.7310  210.4660  149.5400 N   0  0  0  0  0  1  0  0  0  0  0  0
  162.0400  209.4830  150.5210 C   0  0  0  0  0  0  0  0  0  0  0  0
  1 31  1  1  0  0  0
  1 19  1  0  0  0  0
  2  7  1  0  0  0  0
  2 10  1  0  0  0  0
  3  6  1  0  0  0  0
  4 16  1  1  0  0  0
  4  5  1  0  0  0  0
  4  7  1  0  0  0  0
  5  6  1  0  0  0  0
  6  1  1  1  0  0  0
  7  3  2  0  0  0  0
  8 11  1  0  0  0  0
  9 10  2  0  0  0  0
  9 12  1  0  0  0  0
 10 14  1  0  0  0  0
 12 13  2  0  0  0  0
 13  8  1  0  0  0  0
 14  8  2  0  0  0  0
 15 16  1  0  0  0  0
 17 22  1  0  0  0  0
 18 17  2  0  0  0  0
 19 20  2  0  0  0  0
 19 21  1  0  0  0  0
 20 18  1  0  0  0  0
 21 17  1  0  0  0  0
 22 23  1  0  0  0  0
 23 24  1  0  0  0  0
 24 25  1  1  0  0  0
 26 28  2  0  0  0  0
 28 24  1  0  0  0  0
 28 27  1  0  0  0  0
 30 31  1  0  0  0  0
 31 29  2  0  0  0  0
M  END
>  <MODEL>
4

>  <REMARK>
 VINA RESULT:      -7.2      2.728      5.377
  Name = 
  9 active torsions:
  status: ('A' for Active; 'I' for Inactive)
    1  A    between atoms: C_4  and  N_5
    2  A    between atoms: C_6  and  C_16
    3  A    between atoms: C_9  and  C_24
    4  A    between atoms: C_11  and  O_15
    5  A    between atoms: C_11  and  C_21
    6  A    between atoms: C_14  and  C_18
    7  A    between atoms: C_14  and  C_23
    8  A    between atoms: C_14  and  C_30
    9  A    between atoms: O_15  and  C_16
                            x       y       z     vdW  Elec       q    Type
                         _______ _______ _______ _____ _____    ______ ____

>  <TORSDO>
F 9

$$$$
=
 OpenBabel11072412143D

 31 33  0  0  1  0  0  0  0  0999 V2000
  160.4140  208.8350  154.0270 C   0  0  1  0  0  3  0  0  0  0  0  0
  159.2950  213.1970  153.0790 N   0  0  0  0  0  2  0  0  0  0  0  0
  160.5000  211.1320  153.1770 N   0  0  0  0  0  0  0  0  0  0  0  0
  160.0850  212.1010  155.2530 C   0  0  1  0  0  3  0  0  0  0  0  0
  160.8820  210.8250  155.5010 C   0  0  0  0  0  2  0  0  0  0  0  0
  161.1020  210.2030  154.1170 C   0  0  1  0  0  3  0  0  0  0  0  0
  159.9520  212.1290  153.7770 C   0  0  0  0  0  0  0  0  0  0  0  0
  159.9430  213.4870  149.4200 C   0  0  0  0  0  0  0  0  0  0  0  0
  157.7520  213.2480  151.1350 C   0  0  0  0  0  3  0  0  0  0  0  0
  159.0500  213.2760  151.6670 C   0  0  0  0  0  0  0  0  0  0  0  0
  161.0060  213.6050  148.5890 F   0  0  0  0  0  0  0  0  0  0  0  0
  157.5520  213.3360  149.7540 C   0  0  0  0  0  3  0  0  0  0  0  0
  158.6480  213.4570  148.8970 C   0  0  0  0  0  3  0  0  0  0  0  0
  160.1430  213.3990  150.8020 C   0  0  0  0  0  3  0  0  0  0  0  0
  157.8960  211.0790  155.3490 O   0  0  0  0  0  1  0  0  0  0  0  0
  158.7220  212.0390  155.9410 C   0  0  0  0  0  2  0  0  0  0  0  0
  161.3780  207.4620  150.8880 C   0  0  0  0  0  0  0  0  0  0  0  0
  161.8400  206.4270  151.6770 C   0  0  0  0  0  3  0  0  0  0  0  0
  160.9270  208.0340  152.8710 C   0  0  0  0  0  0  0  0  0  0  0  0
  161.5410  206.8020  152.9780 C   0  0  0  0  0  3  0  0  0  0  0  0
  160.8430  208.4060  151.6170 O   0  0  0  0  0  0  0  0  0  0  0  0
  161.4940  207.5220  149.4060 C   0  0  0  0  0  2  0  0  0  0  0  0
  160.4640  206.7770  148.8260 O   0  0  0  0  0  0  0  0  0  0  0  0
  161.0520  206.1520  147.7250 C   0  0  1  0  0  3  0  0  0  0  0  0
  162.2550  206.7870  147.4140 O   0  0  0  0  0  1  0  0  0  0  0  0
  160.8470  204.2140  149.0940 O   0  0  0  0  0  1  0  0  0  0  0  0
  162.0530  203.9320  147.1650 O   0  0  0  0  0  0  0  0  0  0  0  0
  161.3050  204.7170  148.0350 C   0  0  0  0  0  0  0  0  0  0  0  0
  161.6520  208.0220  155.9140 O   0  0  0  0  0  0  0  0  0  0  0  0
  159.4360  207.3380  155.8090 N   0  0  0  0  0  1  0  0  0  0  0  0
  160.5530  208.0570  155.3000 C   0  0  0  0  0  0  0  0  0  0  0  0
  1 31  1  1  0  0  0
  2  7  1  0  0  0  0
  3  7  2  0  0  0  0
  3  6  1  0  0  0  0
  4  5  1  0  0  0  0
  4 16  1  1  0  0  0
  6  1  1  1  0  0  0
  6  5  1  0  0  0  0
  7  4  1  0  0  0  0
  8 14  1  0  0  0  0
  9 10  1  0  0  0  0
 10  2  1  0  0  0  0
 11  8  1  0  0  0  0
 12  9  2  0  0  0  0
 13  8  2  0  0  0  0
 13 12  1  0  0  0  0
 14 10  2  0  0  0  0
 15 16  1  0  0  0  0
 17 21  1  0  0  0  0
 17 18  2  0  0  0  0
 18 20  1  0  0  0  0
 19 20  2  0  0  0  0
 19  1  1  0  0  0  0
 21 19  1  0  0  0  0
 22 17  1  0  0  0  0
 23 22  1  0  0  0  0
 24 25  1  1  0  0  0
 24 28  1  0  0  0  0
 24 23  1  0  0  0  0
 27 28  2  0  0  0  0
 28 26  1  0  0  0  0
 31 30  1  0  0  0  0
 31 29  2  0  0  0  0
M  END
>  <MODEL>
5

>  <REMARK>
 VINA RESULT:      -6.9      3.800      7.734
  Name = 
  9 active torsions:
  status: ('A' for Active; 'I' for Inactive)
    1  A    between atoms: C_4  and  N_5
    2  A    between atoms: C_6  and  C_16
    3  A    between atoms: C_9  and  C_24
    4  A    between atoms: C_11  and  O_15
    5  A    between atoms: C_11  and  C_21
    6  A    between atoms: C_14  and  C_18
    7  A    between atoms: C_14  and  C_23
    8  A    between atoms: C_14  and  C_30
    9  A    between atoms: O_15  and  C_16
                            x       y       z     vdW  Elec       q    Type
                         _______ _______ _______ _____ _____    ______ ____

>  <TORSDO>
F 9

$$$$
=
 OpenBabel11072412143D

 31 33  0  0  1  0  0  0  0  0999 V2000
  160.9010  208.3670  151.6990 C   0  0  1  0  0  3  0  0  0  0  0  0
  160.4830  212.7660  150.4150 N   0  0  0  0  0  2  0  0  0  0  0  0
  161.4410  210.6510  150.9940 N   0  0  0  0  0  0  0  0  0  0  0  0
  160.2200  211.6530  152.7040 C   0  0  1  0  0  3  0  0  0  0  0  0
  160.7800  210.3460  153.2550 C   0  0  0  0  0  2  0  0  0  0  0  0
  161.5430  209.7040  152.0900 C   0  0  1  0  0  3  0  0  0  0  0  0
  160.7320  211.6760  151.3140 C   0  0  0  0  0  0  0  0  0  0  0  0
  160.2060  213.0410  146.7080 C   0  0  0  0  0  0  0  0  0  0  0  0
  162.2120  212.7800  148.6320 C   0  0  0  0  0  3  0  0  0  0  0  0
  160.8690  212.8440  149.0340 C   0  0  0  0  0  0  0  0  0  0  0  0
  159.2320  213.1670  145.7750 F   0  0  0  0  0  0  0  0  0  0  0  0
  162.5490  212.8500  147.2780 C   0  0  0  0  0  3  0  0  0  0  0  0
  161.5450  212.9800  146.3150 C   0  0  0  0  0  3  0  0  0  0  0  0
  159.8690  212.9720  148.0640 C   0  0  0  0  0  3  0  0  0  0  0  0
  158.2160  211.4280  154.0380 O   0  0  0  0  0  1  0  0  0  0  0  0
  158.6940  211.6570  152.7430 C   0  0  0  0  0  2  0  0  0  0  0  0
  161.3840  206.8510  148.5150 C   0  0  0  0  0  0  0  0  0  0  0  0
  162.3770  207.8040  148.4040 C   0  0  0  0  0  3  0  0  0  0  0  0
  161.3160  207.9360  150.3260 C   0  0  0  0  0  0  0  0  0  0  0  0
  162.3340  208.5140  149.5940 C   0  0  0  0  0  3  0  0  0  0  0  0
  160.7640  206.9510  149.6620 O   0  0  0  0  0  0  0  0  0  0  0  0
  161.0320  205.8580  147.4650 C   0  0  0  0  0  2  0  0  0  0  0  0
  162.1820  205.4960  146.7610 O   0  0  0  0  0  0  0  0  0  0  0  0
  161.9710  204.1670  146.3880 C   0  0  1  0  0  3  0  0  0  0  0  0
  161.2670  203.5060  147.3950 O   0  0  0  0  0  1  0  0  0  0  0  0
  160.4430  203.1360  144.8800 O   0  0  0  0  0  1  0  0  0  0  0  0
  161.3080  205.1420  144.1850 O   0  0  0  0  0  0  0  0  0  0  0  0
  161.1960  204.1170  145.1160 C   0  0  0  0  0  0  0  0  0  0  0  0
  160.4970  207.1460  153.7240 O   0  0  0  0  0  0  0  0  0  0  0  0
  162.3220  206.4320  152.4800 N   0  0  0  0  0  1  0  0  0  0  0  0
  161.2070  207.2900  152.6950 C   0  0  0  0  0  0  0  0  0  0  0  0
  1 31  1  1  0  0  0
  2  7  1  0  0  0  0
  3  7  2  0  0  0  0
  3  6  1  0  0  0  0
  4 16  1  6  0  0  0
  4  5  1  0  0  0  0
  6  1  1  6  0  0  0
  6  5  1  0  0  0  0
  7  4  1  0  0  0  0
  8 14  1  0  0  0  0
  9 10  1  0  0  0  0
 10  2  1  0  0  0  0
 11  8  1  0  0  0  0
 12  9  2  0  0  0  0
 13  8  2  0  0  0  0
 13 12  1  0  0  0  0
 14 10  2  0  0  0  0
 16 15  1  0  0  0  0
 17 21  1  0  0  0  0
 18 17  2  0  0  0  0
 18 20  1  0  0  0  0
 19  1  1  0  0  0  0
 20 19  2  0  0  0  0
 21 19  1  0  0  0  0
 22 17  1  0  0  0  0
 23 22  1  0  0  0  0
 24 23  1  0  0  0  0
 24 25  1  1  0  0  0
 26 28  1  0  0  0  0
 27 28  2  0  0  0  0
 28 24  1  0  0  0  0
 30 31  1  0  0  0  0
 31 29  2  0  0  0  0
M  END
>  <MODEL>
6

>  <REMARK>
 VINA RESULT:      -6.6      2.965      7.504
  Name = 
  9 active torsions:
  status: ('A' for Active; 'I' for Inactive)
    1  A    between atoms: C_4  and  N_5
    2  A    between atoms: C_6  and  C_16
    3  A    between atoms: C_9  and  C_24
    4  A    between atoms: C_11  and  O_15
    5  A    between atoms: C_11  and  C_21
    6  A    between atoms: C_14  and  C_18
    7  A    between atoms: C_14  and  C_23
    8  A    between atoms: C_14  and  C_30
    9  A    between atoms: O_15  and  C_16
                            x       y       z     vdW  Elec       q    Type
                         _______ _______ _______ _____ _____    ______ ____

>  <TORSDO>
F 9

$$$$
=
 OpenBabel11072412143D

 31 33  0  0  1  0  0  0  0  0999 V2000
  159.5230  212.3800  154.2280 C   0  0  1  0  0  3  0  0  0  0  0  0
  161.3820  208.2880  153.2410 N   0  0  0  0  0  2  0  0  0  0  0  0
  159.8000  210.0700  153.4590 N   0  0  0  0  0  0  0  0  0  0  0  0
  160.6840  209.3200  155.4770 C   0  0  1  0  0  3  0  0  0  0  0  0
  159.6800  210.4210  155.8040 C   0  0  0  0  0  2  0  0  0  0  0  0
  159.1510  210.9090  154.4510 C   0  0  1  0  0  3  0  0  0  0  0  0
  160.6190  209.2380  153.9990 C   0  0  0  0  0  0  0  0  0  0  0  0
  160.9860  206.8940  149.8080 C   0  0  0  0  0  0  0  0  0  0  0  0
  162.0150  209.1910  151.0160 C   0  0  0  0  0  3  0  0  0  0  0  0
  161.4450  208.1840  151.8110 C   0  0  0  0  0  0  0  0  0  0  0  0
  160.4870  205.7790  149.2220 F   0  0  0  0  0  0  0  0  0  0  0  0
  162.0670  209.0500  149.6270 C   0  0  0  0  0  3  0  0  0  0  0  0
  161.5530  207.9000  149.0220 C   0  0  0  0  0  3  0  0  0  0  0  0
  160.9340  207.0350  151.1980 C   0  0  0  0  0  3  0  0  0  0  0  0
  162.5790  210.8080  155.2790 O   0  0  0  0  0  1  0  0  0  0  0  0
  162.0840  209.6920  155.9600 C   0  0  0  0  0  2  0  0  0  0  0  0
  159.6660  213.3830  150.8160 C   0  0  0  0  0  0  0  0  0  0  0  0
  158.2910  213.3970  150.9420 C   0  0  0  0  0  3  0  0  0  0  0  0
  159.2860  212.8010  152.8110 C   0  0  0  0  0  0  0  0  0  0  0  0
  158.0420  213.0180  152.2520 C   0  0  0  0  0  3  0  0  0  0  0  0
  160.2350  213.0230  151.9360 O   0  0  0  0  0  0  0  0  0  0  0  0
  160.4130  213.7030  149.5700 C   0  0  0  0  0  2  0  0  0  0  0  0
  161.1410  212.5840  149.1620 O   0  0  0  0  0  0  0  0  0  0  0  0
  161.0430  212.5810  147.7690 C   0  0  1  0  0  3  0  0  0  0  0  0
  160.2350  213.6410  147.3550 O   0  0  0  0  0  1  0  0  0  0  0  0
  163.4190  212.4480  147.8530 O   0  0  0  0  0  1  0  0  0  0  0  0
  162.5430  213.1490  145.8540 O   0  0  0  0  0  0  0  0  0  0  0  0
  162.3990  212.7180  147.1670 C   0  0  0  0  0  0  0  0  0  0  0  0
  159.3380  214.3310  155.6120 O   0  0  0  0  0  0  0  0  0  0  0  0
  157.4660  212.9590  155.5720 N   0  0  0  0  0  1  0  0  0  0  0  0
  158.7890  213.2880  155.1680 C   0  0  0  0  0  0  0  0  0  0  0  0
  1 31  1  1  0  0  0
  2  7  1  0  0  0  0
  3  7  2  0  0  0  0
  3  6  1  0  0  0  0
  4  5  1  0  0  0  0
  4 16  1  6  0  0  0
  6  1  1  6  0  0  0
  6  5  1  0  0  0  0
  7  4  1  0  0  0  0
  8 14  1  0  0  0  0
  9 10  1  0  0  0  0
 10  2  1  0  0  0  0
 11  8  1  0  0  0  0
 12  9  2  0  0  0  0
 13 12  1  0  0  0  0
 13  8  2  0  0  0  0
 14 10  2  0  0  0  0
 15 16  1  0  0  0  0
 17 18  2  0  0  0  0
 17 21  1  0  0  0  0
 18 20  1  0  0  0  0
 19  1  1  0  0  0  0
 20 19  2  0  0  0  0
 21 19  1  0  0  0  0
 22 17  1  0  0  0  0
 23 22  1  0  0  0  0
 24 25  1  1  0  0  0
 24 23  1  0  0  0  0
 27 28  2  0  0  0  0
 28 24  1  0  0  0  0
 28 26  1  0  0  0  0
 31 30  1  0  0  0  0
 31 29  2  0  0  0  0
M  END
>  <MODEL>
7

>  <REMARK>
 VINA RESULT:      -6.6      4.993      9.161
  Name = 
  9 active torsions:
  status: ('A' for Active; 'I' for Inactive)
    1  A    between atoms: C_4  and  N_5
    2  A    between atoms: C_6  and  C_16
    3  A    between atoms: C_9  and  C_24
    4  A    between atoms: C_11  and  O_15
    5  A    between atoms: C_11  and  C_21
    6  A    between atoms: C_14  and  C_18
    7  A    between atoms: C_14  and  C_23
    8  A    between atoms: C_14  and  C_30
    9  A    between atoms: O_15  and  C_16
                            x       y       z     vdW  Elec       q    Type
                         _______ _______ _______ _____ _____    ______ ____

>  <TORSDO>
F 9

$$$$
=
 OpenBabel11072412143D

 31 33  0  0  1  0  0  0  0  0999 V2000
  160.1230  210.1890  153.6040 C   0  0  1  0  0  3  0  0  0  0  0  0
  157.9960  213.7210  151.5610 N   0  0  0  0  0  2  0  0  0  0  0  0
  159.7140  212.2520  152.3480 N   0  0  0  0  0  0  0  0  0  0  0  0
  158.4420  213.2330  154.0330 C   0  0  1  0  0  3  0  0  0  0  0  0
  159.4980  212.3650  154.7100 C   0  0  0  0  0  2  0  0  0  0  0  0
  160.2870  211.7130  153.5680 C   0  0  1  0  0  3  0  0  0  0  0  0
  158.7310  213.0460  152.5920 C   0  0  0  0  0  0  0  0  0  0  0  0
  159.5740  213.6850  148.1840 C   0  0  0  0  0  0  0  0  0  0  0  0
  157.0920  213.1140  149.3290 C   0  0  0  0  0  3  0  0  0  0  0  0
  158.1490  213.5470  150.1450 C   0  0  0  0  0  0  0  0  0  0  0  0
  160.7780  213.9630  147.6300 F   0  0  0  0  0  0  0  0  0  0  0  0
  157.2760  212.9660  147.9520 C   0  0  0  0  0  3  0  0  0  0  0  0
  158.5180  213.2520  147.3790 C   0  0  0  0  0  3  0  0  0  0  0  0
  159.3890  213.8330  149.5630 C   0  0  0  0  0  3  0  0  0  0  0  0
  156.4340  213.6150  155.3250 O   0  0  0  0  0  1  0  0  0  0  0  0
  157.0340  212.7630  154.3920 C   0  0  0  0  0  2  0  0  0  0  0  0
  161.6720  208.0180  151.2470 C   0  0  0  0  0  0  0  0  0  0  0  0
  162.3260  209.1750  150.8720 C   0  0  0  0  0  3  0  0  0  0  0  0
  160.9150  209.5220  152.5220 C   0  0  0  0  0  0  0  0  0  0  0  0
  161.8310  210.1610  151.7110 C   0  0  0  0  0  3  0  0  0  0  0  0
  160.8370  208.2480  152.2260 O   0  0  0  0  0  0  0  0  0  0  0  0
  161.8600  206.6860  150.6120 C   0  0  0  0  0  2  0  0  0  0  0  0
  160.8190  205.8360  150.9930 O   0  0  0  0  0  0  0  0  0  0  0  0
  161.4150  204.5810  151.1310 C   0  0  1  0  0  3  0  0  0  0  0  0
  161.1300  204.0640  152.3950 O   0  0  0  0  0  1  0  0  0  0  0  0
  160.5160  202.5010  150.3980 O   0  0  0  0  0  1  0  0  0  0  0  0
  160.8380  204.0660  148.7550 O   0  0  0  0  0  0  0  0  0  0  0  0
  160.8960  203.6580  150.0820 C   0  0  0  0  0  0  0  0  0  0  0  0
  159.6230  209.0660  155.6650 O   0  0  0  0  0  0  0  0  0  0  0  0
  161.8340  209.7230  155.4020 N   0  0  0  0  0  1  0  0  0  0  0  0
  160.4910  209.6210  154.9410 C   0  0  0  0  0  0  0  0  0  0  0  0
  1 31  1  1  0  0  0
  2  7  1  0  0  0  0
  3  7  2  0  0  0  0
  3  6  1  0  0  0  0
  4 16  1  6  0  0  0
  4  5  1  0  0  0  0
  6  1  1  6  0  0  0
  6  5  1  0  0  0  0
  7  4  1  0  0  0  0
  8 14  1  0  0  0  0
  9 10  1  0  0  0  0
 10  2  1  0  0  0  0
 11  8  1  0  0  0  0
 12  9  2  0  0  0  0
 13 12  1  0  0  0  0
 13  8  2  0  0  0  0
 14 10  2  0  0  0  0
 16 15  1  0  0  0  0
 17 21  1  0  0  0  0
 18 17  2  0  0  0  0
 18 20  1  0  0  0  0
 19  1  1  0  0  0  0
 20 19  2  0  0  0  0
 21 19  1  0  0  0  0
 22 23  1  0  0  0  0
 22 17  1  0  0  0  0
 23 24  1  0  0  0  0
 24 25  1  1  0  0  0
 27 28  2  0  0  0  0
 28 26  1  0  0  0  0
 28 24  1  0  0  0  0
 31 30  1  0  0  0  0
 31 29  2  0  0  0  0
M  END
>  <MODEL>
8

>  <REMARK>
 VINA RESULT:      -6.5      4.237      8.033
  Name = 
  9 active torsions:
  status: ('A' for Active; 'I' for Inactive)
    1  A    between atoms: C_4  and  N_5
    2  A    between atoms: C_6  and  C_16
    3  A    between atoms: C_9  and  C_24
    4  A    between atoms: C_11  and  O_15
    5  A    between atoms: C_11  and  C_21
    6  A    between atoms: C_14  and  C_18
    7  A    between atoms: C_14  and  C_23
    8  A    between atoms: C_14  and  C_30
    9  A    between atoms: O_15  and  C_16
                            x       y       z     vdW  Elec       q    Type
                         _______ _______ _______ _____ _____    ______ ____

>  <TORSDO>
F 9

$$$$
=
 OpenBabel11072412143D

 31 33  0  0  1  0  0  0  0  0999 V2000
  161.2220  206.6440  149.6950 C   0  0  1  0  0  3  0  0  0  0  0  0
  161.8590  211.1780  150.1560 N   0  0  0  0  0  2  0  0  0  0  0  0
  162.2390  208.8730  149.6390 N   0  0  0  0  0  0  0  0  0  0  0  0
  161.8490  209.2990  151.8940 C   0  0  1  0  0  3  0  0  0  0  0  0
  162.1010  207.8010  151.7540 C   0  0  0  0  0  2  0  0  0  0  0  0
  162.3170  207.5600  150.2550 C   0  0  1  0  0  3  0  0  0  0  0  0
  161.9800  209.7910  150.5020 C   0  0  0  0  0  0  0  0  0  0  0  0
  160.6990  212.3310  146.8070 C   0  0  0  0  0  0  0  0  0  0  0  0
  163.0820  212.2100  148.2580 C   0  0  0  0  0  3  0  0  0  0  0  0
  161.8930  211.7390  148.8360 C   0  0  0  0  0  0  0  0  0  0  0  0
  159.5430  212.3880  146.1030 F   0  0  0  0  0  0  0  0  0  0  0  0
  163.0780  212.7410  146.9650 C   0  0  0  0  0  3  0  0  0  0  0  0
  161.8860  212.8010  146.2390 C   0  0  0  0  0  3  0  0  0  0  0  0
  160.7040  211.8000  148.1010 C   0  0  0  0  0  3  0  0  0  0  0  0
  160.5220  210.3220  153.6370 O   0  0  0  0  0  1  0  0  0  0  0  0
  160.4560  209.5700  152.4600 C   0  0  0  0  0  2  0  0  0  0  0  0
  161.5030  205.1070  146.4980 C   0  0  0  0  0  0  0  0  0  0  0  0
  162.3280  206.1850  146.2430 C   0  0  0  0  0  3  0  0  0  0  0  0
  161.5140  206.2310  148.2860 C   0  0  0  0  0  0  0  0  0  0  0  0
  162.3370  206.9210  147.4180 C   0  0  0  0  0  3  0  0  0  0  0  0
  161.0290  205.1560  147.7150 O   0  0  0  0  0  0  0  0  0  0  0  0
  161.1660  204.0400  145.5180 C   0  0  0  0  0  2  0  0  0  0  0  0
  161.7160  202.8270  145.9400 O   0  0  0  0  0  0  0  0  0  0  0  0
  160.6160  202.0270  146.2550 C   0  0  1  0  0  3  0  0  0  0  0  0
  160.4300  201.0730  145.2540 O   0  0  0  0  0  1  0  0  0  0  0  0
  161.4040  200.2190  147.5900 O   0  0  0  0  0  0  0  0  0  0  0  0
  160.4360  201.9460  148.7460 O   0  0  0  0  0  1  0  0  0  0  0  0
  160.8450  201.3460  147.5610 C   0  0  0  0  0  0  0  0  0  0  0  0
  161.9570  204.9650  151.2430 O   0  0  0  0  0  0  0  0  0  0  0  0
  159.7360  204.8090  150.5870 N   0  0  0  0  0  1  0  0  0  0  0  0
  161.0120  205.4360  150.5570 C   0  0  0  0  0  0  0  0  0  0  0  0
  1 31  1  1  0  0  0
  2  7  1  0  0  0  0
  3  6  1  0  0  0  0
  3  7  2  0  0  0  0
  4 16  1  6  0  0  0
  5  4  1  0  0  0  0
  6  1  1  6  0  0  0
  6  5  1  0  0  0  0
  7  4  1  0  0  0  0
  8 14  1  0  0  0  0
  9 10  1  0  0  0  0
 10  2  1  0  0  0  0
 11  8  1  0  0  0  0
 12  9  2  0  0  0  0
 13  8  2  0  0  0  0
 13 12  1  0  0  0  0
 14 10  2  0  0  0  0
 16 15  1  0  0  0  0
 17 21  1  0  0  0  0
 18 17  2  0  0  0  0
 18 20  1  0  0  0  0
 19  1  1  0  0  0  0
 20 19  2  0  0  0  0
 21 19  1  0  0  0  0
 22 23  1  0  0  0  0
 22 17  1  0  0  0  0
 23 24  1  0  0  0  0
 24 25  1  6  0  0  0
 24 28  1  0  0  0  0
 28 26  2  0  0  0  0
 28 27  1  0  0  0  0
 31 30  1  0  0  0  0
 31 29  2  0  0  0  0
M  END
>  <MODEL>
9

>  <REMARK>
 VINA RESULT:      -6.5      2.490      6.766
  Name = 
  9 active torsions:
  status: ('A' for Active; 'I' for Inactive)
    1  A    between atoms: C_4  and  N_5
    2  A    between atoms: C_6  and  C_16
    3  A    between atoms: C_9  and  C_24
    4  A    between atoms: C_11  and  O_15
    5  A    between atoms: C_11  and  C_21
    6  A    between atoms: C_14  and  C_18
    7  A    between atoms: C_14  and  C_23
    8  A    between atoms: C_14  and  C_30
    9  A    between atoms: O_15  and  C_16
                            x       y       z     vdW  Elec       q    Type
                         _______ _______ _______ _____ _____    ______ ____

>  <TORSDO>
F 9

$$$$
