=
 OpenBabel11072413363D

 43 49  0  0  1  0  0  0  0  0999 V2000
  160.3340  204.0260  148.4050 C   0  0  1  0  0  3  0  0  0  0  0  0
  160.0530  210.2130  153.6690 N   0  0  0  0  0  0  0  0  0  0  0  0
  162.2340  206.4110  150.1710 C   0  0  2  0  0  3  0  0  0  0  0  0
  159.7430  212.7110  151.9040 C   0  0  0  0  0  0  0  0  0  0  0  0
  159.5860  211.7020  151.0380 C   0  0  0  0  0  3  0  0  0  0  0  0
  162.3450  207.0810  151.4490 N   0  0  0  0  0  0  0  0  0  0  0  0
  161.3590  212.1930  149.4500 C   0  0  2  0  0  3  0  0  0  0  0  0
  160.1050  203.5080  149.8180 C   0  0  1  0  0  3  0  0  0  0  0  0
  159.9250  211.7530  149.5940 C   0  0  0  0  0  2  0  0  0  0  0  0
  161.0070  208.0790  154.0660 C   0  0  0  0  0  2  0  0  0  0  0  0
  161.9360  209.4440  149.0180 O   0  0  0  0  0  0  0  0  0  0  0  0
  162.8210  207.2320  149.0410 C   0  0  0  0  0  0  0  0  0  0  0  0
  162.7140  210.3940  148.3520 C   0  0  0  0  0  2  0  0  0  0  0  0
  160.6590  205.4350  148.5510 N   0  0  0  0  0  0  0  0  0  0  0  0
  160.6430  207.8500  147.7980 C   0  0  0  0  0  2  0  0  0  0  0  0
  160.8400  202.2370  149.9310 N   0  0  0  0  0  0  0  0  0  0  0  0
  161.3980  213.6420  149.4560 N   0  0  0  0  0  2  0  0  0  0  0  0
  161.3360  201.9750  151.2780 C   0  0  0  0  0  1  0  0  0  0  0  0
  159.3260  211.4050  154.0250 C   0  0  0  0  0  0  0  0  0  0  0  0
  160.3180  206.0140  146.3080 O   0  0  0  0  0  0  0  0  0  0  0  0
  161.5000  203.1890  147.8610 C   0  0  2  0  0  3  0  0  0  0  0  0
  158.5880  213.6260  154.0340 C   0  0  0  0  0  2  0  0  0  0  0  0
  162.0430  208.2740  148.2660 C   0  0  1  0  0  3  0  0  0  0  0  0
  160.6050  204.6140  150.7680 C   0  0  0  0  0  2  0  0  0  0  0  0
  161.8700  208.8160  153.0520 C   0  0  1  0  0  3  0  0  0  0  0  0
  158.4040  213.0590  155.4370 C   0  0  2  0  0  3  0  0  0  0  0  0
  160.8850  214.4530  150.4850 N   0  0  0  0  0  0  0  0  0  0  0  0
  161.9720  202.3560  149.0310 C   0  0  0  0  0  2  0  0  0  0  0  0
  159.7740  208.9330  154.2890 C   0  0  0  0  0  2  0  0  0  0  0  0
  160.5310  206.3910  147.4900 C   0  0  0  0  0  0  0  0  0  0  0  0
  160.8210  205.8590  149.9280 C   0  0  1  0  0  3  0  0  0  0  0  0
  161.7250  208.1750  151.7110 C   0  0  0  0  0  3  0  0  0  0  0  0
  158.6180  211.5430  155.3330 C   0  0  1  0  0  3  0  0  0  0  0  0
  157.3180  210.7490  155.2860 C   0  0  0  0  0  1  0  0  0  0  0  0
  162.6600  203.9790  147.2730 C   0  0  0  0  0  1  0  0  0  0  0  0
  159.2730  212.5270  153.2970 C   0  0  0  0  0  0  0  0  0  0  0  0
  164.0020  207.0790  148.7730 O   0  0  0  0  0  0  0  0  0  0  0  0
  161.3390  210.2360  152.9990 C   0  0  0  0  0  2  0  0  0  0  0  0
  160.2050  214.0750  151.5330 C   0  0  0  0  0  3  0  0  0  0  0  0
  161.9180  211.6740  148.1370 C   0  0  0  0  0  2  0  0  0  0  0  0
  157.1530  213.5500  156.1810 C   0  0  2  0  0  3  0  0  0  0  0  0
  156.1640  214.2640  155.2720 C   0  0  0  0  0  1  0  0  0  0  0  0
  157.5440  214.4390  157.2610 N   0  0  0  0  0  1  0  0  0  0  0  0
  1 14  1  1  0  0  0
  1  8  1  0  0  0  0
  2 19  1  0  0  0  0
  2 29  1  0  0  0  0
  3 12  1  6  0  0  0
  3  6  1  0  0  0  0
  4 36  1  0  0  0  0
  5  4  2  0  0  0  0
  6 32  2  0  0  0  0
  7 40  1  6  0  0  0
  7 17  1  0  0  0  0
  7  9  1  0  0  0  0
  8 16  1  0  0  0  0
  8 24  1  1  0  0  0
  9  5  1  0  0  0  0
 10 29  1  0  0  0  0
 13 11  1  0  0  0  0
 14 31  1  0  0  0  0
 16 18  1  0  0  0  0
 17 27  1  0  0  0  0
 19 33  1  0  0  0  0
 20 30  2  0  0  0  0
 21 35  1  1  0  0  0
 21  1  1  0  0  0  0
 21 28  1  0  0  0  0
 22 26  1  0  0  0  0
 23 15  1  1  0  0  0
 23 11  1  0  0  0  0
 23 12  1  0  0  0  0
 25 32  1  6  0  0  0
 25 10  1  0  0  0  0
 26 41  1  6  0  0  0
 27 39  2  0  0  0  0
 28 16  1  0  0  0  0
 30 15  1  0  0  0  0
 30 14  1  0  0  0  0
 31  3  1  0  0  0  0
 31 24  1  1  0  0  0
 33 34  1  6  0  0  0
 33 26  1  0  0  0  0
 36 19  2  0  0  0  0
 36 22  1  0  0  0  0
 37 12  2  0  0  0  0
 38 25  1  0  0  0  0
 38  2  1  0  0  0  0
 39  4  1  0  0  0  0
 40 13  1  0  0  0  0
 41 42  1  6  0  0  0
 41 43  1  0  0  0  0
M  END
>  <MODEL>
1

>  <REMARK>
 VINA RESULT:       1.2      0.000      0.000
  Name = 
  1 active torsions:
  status: ('A' for Active; 'I' for Inactive)
    1  A    between atoms: C_13  and  C_27
                            x       y       z     vdW  Elec       q    Type
                         _______ _______ _______ _____ _____    ______ ____

>  <TORSDO>
F 1

$$$$
