=
 OpenBabel11072413523D

 67 74  0  0  1  0  0  0  0  0999 V2000
  162.1040  209.3850  150.6230 C   0  0  1  0  0  3  0  0  0  0  0  0
  160.4660  207.8890  151.7550 O   0  0  0  0  0  0  0  0  0  0  0  0
  160.8350  206.5140  149.5160 O   0  0  0  0  0  0  0  0  0  0  0  0
  162.1090  209.4950  148.0550 C   0  0  0  0  0  2  0  0  0  0  0  0
  161.5330  208.8060  149.2950 C   0  0  1  0  0  3  0  0  0  0  0  0
  162.2780  210.9930  148.2850 C   0  0  0  0  0  2  0  0  0  0  0  0
  163.1400  211.1900  149.3740 O   0  0  0  0  0  0  0  0  0  0  0  0
  161.2650  205.8100  150.6480 C   0  0  1  0  0  3  0  0  0  0  0  0
  162.3840  210.8990  150.5150 C   0  0  0  0  0  2  0  0  0  0  0  0
  160.9930  206.6070  151.8810 C   0  0  0  0  0  0  0  0  0  0  0  0
  161.2900  209.0350  151.9070 C   0  0  2  0  0  3  0  0  0  0  0  0
  161.9090  207.3340  149.1580 C   0  0  0  0  0  2  0  0  0  0  0  0
  161.3300  206.1630  153.0130 O   0  0  0  0  0  0  0  0  0  0  0  0
  160.4670  210.1560  152.4660 C   0  0  0  0  0  3  0  0  0  0  0  0
  159.3310  209.8940  152.9960 N   0  0  0  0  0  0  0  0  0  0  0  0
  158.5040  210.9540  153.5030 C   0  0  0  0  0  2  0  0  0  0  0  0
  159.8230  212.6960  154.6550 C   0  0  0  0  0  2  0  0  0  0  0  0
  159.1510  213.7940  155.2410 O   0  0  0  0  0  0  0  0  0  0  0  0
  159.0210  211.4200  154.8630 C   0  0  1  0  0  3  0  0  0  0  0  0
  157.9450  211.8550  155.8440 C   0  0  0  0  0  0  0  0  0  0  0  0
  156.6130  211.1100  155.7230 C   0  0  0  0  0  1  0  0  0  0  0  0
  158.4930  211.5740  157.2410 C   0  0  0  0  0  1  0  0  0  0  0  0
  157.8400  213.3670  155.5530 C   0  0  1  0  0  0  0  0  0  0  0  0
  155.7840  214.3040  156.7570 C   0  0  0  0  0  1  0  0  0  0  0  0
  157.2950  214.1290  156.7800 C   0  0  0  0  0  2  0  0  0  0  0  0
  156.9250  213.6120  154.3340 C   0  0  0  0  0  2  0  0  0  0  0  0
  157.4400  213.0120  153.0300 C   0  0  0  0  0  2  0  0  0  0  0  0
  157.5330  214.0890  151.9650 C   0  0  0  0  0  2  0  0  0  0  0  0
  157.4670  213.4810  150.5770 C   0  0  0  0  0  2  0  0  0  0  0  0
  158.0770  214.4530  149.5840 C   0  0  0  0  0  2  0  0  0  0  0  0
  158.1050  213.8440  148.1960 C   0  0  1  0  0  3  0  0  0  0  0  0
  156.9610  214.3630  147.3900 C   0  0  0  0  0  3  0  0  0  0  0  0
  155.8470  214.4460  147.8780 O   0  0  0  0  0  0  0  0  0  0  0  0
  159.4080  214.2270  147.5150 C   0  0  0  0  0  2  0  0  0  0  0  0
  159.5990  211.8820  146.6360 C   0  0  0  0  0  1  0  0  0  0  0  0
  159.6900  213.3570  146.2930 C   0  0  0  0  0  3  0  0  0  0  0  0
  161.0840  213.6550  145.7910 C   0  0  0  0  0  1  0  0  0  0  0  0
  160.5760  204.4570  150.7020 C   0  0  0  0  0  2  0  0  0  0  0  0
  161.0470  203.6240  149.5250 C   0  0  1  0  0  3  0  0  0  0  0  0
  162.2220  202.9290  149.8440 O   0  0  0  0  0  0  0  0  0  0  0  0
  160.8510  201.5700  148.4370 C   0  0  2  0  0  3  0  0  0  0  0  0
  160.0100  202.6190  149.1060 C   0  0  0  0  0  2  0  0  0  0  0  0
  162.2220  201.7610  149.0600 C   0  0  0  0  0  2  0  0  0  0  0  0
  160.9250  201.7480  146.9040 C   0  0  2  0  0  3  0  0  0  0  0  0
  159.6430  203.0460  145.3250 C   0  0  0  0  0  2  0  0  0  0  0  0
  159.7460  205.9210  145.4660 C   0  0  0  0  0  1  0  0  0  0  0  0
  162.6850  205.2610  144.5330 N   0  0  0  0  0  0  0  0  0  0  0  0
  160.4970  203.1130  146.4960 N   0  0  0  0  0  0  0  0  0  0  0  0
  160.6950  204.9750  144.7280 C   0  0  2  0  0  0  0  0  0  0  0  0
  161.7780  204.8090  145.5670 C   0  0  1  0  0  3  0  0  0  0  0  0
  161.5020  206.1320  142.4410 N   0  0  0  0  0  2  0  0  0  0  0  0
  161.6480  205.5620  143.7410 C   0  0  0  0  0  0  0  0  0  0  0  0
  161.0380  203.5300  145.1740 C   0  0  2  0  0  0  0  0  0  0  0  0
  162.6180  206.5800  141.7220 N   0  0  0  0  0  2  0  0  0  0  0  0
  162.2950  206.4840  140.3110 C   0  0  0  0  0  2  0  0  0  0  0  0
  161.2190  207.5970  138.4110 C   0  0  0  0  0  3  0  0  0  0  0  0
  162.4300  208.9550  140.1140 C   0  0  0  0  0  2  0  0  0  0  0  0
  161.0550  210.6610  138.8560 C   0  0  0  0  0  2  0  0  0  0  0  0
  161.5900  210.2210  140.2120 C   0  0  0  0  0  2  0  0  0  0  0  0
  160.4880  208.5010  137.7440 C   0  0  0  0  0  3  0  0  0  0  0  0
  161.5530  207.7310  139.8680 C   0  0  2  0  0  3  0  0  0  0  0  0
  159.9350  209.7410  138.3850 C   0  0  0  0  0  2  0  0  0  0  0  0
  160.3950  200.5430  146.0750 C   0  0  1  0  0  3  0  0  0  0  0  0
  159.8980  200.9930  144.8500 O   0  0  0  0  0  1  0  0  0  0  0  0
  161.4470  199.4680  145.8120 C   0  0  0  0  0  2  0  0  0  0  0  0
  161.8680  197.5490  144.7950 C   0  0  0  0  0  1  0  0  0  0  0  0
  160.8420  198.2750  145.4040 O   0  0  0  0  0  0  0  0  0  0  0  0
  1  9  1  6  0  0  0
  1 11  1  0  0  0  0
  2 10  1  0  0  0  0
  2 11  1  0  0  0  0
  3  8  1  0  0  0  0
  4  6  1  0  0  0  0
  5  4  1  6  0  0  0
  5  1  1  0  0  0  0
  6  7  1  0  0  0  0
  7  9  1  0  0  0  0
  8 38  1  1  0  0  0
  8 10  1  0  0  0  0
 10 13  2  0  0  0  0
 11 14  1  6  0  0  0
 12  5  1  0  0  0  0
 12  3  1  0  0  0  0
 14 15  2  0  0  0  0
 15 16  1  0  0  0  0
 17 19  1  0  0  0  0
 17 18  1  0  0  0  0
 18 23  1  0  0  0  0
 19 16  1  6  0  0  0
 19 20  1  0  0  0  0
 20 22  1  0  0  0  0
 21 20  1  0  0  0  0
 23 26  1  6  0  0  0
 23 20  1  0  0  0  0
 23 25  1  0  0  0  0
 24 25  1  0  0  0  0
 27 26  1  0  0  0  0
 28 27  1  0  0  0  0
 29 28  1  0  0  0  0
 30 29  1  0  0  0  0
 31 32  1  6  0  0  0
 31 30  1  0  0  0  0
 32 33  2  0  0  0  0
 34 31  1  0  0  0  0
 36 35  1  0  0  0  0
 36 34  1  0  0  0  0
 37 36  1  0  0  0  0
 39 40  1  0  0  0  0
 39 38  1  1  0  0  0
 41 44  1  6  0  0  0
 41 43  1  0  0  0  0
 41 42  1  0  0  0  0
 42 39  1  0  0  0  0
 43 40  1  0  0  0  0
 44 63  1  6  0  0  0
 45 48  1  0  0  0  0
 48 44  1  0  0  0  0
 49 53  1  0  0  0  0
 49 46  1  1  0  0  0
 49 50  1  0  0  0  0
 50 47  1  6  0  0  0
 51 52  1  0  0  0  0
 52 47  2  0  0  0  0
 52 49  1  0  0  0  0
 53 45  1  6  0  0  0
 53 50  1  0  0  0  0
 53 48  1  0  0  0  0
 54 51  1  0  0  0  0
 55 54  1  0  0  0  0
 56 61  1  0  0  0  0
 57 59  1  0  0  0  0
 58 59  1  0  0  0  0
 60 62  1  0  0  0  0
 60 56  2  0  0  0  0
 61 57  1  0  0  0  0
 61 55  1  6  0  0  0
 62 58  1  0  0  0  0
 63 64  1  6  0  0  0
 65 63  1  0  0  0  0
 66 67  1  0  0  0  0
 67 65  1  0  0  0  0
M  END
>  <MODEL>
1

>  <REMARK>
 VINA RESULT:      -2.6      0.000      0.000
  Name = 
  23 active torsions:
  status: ('A' for Active; 'I' for Inactive)
    1  A    between atoms: C_1  and  C_47
    2  A    between atoms: C_4  and  C_61
    3  A    between atoms: C_12  and  C_56
    4  A    between atoms: C_19  and  C_52
    5  A    between atoms: N_21  and  C_52
    6  A    between atoms: C_22  and  C_43
    7  A    between atoms: C_22  and  C_59
    8  A    between atoms: C_25  and  C_61
    9  A    between atoms: C_30  and  C_47
   10  A    between atoms: C_30  and  C_59
   11  A    between atoms: N_31  and  N_49
   12  A    between atoms: C_34  and  C_37
   13  A    between atoms: C_37  and  N_39
   14  A    between atoms: C_40  and  C_52
   15  A    between atoms: C_40  and  C_58
   16  A    between atoms: C_43  and  C_45
   17  A    between atoms: C_45  and  C_62
   18  A    between atoms: C_46  and  C_60
   19  A    between atoms: C_47  and  C_60
   20  A    between atoms: N_49  and  C_54
   21  A    between atoms: C_51  and  C_54
   22  A    between atoms: O_53  and  C_58
   23  A    between atoms: C_62  and  C_66
                            x       y       z     vdW  Elec       q    Type
                         _______ _______ _______ _____ _____    ______ ____

>  <TORSDO>
F 23

$$$$
=
 OpenBabel11072413523D

 67 74  0  0  1  0  0  0  0  0999 V2000
  162.4870  208.2730  150.6980 C   0  0  1  0  0  3  0  0  0  0  0  0
  161.9340  209.8280  148.8320 O   0  0  0  0  0  0  0  0  0  0  0  0
  160.4440  210.9010  150.7470 O   0  0  0  0  0  0  0  0  0  0  0  0
  160.7060  207.8140  152.4940 C   0  0  0  0  0  2  0  0  0  0  0  0
  161.0800  208.6370  151.2580 C   0  0  1  0  0  3  0  0  0  0  0  0
  161.1830  206.3720  152.3610 C   0  0  0  0  0  2  0  0  0  0  0  0
  162.5760  206.3680  152.1990 O   0  0  0  0  0  0  0  0  0  0  0  0
  161.4460  211.7730  150.3030 C   0  0  1  0  0  3  0  0  0  0  0  0
  162.8070  206.7750  150.8800 C   0  0  0  0  0  2  0  0  0  0  0  0
  162.2230  211.1390  149.1980 C   0  0  0  0  0  0  0  0  0  0  0  0
  162.7690  208.7550  149.2420 C   0  0  2  0  0  3  0  0  0  0  0  0
  161.0550  210.0930  151.7110 C   0  0  0  0  0  2  0  0  0  0  0  0
  163.1940  211.7490  148.6710 O   0  0  0  0  0  0  0  0  0  0  0  0
  162.7310  207.6820  148.1950 C   0  0  0  0  0  3  0  0  0  0  0  0
  162.8560  206.4580  148.5500 N   0  0  0  0  0  0  0  0  0  0  0  0
  162.8640  205.4130  147.5640 C   0  0  0  0  0  2  0  0  0  0  0  0
  163.0000  205.3080  145.0990 C   0  0  0  0  0  2  0  0  0  0  0  0
  162.1840  204.3850  144.4030 O   0  0  0  0  0  0  0  0  0  0  0  0
  162.2300  205.9100  146.2650 C   0  0  1  0  0  3  0  0  0  0  0  0
  160.8100  205.4270  146.0180 C   0  0  0  0  0  0  0  0  0  0  0  0
  159.9650  205.2190  147.2760 C   0  0  0  0  0  1  0  0  0  0  0  0
  160.1230  206.5070  145.1860 C   0  0  0  0  0  1  0  0  0  0  0  0
  161.0500  204.1350  145.2090 C   0  0  1  0  0  0  0  0  0  0  0  0
  158.9490  202.6990  144.9270 C   0  0  0  0  0  1  0  0  0  0  0  0
  159.8230  203.7940  144.3360 C   0  0  0  0  0  2  0  0  0  0  0  0
  161.3580  202.9600  146.1630 C   0  0  0  0  0  2  0  0  0  0  0  0
  161.1490  201.5800  145.5500 C   0  0  0  0  0  2  0  0  0  0  0  0
  161.2760  200.5120  146.6200 C   0  0  0  0  0  2  0  0  0  0  0  0
  162.1190  201.0070  147.7790 C   0  0  0  0  0  2  0  0  0  0  0  0
  161.4320  200.6410  149.0810 C   0  0  0  0  0  2  0  0  0  0  0  0
  160.2580  201.5660  149.3390 C   0  0  1  0  0  3  0  0  0  0  0  0
  159.0120  200.9800  148.7620 C   0  0  0  0  0  3  0  0  0  0  0  0
  158.4740  201.4950  147.7970 O   0  0  0  0  0  0  0  0  0  0  0  0
  160.0820  201.7340  150.8390 C   0  0  0  0  0  2  0  0  0  0  0  0
  160.8560  204.0230  150.1530 C   0  0  0  0  0  1  0  0  0  0  0  0
  160.2810  203.1820  151.2780 C   0  0  0  0  0  3  0  0  0  0  0  0
  161.2380  203.2120  152.4460 C   0  0  0  0  0  1  0  0  0  0  0  0
  160.8230  213.0860  149.8590 C   0  0  0  0  0  2  0  0  0  0  0  0
  159.7860  213.5030  150.8840 C   0  0  1  0  0  3  0  0  0  0  0  0
  158.6730  214.0830  150.2580 O   0  0  0  0  0  0  0  0  0  0  0  0
  157.9500  212.8010  152.1400 C   0  0  2  0  0  3  0  0  0  0  0  0
  159.3060  212.3330  151.6970 C   0  0  0  0  0  2  0  0  0  0  0  0
  157.5690  213.8320  151.0930 C   0  0  0  0  0  2  0  0  0  0  0  0
  157.9660  213.4410  153.5460 C   0  0  2  0  0  3  0  0  0  0  0  0
  158.5400  213.0890  155.8640 C   0  0  0  0  0  2  0  0  0  0  0  0
  159.1240  210.4180  156.7700 C   0  0  0  0  0  1  0  0  0  0  0  0
  161.5900  210.9620  154.8820 N   0  0  0  0  0  0  0  0  0  0  0  0
  158.2730  212.4340  154.5970 N   0  0  0  0  0  0  0  0  0  0  0  0
  160.0780  211.4320  156.1360 C   0  0  2  0  0  0  0  0  0  0  0  0
  160.1500  211.0870  154.8020 C   0  0  1  0  0  3  0  0  0  0  0  0
  162.5080  211.1880  157.2570 N   0  0  0  0  0  2  0  0  0  0  0  0
  161.5440  211.1590  156.2060 C   0  0  0  0  0  0  0  0  0  0  0  0
  159.6720  212.5090  155.0970 C   0  0  2  0  0  0  0  0  0  0  0  0
  163.8570  210.9080  157.0040 N   0  0  0  0  0  2  0  0  0  0  0  0
  164.5510  212.1770  156.8910 C   0  0  0  0  0  2  0  0  0  0  0  0
  166.8370  212.9810  157.2590 C   0  0  0  0  0  3  0  0  0  0  0  0
  166.2110  212.0020  155.0540 C   0  0  0  0  0  2  0  0  0  0  0  0
  168.7370  212.0140  155.0080 C   0  0  0  0  0  2  0  0  0  0  0  0
  167.4710  211.2570  154.6330 C   0  0  0  0  0  2  0  0  0  0  0  0
  168.1770  212.9860  157.2360 C   0  0  0  0  0  3  0  0  0  0  0  0
  166.0120  211.9350  156.5650 C   0  0  2  0  0  3  0  0  0  0  0  0
  168.9880  211.9520  156.5090 C   0  0  0  0  0  2  0  0  0  0  0  0
  156.8160  214.4510  153.8230 C   0  0  1  0  0  3  0  0  0  0  0  0
  155.8770  214.3940  152.7920 O   0  0  0  0  0  1  0  0  0  0  0  0
  156.1010  214.2190  155.1520 C   0  0  0  0  0  2  0  0  0  0  0  0
  154.8380  212.7790  156.2590 C   0  0  0  0  0  1  0  0  0  0  0  0
  155.9260  212.8510  155.3860 O   0  0  0  0  0  0  0  0  0  0  0  0
  1  9  1  6  0  0  0
  1  5  1  0  0  0  0
  2 10  1  0  0  0  0
  2 11  1  0  0  0  0
  3 12  1  0  0  0  0
  5 12  1  1  0  0  0
  5  4  1  0  0  0  0
  6  4  1  0  0  0  0
  7  6  1  0  0  0  0
  8 38  1  6  0  0  0
  8  3  1  0  0  0  0
  9  7  1  0  0  0  0
 10  8  1  0  0  0  0
 11 14  1  6  0  0  0
 11  1  1  0  0  0  0
 13 10  2  0  0  0  0
 14 15  2  0  0  0  0
 16 15  1  0  0  0  0
 17 19  1  0  0  0  0
 18 17  1  0  0  0  0
 18 23  1  0  0  0  0
 19 16  1  1  0  0  0
 20 19  1  0  0  0  0
 20 21  1  0  0  0  0
 22 20  1  0  0  0  0
 23 25  1  6  0  0  0
 23 20  1  0  0  0  0
 23 26  1  0  0  0  0
 25 24  1  0  0  0  0
 27 26  1  0  0  0  0
 27 28  1  0  0  0  0
 28 29  1  0  0  0  0
 29 30  1  0  0  0  0
 30 31  1  0  0  0  0
 31 32  1  1  0  0  0
 31 34  1  0  0  0  0
 33 32  2  0  0  0  0
 34 36  1  0  0  0  0
 35 36  1  0  0  0  0
 36 37  1  0  0  0  0
 39 38  1  6  0  0  0
 39 42  1  0  0  0  0
 40 39  1  0  0  0  0
 40 43  1  0  0  0  0
 41 44  1  1  0  0  0
 42 41  1  0  0  0  0
 43 41  1  0  0  0  0
 44 63  1  1  0  0  0
 44 48  1  0  0  0  0
 47 52  2  0  0  0  0
 48 53  1  0  0  0  0
 48 45  1  0  0  0  0
 49 52  1  0  0  0  0
 49 46  1  1  0  0  0
 50 47  1  6  0  0  0
 50 53  1  0  0  0  0
 50 49  1  0  0  0  0
 52 51  1  0  0  0  0
 53 45  1  6  0  0  0
 53 49  1  0  0  0  0
 54 51  1  0  0  0  0
 55 54  1  0  0  0  0
 57 61  1  0  0  0  0
 58 62  1  0  0  0  0
 59 58  1  0  0  0  0
 59 57  1  0  0  0  0
 60 56  2  0  0  0  0
 61 55  1  6  0  0  0
 61 56  1  0  0  0  0
 62 60  1  0  0  0  0
 63 64  1  6  0  0  0
 63 65  1  0  0  0  0
 65 67  1  0  0  0  0
 67 66  1  0  0  0  0
M  END
>  <MODEL>
2

>  <REMARK>
 VINA RESULT:       0.2      3.316     12.975
  Name = 
  23 active torsions:
  status: ('A' for Active; 'I' for Inactive)
    1  A    between atoms: C_1  and  C_47
    2  A    between atoms: C_4  and  C_61
    3  A    between atoms: C_12  and  C_56
    4  A    between atoms: C_19  and  C_52
    5  A    between atoms: N_21  and  C_52
    6  A    between atoms: C_22  and  C_43
    7  A    between atoms: C_22  and  C_59
    8  A    between atoms: C_25  and  C_61
    9  A    between atoms: C_30  and  C_47
   10  A    between atoms: C_30  and  C_59
   11  A    between atoms: N_31  and  N_49
   12  A    between atoms: C_34  and  C_37
   13  A    between atoms: C_37  and  N_39
   14  A    between atoms: C_40  and  C_52
   15  A    between atoms: C_40  and  C_58
   16  A    between atoms: C_43  and  C_45
   17  A    between atoms: C_45  and  C_62
   18  A    between atoms: C_46  and  C_60
   19  A    between atoms: C_47  and  C_60
   20  A    between atoms: N_49  and  C_54
   21  A    between atoms: C_51  and  C_54
   22  A    between atoms: O_53  and  C_58
   23  A    between atoms: C_62  and  C_66
                            x       y       z     vdW  Elec       q    Type
                         _______ _______ _______ _____ _____    ______ ____

>  <TORSDO>
F 23

$$$$
