=
 OpenBabel11072411153D

 28 30  0  0  1  0  0  0  0  0999 V2000
  158.8920  210.8630  155.1480 O   0  0  0  0  0  1  0  0  0  0  0  0
  162.1510  209.0450  149.5220 C   0  0  0  0  0  2  0  0  0  0  0  0
  162.2940  207.7320  150.2170 C   0  0  0  0  0  3  0  0  0  0  0  0
  159.6360  210.3380  154.0890 C   0  0  1  0  0  3  0  0  0  0  0  0
  160.9960  208.3640  153.5770 C   0  0  0  0  0  3  0  0  0  0  0  0
  160.7030  211.3330  153.6870 C   0  0  0  0  0  2  0  0  0  0  0  0
  161.9580  210.1370  150.4730 N   0  0  0  0  0  0  0  0  0  0  0  0
  161.7040  207.5050  151.3940 C   0  0  0  0  0  0  0  0  0  0  0  0
  161.3770  210.0040  151.6300 C   0  0  0  0  0  0  0  0  0  0  0  0
  160.9330  208.6090  152.0910 C   0  0  2  0  0  3  0  0  0  0  0  0
  160.3510  209.0900  154.5000 C   0  0  0  0  0  0  0  0  0  0  0  0
  161.0810  211.1920  152.3210 O   0  0  0  0  0  0  0  0  0  0  0  0
  160.4410  208.7070  155.9560 C   0  0  1  0  0  3  0  0  0  0  0  0
  159.9010  207.3030  156.1820 C   0  0  0  0  0  1  0  0  0  0  0  0
  161.8690  208.8360  156.4730 C   0  0  0  0  0  2  0  0  0  0  0  0
  161.4650  211.0490  157.2600 O   0  0  0  0  0  1  0  0  0  0  0  0
  162.2400  210.2680  156.6500 C   0  0  0  0  0  0  0  0  0  0  0  0
  163.4580  210.7340  156.1730 O   0  0  0  0  0  0  0  0  0  0  0  0
  161.7690  206.2350  151.9900 O   0  0  0  0  0  0  0  0  0  0  0  0
  161.7340  205.0140  151.2580 C   0  0  1  0  0  3  0  0  0  0  0  0
  160.9540  203.9620  152.0430 C   0  0  0  0  0  2  0  0  0  0  0  0
  161.0850  205.2630  149.9270 C   0  0  0  0  0  3  0  0  0  0  0  0
  160.8960  204.3090  149.0050 C   0  0  0  0  0  3  0  0  0  0  0  0
  161.3560  202.6240  151.6270 N   0  0  0  0  0  2  0  0  0  0  0  0
  160.6280  202.2710  150.4140 C   0  0  0  0  0  2  0  0  0  0  0  0
  161.3120  202.8780  149.1930 C   0  0  1  0  0  3  0  0  0  0  0  0
  160.9450  202.1110  148.0010 C   0  0  0  0  0  0  0  0  0  0  0  0
  160.6560  201.5060  147.0580 N   0  0  0  0  0  0  0  0  0  0  0  0
  2  3  1  0  0  0  0
  2  7  1  0  0  0  0
  3  8  2  0  0  0  0
  4 11  1  0  0  0  0
  4  1  1  1  0  0  0
  5 11  2  0  0  0  0
  6  4  1  0  0  0  0
  7  9  2  0  0  0  0
  8 19  1  0  0  0  0
  8 10  1  0  0  0  0
  9 10  1  0  0  0  0
  9 12  1  0  0  0  0
 10  5  1  1  0  0  0
 11 13  1  0  0  0  0
 12  6  1  0  0  0  0
 13 14  1  6  0  0  0
 13 15  1  0  0  0  0
 15 17  1  0  0  0  0
 17 16  1  0  0  0  0
 18 17  2  0  0  0  0
 20 19  1  1  0  0  0
 20 21  1  0  0  0  0
 22 20  1  0  0  0  0
 23 26  1  0  0  0  0
 23 22  2  0  0  0  0
 24 21  1  0  0  0  0
 25 24  1  0  0  0  0
 26 27  1  6  0  0  0
 26 25  1  0  0  0  0
 28 27  3  0  0  0  0
M  END
>  <MODEL>
1

>  <REMARK>
 VINA RESULT:      -8.1      0.000      0.000
  Name = 
  6 active torsions:
  status: ('A' for Active; 'I' for Inactive)
    1  A    between atoms: C_5  and  O_12
    2  A    between atoms: C_8  and  C_20
    3  A    between atoms: O_12  and  C_13
    4  A    between atoms: C_20  and  C_21
    5  A    between atoms: C_21  and  C_22
    6  A    between atoms: C_23  and  C_26
                            x       y       z     vdW  Elec       q    Type
                         _______ _______ _______ _____ _____    ______ ____

>  <TORSDO>
F 6

$$$$
=
 OpenBabel11072411153D

 28 30  0  0  1  0  0  0  0  0999 V2000
  160.2000  201.1270  146.2740 O   0  0  0  0  0  1  0  0  0  0  0  0
  161.0070  203.3830  152.5860 C   0  0  0  0  0  2  0  0  0  0  0  0
  161.3220  204.6790  151.9160 C   0  0  0  0  0  3  0  0  0  0  0  0
  160.4630  201.7440  147.4990 C   0  0  1  0  0  3  0  0  0  0  0  0
  161.4130  203.8340  148.3580 C   0  0  0  0  0  3  0  0  0  0  0  0
  161.3580  200.8490  148.3270 C   0  0  0  0  0  2  0  0  0  0  0  0
  161.2480  202.2470  151.6990 N   0  0  0  0  0  0  0  0  0  0  0  0
  161.2030  204.8190  150.5910 C   0  0  0  0  0  0  0  0  0  0  0  0
  161.1350  202.2960  150.4030 C   0  0  0  0  0  0  0  0  0  0  0  0
  160.8140  203.6350  149.7270 C   0  0  2  0  0  3  0  0  0  0  0  0
  161.2050  203.0290  147.3070 C   0  0  0  0  0  0  0  0  0  0  0  0
  161.1880  201.0650  149.7250 O   0  0  0  0  0  0  0  0  0  0  0  0
  161.8100  203.3670  145.9680 C   0  0  1  0  0  3  0  0  0  0  0  0
  160.7530  203.3460  144.8750 C   0  0  0  0  0  1  0  0  0  0  0  0
  162.5280  204.7110  146.0110 C   0  0  0  0  0  2  0  0  0  0  0  0
  161.6280  205.9860  144.2110 O   0  0  0  0  0  0  0  0  0  0  0  0
  161.6660  205.7900  145.4530 C   0  0  0  0  0  0  0  0  0  0  0  0
  160.8780  206.5580  146.3000 O   0  0  0  0  0  1  0  0  0  0  0  0
  161.4110  206.0690  149.9860 O   0  0  0  0  0  0  0  0  0  0  0  0
  161.7090  207.2590  150.7100 C   0  0  1  0  0  3  0  0  0  0  0  0
  161.6040  208.4680  149.7830 C   0  0  0  0  0  2  0  0  0  0  0  0
  160.7440  207.3890  151.8530 C   0  0  0  0  0  3  0  0  0  0  0  0
  160.7590  208.4090  152.7220 C   0  0  0  0  0  3  0  0  0  0  0  0
  162.4070  209.5690  150.3000 N   0  0  0  0  0  2  0  0  0  0  0  0
  161.6370  210.2720  151.3200 C   0  0  0  0  0  2  0  0  0  0  0  0
  161.7420  209.5430  152.6560 C   0  0  1  0  0  3  0  0  0  0  0  0
  161.4640  210.4830  153.7430 C   0  0  0  0  0  0  0  0  0  0  0  0
  161.2420  211.2260  154.6020 N   0  0  0  0  0  0  0  0  0  0  0  0
  3  2  1  0  0  0  0
  4  1  1  6  0  0  0
  4  6  1  0  0  0  0
  6 12  1  0  0  0  0
  7  2  1  0  0  0  0
  8  3  2  0  0  0  0
  9  7  2  0  0  0  0
 10  5  1  6  0  0  0
 10  9  1  0  0  0  0
 10  8  1  0  0  0  0
 11  4  1  0  0  0  0
 11  5  2  0  0  0  0
 12  9  1  0  0  0  0
 13 14  1  6  0  0  0
 13 15  1  0  0  0  0
 13 11  1  0  0  0  0
 16 17  2  0  0  0  0
 17 15  1  0  0  0  0
 17 18  1  0  0  0  0
 19  8  1  0  0  0  0
 20 19  1  6  0  0  0
 20 22  1  0  0  0  0
 21 24  1  0  0  0  0
 21 20  1  0  0  0  0
 22 23  2  0  0  0  0
 24 25  1  0  0  0  0
 25 26  1  0  0  0  0
 26 23  1  0  0  0  0
 26 27  1  1  0  0  0
 27 28  3  0  0  0  0
M  END
>  <MODEL>
2

>  <REMARK>
 VINA RESULT:      -7.4      3.362      8.996
  Name = 
  6 active torsions:
  status: ('A' for Active; 'I' for Inactive)
    1  A    between atoms: C_5  and  O_12
    2  A    between atoms: C_8  and  C_20
    3  A    between atoms: O_12  and  C_13
    4  A    between atoms: C_20  and  C_21
    5  A    between atoms: C_21  and  C_22
    6  A    between atoms: C_23  and  C_26
                            x       y       z     vdW  Elec       q    Type
                         _______ _______ _______ _____ _____    ______ ____

>  <TORSDO>
F 6

$$$$
=
 OpenBabel11072411153D

 28 30  0  0  1  0  0  0  0  0999 V2000
  160.2030  201.7070  145.2100 O   0  0  0  0  0  1  0  0  0  0  0  0
  160.9770  202.1070  151.9050 C   0  0  0  0  0  2  0  0  0  0  0  0
  161.3350  203.5280  151.6210 C   0  0  0  0  0  3  0  0  0  0  0  0
  160.4630  201.9530  146.5600 C   0  0  1  0  0  3  0  0  0  0  0  0
  161.4560  203.6960  147.9700 C   0  0  0  0  0  3  0  0  0  0  0  0
  161.3230  200.8390  147.1140 C   0  0  0  0  0  2  0  0  0  0  0  0
  161.2010  201.2540  150.7400 N   0  0  0  0  0  0  0  0  0  0  0  0
  161.2390  204.0320  150.3870 C   0  0  0  0  0  0  0  0  0  0  0  0
  161.1080  201.6620  149.5080 C   0  0  0  0  0  0  0  0  0  0  0  0
  160.8320  203.1450  149.2260 C   0  0  2  0  0  3  0  0  0  0  0  0
  161.2420  203.2190  146.7360 C   0  0  0  0  0  0  0  0  0  0  0  0
  161.1390  200.6660  148.5160 O   0  0  0  0  0  0  0  0  0  0  0  0
  161.8740  203.8970  145.5470 C   0  0  1  0  0  3  0  0  0  0  0  0
  160.8120  204.3880  144.5740 C   0  0  0  0  0  1  0  0  0  0  0  0
  162.7890  205.0350  145.9830 C   0  0  0  0  0  2  0  0  0  0  0  0
  162.4500  206.8980  147.4310 O   0  0  0  0  0  1  0  0  0  0  0  0
  161.9940  206.1850  146.4990 C   0  0  0  0  0  0  0  0  0  0  0  0
  160.7650  206.4920  145.9310 O   0  0  0  0  0  0  0  0  0  0  0  0
  161.4880  205.3940  150.1520 O   0  0  0  0  0  0  0  0  0  0  0  0
  161.0800  206.4360  151.0330 C   0  0  1  0  0  3  0  0  0  0  0  0
  161.6840  206.2090  152.4170 C   0  0  0  0  0  2  0  0  0  0  0  0
  161.5320  207.7530  150.4720 C   0  0  0  0  0  3  0  0  0  0  0  0
  161.3050  208.9300  151.0720 C   0  0  0  0  0  3  0  0  0  0  0  0
  160.8840  206.8850  153.4310 N   0  0  0  0  0  2  0  0  0  0  0  0
  161.2760  208.2890  153.4790 C   0  0  0  0  0  2  0  0  0  0  0  0
  160.5720  209.0710  152.3750 C   0  0  1  0  0  3  0  0  0  0  0  0
  160.5180  210.4870  152.7440 C   0  0  0  0  0  0  0  0  0  0  0  0
  160.4740  211.6060  153.0370 N   0  0  0  0  0  0  0  0  0  0  0  0
  3  2  1  0  0  0  0
  4  1  1  6  0  0  0
  4 11  1  0  0  0  0
  4  6  1  0  0  0  0
  6 12  1  0  0  0  0
  7  2  1  0  0  0  0
  8  3  2  0  0  0  0
  9  7  2  0  0  0  0
 10  5  1  6  0  0  0
 10  9  1  0  0  0  0
 10  8  1  0  0  0  0
 11  5  2  0  0  0  0
 12  9  1  0  0  0  0
 13 14  1  6  0  0  0
 13 15  1  0  0  0  0
 13 11  1  0  0  0  0
 15 17  1  0  0  0  0
 17 16  1  0  0  0  0
 18 17  2  0  0  0  0
 19  8  1  0  0  0  0
 20 19  1  6  0  0  0
 20 21  1  0  0  0  0
 21 24  1  0  0  0  0
 22 20  1  0  0  0  0
 22 23  2  0  0  0  0
 23 26  1  0  0  0  0
 24 25  1  0  0  0  0
 26 27  1  1  0  0  0
 26 25  1  0  0  0  0
 27 28  3  0  0  0  0
M  END
>  <MODEL>
3

>  <REMARK>
 VINA RESULT:      -7.3      3.524      8.825
  Name = 
  6 active torsions:
  status: ('A' for Active; 'I' for Inactive)
    1  A    between atoms: C_5  and  O_12
    2  A    between atoms: C_8  and  C_20
    3  A    between atoms: O_12  and  C_13
    4  A    between atoms: C_20  and  C_21
    5  A    between atoms: C_21  and  C_22
    6  A    between atoms: C_23  and  C_26
                            x       y       z     vdW  Elec       q    Type
                         _______ _______ _______ _____ _____    ______ ____

>  <TORSDO>
F 6

$$$$
=
 OpenBabel11072411153D

 28 30  0  0  1  0  0  0  0  0999 V2000
  158.2540  210.7370  155.8030 O   0  0  0  0  0  1  0  0  0  0  0  0
  161.5200  211.1020  149.9050 C   0  0  0  0  0  2  0  0  0  0  0  0
  162.0250  209.7480  150.2800 C   0  0  0  0  0  3  0  0  0  0  0  0
  159.0400  210.6670  154.6510 C   0  0  1  0  0  3  0  0  0  0  0  0
  160.8140  209.2690  153.6980 C   0  0  0  0  0  3  0  0  0  0  0  0
  159.8020  211.9650  154.4860 C   0  0  0  0  0  2  0  0  0  0  0  0
  161.1190  211.8700  151.0820 N   0  0  0  0  0  0  0  0  0  0  0  0
  161.5810  209.1240  151.3760 C   0  0  0  0  0  0  0  0  0  0  0  0
  160.6600  211.3400  152.1780 C   0  0  0  0  0  0  0  0  0  0  0  0
  160.6040  209.8120  152.3080 C   0  0  2  0  0  3  0  0  0  0  0  0
  160.0660  209.5840  154.7640 C   0  0  0  0  0  0  0  0  0  0  0  0
  160.1200  212.2300  153.1230 O   0  0  0  0  0  0  0  0  0  0  0  0
  160.3350  208.9240  156.0930 C   0  0  1  0  0  3  0  0  0  0  0  0
  159.8160  207.4940  156.1040 C   0  0  0  0  0  1  0  0  0  0  0  0
  161.8170  208.9740  156.4440 C   0  0  0  0  0  2  0  0  0  0  0  0
  161.5840  211.2010  157.2580 O   0  0  0  0  0  1  0  0  0  0  0  0
  162.2780  210.3820  156.6020 C   0  0  0  0  0  0  0  0  0  0  0  0
  163.4890  210.7830  156.0540 O   0  0  0  0  0  0  0  0  0  0  0  0
  161.9940  207.8130  151.6640 O   0  0  0  0  0  0  0  0  0  0  0  0
  161.4310  206.6540  151.0590 C   0  0  1  0  0  3  0  0  0  0  0  0
  161.7530  206.6410  149.5660 C   0  0  0  0  0  2  0  0  0  0  0  0
  161.9920  205.4330  151.7280 C   0  0  0  0  0  3  0  0  0  0  0  0
  161.6610  204.1810  151.3810 C   0  0  0  0  0  3  0  0  0  0  0  0
  160.7770  205.8320  148.8480 N   0  0  0  0  0  2  0  0  0  0  0  0
  161.1610  204.4290  148.9530 C   0  0  0  0  0  2  0  0  0  0  0  0
  160.6900  203.8510  150.2840 C   0  0  1  0  0  3  0  0  0  0  0  0
  160.5750  202.3970  150.1660 C   0  0  0  0  0  0  0  0  0  0  0  0
  160.4840  201.2470  150.0750 N   0  0  0  0  0  0  0  0  0  0  0  0
  2  3  1  0  0  0  0
  2  7  1  0  0  0  0
  3  8  2  0  0  0  0
  4 11  1  0  0  0  0
  4  1  1  1  0  0  0
  5 11  2  0  0  0  0
  6  4  1  0  0  0  0
  7  9  2  0  0  0  0
  8 19  1  0  0  0  0
  8 10  1  0  0  0  0
  9 10  1  0  0  0  0
  9 12  1  0  0  0  0
 10  5  1  1  0  0  0
 11 13  1  0  0  0  0
 12  6  1  0  0  0  0
 13 14  1  6  0  0  0
 13 15  1  0  0  0  0
 15 17  1  0  0  0  0
 17 16  1  0  0  0  0
 18 17  2  0  0  0  0
 20 19  1  1  0  0  0
 20 22  1  0  0  0  0
 21 20  1  0  0  0  0
 23 22  2  0  0  0  0
 24 25  1  0  0  0  0
 24 21  1  0  0  0  0
 25 26  1  0  0  0  0
 26 27  1  6  0  0  0
 26 23  1  0  0  0  0
 28 27  3  0  0  0  0
M  END
>  <MODEL>
4

>  <REMARK>
 VINA RESULT:      -7.0      1.380      1.883
  Name = 
  6 active torsions:
  status: ('A' for Active; 'I' for Inactive)
    1  A    between atoms: C_5  and  O_12
    2  A    between atoms: C_8  and  C_20
    3  A    between atoms: O_12  and  C_13
    4  A    between atoms: C_20  and  C_21
    5  A    between atoms: C_21  and  C_22
    6  A    between atoms: C_23  and  C_26
                            x       y       z     vdW  Elec       q    Type
                         _______ _______ _______ _____ _____    ______ ____

>  <TORSDO>
F 6

$$$$
=
 OpenBabel11072411153D

 28 30  0  0  1  0  0  0  0  0999 V2000
  160.2340  210.3910  153.3030 O   0  0  0  0  0  1  0  0  0  0  0  0
  162.3470  207.3110  147.6790 C   0  0  0  0  0  2  0  0  0  0  0  0
  161.9360  206.0660  148.3930 C   0  0  0  0  0  3  0  0  0  0  0  0
  160.6740  209.5910  152.2470 C   0  0  1  0  0  3  0  0  0  0  0  0
  161.0710  207.2220  151.7540 C   0  0  0  0  0  3  0  0  0  0  0  0
  162.0540  210.0400  151.8190 C   0  0  0  0  0  2  0  0  0  0  0  0
  162.6440  208.3930  148.6140 N   0  0  0  0  0  0  0  0  0  0  0  0
  161.3220  206.1210  149.5800 C   0  0  0  0  0  0  0  0  0  0  0  0
  162.0780  208.5290  149.7780 C   0  0  0  0  0  0  0  0  0  0  0  0
  161.0960  207.4550  150.2650 C   0  0  2  0  0  3  0  0  0  0  0  0
  160.8050  208.1610  152.6710 C   0  0  0  0  0  0  0  0  0  0  0  0
  162.3170  209.7390  150.4520 O   0  0  0  0  0  0  0  0  0  0  0  0
  160.7470  207.7920  154.1320 C   0  0  1  0  0  3  0  0  0  0  0  0
  161.1390  206.3370  154.3400 C   0  0  0  0  0  1  0  0  0  0  0  0
  161.6170  208.7210  154.9700 C   0  0  0  0  0  2  0  0  0  0  0  0
  162.2730  208.7930  157.2610 O   0  0  0  0  0  1  0  0  0  0  0  0
  161.3800  208.4990  156.4250 C   0  0  0  0  0  0  0  0  0  0  0  0
  160.1600  207.9990  156.8620 O   0  0  0  0  0  0  0  0  0  0  0  0
  160.8570  204.9480  150.1950 O   0  0  0  0  0  0  0  0  0  0  0  0
  161.1920  203.6360  149.7540 C   0  0  1  0  0  3  0  0  0  0  0  0
  160.5090  202.6000  150.6450 C   0  0  0  0  0  2  0  0  0  0  0  0
  160.7530  203.4740  148.3280 C   0  0  0  0  0  3  0  0  0  0  0  0
  160.9230  202.3450  147.6250 C   0  0  0  0  0  3  0  0  0  0  0  0
  161.2340  201.3370  150.5930 N   0  0  0  0  0  2  0  0  0  0  0  0
  160.8160  200.6040  149.4040 C   0  0  0  0  0  2  0  0  0  0  0  0
  161.5730  201.1100  148.1800 C   0  0  1  0  0  3  0  0  0  0  0  0
  161.5800  200.0690  147.1510 C   0  0  0  0  0  0  0  0  0  0  0  0
  161.5850  199.2450  146.3380 N   0  0  0  0  0  0  0  0  0  0  0  0
  2  3  1  0  0  0  0
  2  7  1  0  0  0  0
  3  8  2  0  0  0  0
  4 11  1  0  0  0  0
  4  1  1  1  0  0  0
  5 11  2  0  0  0  0
  6  4  1  0  0  0  0
  7  9  2  0  0  0  0
  8 19  1  0  0  0  0
  8 10  1  0  0  0  0
  9 10  1  0  0  0  0
  9 12  1  0  0  0  0
 10  5  1  1  0  0  0
 11 13  1  0  0  0  0
 12  6  1  0  0  0  0
 13 14  1  6  0  0  0
 13 15  1  0  0  0  0
 15 17  1  0  0  0  0
 17 18  2  0  0  0  0
 17 16  1  0  0  0  0
 20 19  1  1  0  0  0
 20 21  1  0  0  0  0
 22 20  1  0  0  0  0
 23 26  1  0  0  0  0
 23 22  2  0  0  0  0
 24 21  1  0  0  0  0
 25 24  1  0  0  0  0
 26 27  1  6  0  0  0
 26 25  1  0  0  0  0
 28 27  3  0  0  0  0
M  END
>  <MODEL>
5

>  <REMARK>
 VINA RESULT:      -6.7      1.739      2.381
  Name = 
  6 active torsions:
  status: ('A' for Active; 'I' for Inactive)
    1  A    between atoms: C_5  and  O_12
    2  A    between atoms: C_8  and  C_20
    3  A    between atoms: O_12  and  C_13
    4  A    between atoms: C_20  and  C_21
    5  A    between atoms: C_21  and  C_22
    6  A    between atoms: C_23  and  C_26
                            x       y       z     vdW  Elec       q    Type
                         _______ _______ _______ _____ _____    ______ ____

>  <TORSDO>
F 6

$$$$
=
 OpenBabel11072411153D

 28 30  0  0  1  0  0  0  0  0999 V2000
  160.3690  205.2230  149.3540 O   0  0  0  0  0  1  0  0  0  0  0  0
  161.2040  208.1190  155.3950 C   0  0  0  0  0  2  0  0  0  0  0  0
  161.2340  209.3880  154.6080 C   0  0  0  0  0  3  0  0  0  0  0  0
  160.6030  205.9790  150.5040 C   0  0  1  0  0  3  0  0  0  0  0  0
  161.2230  208.2680  151.1260 C   0  0  0  0  0  3  0  0  0  0  0  0
  161.7010  205.3270  151.3160 C   0  0  0  0  0  2  0  0  0  0  0  0
  161.5810  206.9700  154.5750 N   0  0  0  0  0  0  0  0  0  0  0  0
  160.9980  209.3910  153.2920 C   0  0  0  0  0  0  0  0  0  0  0  0
  161.3700  206.8870  153.2930 C   0  0  0  0  0  0  0  0  0  0  0  0
  160.7680  208.0880  152.5510 C   0  0  2  0  0  3  0  0  0  0  0  0
  161.0880  207.3520  150.1580 C   0  0  0  0  0  0  0  0  0  0  0  0
  161.5940  205.6300  152.7040 O   0  0  0  0  0  0  0  0  0  0  0  0
  161.5260  207.6730  148.7510 C   0  0  1  0  0  3  0  0  0  0  0  0
  161.9560  209.1280  148.6360 C   0  0  0  0  0  1  0  0  0  0  0  0
  162.6350  206.7340  148.2910 C   0  0  0  0  0  2  0  0  0  0  0  0
  161.2380  206.4330  146.3840 O   0  0  0  0  0  0  0  0  0  0  0  0
  162.2690  206.0720  147.0080 C   0  0  0  0  0  0  0  0  0  0  0  0
  163.0840  205.0780  146.4810 O   0  0  0  0  0  1  0  0  0  0  0  0
  160.9360  210.6010  152.5830 O   0  0  0  0  0  0  0  0  0  0  0  0
  160.0410  211.6610  152.9040 C   0  0  1  0  0  3  0  0  0  0  0  0
  159.7540  212.4920  151.6550 C   0  0  0  0  0  2  0  0  0  0  0  0
  158.7700  211.0780  153.4500 C   0  0  0  0  0  3  0  0  0  0  0  0
  157.7240  211.8200  153.8420 C   0  0  0  0  0  3  0  0  0  0  0  0
  159.3310  213.8350  152.0310 N   0  0  0  0  0  2  0  0  0  0  0  0
  157.9090  213.8070  152.3510 C   0  0  0  0  0  2  0  0  0  0  0  0
  157.7000  213.3200  153.7820 C   0  0  1  0  0  3  0  0  0  0  0  0
  156.4060  213.7990  154.2710 C   0  0  0  0  0  0  0  0  0  0  0  0
  155.3830  214.1750  154.6590 N   0  0  0  0  0  0  0  0  0  0  0  0
  3  2  1  0  0  0  0
  4  1  1  6  0  0  0
  4  6  1  0  0  0  0
  6 12  1  0  0  0  0
  7  2  1  0  0  0  0
  8  3  2  0  0  0  0
  9  7  2  0  0  0  0
 10  5  1  6  0  0  0
 10  8  1  0  0  0  0
 10  9  1  0  0  0  0
 11  4  1  0  0  0  0
 11  5  2  0  0  0  0
 12  9  1  0  0  0  0
 13 14  1  1  0  0  0
 13 11  1  0  0  0  0
 15 13  1  0  0  0  0
 16 17  2  0  0  0  0
 17 15  1  0  0  0  0
 18 17  1  0  0  0  0
 19  8  1  0  0  0  0
 20 19  1  6  0  0  0
 20 22  1  0  0  0  0
 21 24  1  0  0  0  0
 21 20  1  0  0  0  0
 22 23  2  0  0  0  0
 24 25  1  0  0  0  0
 25 26  1  0  0  0  0
 26 23  1  0  0  0  0
 26 27  1  6  0  0  0
 27 28  3  0  0  0  0
M  END
>  <MODEL>
6

>  <REMARK>
 VINA RESULT:      -6.6      3.256      8.499
  Name = 
  6 active torsions:
  status: ('A' for Active; 'I' for Inactive)
    1  A    between atoms: C_5  and  O_12
    2  A    between atoms: C_8  and  C_20
    3  A    between atoms: O_12  and  C_13
    4  A    between atoms: C_20  and  C_21
    5  A    between atoms: C_21  and  C_22
    6  A    between atoms: C_23  and  C_26
                            x       y       z     vdW  Elec       q    Type
                         _______ _______ _______ _____ _____    ______ ____

>  <TORSDO>
F 6

$$$$
=
 OpenBabel11072411153D

 28 30  0  0  1  0  0  0  0  0999 V2000
  160.4240  212.5790  155.4990 O   0  0  0  0  0  1  0  0  0  0  0  0
  161.2060  205.9850  154.2790 C   0  0  0  0  0  2  0  0  0  0  0  0
  161.2080  206.4100  152.8480 C   0  0  0  0  0  3  0  0  0  0  0  0
  160.5300  211.2560  155.0640 C   0  0  1  0  0  3  0  0  0  0  0  0
  160.3810  209.9700  152.9820 C   0  0  0  0  0  3  0  0  0  0  0  0
  159.5280  210.4030  155.8100 C   0  0  0  0  0  2  0  0  0  0  0  0
  160.5140  206.9540  155.1250 N   0  0  0  0  0  0  0  0  0  0  0  0
  161.1820  207.7030  152.5110 C   0  0  0  0  0  0  0  0  0  0  0  0
  160.4580  208.2310  154.8780 C   0  0  0  0  0  0  0  0  0  0  0  0
  161.0730  208.7730  153.5800 C   0  0  2  0  0  3  0  0  0  0  0  0
  160.1910  211.1380  153.6110 C   0  0  0  0  0  0  0  0  0  0  0  0
  159.9440  209.0440  155.9040 O   0  0  0  0  0  0  0  0  0  0  0  0
  159.5400  212.2870  152.8850 C   0  0  1  0  0  3  0  0  0  0  0  0
  160.1570  212.4780  151.5070 C   0  0  0  0  0  1  0  0  0  0  0  0
  158.0310  212.0950  152.7880 C   0  0  0  0  0  2  0  0  0  0  0  0
  157.4600  214.0680  153.9960 O   0  0  0  0  0  0  0  0  0  0  0  0
  157.3330  212.8210  153.8870 C   0  0  0  0  0  0  0  0  0  0  0  0
  156.5160  212.1270  154.7690 O   0  0  0  0  0  1  0  0  0  0  0  0
  161.2800  208.0900  151.1640 O   0  0  0  0  0  0  0  0  0  0  0  0
  161.5540  207.1860  150.0990 C   0  0  1  0  0  3  0  0  0  0  0  0
  160.4810  206.0990  150.0550 C   0  0  0  0  0  2  0  0  0  0  0  0
  161.5820  207.9490  148.8070 C   0  0  0  0  0  3  0  0  0  0  0  0
  161.8100  207.3790  147.6150 C   0  0  0  0  0  3  0  0  0  0  0  0
  161.0000  204.9080  149.3930 N   0  0  0  0  0  2  0  0  0  0  0  0
  160.8920  205.0870  147.9510 C   0  0  0  0  0  2  0  0  0  0  0  0
  162.0660  205.9110  147.4320 C   0  0  1  0  0  3  0  0  0  0  0  0
  162.2610  205.6320  146.0080 C   0  0  0  0  0  0  0  0  0  0  0  0
  162.4130  205.4130  144.8820 N   0  0  0  0  0  0  0  0  0  0  0  0
  2  7  1  0  0  0  0
  3  2  1  0  0  0  0
  4  1  1  1  0  0  0
  4  6  1  0  0  0  0
  5 11  2  0  0  0  0
  6 12  1  0  0  0  0
  8  3  2  0  0  0  0
  8 10  1  0  0  0  0
  9  7  2  0  0  0  0
  9 12  1  0  0  0  0
 10  5  1  6  0  0  0
 10  9  1  0  0  0  0
 11  4  1  0  0  0  0
 13 14  1  6  0  0  0
 13 11  1  0  0  0  0
 15 13  1  0  0  0  0
 15 17  1  0  0  0  0
 17 16  2  0  0  0  0
 17 18  1  0  0  0  0
 19  8  1  0  0  0  0
 20 19  1  1  0  0  0
 21 20  1  0  0  0  0
 22 20  1  0  0  0  0
 23 22  2  0  0  0  0
 24 21  1  0  0  0  0
 25 24  1  0  0  0  0
 26 27  1  6  0  0  0
 26 23  1  0  0  0  0
 26 25  1  0  0  0  0
 28 27  3  0  0  0  0
M  END
>  <MODEL>
7

>  <REMARK>
 VINA RESULT:      -6.5      2.530      4.193
  Name = 
  6 active torsions:
  status: ('A' for Active; 'I' for Inactive)
    1  A    between atoms: C_5  and  O_12
    2  A    between atoms: C_8  and  C_20
    3  A    between atoms: O_12  and  C_13
    4  A    between atoms: C_20  and  C_21
    5  A    between atoms: C_21  and  C_22
    6  A    between atoms: C_23  and  C_26
                            x       y       z     vdW  Elec       q    Type
                         _______ _______ _______ _____ _____    ______ ____

>  <TORSDO>
F 6

$$$$
=
 OpenBabel11072411153D

 28 30  0  0  1  0  0  0  0  0999 V2000
  159.8970  201.4660  148.2660 O   0  0  0  0  0  1  0  0  0  0  0  0
  161.1660  205.7250  153.3480 C   0  0  0  0  0  2  0  0  0  0  0  0
  161.6550  206.6270  152.2630 C   0  0  0  0  0  3  0  0  0  0  0  0
  160.2750  202.4420  149.1910 C   0  0  1  0  0  3  0  0  0  0  0  0
  161.5430  204.5390  149.2630 C   0  0  0  0  0  3  0  0  0  0  0  0
  161.0460  201.7910  150.3180 C   0  0  0  0  0  2  0  0  0  0  0  0
  161.2180  204.3220  152.9440 N   0  0  0  0  0  0  0  0  0  0  0  0
  161.5290  206.2900  150.9760 C   0  0  0  0  0  0  0  0  0  0  0  0
  161.0850  203.9110  151.7160 C   0  0  0  0  0  0  0  0  0  0  0  0
  160.9510  204.9430  150.5880 C   0  0  2  0  0  3  0  0  0  0  0  0
  161.1950  203.4460  148.5700 C   0  0  0  0  0  0  0  0  0  0  0  0
  160.9410  202.5240  151.5340 O   0  0  0  0  0  0  0  0  0  0  0  0
  161.8130  203.1810  147.2210 C   0  0  1  0  0  3  0  0  0  0  0  0
  160.7910  202.5890  146.2620 C   0  0  0  0  0  1  0  0  0  0  0  0
  162.4400  204.4440  146.6440 C   0  0  0  0  0  2  0  0  0  0  0  0
  160.6640  205.9740  146.2100 O   0  0  0  0  0  1  0  0  0  0  0  0
  161.4850  205.1440  145.7390 C   0  0  0  0  0  0  0  0  0  0  0  0
  161.5220  204.9060  144.3720 O   0  0  0  0  0  0  0  0  0  0  0  0
  161.9060  207.1890  149.9650 O   0  0  0  0  0  0  0  0  0  0  0  0
  161.5700  208.5730  149.9710 C   0  0  1  0  0  3  0  0  0  0  0  0
  162.0950  209.2270  151.2480 C   0  0  0  0  0  2  0  0  0  0  0  0
  162.1730  209.2260  148.7610 C   0  0  0  0  0  3  0  0  0  0  0  0
  162.0420  210.5300  148.4810 C   0  0  0  0  0  3  0  0  0  0  0  0
  161.3280  210.4290  151.5470 N   0  0  0  0  0  2  0  0  0  0  0  0
  161.8560  211.5330  150.7540 C   0  0  0  0  0  2  0  0  0  0  0  0
  161.2770  211.4920  149.3430 C   0  0  1  0  0  3  0  0  0  0  0  0
  161.3500  212.8290  148.7510 C   0  0  0  0  0  0  0  0  0  0  0  0
  161.4060  213.8860  148.2830 N   0  0  0  0  0  0  0  0  0  0  0  0
  3  2  1  0  0  0  0
  4  1  1  6  0  0  0
  4  6  1  0  0  0  0
  6 12  1  0  0  0  0
  7  2  1  0  0  0  0
  8  3  2  0  0  0  0
  9  7  2  0  0  0  0
 10  5  1  6  0  0  0
 10  8  1  0  0  0  0
 10  9  1  0  0  0  0
 11  4  1  0  0  0  0
 11  5  2  0  0  0  0
 12  9  1  0  0  0  0
 13 14  1  6  0  0  0
 13 11  1  0  0  0  0
 15 13  1  0  0  0  0
 17 16  1  0  0  0  0
 17 15  1  0  0  0  0
 18 17  2  0  0  0  0
 19  8  1  0  0  0  0
 20 19  1  1  0  0  0
 20 21  1  0  0  0  0
 21 24  1  0  0  0  0
 22 20  1  0  0  0  0
 23 22  2  0  0  0  0
 23 26  1  0  0  0  0
 25 24  1  0  0  0  0
 26 27  1  6  0  0  0
 26 25  1  0  0  0  0
 28 27  3  0  0  0  0
M  END
>  <MODEL>
8

>  <REMARK>
 VINA RESULT:      -6.2      3.694      8.555
  Name = 
  6 active torsions:
  status: ('A' for Active; 'I' for Inactive)
    1  A    between atoms: C_5  and  O_12
    2  A    between atoms: C_8  and  C_20
    3  A    between atoms: O_12  and  C_13
    4  A    between atoms: C_20  and  C_21
    5  A    between atoms: C_21  and  C_22
    6  A    between atoms: C_23  and  C_26
                            x       y       z     vdW  Elec       q    Type
                         _______ _______ _______ _____ _____    ______ ____

>  <TORSDO>
F 6

$$$$
=
 OpenBabel11072411153D

 28 30  0  0  1  0  0  0  0  0999 V2000
  158.9390  214.0130  153.9530 O   0  0  0  0  0  1  0  0  0  0  0  0
  160.7320  207.7910  155.8620 C   0  0  0  0  0  2  0  0  0  0  0  0
  161.1760  207.6530  154.4430 C   0  0  0  0  0  3  0  0  0  0  0  0
  159.3150  212.6850  154.1570 C   0  0  1  0  0  3  0  0  0  0  0  0
  160.0050  210.7290  152.8490 C   0  0  0  0  0  3  0  0  0  0  0  0
  158.2100  211.9590  154.8920 C   0  0  0  0  0  2  0  0  0  0  0  0
  159.7040  208.8190  156.0050 N   0  0  0  0  0  0  0  0  0  0  0  0
  161.1370  208.6920  153.6030 C   0  0  0  0  0  0  0  0  0  0  0  0
  159.6090  209.8690  155.2420 C   0  0  0  0  0  0  0  0  0  0  0  0
  160.5690  210.0230  154.0540 C   0  0  2  0  0  3  0  0  0  0  0  0
  159.5000  211.9700  152.8550 C   0  0  0  0  0  0  0  0  0  0  0  0
  158.7020  210.8600  155.6540 O   0  0  0  0  0  0  0  0  0  0  0  0
  159.0220  212.5950  151.5690 C   0  0  1  0  0  3  0  0  0  0  0  0
  157.6920  213.3060  151.7720 C   0  0  0  0  0  1  0  0  0  0  0  0
  160.0680  213.5420  150.9940 C   0  0  0  0  0  2  0  0  0  0  0  0
  161.2790  212.8010  149.0790 O   0  0  0  0  0  1  0  0  0  0  0  0
  160.2280  213.3290  149.5280 C   0  0  0  0  0  0  0  0  0  0  0  0
  159.2030  213.6790  148.6590 O   0  0  0  0  0  0  0  0  0  0  0  0
  161.6460  208.5720  152.2990 O   0  0  0  0  0  0  0  0  0  0  0  0
  161.2350  207.5660  151.3790 C   0  0  1  0  0  3  0  0  0  0  0  0
  161.6750  207.9460  149.9660 C   0  0  0  0  0  2  0  0  0  0  0  0
  161.8460  206.2560  151.7840 C   0  0  0  0  0  3  0  0  0  0  0  0
  161.6540  205.1110  151.1140 C   0  0  0  0  0  3  0  0  0  0  0  0
  160.8330  207.2790  148.9810 N   0  0  0  0  0  2  0  0  0  0  0  0
  161.3290  205.9230  148.7810 C   0  0  0  0  0  2  0  0  0  0  0  0
  160.8060  205.0020  149.8800 C   0  0  1  0  0  3  0  0  0  0  0  0
  160.8280  203.6180  149.4030 C   0  0  0  0  0  0  0  0  0  0  0  0
  160.8440  202.5240  149.0270 N   0  0  0  0  0  0  0  0  0  0  0  0
  2  7  1  0  0  0  0
  3  2  1  0  0  0  0
  4  1  1  6  0  0  0
  4  6  1  0  0  0  0
  5 11  2  0  0  0  0
  6 12  1  0  0  0  0
  8 10  1  0  0  0  0
  8  3  2  0  0  0  0
  9 12  1  0  0  0  0
  9  7  2  0  0  0  0
 10  5  1  6  0  0  0
 10  9  1  0  0  0  0
 11  4  1  0  0  0  0
 13 14  1  1  0  0  0
 13 11  1  0  0  0  0
 15 13  1  0  0  0  0
 16 17  1  0  0  0  0
 17 15  1  0  0  0  0
 18 17  2  0  0  0  0
 19  8  1  0  0  0  0
 20 22  1  0  0  0  0
 20 19  1  1  0  0  0
 21 20  1  0  0  0  0
 23 22  2  0  0  0  0
 24 21  1  0  0  0  0
 25 24  1  0  0  0  0
 25 26  1  0  0  0  0
 26 27  1  6  0  0  0
 26 23  1  0  0  0  0
 28 27  3  0  0  0  0
M  END
>  <MODEL>
9

>  <REMARK>
 VINA RESULT:      -6.1      2.575      4.866
  Name = 
  6 active torsions:
  status: ('A' for Active; 'I' for Inactive)
    1  A    between atoms: C_5  and  O_12
    2  A    between atoms: C_8  and  C_20
    3  A    between atoms: O_12  and  C_13
    4  A    between atoms: C_20  and  C_21
    5  A    between atoms: C_21  and  C_22
    6  A    between atoms: C_23  and  C_26
                            x       y       z     vdW  Elec       q    Type
                         _______ _______ _______ _____ _____    ______ ____

>  <TORSDO>
F 6

$$$$
