=
 OpenBabel11072409493D

 49 55  0  0  1  0  0  0  0  0999 V2000
  156.9100  214.0770  148.3970 C   0  0  0  0  0  2  0  0  0  0  0  0
  156.6830  214.3410  146.8980 C   0  0  0  0  0  2  0  0  0  0  0  0
  160.0580  212.8800  145.6080 C   0  0  2  0  0  3  0  0  0  0  0  0
  158.3990  214.1370  148.7690 C   0  0  2  0  0  3  0  0  0  0  0  0
  157.5460  213.4220  146.0220 C   0  0  0  0  0  2  0  0  0  0  0  0
  159.1550  213.1700  147.8590 C   0  0  1  0  0  3  0  0  0  0  0  0
  159.0060  213.6250  146.4150 C   0  0  1  0  0  3  0  0  0  0  0  0
  160.5480  212.8990  148.2610 N   0  0  0  0  0  2  0  0  0  0  0  0
  161.4800  213.3150  146.0840 C   0  0  2  0  0  3  0  0  0  0  0  0
  161.4610  213.6890  147.5220 N   0  0  0  0  0  0  0  0  0  0  0  0
  160.1620  211.3050  142.1190 C   0  0  0  0  0  0  0  0  0  0  0  0
  159.3020  212.1640  141.4270 C   0  0  0  0  0  3  0  0  0  0  0  0
  158.7020  213.2430  142.0800 C   0  0  0  0  0  3  0  0  0  0  0  0
  159.8190  212.6220  144.1430 C   0  0  0  0  0  0  0  0  0  0  0  0
  160.4170  211.5410  143.4770 C   0  0  0  0  0  3  0  0  0  0  0  0
  158.9600  213.4700  143.4350 C   0  0  0  0  0  3  0  0  0  0  0  0
  161.8620  210.2580  140.5100 C   0  0  0  0  0  0  0  0  0  0  0  0
  162.3270  209.0110  139.8490 C   0  0  0  0  0  1  0  0  0  0  0  0
  160.7540  210.2010  141.4190 N   0  0  0  0  0  2  0  0  0  0  0  0
  162.4560  211.3420  140.2670 O   0  0  0  0  0  0  0  0  0  0  0  0
  160.1470  213.4070  152.1520 C   0  0  0  0  0  2  0  0  0  0  0  0
  158.5820  213.8230  150.2210 C   0  0  0  0  0  0  0  0  0  0  0  0
  157.5530  213.5780  150.9810 N   0  0  0  0  0  0  0  0  0  0  0  0
  159.9110  213.7080  150.7420 N   0  0  0  0  0  2  0  0  0  0  0  0
  159.0020  212.5720  152.7250 C   0  0  1  0  0  3  0  0  0  0  0  0
  157.6740  213.2640  152.4060 C   0  0  0  0  0  2  0  0  0  0  0  0
  159.0180  211.1550  152.1690 C   0  0  0  0  0  2  0  0  0  0  0  0
  160.2590  210.9280  151.4370 N   0  0  0  0  0  0  0  0  0  0  0  0
  161.0830  209.9450  151.6550 C   0  0  0  0  0  0  0  0  0  0  0  0
  161.9450  204.4670  150.6480 C   0  0  0  0  0  2  0  0  0  0  0  0
  161.3340  206.6570  153.6990 C   0  0  0  0  0  2  0  0  0  0  0  0
  160.3520  209.3440  153.8300 O   0  0  0  0  0  0  0  0  0  0  0  0
  161.1980  207.5710  152.5730 N   0  0  0  0  0  0  0  0  0  0  0  0
  160.3830  203.2810  152.1840 C   0  0  0  0  0  2  0  0  0  0  0  0
  160.8480  208.9550  152.7370 C   0  0  0  0  0  0  0  0  0  0  0  0
  162.0870  205.6030  151.6710 C   0  0  2  0  0  3  0  0  0  0  0  0
  161.6100  205.2870  153.0950 C   0  0  2  0  0  3  0  0  0  0  0  0
  160.3020  204.4930  153.1020 C   0  0  0  0  0  2  0  0  0  0  0  0
  160.2860  206.7850  150.5830 O   0  0  0  0  0  1  0  0  0  0  0  0
  161.4810  206.9470  151.2930 C   0  0  1  0  0  3  0  0  0  0  0  0
  160.6010  203.7550  150.7550 C   0  0  0  0  0  2  0  0  0  0  0  0
  162.3070  209.8620  150.8320 C   0  0  0  0  0  0  0  0  0  0  0  0
  163.4370  210.0180  151.3670 O   0  0  0  0  0  0  0  0  0  0  0  0
  162.2310  209.5740  149.4380 N   0  0  0  0  0  1  0  0  0  0  0  0
  162.1630  214.3710  143.8220 C   0  0  0  0  0  2  0  0  0  0  0  0
  162.2210  214.4530  145.3320 C   0  0  0  0  0  3  0  0  0  0  0  0
  163.4370  213.9930  144.5580 C   0  0  0  0  0  2  0  0  0  0  0  0
  162.7920  213.4910  148.1090 C   0  0  0  0  0  2  0  0  0  0  0  0
  163.4340  212.1710  147.6810 C   0  0  0  0  0  1  0  0  0  0  0  0
  1  4  1  0  0  0  0
  2  1  1  0  0  0  0
  3 14  1  6  0  0  0
  3  9  1  0  0  0  0
  3  7  1  0  0  0  0
  4 22  1  1  0  0  0
  5  2  1  0  0  0  0
  6  8  1  1  0  0  0
  6  4  1  0  0  0  0
  7  5  1  6  0  0  0
  7  6  1  0  0  0  0
  9 46  1  6  0  0  0
  9 10  1  0  0  0  0
 10 48  1  0  0  0  0
 10  8  1  0  0  0  0
 11 15  1  0  0  0  0
 12 13  1  0  0  0  0
 12 11  2  0  0  0  0
 13 16  2  0  0  0  0
 15 14  2  0  0  0  0
 16 14  1  0  0  0  0
 17 19  1  0  0  0  0
 18 17  1  0  0  0  0
 19 11  1  0  0  0  0
 20 17  2  0  0  0  0
 21 25  1  0  0  0  0
 22 24  1  0  0  0  0
 22 23  2  0  0  0  0
 23 26  1  0  0  0  0
 24 21  1  0  0  0  0
 25 27  1  6  0  0  0
 26 25  1  0  0  0  0
 28 29  2  0  0  0  0
 28 27  1  0  0  0  0
 29 35  1  0  0  0  0
 30 41  1  0  0  0  0
 33 35  1  0  0  0  0
 33 31  1  0  0  0  0
 34 38  1  0  0  0  0
 35 32  2  0  0  0  0
 36 30  1  6  0  0  0
 36 37  1  0  0  0  0
 37 38  1  6  0  0  0
 37 31  1  0  0  0  0
 40 39  1  6  0  0  0
 40 36  1  0  0  0  0
 40 33  1  0  0  0  0
 41 34  1  0  0  0  0
 42 43  2  0  0  0  0
 42 29  1  0  0  0  0
 44 42  1  0  0  0  0
 45 47  1  0  0  0  0
 45 46  1  0  0  0  0
 47 46  1  0  0  0  0
 49 48  1  0  0  0  0
M  END
>  <MODEL>
1

>  <REMARK>
 VINA RESULT:      -4.7      0.000      0.000
  Name = 
  9 active torsions:
  status: ('A' for Active; 'I' for Inactive)
    1  A    between atoms: C_1  and  N_27
    2  A    between atoms: C_4  and  N_44
    3  A    between atoms: N_6  and  C_29
    4  A    between atoms: C_7  and  C_21
    5  A    between atoms: C_19  and  C_26
    6  A    between atoms: C_20  and  C_42
    7  A    between atoms: C_24  and  C_42
    8  A    between atoms: C_29  and  C_32
    9  A    between atoms: C_39  and  C_43
                            x       y       z     vdW  Elec       q    Type
                         _______ _______ _______ _____ _____    ______ ____

>  <TORSDO>
F 9

$$$$
=
 OpenBabel11072409493D

 49 55  0  0  1  0  0  0  0  0999 V2000
  163.0440  209.6140  147.8490 C   0  0  0  0  0  2  0  0  0  0  0  0
  163.4190  208.1730  148.2350 C   0  0  0  0  0  2  0  0  0  0  0  0
  161.0660  207.8460  151.3250 C   0  0  2  0  0  3  0  0  0  0  0  0
  162.6420  210.4490  149.0740 C   0  0  2  0  0  3  0  0  0  0  0  0
  162.3180  207.5030  149.0690 C   0  0  0  0  0  2  0  0  0  0  0  0
  161.5280  209.7060  149.8100 C   0  0  1  0  0  3  0  0  0  0  0  0
  162.0610  208.3670  150.2990 C   0  0  1  0  0  3  0  0  0  0  0  0
  160.8380  210.4920  150.8500 N   0  0  0  0  0  2  0  0  0  0  0  0
  161.0380  208.8080  152.5550 C   0  0  2  0  0  3  0  0  0  0  0  0
  161.3460  210.2000  152.1380 N   0  0  0  0  0  0  0  0  0  0  0  0
  160.6880  204.0850  150.7090 C   0  0  0  0  0  0  0  0  0  0  0  0
  160.7760  203.6030  152.0200 C   0  0  0  0  0  3  0  0  0  0  0  0
  160.9490  204.4860  153.0890 C   0  0  0  0  0  3  0  0  0  0  0  0
  160.9470  206.3600  151.5490 C   0  0  0  0  0  0  0  0  0  0  0  0
  160.7730  205.4650  150.4810 C   0  0  0  0  0  3  0  0  0  0  0  0
  161.0340  205.8610  152.8530 C   0  0  0  0  0  3  0  0  0  0  0  0
  161.1530  203.2010  148.3480 C   0  0  0  0  0  0  0  0  0  0  0  0
  160.8370  202.1560  147.3400 C   0  0  0  0  0  1  0  0  0  0  0  0
  160.5200  203.1500  149.6350 N   0  0  0  0  0  2  0  0  0  0  0  0
  161.9770  204.1080  148.0580 O   0  0  0  0  0  0  0  0  0  0  0  0
  160.3830  213.4570  148.1330 C   0  0  0  0  0  2  0  0  0  0  0  0
  162.2330  211.8250  148.6510 C   0  0  0  0  0  0  0  0  0  0  0  0
  163.1290  212.7080  148.3130 N   0  0  0  0  0  0  0  0  0  0  0  0
  160.8380  212.1290  148.5380 N   0  0  0  0  0  2  0  0  0  0  0  0
  161.4100  214.1240  147.2180 C   0  0  1  0  0  3  0  0  0  0  0  0
  162.7850  214.0680  147.8910 C   0  0  0  0  0  2  0  0  0  0  0  0
  161.4510  213.4550  145.8510 C   0  0  0  0  0  2  0  0  0  0  0  0
  160.1860  213.6690  145.1610 N   0  0  0  0  0  0  0  0  0  0  0  0
  160.0530  213.8030  143.8730 C   0  0  0  0  0  0  0  0  0  0  0  0
  160.0260  210.4610  139.3360 C   0  0  0  0  0  2  0  0  0  0  0  0
  162.1530  213.3310  140.6460 C   0  0  0  0  0  2  0  0  0  0  0  0
  162.2560  214.4510  143.2800 O   0  0  0  0  0  0  0  0  0  0  0  0
  161.2010  213.0770  141.7190 N   0  0  0  0  0  0  0  0  0  0  0  0
  162.4250  209.9370  138.9140 C   0  0  0  0  0  2  0  0  0  0  0  0
  161.2260  213.7950  142.9630 C   0  0  0  0  0  0  0  0  0  0  0  0
  160.4260  211.8360  139.8930 C   0  0  2  0  0  3  0  0  0  0  0  0
  161.8490  212.3050  139.5640 C   0  0  2  0  0  3  0  0  0  0  0  0
  162.8710  211.1720  139.6840 C   0  0  0  0  0  2  0  0  0  0  0  0
  160.5020  210.8930  142.1130 O   0  0  0  0  0  1  0  0  0  0  0  0
  160.2250  212.0560  141.3850 C   0  0  1  0  0  3  0  0  0  0  0  0
  161.1260  209.4210  139.5150 C   0  0  0  0  0  2  0  0  0  0  0  0
  158.6980  214.0280  143.3290 C   0  0  0  0  0  0  0  0  0  0  0  0
  158.5550  214.4500  142.1500 O   0  0  0  0  0  0  0  0  0  0  0  0
  157.5410  213.7410  144.1110 N   0  0  0  0  0  1  0  0  0  0  0  0
  161.1850  208.0500  155.0250 C   0  0  0  0  0  2  0  0  0  0  0  0
  161.9300  208.4970  153.7860 C   0  0  0  0  0  3  0  0  0  0  0  0
  161.7460  209.4590  154.9400 C   0  0  0  0  0  2  0  0  0  0  0  0
  160.7370  211.1500  153.0780 C   0  0  0  0  0  2  0  0  0  0  0  0
  159.2180  211.2360  152.9270 C   0  0  0  0  0  1  0  0  0  0  0  0
  1  2  1  0  0  0  0
  1  4  1  0  0  0  0
  2  5  1  0  0  0  0
  3 14  1  1  0  0  0
  3  9  1  0  0  0  0
  4 22  1  6  0  0  0
  4  6  1  0  0  0  0
  6  7  1  0  0  0  0
  6  8  1  1  0  0  0
  7  5  1  6  0  0  0
  7  3  1  0  0  0  0
  8 10  1  0  0  0  0
  9 46  1  1  0  0  0
 10  9  1  0  0  0  0
 10 48  1  0  0  0  0
 11 12  1  0  0  0  0
 12 13  2  0  0  0  0
 14 16  2  0  0  0  0
 15 11  2  0  0  0  0
 15 14  1  0  0  0  0
 16 13  1  0  0  0  0
 17 19  1  0  0  0  0
 18 17  1  0  0  0  0
 19 11  1  0  0  0  0
 20 17  2  0  0  0  0
 21 24  1  0  0  0  0
 23 22  2  0  0  0  0
 24 22  1  0  0  0  0
 25 27  1  6  0  0  0
 25 26  1  0  0  0  0
 25 21  1  0  0  0  0
 26 23  1  0  0  0  0
 28 27  1  0  0  0  0
 29 28  2  0  0  0  0
 30 41  1  0  0  0  0
 31 33  1  0  0  0  0
 33 35  1  0  0  0  0
 34 41  1  0  0  0  0
 34 38  1  0  0  0  0
 35 32  2  0  0  0  0
 35 29  1  0  0  0  0
 36 30  1  1  0  0  0
 36 40  1  0  0  0  0
 37 38  1  1  0  0  0
 37 36  1  0  0  0  0
 37 31  1  0  0  0  0
 40 33  1  0  0  0  0
 40 39  1  1  0  0  0
 42 29  1  0  0  0  0
 42 44  1  0  0  0  0
 43 42  2  0  0  0  0
 46 47  1  0  0  0  0
 46 45  1  0  0  0  0
 47 45  1  0  0  0  0
 49 48  1  0  0  0  0
M  END
>  <MODEL>
2

>  <REMARK>
 VINA RESULT:      -3.9      2.479     10.025
  Name = 
  9 active torsions:
  status: ('A' for Active; 'I' for Inactive)
    1  A    between atoms: C_1  and  N_27
    2  A    between atoms: C_4  and  N_44
    3  A    between atoms: N_6  and  C_29
    4  A    between atoms: C_7  and  C_21
    5  A    between atoms: C_19  and  C_26
    6  A    between atoms: C_20  and  C_42
    7  A    between atoms: C_24  and  C_42
    8  A    between atoms: C_29  and  C_32
    9  A    between atoms: C_39  and  C_43
                            x       y       z     vdW  Elec       q    Type
                         _______ _______ _______ _____ _____    ______ ____

>  <TORSDO>
F 9

$$$$
=
 OpenBabel11072409493D

 49 55  0  0  1  0  0  0  0  0999 V2000
  162.4720  210.1810  148.1940 C   0  0  0  0  0  2  0  0  0  0  0  0
  163.0470  208.9850  148.9740 C   0  0  0  0  0  2  0  0  0  0  0  0
  160.7340  209.2570  152.0990 C   0  0  2  0  0  3  0  0  0  0  0  0
  161.9420  211.2750  149.1340 C   0  0  2  0  0  3  0  0  0  0  0  0
  162.0450  208.4430  150.0030 C   0  0  0  0  0  2  0  0  0  0  0  0
  160.9390  210.6340  150.0910 C   0  0  1  0  0  3  0  0  0  0  0  0
  161.6540  209.5860  150.9330 C   0  0  1  0  0  3  0  0  0  0  0  0
  160.1340  211.5860  150.8770 N   0  0  0  0  0  2  0  0  0  0  0  0
  160.5550  210.5250  152.9930 C   0  0  2  0  0  3  0  0  0  0  0  0
  160.6650  211.7620  152.1770 N   0  0  0  0  0  0  0  0  0  0  0  0
  160.9960  205.4730  152.6220 C   0  0  0  0  0  0  0  0  0  0  0  0
  161.0440  205.4120  154.0190 C   0  0  0  0  0  3  0  0  0  0  0  0
  160.9840  206.5820  154.7810 C   0  0  0  0  0  3  0  0  0  0  0  0
  160.8270  207.9020  152.7520 C   0  0  0  0  0  0  0  0  0  0  0  0
  160.8860  206.7210  151.9960 C   0  0  0  0  0  3  0  0  0  0  0  0
  160.8760  207.8230  154.1480 C   0  0  0  0  0  3  0  0  0  0  0  0
  161.0280  204.1230  150.4430 C   0  0  0  0  0  0  0  0  0  0  0  0
  161.0870  202.7690  149.8330 C   0  0  0  0  0  1  0  0  0  0  0  0
  161.0690  204.2530  151.8710 N   0  0  0  0  0  2  0  0  0  0  0  0
  160.9510  205.1330  149.6940 O   0  0  0  0  0  0  0  0  0  0  0  0
  159.3060  213.4340  147.2830 C   0  0  0  0  0  2  0  0  0  0  0  0
  161.3440  212.3940  148.3390 C   0  0  0  0  0  0  0  0  0  0  0  0
  162.0990  213.3360  147.8500 N   0  0  0  0  0  0  0  0  0  0  0  0
  159.9420  212.3660  148.0510 N   0  0  0  0  0  2  0  0  0  0  0  0
  160.2990  214.0600  146.3040 C   0  0  1  0  0  3  0  0  0  0  0  0
  161.5680  214.4530  147.0660 C   0  0  0  0  0  2  0  0  0  0  0  0
  160.6280  213.1060  145.1640 C   0  0  0  0  0  2  0  0  0  0  0  0
  161.8370  213.5520  144.4830 N   0  0  0  0  0  0  0  0  0  0  0  0
  161.9270  213.7960  143.2080 C   0  0  0  0  0  0  0  0  0  0  0  0
  161.9880  209.4730  139.5940 C   0  0  0  0  0  2  0  0  0  0  0  0
  159.4320  211.9990  140.8440 C   0  0  0  0  0  2  0  0  0  0  0  0
  159.8550  214.4530  142.2580 O   0  0  0  0  0  0  0  0  0  0  0  0
  160.6800  212.4210  141.4630 N   0  0  0  0  0  0  0  0  0  0  0  0
  160.6040  210.2320  137.6660 C   0  0  0  0  0  2  0  0  0  0  0  0
  160.7760  213.5920  142.2910 C   0  0  0  0  0  0  0  0  0  0  0  0
  161.1250  210.3160  140.5440 C   0  0  2  0  0  3  0  0  0  0  0  0
  159.7790  210.7930  139.9820 C   0  0  2  0  0  3  0  0  0  0  0  0
  159.8950  211.2640  138.5310 C   0  0  0  0  0  2  0  0  0  0  0  0
  162.6710  212.1520  140.2910 O   0  0  0  0  0  1  0  0  0  0  0  0
  161.7890  211.5280  141.1810 C   0  0  1  0  0  3  0  0  0  0  0  0
  162.0240  210.0440  138.1810 C   0  0  0  0  0  2  0  0  0  0  0  0
  163.2320  214.2310  142.6680 C   0  0  0  0  0  0  0  0  0  0  0  0
  164.2150  214.3820  143.4420 O   0  0  0  0  0  0  0  0  0  0  0  0
  163.4060  214.4520  141.2710 N   0  0  0  0  0  1  0  0  0  0  0  0
  160.8650  210.2940  155.5520 C   0  0  0  0  0  2  0  0  0  0  0  0
  161.4700  210.7190  154.2320 C   0  0  0  0  0  3  0  0  0  0  0  0
  160.9780  211.7680  155.2040 C   0  0  0  0  0  2  0  0  0  0  0  0
  159.9160  212.8510  152.8160 C   0  0  0  0  0  2  0  0  0  0  0  0
  158.4120  212.7620  152.5610 C   0  0  0  0  0  1  0  0  0  0  0  0
  1  2  1  0  0  0  0
  1  4  1  0  0  0  0
  2  5  1  0  0  0  0
  3 14  1  1  0  0  0
  3  9  1  0  0  0  0
  4 22  1  6  0  0  0
  4  6  1  0  0  0  0
  6  8  1  1  0  0  0
  6  7  1  0  0  0  0
  7  5  1  6  0  0  0
  7  3  1  0  0  0  0
  8 10  1  0  0  0  0
  9 46  1  1  0  0  0
 10 48  1  0  0  0  0
 10  9  1  0  0  0  0
 11 12  1  0  0  0  0
 12 13  2  0  0  0  0
 14 16  2  0  0  0  0
 15 11  2  0  0  0  0
 15 14  1  0  0  0  0
 16 13  1  0  0  0  0
 17 19  1  0  0  0  0
 18 17  1  0  0  0  0
 19 11  1  0  0  0  0
 20 17  2  0  0  0  0
 21 24  1  0  0  0  0
 23 22  2  0  0  0  0
 24 22  1  0  0  0  0
 25 27  1  6  0  0  0
 25 26  1  0  0  0  0
 25 21  1  0  0  0  0
 26 23  1  0  0  0  0
 28 27  1  0  0  0  0
 29 28  2  0  0  0  0
 31 33  1  0  0  0  0
 32 35  2  0  0  0  0
 33 35  1  0  0  0  0
 34 41  1  0  0  0  0
 34 38  1  0  0  0  0
 35 29  1  0  0  0  0
 36 30  1  6  0  0  0
 36 40  1  0  0  0  0
 37 38  1  6  0  0  0
 37 36  1  0  0  0  0
 37 31  1  0  0  0  0
 40 39  1  6  0  0  0
 40 33  1  0  0  0  0
 41 30  1  0  0  0  0
 42 29  1  0  0  0  0
 42 43  2  0  0  0  0
 44 42  1  0  0  0  0
 46 47  1  0  0  0  0
 46 45  1  0  0  0  0
 47 45  1  0  0  0  0
 49 48  1  0  0  0  0
M  END
>  <MODEL>
3

>  <REMARK>
 VINA RESULT:      -3.9      2.063     10.166
  Name = 
  9 active torsions:
  status: ('A' for Active; 'I' for Inactive)
    1  A    between atoms: C_1  and  N_27
    2  A    between atoms: C_4  and  N_44
    3  A    between atoms: N_6  and  C_29
    4  A    between atoms: C_7  and  C_21
    5  A    between atoms: C_19  and  C_26
    6  A    between atoms: C_20  and  C_42
    7  A    between atoms: C_24  and  C_42
    8  A    between atoms: C_29  and  C_32
    9  A    between atoms: C_39  and  C_43
                            x       y       z     vdW  Elec       q    Type
                         _______ _______ _______ _____ _____    ______ ____

>  <TORSDO>
F 9

$$$$
=
 OpenBabel11072409493D

 49 55  0  0  1  0  0  0  0  0999 V2000
  162.5190  208.8060  149.2030 C   0  0  0  0  0  2  0  0  0  0  0  0
  162.9130  208.0700  147.9100 C   0  0  0  0  0  2  0  0  0  0  0  0
  160.7670  204.8650  148.4750 C   0  0  2  0  0  3  0  0  0  0  0  0
  162.2020  207.8280  150.3440 C   0  0  2  0  0  3  0  0  0  0  0  0
  161.8660  207.0200  147.5120 C   0  0  0  0  0  2  0  0  0  0  0  0
  161.1360  206.8510  149.8500 C   0  0  1  0  0  3  0  0  0  0  0  0
  161.6940  206.0540  148.6790 C   0  0  1  0  0  3  0  0  0  0  0  0
  160.5190  206.0200  150.9010 N   0  0  0  0  0  2  0  0  0  0  0  0
  160.8240  203.9410  149.7320 C   0  0  2  0  0  3  0  0  0  0  0  0
  161.1100  204.7350  150.9550 N   0  0  0  0  0  0  0  0  0  0  0  0
  160.4850  202.2930  145.6520 C   0  0  0  0  0  0  0  0  0  0  0  0
  160.4060  203.1410  144.5420 C   0  0  0  0  0  3  0  0  0  0  0  0
  160.4500  204.5280  144.7060 C   0  0  0  0  0  3  0  0  0  0  0  0
  160.6570  204.2430  147.1070 C   0  0  0  0  0  0  0  0  0  0  0  0
  160.6120  202.8510  146.9310 C   0  0  0  0  0  3  0  0  0  0  0  0
  160.5750  205.0760  145.9860 C   0  0  0  0  0  3  0  0  0  0  0  0
  161.2590  199.8850  146.0700 C   0  0  0  0  0  0  0  0  0  0  0  0
  161.0770  198.4530  145.7150 C   0  0  0  0  0  1  0  0  0  0  0  0
  160.4270  200.8750  145.4480 N   0  0  0  0  0  2  0  0  0  0  0  0
  162.1360  200.2030  146.9160 O   0  0  0  0  0  0  0  0  0  0  0  0
  160.3080  208.7010  153.6130 C   0  0  0  0  0  2  0  0  0  0  0  0
  161.7710  208.5790  151.5640 C   0  0  0  0  0  0  0  0  0  0  0  0
  162.2470  209.7660  151.8140 N   0  0  0  0  0  0  0  0  0  0  0  0
  160.7620  208.0110  152.4070 N   0  0  0  0  0  2  0  0  0  0  0  0
  160.4380  210.2150  153.4500 C   0  0  1  0  0  3  0  0  0  0  0  0
  161.8610  210.5460  152.9920 C   0  0  0  0  0  2  0  0  0  0  0  0
  159.4130  210.7550  152.4620 C   0  0  0  0  0  2  0  0  0  0  0  0
  160.0000  211.8460  151.6930 N   0  0  0  0  0  0  0  0  0  0  0  0
  159.3670  212.9210  151.3220 C   0  0  0  0  0  0  0  0  0  0  0  0
  157.7720  214.1880  156.5770 C   0  0  0  0  0  2  0  0  0  0  0  0
  156.1610  214.1460  153.1300 C   0  0  0  0  0  2  0  0  0  0  0  0
  157.0730  212.8930  150.7210 O   0  0  0  0  0  0  0  0  0  0  0  0
  157.4890  213.5910  152.9070 N   0  0  0  0  0  0  0  0  0  0  0  0
  155.4640  213.2700  156.7830 C   0  0  0  0  0  2  0  0  0  0  0  0
  157.9260  213.1200  151.6220 C   0  0  0  0  0  0  0  0  0  0  0  0
  157.5320  214.4520  155.0830 C   0  0  2  0  0  3  0  0  0  0  0  0
  156.0680  214.4250  154.6230 C   0  0  2  0  0  3  0  0  0  0  0  0
  155.2820  213.2840  155.2710 C   0  0  0  0  0  2  0  0  0  0  0  0
  158.4600  212.2850  154.5690 O   0  0  0  0  0  1  0  0  0  0  0  0
  158.3170  213.5950  154.1000 C   0  0  1  0  0  3  0  0  0  0  0  0
  156.9320  213.0290  157.1030 C   0  0  0  0  0  2  0  0  0  0  0  0
  160.1040  213.9300  150.5340 C   0  0  0  0  0  0  0  0  0  0  0  0
  161.2150  214.3620  150.9430 O   0  0  0  0  0  0  0  0  0  0  0  0
  159.5890  214.4020  149.2910 N   0  0  0  0  0  1  0  0  0  0  0  0
  161.1390  201.3820  149.9600 C   0  0  0  0  0  2  0  0  0  0  0  0
  161.7940  202.7290  149.7440 C   0  0  0  0  0  3  0  0  0  0  0  0
  161.9110  202.0450  151.0880 C   0  0  0  0  0  2  0  0  0  0  0  0
  160.5680  204.0490  152.1350 C   0  0  0  0  0  2  0  0  0  0  0  0
  161.0430  204.6720  153.4480 C   0  0  0  0  0  1  0  0  0  0  0  0
  1  4  1  0  0  0  0
  2  1  1  0  0  0  0
  3 14  1  6  0  0  0
  3  7  1  0  0  0  0
  3  9  1  0  0  0  0
  4 22  1  1  0  0  0
  5  2  1  0  0  0  0
  6  4  1  0  0  0  0
  6  8  1  1  0  0  0
  7  5  1  6  0  0  0
  7  6  1  0  0  0  0
  8 10  1  0  0  0  0
  9 46  1  6  0  0  0
  9 10  1  0  0  0  0
 10 48  1  0  0  0  0
 11 15  1  0  0  0  0
 12 13  1  0  0  0  0
 12 11  2  0  0  0  0
 13 16  2  0  0  0  0
 15 14  2  0  0  0  0
 16 14  1  0  0  0  0
 17 20  2  0  0  0  0
 18 17  1  0  0  0  0
 19 11  1  0  0  0  0
 19 17  1  0  0  0  0
 22 23  2  0  0  0  0
 22 24  1  0  0  0  0
 23 26  1  0  0  0  0
 24 21  1  0  0  0  0
 25 27  1  6  0  0  0
 25 21  1  0  0  0  0
 26 25  1  0  0  0  0
 28 27  1  0  0  0  0
 29 35  1  0  0  0  0
 29 28  2  0  0  0  0
 30 41  1  0  0  0  0
 32 35  2  0  0  0  0
 33 31  1  0  0  0  0
 33 40  1  0  0  0  0
 34 41  1  0  0  0  0
 35 33  1  0  0  0  0
 36 30  1  1  0  0  0
 37 31  1  6  0  0  0
 37 36  1  0  0  0  0
 37 38  1  0  0  0  0
 38 34  1  0  0  0  0
 40 39  1  1  0  0  0
 40 36  1  0  0  0  0
 42 43  2  0  0  0  0
 42 29  1  0  0  0  0
 44 42  1  0  0  0  0
 45 47  1  0  0  0  0
 46 45  1  0  0  0  0
 46 47  1  0  0  0  0
 48 49  1  0  0  0  0
M  END
>  <MODEL>
4

>  <REMARK>
 VINA RESULT:      -3.2      4.677      8.877
  Name = 
  9 active torsions:
  status: ('A' for Active; 'I' for Inactive)
    1  A    between atoms: C_1  and  N_27
    2  A    between atoms: C_4  and  N_44
    3  A    between atoms: N_6  and  C_29
    4  A    between atoms: C_7  and  C_21
    5  A    between atoms: C_19  and  C_26
    6  A    between atoms: C_20  and  C_42
    7  A    between atoms: C_24  and  C_42
    8  A    between atoms: C_29  and  C_32
    9  A    between atoms: C_39  and  C_43
                            x       y       z     vdW  Elec       q    Type
                         _______ _______ _______ _____ _____    ______ ____

>  <TORSDO>
F 9

$$$$
=
 OpenBabel11072409493D

 49 55  0  0  1  0  0  0  0  0999 V2000
  158.0970  213.3220  152.0370 C   0  0  0  0  0  2  0  0  0  0  0  0
  157.3830  214.2660  151.0540 C   0  0  0  0  0  2  0  0  0  0  0  0
  159.2530  213.1430  147.8240 C   0  0  2  0  0  3  0  0  0  0  0  0
  159.5370  213.0180  151.5960 C   0  0  2  0  0  3  0  0  0  0  0  0
  157.4600  213.7470  149.6110 C   0  0  0  0  0  2  0  0  0  0  0  0
  159.4930  212.4860  150.1640 C   0  0  1  0  0  3  0  0  0  0  0  0
  158.9300  213.5640  149.2490 C   0  0  1  0  0  3  0  0  0  0  0  0
  160.7530  211.8900  149.6840 N   0  0  0  0  0  2  0  0  0  0  0  0
  160.8020  213.1310  147.6250 C   0  0  2  0  0  3  0  0  0  0  0  0
  161.4920  212.8080  148.9010 N   0  0  0  0  0  0  0  0  0  0  0  0
  158.0090  214.1620  144.3490 C   0  0  0  0  0  0  0  0  0  0  0  0
  156.6700  214.4500  144.6320 C   0  0  0  0  0  3  0  0  0  0  0  0
  156.1790  214.3240  145.9340 C   0  0  0  0  0  3  0  0  0  0  0  0
  158.3700  213.6140  146.6970 C   0  0  0  0  0  0  0  0  0  0  0  0
  158.8540  213.7450  145.3860 C   0  0  0  0  0  3  0  0  0  0  0  0
  157.0280  213.9060  146.9630 C   0  0  0  0  0  3  0  0  0  0  0  0
  159.3920  213.4210  142.3200 C   0  0  0  0  0  0  0  0  0  0  0  0
  159.7910  213.7310  140.9220 C   0  0  0  0  0  1  0  0  0  0  0  0
  158.4780  214.2940  142.9990 N   0  0  0  0  0  2  0  0  0  0  0  0
  159.8560  212.3940  142.8800 O   0  0  0  0  0  0  0  0  0  0  0  0
  162.0660  210.4670  153.0540 C   0  0  0  0  0  2  0  0  0  0  0  0
  160.1780  212.0570  152.5470 C   0  0  0  0  0  0  0  0  0  0  0  0
  159.5960  211.7500  153.6720 N   0  0  0  0  0  0  0  0  0  0  0  0
  161.3970  211.4110  152.1630 N   0  0  0  0  0  2  0  0  0  0  0  0
  161.0510  209.7620  153.9550 C   0  0  1  0  0  3  0  0  0  0  0  0
  160.1770  210.8160  154.6390 C   0  0  0  0  0  2  0  0  0  0  0  0
  160.1960  208.7820  153.1630 C   0  0  0  0  0  2  0  0  0  0  0  0
  160.7220  208.6510  151.8100 N   0  0  0  0  0  0  0  0  0  0  0  0
  161.1650  207.5460  151.2860 C   0  0  0  0  0  0  0  0  0  0  0  0
  160.9830  202.6070  148.5770 C   0  0  0  0  0  2  0  0  0  0  0  0
  161.7500  203.8000  152.1080 C   0  0  0  0  0  2  0  0  0  0  0  0
  161.1920  206.3320  153.3240 O   0  0  0  0  0  0  0  0  0  0  0  0
  161.3280  205.0070  151.4100 N   0  0  0  0  0  0  0  0  0  0  0  0
  159.9440  201.0260  150.1990 C   0  0  0  0  0  2  0  0  0  0  0  0
  161.2190  206.2810  152.0640 C   0  0  0  0  0  0  0  0  0  0  0  0
  161.6080  203.3890  149.7420 C   0  0  2  0  0  3  0  0  0  0  0  0
  161.6350  202.6680  151.0960 C   0  0  2  0  0  3  0  0  0  0  0  0
  160.3340  201.9140  151.3730 C   0  0  0  0  0  2  0  0  0  0  0  0
  159.6850  204.8470  149.7720 O   0  0  0  0  0  1  0  0  0  0  0  0
  161.0640  204.7880  150.0000 C   0  0  1  0  0  3  0  0  0  0  0  0
  159.6930  201.9010  148.9790 C   0  0  0  0  0  2  0  0  0  0  0  0
  161.6780  207.5830  149.9020 C   0  0  0  0  0  0  0  0  0  0  0  0
  160.8840  207.7630  148.9400 O   0  0  0  0  0  0  0  0  0  0  0  0
  163.0730  207.4500  149.6370 N   0  0  0  0  0  1  0  0  0  0  0  0
  162.2700  214.1500  145.7530 C   0  0  0  0  0  2  0  0  0  0  0  0
  161.5050  214.3850  147.0370 C   0  0  0  0  0  3  0  0  0  0  0  0
  163.0160  214.3150  147.0660 C   0  0  0  0  0  2  0  0  0  0  0  0
  162.7990  212.1990  148.6230 C   0  0  0  0  0  2  0  0  0  0  0  0
  162.7260  210.6770  148.5010 C   0  0  0  0  0  1  0  0  0  0  0  0
  2  1  1  0  0  0  0
  3 14  1  6  0  0  0
  3  7  1  0  0  0  0
  4  1  1  0  0  0  0
  4 22  1  1  0  0  0
  5  2  1  0  0  0  0
  6  8  1  6  0  0  0
  6  4  1  0  0  0  0
  7  5  1  6  0  0  0
  7  6  1  0  0  0  0
  9 46  1  1  0  0  0
  9  3  1  0  0  0  0
  9 10  1  0  0  0  0
 10  8  1  0  0  0  0
 11 12  2  0  0  0  0
 11 15  1  0  0  0  0
 12 13  1  0  0  0  0
 13 16  2  0  0  0  0
 14 16  1  0  0  0  0
 15 14  2  0  0  0  0
 17 20  2  0  0  0  0
 17 19  1  0  0  0  0
 18 17  1  0  0  0  0
 19 11  1  0  0  0  0
 21 25  1  0  0  0  0
 22 23  2  0  0  0  0
 23 26  1  0  0  0  0
 24 22  1  0  0  0  0
 24 21  1  0  0  0  0
 25 27  1  6  0  0  0
 25 26  1  0  0  0  0
 28 27  1  0  0  0  0
 29 28  2  0  0  0  0
 29 35  1  0  0  0  0
 30 41  1  0  0  0  0
 33 35  1  0  0  0  0
 33 31  1  0  0  0  0
 34 38  1  0  0  0  0
 35 32  2  0  0  0  0
 36 30  1  6  0  0  0
 36 40  1  0  0  0  0
 36 37  1  0  0  0  0
 37 38  1  1  0  0  0
 37 31  1  0  0  0  0
 40 39  1  1  0  0  0
 40 33  1  0  0  0  0
 41 34  1  0  0  0  0
 42 29  1  0  0  0  0
 43 42  2  0  0  0  0
 44 42  1  0  0  0  0
 45 46  1  0  0  0  0
 45 47  1  0  0  0  0
 46 47  1  0  0  0  0
 48 10  1  0  0  0  0
 49 48  1  0  0  0  0
M  END
>  <MODEL>
5

>  <REMARK>
 VINA RESULT:      -2.7      2.114      3.265
  Name = 
  9 active torsions:
  status: ('A' for Active; 'I' for Inactive)
    1  A    between atoms: C_1  and  N_27
    2  A    between atoms: C_4  and  N_44
    3  A    between atoms: N_6  and  C_29
    4  A    between atoms: C_7  and  C_21
    5  A    between atoms: C_19  and  C_26
    6  A    between atoms: C_20  and  C_42
    7  A    between atoms: C_24  and  C_42
    8  A    between atoms: C_29  and  C_32
    9  A    between atoms: C_39  and  C_43
                            x       y       z     vdW  Elec       q    Type
                         _______ _______ _______ _____ _____    ______ ____

>  <TORSDO>
F 9

$$$$
=
 OpenBabel11072409493D

 49 55  0  0  1  0  0  0  0  0999 V2000
  160.4040  206.1390  154.5770 C   0  0  0  0  0  2  0  0  0  0  0  0
  159.6900  204.9150  153.9760 C   0  0  0  0  0  2  0  0  0  0  0  0
  161.5290  204.8930  150.5390 C   0  0  2  0  0  3  0  0  0  0  0  0
  160.8190  207.1480  153.4960 C   0  0  2  0  0  3  0  0  0  0  0  0
  160.5170  204.2690  152.8550 C   0  0  0  0  0  2  0  0  0  0  0  0
  161.6550  206.4070  152.4520 C   0  0  1  0  0  3  0  0  0  0  0  0
  160.7980  205.3330  151.7990 C   0  0  1  0  0  3  0  0  0  0  0  0
  162.3620  207.2750  151.4920 N   0  0  0  0  0  2  0  0  0  0  0  0
  161.6090  206.0910  149.5410 C   0  0  2  0  0  3  0  0  0  0  0  0
  161.6520  207.3830  150.2730 N   0  0  0  0  0  0  0  0  0  0  0  0
  160.8190  201.9670  148.1730 C   0  0  0  0  0  0  0  0  0  0  0  0
  160.9470  200.8890  149.0560 C   0  0  0  0  0  3  0  0  0  0  0  0
  161.2520  201.1090  150.4020 C   0  0  0  0  0  3  0  0  0  0  0  0
  161.3060  203.5020  150.0050 C   0  0  0  0  0  0  0  0  0  0  0  0
  160.9990  203.2710  148.6550 C   0  0  0  0  0  3  0  0  0  0  0  0
  161.4310  202.4120  150.8740 C   0  0  0  0  0  3  0  0  0  0  0  0
  160.8220  200.5120  146.0630 C   0  0  0  0  0  0  0  0  0  0  0  0
  160.4540  200.4250  144.6250 C   0  0  0  0  0  1  0  0  0  0  0  0
  160.5140  201.7050  146.7960 N   0  0  0  0  0  2  0  0  0  0  0  0
  161.3900  199.5320  146.6130 O   0  0  0  0  0  0  0  0  0  0  0  0
  162.3350  209.4810  156.1960 C   0  0  0  0  0  2  0  0  0  0  0  0
  161.5560  208.2940  154.1140 C   0  0  0  0  0  0  0  0  0  0  0  0
  162.0570  209.2380  153.3690 N   0  0  0  0  0  0  0  0  0  0  0  0
  161.6260  208.3850  155.5410 N   0  0  0  0  0  2  0  0  0  0  0  0
  162.3050  210.7390  155.3280 C   0  0  1  0  0  3  0  0  0  0  0  0
  162.7870  210.3830  153.9190 C   0  0  0  0  0  2  0  0  0  0  0  0
  160.9100  211.3460  155.2840 C   0  0  0  0  0  2  0  0  0  0  0  0
  160.4710  211.4710  153.8990 N   0  0  0  0  0  0  0  0  0  0  0  0
  159.5630  212.3010  153.4760 C   0  0  0  0  0  0  0  0  0  0  0  0
  155.5870  210.1610  156.8470 C   0  0  0  0  0  2  0  0  0  0  0  0
  157.4770  213.4490  156.5380 C   0  0  0  0  0  2  0  0  0  0  0  0
  159.0350  214.4420  154.3490 O   0  0  0  0  0  0  0  0  0  0  0  0
  157.9220  212.6750  155.3870 N   0  0  0  0  0  0  0  0  0  0  0  0
  153.9940  212.0390  157.2290 C   0  0  0  0  0  2  0  0  0  0  0  0
  158.8330  213.1980  154.4070 C   0  0  0  0  0  0  0  0  0  0  0  0
  156.7420  211.1660  156.7330 C   0  0  2  0  0  3  0  0  0  0  0  0
  156.4570  212.5790  157.2600 C   0  0  2  0  0  3  0  0  0  0  0  0
  155.0600  213.0670  156.8740 C   0  0  0  0  0  2  0  0  0  0  0  0
  156.4180  211.2400  154.3420 O   0  0  0  0  0  1  0  0  0  0  0  0
  157.3760  211.3300  155.3590 C   0  0  1  0  0  3  0  0  0  0  0  0
  154.2490  210.7660  156.4350 C   0  0  0  0  0  2  0  0  0  0  0  0
  159.2230  212.2950  152.0380 C   0  0  0  0  0  0  0  0  0  0  0  0
  160.0930  211.9670  151.1870 O   0  0  0  0  0  0  0  0  0  0  0  0
  157.9080  212.6240  151.5990 N   0  0  0  0  0  1  0  0  0  0  0  0
  160.9550  205.7870  147.0550 C   0  0  0  0  0  2  0  0  0  0  0  0
  160.5280  206.2350  148.4360 C   0  0  0  0  0  3  0  0  0  0  0  0
  160.8580  207.2670  147.3800 C   0  0  0  0  0  2  0  0  0  0  0  0
  162.3270  208.3990  149.4570 C   0  0  0  0  0  2  0  0  0  0  0  0
  161.9770  209.8250  149.8830 C   0  0  0  0  0  1  0  0  0  0  0  0
  2  1  1  0  0  0  0
  3 14  1  6  0  0  0
  3  7  1  0  0  0  0
  4 22  1  1  0  0  0
  4  1  1  0  0  0  0
  5  2  1  0  0  0  0
  6  8  1  6  0  0  0
  6  4  1  0  0  0  0
  7  6  1  0  0  0  0
  7  5  1  1  0  0  0
  9 46  1  6  0  0  0
  9 10  1  0  0  0  0
  9  3  1  0  0  0  0
 10  8  1  0  0  0  0
 11 15  2  0  0  0  0
 11 12  1  0  0  0  0
 12 13  2  0  0  0  0
 13 16  1  0  0  0  0
 14 16  2  0  0  0  0
 15 14  1  0  0  0  0
 17 20  2  0  0  0  0
 17 19  1  0  0  0  0
 18 17  1  0  0  0  0
 19 11  1  0  0  0  0
 22 24  1  0  0  0  0
 23 26  1  0  0  0  0
 23 22  2  0  0  0  0
 24 21  1  0  0  0  0
 25 27  1  6  0  0  0
 25 21  1  0  0  0  0
 26 25  1  0  0  0  0
 28 27  1  0  0  0  0
 29 28  2  0  0  0  0
 29 35  1  0  0  0  0
 32 35  2  0  0  0  0
 33 31  1  0  0  0  0
 35 33  1  0  0  0  0
 36 30  1  6  0  0  0
 36 37  1  0  0  0  0
 37 31  1  6  0  0  0
 38 34  1  0  0  0  0
 38 37  1  0  0  0  0
 40 39  1  6  0  0  0
 40 33  1  0  0  0  0
 40 36  1  0  0  0  0
 41 30  1  0  0  0  0
 41 34  1  0  0  0  0
 42 29  1  0  0  0  0
 43 42  2  0  0  0  0
 44 42  1  0  0  0  0
 45 47  1  0  0  0  0
 45 46  1  0  0  0  0
 47 46  1  0  0  0  0
 48 49  1  0  0  0  0
 48 10  1  0  0  0  0
M  END
>  <MODEL>
6

>  <REMARK>
 VINA RESULT:      -2.5      4.939      8.914
  Name = 
  9 active torsions:
  status: ('A' for Active; 'I' for Inactive)
    1  A    between atoms: C_1  and  N_27
    2  A    between atoms: C_4  and  N_44
    3  A    between atoms: N_6  and  C_29
    4  A    between atoms: C_7  and  C_21
    5  A    between atoms: C_19  and  C_26
    6  A    between atoms: C_20  and  C_42
    7  A    between atoms: C_24  and  C_42
    8  A    between atoms: C_29  and  C_32
    9  A    between atoms: C_39  and  C_43
                            x       y       z     vdW  Elec       q    Type
                         _______ _______ _______ _____ _____    ______ ____

>  <TORSDO>
F 9

$$$$
=
 OpenBabel11072409493D

 49 55  0  0  1  0  0  0  0  0999 V2000
  162.4970  208.7220  149.6040 C   0  0  0  0  0  2  0  0  0  0  0  0
  162.9590  207.8960  148.3910 C   0  0  0  0  0  2  0  0  0  0  0  0
  160.8690  204.6910  149.1350 C   0  0  2  0  0  3  0  0  0  0  0  0
  162.1580  207.8310  150.8090 C   0  0  2  0  0  3  0  0  0  0  0  0
  161.9540  206.7890  148.0410 C   0  0  0  0  0  2  0  0  0  0  0  0
  161.1360  206.7900  150.3560 C   0  0  1  0  0  3  0  0  0  0  0  0
  161.7590  205.9160  149.2760 C   0  0  1  0  0  3  0  0  0  0  0  0
  160.4980  206.0300  151.4470 N   0  0  0  0  0  2  0  0  0  0  0  0
  160.8970  203.8730  150.4640 C   0  0  2  0  0  3  0  0  0  0  0  0
  161.1160  204.7700  151.6280 N   0  0  0  0  0  0  0  0  0  0  0  0
  161.2690  203.8370  145.4240 C   0  0  0  0  0  0  0  0  0  0  0  0
  160.7670  202.5310  145.4080 C   0  0  0  0  0  3  0  0  0  0  0  0
  160.2980  201.9380  146.5830 C   0  0  0  0  0  3  0  0  0  0  0  0
  160.8270  203.9580  147.8190 C   0  0  0  0  0  0  0  0  0  0  0  0
  161.2950  204.5450  146.6330 C   0  0  0  0  0  3  0  0  0  0  0  0
  160.3290  202.6510  147.7850 C   0  0  0  0  0  3  0  0  0  0  0  0
  161.3300  205.6500  143.6120 C   0  0  0  0  0  0  0  0  0  0  0  0
  161.9200  206.0780  142.3170 C   0  0  0  0  0  1  0  0  0  0  0  0
  161.7500  204.4110  144.2010 N   0  0  0  0  0  2  0  0  0  0  0  0
  160.4770  206.3870  144.1740 O   0  0  0  0  0  0  0  0  0  0  0  0
  160.1630  208.8900  153.9600 C   0  0  0  0  0  2  0  0  0  0  0  0
  161.6630  208.6670  151.9470 C   0  0  0  0  0  0  0  0  0  0  0  0
  162.0580  209.9000  152.0850 N   0  0  0  0  0  0  0  0  0  0  0  0
  160.6780  208.1190  152.8310 N   0  0  0  0  0  2  0  0  0  0  0  0
  160.1990  210.3870  153.6540 C   0  0  1  0  0  3  0  0  0  0  0  0
  161.6060  210.7630  153.1790 C   0  0  0  0  0  2  0  0  0  0  0  0
  159.1580  210.7630  152.6090 C   0  0  0  0  0  2  0  0  0  0  0  0
  159.7020  211.7790  151.7160 N   0  0  0  0  0  0  0  0  0  0  0  0
  159.0660  212.8440  151.3240 C   0  0  0  0  0  0  0  0  0  0  0  0
  157.8920  213.9630  156.7210 C   0  0  0  0  0  2  0  0  0  0  0  0
  156.0600  214.1580  153.3920 C   0  0  0  0  0  2  0  0  0  0  0  0
  156.7400  212.9660  150.8790 O   0  0  0  0  0  0  0  0  0  0  0  0
  157.3370  213.5440  153.0580 N   0  0  0  0  0  0  0  0  0  0  0  0
  155.5550  213.1620  157.0460 C   0  0  0  0  0  2  0  0  0  0  0  0
  157.6620  213.1070  151.7280 C   0  0  0  0  0  0  0  0  0  0  0  0
  157.5710  214.3050  155.2590 C   0  0  2  0  0  3  0  0  0  0  0  0
  156.0800  214.3760  154.8990 C   0  0  2  0  0  3  0  0  0  0  0  0
  155.2750  213.2510  155.5520 C   0  0  0  0  0  2  0  0  0  0  0  0
  158.3390  212.1150  154.5960 O   0  0  0  0  0  1  0  0  0  0  0  0
  158.2400  213.4510  154.1910 C   0  0  1  0  0  3  0  0  0  0  0  0
  157.0250  212.8280  157.2560 C   0  0  0  0  0  2  0  0  0  0  0  0
  159.7560  213.7730  150.4050 C   0  0  0  0  0  0  0  0  0  0  0  0
  160.7420  214.4440  150.8110 O   0  0  0  0  0  0  0  0  0  0  0  0
  159.3410  213.8990  149.0480 N   0  0  0  0  0  1  0  0  0  0  0  0
  161.2920  201.3150  150.4400 C   0  0  0  0  0  2  0  0  0  0  0  0
  161.8950  202.6920  150.6110 C   0  0  0  0  0  3  0  0  0  0  0  0
  161.6490  201.8240  151.8250 C   0  0  0  0  0  2  0  0  0  0  0  0
  160.5450  204.1670  152.8390 C   0  0  0  0  0  2  0  0  0  0  0  0
  160.6750  205.0710  154.0650 C   0  0  0  0  0  1  0  0  0  0  0  0
  1  4  1  0  0  0  0
  2  1  1  0  0  0  0
  3 14  1  6  0  0  0
  3  7  1  0  0  0  0
  3  9  1  0  0  0  0
  4 22  1  1  0  0  0
  5  2  1  0  0  0  0
  6  4  1  0  0  0  0
  6  8  1  1  0  0  0
  7  5  1  6  0  0  0
  7  6  1  0  0  0  0
  8 10  1  0  0  0  0
  9 46  1  6  0  0  0
  9 10  1  0  0  0  0
 10 48  1  0  0  0  0
 11 15  1  0  0  0  0
 12 11  2  0  0  0  0
 12 13  1  0  0  0  0
 13 16  2  0  0  0  0
 15 14  2  0  0  0  0
 16 14  1  0  0  0  0
 17 20  2  0  0  0  0
 17 19  1  0  0  0  0
 18 17  1  0  0  0  0
 19 11  1  0  0  0  0
 22 23  2  0  0  0  0
 22 24  1  0  0  0  0
 23 26  1  0  0  0  0
 24 21  1  0  0  0  0
 25 27  1  6  0  0  0
 25 21  1  0  0  0  0
 26 25  1  0  0  0  0
 28 27  1  0  0  0  0
 29 28  2  0  0  0  0
 29 35  1  0  0  0  0
 30 41  1  0  0  0  0
 32 35  2  0  0  0  0
 33 31  1  0  0  0  0
 33 40  1  0  0  0  0
 34 41  1  0  0  0  0
 35 33  1  0  0  0  0
 36 30  1  1  0  0  0
 37 31  1  6  0  0  0
 37 36  1  0  0  0  0
 37 38  1  0  0  0  0
 38 34  1  0  0  0  0
 40 39  1  1  0  0  0
 40 36  1  0  0  0  0
 42 43  2  0  0  0  0
 42 29  1  0  0  0  0
 44 42  1  0  0  0  0
 45 46  1  0  0  0  0
 45 47  1  0  0  0  0
 46 47  1  0  0  0  0
 48 49  1  0  0  0  0
M  END
>  <MODEL>
7

>  <REMARK>
 VINA RESULT:      -2.3      4.061      8.579
  Name = 
  9 active torsions:
  status: ('A' for Active; 'I' for Inactive)
    1  A    between atoms: C_1  and  N_27
    2  A    between atoms: C_4  and  N_44
    3  A    between atoms: N_6  and  C_29
    4  A    between atoms: C_7  and  C_21
    5  A    between atoms: C_19  and  C_26
    6  A    between atoms: C_20  and  C_42
    7  A    between atoms: C_24  and  C_42
    8  A    between atoms: C_29  and  C_32
    9  A    between atoms: C_39  and  C_43
                            x       y       z     vdW  Elec       q    Type
                         _______ _______ _______ _____ _____    ______ ____

>  <TORSDO>
F 9

$$$$
