=
 OpenBabel11072415083D

 39 44  0  0  1  0  0  0  0  0999 V2000
  161.9000  209.9140  148.7150 N   0  0  0  0  0  0  0  0  0  0  0  0
  161.6100  211.0560  148.1600 C   0  0  0  0  0  0  0  0  0  0  0  0
  161.5370  212.3870  148.8520 C   0  0  2  0  0  3  0  0  0  0  0  0
  160.5480  212.2850  149.9680 C   0  0  0  0  0  3  0  0  0  0  0  0
  163.0460  210.5950  150.6380 O   0  0  0  0  0  0  0  0  0  0  0  0
  159.4690  212.9350  152.0870 C   0  0  2  0  0  0  0  0  0  0  0  0
  160.3280  213.2300  150.8840 C   0  0  0  0  0  0  0  0  0  0  0  0
  158.2900  211.1210  153.3160 C   0  0  0  0  0  2  0  0  0  0  0  0
  161.0060  213.2000  147.7140 C   0  0  0  0  0  0  0  0  0  0  0  0
  160.6770  206.6230  151.3810 C   0  0  2  0  0  3  0  0  0  0  0  0
  161.8250  208.6140  150.8290 N   0  0  0  0  0  0  0  0  0  0  0  0
  161.0150  207.5670  150.2410 C   0  0  0  0  0  2  0  0  0  0  0  0
  161.6230  206.9790  152.5260 C   0  0  0  0  0  2  0  0  0  0  0  0
  160.8430  212.4380  146.5260 N   0  0  0  0  0  2  0  0  0  0  0  0
  159.5320  210.5030  153.9630 C   0  0  2  0  0  3  0  0  0  0  0  0
  160.9870  214.4530  150.8030 O   0  0  0  0  0  1  0  0  0  0  0  0
  161.2190  211.1560  146.8330 O   0  0  0  0  0  0  0  0  0  0  0  0
  161.4400  209.3810  153.1150 C   0  0  0  0  0  3  0  0  0  0  0  0
  160.1660  209.5460  153.0840 N   0  0  0  0  0  0  0  0  0  0  0  0
  162.2960  209.7450  150.0840 C   0  0  0  0  0  0  0  0  0  0  0  0
  158.6130  211.6900  151.9420 C   0  0  1  0  0  3  0  0  0  0  0  0
  160.7570  214.4330  147.7730 O   0  0  0  0  0  0  0  0  0  0  0  0
  162.1310  208.3790  152.2310 C   0  0  2  0  0  3  0  0  0  0  0  0
  158.0200  213.0670  151.7330 C   0  0  1  0  0  3  0  0  0  0  0  0
  158.7050  214.0500  152.4710 O   0  0  0  0  0  0  0  0  0  0  0  0
  161.0490  204.3300  151.8320 C   0  0  0  0  0  3  0  0  0  0  0  0
  160.8770  205.2610  150.9640 N   0  0  0  0  0  0  0  0  0  0  0  0
  161.2570  202.9160  151.3980 C   0  0  0  0  0  2  0  0  0  0  0  0
  160.4780  202.6120  150.1280 C   0  0  2  0  0  3  0  0  0  0  0  0
  159.9430  201.1970  150.1950 C   0  0  0  0  0  1  0  0  0  0  0  0
  161.3100  202.7350  149.0150 O   0  0  0  0  0  1  0  0  0  0  0  0
  158.0260  210.4670  155.8520 O   0  0  0  0  0  1  0  0  0  0  0  0
  159.1800  209.8840  155.3210 C   0  0  2  0  0  3  0  0  0  0  0  0
  161.0940  208.5940  156.3800 C   0  0  0  0  0  3  0  0  0  0  0  0
  162.5050  210.9930  156.9210 C   0  0  0  0  0  3  0  0  0  0  0  0
  160.3340  209.9000  156.3320 C   0  0  1  0  0  3  0  0  0  0  0  0
  163.0190  209.8050  157.2600 C   0  0  0  0  0  3  0  0  0  0  0  0
  162.3410  208.5570  156.8570 C   0  0  0  0  0  3  0  0  0  0  0  0
  161.2800  211.0730  156.0500 C   0  0  0  0  0  2  0  0  0  0  0  0
  1 20  1  0  0  0  0
  2  1  2  0  0  0  0
  2  3  1  0  0  0  0
  3  4  1  1  0  0  0
  4  7  2  0  0  0  0
  6  7  1  6  0  0  0
  6 25  1  0  0  0  0
  8 15  1  0  0  0  0
  9 22  2  0  0  0  0
  9  3  1  0  0  0  0
 10 27  1  6  0  0  0
 10 13  1  0  0  0  0
 11 23  1  0  0  0  0
 12 11  1  0  0  0  0
 12 10  1  0  0  0  0
 14 17  1  0  0  0  0
 14  9  1  0  0  0  0
 15 33  1  1  0  0  0
 16  7  1  0  0  0  0
 17  2  1  0  0  0  0
 19 18  2  0  0  0  0
 19 15  1  0  0  0  0
 20  5  2  0  0  0  0
 20 11  1  0  0  0  0
 21  6  1  0  0  0  0
 21  8  1  1  0  0  0
 23 13  1  1  0  0  0
 23 18  1  0  0  0  0
 24 21  1  0  0  0  0
 24  6  1  0  0  0  0
 24 25  1  1  0  0  0
 27 26  2  0  0  0  0
 28 26  1  0  0  0  0
 29 30  1  1  0  0  0
 29 28  1  0  0  0  0
 31 29  1  0  0  0  0
 33 32  1  1  0  0  0
 34 38  2  0  0  0  0
 35 37  2  0  0  0  0
 36 33  1  6  0  0  0
 36 34  1  0  0  0  0
 38 37  1  0  0  0  0
 39 36  1  0  0  0  0
 39 35  1  0  0  0  0
M  END
>  <MODEL>
1

>  <REMARK>
 VINA RESULT:      -5.0      0.000      0.000
  Name = 
  5 active torsions:
  status: ('A' for Active; 'I' for Inactive)
    1  A    between atoms: C_7  and  C_23
    2  A    between atoms: C_12  and  N_22
    3  A    between atoms: C_15  and  C_23
    4  A    between atoms: C_20  and  C_29
    5  A    between atoms: C_21  and  C_29
                            x       y       z     vdW  Elec       q    Type
                         _______ _______ _______ _____ _____    ______ ____

>  <TORSDO>
F 5

$$$$
=
 OpenBabel11072415083D

 39 44  0  0  1  0  0  0  0  0999 V2000
  161.9520  209.6130  149.6090 N   0  0  0  0  0  0  0  0  0  0  0  0
  161.6690  210.6180  148.8320 C   0  0  0  0  0  0  0  0  0  0  0  0
  161.5530  212.0580  149.2480 C   0  0  2  0  0  3  0  0  0  0  0  0
  160.5250  212.1560  150.3280 C   0  0  0  0  0  3  0  0  0  0  0  0
  163.0170  210.6780  151.4000 O   0  0  0  0  0  0  0  0  0  0  0  0
  159.3610  213.1840  152.2410 C   0  0  2  0  0  0  0  0  0  0  0  0
  160.2590  213.2570  151.0340 C   0  0  0  0  0  0  0  0  0  0  0  0
  158.1590  211.6230  153.7600 C   0  0  0  0  0  2  0  0  0  0  0  0
  161.0550  212.6230  147.9560 C   0  0  0  0  0  0  0  0  0  0  0  0
  160.6720  206.8810  152.8240 C   0  0  2  0  0  3  0  0  0  0  0  0
  161.8150  208.7490  151.9330 N   0  0  0  0  0  0  0  0  0  0  0  0
  161.0410  207.5910  151.5340 C   0  0  0  0  0  2  0  0  0  0  0  0
  161.5710  207.4710  153.9080 C   0  0  0  0  0  2  0  0  0  0  0  0
  160.9450  211.6410  146.9350 N   0  0  0  0  0  2  0  0  0  0  0  0
  159.3840  211.1670  154.5570 C   0  0  2  0  0  3  0  0  0  0  0  0
  160.9050  214.4530  150.7370 O   0  0  0  0  0  1  0  0  0  0  0  0
  161.3250  210.4500  147.4990 O   0  0  0  0  0  0  0  0  0  0  0  0
  161.3370  209.9390  154.0100 C   0  0  0  0  0  3  0  0  0  0  0  0
  160.0620  210.0700  153.9040 N   0  0  0  0  0  0  0  0  0  0  0  0
  162.2990  209.7210  150.9970 C   0  0  0  0  0  0  0  0  0  0  0  0
  158.5260  211.9190  152.3130 C   0  0  1  0  0  3  0  0  0  0  0  0
  160.7880  213.8380  147.7640 O   0  0  0  0  0  0  0  0  0  0  0  0
  162.0720  208.7970  153.3630 C   0  0  2  0  0  3  0  0  0  0  0  0
  157.9240  213.2170  151.8190 C   0  0  1  0  0  3  0  0  0  0  0  0
  158.5680  214.3380  152.3740 O   0  0  0  0  0  0  0  0  0  0  0  0
  161.2640  204.9690  151.5620 C   0  0  0  0  0  3  0  0  0  0  0  0
  160.9050  205.4680  152.6880 N   0  0  0  0  0  0  0  0  0  0  0  0
  161.5050  203.5010  151.4220 C   0  0  0  0  0  2  0  0  0  0  0  0
  160.6390  202.9050  150.3230 C   0  0  2  0  0  3  0  0  0  0  0  0
  161.0820  201.4830  150.0530 C   0  0  0  0  0  1  0  0  0  0  0  0
  160.7670  203.6560  149.1540 O   0  0  0  0  0  1  0  0  0  0  0  0
  158.4040  209.5500  156.0630 O   0  0  0  0  0  1  0  0  0  0  0  0
  158.9900  210.8180  155.9980 C   0  0  2  0  0  3  0  0  0  0  0  0
  158.4420  213.2850  156.2380 C   0  0  0  0  0  3  0  0  0  0  0  0
  155.7700  212.6930  156.9750 C   0  0  0  0  0  3  0  0  0  0  0  0
  158.1150  211.8770  156.6800 C   0  0  1  0  0  3  0  0  0  0  0  0
  156.1920  213.9590  156.8940 C   0  0  0  0  0  3  0  0  0  0  0  0
  157.5430  214.2630  156.3810 C   0  0  0  0  0  3  0  0  0  0  0  0
  156.6300  211.5670  156.4650 C   0  0  0  0  0  2  0  0  0  0  0  0
  1 20  1  0  0  0  0
  2  3  1  0  0  0  0
  2  1  2  0  0  0  0
  3  4  1  1  0  0  0
  4  7  2  0  0  0  0
  6  7  1  6  0  0  0
  6 21  1  0  0  0  0
  6 25  1  0  0  0  0
  8 15  1  0  0  0  0
  9  3  1  0  0  0  0
 10 27  1  6  0  0  0
 10 13  1  0  0  0  0
 11 23  1  0  0  0  0
 12 11  1  0  0  0  0
 12 10  1  0  0  0  0
 14 17  1  0  0  0  0
 14  9  1  0  0  0  0
 15 33  1  1  0  0  0
 16  7  1  0  0  0  0
 17  2  1  0  0  0  0
 19 18  2  0  0  0  0
 19 15  1  0  0  0  0
 20  5  2  0  0  0  0
 20 11  1  0  0  0  0
 21  8  1  1  0  0  0
 22  9  2  0  0  0  0
 23 13  1  1  0  0  0
 23 18  1  0  0  0  0
 24  6  1  0  0  0  0
 24 21  1  0  0  0  0
 24 25  1  1  0  0  0
 26 27  2  0  0  0  0
 28 26  1  0  0  0  0
 29 30  1  6  0  0  0
 29 28  1  0  0  0  0
 31 29  1  0  0  0  0
 33 32  1  6  0  0  0
 34 38  2  0  0  0  0
 34 36  1  0  0  0  0
 36 33  1  6  0  0  0
 37 35  2  0  0  0  0
 38 37  1  0  0  0  0
 39 36  1  0  0  0  0
 39 35  1  0  0  0  0
M  END
>  <MODEL>
2

>  <REMARK>
 VINA RESULT:      -4.5      1.775      2.560
  Name = 
  5 active torsions:
  status: ('A' for Active; 'I' for Inactive)
    1  A    between atoms: C_7  and  C_23
    2  A    between atoms: C_12  and  N_22
    3  A    between atoms: C_15  and  C_23
    4  A    between atoms: C_20  and  C_29
    5  A    between atoms: C_21  and  C_29
                            x       y       z     vdW  Elec       q    Type
                         _______ _______ _______ _____ _____    ______ ____

>  <TORSDO>
F 5

$$$$
=
 OpenBabel11072415083D

 39 44  0  0  1  0  0  0  0  0999 V2000
  161.0900  210.8340  152.5980 N   0  0  0  0  0  0  0  0  0  0  0  0
  160.8340  210.0810  153.6290 C   0  0  0  0  0  0  0  0  0  0  0  0
  161.4020  208.7150  153.8940 C   0  0  2  0  0  3  0  0  0  0  0  0
  161.0740  207.8330  152.7330 C   0  0  0  0  0  3  0  0  0  0  0  0
  163.1350  209.9650  151.8650 O   0  0  0  0  0  0  0  0  0  0  0  0
  161.3170  205.8810  151.2480 C   0  0  2  0  0  0  0  0  0  0  0  0
  161.5370  206.5940  152.5570 C   0  0  0  0  0  0  0  0  0  0  0  0
  160.4960  206.1690  148.9170 C   0  0  0  0  0  2  0  0  0  0  0  0
  160.5900  208.3670  155.1010 C   0  0  0  0  0  0  0  0  0  0  0  0
  160.5860  211.5790  148.2820 C   0  0  2  0  0  3  0  0  0  0  0  0
  161.7440  210.8330  150.2030 N   0  0  0  0  0  0  0  0  0  0  0  0
  160.5400  211.5300  149.7980 C   0  0  0  0  0  2  0  0  0  0  0  0
  162.0160  211.2200  147.8850 C   0  0  0  0  0  2  0  0  0  0  0  0
  159.7120  209.4140  155.4900 N   0  0  0  0  0  2  0  0  0  0  0  0
  161.7200  206.9170  148.3840 C   0  0  2  0  0  3  0  0  0  0  0  0
  162.3320  205.9980  153.5310 O   0  0  0  0  0  1  0  0  0  0  0  0
  159.8900  210.4270  154.5840 O   0  0  0  0  0  0  0  0  0  0  0  0
  162.6830  209.0330  148.8470 C   0  0  0  0  0  3  0  0  0  0  0  0
  161.6240  208.3370  148.6340 N   0  0  0  0  0  0  0  0  0  0  0  0
  162.0420  210.5230  151.5710 C   0  0  0  0  0  0  0  0  0  0  0  0
  160.2410  206.5060  150.3790 C   0  0  1  0  0  3  0  0  0  0  0  0
  160.6840  207.2840  155.7360 O   0  0  0  0  0  0  0  0  0  0  0  0
  162.6220  210.5160  149.0880 C   0  0  2  0  0  3  0  0  0  0  0  0
  159.9470  205.2770  151.2130 C   0  0  1  0  0  3  0  0  0  0  0  0
  161.1020  204.5040  151.4320 O   0  0  0  0  0  0  0  0  0  0  0  0
  159.6670  213.0730  146.6940 C   0  0  0  0  0  3  0  0  0  0  0  0
  160.2500  212.9000  147.8250 N   0  0  0  0  0  0  0  0  0  0  0  0
  159.3190  214.4460  146.2200 C   0  0  0  0  0  2  0  0  0  0  0  0
  157.9820  214.4530  145.4950 C   0  0  2  0  0  3  0  0  0  0  0  0
  157.0950  213.3690  146.0710 C   0  0  0  0  0  1  0  0  0  0  0  0
  158.1740  214.2150  144.1340 O   0  0  0  0  0  1  0  0  0  0  0  0
  160.9520  207.2300  146.1150 O   0  0  0  0  0  1  0  0  0  0  0  0
  161.9320  206.6120  146.8960 C   0  0  2  0  0  3  0  0  0  0  0  0
  161.7450  204.2340  147.7650 C   0  0  0  0  0  3  0  0  0  0  0  0
  161.1200  203.2610  145.1760 C   0  0  0  0  0  3  0  0  0  0  0  0
  162.0460  205.1160  146.5750 C   0  0  1  0  0  3  0  0  0  0  0  0
  161.1880  202.4300  146.2220 C   0  0  0  0  0  3  0  0  0  0  0  0
  161.3810  202.9610  147.5850 C   0  0  0  0  0  3  0  0  0  0  0  0
  161.1520  204.7520  145.3840 C   0  0  0  0  0  2  0  0  0  0  0  0
  1  2  2  0  0  0  0
  2  3  1  0  0  0  0
  2 17  1  0  0  0  0
  3  4  1  6  0  0  0
  3  9  1  0  0  0  0
  6 25  1  6  0  0  0
  6  7  1  0  0  0  0
  7  4  2  0  0  0  0
  7 16  1  0  0  0  0
  9 14  1  0  0  0  0
  9 22  2  0  0  0  0
 10 27  1  1  0  0  0
 10 12  1  0  0  0  0
 11 20  1  0  0  0  0
 12 11  1  0  0  0  0
 13 10  1  0  0  0  0
 15 33  1  6  0  0  0
 15 19  1  0  0  0  0
 15  8  1  0  0  0  0
 17 14  1  0  0  0  0
 18 23  1  0  0  0  0
 19 18  2  0  0  0  0
 20  5  2  0  0  0  0
 20  1  1  0  0  0  0
 21  8  1  6  0  0  0
 21 24  1  0  0  0  0
 21  6  1  0  0  0  0
 23 13  1  6  0  0  0
 23 11  1  0  0  0  0
 24  6  1  0  0  0  0
 24 25  1  6  0  0  0
 26 27  2  0  0  0  0
 28 26  1  0  0  0  0
 29 30  1  1  0  0  0
 29 28  1  0  0  0  0
 31 29  1  0  0  0  0
 33 32  1  6  0  0  0
 35 39  1  0  0  0  0
 35 37  2  0  0  0  0
 36 33  1  1  0  0  0
 36 34  1  0  0  0  0
 37 38  1  0  0  0  0
 38 34  2  0  0  0  0
 39 36  1  0  0  0  0
M  END
>  <MODEL>
3

>  <REMARK>
 VINA RESULT:      -3.9      2.799      8.779
  Name = 
  5 active torsions:
  status: ('A' for Active; 'I' for Inactive)
    1  A    between atoms: C_7  and  C_23
    2  A    between atoms: C_12  and  N_22
    3  A    between atoms: C_15  and  C_23
    4  A    between atoms: C_20  and  C_29
    5  A    between atoms: C_21  and  C_29
                            x       y       z     vdW  Elec       q    Type
                         _______ _______ _______ _____ _____    ______ ____

>  <TORSDO>
F 5

$$$$
=
 OpenBabel11072415083D

 39 44  0  0  1  0  0  0  0  0999 V2000
  161.4620  210.0190  147.7940 N   0  0  0  0  0  0  0  0  0  0  0  0
  160.9590  211.1440  147.3710 C   0  0  0  0  0  0  0  0  0  0  0  0
  160.9790  212.4560  148.1030 C   0  0  2  0  0  3  0  0  0  0  0  0
  160.3270  212.2650  149.4340 C   0  0  0  0  0  3  0  0  0  0  0  0
  163.0220  210.7560  149.3740 O   0  0  0  0  0  0  0  0  0  0  0  0
  159.7990  212.8010  151.7810 C   0  0  2  0  0  0  0  0  0  0  0  0
  160.2910  213.1770  150.4070 C   0  0  0  0  0  0  0  0  0  0  0  0
  159.1090  210.8870  153.2130 C   0  0  0  0  0  2  0  0  0  0  0  0
  160.1150  213.2440  147.1710 C   0  0  0  0  0  0  0  0  0  0  0  0
  161.2060  206.6070  150.5740 C   0  0  2  0  0  3  0  0  0  0  0  0
  162.0310  208.6870  149.8100 N   0  0  0  0  0  0  0  0  0  0  0  0
  161.1690  207.5900  149.4180 C   0  0  0  0  0  2  0  0  0  0  0  0
  162.3930  207.0160  151.4450 C   0  0  0  0  0  2  0  0  0  0  0  0
  159.6980  212.4880  146.0410 N   0  0  0  0  0  2  0  0  0  0  0  0
  160.5160  210.3540  153.4940 C   0  0  2  0  0  3  0  0  0  0  0  0
  160.8200  214.4470  150.1980 O   0  0  0  0  0  1  0  0  0  0  0  0
  160.2280  211.2340  146.1960 O   0  0  0  0  0  0  0  0  0  0  0  0
  162.2080  209.3890  152.1410 C   0  0  0  0  0  3  0  0  0  0  0  0
  160.9620  209.4600  152.4490 N   0  0  0  0  0  0  0  0  0  0  0  0
  162.2130  209.8600  149.0060 C   0  0  0  0  0  0  0  0  0  0  0  0
  159.0210  211.4980  151.8220 C   0  0  1  0  0  3  0  0  0  0  0  0
  159.8060  214.4530  147.3340 O   0  0  0  0  0  0  0  0  0  0  0  0
  162.7090  208.4550  151.0750 C   0  0  2  0  0  3  0  0  0  0  0  0
  158.3020  212.8300  151.8210 C   0  0  1  0  0  3  0  0  0  0  0  0
  159.0880  213.8500  152.3880 O   0  0  0  0  0  0  0  0  0  0  0  0
  161.0150  204.9630  148.8840 C   0  0  0  0  0  3  0  0  0  0  0  0
  161.3820  205.2700  150.0750 N   0  0  0  0  0  0  0  0  0  0  0  0
  161.1990  203.5740  148.3660 C   0  0  0  0  0  2  0  0  0  0  0  0
  161.7230  203.5860  146.9380 C   0  0  2  0  0  3  0  0  0  0  0  0
  162.1910  204.9830  146.5890 C   0  0  0  0  0  1  0  0  0  0  0  0
  160.7130  203.2050  146.0550 O   0  0  0  0  0  1  0  0  0  0  0  0
  160.1070  208.3740  154.8190 O   0  0  0  0  0  1  0  0  0  0  0  0
  160.5760  209.6900  154.8760 C   0  0  2  0  0  3  0  0  0  0  0  0
  160.4600  211.8710  156.1710 C   0  0  0  0  0  3  0  0  0  0  0  0
  157.7000  211.4930  156.6990 C   0  0  0  0  0  3  0  0  0  0  0  0
  159.8760  210.4900  155.9820 C   0  0  1  0  0  3  0  0  0  0  0  0
  158.3410  212.5780  157.1480 C   0  0  0  0  0  3  0  0  0  0  0  0
  159.7410  212.8320  156.7570 C   0  0  0  0  0  3  0  0  0  0  0  0
  158.3680  210.5640  155.7190 C   0  0  0  0  0  2  0  0  0  0  0  0
  1 20  1  0  0  0  0
  2  1  2  0  0  0  0
  2  3  1  0  0  0  0
  3  4  1  1  0  0  0
  4  7  2  0  0  0  0
  6  7  1  6  0  0  0
  6 24  1  0  0  0  0
  6 21  1  0  0  0  0
  6 25  1  0  0  0  0
  8 15  1  0  0  0  0
  9 22  2  0  0  0  0
  9  3  1  0  0  0  0
 10 27  1  6  0  0  0
 10 13  1  0  0  0  0
 11 23  1  0  0  0  0
 12 11  1  0  0  0  0
 12 10  1  0  0  0  0
 14 17  1  0  0  0  0
 14  9  1  0  0  0  0
 15 33  1  1  0  0  0
 16  7  1  0  0  0  0
 17  2  1  0  0  0  0
 18 19  2  0  0  0  0
 19 15  1  0  0  0  0
 20  5  2  0  0  0  0
 20 11  1  0  0  0  0
 21  8  1  1  0  0  0
 23 13  1  1  0  0  0
 23 18  1  0  0  0  0
 24 21  1  0  0  0  0
 24 25  1  1  0  0  0
 26 27  2  0  0  0  0
 28 26  1  0  0  0  0
 29 30  1  6  0  0  0
 29 28  1  0  0  0  0
 31 29  1  0  0  0  0
 33 32  1  6  0  0  0
 34 38  2  0  0  0  0
 35 37  2  0  0  0  0
 36 33  1  6  0  0  0
 36 34  1  0  0  0  0
 38 37  1  0  0  0  0
 39 36  1  0  0  0  0
 39 35  1  0  0  0  0
M  END
>  <MODEL>
4

>  <REMARK>
 VINA RESULT:      -3.8      1.739      2.310
  Name = 
  5 active torsions:
  status: ('A' for Active; 'I' for Inactive)
    1  A    between atoms: C_7  and  C_23
    2  A    between atoms: C_12  and  N_22
    3  A    between atoms: C_15  and  C_23
    4  A    between atoms: C_20  and  C_29
    5  A    between atoms: C_21  and  C_29
                            x       y       z     vdW  Elec       q    Type
                         _______ _______ _______ _____ _____    ______ ____

>  <TORSDO>
F 5

$$$$
=
 OpenBabel11072415083D

 39 44  0  0  1  0  0  0  0  0999 V2000
  160.9110  203.6220  151.4980 N   0  0  0  0  0  0  0  0  0  0  0  0
  160.7190  202.8480  150.4680 C   0  0  0  0  0  0  0  0  0  0  0  0
  161.4510  202.9140  149.1580 C   0  0  2  0  0  3  0  0  0  0  0  0
  161.2880  204.2880  148.5940 C   0  0  0  0  0  3  0  0  0  0  0  0
  163.0790  204.4080  151.1070 O   0  0  0  0  0  0  0  0  0  0  0  0
  161.8440  206.2160  147.1620 C   0  0  2  0  0  0  0  0  0  0  0  0
  161.9180  204.7520  147.5130 C   0  0  0  0  0  0  0  0  0  0  0  0
  161.0810  208.4400  147.9750 C   0  0  0  0  0  2  0  0  0  0  0  0
  160.6480  201.9050  148.4020 C   0  0  0  0  0  0  0  0  0  0  0  0
  160.4780  207.6100  153.3250 C   0  0  2  0  0  3  0  0  0  0  0  0
  161.6510  205.8770  152.2260 N   0  0  0  0  0  0  0  0  0  0  0  0
  160.3810  206.1680  152.8600 C   0  0  0  0  0  2  0  0  0  0  0  0
  161.9570  207.9830  153.2590 C   0  0  0  0  0  2  0  0  0  0  0  0
  159.6240  201.3170  149.1930 N   0  0  0  0  0  2  0  0  0  0  0  0
  162.2160  208.6650  148.9780 C   0  0  2  0  0  3  0  0  0  0  0  0
  162.7470  203.9160  146.7720 O   0  0  0  0  0  1  0  0  0  0  0  0
  159.7010  201.9070  150.4280 O   0  0  0  0  0  0  0  0  0  0  0  0
  162.8710  207.5900  150.9860 C   0  0  0  0  0  3  0  0  0  0  0  0
  161.9220  208.0560  150.2550 N   0  0  0  0  0  0  0  0  0  0  0  0
  161.9350  204.6230  151.5930 C   0  0  0  0  0  0  0  0  0  0  0  0
  160.7280  206.9640  147.8690 C   0  0  1  0  0  3  0  0  0  0  0  0
  160.8600  201.5750  147.2060 O   0  0  0  0  0  0  0  0  0  0  0  0
  162.6040  206.9690  152.3300 C   0  0  2  0  0  3  0  0  0  0  0  0
  160.5690  206.5100  146.4340 C   0  0  1  0  0  3  0  0  0  0  0  0
  161.8060  206.4200  145.7720 O   0  0  0  0  0  0  0  0  0  0  0  0
  160.4680  208.6070  155.4710 C   0  0  0  0  0  3  0  0  0  0  0  0
  159.9880  207.7240  154.6730 N   0  0  0  0  0  0  0  0  0  0  0  0
  159.9590  208.7250  156.8700 C   0  0  0  0  0  2  0  0  0  0  0  0
  159.7590  210.1810  157.2610 C   0  0  2  0  0  3  0  0  0  0  0  0
  158.8300  210.8430  156.2660 C   0  0  0  0  0  1  0  0  0  0  0  0
  160.9840  210.8480  157.2580 O   0  0  0  0  0  1  0  0  0  0  0  0
  161.9820  210.6760  150.2990 O   0  0  0  0  0  1  0  0  0  0  0  0
  162.5230  210.1620  149.1170 C   0  0  2  0  0  3  0  0  0  0  0  0
  160.7650  211.6670  148.0730 C   0  0  0  0  0  3  0  0  0  0  0  0
  162.7210  212.9710  146.4880 C   0  0  0  0  0  3  0  0  0  0  0  0
  162.1100  210.9990  147.9000 C   0  0  1  0  0  3  0  0  0  0  0  0
  161.4340  213.3280  146.4170 C   0  0  0  0  0  3  0  0  0  0  0  0
  160.4450  212.7370  147.3400 C   0  0  0  0  0  3  0  0  0  0  0  0
  163.1940  212.0300  147.5640 C   0  0  0  0  0  2  0  0  0  0  0  0
  1 20  1  0  0  0  0
  2  1  2  0  0  0  0
  3  4  1  6  0  0  0
  3  2  1  0  0  0  0
  5 20  2  0  0  0  0
  6 25  1  6  0  0  0
  6  7  1  0  0  0  0
  6 21  1  0  0  0  0
  7  4  2  0  0  0  0
  8 15  1  0  0  0  0
  9  3  1  0  0  0  0
  9 14  1  0  0  0  0
 10 27  1  1  0  0  0
 11 23  1  0  0  0  0
 11 12  1  0  0  0  0
 12 10  1  0  0  0  0
 13 10  1  0  0  0  0
 14 17  1  0  0  0  0
 15 33  1  1  0  0  0
 15 19  1  0  0  0  0
 16  7  1  0  0  0  0
 17  2  1  0  0  0  0
 19 18  2  0  0  0  0
 20 11  1  0  0  0  0
 21  8  1  6  0  0  0
 22  9  2  0  0  0  0
 23 18  1  6  0  0  0
 23 13  1  0  0  0  0
 24 25  1  6  0  0  0
 24  6  1  0  0  0  0
 24 21  1  0  0  0  0
 26 28  1  0  0  0  0
 27 26  2  0  0  0  0
 28 29  1  0  0  0  0
 29 30  1  6  0  0  0
 31 29  1  0  0  0  0
 33 32  1  1  0  0  0
 35 39  1  0  0  0  0
 36 34  1  0  0  0  0
 36 33  1  1  0  0  0
 37 35  2  0  0  0  0
 37 38  1  0  0  0  0
 38 34  2  0  0  0  0
 39 36  1  0  0  0  0
M  END
>  <MODEL>
5

>  <REMARK>
 VINA RESULT:      -3.6      2.720      8.323
  Name = 
  5 active torsions:
  status: ('A' for Active; 'I' for Inactive)
    1  A    between atoms: C_7  and  C_23
    2  A    between atoms: C_12  and  N_22
    3  A    between atoms: C_15  and  C_23
    4  A    between atoms: C_20  and  C_29
    5  A    between atoms: C_21  and  C_29
                            x       y       z     vdW  Elec       q    Type
                         _______ _______ _______ _____ _____    ______ ____

>  <TORSDO>
F 5

$$$$
=
 OpenBabel11072415083D

 39 44  0  0  1  0  0  0  0  0999 V2000
  158.4680  214.2640  151.1370 N   0  0  0  0  0  0  0  0  0  0  0  0
  158.1180  214.1780  152.3890 C   0  0  0  0  0  0  0  0  0  0  0  0
  158.9740  213.6780  153.5180 C   0  0  2  0  0  3  0  0  0  0  0  0
  159.4260  212.2920  153.1900 C   0  0  0  0  0  3  0  0  0  0  0  0
  160.8020  214.3060  151.2950 O   0  0  0  0  0  0  0  0  0  0  0  0
  160.8570  210.2920  153.3540 C   0  0  2  0  0  0  0  0  0  0  0  0
  160.3140  211.5890  153.8960 C   0  0  0  0  0  0  0  0  0  0  0  0
  160.9240  208.8250  151.3460 C   0  0  0  0  0  2  0  0  0  0  0  0
  157.9410  213.6820  154.5990 C   0  0  0  0  0  0  0  0  0  0  0  0
  159.3960  212.2010  147.3530 C   0  0  2  0  0  3  0  0  0  0  0  0
  159.9300  213.3060  149.3740 N   0  0  0  0  0  0  0  0  0  0  0  0
  158.8050  212.9590  148.5290 C   0  0  0  0  0  2  0  0  0  0  0  0
  160.9000  212.4620  147.3890 C   0  0  0  0  0  2  0  0  0  0  0  0
  156.6800  214.1620  154.1500 N   0  0  0  0  0  2  0  0  0  0  0  0
  161.9250  209.6600  150.5440 C   0  0  2  0  0  3  0  0  0  0  0  0
  160.8380  212.1050  155.0770 O   0  0  0  0  0  1  0  0  0  0  0  0
  156.8280  214.4520  152.8180 O   0  0  0  0  0  0  0  0  0  0  0  0
  161.8610  211.8270  149.5860 C   0  0  0  0  0  3  0  0  0  0  0  0
  161.2640  210.7100  149.8020 N   0  0  0  0  0  0  0  0  0  0  0  0
  159.7800  213.9790  150.6310 C   0  0  0  0  0  0  0  0  0  0  0  0
  160.0420  209.7100  152.2140 C   0  0  1  0  0  3  0  0  0  0  0  0
  158.1520  213.3340  155.7900 O   0  0  0  0  0  0  0  0  0  0  0  0
  161.2120  212.9330  148.7990 C   0  0  2  0  0  3  0  0  0  0  0  0
  159.8950  209.1750  153.6230 C   0  0  1  0  0  3  0  0  0  0  0  0
  161.0720  209.3470  154.3730 O   0  0  0  0  0  0  0  0  0  0  0  0
  159.5280  212.7190  145.0480 C   0  0  0  0  0  3  0  0  0  0  0  0
  158.8280  212.6850  146.1240 N   0  0  0  0  0  0  0  0  0  0  0  0
  158.9370  213.2210  143.7720 C   0  0  0  0  0  2  0  0  0  0  0  0
  159.7270  212.7270  142.5700 C   0  0  2  0  0  3  0  0  0  0  0  0
  161.1570  212.4580  142.9870 C   0  0  0  0  0  1  0  0  0  0  0  0
  159.7160  213.6900  141.5610 O   0  0  0  0  0  1  0  0  0  0  0  0
  162.6400  209.1450  148.2940 O   0  0  0  0  0  1  0  0  0  0  0  0
  162.7690  208.7610  149.6320 C   0  0  2  0  0  3  0  0  0  0  0  0
  162.5590  206.8250  151.2610 C   0  0  0  0  0  3  0  0  0  0  0  0
  160.8130  205.4440  149.5050 C   0  0  0  0  0  3  0  0  0  0  0  0
  162.5030  207.2610  149.8150 C   0  0  1  0  0  3  0  0  0  0  0  0
  161.1530  204.9170  150.6860 C   0  0  0  0  0  3  0  0  0  0  0  0
  161.9540  205.6990  151.6490 C   0  0  0  0  0  3  0  0  0  0  0  0
  161.1660  206.8710  149.1770 C   0  0  0  0  0  2  0  0  0  0  0  0
  1  2  2  0  0  0  0
  2 17  1  0  0  0  0
  2  3  1  0  0  0  0
  3  4  1  6  0  0  0
  3  9  1  0  0  0  0
  4  7  2  0  0  0  0
  6 24  1  0  0  0  0
  6  7  1  1  0  0  0
  6 25  1  0  0  0  0
  7 16  1  0  0  0  0
  9 22  2  0  0  0  0
 10 27  1  6  0  0  0
 10 13  1  0  0  0  0
 10 12  1  0  0  0  0
 11 20  1  0  0  0  0
 12 11  1  0  0  0  0
 14  9  1  0  0  0  0
 15 33  1  6  0  0  0
 15  8  1  0  0  0  0
 17 14  1  0  0  0  0
 18 19  2  0  0  0  0
 19 15  1  0  0  0  0
 20  1  1  0  0  0  0
 20  5  2  0  0  0  0
 21  8  1  6  0  0  0
 21  6  1  0  0  0  0
 21 24  1  0  0  0  0
 23 13  1  6  0  0  0
 23 11  1  0  0  0  0
 23 18  1  0  0  0  0
 24 25  1  6  0  0  0
 26 27  2  0  0  0  0
 28 26  1  0  0  0  0
 29 30  1  1  0  0  0
 29 28  1  0  0  0  0
 31 29  1  0  0  0  0
 33 32  1  6  0  0  0
 34 38  2  0  0  0  0
 35 37  2  0  0  0  0
 36 33  1  1  0  0  0
 36 34  1  0  0  0  0
 37 38  1  0  0  0  0
 39 35  1  0  0  0  0
 39 36  1  0  0  0  0
M  END
>  <MODEL>
6

>  <REMARK>
 VINA RESULT:      -3.3      2.752      7.464
  Name = 
  5 active torsions:
  status: ('A' for Active; 'I' for Inactive)
    1  A    between atoms: C_7  and  C_23
    2  A    between atoms: C_12  and  N_22
    3  A    between atoms: C_15  and  C_23
    4  A    between atoms: C_20  and  C_29
    5  A    between atoms: C_21  and  C_29
                            x       y       z     vdW  Elec       q    Type
                         _______ _______ _______ _____ _____    ______ ____

>  <TORSDO>
F 5

$$$$
=
 OpenBabel11072415083D

 39 44  0  0  1  0  0  0  0  0999 V2000
  161.1590  205.2110  152.2710 N   0  0  0  0  0  0  0  0  0  0  0  0
  161.0130  204.1580  151.5200 C   0  0  0  0  0  0  0  0  0  0  0  0
  161.7090  203.8940  150.2140 C   0  0  2  0  0  3  0  0  0  0  0  0
  161.4140  205.0260  149.2840 C   0  0  0  0  0  3  0  0  0  0  0  0
  163.2420  206.0140  151.5690 O   0  0  0  0  0  0  0  0  0  0  0  0
  161.7680  206.4870  147.3310 C   0  0  2  0  0  0  0  0  0  0  0  0
  161.9770  205.2000  148.0870 C   0  0  0  0  0  0  0  0  0  0  0  0
  160.8310  208.7860  147.4990 C   0  0  0  0  0  2  0  0  0  0  0  0
  160.9810  202.6490  149.8210 C   0  0  0  0  0  0  0  0  0  0  0  0
  160.4180  209.5140  152.8810 C   0  0  2  0  0  3  0  0  0  0  0  0
  161.7140  207.6310  152.2790 N   0  0  0  0  0  0  0  0  0  0  0  0
  160.4380  207.9960  152.8590 C   0  0  0  0  0  2  0  0  0  0  0  0
  161.8570  209.9640  152.6420 C   0  0  0  0  0  2  0  0  0  0  0  0
  160.0300  202.2400  150.7950 N   0  0  0  0  0  2  0  0  0  0  0  0
  161.9630  209.3820  148.3400 C   0  0  2  0  0  3  0  0  0  0  0  0
  162.8600  204.2510  147.5830 O   0  0  0  0  0  1  0  0  0  0  0  0
  160.0810  203.1700  151.8010 O   0  0  0  0  0  0  0  0  0  0  0  0
  162.7530  208.9960  150.5410 C   0  0  0  0  0  3  0  0  0  0  0  0
  161.7510  209.1520  149.7510 N   0  0  0  0  0  0  0  0  0  0  0  0
  162.0930  206.2720  152.0240 C   0  0  0  0  0  0  0  0  0  0  0  0
  160.6070  207.3200  147.8410 C   0  0  1  0  0  3  0  0  0  0  0  0
  161.1950  202.0000  148.7640 O   0  0  0  0  0  0  0  0  0  0  0  0
  162.5700  208.7770  152.0180 C   0  0  2  0  0  3  0  0  0  0  0  0
  160.4560  206.4550  146.6080 C   0  0  1  0  0  3  0  0  0  0  0  0
  161.6830  206.2720  145.9450 O   0  0  0  0  0  0  0  0  0  0  0  0
  159.2780  211.0700  154.2520 C   0  0  0  0  0  3  0  0  0  0  0  0
  159.9490  209.9790  154.1590 N   0  0  0  0  0  0  0  0  0  0  0  0
  158.7920  211.5520  155.5800 C   0  0  0  0  0  2  0  0  0  0  0  0
  157.4100  212.1770  155.4630 C   0  0  2  0  0  3  0  0  0  0  0  0
  156.3740  211.0810  155.3350 C   0  0  0  0  0  1  0  0  0  0  0  0
  157.3510  212.9990  154.3380 O   0  0  0  0  0  1  0  0  0  0  0  0
  163.1640  211.4280  148.7980 O   0  0  0  0  0  1  0  0  0  0  0  0
  162.1400  210.8720  148.0240 C   0  0  2  0  0  3  0  0  0  0  0  0
  160.9280  212.7880  149.1680 C   0  0  0  0  0  3  0  0  0  0  0  0
  159.2950  213.2090  146.8890 C   0  0  0  0  0  3  0  0  0  0  0  0
  160.8480  211.6910  148.1310 C   0  0  1  0  0  3  0  0  0  0  0  0
  159.1600  213.9730  147.9780 C   0  0  0  0  0  3  0  0  0  0  0  0
  160.1010  213.8360  149.1070 C   0  0  0  0  0  3  0  0  0  0  0  0
  160.4580  212.2600  146.7620 C   0  0  0  0  0  2  0  0  0  0  0  0
  2 17  1  0  0  0  0
  2  1  2  0  0  0  0
  3  4  1  6  0  0  0
  3  2  1  0  0  0  0
  5 20  2  0  0  0  0
  6 25  1  6  0  0  0
  6 21  1  0  0  0  0
  6  7  1  0  0  0  0
  7  4  2  0  0  0  0
  8 15  1  0  0  0  0
  9  3  1  0  0  0  0
  9 14  1  0  0  0  0
 10 27  1  1  0  0  0
 11 12  1  0  0  0  0
 12 10  1  0  0  0  0
 13 10  1  0  0  0  0
 14 17  1  0  0  0  0
 15 33  1  1  0  0  0
 15 19  1  0  0  0  0
 16  7  1  0  0  0  0
 19 18  2  0  0  0  0
 20  1  1  0  0  0  0
 20 11  1  0  0  0  0
 21  8  1  6  0  0  0
 22  9  2  0  0  0  0
 23 18  1  6  0  0  0
 23 11  1  0  0  0  0
 23 13  1  0  0  0  0
 24 25  1  6  0  0  0
 24  6  1  0  0  0  0
 24 21  1  0  0  0  0
 26 28  1  0  0  0  0
 27 26  2  0  0  0  0
 29 30  1  6  0  0  0
 29 28  1  0  0  0  0
 31 29  1  0  0  0  0
 33 32  1  1  0  0  0
 35 37  2  0  0  0  0
 36 33  1  6  0  0  0
 36 34  1  0  0  0  0
 37 38  1  0  0  0  0
 38 34  2  0  0  0  0
 39 35  1  0  0  0  0
 39 36  1  0  0  0  0
M  END
>  <MODEL>
7

>  <REMARK>
 VINA RESULT:      -2.6      2.423      8.273
  Name = 
  5 active torsions:
  status: ('A' for Active; 'I' for Inactive)
    1  A    between atoms: C_7  and  C_23
    2  A    between atoms: C_12  and  N_22
    3  A    between atoms: C_15  and  C_23
    4  A    between atoms: C_20  and  C_29
    5  A    between atoms: C_21  and  C_29
                            x       y       z     vdW  Elec       q    Type
                         _______ _______ _______ _____ _____    ______ ____

>  <TORSDO>
F 5

$$$$
=
 OpenBabel11072415083D

 39 44  0  0  1  0  0  0  0  0999 V2000
  162.1270  208.3190  148.1640 N   0  0  0  0  0  0  0  0  0  0  0  0
  161.9860  208.8210  149.3570 C   0  0  0  0  0  0  0  0  0  0  0  0
  162.3740  208.1620  150.6500 C   0  0  2  0  0  3  0  0  0  0  0  0
  161.6650  206.8500  150.7430 C   0  0  0  0  0  3  0  0  0  0  0  0
  163.7980  206.7190  148.5130 O   0  0  0  0  0  0  0  0  0  0  0  0
  161.2650  204.5590  151.5580 C   0  0  2  0  0  0  0  0  0  0  0  0
  161.8760  205.9300  151.6860 C   0  0  0  0  0  0  0  0  0  0  0  0
  160.0110  203.0530  150.0240 C   0  0  0  0  0  2  0  0  0  0  0  0
  161.8010  209.1700  151.5950 C   0  0  0  0  0  0  0  0  0  0  0  0
  160.8180  205.3700  145.1600 C   0  0  2  0  0  3  0  0  0  0  0  0
  162.2340  206.2120  146.8550 N   0  0  0  0  0  0  0  0  0  0  0  0
  161.0970  206.5780  146.0350 C   0  0  0  0  0  2  0  0  0  0  0  0
  162.0520  204.4760  145.2590 C   0  0  0  0  0  2  0  0  0  0  0  0
  161.2060  210.2720  150.9240 N   0  0  0  0  0  2  0  0  0  0  0  0
  161.1930  202.6880  149.1230 C   0  0  2  0  0  3  0  0  0  0  0  0
  162.7600  206.1860  152.7300 O   0  0  0  0  0  1  0  0  0  0  0  0
  161.3400  210.0280  149.5820 O   0  0  0  0  0  0  0  0  0  0  0  0
  162.5570  203.9170  147.6230 C   0  0  0  0  0  3  0  0  0  0  0  0
  161.3800  203.6640  148.0730 N   0  0  0  0  0  0  0  0  0  0  0  0
  162.7700  207.0700  147.8710 C   0  0  0  0  0  0  0  0  0  0  0  0
  160.1380  204.4780  150.5450 C   0  0  1  0  0  3  0  0  0  0  0  0
  161.8570  209.0850  152.8500 O   0  0  0  0  0  0  0  0  0  0  0  0
  162.7860  204.9100  146.5170 C   0  0  2  0  0  3  0  0  0  0  0  0
  159.8420  204.5800  152.0260 C   0  0  1  0  0  3  0  0  0  0  0  0
  160.8790  204.0380  152.8060 O   0  0  0  0  0  0  0  0  0  0  0  0
  161.5810  205.8280  142.9680 C   0  0  0  0  0  3  0  0  0  0  0  0
  160.6050  205.7880  143.8010 N   0  0  0  0  0  0  0  0  0  0  0  0
  161.3590  206.2630  141.5560 C   0  0  0  0  0  2  0  0  0  0  0  0
  162.5920  206.9530  140.9940 C   0  0  2  0  0  3  0  0  0  0  0  0
  162.1900  208.2800  140.3860 C   0  0  0  0  0  1  0  0  0  0  0  0
  163.1790  206.1560  140.0110 O   0  0  0  0  0  1  0  0  0  0  0  0
  161.9800  200.4030  149.0970 O   0  0  0  0  0  1  0  0  0  0  0  0
  161.0240  201.2710  148.5600 C   0  0  2  0  0  3  0  0  0  0  0  0
  161.2060  199.8060  146.4950 C   0  0  0  0  0  3  0  0  0  0  0  0
  159.5990  201.5970  144.9960 C   0  0  0  0  0  3  0  0  0  0  0  0
  161.0030  201.2060  147.0280 C   0  0  1  0  0  3  0  0  0  0  0  0
  160.0810  200.4810  144.4390 C   0  0  0  0  0  3  0  0  0  0  0  0
  160.8040  199.4900  145.2610 C   0  0  0  0  0  3  0  0  0  0  0  0
  159.7080  201.8170  146.4820 C   0  0  0  0  0  2  0  0  0  0  0  0
  1  2  2  0  0  0  0
  2 17  1  0  0  0  0
  2  3  1  0  0  0  0
  3  4  1  1  0  0  0
  3  9  1  0  0  0  0
  4  7  2  0  0  0  0
  6  7  1  1  0  0  0
  6 24  1  0  0  0  0
  6 25  1  0  0  0  0
  7 16  1  0  0  0  0
  9 22  2  0  0  0  0
 10 27  1  6  0  0  0
 10 13  1  0  0  0  0
 10 12  1  0  0  0  0
 11 20  1  0  0  0  0
 12 11  1  0  0  0  0
 14  9  1  0  0  0  0
 15 33  1  6  0  0  0
 15  8  1  0  0  0  0
 17 14  1  0  0  0  0
 18 19  2  0  0  0  0
 19 15  1  0  0  0  0
 20  1  1  0  0  0  0
 20  5  2  0  0  0  0
 21  8  1  1  0  0  0
 21  6  1  0  0  0  0
 21 24  1  0  0  0  0
 23 13  1  6  0  0  0
 23 11  1  0  0  0  0
 23 18  1  0  0  0  0
 24 25  1  1  0  0  0
 26 27  2  0  0  0  0
 28 26  1  0  0  0  0
 29 30  1  6  0  0  0
 29 28  1  0  0  0  0
 31 29  1  0  0  0  0
 33 32  1  6  0  0  0
 34 36  1  0  0  0  0
 35 39  1  0  0  0  0
 36 33  1  1  0  0  0
 37 35  2  0  0  0  0
 37 38  1  0  0  0  0
 38 34  2  0  0  0  0
 39 36  1  0  0  0  0
M  END
>  <MODEL>
8

>  <REMARK>
 VINA RESULT:      -2.2      4.426      9.125
  Name = 
  5 active torsions:
  status: ('A' for Active; 'I' for Inactive)
    1  A    between atoms: C_7  and  C_23
    2  A    between atoms: C_12  and  N_22
    3  A    between atoms: C_15  and  C_23
    4  A    between atoms: C_20  and  C_29
    5  A    between atoms: C_21  and  C_29
                            x       y       z     vdW  Elec       q    Type
                         _______ _______ _______ _____ _____    ______ ____

>  <TORSDO>
F 5

$$$$
