=
 OpenBabel11072413513D

 67 71  0  0  1  0  0  0  0  0999 V2000
  161.8930  210.6750  147.4410 C   0  0  0  0  0  2  0  0  0  0  0  0
  162.0870  210.4010  152.5240 C   0  0  0  0  0  2  0  0  0  0  0  0
  162.2070  214.1830  147.6390 O   0  0  0  0  0  0  0  0  0  0  0  0
  161.6140  211.1250  153.6340 O   0  0  0  0  0  0  0  0  0  0  0  0
  159.5130  212.7890  150.7420 O   0  0  0  0  0  0  0  0  0  0  0  0
  159.9630  209.3470  154.1760 C   0  0  2  0  0  3  0  0  0  0  0  0
  159.8790  211.6000  155.0100 O   0  0  0  0  0  1  0  0  0  0  0  0
  160.7770  209.2600  149.2610 C   0  0  0  0  0  2  0  0  0  0  0  0
  163.0050  205.7390  151.7590 C   0  0  2  0  0  3  0  0  0  0  0  0
  158.0180  211.4030  153.1020 F   0  0  0  0  0  0  0  0  0  0  0  0
  160.6570  209.8930  147.8960 C   0  0  2  0  0  0  0  0  0  0  0  0
  160.6820  208.3730  148.0250 C   0  0  1  0  0  3  0  0  0  0  0  0
  160.2490  213.6010  149.8790 C   0  0  0  0  0  0  0  0  0  0  0  0
  161.9010  206.2880  147.4680 C   0  0  0  0  0  2  0  0  0  0  0  0
  163.4910  213.6230  147.7700 C   0  0  1  0  0  3  0  0  0  0  0  0
  162.9420  209.2480  153.0090 C   0  0  0  0  0  2  0  0  0  0  0  0
  159.8130  212.6780  152.1310 C   0  0  2  0  0  3  0  0  0  0  0  0
  162.0570  208.1120  153.5090 C   0  0  1  0  0  3  0  0  0  0  0  0
  162.2740  205.9370  153.0930 C   0  0  0  0  0  2  0  0  0  0  0  0
  162.4290  206.6900  150.7210 C   0  0  0  0  0  2  0  0  0  0  0  0
  162.8390  206.9940  153.8170 O   0  0  0  0  0  0  0  0  0  0  0  0
  163.4360  212.2990  148.2450 O   0  0  0  0  0  0  0  0  0  0  0  0
  161.1420  208.5000  154.6780 C   0  0  1  0  0  3  0  0  0  0  0  0
  162.0500  207.7740  147.7370 C   0  0  0  0  0  2  0  0  0  0  0  0
  161.3370  213.0990  147.6470 C   0  0  2  0  0  3  0  0  0  0  0  0
  161.8860  205.5210  149.9170 C   0  0  2  0  0  3  0  0  0  0  0  0
  162.5060  204.5530  150.9240 C   0  0  2  0  0  3  0  0  0  0  0  0
  160.2370  210.8570  153.8790 C   0  0  1  0  0  0  0  0  0  0  0  0
  160.0520  213.4510  148.4040 C   0  0  0  0  0  2  0  0  0  0  0  0
  159.3970  210.3770  151.6790 F   0  0  0  0  0  0  0  0  0  0  0  0
  162.5860  205.4400  148.5470 C   0  0  1  0  0  3  0  0  0  0  0  0
  159.3410  211.3220  152.6920 C   0  0  0  0  0  0  0  0  0  0  0  0
  162.0880  211.9460  148.2560 C   0  0  1  0  0  3  0  0  0  0  0  0
  161.0710  214.4480  150.3280 O   0  0  0  0  0  0  0  0  0  0  0  0
  161.5190  203.6040  151.6410 C   0  0  2  0  0  3  0  0  0  0  0  0
  162.2300  202.4810  152.0760 O   0  0  0  0  0  1  0  0  0  0  0  0
  159.1620  204.1550  151.0120 C   0  0  0  0  0  1  0  0  0  0  0  0
  160.3070  203.1800  150.7950 C   0  0  2  0  0  3  0  0  0  0  0  0
  159.8770  201.8950  151.1400 O   0  0  0  0  0  0  0  0  0  0  0  0
  160.3940  200.4670  149.3100 C   0  0  0  0  0  1  0  0  0  0  0  0
  160.8590  201.0460  150.6290 C   0  0  0  0  0  2  0  0  0  0  0  0
  158.6990  209.1010  154.9960 C   0  0  0  0  0  2  0  0  0  0  0  0
  158.6420  207.6580  155.4570 C   0  0  0  0  0  1  0  0  0  0  0  0
  159.3940  210.4510  147.6720 O   0  0  0  0  0  0  0  0  0  0  0  0
  159.5500  211.2590  146.6420 O   0  0  0  0  0  1  0  0  0  0  0  0
  161.5680  210.3370  156.2640 C   0  0  0  0  0  2  0  0  0  0  0  0
  161.8560  209.1030  155.8550 C   0  0  0  0  0  3  0  0  0  0  0  0
  159.3360  213.8950  152.9340 C   0  0  0  0  0  2  0  0  0  0  0  0
  157.0490  214.4530  152.4440 O   0  0  0  0  0  1  0  0  0  0  0  0
  157.8720  213.7950  153.3600 C   0  0  2  0  0  3  0  0  0  0  0  0
  157.6630  214.3470  154.7680 C   0  0  0  0  0  2  0  0  0  0  0  0
  156.9140  213.3860  155.6860 C   0  0  0  0  0  2  0  0  0  0  0  0
  157.6030  213.2290  156.8890 O   0  0  0  0  0  0  0  0  0  0  0  0
  158.2460  214.4500  157.0870 C   0  0  0  0  0  1  0  0  0  0  0  0
  162.8140  204.1140  148.1080 O   0  0  0  0  0  0  0  0  0  0  0  0
  163.0390  204.1190  146.7180 C   0  0  0  0  0  2  0  0  0  0  0  0
  161.8870  203.3620  144.4280 O   0  0  0  0  0  0  0  0  0  0  0  0
  161.5480  203.6640  145.8590 S   0  0  0  0  0  0  0  0  0  0  0  0
  160.5680  204.8040  145.9050 O   0  0  0  0  0  0  0  0  0  0  0  0
  160.8250  202.2150  146.6030 C   0  0  0  0  0  2  0  0  0  0  0  0
  160.2720  201.2910  145.5350 C   0  0  0  0  0  1  0  0  0  0  0  0
  164.2230  213.6620  146.4360 C   0  0  0  0  0  2  0  0  0  0  0  0
  163.4170  214.4480  145.4180 C   0  0  0  0  0  2  0  0  0  0  0  0
  162.1170  212.7830  144.0380 N   0  0  0  0  0  2  0  0  0  0  0  0
  163.2480  213.6450  144.1760 C   0  0  0  0  0  0  0  0  0  0  0  0
  161.8960  211.9900  142.8410 C   0  0  0  0  0  1  0  0  0  0  0  0
  164.0940  213.7480  143.2480 O   0  0  0  0  0  0  0  0  0  0  0  0
  1 11  1  0  0  0  0
  2 16  1  0  0  0  0
  2  4  1  0  0  0  0
  3 25  1  0  0  0  0
  3 15  1  0  0  0  0
  4 28  1  0  0  0  0
  5 17  1  0  0  0  0
  6 23  1  0  0  0  0
  6 42  1  1  0  0  0
  9 20  1  6  0  0  0
  9 19  1  0  0  0  0
 11 44  1  6  0  0  0
 11 12  1  0  0  0  0
 11  8  1  0  0  0  0
 12 24  1  6  0  0  0
 12  8  1  0  0  0  0
 13 34  2  0  0  0  0
 13  5  1  0  0  0  0
 14 24  1  0  0  0  0
 14 31  1  0  0  0  0
 15 62  1  6  0  0  0
 15 22  1  0  0  0  0
 17 32  1  0  0  0  0
 17 48  1  1  0  0  0
 18 16  1  1  0  0  0
 18 21  1  0  0  0  0
 18 23  1  0  0  0  0
 19 21  1  0  0  0  0
 22 33  1  0  0  0  0
 23 47  1  1  0  0  0
 25 33  1  0  0  0  0
 25 29  1  1  0  0  0
 26 20  1  1  0  0  0
 26 27  1  0  0  0  0
 27 35  1  1  0  0  0
 27  9  1  0  0  0  0
 28  6  1  0  0  0  0
 28  7  1  1  0  0  0
 29 13  1  0  0  0  0
 30 32  1  0  0  0  0
 31 55  1  6  0  0  0
 31 26  1  0  0  0  0
 32 10  1  0  0  0  0
 32 28  1  0  0  0  0
 33  1  1  6  0  0  0
 35 36  1  6  0  0  0
 38 37  1  1  0  0  0
 38 39  1  0  0  0  0
 38 35  1  0  0  0  0
 40 41  1  0  0  0  0
 41 39  1  0  0  0  0
 42 43  1  0  0  0  0
 45 44  1  0  0  0  0
 47 46  2  0  0  0  0
 48 50  1  0  0  0  0
 50 49  1  6  0  0  0
 50 51  1  0  0  0  0
 51 52  1  0  0  0  0
 52 53  1  0  0  0  0
 53 54  1  0  0  0  0
 56 55  1  0  0  0  0
 57 58  2  0  0  0  0
 58 59  2  0  0  0  0
 58 60  1  0  0  0  0
 58 56  1  0  0  0  0
 61 60  1  0  0  0  0
 63 62  1  0  0  0  0
 64 65  1  0  0  0  0
 65 63  1  0  0  0  0
 66 64  1  0  0  0  0
 67 65  2  0  0  0  0
M  END
>  <MODEL>
1

>  <REMARK>
 VINA RESULT:      12.8      0.000      0.000
  Name = 
  19 active torsions:
  status: ('A' for Active; 'I' for Inactive)
    1  A    between atoms: C_2  and  C_37
    2  A    between atoms: C_2  and  C_56
    3  A    between atoms: O_5  and  C_53
    4  A    between atoms: C_7  and  C_12
    5  A    between atoms: O_10  and  C_24
    6  A    between atoms: O_10  and  C_63
    7  A    between atoms: C_11  and  C_40
    8  A    between atoms: C_12  and  C_41
    9  A    between atoms: C_13  and  C_22
   10  A    between atoms: C_13  and  C_39
   11  A    between atoms: C_17  and  S_32
   12  A    between atoms: C_22  and  C_50
   13  A    between atoms: C_24  and  S_32
   14  A    between atoms: C_28  and  O_38
   15  A    between atoms: C_33  and  C_41
   16  A    between atoms: O_35  and  C_37
   17  A    between atoms: O_35  and  C_57
   18  A    between atoms: C_47  and  C_60
   19  A    between atoms: C_50  and  C_53
                            x       y       z     vdW  Elec       q    Type
                         _______ _______ _______ _____ _____    ______ ____

>  <TORSDO>
F 19

$$$$
=
 OpenBabel11072413513D

 67 71  0  0  1  0  0  0  0  0999 V2000
  161.8960  210.9440  147.9230 C   0  0  0  0  0  2  0  0  0  0  0  0
  161.8280  210.1120  152.9480 C   0  0  0  0  0  2  0  0  0  0  0  0
  162.5330  214.3620  148.5190 O   0  0  0  0  0  0  0  0  0  0  0  0
  161.3760  210.7560  154.1140 O   0  0  0  0  0  0  0  0  0  0  0  0
  159.5780  212.9210  151.3510 O   0  0  0  0  0  0  0  0  0  0  0  0
  159.5390  209.1040  154.3970 C   0  0  2  0  0  3  0  0  0  0  0  0
  159.6320  211.2530  155.4720 O   0  0  0  0  0  1  0  0  0  0  0  0
  160.5670  209.4610  149.5340 C   0  0  0  0  0  2  0  0  0  0  0  0
  162.3320  205.4890  151.7050 C   0  0  2  0  0  3  0  0  0  0  0  0
  157.8500  211.4470  153.4890 F   0  0  0  0  0  0  0  0  0  0  0  0
  160.5710  210.2450  148.2440 C   0  0  2  0  0  0  0  0  0  0  0  0
  160.4450  208.7250  148.2060 C   0  0  1  0  0  3  0  0  0  0  0  0
  160.4270  213.7430  150.6100 C   0  0  0  0  0  0  0  0  0  0  0  0
  161.4840  206.6000  147.4650 C   0  0  0  0  0  2  0  0  0  0  0  0
  163.7500  213.6660  148.6320 C   0  0  1  0  0  3  0  0  0  0  0  0
  162.5460  208.8330  153.3320 C   0  0  0  0  0  2  0  0  0  0  0  0
  159.8020  212.6320  152.7290 C   0  0  2  0  0  3  0  0  0  0  0  0
  161.5350  207.7440  153.6720 C   0  0  1  0  0  3  0  0  0  0  0  0
  161.5620  205.6160  153.0260 C   0  0  0  0  0  2  0  0  0  0  0  0
  161.8970  206.5980  150.7590 C   0  0  0  0  0  2  0  0  0  0  0  0
  162.1920  206.5280  153.8820 O   0  0  0  0  0  0  0  0  0  0  0  0
  163.5480  212.3110  148.9560 O   0  0  0  0  0  0  0  0  0  0  0  0
  160.6080  208.0950  154.8440 C   0  0  1  0  0  3  0  0  0  0  0  0
  161.7620  208.0260  147.9010 C   0  0  0  0  0  2  0  0  0  0  0  0
  161.5640  213.3750  148.3760 C   0  0  2  0  0  3  0  0  0  0  0  0
  161.2830  205.5810  149.8110 C   0  0  2  0  0  3  0  0  0  0  0  0
  161.7610  204.4550  150.7270 C   0  0  2  0  0  3  0  0  0  0  0  0
  159.9700  210.6030  154.2790 C   0  0  1  0  0  0  0  0  0  0  0  0
  160.2850  213.7710  149.1210 C   0  0  0  0  0  2  0  0  0  0  0  0
  159.1900  210.4460  152.0110 F   0  0  0  0  0  0  0  0  0  0  0  0
  162.0350  205.5780  148.4670 C   0  0  1  0  0  3  0  0  0  0  0  0
  159.1770  211.2780  153.1200 C   0  0  0  0  0  0  0  0  0  0  0  0
  162.1730  212.0950  148.8800 C   0  0  1  0  0  3  0  0  0  0  0  0
  161.3040  214.4500  151.1790 O   0  0  0  0  0  0  0  0  0  0  0  0
  160.6560  203.5380  151.2990 C   0  0  2  0  0  3  0  0  0  0  0  0
  160.1260  204.1500  152.4380 O   0  0  0  0  0  1  0  0  0  0  0  0
  162.5970  202.1000  151.9480 C   0  0  0  0  0  1  0  0  0  0  0  0
  161.1140  202.1050  151.6200 C   0  0  2  0  0  3  0  0  0  0  0  0
  160.8880  201.2500  150.5360 O   0  0  0  0  0  0  0  0  0  0  0  0
  160.3140  201.3020  148.2290 C   0  0  0  0  0  1  0  0  0  0  0  0
  160.7440  202.1010  149.4400 C   0  0  0  0  0  2  0  0  0  0  0  0
  158.2210  208.9000  155.1390 C   0  0  0  0  0  2  0  0  0  0  0  0
  158.1340  207.4860  155.6790 C   0  0  0  0  0  1  0  0  0  0  0  0
  159.3780  210.9470  148.0390 O   0  0  0  0  0  0  0  0  0  0  0  0
  159.4730  211.4410  146.8210 O   0  0  0  0  0  1  0  0  0  0  0  0
  162.1740  207.6610  156.6960 C   0  0  0  0  0  2  0  0  0  0  0  0
  161.3210  208.4950  156.1050 C   0  0  0  0  0  3  0  0  0  0  0  0
  159.4070  213.7980  153.6450 C   0  0  0  0  0  2  0  0  0  0  0  0
  157.0390  214.0390  153.2950 O   0  0  0  0  0  1  0  0  0  0  0  0
  158.0020  213.6510  154.2290 C   0  0  2  0  0  3  0  0  0  0  0  0
  157.8520  214.4480  155.5220 C   0  0  0  0  0  2  0  0  0  0  0  0
  159.1000  214.4120  156.4000 C   0  0  0  0  0  2  0  0  0  0  0  0
  159.1860  213.1920  157.0720 O   0  0  0  0  0  0  0  0  0  0  0  0
  160.3550  212.6060  156.5870 C   0  0  0  0  0  1  0  0  0  0  0  0
  162.1550  204.2900  147.8920 O   0  0  0  0  0  0  0  0  0  0  0  0
  162.8400  204.3920  146.6670 C   0  0  0  0  0  2  0  0  0  0  0  0
  160.8270  202.8550  145.8130 O   0  0  0  0  0  0  0  0  0  0  0  0
  161.7670  203.9210  145.3280 S   0  0  0  0  0  0  0  0  0  0  0  0
  162.5840  203.3770  144.1890 O   0  0  0  0  0  0  0  0  0  0  0  0
  160.8160  205.3240  144.7750 C   0  0  0  0  0  2  0  0  0  0  0  0
  161.1810  205.6810  143.3480 C   0  0  0  0  0  1  0  0  0  0  0  0
  164.5430  213.7740  147.3370 C   0  0  0  0  0  2  0  0  0  0  0  0
  163.7040  214.4390  146.2620 C   0  0  0  0  0  2  0  0  0  0  0  0
  163.2060  213.7540  143.8850 N   0  0  0  0  0  2  0  0  0  0  0  0
  163.2470  213.4240  145.2750 C   0  0  0  0  0  0  0  0  0  0  0  0
  162.7830  212.7950  142.8790 C   0  0  0  0  0  1  0  0  0  0  0  0
  162.9170  212.2740  145.6710 O   0  0  0  0  0  0  0  0  0  0  0  0
  1 11  1  0  0  0  0
  2 16  1  0  0  0  0
  2  4  1  0  0  0  0
  3 15  1  0  0  0  0
  4 28  1  0  0  0  0
  5 17  1  0  0  0  0
  6 23  1  0  0  0  0
  6 42  1  1  0  0  0
  9 20  1  6  0  0  0
  9 19  1  0  0  0  0
 11 44  1  6  0  0  0
 11  8  1  0  0  0  0
 12 24  1  6  0  0  0
 12 11  1  0  0  0  0
 12  8  1  0  0  0  0
 13 34  2  0  0  0  0
 13  5  1  0  0  0  0
 14 24  1  0  0  0  0
 14 31  1  0  0  0  0
 15 62  1  6  0  0  0
 15 22  1  0  0  0  0
 17 32  1  0  0  0  0
 17 48  1  1  0  0  0
 18 16  1  1  0  0  0
 18 21  1  0  0  0  0
 18 23  1  0  0  0  0
 19 21  1  0  0  0  0
 23 47  1  1  0  0  0
 25  3  1  0  0  0  0
 25 33  1  0  0  0  0
 25 29  1  1  0  0  0
 26 27  1  0  0  0  0
 26 20  1  1  0  0  0
 27 35  1  1  0  0  0
 27  9  1  0  0  0  0
 28  6  1  0  0  0  0
 28  7  1  1  0  0  0
 29 13  1  0  0  0  0
 30 32  1  0  0  0  0
 31 55  1  6  0  0  0
 31 26  1  0  0  0  0
 32 10  1  0  0  0  0
 32 28  1  0  0  0  0
 33  1  1  6  0  0  0
 33 22  1  0  0  0  0
 35 38  1  0  0  0  0
 35 36  1  1  0  0  0
 38 37  1  6  0  0  0
 39 38  1  0  0  0  0
 40 41  1  0  0  0  0
 41 39  1  0  0  0  0
 42 43  1  0  0  0  0
 45 44  1  0  0  0  0
 47 46  2  0  0  0  0
 48 50  1  0  0  0  0
 50 49  1  6  0  0  0
 50 51  1  0  0  0  0
 51 52  1  0  0  0  0
 52 53  1  0  0  0  0
 54 53  1  0  0  0  0
 56 55  1  0  0  0  0
 58 57  2  0  0  0  0
 58 56  1  0  0  0  0
 59 58  2  0  0  0  0
 60 58  1  0  0  0  0
 61 60  1  0  0  0  0
 63 62  1  0  0  0  0
 64 65  1  0  0  0  0
 65 67  2  0  0  0  0
 65 63  1  0  0  0  0
 66 64  1  0  0  0  0
M  END
>  <MODEL>
2

>  <REMARK>
 VINA RESULT:      12.9      1.200      1.470
  Name = 
  19 active torsions:
  status: ('A' for Active; 'I' for Inactive)
    1  A    between atoms: C_2  and  C_37
    2  A    between atoms: C_2  and  C_56
    3  A    between atoms: O_5  and  C_53
    4  A    between atoms: C_7  and  C_12
    5  A    between atoms: O_10  and  C_24
    6  A    between atoms: O_10  and  C_63
    7  A    between atoms: C_11  and  C_40
    8  A    between atoms: C_12  and  C_41
    9  A    between atoms: C_13  and  C_22
   10  A    between atoms: C_13  and  C_39
   11  A    between atoms: C_17  and  S_32
   12  A    between atoms: C_22  and  C_50
   13  A    between atoms: C_24  and  S_32
   14  A    between atoms: C_28  and  O_38
   15  A    between atoms: C_33  and  C_41
   16  A    between atoms: O_35  and  C_37
   17  A    between atoms: O_35  and  C_57
   18  A    between atoms: C_47  and  C_60
   19  A    between atoms: C_50  and  C_53
                            x       y       z     vdW  Elec       q    Type
                         _______ _______ _______ _____ _____    ______ ____

>  <TORSDO>
F 19

$$$$
=
 OpenBabel11072413513D

 67 71  0  0  1  0  0  0  0  0999 V2000
  161.9560  210.9930  147.8130 C   0  0  0  0  0  2  0  0  0  0  0  0
  161.9760  210.0750  152.8240 C   0  0  0  0  0  2  0  0  0  0  0  0
  162.2160  214.4500  148.4670 O   0  0  0  0  0  0  0  0  0  0  0  0
  161.4560  210.6460  153.9980 O   0  0  0  0  0  0  0  0  0  0  0  0
  159.4340  212.6480  151.2680 O   0  0  0  0  0  0  0  0  0  0  0  0
  159.8110  208.7990  154.2490 C   0  0  2  0  0  3  0  0  0  0  0  0
  159.6670  210.9260  155.3600 O   0  0  0  0  0  1  0  0  0  0  0  0
  160.7970  209.3480  149.3960 C   0  0  0  0  0  2  0  0  0  0  0  0
  162.9830  205.5560  151.5050 C   0  0  2  0  0  3  0  0  0  0  0  0
  157.8760  210.9590  153.3770 F   0  0  0  0  0  0  0  0  0  0  0  0
  160.7150  210.1490  148.1190 C   0  0  2  0  0  0  0  0  0  0  0  0
  160.7560  208.6250  148.0550 C   0  0  1  0  0  3  0  0  0  0  0  0
  160.1890  213.5700  150.5420 C   0  0  0  0  0  0  0  0  0  0  0  0
  162.0210  206.6390  147.2810 C   0  0  0  0  0  2  0  0  0  0  0  0
  163.5020  213.8890  148.5720 C   0  0  1  0  0  3  0  0  0  0  0  0
  162.8290  208.8760  153.1880 C   0  0  0  0  0  2  0  0  0  0  0  0
  159.6870  212.3620  152.6410 C   0  0  2  0  0  3  0  0  0  0  0  0
  161.9430  207.6780  153.5070 C   0  0  1  0  0  3  0  0  0  0  0  0
  162.2040  205.5760  152.8250 C   0  0  0  0  0  2  0  0  0  0  0  0
  162.4310  206.6270  150.5760 C   0  0  0  0  0  2  0  0  0  0  0  0
  162.7290  206.5370  153.6980 O   0  0  0  0  0  0  0  0  0  0  0  0
  163.4480  212.5150  148.8730 O   0  0  0  0  0  0  0  0  0  0  0  0
  160.9830  207.9050  154.6820 C   0  0  1  0  0  3  0  0  0  0  0  0
  162.1420  208.0800  147.7420 C   0  0  0  0  0  2  0  0  0  0  0  0
  161.3610  213.3660  148.3060 C   0  0  2  0  0  3  0  0  0  0  0  0
  161.9320  205.5650  149.6100 C   0  0  2  0  0  3  0  0  0  0  0  0
  162.5290  204.4830  150.5080 C   0  0  2  0  0  3  0  0  0  0  0  0
  160.0750  210.3370  154.1580 C   0  0  1  0  0  0  0  0  0  0  0  0
  160.0450  213.6070  149.0540 C   0  0  0  0  0  2  0  0  0  0  0  0
  159.3180  210.1350  151.8850 F   0  0  0  0  0  0  0  0  0  0  0  0
  162.6800  205.6670  148.2680 C   0  0  1  0  0  3  0  0  0  0  0  0
  159.2140  210.9420  153.0080 C   0  0  0  0  0  0  0  0  0  0  0  0
  162.1060  212.1520  148.7900 C   0  0  1  0  0  3  0  0  0  0  0  0
  160.9830  214.3590  151.1250 O   0  0  0  0  0  0  0  0  0  0  0  0
  161.5310  203.4410  151.0620 C   0  0  2  0  0  3  0  0  0  0  0  0
  162.1650  202.7280  152.0840 O   0  0  0  0  0  1  0  0  0  0  0  0
  159.5490  202.0660  150.4010 C   0  0  0  0  0  1  0  0  0  0  0  0
  160.9570  202.4780  150.0090 C   0  0  2  0  0  3  0  0  0  0  0  0
  161.7480  201.3310  149.8910 O   0  0  0  0  0  0  0  0  0  0  0  0
  161.3180  199.9950  147.9720 C   0  0  0  0  0  1  0  0  0  0  0  0
  160.8870  200.3620  149.3750 C   0  0  0  0  0  2  0  0  0  0  0  0
  158.5220  208.4400  154.9850 C   0  0  0  0  0  2  0  0  0  0  0  0
  158.7060  207.1580  155.7740 C   0  0  0  0  0  1  0  0  0  0  0  0
  159.4530  210.7200  147.9230 O   0  0  0  0  0  0  0  0  0  0  0  0
  159.5690  211.4460  146.8290 O   0  0  0  0  0  1  0  0  0  0  0  0
  161.5800  209.6330  156.3350 C   0  0  0  0  0  2  0  0  0  0  0  0
  161.6470  208.3600  155.9510 C   0  0  0  0  0  3  0  0  0  0  0  0
  159.1660  213.4630  153.5750 C   0  0  0  0  0  2  0  0  0  0  0  0
  156.9240  214.3320  153.5870 O   0  0  0  0  0  1  0  0  0  0  0  0
  158.1430  214.3800  152.9070 C   0  0  2  0  0  3  0  0  0  0  0  0
  157.9550  214.0230  151.4350 C   0  0  0  0  0  2  0  0  0  0  0  0
  156.6060  213.3750  151.1410 C   0  0  0  0  0  2  0  0  0  0  0  0
  155.9870  214.0090  150.0630 O   0  0  0  0  0  0  0  0  0  0  0  0
  156.5300  213.3950  148.9350 C   0  0  0  0  0  1  0  0  0  0  0  0
  162.9410  204.4100  147.6710 O   0  0  0  0  0  0  0  0  0  0  0  0
  161.7380  203.6850  147.5730 C   0  0  0  0  0  2  0  0  0  0  0  0
  162.2900  203.5690  144.9600 O   0  0  0  0  0  0  0  0  0  0  0  0
  161.1320  203.7370  145.9010 S   0  0  0  0  0  0  0  0  0  0  0  0
  160.4720  205.0630  145.6410 O   0  0  0  0  0  0  0  0  0  0  0  0
  159.9650  202.4180  145.6270 C   0  0  0  0  0  2  0  0  0  0  0  0
  159.5030  202.4110  144.1830 C   0  0  0  0  0  1  0  0  0  0  0  0
  164.2790  214.1050  147.2810 C   0  0  0  0  0  2  0  0  0  0  0  0
  163.9780  212.9920  146.2950 C   0  0  0  0  0  2  0  0  0  0  0  0
  163.5500  213.1570  143.8140 N   0  0  0  0  0  2  0  0  0  0  0  0
  163.1960  213.5280  145.1480 C   0  0  0  0  0  0  0  0  0  0  0  0
  162.8090  213.6390  142.6600 C   0  0  0  0  0  1  0  0  0  0  0  0
  162.2150  214.2890  145.3640 O   0  0  0  0  0  0  0  0  0  0  0  0
  1 11  1  0  0  0  0
  2 16  1  0  0  0  0
  2  4  1  0  0  0  0
  3 15  1  0  0  0  0
  4 28  1  0  0  0  0
  5 17  1  0  0  0  0
  6 23  1  0  0  0  0
  6 42  1  1  0  0  0
  9 20  1  6  0  0  0
  9 19  1  0  0  0  0
 11 44  1  6  0  0  0
 11  8  1  0  0  0  0
 12 24  1  6  0  0  0
 12 11  1  0  0  0  0
 12  8  1  0  0  0  0
 13 34  2  0  0  0  0
 13  5  1  0  0  0  0
 14 24  1  0  0  0  0
 14 31  1  0  0  0  0
 15 62  1  6  0  0  0
 15 22  1  0  0  0  0
 17 32  1  0  0  0  0
 17 48  1  1  0  0  0
 18 16  1  1  0  0  0
 18 21  1  0  0  0  0
 18 23  1  0  0  0  0
 19 21  1  0  0  0  0
 23 47  1  1  0  0  0
 25  3  1  0  0  0  0
 25 33  1  0  0  0  0
 25 29  1  1  0  0  0
 26 27  1  0  0  0  0
 26 20  1  1  0  0  0
 27 35  1  1  0  0  0
 27  9  1  0  0  0  0
 28  6  1  0  0  0  0
 28  7  1  1  0  0  0
 29 13  1  0  0  0  0
 30 32  1  0  0  0  0
 31 55  1  6  0  0  0
 31 26  1  0  0  0  0
 32 10  1  0  0  0  0
 32 28  1  0  0  0  0
 33  1  1  6  0  0  0
 33 22  1  0  0  0  0
 35 36  1  1  0  0  0
 38 37  1  1  0  0  0
 38 35  1  0  0  0  0
 39 38  1  0  0  0  0
 40 41  1  0  0  0  0
 41 39  1  0  0  0  0
 42 43  1  0  0  0  0
 45 44  1  0  0  0  0
 47 46  2  0  0  0  0
 50 48  1  0  0  0  0
 50 49  1  1  0  0  0
 51 50  1  0  0  0  0
 52 51  1  0  0  0  0
 53 52  1  0  0  0  0
 54 53  1  0  0  0  0
 56 55  1  0  0  0  0
 57 58  2  0  0  0  0
 58 56  1  0  0  0  0
 59 58  2  0  0  0  0
 60 58  1  0  0  0  0
 61 60  1  0  0  0  0
 63 62  1  0  0  0  0
 64 65  1  0  0  0  0
 65 67  2  0  0  0  0
 65 63  1  0  0  0  0
 66 64  1  0  0  0  0
M  END
>  <MODEL>
3

>  <REMARK>
 VINA RESULT:      13.0      1.171      1.781
  Name = 
  19 active torsions:
  status: ('A' for Active; 'I' for Inactive)
    1  A    between atoms: C_2  and  C_37
    2  A    between atoms: C_2  and  C_56
    3  A    between atoms: O_5  and  C_53
    4  A    between atoms: C_7  and  C_12
    5  A    between atoms: O_10  and  C_24
    6  A    between atoms: O_10  and  C_63
    7  A    between atoms: C_11  and  C_40
    8  A    between atoms: C_12  and  C_41
    9  A    between atoms: C_13  and  C_22
   10  A    between atoms: C_13  and  C_39
   11  A    between atoms: C_17  and  S_32
   12  A    between atoms: C_22  and  C_50
   13  A    between atoms: C_24  and  S_32
   14  A    between atoms: C_28  and  O_38
   15  A    between atoms: C_33  and  C_41
   16  A    between atoms: O_35  and  C_37
   17  A    between atoms: O_35  and  C_57
   18  A    between atoms: C_47  and  C_60
   19  A    between atoms: C_50  and  C_53
                            x       y       z     vdW  Elec       q    Type
                         _______ _______ _______ _____ _____    ______ ____

>  <TORSDO>
F 19

$$$$
