=
 OpenBabel11072409593D

 54 63  0  0  1  0  0  0  0  0999 V2000
  161.6870  204.4640  152.2440 C   0  0  2  0  0  0  0  0  0  0  0  0
  160.6280  205.9440  148.2900 C   0  0  0  0  0  2  0  0  0  0  0  0
  161.2600  204.1800  144.9520 C   0  0  1  0  0  3  0  0  0  0  0  0
  160.2650  202.6780  150.9120 C   0  0  2  0  0  3  0  0  0  0  0  0
  161.6060  203.0850  151.5830 C   0  0  1  0  0  0  0  0  0  0  0  0
  160.4940  201.8950  149.6080 C   0  0  2  0  0  3  0  0  0  0  0  0
  161.1750  200.5080  144.7070 C   0  0  1  0  0  3  0  0  0  0  0  0
  159.8550  200.0990  144.9850 O   0  0  0  0  0  0  0  0  0  0  0  0
  162.1910  204.1960  150.9580 O   0  0  0  0  0  0  0  0  0  0  0  0
  161.4480  207.2240  148.4060 C   0  0  0  0  0  2  0  0  0  0  0  0
  161.2230  202.3640  147.1610 C   0  0  2  0  0  3  0  0  0  0  0  0
  161.0640  200.6530  149.8950 O   0  0  0  0  0  1  0  0  0  0  0  0
  160.6100  205.1610  145.9180 C   0  0  1  0  0  3  0  0  0  0  0  0
  159.1070  204.6250  151.9270 C   0  0  0  0  0  2  0  0  0  0  0  0
  160.2060  201.3920  145.4140 C   0  0  2  0  0  0  0  0  0  0  0  0
  160.4950  206.9410  151.2780 S   0  0  0  0  0  0  0  0  0  0  0  0
  159.4110  202.4460  144.6070 C   0  0  2  0  0  3  0  0  0  0  0  0
  160.2260  201.4380  146.8280 O   0  0  0  0  0  0  0  0  0  0  0  0
  161.5070  203.2210  153.0840 C   0  0  0  0  0  2  0  0  0  0  0  0
  161.4000  202.6670  148.6500 C   0  0  1  0  0  3  0  0  0  0  0  0
  160.1750  203.6570  144.0230 C   0  0  0  0  0  2  0  0  0  0  0  0
  161.1680  204.8860  147.3290 C   0  0  1  0  0  0  0  0  0  0  0  0
  162.8540  208.2850  150.2930 C   0  0  1  0  0  3  0  0  0  0  0  0
  162.5720  204.8470  147.3600 O   0  0  0  0  0  1  0  0  0  0  0  0
  162.2970  206.9870  150.8920 C   0  0  2  0  0  3  0  0  0  0  0  0
  161.5640  205.6610  144.8440 C   0  0  0  0  0  2  0  0  0  0  0  0
  160.5370  203.5640  147.7870 C   0  0  1  0  0  3  0  0  0  0  0  0
  162.6200  207.0640  149.3900 C   0  0  1  0  0  3  0  0  0  0  0  0
  159.2640  203.8050  150.6710 C   0  0  0  0  0  2  0  0  0  0  0  0
  160.4150  205.3490  152.2100 C   0  0  2  0  0  3  0  0  0  0  0  0
  158.0800  202.7860  145.1960 C   0  0  0  0  0  0  0  0  0  0  0  0
  157.5960  202.1100  146.3080 O   0  0  0  0  0  1  0  0  0  0  0  0
  157.3770  203.6830  144.6620 O   0  0  0  0  0  0  0  0  0  0  0  0
  161.6870  198.5450  145.5780 C   0  0  0  0  0  1  0  0  0  0  0  0
  162.0480  199.8920  145.6050 O   0  0  0  0  0  0  0  0  0  0  0  0
  161.8350  209.4470  150.2200 C   0  0  2  0  0  3  0  0  0  0  0  0
  162.3490  210.5610  149.4120 N   0  0  0  0  0  2  0  0  0  0  0  0
  161.7040  210.5950  148.1040 C   0  0  0  0  0  2  0  0  0  0  0  0
  161.7010  212.0160  147.5760 C   0  0  0  0  0  2  0  0  0  0  0  0
  162.9950  212.7180  147.9440 C   0  0  0  0  0  2  0  0  0  0  0  0
  162.7930  214.2230  147.9590 C   0  0  0  0  0  1  0  0  0  0  0  0
  161.4100  209.9240  151.6270 C   0  0  2  0  0  3  0  0  0  0  0  0
  158.7420  213.3030  151.5670 C   0  0  0  0  0  3  0  0  0  0  0  0
  159.9360  213.3570  150.8420 C   0  0  0  0  0  3  0  0  0  0  0  0
  158.4280  212.1640  152.3120 C   0  0  0  0  0  3  0  0  0  0  0  0
  159.3060  211.0760  152.3320 C   0  0  0  0  0  3  0  0  0  0  0  0
  160.8150  212.2690  150.8610 C   0  0  0  0  0  3  0  0  0  0  0  0
  160.5030  211.1230  151.6100 C   0  0  0  0  0  0  0  0  0  0  0  0
  162.5820  210.1210  152.5540 C   0  0  0  0  0  0  0  0  0  0  0  0
  161.4190  209.1020  154.5920 C   0  0  0  0  0  0  0  0  0  0  0  0
  161.5170  208.8070  155.8110 O   0  0  0  0  0  1  0  0  0  0  0  0
  162.5260  209.7260  153.9300 N   0  0  0  0  0  2  0  0  0  0  0  0
  160.2400  208.8140  153.9150 O   0  0  0  0  0  0  0  0  0  0  0  0
  163.6350  210.6560  152.1170 O   0  0  0  0  0  0  0  0  0  0  0  0
  1 19  1  1  0  0  0
  2 10  1  0  0  0  0
  3 21  1  6  0  0  0
  3 13  1  0  0  0  0
  4 29  1  6  0  0  0
  4  5  1  0  0  0  0
  5  1  1  0  0  0  0
  5 19  1  1  0  0  0
  6 12  1  1  0  0  0
  6  4  1  0  0  0  0
  7  8  1  0  0  0  0
  7 15  1  0  0  0  0
  7 35  1  1  0  0  0
  9  5  1  0  0  0  0
  9  1  1  0  0  0  0
 10 28  1  0  0  0  0
 11 18  1  1  0  0  0
 11 27  1  0  0  0  0
 11 20  1  0  0  0  0
 13 26  1  6  0  0  0
 13 22  1  0  0  0  0
 14 30  1  0  0  0  0
 15  8  1  6  0  0  0
 15 18  1  0  0  0  0
 16 30  1  0  0  0  0
 17 31  1  1  0  0  0
 17 15  1  0  0  0  0
 20  6  1  0  0  0  0
 21 17  1  0  0  0  0
 22 24  1  0  0  0  0
 22 27  1  0  0  0  0
 22  2  1  0  0  0  0
 23 25  1  0  0  0  0
 25 16  1  0  0  0  0
 26  3  1  0  0  0  0
 27 20  1  0  0  0  0
 28 23  1  0  0  0  0
 28 25  1  0  0  0  0
 29 14  1  0  0  0  0
 30  1  1  0  0  0  0
 31 32  1  0  0  0  0
 33 31  2  0  0  0  0
 34 35  1  0  0  0  0
 36 23  1  0  0  0  0
 36 42  1  0  0  0  0
 37 36  1  0  0  0  0
 38 37  1  0  0  0  0
 39 40  1  0  0  0  0
 39 38  1  0  0  0  0
 40 41  1  0  0  0  0
 42 49  1  0  0  0  0
 43 45  1  0  0  0  0
 44 47  1  0  0  0  0
 44 43  2  0  0  0  0
 45 46  2  0  0  0  0
 47 48  2  0  0  0  0
 48 42  1  0  0  0  0
 48 46  1  0  0  0  0
 49 52  1  0  0  0  0
 50 51  1  0  0  0  0
 52 50  1  0  0  0  0
 53 50  2  0  0  0  0
 54 49  2  0  0  0  0
M  END
>  <MODEL>
1

>  <REMARK>
 VINA RESULT:       8.2      0.000      0.000
  Name = 
  10 active torsions:
  status: ('A' for Active; 'I' for Inactive)
    1  A    between atoms: N_1  and  C_13
    2  A    between atoms: N_1  and  C_23
    3  A    between atoms: C_9  and  C_26
    4  A    between atoms: C_10  and  O_42
    5  A    between atoms: C_11  and  C_23
    6  A    between atoms: C_11  and  C_44
    7  A    between atoms: C_13  and  C_26
    8  A    between atoms: C_13  and  C_40
    9  A    between atoms: C_22  and  C_32
   10  A    between atoms: C_26  and  C_53
                            x       y       z     vdW  Elec       q    Type
                         _______ _______ _______ _____ _____    ______ ____

>  <TORSDO>
F 10

$$$$
=
 OpenBabel11072409593D

 54 64  0  0  1  0  0  0  0  0999 V2000
  162.2860  211.7530  148.4250 C   0  0  2  0  0  0  0  0  0  0  0  0
  160.2380  209.0010  151.1040 C   0  0  0  0  0  2  0  0  0  0  0  0
  159.9190  209.3340  154.9050 C   0  0  1  0  0  3  0  0  0  0  0  0
  160.5240  213.0260  149.9270 C   0  0  2  0  0  3  0  0  0  0  0  0
  162.0030  212.7870  149.5180 C   0  0  1  0  0  0  0  0  0  0  0  0
  160.3790  213.2450  151.4440 C   0  0  2  0  0  3  0  0  0  0  0  0
  159.6970  212.6430  156.5010 C   0  0  1  0  0  3  0  0  0  0  0  0
  158.4920  213.2350  156.0740 O   0  0  0  0  0  0  0  0  0  0  0  0
  162.4220  211.4790  149.7980 O   0  0  0  0  0  0  0  0  0  0  0  0
  161.0850  207.7920  150.7220 C   0  0  0  0  0  2  0  0  0  0  0  0
  160.4370  211.8390  153.6250 C   0  0  2  0  0  3  0  0  0  0  0  0
  160.9800  214.4520  151.8070 O   0  0  0  0  0  1  0  0  0  0  0  0
  159.5710  208.8420  153.5070 C   0  0  1  0  0  3  0  0  0  0  0  0
  159.7190  211.7020  147.9880 C   0  0  0  0  0  2  0  0  0  0  0  0
  158.9710  212.1710  155.2890 C   0  0  2  0  0  0  0  0  0  0  0  0
  160.9290  209.2040  148.0350 S   0  0  1  0  0  3  0  0  0  0  0  0
  158.0110  210.9640  155.4010 C   0  0  2  0  0  3  0  0  0  0  0  0
  159.3700  212.6540  154.0200 O   0  0  0  0  0  0  0  0  0  0  0  0
  162.3110  213.2290  148.1070 C   0  0  0  0  0  2  0  0  0  0  0  0
  161.0120  212.0990  152.2310 C   0  0  1  0  0  3  0  0  0  0  0  0
  158.6150  209.5620  155.6530 C   0  0  0  0  0  2  0  0  0  0  0  0
  160.4800  209.5740  152.4990 C   0  0  1  0  0  0  0  0  0  0  0  0
  162.9650  207.3960  148.9980 C   0  0  1  0  0  3  0  0  0  0  0  0
  161.8410  209.5040  152.8440 O   0  0  0  0  0  1  0  0  0  0  0  0
  162.5630  208.8660  148.8190 C   0  0  2  0  0  3  0  0  0  0  0  0
  160.2130  207.8990  154.5120 C   0  0  0  0  0  2  0  0  0  0  0  0
  159.9680  211.0200  152.4360 C   0  0  1  0  0  3  0  0  0  0  0  0
  162.4730  208.2080  150.2070 C   0  0  1  0  0  3  0  0  0  0  0  0
  159.5180  211.9790  149.4570 C   0  0  0  0  0  2  0  0  0  0  0  0
  161.0690  211.0280  147.7940 C   0  0  2  0  0  3  0  0  0  0  0  0
  156.8920  210.9800  154.4090 C   0  0  0  0  0  0  0  0  0  0  0  0
  157.0130  211.6650  153.2070 O   0  0  0  0  0  0  0  0  0  0  0  0
  155.8170  210.3840  154.6780 O   0  0  0  0  0  1  0  0  0  0  0  0
  161.6550  213.3590  157.2280 C   0  0  0  0  0  1  0  0  0  0  0  0
  160.7660  213.4740  156.1600 O   0  0  0  0  0  0  0  0  0  0  0  0
  161.9870  206.3810  148.3600 C   0  0  2  0  0  3  0  0  0  0  0  0
  160.8050  207.0550  147.8040 N   0  0  0  0  0  0  0  0  0  0  0  0
  160.5200  206.5740  146.4560 C   0  0  0  0  0  2  0  0  0  0  0  0
  161.8010  206.0860  145.8110 C   0  0  0  0  0  2  0  0  0  0  0  0
  161.5310  205.6050  144.3960 C   0  0  0  0  0  2  0  0  0  0  0  0
  160.4990  204.4920  144.4050 C   0  0  0  0  0  1  0  0  0  0  0  0
  161.5830  205.2720  149.3560 C   0  0  2  0  0  3  0  0  0  0  0  0
  161.1640  201.3540  147.6180 C   0  0  0  0  0  3  0  0  0  0  0  0
  161.8790  202.3390  146.9300 C   0  0  0  0  0  3  0  0  0  0  0  0
  160.5830  201.6480  148.8550 C   0  0  0  0  0  3  0  0  0  0  0  0
  160.7180  202.9260  149.4050 C   0  0  0  0  0  3  0  0  0  0  0  0
  162.0140  203.6170  147.4800 C   0  0  0  0  0  3  0  0  0  0  0  0
  161.4310  203.9170  148.7210 C   0  0  0  0  0  0  0  0  0  0  0  0
  160.3800  205.6410  150.1840 C   0  0  0  0  0  0  0  0  0  0  0  0
  161.4480  204.9970  152.4170 C   0  0  0  0  0  0  0  0  0  0  0  0
  161.2950  204.9170  153.6630 O   0  0  0  0  0  1  0  0  0  0  0  0
  160.3710  205.4830  151.6080 N   0  0  0  0  0  2  0  0  0  0  0  0
  162.6590  204.6140  151.8540 O   0  0  0  0  0  0  0  0  0  0  0  0
  159.3500  206.0900  149.6150 O   0  0  0  0  0  0  0  0  0  0  0  0
  1 19  1  6  0  0  0
  1  5  1  0  0  0  0
  1  9  1  0  0  0  0
  2 22  1  0  0  0  0
  3 26  1  1  0  0  0
  3 21  1  0  0  0  0
  4 29  1  1  0  0  0
  4  6  1  0  0  0  0
  5 19  1  1  0  0  0
  5  9  1  0  0  0  0
  5  4  1  0  0  0  0
  6 12  1  1  0  0  0
  6 20  1  0  0  0  0
  7 35  1  6  0  0  0
  8  7  1  0  0  0  0
 10  2  1  0  0  0  0
 11 18  1  6  0  0  0
 13 26  1  1  0  0  0
 13  3  1  0  0  0  0
 14 29  1  0  0  0  0
 15 18  1  6  0  0  0
 15 17  1  0  0  0  0
 15  8  1  0  0  0  0
 15  7  1  0  0  0  0
 16 37  1  6  0  0  0
 16 25  1  0  0  0  0
 17 31  1  6  0  0  0
 17 21  1  0  0  0  0
 20 27  1  0  0  0  0
 20 11  1  0  0  0  0
 22 24  1  0  0  0  0
 22 13  1  0  0  0  0
 23 28  1  0  0  0  0
 25 23  1  0  0  0  0
 25 28  1  0  0  0  0
 27 22  1  0  0  0  0
 27 11  1  0  0  0  0
 28 10  1  0  0  0  0
 30 14  1  0  0  0  0
 30 16  1  0  0  0  0
 30  1  1  0  0  0  0
 31 33  1  0  0  0  0
 32 31  2  0  0  0  0
 35 34  1  0  0  0  0
 36 23  1  0  0  0  0
 36 42  1  0  0  0  0
 37 36  1  0  0  0  0
 38 37  1  0  0  0  0
 39 38  1  0  0  0  0
 40 41  1  0  0  0  0
 40 39  1  0  0  0  0
 42 49  1  0  0  0  0
 43 45  1  0  0  0  0
 44 47  1  0  0  0  0
 44 43  2  0  0  0  0
 45 46  2  0  0  0  0
 47 48  2  0  0  0  0
 48 42  1  0  0  0  0
 48 46  1  0  0  0  0
 49 52  1  0  0  0  0
 50 51  1  0  0  0  0
 52 50  1  0  0  0  0
 53 50  2  0  0  0  0
 54 49  2  0  0  0  0
M  END
>  <MODEL>
2

>  <REMARK>
 VINA RESULT:       9.0      2.850      9.900
  Name = 
  10 active torsions:
  status: ('A' for Active; 'I' for Inactive)
    1  A    between atoms: N_1  and  C_13
    2  A    between atoms: N_1  and  C_23
    3  A    between atoms: C_9  and  C_26
    4  A    between atoms: C_10  and  O_42
    5  A    between atoms: C_11  and  C_23
    6  A    between atoms: C_11  and  C_44
    7  A    between atoms: C_13  and  C_26
    8  A    between atoms: C_13  and  C_40
    9  A    between atoms: C_22  and  C_32
   10  A    between atoms: C_26  and  C_53
                            x       y       z     vdW  Elec       q    Type
                         _______ _______ _______ _____ _____    ______ ____

>  <TORSDO>
F 10

$$$$
=
 OpenBabel11072409593D

 54 63  0  0  1  0  0  0  0  0999 V2000
  162.0790  205.5310  151.7810 C   0  0  2  0  0  0  0  0  0  0  0  0
  160.6200  206.2320  147.7410 C   0  0  0  0  0  2  0  0  0  0  0  0
  161.0820  203.9280  144.7190 C   0  0  1  0  0  3  0  0  0  0  0  0
  160.6610  203.4760  150.9150 C   0  0  2  0  0  3  0  0  0  0  0  0
  162.0260  204.0540  151.3810 C   0  0  1  0  0  0  0  0  0  0  0  0
  160.8290  202.4820  149.7520 C   0  0  2  0  0  3  0  0  0  0  0  0
  161.1920  200.2720  145.1270 C   0  0  1  0  0  3  0  0  0  0  0  0
  159.9250  199.8630  145.5900 O   0  0  0  0  0  0  0  0  0  0  0  0
  162.4920  205.0590  150.5220 O   0  0  0  0  0  0  0  0  0  0  0  0
  161.3700  207.5470  147.5570 C   0  0  0  0  0  2  0  0  0  0  0  0
  161.3300  202.5370  147.2050 C   0  0  2  0  0  3  0  0  0  0  0  0
  161.4920  201.3380  150.1990 O   0  0  0  0  0  1  0  0  0  0  0  0
  160.4570  205.0370  145.5530 C   0  0  1  0  0  3  0  0  0  0  0  0
  159.4770  205.5210  151.6740 C   0  0  0  0  0  2  0  0  0  0  0  0
  160.2340  201.2260  145.7540 C   0  0  2  0  0  0  0  0  0  0  0  0
  160.6700  207.7410  150.5090 S   0  0  0  0  0  0  0  0  0  0  0  0
  159.3160  202.0820  144.8500 C   0  0  2  0  0  3  0  0  0  0  0  0
  160.3650  201.5250  147.1300 O   0  0  0  0  0  0  0  0  0  0  0  0
  162.0400  204.4520  152.8380 C   0  0  0  0  0  2  0  0  0  0  0  0
  161.6090  203.1090  148.5970 C   0  0  1  0  0  3  0  0  0  0  0  0
  159.9580  203.2010  143.9970 C   0  0  0  0  0  2  0  0  0  0  0  0
  161.1410  205.0440  146.9340 C   0  0  1  0  0  0  0  0  0  0  0  0
  162.8600  208.9880  149.0960 C   0  0  1  0  0  3  0  0  0  0  0  0
  162.5440  205.0720  146.8460 O   0  0  0  0  0  1  0  0  0  0  0  0
  162.4300  207.7960  149.9600 C   0  0  2  0  0  3  0  0  0  0  0  0
  161.2900  205.3780  144.3280 C   0  0  0  0  0  2  0  0  0  0  0  0
  160.6280  203.7990  147.6720 C   0  0  1  0  0  3  0  0  0  0  0  0
  162.6250  207.6160  148.4450 C   0  0  1  0  0  3  0  0  0  0  0  0
  159.5800  204.4970  150.5720 C   0  0  0  0  0  2  0  0  0  0  0  0
  160.7590  206.3400  151.7070 C   0  0  2  0  0  3  0  0  0  0  0  0
  158.0190  202.4650  145.4870 C   0  0  0  0  0  0  0  0  0  0  0  0
  157.5720  201.8270  146.6370 O   0  0  0  0  0  1  0  0  0  0  0  0
  157.3110  203.3620  144.9610 O   0  0  0  0  0  0  0  0  0  0  0  0
  162.0930  198.4720  146.0350 C   0  0  0  0  0  1  0  0  0  0  0  0
  162.1690  199.8640  146.0370 O   0  0  0  0  0  0  0  0  0  0  0  0
  161.7720  210.0730  148.9140 C   0  0  2  0  0  3  0  0  0  0  0  0
  161.7190  210.5500  147.5250 N   0  0  0  0  0  2  0  0  0  0  0  0
  160.4140  211.1300  147.2250 C   0  0  0  0  0  2  0  0  0  0  0  0
  160.5000  211.9390  145.9470 C   0  0  0  0  0  2  0  0  0  0  0  0
  159.1970  212.6770  145.6990 C   0  0  0  0  0  2  0  0  0  0  0  0
  158.3080  212.6050  146.9270 C   0  0  0  0  0  1  0  0  0  0  0  0
  161.9610  211.2450  149.9020 C   0  0  2  0  0  3  0  0  0  0  0  0
  161.2430  210.1120  153.9940 C   0  0  0  0  0  3  0  0  0  0  0  0
  160.2030  210.6620  153.2400 C   0  0  0  0  0  3  0  0  0  0  0  0
  162.5070  209.9440  153.4220 C   0  0  0  0  0  3  0  0  0  0  0  0
  162.7310  210.3240  152.0950 C   0  0  0  0  0  3  0  0  0  0  0  0
  160.4260  211.0420  151.9130 C   0  0  0  0  0  3  0  0  0  0  0  0
  161.6950  210.8760  151.3350 C   0  0  0  0  0  0  0  0  0  0  0  0
  161.2040  212.4820  149.4920 C   0  0  0  0  0  0  0  0  0  0  0  0
  163.1380  213.4860  148.1540 C   0  0  0  0  0  0  0  0  0  0  0  0
  163.5310  214.4530  147.4510 O   0  0  0  0  0  0  0  0  0  0  0  0
  161.8070  213.4980  148.6820 N   0  0  0  0  0  2  0  0  0  0  0  0
  164.0040  212.4270  148.3990 O   0  0  0  0  0  1  0  0  0  0  0  0
  160.0150  212.6360  149.8770 O   0  0  0  0  0  0  0  0  0  0  0  0
  1 19  1  1  0  0  0
  3 21  1  6  0  0  0
  3 13  1  0  0  0  0
  4 29  1  6  0  0  0
  4  5  1  0  0  0  0
  5  1  1  0  0  0  0
  5 19  1  1  0  0  0
  6 12  1  1  0  0  0
  6  4  1  0  0  0  0
  7  8  1  0  0  0  0
  7 15  1  0  0  0  0
  7 35  1  1  0  0  0
  9  5  1  0  0  0  0
  9  1  1  0  0  0  0
 10  2  1  0  0  0  0
 10 28  1  0  0  0  0
 11 18  1  1  0  0  0
 11 27  1  0  0  0  0
 11 20  1  0  0  0  0
 13 26  1  6  0  0  0
 13 22  1  0  0  0  0
 14 30  1  0  0  0  0
 15  8  1  1  0  0  0
 15 18  1  0  0  0  0
 16 30  1  0  0  0  0
 17 31  1  1  0  0  0
 17 15  1  0  0  0  0
 20  6  1  0  0  0  0
 21 17  1  0  0  0  0
 22 27  1  0  0  0  0
 22  2  1  0  0  0  0
 23 25  1  0  0  0  0
 24 22  1  0  0  0  0
 25 16  1  0  0  0  0
 26  3  1  0  0  0  0
 27 20  1  0  0  0  0
 28 23  1  0  0  0  0
 28 25  1  0  0  0  0
 29 14  1  0  0  0  0
 30  1  1  0  0  0  0
 31 32  1  0  0  0  0
 33 31  2  0  0  0  0
 34 35  1  0  0  0  0
 36 23  1  0  0  0  0
 36 42  1  0  0  0  0
 37 36  1  0  0  0  0
 38 37  1  0  0  0  0
 39 38  1  0  0  0  0
 40 39  1  0  0  0  0
 40 41  1  0  0  0  0
 42 48  1  0  0  0  0
 44 43  2  0  0  0  0
 45 43  1  0  0  0  0
 46 45  2  0  0  0  0
 47 44  1  0  0  0  0
 48 47  2  0  0  0  0
 48 46  1  0  0  0  0
 49 54  2  0  0  0  0
 49 42  1  0  0  0  0
 50 53  1  0  0  0  0
 50 52  1  0  0  0  0
 51 50  2  0  0  0  0
 52 49  1  0  0  0  0
M  END
>  <MODEL>
3

>  <REMARK>
 VINA RESULT:       9.7      1.860      2.938
  Name = 
  10 active torsions:
  status: ('A' for Active; 'I' for Inactive)
    1  A    between atoms: N_1  and  C_13
    2  A    between atoms: N_1  and  C_23
    3  A    between atoms: C_9  and  C_26
    4  A    between atoms: C_10  and  O_42
    5  A    between atoms: C_11  and  C_23
    6  A    between atoms: C_11  and  C_44
    7  A    between atoms: C_13  and  C_26
    8  A    between atoms: C_13  and  C_40
    9  A    between atoms: C_22  and  C_32
   10  A    between atoms: C_26  and  C_53
                            x       y       z     vdW  Elec       q    Type
                         _______ _______ _______ _____ _____    ______ ____

>  <TORSDO>
F 10

$$$$
