=
 OpenBabel11072415233D

 25 29  0  0  1  0  0  0  0  0999 V2000
  159.0920  210.5610  138.6620 C   0  0  0  0  0  0  0  0  0  0  0  0
  161.4200  209.9120  138.9500 N   0  0  0  0  0  0  0  0  0  0  0  0
  162.3110  212.4740  142.8660 C   0  0  0  0  0  1  0  0  0  0  0  0
  158.8460  211.8210  138.2110 C   0  0  0  0  0  0  0  0  0  0  0  0
  158.8950  213.8470  138.8890 C   0  0  0  0  0  3  0  0  0  0  0  0
  159.6390  212.7290  138.7150 N   0  0  0  0  0  0  0  0  0  0  0  0
  161.0760  212.8310  140.7560 C   0  0  1  0  0  3  0  0  0  0  0  0
  162.3290  210.7200  138.1120 C   0  0  0  0  0  2  0  0  0  0  0  0
  157.5920  212.2830  138.0070 C   0  0  0  0  0  0  0  0  0  0  0  0
  160.3040  210.6600  139.5560 C   0  0  1  0  0  3  0  0  0  0  0  0
  163.1880  212.9110  139.1900 C   0  0  2  0  0  3  0  0  0  0  0  0
  157.5900  213.6140  138.4080 C   0  0  0  0  0  3  0  0  0  0  0  0
  163.4550  211.4250  138.8870 C   0  0  0  0  0  2  0  0  0  0  0  0
  156.5320  211.4290  138.0350 N   0  0  0  0  0  0  0  0  0  0  0  0
  156.7430  210.1040  138.3360 C   0  0  0  0  0  3  0  0  0  0  0  0
  160.5470  212.1240  139.5920 N   0  0  1  0  0  0  0  0  0  0  0  0
  158.0290  209.6490  138.7290 C   0  0  0  0  0  3  0  0  0  0  0  0
  162.2210  212.0760  141.4090 C   0  0  1  0  0  3  0  0  0  0  0  0
  162.5240  213.2840  140.5400 C   0  0  2  0  0  3  0  0  0  0  0  0
  162.6710  213.7100  137.9980 C   0  0  0  0  0  2  0  0  0  0  0  0
  163.7270  214.0420  137.1500 O   0  0  0  0  0  1  0  0  0  0  0  0
  162.1310  209.1590  139.9790 C   0  0  0  0  0  2  0  0  0  0  0  0
  161.5120  207.7780  140.1500 C   0  0  0  0  0  2  0  0  0  0  0  0
  162.4190  206.7000  139.5810 C   0  0  0  0  0  2  0  0  0  0  0  0
  162.2830  206.6440  138.1940 O   0  0  0  0  0  1  0  0  0  0  0  0
  1 17  1  0  0  0  0
  1 10  1  0  0  0  0
  2 10  1  0  0  0  0
  2 22  1  0  0  0  0
  4  1  2  0  0  0  0
  4  6  1  0  0  0  0
  6  5  1  0  0  0  0
  6 16  1  0  0  0  0
  7 18  1  0  0  0  0
  8 13  1  0  0  0  0
  8  2  1  0  0  0  0
  9 14  2  0  0  0  0
  9  4  1  0  0  0  0
  9 12  1  0  0  0  0
 10 16  1  0  0  0  0
 11 19  1  0  0  0  0
 12  5  2  0  0  0  0
 13 11  1  0  0  0  0
 14 15  1  0  0  0  0
 15 17  2  0  0  0  0
 16  7  1  0  0  0  0
 18  3  1  0  0  0  0
 19  7  1  0  0  0  0
 19 18  1  0  0  0  0
 20 11  1  0  0  0  0
 21 20  1  0  0  0  0
 22 23  1  0  0  0  0
 24 23  1  0  0  0  0
 25 24  1  0  0  0  0
M  END
>  <MODEL>
1

>  <REMARK>
 VINA RESULT:      -4.4      0.000      0.000
  Name = 
  4 active torsions:
  status: ('A' for Active; 'I' for Inactive)
    1  A    between atoms: N_2  and  C_9
    2  A    between atoms: C_3  and  C_14
    3  A    between atoms: C_5  and  C_9
    4  A    between atoms: C_5  and  C_17
                            x       y       z     vdW  Elec       q    Type
                         _______ _______ _______ _____ _____    ______ ____

>  <TORSDO>
F 4

$$$$
=
 OpenBabel11072415233D

 25 29  0  0  1  0  0  0  0  0999 V2000
  161.0610  209.1130  151.7920 C   0  0  0  0  0  0  0  0  0  0  0  0
  159.9570  210.7710  153.1890 N   0  0  0  0  0  0  0  0  0  0  0  0
  163.1300  210.8180  156.7420 C   0  0  0  0  0  1  0  0  0  0  0  0
  161.0110  207.8170  152.2030 C   0  0  0  0  0  0  0  0  0  0  0  0
  161.8610  206.5290  153.6830 C   0  0  0  0  0  3  0  0  0  0  0  0
  161.1470  207.6630  153.4940 N   0  0  0  0  0  0  0  0  0  0  0  0
  162.0910  209.0900  155.3150 C   0  0  1  0  0  3  0  0  0  0  0  0
  158.8990  210.1740  154.0290 C   0  0  0  0  0  2  0  0  0  0  0  0
  161.5830  206.8140  151.4990 C   0  0  0  0  0  0  0  0  0  0  0  0
  161.1720  209.9500  153.0430 C   0  0  1  0  0  3  0  0  0  0  0  0
  159.6740  209.2830  156.3330 C   0  0  2  0  0  3  0  0  0  0  0  0
  162.1230  205.9340  152.4310 C   0  0  0  0  0  3  0  0  0  0  0  0
  159.0500  210.4440  155.5360 C   0  0  0  0  0  2  0  0  0  0  0  0
  162.0410  207.0340  150.2370 N   0  0  0  0  0  0  0  0  0  0  0  0
  161.9750  208.3020  149.7090 C   0  0  0  0  0  3  0  0  0  0  0  0
  161.2970  208.9170  154.1010 N   0  0  1  0  0  0  0  0  0  0  0  0
  161.5440  209.3940  150.5060 C   0  0  0  0  0  3  0  0  0  0  0  0
  161.9060  210.4690  155.9250 C   0  0  1  0  0  3  0  0  0  0  0  0
  161.2080  209.2750  156.5540 C   0  0  2  0  0  3  0  0  0  0  0  0
  159.0820  207.9150  156.0120 C   0  0  0  0  0  2  0  0  0  0  0  0
  159.7520  206.9240  156.7290 O   0  0  0  0  0  1  0  0  0  0  0  0
  160.3160  212.1200  153.6200 C   0  0  0  0  0  2  0  0  0  0  0  0
  159.3750  213.1430  153.0000 C   0  0  0  0  0  2  0  0  0  0  0  0
  159.3940  213.0530  151.4840 C   0  0  0  0  0  2  0  0  0  0  0  0
  158.0900  213.0410  150.9900 O   0  0  0  0  0  1  0  0  0  0  0  0
  1  4  1  0  0  0  0
  1 10  1  0  0  0  0
  2 22  1  0  0  0  0
  2  8  1  0  0  0  0
  4  6  1  0  0  0  0
  6  5  1  0  0  0  0
  6 16  1  0  0  0  0
  7 18  1  0  0  0  0
  7 19  1  0  0  0  0
  8 13  1  0  0  0  0
  9  4  2  0  0  0  0
  9 12  1  0  0  0  0
 10  2  1  0  0  0  0
 10 16  1  0  0  0  0
 11 19  1  0  0  0  0
 12  5  2  0  0  0  0
 13 11  1  0  0  0  0
 14  9  1  0  0  0  0
 15 14  2  0  0  0  0
 15 17  1  0  0  0  0
 16  7  1  0  0  0  0
 17  1  2  0  0  0  0
 18 19  1  0  0  0  0
 18  3  1  0  0  0  0
 20 11  1  0  0  0  0
 20 21  1  0  0  0  0
 23 22  1  0  0  0  0
 24 23  1  0  0  0  0
 25 24  1  0  0  0  0
M  END
>  <MODEL>
2

>  <REMARK>
 VINA RESULT:      -4.4     12.556     15.453
  Name = 
  4 active torsions:
  status: ('A' for Active; 'I' for Inactive)
    1  A    between atoms: N_2  and  C_9
    2  A    between atoms: C_3  and  C_14
    3  A    between atoms: C_5  and  C_9
    4  A    between atoms: C_5  and  C_17
                            x       y       z     vdW  Elec       q    Type
                         _______ _______ _______ _____ _____    ______ ____

>  <TORSDO>
F 4

$$$$
=
 OpenBabel11072415233D

 25 29  0  0  1  0  0  0  0  0999 V2000
  159.0630  211.9540  153.4920 C   0  0  0  0  0  0  0  0  0  0  0  0
  160.9070  210.3940  153.1980 N   0  0  0  0  0  0  0  0  0  0  0  0
  159.3500  207.0080  156.1640 C   0  0  0  0  0  1  0  0  0  0  0  0
  159.0070  212.6410  154.6650 C   0  0  0  0  0  0  0  0  0  0  0  0
  158.5320  212.3350  156.7270 C   0  0  0  0  0  3  0  0  0  0  0  0
  159.3320  211.9310  155.7130 N   0  0  0  0  0  0  0  0  0  0  0  0
  159.4270  209.4770  156.1760 C   0  0  1  0  0  3  0  0  0  0  0  0
  162.0620  210.7320  154.0540 C   0  0  0  0  0  2  0  0  0  0  0  0
  158.0320  213.5390  154.9300 C   0  0  0  0  0  0  0  0  0  0  0  0
  159.5890  210.5800  153.8300 C   0  0  1  0  0  3  0  0  0  0  0  0
  162.0370  209.6870  156.4220 C   0  0  2  0  0  3  0  0  0  0  0  0
  157.7140  213.3930  156.2760 C   0  0  0  0  0  3  0  0  0  0  0  0
  162.5350  209.5890  154.9690 C   0  0  0  0  0  2  0  0  0  0  0  0
  157.1910  213.9520  153.9430 N   0  0  0  0  0  0  0  0  0  0  0  0
  157.3030  213.4000  152.6880 C   0  0  0  0  0  3  0  0  0  0  0  0
  159.6650  210.6300  155.3110 N   0  0  1  0  0  0  0  0  0  0  0  0
  158.2030  212.3290  152.4500 C   0  0  0  0  0  3  0  0  0  0  0  0
  160.0910  208.2190  155.6420 C   0  0  1  0  0  3  0  0  0  0  0  0
  160.7240  208.9600  156.8070 C   0  0  2  0  0  3  0  0  0  0  0  0
  162.1890  211.0720  157.0440 C   0  0  0  0  0  2  0  0  0  0  0  0
  163.5370  211.3550  157.2610 O   0  0  0  0  0  1  0  0  0  0  0  0
  161.0040  209.0500  152.6360 C   0  0  0  0  0  2  0  0  0  0  0  0
  161.7060  209.0890  151.2850 C   0  0  0  0  0  2  0  0  0  0  0  0
  162.3550  207.7520  150.9690 C   0  0  0  0  0  2  0  0  0  0  0  0
  162.2750  207.4940  149.6010 O   0  0  0  0  0  1  0  0  0  0  0  0
  1 10  1  0  0  0  0
  1  4  1  0  0  0  0
  2 10  1  0  0  0  0
  2  8  1  0  0  0  0
  4  9  2  0  0  0  0
  4  6  1  0  0  0  0
  6  5  1  0  0  0  0
  7 19  1  0  0  0  0
  8 13  1  0  0  0  0
  9 12  1  0  0  0  0
 10 16  1  0  0  0  0
 11 19  1  0  0  0  0
 11 20  1  0  0  0  0
 12  5  2  0  0  0  0
 13 11  1  0  0  0  0
 14  9  1  0  0  0  0
 15 14  2  0  0  0  0
 16  6  1  0  0  0  0
 16  7  1  0  0  0  0
 17 15  1  0  0  0  0
 17  1  2  0  0  0  0
 18  3  1  0  0  0  0
 18  7  1  0  0  0  0
 18 19  1  0  0  0  0
 20 21  1  0  0  0  0
 22  2  1  0  0  0  0
 23 22  1  0  0  0  0
 24 23  1  0  0  0  0
 25 24  1  0  0  0  0
M  END
>  <MODEL>
3

>  <REMARK>
 VINA RESULT:      -3.7     13.283     15.714
  Name = 
  4 active torsions:
  status: ('A' for Active; 'I' for Inactive)
    1  A    between atoms: N_2  and  C_9
    2  A    between atoms: C_3  and  C_14
    3  A    between atoms: C_5  and  C_9
    4  A    between atoms: C_5  and  C_17
                            x       y       z     vdW  Elec       q    Type
                         _______ _______ _______ _____ _____    ______ ____

>  <TORSDO>
F 4

$$$$
=
 OpenBabel11072415233D

 25 29  0  0  1  0  0  0  0  0999 V2000
  160.8750  210.2390  153.0120 C   0  0  0  0  0  0  0  0  0  0  0  0
  160.4300  209.8940  155.3780 N   0  0  0  0  0  0  0  0  0  0  0  0
  155.7000  210.4400  155.2190 C   0  0  0  0  0  1  0  0  0  0  0  0
  160.7750  211.5100  152.5370 C   0  0  0  0  0  0  0  0  0  0  0  0
  159.2920  212.9690  152.0460 C   0  0  0  0  0  3  0  0  0  0  0  0
  159.7780  212.1890  153.0390 N   0  0  0  0  0  0  0  0  0  0  0  0
  157.6490  211.5450  154.1780 C   0  0  1  0  0  3  0  0  0  0  0  0
  160.6300  211.1260  156.1670 C   0  0  0  0  0  2  0  0  0  0  0  0
  161.0100  211.8180  151.2410 C   0  0  0  0  0  0  0  0  0  0  0  0
  159.8000  210.0940  154.0610 C   0  0  1  0  0  3  0  0  0  0  0  0
  158.5600  212.6650  156.3770 C   0  0  2  0  0  3  0  0  0  0  0  0
  160.0810  212.7910  150.8900 C   0  0  0  0  0  3  0  0  0  0  0  0
  159.4150  211.5520  157.0090 C   0  0  0  0  0  2  0  0  0  0  0  0
  161.5710  210.8990  150.4070 N   0  0  0  0  0  0  0  0  0  0  0  0
  161.8370  209.6360  150.8800 C   0  0  0  0  0  3  0  0  0  0  0  0
  159.0850  211.3910  153.9580 N   0  0  1  0  0  0  0  0  0  0  0  0
  161.4280  209.2520  152.1840 C   0  0  0  0  0  3  0  0  0  0  0  0
  157.1700  210.7570  155.3860 C   0  0  1  0  0  3  0  0  0  0  0  0
  157.3480  212.2620  155.4990 C   0  0  2  0  0  3  0  0  0  0  0  0
  159.3650  213.8380  155.8280 C   0  0  0  0  0  2  0  0  0  0  0  0
  160.0780  214.4520  156.8570 O   0  0  0  0  0  1  0  0  0  0  0  0
  159.7080  208.8660  156.1240 C   0  0  0  0  0  2  0  0  0  0  0  0
  159.7560  207.5390  155.3810 C   0  0  0  0  0  2  0  0  0  0  0  0
  161.1880  207.1320  155.0820 C   0  0  0  0  0  2  0  0  0  0  0  0
  161.2230  206.2770  153.9800 O   0  0  0  0  0  1  0  0  0  0  0  0
  1 10  1  0  0  0  0
  2 22  1  0  0  0  0
  2  8  1  0  0  0  0
  3 18  1  0  0  0  0
  4  1  1  0  0  0  0
  4  6  1  0  0  0  0
  5  6  1  0  0  0  0
  6 16  1  0  0  0  0
  7 18  1  0  0  0  0
  7 19  1  0  0  0  0
  8 13  1  0  0  0  0
  9  4  2  0  0  0  0
 10  2  1  0  0  0  0
 11 13  1  0  0  0  0
 12  9  1  0  0  0  0
 12  5  2  0  0  0  0
 14 15  2  0  0  0  0
 14  9  1  0  0  0  0
 15 17  1  0  0  0  0
 16 10  1  0  0  0  0
 16  7  1  0  0  0  0
 17  1  2  0  0  0  0
 18 19  1  0  0  0  0
 19 11  1  0  0  0  0
 20 11  1  0  0  0  0
 20 21  1  0  0  0  0
 23 22  1  0  0  0  0
 24 23  1  0  0  0  0
 25 24  1  0  0  0  0
M  END
>  <MODEL>
4

>  <REMARK>
 VINA RESULT:      -3.6     12.986     15.462
  Name = 
  4 active torsions:
  status: ('A' for Active; 'I' for Inactive)
    1  A    between atoms: N_2  and  C_9
    2  A    between atoms: C_3  and  C_14
    3  A    between atoms: C_5  and  C_9
    4  A    between atoms: C_5  and  C_17
                            x       y       z     vdW  Elec       q    Type
                         _______ _______ _______ _____ _____    ______ ____

>  <TORSDO>
F 4

$$$$
=
 OpenBabel11072415233D

 25 29  0  0  1  0  0  0  0  0999 V2000
  160.7280  209.7870  152.3630 C   0  0  0  0  0  0  0  0  0  0  0  0
  159.3880  211.8110  152.5320 N   0  0  0  0  0  0  0  0  0  0  0  0
  160.8390  213.1710  156.8600 C   0  0  0  0  0  1  0  0  0  0  0  0
  160.3430  208.7190  153.1140 C   0  0  0  0  0  0  0  0  0  0  0  0
  160.3440  208.0540  155.1460 C   0  0  0  0  0  3  0  0  0  0  0  0
  159.9260  209.0350  154.3110 N   0  0  0  0  0  0  0  0  0  0  0  0
  160.2400  211.0300  155.7820 C   0  0  1  0  0  3  0  0  0  0  0  0
  158.0130  211.5300  152.9880 C   0  0  0  0  0  2  0  0  0  0  0  0
  161.0090  207.5420  153.0910 C   0  0  0  0  0  0  0  0  0  0  0  0
  160.4370  211.0140  153.1920 C   0  0  1  0  0  3  0  0  0  0  0  0
  157.6670  211.5270  155.5530 C   0  0  2  0  0  3  0  0  0  0  0  0
  161.0050  207.0590  154.3940 C   0  0  0  0  0  3  0  0  0  0  0  0
  157.5790  212.3190  154.2360 C   0  0  0  0  0  2  0  0  0  0  0  0
  161.9620  207.3110  152.1470 N   0  0  0  0  0  0  0  0  0  0  0  0
  162.2850  208.3080  151.2570 C   0  0  0  0  0  3  0  0  0  0  0  0
  159.9870  210.4240  154.4770 N   0  0  1  0  0  0  0  0  0  0  0  0
  161.7200  209.6040  151.3900 C   0  0  0  0  0  3  0  0  0  0  0  0
  160.0120  212.5320  155.7660 C   0  0  1  0  0  3  0  0  0  0  0  0
  158.9670  211.6260  156.3930 C   0  0  2  0  0  3  0  0  0  0  0  0
  157.0770  210.1230  155.4810 C   0  0  0  0  0  2  0  0  0  0  0  0
  155.6880  210.1920  155.3700 O   0  0  0  0  0  1  0  0  0  0  0  0
  159.7210  213.2310  152.6050 C   0  0  0  0  0  2  0  0  0  0  0  0
  158.8900  214.0240  151.6070 C   0  0  0  0  0  2  0  0  0  0  0  0
  159.1400  213.5450  150.1870 C   0  0  0  0  0  2  0  0  0  0  0  0
  160.5070  213.5520  149.9140 O   0  0  0  0  0  1  0  0  0  0  0  0
  1  4  1  0  0  0  0
  1 10  1  0  0  0  0
  2 22  1  0  0  0  0
  2  8  1  0  0  0  0
  2 10  1  0  0  0  0
  4  6  1  0  0  0  0
  6 16  1  0  0  0  0
  6  5  1  0  0  0  0
  7 19  1  0  0  0  0
  8 13  1  0  0  0  0
  9  4  2  0  0  0  0
  9 12  1  0  0  0  0
 10 16  1  0  0  0  0
 11 19  1  0  0  0  0
 12  5  2  0  0  0  0
 13 11  1  0  0  0  0
 14  9  1  0  0  0  0
 15 17  1  0  0  0  0
 15 14  2  0  0  0  0
 16  7  1  0  0  0  0
 17  1  2  0  0  0  0
 18  7  1  0  0  0  0
 18 19  1  0  0  0  0
 18  3  1  0  0  0  0
 20 11  1  0  0  0  0
 21 20  1  0  0  0  0
 23 22  1  0  0  0  0
 24 23  1  0  0  0  0
 25 24  1  0  0  0  0
M  END
>  <MODEL>
5

>  <REMARK>
 VINA RESULT:      -3.6     12.560     15.458
  Name = 
  4 active torsions:
  status: ('A' for Active; 'I' for Inactive)
    1  A    between atoms: N_2  and  C_9
    2  A    between atoms: C_3  and  C_14
    3  A    between atoms: C_5  and  C_9
    4  A    between atoms: C_5  and  C_17
                            x       y       z     vdW  Elec       q    Type
                         _______ _______ _______ _____ _____    ______ ____

>  <TORSDO>
F 4

$$$$
=
 OpenBabel11072415233D

 25 29  0  0  1  0  0  0  0  0999 V2000
  159.4440  212.2350  153.3770 C   0  0  0  0  0  0  0  0  0  0  0  0
  158.9140  211.4230  155.6080 N   0  0  0  0  0  0  0  0  0  0  0  0
  163.3740  211.1500  157.2590 C   0  0  0  0  0  1  0  0  0  0  0  0
  159.9920  211.3470  152.5030 C   0  0  0  0  0  0  0  0  0  0  0  0
  161.8400  210.3390  152.1260 C   0  0  0  0  0  3  0  0  0  0  0  0
  160.8650  210.5390  153.0440 N   0  0  0  0  0  0  0  0  0  0  0  0
  162.2350  210.6210  155.1320 C   0  0  1  0  0  3  0  0  0  0  0  0
  158.7240  209.9600  155.6370 C   0  0  0  0  0  2  0  0  0  0  0  0
  160.3170  211.6870  151.2360 C   0  0  0  0  0  0  0  0  0  0  0  0
  160.0050  211.8920  154.7360 C   0  0  1  0  0  3  0  0  0  0  0  0
  160.8670  208.5640  156.0370 C   0  0  2  0  0  3  0  0  0  0  0  0
  161.5030  211.0250  150.9390 C   0  0  0  0  0  3  0  0  0  0  0  0
  159.6150  209.2180  156.6480 C   0  0  0  0  0  2  0  0  0  0  0  0
  159.9050  212.8760  150.7160 N   0  0  0  0  0  0  0  0  0  0  0  0
  159.2100  213.7540  151.5140 C   0  0  0  0  0  3  0  0  0  0  0  0
  160.9800  210.8220  154.4110 N   0  0  1  0  0  0  0  0  0  0  0  0
  159.0220  213.4820  152.8950 C   0  0  0  0  0  3  0  0  0  0  0  0
  162.0550  210.7520  156.6350 C   0  0  1  0  0  3  0  0  0  0  0  0
  162.1910  209.3700  156.0170 C   0  0  2  0  0  3  0  0  0  0  0  0
  160.6000  207.7720  154.7610 C   0  0  0  0  0  2  0  0  0  0  0  0
  161.7430  207.0650  154.3880 O   0  0  0  0  0  1  0  0  0  0  0  0
  159.0670  211.9920  156.9450 C   0  0  0  0  0  2  0  0  0  0  0  0
  159.6820  213.3820  156.8640 C   0  0  0  0  0  2  0  0  0  0  0  0
  158.6740  214.4480  157.2610 C   0  0  0  0  0  2  0  0  0  0  0  0
  157.5310  214.3430  156.4690 O   0  0  0  0  0  1  0  0  0  0  0  0
  1 10  1  0  0  0  0
  2  8  1  0  0  0  0
  2 22  1  0  0  0  0
  4  6  1  0  0  0  0
  4  1  2  0  0  0  0
  5  6  1  0  0  0  0
  6 16  1  0  0  0  0
  7 19  1  0  0  0  0
  7 18  1  0  0  0  0
  8 13  1  0  0  0  0
  9  4  1  0  0  0  0
 10  2  1  0  0  0  0
 11 13  1  0  0  0  0
 12  9  1  0  0  0  0
 12  5  2  0  0  0  0
 14  9  2  0  0  0  0
 14 15  1  0  0  0  0
 15 17  2  0  0  0  0
 16 10  1  0  0  0  0
 16  7  1  0  0  0  0
 17  1  1  0  0  0  0
 18  3  1  0  0  0  0
 19 11  1  0  0  0  0
 19 18  1  0  0  0  0
 20 11  1  0  0  0  0
 21 20  1  0  0  0  0
 23 22  1  0  0  0  0
 23 24  1  0  0  0  0
 25 24  1  0  0  0  0
M  END
>  <MODEL>
6

>  <REMARK>
 VINA RESULT:      -3.1     13.242     16.107
  Name = 
  4 active torsions:
  status: ('A' for Active; 'I' for Inactive)
    1  A    between atoms: N_2  and  C_9
    2  A    between atoms: C_3  and  C_14
    3  A    between atoms: C_5  and  C_9
    4  A    between atoms: C_5  and  C_17
                            x       y       z     vdW  Elec       q    Type
                         _______ _______ _______ _____ _____    ______ ____

>  <TORSDO>
F 4

$$$$
=
 OpenBabel11072415233D

 25 29  0  0  1  0  0  0  0  0999 V2000
  159.1020  212.2870  152.6970 C   0  0  0  0  0  0  0  0  0  0  0  0
  159.3050  211.2930  154.9080 N   0  0  0  0  0  0  0  0  0  0  0  0
  154.9460  209.3890  155.1510 C   0  0  0  0  0  1  0  0  0  0  0  0
  158.3250  213.3980  152.5810 C   0  0  0  0  0  0  0  0  0  0  0  0
  156.2650  213.9700  152.5740 C   0  0  0  0  0  3  0  0  0  0  0  0
  157.2330  213.3600  153.2980 N   0  0  0  0  0  0  0  0  0  0  0  0
  155.9110  211.5130  154.3380 C   0  0  1  0  0  3  0  0  0  0  0  0
  159.0320  212.2670  155.9830 C   0  0  0  0  0  2  0  0  0  0  0  0
  158.1490  214.0370  151.4020 C   0  0  0  0  0  0  0  0  0  0  0  0
  158.4330  211.4090  153.7260 C   0  0  1  0  0  3  0  0  0  0  0  0
  156.5540  212.4670  156.7030 C   0  0  2  0  0  3  0  0  0  0  0  0
  156.8230  214.4530  151.3720 C   0  0  0  0  0  3  0  0  0  0  0  0
  157.9330  211.8390  156.9710 C   0  0  0  0  0  2  0  0  0  0  0  0
  158.9200  213.7190  150.3270 N   0  0  0  0  0  0  0  0  0  0  0  0
  159.8360  212.6990  150.4330 C   0  0  0  0  0  3  0  0  0  0  0  0
  157.1810  212.1540  154.0080 N   0  0  1  0  0  0  0  0  0  0  0  0
  159.9000  211.9060  151.6090 C   0  0  0  0  0  3  0  0  0  0  0  0
  156.0900  210.3650  155.3170 C   0  0  1  0  0  3  0  0  0  0  0  0
  155.5460  211.6930  155.8160 C   0  0  2  0  0  3  0  0  0  0  0  0
  156.5900  213.9690  156.4420 C   0  0  0  0  0  2  0  0  0  0  0  0
  155.2980  214.4510  156.2380 O   0  0  0  0  0  1  0  0  0  0  0  0
  159.3070  209.9140  155.3920 C   0  0  0  0  0  2  0  0  0  0  0  0
  160.7270  209.3650  155.4230 C   0  0  0  0  0  2  0  0  0  0  0  0
  161.3340  209.3440  154.0310 C   0  0  0  0  0  2  0  0  0  0  0  0
  161.3760  208.0370  153.5470 O   0  0  0  0  0  1  0  0  0  0  0  0
  1 10  1  0  0  0  0
  2 22  1  0  0  0  0
  2  8  1  0  0  0  0
  3 18  1  0  0  0  0
  4  1  1  0  0  0  0
  4  6  1  0  0  0  0
  5  6  1  0  0  0  0
  6 16  1  0  0  0  0
  7 18  1  0  0  0  0
  7 19  1  0  0  0  0
  8 13  1  0  0  0  0
  9  4  2  0  0  0  0
 10 16  1  0  0  0  0
 10  2  1  0  0  0  0
 11 13  1  0  0  0  0
 12  9  1  0  0  0  0
 12  5  2  0  0  0  0
 14 15  2  0  0  0  0
 14  9  1  0  0  0  0
 15 17  1  0  0  0  0
 16  7  1  0  0  0  0
 17  1  2  0  0  0  0
 18 19  1  0  0  0  0
 19 11  1  0  0  0  0
 20 11  1  0  0  0  0
 21 20  1  0  0  0  0
 22 23  1  0  0  0  0
 24 23  1  0  0  0  0
 25 24  1  0  0  0  0
M  END
>  <MODEL>
7

>  <REMARK>
 VINA RESULT:      -2.8     13.273     15.616
  Name = 
  4 active torsions:
  status: ('A' for Active; 'I' for Inactive)
    1  A    between atoms: N_2  and  C_9
    2  A    between atoms: C_3  and  C_14
    3  A    between atoms: C_5  and  C_9
    4  A    between atoms: C_5  and  C_17
                            x       y       z     vdW  Elec       q    Type
                         _______ _______ _______ _____ _____    ______ ____

>  <TORSDO>
F 4

$$$$
=
 OpenBabel11072415233D

 25 29  0  0  1  0  0  0  0  0999 V2000
  160.9520  203.5740  149.6510 C   0  0  0  0  0  0  0  0  0  0  0  0
  160.9200  202.1380  147.6880 N   0  0  0  0  0  0  0  0  0  0  0  0
  164.5790  204.1350  145.3830 C   0  0  0  0  0  1  0  0  0  0  0  0
  160.5010  204.8490  149.5000 C   0  0  0  0  0  0  0  0  0  0  0  0
  161.0990  206.7120  148.6390 C   0  0  0  0  0  3  0  0  0  0  0  0
  160.8540  205.4080  148.3730 N   0  0  0  0  0  0  0  0  0  0  0  0
  162.6610  204.9500  146.7090 C   0  0  1  0  0  3  0  0  0  0  0  0
  159.9330  202.5890  146.6860 C   0  0  0  0  0  2  0  0  0  0  0  0
  160.4660  205.7290  150.5260 C   0  0  0  0  0  0  0  0  0  0  0  0
  161.6570  203.2200  148.3650 C   0  0  1  0  0  3  0  0  0  0  0  0
  160.8030  204.3110  144.9600 C   0  0  2  0  0  3  0  0  0  0  0  0
  160.8200  206.9660  149.9990 C   0  0  0  0  0  3  0  0  0  0  0  0
  160.5130  202.8340  145.2820 C   0  0  0  0  0  2  0  0  0  0  0  0
  160.6760  205.3060  151.8030 N   0  0  0  0  0  0  0  0  0  0  0  0
  160.9870  203.9860  152.0310 C   0  0  0  0  0  3  0  0  0  0  0  0
  161.6100  204.5010  147.6180 N   0  0  1  0  0  0  0  0  0  0  0  0
  161.2030  203.0970  150.9450 C   0  0  0  0  0  3  0  0  0  0  0  0
  163.1650  203.8250  145.8210 C   0  0  1  0  0  3  0  0  0  0  0  0
  162.2220  204.8670  145.2420 C   0  0  2  0  0  3  0  0  0  0  0  0
  159.6740  205.2660  145.3310 C   0  0  0  0  0  2  0  0  0  0  0  0
  160.1140  206.5860  145.2400 O   0  0  0  0  0  1  0  0  0  0  0  0
  161.8590  201.1600  147.1440 C   0  0  0  0  0  2  0  0  0  0  0  0
  161.2040  199.7880  147.0580 C   0  0  0  0  0  2  0  0  0  0  0  0
  161.2060  199.2720  145.6290 C   0  0  0  0  0  2  0  0  0  0  0  0
  161.2060  197.8770  145.6250 O   0  0  0  0  0  1  0  0  0  0  0  0
  1 17  1  0  0  0  0
  2 10  1  0  0  0  0
  3 18  1  0  0  0  0
  4  1  2  0  0  0  0
  4  9  1  0  0  0  0
  5 12  2  0  0  0  0
  6  5  1  0  0  0  0
  6  4  1  0  0  0  0
  7 16  1  0  0  0  0
  8  2  1  0  0  0  0
  9 14  2  0  0  0  0
 10  1  1  0  0  0  0
 11 19  1  0  0  0  0
 11 13  1  0  0  0  0
 11 20  1  0  0  0  0
 12  9  1  0  0  0  0
 13  8  1  0  0  0  0
 14 15  1  0  0  0  0
 16 10  1  0  0  0  0
 16  6  1  0  0  0  0
 17 15  2  0  0  0  0
 18  7  1  0  0  0  0
 19 18  1  0  0  0  0
 19  7  1  0  0  0  0
 21 20  1  0  0  0  0
 22  2  1  0  0  0  0
 23 22  1  0  0  0  0
 24 23  1  0  0  0  0
 25 24  1  0  0  0  0
M  END
>  <MODEL>
8

>  <REMARK>
 VINA RESULT:      -2.5      9.528     11.998
  Name = 
  4 active torsions:
  status: ('A' for Active; 'I' for Inactive)
    1  A    between atoms: N_2  and  C_9
    2  A    between atoms: C_3  and  C_14
    3  A    between atoms: C_5  and  C_9
    4  A    between atoms: C_5  and  C_17
                            x       y       z     vdW  Elec       q    Type
                         _______ _______ _______ _____ _____    ______ ____

>  <TORSDO>
F 4

$$$$
=
 OpenBabel11072415233D

 25 29  0  0  1  0  0  0  0  0999 V2000
  161.0580  204.6180  149.7870 C   0  0  0  0  0  0  0  0  0  0  0  0
  160.7910  202.8960  148.0890 N   0  0  0  0  0  0  0  0  0  0  0  0
  164.6030  204.0040  145.4570 C   0  0  0  0  0  1  0  0  0  0  0  0
  160.7650  205.8970  149.4290 C   0  0  0  0  0  0  0  0  0  0  0  0
  161.5660  207.5030  148.2670 C   0  0  0  0  0  3  0  0  0  0  0  0
  161.1530  206.2140  148.2220 N   0  0  0  0  0  0  0  0  0  0  0  0
  162.8400  205.2630  146.6440 C   0  0  1  0  0  3  0  0  0  0  0  0
  159.8400  203.2980  147.0340 C   0  0  0  0  0  2  0  0  0  0  0  0
  160.8700  206.9310  150.2950 C   0  0  0  0  0  0  0  0  0  0  0  0
  161.6760  203.9700  148.5710 C   0  0  1  0  0  3  0  0  0  0  0  0
  160.8680  204.5890  145.0400 C   0  0  2  0  0  3  0  0  0  0  0  0
  161.3600  208.0090  149.5670 C   0  0  0  0  0  3  0  0  0  0  0  0
  160.4050  203.2340  145.6040 C   0  0  0  0  0  2  0  0  0  0  0  0
  161.0620  206.6990  151.6220 N   0  0  0  0  0  0  0  0  0  0  0  0
  161.2120  205.4060  152.0650 C   0  0  0  0  0  3  0  0  0  0  0  0
  161.7680  205.1070  147.6230 N   0  0  1  0  0  0  0  0  0  0  0  0
  161.2840  204.3310  151.1400 C   0  0  0  0  0  3  0  0  0  0  0  0
  163.1740  203.9530  145.9510 C   0  0  1  0  0  3  0  0  0  0  0  0
  162.3520  204.9980  145.2150 C   0  0  2  0  0  3  0  0  0  0  0  0
  159.8770  205.7280  145.2550 C   0  0  0  0  0  2  0  0  0  0  0  0
  160.4560  206.9420  144.8870 O   0  0  0  0  0  1  0  0  0  0  0  0
  161.5840  201.7290  147.7090 C   0  0  0  0  0  2  0  0  0  0  0  0
  161.2060  200.5280  148.5640 C   0  0  0  0  0  2  0  0  0  0  0  0
  160.3830  200.9530  149.7680 C   0  0  0  0  0  2  0  0  0  0  0  0
  161.2060  201.0900  150.8860 O   0  0  0  0  0  1  0  0  0  0  0  0
  1 17  1  0  0  0  0
  2 10  1  0  0  0  0
  3 18  1  0  0  0  0
  4  1  2  0  0  0  0
  4  9  1  0  0  0  0
  5 12  2  0  0  0  0
  6  5  1  0  0  0  0
  6  4  1  0  0  0  0
  7 16  1  0  0  0  0
  8  2  1  0  0  0  0
  9 14  2  0  0  0  0
 10  1  1  0  0  0  0
 11 19  1  0  0  0  0
 11 20  1  0  0  0  0
 11 13  1  0  0  0  0
 12  9  1  0  0  0  0
 13  8  1  0  0  0  0
 14 15  1  0  0  0  0
 16  6  1  0  0  0  0
 16 10  1  0  0  0  0
 17 15  2  0  0  0  0
 18  7  1  0  0  0  0
 19 18  1  0  0  0  0
 19  7  1  0  0  0  0
 21 20  1  0  0  0  0
 22  2  1  0  0  0  0
 22 23  1  0  0  0  0
 23 24  1  0  0  0  0
 24 25  1  0  0  0  0
M  END
>  <MODEL>
9

>  <REMARK>
 VINA RESULT:      -2.1      9.421     11.886
  Name = 
  4 active torsions:
  status: ('A' for Active; 'I' for Inactive)
    1  A    between atoms: N_2  and  C_9
    2  A    between atoms: C_3  and  C_14
    3  A    between atoms: C_5  and  C_9
    4  A    between atoms: C_5  and  C_17
                            x       y       z     vdW  Elec       q    Type
                         _______ _______ _______ _____ _____    ______ ____

>  <TORSDO>
F 4

$$$$
