=
 OpenBabel11072415233D

 25 26  0  0  1  0  0  0  0  0999 V2000
  161.1760  206.8980  151.7160 C   0  0  1  0  0  3  0  0  0  0  0  0
  162.4520  205.0790  152.3900 N   0  0  0  0  0  2  0  0  0  0  0  0
  160.3960  206.0660  150.6770 C   0  0  2  0  0  3  0  0  0  0  0  0
  162.5390  206.3830  151.8670 N   0  0  0  0  0  2  0  0  0  0  0  0
  161.9550  204.2010  151.3330 C   0  0  0  0  0  2  0  0  0  0  0  0
  160.5130  204.5730  150.9940 C   0  0  0  0  0  2  0  0  0  0  0  0
  161.1740  208.3640  151.3990 C   0  0  0  0  0  0  0  0  0  0  0  0
  162.1140  208.8740  150.4510 N   0  0  0  0  0  2  0  0  0  0  0  0
  160.3910  209.1460  152.0050 O   0  0  0  0  0  0  0  0  0  0  0  0
  162.2680  210.2980  150.1830 C   0  0  0  0  0  2  0  0  0  0  0  0
  162.0060  210.5950  148.7140 C   0  0  0  0  0  2  0  0  0  0  0  0
  162.6600  211.7690  148.3400 O   0  0  0  0  0  0  0  0  0  0  0  0
  161.6400  212.7130  148.2110 C   0  0  0  0  0  2  0  0  0  0  0  0
  159.4530  212.5890  147.2680 O   0  0  0  0  0  1  0  0  0  0  0  0
  160.8050  212.4030  146.9840 C   0  0  0  0  0  2  0  0  0  0  0  0
  161.2790  205.4540  148.4200 C   0  0  0  0  0  3  0  0  0  0  0  0
  160.7540  206.3670  149.2440 C   0  0  0  0  0  3  0  0  0  0  0  0
  163.4170  204.6800  146.1390 O   0  0  0  0  0  1  0  0  0  0  0  0
  160.6710  205.9420  144.8460 C   0  0  0  0  0  2  0  0  0  0  0  0
  160.4790  206.3930  146.2660 C   0  0  0  0  0  2  0  0  0  0  0  0
  161.6480  205.7860  147.0060 C   0  0  2  0  0  3  0  0  0  0  0  0
  161.4970  204.6750  144.9430 C   0  0  1  0  0  3  0  0  0  0  0  0
  162.0740  204.5920  146.2830 N   0  0  0  0  0  0  0  0  0  0  0  0
  160.6800  203.5660  144.7190 O   0  0  0  0  0  0  0  0  0  0  0  0
  161.0630  202.6380  145.6890 C   0  0  0  0  0  1  0  0  0  0  0  0
  1  7  1  6  0  0  0
  1  4  1  0  0  0  0
  3 17  1  6  0  0  0
  3  6  1  0  0  0  0
  3  1  1  0  0  0  0
  4  2  1  0  0  0  0
  5  2  1  0  0  0  0
  6  5  1  0  0  0  0
  7  9  2  0  0  0  0
  8  7  1  0  0  0  0
 10  8  1  0  0  0  0
 11 10  1  0  0  0  0
 12 11  1  0  0  0  0
 13 12  1  0  0  0  0
 15 14  1  0  0  0  0
 15 13  1  0  0  0  0
 16 17  2  0  0  0  0
 18 23  1  0  0  0  0
 19 22  1  0  0  0  0
 19 20  1  0  0  0  0
 20 21  1  0  0  0  0
 21 16  1  1  0  0  0
 22 24  1  1  0  0  0
 22 23  1  0  0  0  0
 23 21  1  0  0  0  0
 24 25  1  0  0  0  0
M  END
>  <MODEL>
1

>  <REMARK>
 VINA RESULT:      -6.7      0.000      0.000
  Name = 
  9 active torsions:
  status: ('A' for Active; 'I' for Inactive)
    1  A    between atoms: C_1  and  O_12
    2  A    between atoms: C_1  and  C_20
    3  A    between atoms: C_2  and  C_16
    4  A    between atoms: C_5  and  C_8
    5  A    between atoms: C_6  and  O_12
    6  A    between atoms: C_6  and  C_23
    7  A    between atoms: O_9  and  C_21
    8  A    between atoms: C_11  and  C_13
    9  A    between atoms: N_18  and  C_20
                            x       y       z     vdW  Elec       q    Type
                         _______ _______ _______ _____ _____    ______ ____

>  <TORSDO>
F 9

$$$$
=
 OpenBabel11072415233D

 25 26  0  0  1  0  0  0  0  0999 V2000
  161.3860  207.4860  150.5850 C   0  0  1  0  0  3  0  0  0  0  0  0
  162.2570  206.4020  152.4450 N   0  0  0  0  0  2  0  0  0  0  0  0
  160.6730  206.2140  150.0800 C   0  0  2  0  0  3  0  0  0  0  0  0
  162.6170  207.1360  151.2980 N   0  0  0  0  0  2  0  0  0  0  0  0
  161.8180  205.0770  152.0140 C   0  0  0  0  0  2  0  0  0  0  0  0
  160.5190  205.2020  151.2190 C   0  0  0  0  0  2  0  0  0  0  0  0
  161.6480  208.4730  149.4870 C   0  0  0  0  0  0  0  0  0  0  0  0
  162.0710  209.7950  149.8240 N   0  0  0  0  0  2  0  0  0  0  0  0
  161.4400  208.1570  148.2830 O   0  0  0  0  0  0  0  0  0  0  0  0
  162.2200  210.8520  148.8320 C   0  0  0  0  0  2  0  0  0  0  0  0
  161.4720  212.1030  149.2700 C   0  0  0  0  0  2  0  0  0  0  0  0
  161.9640  213.2160  148.5880 O   0  0  0  0  0  0  0  0  0  0  0  0
  162.6970  212.6810  147.5270 C   0  0  0  0  0  2  0  0  0  0  0  0
  161.3090  212.8870  145.5980 O   0  0  0  0  0  1  0  0  0  0  0  0
  162.4000  213.4540  146.2560 C   0  0  0  0  0  2  0  0  0  0  0  0
  161.2700  204.2790  148.6140 C   0  0  0  0  0  3  0  0  0  0  0  0
  161.3000  205.5940  148.8570 C   0  0  0  0  0  3  0  0  0  0  0  0
  160.9140  201.8760  146.4990 O   0  0  0  0  0  1  0  0  0  0  0  0
  162.7280  204.3210  145.2600 C   0  0  0  0  0  2  0  0  0  0  0  0
  162.8100  204.6940  146.7120 C   0  0  0  0  0  2  0  0  0  0  0  0
  161.9220  203.6860  147.4020 C   0  0  2  0  0  3  0  0  0  0  0  0
  161.4060  203.5940  145.1130 C   0  0  1  0  0  3  0  0  0  0  0  0
  160.9220  203.2280  146.4430 N   0  0  0  0  0  0  0  0  0  0  0  0
  160.4770  204.4340  144.4950 O   0  0  0  0  0  0  0  0  0  0  0  0
  161.2450  205.4220  143.8770 C   0  0  0  0  0  1  0  0  0  0  0  0
  1  7  1  6  0  0  0
  1  4  1  0  0  0  0
  3 17  1  6  0  0  0
  3  1  1  0  0  0  0
  3  6  1  0  0  0  0
  4  2  1  0  0  0  0
  5  2  1  0  0  0  0
  6  5  1  0  0  0  0
  7  8  1  0  0  0  0
  9  7  2  0  0  0  0
 10 11  1  0  0  0  0
 10  8  1  0  0  0  0
 12 11  1  0  0  0  0
 13 12  1  0  0  0  0
 14 15  1  0  0  0  0
 15 13  1  0  0  0  0
 16 17  2  0  0  0  0
 19 20  1  0  0  0  0
 20 21  1  0  0  0  0
 21 16  1  1  0  0  0
 22 24  1  1  0  0  0
 22 19  1  0  0  0  0
 22 23  1  0  0  0  0
 23 18  1  0  0  0  0
 23 21  1  0  0  0  0
 25 24  1  0  0  0  0
M  END
>  <MODEL>
2

>  <REMARK>
 VINA RESULT:      -6.4      1.694      2.006
  Name = 
  9 active torsions:
  status: ('A' for Active; 'I' for Inactive)
    1  A    between atoms: C_1  and  O_12
    2  A    between atoms: C_1  and  C_20
    3  A    between atoms: C_2  and  C_16
    4  A    between atoms: C_5  and  C_8
    5  A    between atoms: C_6  and  O_12
    6  A    between atoms: C_6  and  C_23
    7  A    between atoms: O_9  and  C_21
    8  A    between atoms: C_11  and  C_13
    9  A    between atoms: N_18  and  C_20
                            x       y       z     vdW  Elec       q    Type
                         _______ _______ _______ _____ _____    ______ ____

>  <TORSDO>
F 9

$$$$
=
 OpenBabel11072415233D

 25 26  0  0  1  0  0  0  0  0999 V2000
  161.2950  205.2740  151.5180 C   0  0  1  0  0  3  0  0  0  0  0  0
  161.5710  203.0850  152.2410 N   0  0  0  0  0  2  0  0  0  0  0  0
  160.4080  204.8520  150.3290 C   0  0  2  0  0  3  0  0  0  0  0  0
  162.2760  204.2310  151.8220 N   0  0  0  0  0  2  0  0  0  0  0  0
  160.9220  202.5010  151.0690 C   0  0  0  0  0  2  0  0  0  0  0  0
  159.8380  203.4500  150.5590 C   0  0  0  0  0  2  0  0  0  0  0  0
  161.9550  206.6040  151.3000 C   0  0  0  0  0  0  0  0  0  0  0  0
  161.1430  207.7740  151.1810 N   0  0  0  0  0  2  0  0  0  0  0  0
  163.2070  206.6790  151.1650 O   0  0  0  0  0  0  0  0  0  0  0  0
  161.6910  209.0800  150.8390 C   0  0  0  0  0  2  0  0  0  0  0  0
  161.8090  209.9500  152.0820 C   0  0  0  0  0  2  0  0  0  0  0  0
  160.6970  209.7620  152.9030 O   0  0  0  0  0  0  0  0  0  0  0  0
  161.2260  209.6550  154.1900 C   0  0  0  0  0  2  0  0  0  0  0  0
  161.4060  207.3340  154.7090 O   0  0  0  0  0  1  0  0  0  0  0  0
  160.6130  208.4650  154.9020 C   0  0  0  0  0  2  0  0  0  0  0  0
  160.7210  205.8950  148.0780 C   0  0  0  0  0  3  0  0  0  0  0  0
  161.0740  204.9740  148.9810 C   0  0  0  0  0  3  0  0  0  0  0  0
  163.3330  204.8570  146.5040 O   0  0  0  0  0  1  0  0  0  0  0  0
  160.9060  205.6500  144.4330 C   0  0  0  0  0  2  0  0  0  0  0  0
  160.3920  206.3480  145.6600 C   0  0  0  0  0  2  0  0  0  0  0  0
  161.3850  205.9780  146.7360 C   0  0  2  0  0  3  0  0  0  0  0  0
  161.7260  204.4870  144.9550 C   0  0  1  0  0  3  0  0  0  0  0  0
  161.9940  204.7020  146.3760 N   0  0  0  0  0  0  0  0  0  0  0  0
  161.0100  203.3000  144.7920 O   0  0  0  0  0  0  0  0  0  0  0  0
  161.1600  202.6220  146.0030 C   0  0  0  0  0  1  0  0  0  0  0  0
  1  7  1  6  0  0  0
  1  4  1  0  0  0  0
  3 17  1  6  0  0  0
  3  6  1  0  0  0  0
  3  1  1  0  0  0  0
  4  2  1  0  0  0  0
  5  2  1  0  0  0  0
  6  5  1  0  0  0  0
  8  7  1  0  0  0  0
  9  7  2  0  0  0  0
 10  8  1  0  0  0  0
 10 11  1  0  0  0  0
 11 12  1  0  0  0  0
 12 13  1  0  0  0  0
 13 15  1  0  0  0  0
 14 15  1  0  0  0  0
 16 17  2  0  0  0  0
 19 22  1  0  0  0  0
 19 20  1  0  0  0  0
 20 21  1  0  0  0  0
 21 16  1  1  0  0  0
 22 24  1  1  0  0  0
 22 23  1  0  0  0  0
 23 18  1  0  0  0  0
 23 21  1  0  0  0  0
 24 25  1  0  0  0  0
M  END
>  <MODEL>
3

>  <REMARK>
 VINA RESULT:      -6.4      2.405      3.453
  Name = 
  9 active torsions:
  status: ('A' for Active; 'I' for Inactive)
    1  A    between atoms: C_1  and  O_12
    2  A    between atoms: C_1  and  C_20
    3  A    between atoms: C_2  and  C_16
    4  A    between atoms: C_5  and  C_8
    5  A    between atoms: C_6  and  O_12
    6  A    between atoms: C_6  and  C_23
    7  A    between atoms: O_9  and  C_21
    8  A    between atoms: C_11  and  C_13
    9  A    between atoms: N_18  and  C_20
                            x       y       z     vdW  Elec       q    Type
                         _______ _______ _______ _____ _____    ______ ____

>  <TORSDO>
F 9

$$$$
=
 OpenBabel11072415233D

 25 26  0  0  1  0  0  0  0  0999 V2000
  161.5790  206.4220  146.8140 C   0  0  1  0  0  3  0  0  0  0  0  0
  160.7850  206.1370  144.6500 N   0  0  0  0  0  2  0  0  0  0  0  0
  162.3750  205.1010  146.7800 C   0  0  2  0  0  3  0  0  0  0  0  0
  160.3760  206.3180  145.9860 N   0  0  0  0  0  2  0  0  0  0  0  0
  161.3120  204.7800  144.5200 C   0  0  0  0  0  2  0  0  0  0  0  0
  162.5990  204.6500  145.3340 C   0  0  0  0  0  2  0  0  0  0  0  0
  161.2510  206.8610  148.2100 C   0  0  0  0  0  0  0  0  0  0  0  0
  162.2180  207.6050  148.9530 N   0  0  0  0  0  2  0  0  0  0  0  0
  160.1570  206.5260  148.7420 O   0  0  0  0  0  0  0  0  0  0  0  0
  162.0340  207.9550  150.3550 C   0  0  0  0  0  2  0  0  0  0  0  0
  162.4710  206.8050  151.2530 C   0  0  0  0  0  2  0  0  0  0  0  0
  161.3550  206.2020  151.8320 O   0  0  0  0  0  0  0  0  0  0  0  0
  161.6430  206.1700  153.1970 C   0  0  0  0  0  2  0  0  0  0  0  0
  160.5040  206.9090  155.1590 O   0  0  0  0  0  1  0  0  0  0  0  0
  160.9410  207.3170  153.8980 C   0  0  0  0  0  2  0  0  0  0  0  0
  161.2330  202.9020  147.1090 C   0  0  0  0  0  3  0  0  0  0  0  0
  161.7900  204.0010  147.6280 C   0  0  0  0  0  3  0  0  0  0  0  0
  161.8270  199.9240  148.1840 O   0  0  0  0  0  1  0  0  0  0  0  0
  159.7450  201.5310  150.1560 C   0  0  0  0  0  2  0  0  0  0  0  0
  159.6370  202.4160  148.9470 C   0  0  0  0  0  2  0  0  0  0  0  0
  160.6370  201.8340  147.9760 C   0  0  2  0  0  3  0  0  0  0  0  0
  161.1370  200.9350  150.0860 C   0  0  1  0  0  3  0  0  0  0  0  0
  161.6710  201.1470  148.7420 N   0  0  0  0  0  0  0  0  0  0  0  0
  161.9620  201.5640  151.0200 O   0  0  0  0  0  0  0  0  0  0  0  0
  161.1620  202.5550  151.5930 C   0  0  0  0  0  1  0  0  0  0  0  0
  1  7  1  1  0  0  0
  2  4  1  0  0  0  0
  3  1  1  0  0  0  0
  3 17  1  1  0  0  0
  4  1  1  0  0  0  0
  5  2  1  0  0  0  0
  5  6  1  0  0  0  0
  6  3  1  0  0  0  0
  7  9  2  0  0  0  0
  7  8  1  0  0  0  0
  8 10  1  0  0  0  0
 10 11  1  0  0  0  0
 11 12  1  0  0  0  0
 12 13  1  0  0  0  0
 13 15  1  0  0  0  0
 15 14  1  0  0  0  0
 16 17  2  0  0  0  0
 18 23  1  0  0  0  0
 20 19  1  0  0  0  0
 21 16  1  1  0  0  0
 21 23  1  0  0  0  0
 21 20  1  0  0  0  0
 22 19  1  0  0  0  0
 22 24  1  1  0  0  0
 23 22  1  0  0  0  0
 24 25  1  0  0  0  0
M  END
>  <MODEL>
4

>  <REMARK>
 VINA RESULT:      -6.3      3.282      5.827
  Name = 
  9 active torsions:
  status: ('A' for Active; 'I' for Inactive)
    1  A    between atoms: C_1  and  O_12
    2  A    between atoms: C_1  and  C_20
    3  A    between atoms: C_2  and  C_16
    4  A    between atoms: C_5  and  C_8
    5  A    between atoms: C_6  and  O_12
    6  A    between atoms: C_6  and  C_23
    7  A    between atoms: O_9  and  C_21
    8  A    between atoms: C_11  and  C_13
    9  A    between atoms: N_18  and  C_20
                            x       y       z     vdW  Elec       q    Type
                         _______ _______ _______ _____ _____    ______ ____

>  <TORSDO>
F 9

$$$$
=
 OpenBabel11072415233D

 25 26  0  0  1  0  0  0  0  0999 V2000
  161.4570  205.1500  149.8820 C   0  0  1  0  0  3  0  0  0  0  0  0
  160.5810  203.0210  150.1780 N   0  0  0  0  0  2  0  0  0  0  0  0
  161.9120  205.2530  151.3520 C   0  0  2  0  0  3  0  0  0  0  0  0
  160.2500  204.3290  149.7740 N   0  0  0  0  0  2  0  0  0  0  0  0
  160.7650  203.0290  151.6280 C   0  0  0  0  0  2  0  0  0  0  0  0
  161.9960  203.8610  151.9830 C   0  0  0  0  0  2  0  0  0  0  0  0
  161.2670  206.4940  149.2430 C   0  0  0  0  0  0  0  0  0  0  0  0
  162.1790  207.5490  149.5530 N   0  0  0  0  0  2  0  0  0  0  0  0
  160.2780  206.7060  148.4870 O   0  0  0  0  0  0  0  0  0  0  0  0
  161.9920  208.9150  149.0820 C   0  0  0  0  0  2  0  0  0  0  0  0
  162.1540  209.9010  150.2310 C   0  0  0  0  0  2  0  0  0  0  0  0
  161.9180  211.2000  149.7810 O   0  0  0  0  0  0  0  0  0  0  0  0
  162.1680  211.1470  148.4090 C   0  0  0  0  0  2  0  0  0  0  0  0
  161.9060  212.9200  146.8350 O   0  0  0  0  0  1  0  0  0  0  0  0
  162.6670  212.4940  147.9240 C   0  0  0  0  0  2  0  0  0  0  0  0
  161.4970  206.6440  153.3880 C   0  0  0  0  0  3  0  0  0  0  0  0
  161.0950  206.2020  152.1910 C   0  0  0  0  0  3  0  0  0  0  0  0
  160.2130  206.9130  156.3290 O   0  0  0  0  0  1  0  0  0  0  0  0
  160.5500  209.8450  154.8820 C   0  0  0  0  0  2  0  0  0  0  0  0
  160.6940  208.9760  153.6660 C   0  0  0  0  0  2  0  0  0  0  0  0
  160.6540  207.5690  154.2120 C   0  0  2  0  0  3  0  0  0  0  0  0
  161.0460  208.9950  156.0350 C   0  0  1  0  0  3  0  0  0  0  0  0
  161.1170  207.6030  155.5960 N   0  0  0  0  0  0  0  0  0  0  0  0
  162.3160  209.4270  156.4210 O   0  0  0  0  0  0  0  0  0  0  0  0
  162.2120  210.8170  156.4990 C   0  0  0  0  0  1  0  0  0  0  0  0
  1  7  1  1  0  0  0
  1  3  1  0  0  0  0
  2  5  1  0  0  0  0
  3  6  1  0  0  0  0
  3 17  1  1  0  0  0
  4  1  1  0  0  0  0
  4  2  1  0  0  0  0
  5  6  1  0  0  0  0
  7  8  1  0  0  0  0
  9  7  2  0  0  0  0
 10  8  1  0  0  0  0
 10 11  1  0  0  0  0
 12 11  1  0  0  0  0
 13 12  1  0  0  0  0
 14 15  1  0  0  0  0
 15 13  1  0  0  0  0
 17 16  2  0  0  0  0
 19 22  1  0  0  0  0
 20 21  1  0  0  0  0
 20 19  1  0  0  0  0
 21 16  1  6  0  0  0
 21 23  1  0  0  0  0
 22 24  1  6  0  0  0
 23 22  1  0  0  0  0
 23 18  1  0  0  0  0
 24 25  1  0  0  0  0
M  END
>  <MODEL>
5

>  <REMARK>
 VINA RESULT:      -6.2      2.934      6.572
  Name = 
  9 active torsions:
  status: ('A' for Active; 'I' for Inactive)
    1  A    between atoms: C_1  and  O_12
    2  A    between atoms: C_1  and  C_20
    3  A    between atoms: C_2  and  C_16
    4  A    between atoms: C_5  and  C_8
    5  A    between atoms: C_6  and  O_12
    6  A    between atoms: C_6  and  C_23
    7  A    between atoms: O_9  and  C_21
    8  A    between atoms: C_11  and  C_13
    9  A    between atoms: N_18  and  C_20
                            x       y       z     vdW  Elec       q    Type
                         _______ _______ _______ _____ _____    ______ ____

>  <TORSDO>
F 9

$$$$
=
 OpenBabel11072415233D

 25 26  0  0  1  0  0  0  0  0999 V2000
  161.0210  206.0770  151.1900 C   0  0  1  0  0  3  0  0  0  0  0  0
  161.7990  204.3810  152.5720 N   0  0  0  0  0  2  0  0  0  0  0  0
  160.3940  205.0830  150.1910 C   0  0  2  0  0  3  0  0  0  0  0  0
  162.2100  205.4950  151.8150 N   0  0  0  0  0  2  0  0  0  0  0  0
  161.4410  203.3110  151.6420 C   0  0  0  0  0  2  0  0  0  0  0  0
  160.1980  203.7150  150.8520 C   0  0  0  0  0  2  0  0  0  0  0  0
  161.3220  207.4070  150.5660 C   0  0  0  0  0  0  0  0  0  0  0  0
  161.9290  208.4290  151.3590 N   0  0  0  0  0  2  0  0  0  0  0  0
  160.9890  207.6400  149.3710 O   0  0  0  0  0  0  0  0  0  0  0  0
  162.1340  209.7860  150.8720 C   0  0  0  0  0  2  0  0  0  0  0  0
  161.3870  210.7840  151.7470 C   0  0  0  0  0  2  0  0  0  0  0  0
  161.6850  210.5560  153.0910 O   0  0  0  0  0  0  0  0  0  0  0  0
  160.6040  211.1000  153.7860 C   0  0  0  0  0  2  0  0  0  0  0  0
  162.2910  210.8850  155.4590 O   0  0  0  0  0  1  0  0  0  0  0  0
  160.9710  211.2820  155.2460 C   0  0  0  0  0  2  0  0  0  0  0  0
  161.1190  203.8630  148.1320 C   0  0  0  0  0  3  0  0  0  0  0  0
  161.1280  204.9730  148.8790 C   0  0  0  0  0  3  0  0  0  0  0  0
  160.8290  202.7440  145.1260 O   0  0  0  0  0  1  0  0  0  0  0  0
  163.0560  205.1550  145.3110 C   0  0  0  0  0  2  0  0  0  0  0  0
  162.9610  204.8240  146.7730 C   0  0  0  0  0  2  0  0  0  0  0  0
  161.8780  203.7740  146.8430 C   0  0  2  0  0  3  0  0  0  0  0  0
  161.7010  204.7950  144.7360 C   0  0  1  0  0  3  0  0  0  0  0  0
  160.9880  203.9590  145.7010 N   0  0  0  0  0  0  0  0  0  0  0  0
  160.9700  205.9600  144.4990 O   0  0  0  0  0  0  0  0  0  0  0  0
  159.9390  205.9320  145.4400 C   0  0  0  0  0  1  0  0  0  0  0  0
  1  7  1  6  0  0  0
  1  4  1  0  0  0  0
  3 17  1  6  0  0  0
  3  6  1  0  0  0  0
  3  1  1  0  0  0  0
  4  2  1  0  0  0  0
  5  2  1  0  0  0  0
  6  5  1  0  0  0  0
  7  8  1  0  0  0  0
  9  7  2  0  0  0  0
 10  8  1  0  0  0  0
 10 11  1  0  0  0  0
 11 12  1  0  0  0  0
 12 13  1  0  0  0  0
 13 15  1  0  0  0  0
 15 14  1  0  0  0  0
 16 17  2  0  0  0  0
 18 23  1  0  0  0  0
 19 20  1  0  0  0  0
 20 21  1  0  0  0  0
 21 16  1  1  0  0  0
 22 24  1  1  0  0  0
 22 19  1  0  0  0  0
 22 23  1  0  0  0  0
 23 21  1  0  0  0  0
 24 25  1  0  0  0  0
M  END
>  <MODEL>
6

>  <REMARK>
 VINA RESULT:      -6.2      2.319      3.417
  Name = 
  9 active torsions:
  status: ('A' for Active; 'I' for Inactive)
    1  A    between atoms: C_1  and  O_12
    2  A    between atoms: C_1  and  C_20
    3  A    between atoms: C_2  and  C_16
    4  A    between atoms: C_5  and  C_8
    5  A    between atoms: C_6  and  O_12
    6  A    between atoms: C_6  and  C_23
    7  A    between atoms: O_9  and  C_21
    8  A    between atoms: C_11  and  C_13
    9  A    between atoms: N_18  and  C_20
                            x       y       z     vdW  Elec       q    Type
                         _______ _______ _______ _____ _____    ______ ____

>  <TORSDO>
F 9

$$$$
=
 OpenBabel11072415233D

 25 26  0  0  1  0  0  0  0  0999 V2000
  161.3010  204.5150  149.8140 C   0  0  1  0  0  3  0  0  0  0  0  0
  160.3640  202.7950  151.0620 N   0  0  0  0  0  2  0  0  0  0  0  0
  161.8980  205.2000  151.0600 C   0  0  2  0  0  3  0  0  0  0  0  0
  160.0540  203.8270  150.1540 N   0  0  0  0  0  2  0  0  0  0  0  0
  160.6860  203.4090  152.3490 C   0  0  0  0  0  2  0  0  0  0  0  0
  161.9810  204.2090  152.2250 C   0  0  0  0  0  2  0  0  0  0  0  0
  161.1100  205.4660  148.6700 C   0  0  0  0  0  0  0  0  0  0  0  0
  162.1310  205.5750  147.6760 N   0  0  0  0  0  2  0  0  0  0  0  0
  160.0870  206.2040  148.6180 O   0  0  0  0  0  0  0  0  0  0  0  0
  162.0870  206.5650  146.6080 C   0  0  0  0  0  2  0  0  0  0  0  0
  161.8630  205.8880  145.2630 C   0  0  0  0  0  2  0  0  0  0  0  0
  160.5010  205.6520  145.0690 O   0  0  0  0  0  0  0  0  0  0  0  0
  160.4490  204.4220  144.4120 C   0  0  0  0  0  2  0  0  0  0  0  0
  160.5220  202.1580  145.1600 O   0  0  0  0  0  1  0  0  0  0  0  0
  161.1970  203.3770  145.2170 C   0  0  0  0  0  2  0  0  0  0  0  0
  161.4350  207.0950  152.6220 C   0  0  0  0  0  3  0  0  0  0  0  0
  161.2080  206.4800  151.4570 C   0  0  0  0  0  3  0  0  0  0  0  0
  160.1050  208.5510  155.1700 O   0  0  0  0  0  1  0  0  0  0  0  0
  160.9430  210.7130  152.8400 C   0  0  0  0  0  2  0  0  0  0  0  0
  160.9940  209.4610  152.0120 C   0  0  0  0  0  2  0  0  0  0  0  0
  160.7170  208.3550  153.0030 C   0  0  2  0  0  3  0  0  0  0  0  0
  161.2600  210.2660  154.2530 C   0  0  1  0  0  3  0  0  0  0  0  0
  161.1310  208.8120  154.3250 N   0  0  0  0  0  0  0  0  0  0  0  0
  162.5680  210.6340  154.5760 O   0  0  0  0  0  0  0  0  0  0  0  0
  162.6010  210.6430  155.9720 C   0  0  0  0  0  1  0  0  0  0  0  0
  1  7  1  6  0  0  0
  1  4  1  0  0  0  0
  1  3  1  0  0  0  0
  2  5  1  0  0  0  0
  3 17  1  1  0  0  0
  3  6  1  0  0  0  0
  4  2  1  0  0  0  0
  6  5  1  0  0  0  0
  8  7  1  0  0  0  0
  9  7  2  0  0  0  0
 10  8  1  0  0  0  0
 11 10  1  0  0  0  0
 12 11  1  0  0  0  0
 13 12  1  0  0  0  0
 13 15  1  0  0  0  0
 14 15  1  0  0  0  0
 17 16  2  0  0  0  0
 19 22  1  0  0  0  0
 20 19  1  0  0  0  0
 20 21  1  0  0  0  0
 21 16  1  6  0  0  0
 21 23  1  0  0  0  0
 22 23  1  0  0  0  0
 22 24  1  6  0  0  0
 23 18  1  0  0  0  0
 24 25  1  0  0  0  0
M  END
>  <MODEL>
7

>  <REMARK>
 VINA RESULT:      -6.0      3.107      7.290
  Name = 
  9 active torsions:
  status: ('A' for Active; 'I' for Inactive)
    1  A    between atoms: C_1  and  O_12
    2  A    between atoms: C_1  and  C_20
    3  A    between atoms: C_2  and  C_16
    4  A    between atoms: C_5  and  C_8
    5  A    between atoms: C_6  and  O_12
    6  A    between atoms: C_6  and  C_23
    7  A    between atoms: O_9  and  C_21
    8  A    between atoms: C_11  and  C_13
    9  A    between atoms: N_18  and  C_20
                            x       y       z     vdW  Elec       q    Type
                         _______ _______ _______ _____ _____    ______ ____

>  <TORSDO>
F 9

$$$$
=
 OpenBabel11072415233D

 25 26  0  0  1  0  0  0  0  0999 V2000
  161.9500  208.1010  150.6180 C   0  0  1  0  0  3  0  0  0  0  0  0
  160.8460  208.0520  152.6600 N   0  0  0  0  0  2  0  0  0  0  0  0
  162.4260  209.5540  150.8210 C   0  0  2  0  0  3  0  0  0  0  0  0
  160.6580  207.8880  151.2740 N   0  0  0  0  0  2  0  0  0  0  0  0
  161.0410  209.4770  152.9230 C   0  0  0  0  0  2  0  0  0  0  0  0
  162.3600  209.9350  152.3030 C   0  0  0  0  0  2  0  0  0  0  0  0
  161.9050  207.7070  149.1710 C   0  0  0  0  0  0  0  0  0  0  0  0
  160.8490  206.8620  148.7120 N   0  0  0  0  0  2  0  0  0  0  0  0
  162.8210  208.0700  148.3830 O   0  0  0  0  0  0  0  0  0  0  0  0
  160.8030  206.3260  147.3580 C   0  0  0  0  0  2  0  0  0  0  0  0
  161.8420  205.2270  147.1840 C   0  0  0  0  0  2  0  0  0  0  0  0
  161.7100  204.2810  148.2010 O   0  0  0  0  0  0  0  0  0  0  0  0
  161.2720  203.1270  147.5510 C   0  0  0  0  0  2  0  0  0  0  0  0
  160.4890  202.7570  149.7730 O   0  0  0  0  0  1  0  0  0  0  0  0
  160.7820  202.1160  148.5700 C   0  0  0  0  0  2  0  0  0  0  0  0
  162.3770  211.3610  149.0940 C   0  0  0  0  0  3  0  0  0  0  0  0
  161.7260  210.5660  149.9490 C   0  0  0  0  0  3  0  0  0  0  0  0
  162.5720  214.4410  148.1700 O   0  0  0  0  0  1  0  0  0  0  0  0
  160.7890  212.6550  146.0640 C   0  0  0  0  0  2  0  0  0  0  0  0
  160.7760  211.7070  147.2290 C   0  0  0  0  0  2  0  0  0  0  0  0
  161.6590  212.3760  148.2560 C   0  0  2  0  0  3  0  0  0  0  0  0
  162.0800  213.4360  146.2040 C   0  0  1  0  0  3  0  0  0  0  0  0
  162.6050  213.2360  147.5540 N   0  0  0  0  0  0  0  0  0  0  0  0
  163.0090  212.9740  145.2700 O   0  0  0  0  0  0  0  0  0  0  0  0
  162.5880  213.5100  144.0520 C   0  0  0  0  0  1  0  0  0  0  0  0
  1  7  1  6  0  0  0
  1  3  1  0  0  0  0
  1  4  1  0  0  0  0
  2  5  1  0  0  0  0
  3 17  1  6  0  0  0
  3  6  1  0  0  0  0
  4  2  1  0  0  0  0
  6  5  1  0  0  0  0
  8  7  1  0  0  0  0
  9  7  2  0  0  0  0
 10  8  1  0  0  0  0
 11 10  1  0  0  0  0
 11 12  1  0  0  0  0
 13 12  1  0  0  0  0
 13 15  1  0  0  0  0
 15 14  1  0  0  0  0
 16 17  2  0  0  0  0
 19 22  1  0  0  0  0
 19 20  1  0  0  0  0
 20 21  1  0  0  0  0
 21 16  1  6  0  0  0
 22 24  1  6  0  0  0
 22 23  1  0  0  0  0
 23 18  1  0  0  0  0
 23 21  1  0  0  0  0
 25 24  1  0  0  0  0
M  END
>  <MODEL>
8

>  <REMARK>
 VINA RESULT:      -5.8      2.512      6.943
  Name = 
  9 active torsions:
  status: ('A' for Active; 'I' for Inactive)
    1  A    between atoms: C_1  and  O_12
    2  A    between atoms: C_1  and  C_20
    3  A    between atoms: C_2  and  C_16
    4  A    between atoms: C_5  and  C_8
    5  A    between atoms: C_6  and  O_12
    6  A    between atoms: C_6  and  C_23
    7  A    between atoms: O_9  and  C_21
    8  A    between atoms: C_11  and  C_13
    9  A    between atoms: N_18  and  C_20
                            x       y       z     vdW  Elec       q    Type
                         _______ _______ _______ _____ _____    ______ ____

>  <TORSDO>
F 9

$$$$
=
 OpenBabel11072415233D

 25 26  0  0  1  0  0  0  0  0999 V2000
  161.9770  207.4130  150.0770 C   0  0  1  0  0  3  0  0  0  0  0  0
  160.7160  205.6120  149.3320 N   0  0  0  0  0  2  0  0  0  0  0  0
  162.1240  206.8250  151.4950 C   0  0  2  0  0  3  0  0  0  0  0  0
  160.6990  207.0120  149.4840 N   0  0  0  0  0  2  0  0  0  0  0  0
  160.5890  205.0120  150.6590 C   0  0  0  0  0  2  0  0  0  0  0  0
  161.8400  205.3210  151.4810 C   0  0  0  0  0  2  0  0  0  0  0  0
  162.1520  208.9030  150.0500 C   0  0  0  0  0  0  0  0  0  0  0  0
  161.9560  209.6060  148.8220 N   0  0  0  0  0  2  0  0  0  0  0  0
  162.5250  209.5190  151.0860 O   0  0  0  0  0  0  0  0  0  0  0  0
  162.2330  211.0290  148.6770 C   0  0  0  0  0  2  0  0  0  0  0  0
  161.1820  211.6890  147.7960 C   0  0  0  0  0  2  0  0  0  0  0  0
  161.7970  212.5400  146.8770 O   0  0  0  0  0  0  0  0  0  0  0  0
  160.7550  213.3180  146.3690 C   0  0  0  0  0  2  0  0  0  0  0  0
  160.2070  212.2190  144.3250 O   0  0  0  0  0  1  0  0  0  0  0  0
  159.7670  212.4360  145.6300 C   0  0  0  0  0  2  0  0  0  0  0  0
  161.2880  207.1480  153.8290 C   0  0  0  0  0  3  0  0  0  0  0  0
  161.3180  207.5400  152.5510 C   0  0  0  0  0  3  0  0  0  0  0  0
  160.1930  206.8190  156.8410 O   0  0  0  0  0  1  0  0  0  0  0  0
  160.2930  209.9750  155.9270 C   0  0  0  0  0  2  0  0  0  0  0  0
  160.3960  209.3440  154.5680 C   0  0  0  0  0  2  0  0  0  0  0  0
  160.4590  207.8620  154.8540 C   0  0  2  0  0  3  0  0  0  0  0  0
  160.9050  208.9660  156.8780 C   0  0  1  0  0  3  0  0  0  0  0  0
  161.0120  207.6790  156.1920 N   0  0  0  0  0  0  0  0  0  0  0  0
  162.1770  209.3960  157.2610 O   0  0  0  0  0  0  0  0  0  0  0  0
  162.1090  210.7900  157.2210 C   0  0  0  0  0  1  0  0  0  0  0  0
  1  7  1  1  0  0  0
  1  3  1  0  0  0  0
  2  4  1  0  0  0  0
  2  5  1  0  0  0  0
  3 17  1  1  0  0  0
  4  1  1  0  0  0  0
  5  6  1  0  0  0  0
  6  3  1  0  0  0  0
  7  9  2  0  0  0  0
  8  7  1  0  0  0  0
 10  8  1  0  0  0  0
 11 10  1  0  0  0  0
 12 11  1  0  0  0  0
 13 12  1  0  0  0  0
 14 15  1  0  0  0  0
 15 13  1  0  0  0  0
 17 16  2  0  0  0  0
 19 22  1  0  0  0  0
 20 21  1  0  0  0  0
 20 19  1  0  0  0  0
 21 16  1  6  0  0  0
 21 23  1  0  0  0  0
 22 24  1  6  0  0  0
 23 18  1  0  0  0  0
 23 22  1  0  0  0  0
 25 24  1  0  0  0  0
M  END
>  <MODEL>
9

>  <REMARK>
 VINA RESULT:      -5.8      3.584      6.915
  Name = 
  9 active torsions:
  status: ('A' for Active; 'I' for Inactive)
    1  A    between atoms: C_1  and  O_12
    2  A    between atoms: C_1  and  C_20
    3  A    between atoms: C_2  and  C_16
    4  A    between atoms: C_5  and  C_8
    5  A    between atoms: C_6  and  O_12
    6  A    between atoms: C_6  and  C_23
    7  A    between atoms: O_9  and  C_21
    8  A    between atoms: C_11  and  C_13
    9  A    between atoms: N_18  and  C_20
                            x       y       z     vdW  Elec       q    Type
                         _______ _______ _______ _____ _____    ______ ____

>  <TORSDO>
F 9

$$$$
