=
 OpenBabel11072411033D

 30 32  0  0  0  0  0  0  0  0999 V2000
  161.1570  205.0060  149.9060 C   0  0  0  0  0  0  0  0  0  0  0  0
  161.3680  207.6400  150.7600 N   0  0  0  0  0  0  0  0  0  0  0  0
  161.0230  204.2980  152.2310 O   0  0  0  0  0  1  0  0  0  0  0  0
  161.3060  206.0540  148.9870 C   0  0  0  0  0  3  0  0  0  0  0  0
  161.1280  205.3150  151.2880 C   0  0  0  0  0  0  0  0  0  0  0  0
  161.2290  206.6650  151.7010 C   0  0  0  0  0  0  0  0  0  0  0  0
  161.5620  208.4250  148.4950 N   0  0  0  0  0  1  0  0  0  0  0  0
  161.4120  207.3670  149.4330 C   0  0  0  0  0  0  0  0  0  0  0  0
  160.6370  201.2350  149.7220 C   0  0  0  0  0  3  0  0  0  0  0  0
  160.7800  201.0070  148.3520 C   0  0  0  0  0  3  0  0  0  0  0  0
  161.1710  203.3680  148.0050 C   0  0  0  0  0  3  0  0  0  0  0  0
  160.7620  202.5310  150.2310 C   0  0  0  0  0  3  0  0  0  0  0  0
  161.0370  203.6150  149.3820 C   0  0  0  0  0  0  0  0  0  0  0  0
  161.0460  202.0690  147.4850 C   0  0  0  0  0  0  0  0  0  0  0  0
  161.1820  201.8100  146.1180 O   0  0  0  0  0  0  0  0  0  0  0  0
  160.0640  201.6550  145.2530 C   0  0  0  0  0  1  0  0  0  0  0  0
  160.8050  208.9180  154.8430 C   0  0  0  0  0  0  0  0  0  0  0  0
  161.1970  207.0730  153.1250 C   0  0  0  0  0  0  0  0  0  0  0  0
  161.0560  208.1620  155.8210 O   0  0  0  0  0  0  0  0  0  0  0  0
  160.8640  208.4160  153.5010 N   0  0  0  0  0  2  0  0  0  0  0  0
  161.4730  206.2210  154.0120 O   0  0  0  0  0  0  0  0  0  0  0  0
  160.6350  210.9160  156.3340 C   0  0  0  0  0  3  0  0  0  0  0  0
  160.3110  212.1890  156.5400 O   0  0  0  0  0  0  0  0  0  0  0  0
  159.9190  211.1130  154.0560 C   0  0  0  0  0  3  0  0  0  0  0  0
  160.4500  210.3280  155.0790 C   0  0  0  0  0  0  0  0  0  0  0  0
  159.8030  212.9660  155.5860 C   0  0  0  0  0  0  0  0  0  0  0  0
  159.5240  214.1610  155.8650 O   0  0  0  0  0  0  0  0  0  0  0  0
  159.5850  212.4470  154.2890 C   0  0  0  0  0  0  0  0  0  0  0  0
  159.5770  213.1790  151.8990 C   0  0  0  0  0  1  0  0  0  0  0  0
  159.0560  213.1870  153.2200 O   0  0  0  0  0  0  0  0  0  0  0  0
  1  5  1  0  0  0  0
  2  6  1  0  0  0  0
  4  8  1  0  0  0  0
  4  1  2  0  0  0  0
  5  6  2  0  0  0  0
  5  3  1  0  0  0  0
  6 18  1  0  0  0  0
  7  8  1  0  0  0  0
  8  2  2  0  0  0  0
  9 12  1  0  0  0  0
 10  9  2  0  0  0  0
 11 13  1  0  0  0  0
 13  1  1  0  0  0  0
 13 12  2  0  0  0  0
 14 11  2  0  0  0  0
 14 10  1  0  0  0  0
 15 14  1  0  0  0  0
 16 15  1  0  0  0  0
 17 25  1  0  0  0  0
 17 19  2  0  0  0  0
 18 20  1  0  0  0  0
 18 21  2  0  0  0  0
 20 17  1  0  0  0  0
 22 23  1  0  0  0  0
 24 28  2  0  0  0  0
 24 25  1  0  0  0  0
 25 22  2  0  0  0  0
 26 27  2  0  0  0  0
 26 23  1  0  0  0  0
 28 26  1  0  0  0  0
 29 30  1  0  0  0  0
 30 28  1  0  0  0  0
M  END
>  <MODEL>
1

>  <REMARK>
 VINA RESULT:      -9.5      0.000      0.000
  Name = 
  5 active torsions:
  status: ('A' for Active; 'I' for Inactive)
    1  A    between atoms: C_1  and  C_19
    2  A    between atoms: C_3  and  C_28
    3  A    between atoms: C_4  and  C_24
    4  A    between atoms: O_6  and  C_29
    5  A    between atoms: O_16  and  C_30
                            x       y       z     vdW  Elec       q    Type
                         _______ _______ _______ _____ _____    ______ ____

>  <TORSDO>
F 5

$$$$
=
 OpenBabel11072411033D

 30 32  0  0  0  0  0  0  0  0999 V2000
  161.0370  209.2750  153.6100 C   0  0  0  0  0  0  0  0  0  0  0  0
  161.6600  207.9870  151.2290 N   0  0  0  0  0  0  0  0  0  0  0  0
  160.5570  207.1100  154.6150 O   0  0  0  0  0  1  0  0  0  0  0  0
  161.4140  210.0020  152.4720 C   0  0  0  0  0  3  0  0  0  0  0  0
  160.9670  207.8630  153.5200 C   0  0  0  0  0  0  0  0  0  0  0  0
  161.2970  207.2270  152.2990 C   0  0  0  0  0  0  0  0  0  0  0  0
  162.1040  210.0850  150.1380 N   0  0  0  0  0  1  0  0  0  0  0  0
  161.7210  209.3400  151.2880 C   0  0  0  0  0  0  0  0  0  0  0  0
  161.4320  211.1430  156.9070 C   0  0  0  0  0  3  0  0  0  0  0  0
  160.1060  211.4740  157.1940 C   0  0  0  0  0  3  0  0  0  0  0  0
  159.3980  210.3720  155.1610 C   0  0  0  0  0  3  0  0  0  0  0  0
  161.7380  210.4270  155.7480 C   0  0  0  0  0  3  0  0  0  0  0  0
  160.7260  210.0250  154.8610 C   0  0  0  0  0  0  0  0  0  0  0  0
  159.0820  211.0930  156.3240 C   0  0  0  0  0  0  0  0  0  0  0  0
  157.7650  211.4410  156.6360 O   0  0  0  0  0  0  0  0  0  0  0  0
  156.7400  211.5220  155.6540 C   0  0  0  0  0  1  0  0  0  0  0  0
  161.1430  203.7630  150.5350 C   0  0  0  0  0  0  0  0  0  0  0  0
  161.2590  205.7560  152.1240 C   0  0  0  0  0  0  0  0  0  0  0  0
  161.1690  202.9210  151.4730 O   0  0  0  0  0  0  0  0  0  0  0  0
  161.1870  205.1680  150.8180 N   0  0  0  0  0  2  0  0  0  0  0  0
  161.2860  205.0180  153.1460 O   0  0  0  0  0  0  0  0  0  0  0  0
  160.5550  202.0420  148.8230 C   0  0  0  0  0  3  0  0  0  0  0  0
  160.4900  201.6330  147.5600 O   0  0  0  0  0  0  0  0  0  0  0  0
  161.5050  204.1160  148.0920 C   0  0  0  0  0  3  0  0  0  0  0  0
  161.0670  203.3030  149.1380 C   0  0  0  0  0  0  0  0  0  0  0  0
  160.8980  202.3820  146.5380 C   0  0  0  0  0  0  0  0  0  0  0  0
  160.8010  201.9200  145.3720 O   0  0  0  0  0  0  0  0  0  0  0  0
  161.4290  203.6720  146.7720 C   0  0  0  0  0  0  0  0  0  0  0  0
  161.0480  205.3910  144.9970 C   0  0  0  0  0  1  0  0  0  0  0  0
  161.8840  204.5340  145.7630 O   0  0  0  0  0  0  0  0  0  0  0  0
  1 13  1  0  0  0  0
  2  8  2  0  0  0  0
  2  6  1  0  0  0  0
  4  1  2  0  0  0  0
  5  1  1  0  0  0  0
  5  3  1  0  0  0  0
  6  5  2  0  0  0  0
  7  8  1  0  0  0  0
  8  4  1  0  0  0  0
  9 10  1  0  0  0  0
 11 14  1  0  0  0  0
 12  9  2  0  0  0  0
 13 11  2  0  0  0  0
 13 12  1  0  0  0  0
 14 15  1  0  0  0  0
 14 10  2  0  0  0  0
 16 15  1  0  0  0  0
 17 20  1  0  0  0  0
 17 19  2  0  0  0  0
 18  6  1  0  0  0  0
 18 21  2  0  0  0  0
 20 18  1  0  0  0  0
 22 25  2  0  0  0  0
 23 22  1  0  0  0  0
 24 25  1  0  0  0  0
 25 17  1  0  0  0  0
 26 28  1  0  0  0  0
 26 23  1  0  0  0  0
 27 26  2  0  0  0  0
 28 24  2  0  0  0  0
 29 30  1  0  0  0  0
 30 28  1  0  0  0  0
M  END
>  <MODEL>
2

>  <REMARK>
 VINA RESULT:      -9.4      1.890      9.588
  Name = 
  5 active torsions:
  status: ('A' for Active; 'I' for Inactive)
    1  A    between atoms: C_1  and  C_19
    2  A    between atoms: C_3  and  C_28
    3  A    between atoms: C_4  and  C_24
    4  A    between atoms: O_6  and  C_29
    5  A    between atoms: O_16  and  C_30
                            x       y       z     vdW  Elec       q    Type
                         _______ _______ _______ _____ _____    ______ ____

>  <TORSDO>
F 5

$$$$
=
 OpenBabel11072411033D

 30 32  0  0  0  0  0  0  0  0999 V2000
  161.1650  205.5380  149.1180 C   0  0  0  0  0  0  0  0  0  0  0  0
  161.1980  206.1070  151.8360 N   0  0  0  0  0  0  0  0  0  0  0  0
  161.3450  207.9210  148.6520 O   0  0  0  0  0  1  0  0  0  0  0  0
  161.0570  204.5170  150.0720 C   0  0  0  0  0  3  0  0  0  0  0  0
  161.2790  206.8760  149.5680 C   0  0  0  0  0  0  0  0  0  0  0  0
  161.3020  207.1430  150.9580 C   0  0  0  0  0  0  0  0  0  0  0  0
  160.9670  203.7780  152.3910 N   0  0  0  0  0  1  0  0  0  0  0  0
  161.0750  204.8200  151.4290 C   0  0  0  0  0  0  0  0  0  0  0  0
  161.1540  205.7740  145.3150 C   0  0  0  0  0  3  0  0  0  0  0  0
  161.1650  204.4240  144.9580 C   0  0  0  0  0  3  0  0  0  0  0  0
  161.1690  203.8110  147.2980 C   0  0  0  0  0  3  0  0  0  0  0  0
  161.1510  206.1390  146.6630 C   0  0  0  0  0  3  0  0  0  0  0  0
  161.1510  205.1650  147.6740 C   0  0  0  0  0  0  0  0  0  0  0  0
  161.1740  203.4350  145.9450 C   0  0  0  0  0  0  0  0  0  0  0  0
  161.1880  202.0920  145.5570 O   0  0  0  0  0  0  0  0  0  0  0  0
  160.0290  201.4200  145.0800 C   0  0  0  0  0  1  0  0  0  0  0  0
  160.4920  210.3310  153.0350 C   0  0  0  0  0  0  0  0  0  0  0  0
  161.4290  208.5120  151.5110 C   0  0  0  0  0  0  0  0  0  0  0  0
  161.4150  211.1430  152.7550 O   0  0  0  0  0  0  0  0  0  0  0  0
  160.4670  209.0250  152.4420 N   0  0  0  0  0  2  0  0  0  0  0  0
  162.3990  209.2310  151.1470 O   0  0  0  0  0  0  0  0  0  0  0  0
  159.4650  210.3130  155.3130 C   0  0  0  0  0  3  0  0  0  0  0  0
  158.5040  210.6710  156.1580 O   0  0  0  0  0  0  0  0  0  0  0  0
  158.3620  211.5170  153.5610 C   0  0  0  0  0  3  0  0  0  0  0  0
  159.4310  210.7230  153.9770 C   0  0  0  0  0  0  0  0  0  0  0  0
  157.4710  211.4270  155.7940 C   0  0  0  0  0  0  0  0  0  0  0  0
  156.6030  211.7210  156.6570 O   0  0  0  0  0  0  0  0  0  0  0  0
  157.3610  211.8850  154.4600 C   0  0  0  0  0  0  0  0  0  0  0  0
  156.4850  213.9250  153.3120 C   0  0  0  0  0  1  0  0  0  0  0  0
  156.3120  212.6850  153.9830 O   0  0  0  0  0  0  0  0  0  0  0  0
  1  5  2  0  0  0  0
  1  4  1  0  0  0  0
  3  5  1  0  0  0  0
  4  8  2  0  0  0  0
  5  6  1  0  0  0  0
  6 18  1  0  0  0  0
  6  2  2  0  0  0  0
  8  2  1  0  0  0  0
  8  7  1  0  0  0  0
  9 12  1  0  0  0  0
 10  9  2  0  0  0  0
 10 14  1  0  0  0  0
 11 13  1  0  0  0  0
 12 13  2  0  0  0  0
 13  1  1  0  0  0  0
 14 11  2  0  0  0  0
 15 14  1  0  0  0  0
 16 15  1  0  0  0  0
 17 25  1  0  0  0  0
 18 20  1  0  0  0  0
 19 17  2  0  0  0  0
 20 17  1  0  0  0  0
 21 18  2  0  0  0  0
 22 23  1  0  0  0  0
 24 25  1  0  0  0  0
 24 28  2  0  0  0  0
 25 22  2  0  0  0  0
 26 23  1  0  0  0  0
 26 27  2  0  0  0  0
 28 26  1  0  0  0  0
 29 30  1  0  0  0  0
 30 28  1  0  0  0  0
M  END
>  <MODEL>
3

>  <REMARK>
 VINA RESULT:      -9.1      2.431      3.157
  Name = 
  5 active torsions:
  status: ('A' for Active; 'I' for Inactive)
    1  A    between atoms: C_1  and  C_19
    2  A    between atoms: C_3  and  C_28
    3  A    between atoms: C_4  and  C_24
    4  A    between atoms: O_6  and  C_29
    5  A    between atoms: O_16  and  C_30
                            x       y       z     vdW  Elec       q    Type
                         _______ _______ _______ _____ _____    ______ ____

>  <TORSDO>
F 5

$$$$
=
 OpenBabel11072411033D

 30 32  0  0  0  0  0  0  0  0999 V2000
  161.0960  204.7100  148.2740 C   0  0  0  0  0  0  0  0  0  0  0  0
  161.1090  207.2620  147.1770 N   0  0  0  0  0  0  0  0  0  0  0  0
  161.7390  205.6670  150.4180 O   0  0  0  0  0  1  0  0  0  0  0  0
  160.8080  204.9160  146.9170 C   0  0  0  0  0  3  0  0  0  0  0  0
  161.4070  205.8340  149.0780 C   0  0  0  0  0  0  0  0  0  0  0  0
  161.4000  207.1260  148.5000 C   0  0  0  0  0  0  0  0  0  0  0  0
  160.5270  206.4000  145.0070 N   0  0  0  0  0  1  0  0  0  0  0  0
  160.8210  206.2000  146.3850 C   0  0  0  0  0  0  0  0  0  0  0  0
  160.7010  201.7370  150.6230 C   0  0  0  0  0  3  0  0  0  0  0  0
  160.9670  200.6710  149.7610 C   0  0  0  0  0  3  0  0  0  0  0  0
  161.3190  202.2320  147.9480 C   0  0  0  0  0  3  0  0  0  0  0  0
  160.7450  203.0490  150.1460 C   0  0  0  0  0  3  0  0  0  0  0  0
  161.0610  203.3170  148.8040 C   0  0  0  0  0  0  0  0  0  0  0  0
  161.2760  200.9100  148.4200 C   0  0  0  0  0  0  0  0  0  0  0  0
  161.5340  199.8230  147.5800 O   0  0  0  0  0  0  0  0  0  0  0  0
  161.2000  199.8250  146.1980 C   0  0  0  0  0  1  0  0  0  0  0  0
  161.6640  209.5690  151.5160 C   0  0  0  0  0  0  0  0  0  0  0  0
  161.7050  208.3530  149.2730 C   0  0  0  0  0  0  0  0  0  0  0  0
  162.1840  210.6150  151.0410 O   0  0  0  0  0  0  0  0  0  0  0  0
  161.4140  208.4350  150.6750 N   0  0  0  0  0  2  0  0  0  0  0  0
  162.2220  209.3380  148.6790 O   0  0  0  0  0  0  0  0  0  0  0  0
  160.9830  208.2960  153.5550 C   0  0  0  0  0  3  0  0  0  0  0  0
  160.6640  208.2510  154.8450 O   0  0  0  0  0  0  0  0  0  0  0  0
  161.2910  210.6660  153.7250 C   0  0  0  0  0  3  0  0  0  0  0  0
  161.3100  209.5100  152.9440 C   0  0  0  0  0  0  0  0  0  0  0  0
  160.6370  209.3330  155.6180 C   0  0  0  0  0  0  0  0  0  0  0  0
  160.3240  209.2030  156.8300 O   0  0  0  0  0  0  0  0  0  0  0  0
  160.9540  210.6010  155.0770 C   0  0  0  0  0  0  0  0  0  0  0  0
  159.8730  212.7170  155.8510 C   0  0  0  0  0  1  0  0  0  0  0  0
  160.9540  211.7960  155.8110 O   0  0  0  0  0  0  0  0  0  0  0  0
  1 13  1  0  0  0  0
  1  5  1  0  0  0  0
  2  6  1  0  0  0  0
  4  1  2  0  0  0  0
  5  3  1  0  0  0  0
  6  5  2  0  0  0  0
  6 18  1  0  0  0  0
  7  8  1  0  0  0  0
  8  4  1  0  0  0  0
  8  2  2  0  0  0  0
 10  9  2  0  0  0  0
 11 14  2  0  0  0  0
 11 13  1  0  0  0  0
 12  9  1  0  0  0  0
 13 12  2  0  0  0  0
 14 10  1  0  0  0  0
 15 14  1  0  0  0  0
 16 15  1  0  0  0  0
 17 25  1  0  0  0  0
 18 20  1  0  0  0  0
 19 17  2  0  0  0  0
 20 17  1  0  0  0  0
 21 18  2  0  0  0  0
 22 23  1  0  0  0  0
 23 26  1  0  0  0  0
 24 28  2  0  0  0  0
 25 22  2  0  0  0  0
 25 24  1  0  0  0  0
 26 27  2  0  0  0  0
 28 26  1  0  0  0  0
 28 30  1  0  0  0  0
 30 29  1  0  0  0  0
M  END
>  <MODEL>
4

>  <REMARK>
 VINA RESULT:      -8.9      2.150      3.226
  Name = 
  5 active torsions:
  status: ('A' for Active; 'I' for Inactive)
    1  A    between atoms: C_1  and  C_19
    2  A    between atoms: C_3  and  C_28
    3  A    between atoms: C_4  and  C_24
    4  A    between atoms: O_6  and  C_29
    5  A    between atoms: O_16  and  C_30
                            x       y       z     vdW  Elec       q    Type
                         _______ _______ _______ _____ _____    ______ ____

>  <TORSDO>
F 5

$$$$
=
 OpenBabel11072411033D

 30 32  0  0  0  0  0  0  0  0999 V2000
  160.8910  208.6650  152.8710 C   0  0  0  0  0  0  0  0  0  0  0  0
  161.4770  206.2120  151.7100 N   0  0  0  0  0  0  0  0  0  0  0  0
  161.2810  209.7370  150.7200 O   0  0  0  0  0  1  0  0  0  0  0  0
  160.8810  207.4860  153.6290 C   0  0  0  0  0  3  0  0  0  0  0  0
  161.2200  208.5840  151.4960 C   0  0  0  0  0  0  0  0  0  0  0  0
  161.5080  207.3220  150.9230 C   0  0  0  0  0  0  0  0  0  0  0  0
  161.1640  205.0750  153.8070 N   0  0  0  0  0  1  0  0  0  0  0  0
  161.1780  206.2670  153.0310 C   0  0  0  0  0  0  0  0  0  0  0  0
  160.8940  211.5630  155.3460 C   0  0  0  0  0  3  0  0  0  0  0  0
  159.9240  212.3990  154.7870 C   0  0  0  0  0  3  0  0  0  0  0  0
  159.5880  210.8060  152.9990 C   0  0  0  0  0  3  0  0  0  0  0  0
  161.2070  210.3490  154.7290 C   0  0  0  0  0  3  0  0  0  0  0  0
  160.5550  209.9500  153.5510 C   0  0  0  0  0  0  0  0  0  0  0  0
  159.2670  212.0280  153.6120 C   0  0  0  0  0  0  0  0  0  0  0  0
  158.3040  212.8870  153.0760 O   0  0  0  0  0  0  0  0  0  0  0  0
  157.1730  213.3280  153.8150 C   0  0  0  0  0  1  0  0  0  0  0  0
  161.8200  205.6620  147.4190 C   0  0  0  0  0  0  0  0  0  0  0  0
  161.8510  207.1490  149.4920 C   0  0  0  0  0  0  0  0  0  0  0  0
  162.3990  206.5240  146.7020 O   0  0  0  0  0  0  0  0  0  0  0  0
  161.5330  205.9360  148.7970 N   0  0  0  0  0  2  0  0  0  0  0  0
  162.4350  208.0880  148.8850 O   0  0  0  0  0  0  0  0  0  0  0  0
  161.1730  204.2370  145.4710 C   0  0  0  0  0  3  0  0  0  0  0  0
  160.8260  203.0630  144.9540 O   0  0  0  0  0  0  0  0  0  0  0  0
  161.3250  203.2270  147.6380 C   0  0  0  0  0  3  0  0  0  0  0  0
  161.4360  204.3640  146.8380 C   0  0  0  0  0  0  0  0  0  0  0  0
  160.7110  201.9580  145.6880 C   0  0  0  0  0  0  0  0  0  0  0  0
  160.3790  200.8860  145.1190 O   0  0  0  0  0  0  0  0  0  0  0  0
  160.9610  202.0020  147.0790 C   0  0  0  0  0  0  0  0  0  0  0  0
  161.1150  200.9300  149.3320 C   0  0  0  0  0  1  0  0  0  0  0  0
  160.8670  200.8940  147.9340 O   0  0  0  0  0  0  0  0  0  0  0  0
  1 13  1  0  0  0  0
  1  4  1  0  0  0  0
  2  8  1  0  0  0  0
  3  5  1  0  0  0  0
  5  1  2  0  0  0  0
  6  5  1  0  0  0  0
  6  2  2  0  0  0  0
  8  4  2  0  0  0  0
  8  7  1  0  0  0  0
 10  9  1  0  0  0  0
 11 13  2  0  0  0  0
 11 14  1  0  0  0  0
 12  9  2  0  0  0  0
 13 12  1  0  0  0  0
 14 10  2  0  0  0  0
 15 14  1  0  0  0  0
 15 16  1  0  0  0  0
 17 20  1  0  0  0  0
 18  6  1  0  0  0  0
 19 17  2  0  0  0  0
 20 18  1  0  0  0  0
 21 18  2  0  0  0  0
 22 25  2  0  0  0  0
 23 22  1  0  0  0  0
 23 26  1  0  0  0  0
 25 17  1  0  0  0  0
 25 24  1  0  0  0  0
 26 28  1  0  0  0  0
 27 26  2  0  0  0  0
 28 24  2  0  0  0  0
 28 30  1  0  0  0  0
 30 29  1  0  0  0  0
M  END
>  <MODEL>
5

>  <REMARK>
 VINA RESULT:      -8.9      2.318     10.084
  Name = 
  5 active torsions:
  status: ('A' for Active; 'I' for Inactive)
    1  A    between atoms: C_1  and  C_19
    2  A    between atoms: C_3  and  C_28
    3  A    between atoms: C_4  and  C_24
    4  A    between atoms: O_6  and  C_29
    5  A    between atoms: O_16  and  C_30
                            x       y       z     vdW  Elec       q    Type
                         _______ _______ _______ _____ _____    ______ ____

>  <TORSDO>
F 5

$$$$
=
 OpenBabel11072411033D

 30 32  0  0  0  0  0  0  0  0999 V2000
  161.5250  206.0590  148.9740 C   0  0  0  0  0  0  0  0  0  0  0  0
  161.7320  208.3360  150.5500 N   0  0  0  0  0  0  0  0  0  0  0  0
  161.0720  204.7540  150.9790 O   0  0  0  0  0  1  0  0  0  0  0  0
  161.8300  207.3050  148.4080 C   0  0  0  0  0  3  0  0  0  0  0  0
  161.3350  205.9800  150.3750 C   0  0  0  0  0  0  0  0  0  0  0  0
  161.4370  207.1540  151.1580 C   0  0  0  0  0  0  0  0  0  0  0  0
  162.2400  209.6950  148.6300 N   0  0  0  0  0  1  0  0  0  0  0  0
  161.9310  208.4340  149.2130 C   0  0  0  0  0  0  0  0  0  0  0  0
  161.4610  203.8810  145.8480 C   0  0  0  0  0  3  0  0  0  0  0  0
  161.2450  202.6170  146.4010 C   0  0  0  0  0  3  0  0  0  0  0  0
  161.2060  203.5970  148.6110 C   0  0  0  0  0  3  0  0  0  0  0  0
  161.5490  205.0000  146.6790 C   0  0  0  0  0  3  0  0  0  0  0  0
  161.4170  204.8770  148.0710 C   0  0  0  0  0  0  0  0  0  0  0  0
  161.1180  202.4660  147.7840 C   0  0  0  0  0  0  0  0  0  0  0  0
  160.9050  201.1880  148.3080 O   0  0  0  0  0  0  0  0  0  0  0  0
  160.8370  200.9330  149.7050 C   0  0  0  0  0  1  0  0  0  0  0  0
  160.8090  208.5020  154.7530 C   0  0  0  0  0  0  0  0  0  0  0  0
  161.2430  207.1590  152.6270 C   0  0  0  0  0  0  0  0  0  0  0  0
  160.8310  207.4790  155.4910 O   0  0  0  0  0  0  0  0  0  0  0  0
  161.0070  208.3820  153.3380 N   0  0  0  0  0  2  0  0  0  0  0  0
  161.2940  206.0660  153.2550 O   0  0  0  0  0  0  0  0  0  0  0  0
  161.5430  210.4330  156.1580 C   0  0  0  0  0  3  0  0  0  0  0  0
  161.3270  211.6310  156.6910 O   0  0  0  0  0  0  0  0  0  0  0  0
  159.3890  210.5200  155.1140 C   0  0  0  0  0  3  0  0  0  0  0  0
  160.5780  209.8300  155.3470 C   0  0  0  0  0  0  0  0  0  0  0  0
  160.2050  212.3180  156.4900 C   0  0  0  0  0  0  0  0  0  0  0  0
  160.0810  213.4470  157.0310 O   0  0  0  0  0  0  0  0  0  0  0  0
  159.1790  211.7770  155.6810 C   0  0  0  0  0  0  0  0  0  0  0  0
  156.8760  211.8360  154.7100 C   0  0  0  0  0  1  0  0  0  0  0  0
  157.9630  212.4240  155.4100 O   0  0  0  0  0  0  0  0  0  0  0  0
  1  5  1  0  0  0  0
  2  6  1  0  0  0  0
  4  1  2  0  0  0  0
  4  8  1  0  0  0  0
  5  3  1  0  0  0  0
  5  6  2  0  0  0  0
  6 18  1  0  0  0  0
  7  8  1  0  0  0  0
  8  2  2  0  0  0  0
  9 10  2  0  0  0  0
  9 12  1  0  0  0  0
 10 14  1  0  0  0  0
 12 13  2  0  0  0  0
 13 11  1  0  0  0  0
 13  1  1  0  0  0  0
 14 15  1  0  0  0  0
 14 11  2  0  0  0  0
 15 16  1  0  0  0  0
 17 25  1  0  0  0  0
 17 19  2  0  0  0  0
 18 21  2  0  0  0  0
 18 20  1  0  0  0  0
 20 17  1  0  0  0  0
 22 23  1  0  0  0  0
 24 25  1  0  0  0  0
 24 28  2  0  0  0  0
 25 22  2  0  0  0  0
 26 23  1  0  0  0  0
 26 27  2  0  0  0  0
 28 26  1  0  0  0  0
 29 30  1  0  0  0  0
 30 28  1  0  0  0  0
M  END
>  <MODEL>
6

>  <REMARK>
 VINA RESULT:      -8.9      1.406      2.058
  Name = 
  5 active torsions:
  status: ('A' for Active; 'I' for Inactive)
    1  A    between atoms: C_1  and  C_19
    2  A    between atoms: C_3  and  C_28
    3  A    between atoms: C_4  and  C_24
    4  A    between atoms: O_6  and  C_29
    5  A    between atoms: O_16  and  C_30
                            x       y       z     vdW  Elec       q    Type
                         _______ _______ _______ _____ _____    ______ ____

>  <TORSDO>
F 5

$$$$
=
 OpenBabel11072411033D

 30 32  0  0  0  0  0  0  0  0999 V2000
  159.6960  210.4390  154.7250 C   0  0  0  0  0  0  0  0  0  0  0  0
  160.9450  207.9900  154.3300 N   0  0  0  0  0  0  0  0  0  0  0  0
  160.1000  210.9830  152.3860 O   0  0  0  0  0  1  0  0  0  0  0  0
  159.8540  209.5300  155.7800 C   0  0  0  0  0  3  0  0  0  0  0  0
  160.2000  210.0900  153.4480 C   0  0  0  0  0  0  0  0  0  0  0  0
  160.8260  208.8330  153.2670 C   0  0  0  0  0  0  0  0  0  0  0  0
  160.6370  207.3900  156.6390 N   0  0  0  0  0  1  0  0  0  0  0  0
  160.4830  208.3080  155.5640 C   0  0  0  0  0  0  0  0  0  0  0  0
  159.0430  214.0500  155.7520 C   0  0  0  0  0  3  0  0  0  0  0  0
  157.6810  214.1710  155.4700 C   0  0  0  0  0  3  0  0  0  0  0  0
  157.6380  211.8740  154.7160 C   0  0  0  0  0  3  0  0  0  0  0  0
  159.7000  212.8400  155.5150 C   0  0  0  0  0  3  0  0  0  0  0  0
  159.0070  211.7330  155.0000 C   0  0  0  0  0  0  0  0  0  0  0  0
  156.9700  213.0870  154.9500 C   0  0  0  0  0  0  0  0  0  0  0  0
  155.6080  213.2390  154.6760 O   0  0  0  0  0  0  0  0  0  0  0  0
  155.1290  213.8480  153.4840 C   0  0  0  0  0  1  0  0  0  0  0  0
  161.6020  206.5260  150.2330 C   0  0  0  0  0  0  0  0  0  0  0  0
  161.3690  208.3870  151.9630 C   0  0  0  0  0  0  0  0  0  0  0  0
  162.3030  207.2340  149.4580 O   0  0  0  0  0  0  0  0  0  0  0  0
  161.1240  207.0610  151.4740 N   0  0  0  0  0  2  0  0  0  0  0  0
  162.0620  209.1910  151.2820 O   0  0  0  0  0  0  0  0  0  0  0  0
  160.8330  204.2220  150.8200 C   0  0  0  0  0  3  0  0  0  0  0  0
  160.5370  202.9730  150.4770 O   0  0  0  0  0  0  0  0  0  0  0  0
  161.3880  204.7070  148.5400 C   0  0  0  0  0  3  0  0  0  0  0  0
  161.2720  205.1400  149.8610 C   0  0  0  0  0  0  0  0  0  0  0  0
  160.6370  202.5260  149.2270 C   0  0  0  0  0  0  0  0  0  0  0  0
  160.3360  201.3280  148.9860 O   0  0  0  0  0  0  0  0  0  0  0  0
  161.0730  203.3920  148.1970 C   0  0  0  0  0  0  0  0  0  0  0  0
  161.6470  203.8780  145.8130 C   0  0  0  0  0  1  0  0  0  0  0  0
  161.2080  203.0150  146.8520 O   0  0  0  0  0  0  0  0  0  0  0  0
  1 13  1  0  0  0  0
  1  4  1  0  0  0  0
  2  8  1  0  0  0  0
  3  5  1  0  0  0  0
  5  1  2  0  0  0  0
  6  5  1  0  0  0  0
  6  2  2  0  0  0  0
  8  4  2  0  0  0  0
  8  7  1  0  0  0  0
 10  9  2  0  0  0  0
 11 14  2  0  0  0  0
 11 13  1  0  0  0  0
 12  9  1  0  0  0  0
 13 12  2  0  0  0  0
 14 10  1  0  0  0  0
 15 14  1  0  0  0  0
 16 15  1  0  0  0  0
 17 20  1  0  0  0  0
 18  6  1  0  0  0  0
 19 17  2  0  0  0  0
 20 18  1  0  0  0  0
 21 18  2  0  0  0  0
 23 22  1  0  0  0  0
 24 25  1  0  0  0  0
 25 17  1  0  0  0  0
 25 22  2  0  0  0  0
 26 23  1  0  0  0  0
 27 26  2  0  0  0  0
 28 24  2  0  0  0  0
 28 26  1  0  0  0  0
 29 30  1  0  0  0  0
 30 28  1  0  0  0  0
M  END
>  <MODEL>
7

>  <REMARK>
 VINA RESULT:      -8.7      2.231      9.954
  Name = 
  5 active torsions:
  status: ('A' for Active; 'I' for Inactive)
    1  A    between atoms: C_1  and  C_19
    2  A    between atoms: C_3  and  C_28
    3  A    between atoms: C_4  and  C_24
    4  A    between atoms: O_6  and  C_29
    5  A    between atoms: O_16  and  C_30
                            x       y       z     vdW  Elec       q    Type
                         _______ _______ _______ _____ _____    ______ ____

>  <TORSDO>
F 5

$$$$
=
 OpenBabel11072411033D

 30 32  0  0  0  0  0  0  0  0999 V2000
  161.0430  205.6790  149.1310 C   0  0  0  0  0  0  0  0  0  0  0  0
  161.1740  206.0580  151.8780 N   0  0  0  0  0  0  0  0  0  0  0  0
  161.3400  208.0760  148.8210 O   0  0  0  0  0  1  0  0  0  0  0  0
  160.9040  204.6020  150.0160 C   0  0  0  0  0  3  0  0  0  0  0  0
  161.2400  206.9760  149.6660 C   0  0  0  0  0  0  0  0  0  0  0  0
  161.3120  207.1450  151.0690 C   0  0  0  0  0  0  0  0  0  0  0  0
  160.8310  203.7110  152.2810 N   0  0  0  0  0  1  0  0  0  0  0  0
  160.9710  204.8100  151.3890 C   0  0  0  0  0  0  0  0  0  0  0  0
  160.6620  206.1620  145.3700 C   0  0  0  0  0  3  0  0  0  0  0  0
  160.8880  204.8650  144.9050 C   0  0  0  0  0  3  0  0  0  0  0  0
  161.2060  204.1100  147.1800 C   0  0  0  0  0  3  0  0  0  0  0  0
  160.7080  206.4300  146.7400 C   0  0  0  0  0  3  0  0  0  0  0  0
  160.9730  205.4080  147.6660 C   0  0  0  0  0  0  0  0  0  0  0  0
  161.1630  203.8320  145.8040 C   0  0  0  0  0  0  0  0  0  0  0  0
  161.3880  202.5450  145.3080 O   0  0  0  0  0  0  0  0  0  0  0  0
  160.4230  201.5050  145.4070 C   0  0  0  0  0  1  0  0  0  0  0  0
  160.5110  210.5540  152.7620 C   0  0  0  0  0  0  0  0  0  0  0  0
  161.5270  208.4640  151.7090 C   0  0  0  0  0  0  0  0  0  0  0  0
  161.6370  211.0780  152.9840 O   0  0  0  0  0  0  0  0  0  0  0  0
  160.4190  209.2670  152.1370 N   0  0  0  0  0  2  0  0  0  0  0  0
  162.7060  208.8810  151.8720 O   0  0  0  0  0  0  0  0  0  0  0  0
  158.9000  212.4450  152.4970 C   0  0  0  0  0  3  0  0  0  0  0  0
  157.7890  213.0840  152.8500 O   0  0  0  0  0  0  0  0  0  0  0  0
  158.4660  210.7870  154.1700 C   0  0  0  0  0  3  0  0  0  0  0  0
  159.2820  211.2680  153.1470 C   0  0  0  0  0  0  0  0  0  0  0  0
  156.9880  212.6530  153.8220 C   0  0  0  0  0  0  0  0  0  0  0  0
  155.9540  213.3170  154.0930 O   0  0  0  0  0  0  0  0  0  0  0  0
  157.3030  211.4690  154.5280 C   0  0  0  0  0  0  0  0  0  0  0  0
  155.2510  210.3280  155.3860 C   0  0  0  0  0  1  0  0  0  0  0  0
  156.5220  210.9360  155.5650 O   0  0  0  0  0  0  0  0  0  0  0  0
  1  5  2  0  0  0  0
  1  4  1  0  0  0  0
  3  5  1  0  0  0  0
  4  8  2  0  0  0  0
  5  6  1  0  0  0  0
  6 18  1  0  0  0  0
  6  2  2  0  0  0  0
  8  2  1  0  0  0  0
  8  7  1  0  0  0  0
  9 12  1  0  0  0  0
 10  9  2  0  0  0  0
 10 14  1  0  0  0  0
 11 13  1  0  0  0  0
 12 13  2  0  0  0  0
 13  1  1  0  0  0  0
 14 11  2  0  0  0  0
 15 16  1  0  0  0  0
 15 14  1  0  0  0  0
 17 19  2  0  0  0  0
 17 25  1  0  0  0  0
 18 21  2  0  0  0  0
 18 20  1  0  0  0  0
 20 17  1  0  0  0  0
 22 23  1  0  0  0  0
 22 25  2  0  0  0  0
 23 26  1  0  0  0  0
 24 28  2  0  0  0  0
 25 24  1  0  0  0  0
 26 27  2  0  0  0  0
 26 28  1  0  0  0  0
 28 30  1  0  0  0  0
 29 30  1  0  0  0  0
M  END
>  <MODEL>
8

>  <REMARK>
 VINA RESULT:      -8.5      2.541      3.573
  Name = 
  5 active torsions:
  status: ('A' for Active; 'I' for Inactive)
    1  A    between atoms: C_1  and  C_19
    2  A    between atoms: C_3  and  C_28
    3  A    between atoms: C_4  and  C_24
    4  A    between atoms: O_6  and  C_29
    5  A    between atoms: O_16  and  C_30
                            x       y       z     vdW  Elec       q    Type
                         _______ _______ _______ _____ _____    ______ ____

>  <TORSDO>
F 5

$$$$
=
 OpenBabel11072411033D

 30 32  0  0  0  0  0  0  0  0999 V2000
  161.0890  209.6880  152.3700 C   0  0  0  0  0  0  0  0  0  0  0  0
  161.2240  207.6660  154.2680 N   0  0  0  0  0  0  0  0  0  0  0  0
  161.0550  207.9960  150.6200 O   0  0  0  0  0  1  0  0  0  0  0  0
  161.1690  209.9850  153.7370 C   0  0  0  0  0  3  0  0  0  0  0  0
  161.0910  208.3290  151.9700 C   0  0  0  0  0  0  0  0  0  0  0  0
  161.1520  207.3150  152.9540 C   0  0  0  0  0  0  0  0  0  0  0  0
  161.3170  209.2690  156.0600 N   0  0  0  0  0  1  0  0  0  0  0  0
  161.2370  208.9600  154.6740 C   0  0  0  0  0  0  0  0  0  0  0  0
  160.0880  212.9650  150.7020 C   0  0  0  0  0  3  0  0  0  0  0  0
  160.9090  212.9580  149.5720 C   0  0  0  0  0  3  0  0  0  0  0  0
  161.8320  210.8320  150.2630 C   0  0  0  0  0  3  0  0  0  0  0  0
  160.1410  211.9050  151.6100 C   0  0  0  0  0  3  0  0  0  0  0  0
  161.0080  210.8200  151.4010 C   0  0  0  0  0  0  0  0  0  0  0  0
  161.7860  211.8940  149.3460 C   0  0  0  0  0  0  0  0  0  0  0  0
  162.5970  211.9160  148.2080 O   0  0  0  0  0  0  0  0  0  0  0  0
  162.3370  212.7640  147.0970 C   0  0  0  0  0  1  0  0  0  0  0  0
  161.1510  204.0600  150.8240 C   0  0  0  0  0  0  0  0  0  0  0  0
  161.1480  205.8710  152.6210 C   0  0  0  0  0  0  0  0  0  0  0  0
  161.1400  203.1220  151.6660 O   0  0  0  0  0  0  0  0  0  0  0  0
  161.1570  205.4270  151.2580 N   0  0  0  0  0  2  0  0  0  0  0  0
  161.1320  205.0270  153.5580 O   0  0  0  0  0  0  0  0  0  0  0  0
  160.9810  202.4440  148.9260 C   0  0  0  0  0  3  0  0  0  0  0  0
  160.9880  202.1740  147.6240 O   0  0  0  0  0  0  0  0  0  0  0  0
  161.3410  204.7610  148.4370 C   0  0  0  0  0  3  0  0  0  0  0  0
  161.1580  203.7530  149.3830 C   0  0  0  0  0  0  0  0  0  0  0  0
  161.1610  203.1120  146.6950 C   0  0  0  0  0  0  0  0  0  0  0  0
  161.1540  202.7710  145.4840 O   0  0  0  0  0  0  0  0  0  0  0  0
  161.3460  204.4610  147.0750 C   0  0  0  0  0  0  0  0  0  0  0  0
  160.4840  206.2690  145.5800 C   0  0  0  0  0  1  0  0  0  0  0  0
  161.5340  205.5180  146.1710 O   0  0  0  0  0  0  0  0  0  0  0  0
  1  4  1  0  0  0  0
  2  8  1  0  0  0  0
  3  5  1  0  0  0  0
  4  8  2  0  0  0  0
  5  1  2  0  0  0  0
  5  6  1  0  0  0  0
  6  2  2  0  0  0  0
  8  7  1  0  0  0  0
  9 12  1  0  0  0  0
 10  9  2  0  0  0  0
 11 13  1  0  0  0  0
 13 12  2  0  0  0  0
 13  1  1  0  0  0  0
 14 10  1  0  0  0  0
 14 11  2  0  0  0  0
 15 14  1  0  0  0  0
 16 15  1  0  0  0  0
 17 20  1  0  0  0  0
 17 19  2  0  0  0  0
 18  6  1  0  0  0  0
 18 21  2  0  0  0  0
 20 18  1  0  0  0  0
 22 25  2  0  0  0  0
 23 22  1  0  0  0  0
 24 25  1  0  0  0  0
 25 17  1  0  0  0  0
 26 28  1  0  0  0  0
 26 23  1  0  0  0  0
 27 26  2  0  0  0  0
 28 24  2  0  0  0  0
 29 30  1  0  0  0  0
 30 28  1  0  0  0  0
M  END
>  <MODEL>
9

>  <REMARK>
 VINA RESULT:      -8.5      2.988      8.800
  Name = 
  5 active torsions:
  status: ('A' for Active; 'I' for Inactive)
    1  A    between atoms: C_1  and  C_19
    2  A    between atoms: C_3  and  C_28
    3  A    between atoms: C_4  and  C_24
    4  A    between atoms: O_6  and  C_29
    5  A    between atoms: O_16  and  C_30
                            x       y       z     vdW  Elec       q    Type
                         _______ _______ _______ _____ _____    ______ ____

>  <TORSDO>
F 5

$$$$
