=
 OpenBabel11072410283D

 32 34  0  0  1  0  0  0  0  0999 V2000
  160.9850  206.8900  154.6290 O   0  0  0  0  0  0  0  0  0  0  0  0
  160.9610  210.0890  153.3390 C   0  0  0  0  0  0  0  0  0  0  0  0
  160.9050  208.7830  153.1390 C   0  0  0  0  0  0  0  0  0  0  0  0
  161.1160  209.0930  155.4630 N   0  0  0  0  0  2  0  0  0  0  0  0
  161.0000  208.1320  154.4260 C   0  0  0  0  0  0  0  0  0  0  0  0
  160.9190  211.1120  152.2540 C   0  0  0  0  0  1  0  0  0  0  0  0
  161.1030  210.4020  154.8090 C   0  0  2  0  0  3  0  0  0  0  0  0
  160.2520  212.4870  156.0470 C   0  0  0  0  0  3  0  0  0  0  0  0
  157.4950  211.3560  155.6810 C   0  0  1  0  0  3  0  0  0  0  0  0
  159.9600  211.2340  155.3070 C   0  0  0  0  0  0  0  0  0  0  0  0
  156.4110  210.5410  155.3980 F   0  0  0  0  0  0  0  0  0  0  0  0
  158.2090  213.7750  155.5390 N   0  0  0  0  0  2  0  0  0  0  0  0
  158.7340  210.7400  155.1290 C   0  0  0  0  0  3  0  0  0  0  0  0
  157.3140  212.7390  155.1400 C   0  0  0  0  0  0  0  0  0  0  0  0
  159.4950  213.5890  156.1460 C   0  0  0  0  0  3  0  0  0  0  0  0
  155.9900  213.1380  154.2620 S   0  0  0  0  0  0  0  0  0  0  0  0
  160.7680  208.1560  151.8580 N   0  0  0  0  0  2  0  0  0  0  0  0
  162.3290  207.7120  150.2250 C   0  0  0  0  0  1  0  0  0  0  0  0
  161.6630  207.1740  151.4030 N   0  0  0  0  0  0  0  0  0  0  0  0
  161.6060  204.4010  148.3620 C   0  0  0  0  0  0  0  0  0  0  0  0
  161.7470  204.6980  151.2680 C   0  0  0  0  0  2  0  0  0  0  0  0
  160.1480  206.0190  149.7200 C   0  0  0  0  0  2  0  0  0  0  0  0
  161.0140  205.6860  148.5960 N   0  0  0  0  0  2  0  0  0  0  0  0
  160.9030  205.9590  151.0670 C   0  0  2  0  0  3  0  0  0  0  0  0
  162.3490  204.2570  147.3580 O   0  0  0  0  0  0  0  0  0  0  0  0
  161.0220  203.4810  150.7190 C   0  0  0  0  0  2  0  0  0  0  0  0
  161.3780  203.1990  149.2530 C   0  0  1  0  0  3  0  0  0  0  0  0
  160.3610  202.2550  148.6260 C   0  0  0  0  0  2  0  0  0  0  0  0
  160.9550  200.8680  148.4240 C   0  0  0  0  0  2  0  0  0  0  0  0
  161.3140  200.6530  146.9610 C   0  0  0  0  0  2  0  0  0  0  0  0
  160.0770  200.9340  144.9330 O   0  0  0  0  0  1  0  0  0  0  0  0
  160.5190  201.6030  146.0780 C   0  0  0  0  0  2  0  0  0  0  0  0
  2  7  1  0  0  0  0
  3  2  2  0  0  0  0
  3  5  1  0  0  0  0
  5  1  2  0  0  0  0
  5  4  1  0  0  0  0
  6  2  1  0  0  0  0
  7 10  1  1  0  0  0
  7  4  1  0  0  0  0
  8 15  2  0  0  0  0
  9 11  1  6  0  0  0
 10  8  1  0  0  0  0
 12 15  1  0  0  0  0
 13 10  2  0  0  0  0
 13  9  1  0  0  0  0
 14 12  1  0  0  0  0
 14  9  1  0  0  0  0
 16 14  2  0  0  0  0
 17  3  1  0  0  0  0
 18 19  1  0  0  0  0
 19 17  1  0  0  0  0
 20 23  1  0  0  0  0
 20 27  1  0  0  0  0
 22 24  1  0  0  0  0
 23 22  1  0  0  0  0
 24 21  1  0  0  0  0
 24 19  1  6  0  0  0
 25 20  2  0  0  0  0
 26 21  1  0  0  0  0
 27 28  1  6  0  0  0
 27 26  1  0  0  0  0
 29 28  1  0  0  0  0
 30 29  1  0  0  0  0
 31 32  1  0  0  0  0
 32 30  1  0  0  0  0
M  END
>  <MODEL>
1

>  <REMARK>
 VINA RESULT:      -7.8      0.000      0.000
  Name = 
  8 active torsions:
  status: ('A' for Active; 'I' for Inactive)
    1  A    between atoms: C_5  and  C_10
    2  A    between atoms: C_5  and  C_20
    3  A    between atoms: C_6  and  C_28
    4  A    between atoms: C_9  and  N_22
    5  A    between atoms: C_10  and  C_32
    6  A    between atoms: C_16  and  N_31
    7  A    between atoms: C_20  and  C_25
    8  A    between atoms: N_22  and  N_31
                            x       y       z     vdW  Elec       q    Type
                         _______ _______ _______ _____ _____    ______ ____

>  <TORSDO>
F 8

$$$$
=
 OpenBabel11072410283D

 32 34  0  0  1  0  0  0  0  0999 V2000
  160.5640  207.0820  154.5550 O   0  0  0  0  0  0  0  0  0  0  0  0
  160.4240  210.4740  153.9470 C   0  0  0  0  0  0  0  0  0  0  0  0
  160.5750  209.2430  153.4880 C   0  0  0  0  0  0  0  0  0  0  0  0
  160.2340  209.0520  155.8100 N   0  0  0  0  0  2  0  0  0  0  0  0
  160.4680  208.3350  154.6080 C   0  0  0  0  0  0  0  0  0  0  0  0
  160.4930  211.7030  153.1050 C   0  0  0  0  0  1  0  0  0  0  0  0
  160.2010  210.4670  155.4410 C   0  0  2  0  0  3  0  0  0  0  0  0
  158.7960  211.9380  157.0120 C   0  0  0  0  0  3  0  0  0  0  0  0
  156.4290  211.1350  155.3490 C   0  0  1  0  0  3  0  0  0  0  0  0
  158.8820  211.0820  155.8020 C   0  0  0  0  0  0  0  0  0  0  0  0
  155.5790  210.5340  154.4350 F   0  0  0  0  0  0  0  0  0  0  0  0
  156.9080  213.3930  156.3760 N   0  0  0  0  0  2  0  0  0  0  0  0
  157.8340  210.7390  155.0540 C   0  0  0  0  0  3  0  0  0  0  0  0
  156.2950  212.6260  155.3430 C   0  0  0  0  0  0  0  0  0  0  0  0
  157.9420  212.9400  157.2600 C   0  0  0  0  0  3  0  0  0  0  0  0
  155.2900  213.3810  154.2920 S   0  0  0  0  0  0  0  0  0  0  0  0
  160.8000  208.9030  152.1150 N   0  0  0  0  0  2  0  0  0  0  0  0
  162.2610  210.0800  150.7790 C   0  0  0  0  0  1  0  0  0  0  0  0
  162.0870  208.8590  151.5530 N   0  0  0  0  0  0  0  0  0  0  0  0
  161.2440  204.8410  151.8490 C   0  0  0  0  0  0  0  0  0  0  0  0
  160.8100  207.2180  150.2010 C   0  0  0  0  0  2  0  0  0  0  0  0
  163.0750  206.5360  151.2510 C   0  0  0  0  0  2  0  0  0  0  0  0
  162.3490  205.6900  152.1880 N   0  0  0  0  0  2  0  0  0  0  0  0
  162.1880  207.6710  150.6910 C   0  0  2  0  0  3  0  0  0  0  0  0
  160.6970  204.1750  152.7650 O   0  0  0  0  0  0  0  0  0  0  0  0
  160.9130  205.8780  149.4920 C   0  0  0  0  0  2  0  0  0  0  0  0
  160.7010  204.6930  150.4450 C   0  0  1  0  0  3  0  0  0  0  0  0
  161.2020  203.4010  149.8120 C   0  0  0  0  0  2  0  0  0  0  0  0
  161.3500  203.5540  148.3050 C   0  0  0  0  0  2  0  0  0  0  0  0
  160.8390  202.3100  147.5930 C   0  0  0  0  0  2  0  0  0  0  0  0
  161.6020  200.0720  147.9530 O   0  0  0  0  0  1  0  0  0  0  0  0
  160.8720  201.1130  148.5320 C   0  0  0  0  0  2  0  0  0  0  0  0
  1  5  2  0  0  0  0
  2  7  1  0  0  0  0
  3  2  2  0  0  0  0
  3  5  1  0  0  0  0
  5  4  1  0  0  0  0
  6  2  1  0  0  0  0
  7 10  1  6  0  0  0
  7  4  1  0  0  0  0
  8 15  2  0  0  0  0
  9 11  1  6  0  0  0
 10  8  1  0  0  0  0
 12 15  1  0  0  0  0
 13  9  1  0  0  0  0
 13 10  2  0  0  0  0
 14  9  1  0  0  0  0
 14 12  1  0  0  0  0
 16 14  2  0  0  0  0
 17  3  1  0  0  0  0
 18 19  1  0  0  0  0
 19 17  1  0  0  0  0
 20 23  1  0  0  0  0
 20 25  2  0  0  0  0
 21 24  1  0  0  0  0
 22 23  1  0  0  0  0
 24 22  1  0  0  0  0
 24 19  1  1  0  0  0
 26 21  1  0  0  0  0
 26 27  1  0  0  0  0
 27 28  1  6  0  0  0
 27 20  1  0  0  0  0
 29 28  1  0  0  0  0
 30 29  1  0  0  0  0
 30 32  1  0  0  0  0
 31 32  1  0  0  0  0
M  END
>  <MODEL>
2

>  <REMARK>
 VINA RESULT:      -7.6      1.602      2.230
  Name = 
  8 active torsions:
  status: ('A' for Active; 'I' for Inactive)
    1  A    between atoms: C_5  and  C_10
    2  A    between atoms: C_5  and  C_20
    3  A    between atoms: C_6  and  C_28
    4  A    between atoms: C_9  and  N_22
    5  A    between atoms: C_10  and  C_32
    6  A    between atoms: C_16  and  N_31
    7  A    between atoms: C_20  and  C_25
    8  A    between atoms: N_22  and  N_31
                            x       y       z     vdW  Elec       q    Type
                         _______ _______ _______ _____ _____    ______ ____

>  <TORSDO>
F 8

$$$$
=
 OpenBabel11072410283D

 32 34  0  0  1  0  0  0  0  0999 V2000
  161.7710  210.2290  151.8780 O   0  0  0  0  0  0  0  0  0  0  0  0
  161.5210  206.9070  152.7730 C   0  0  0  0  0  0  0  0  0  0  0  0
  161.2770  208.1790  153.0440 C   0  0  0  0  0  0  0  0  0  0  0  0
  162.4110  208.1440  150.9810 N   0  0  0  0  0  2  0  0  0  0  0  0
  161.8130  208.9740  151.9630 C   0  0  0  0  0  0  0  0  0  0  0  0
  161.1460  205.7680  153.6590 C   0  0  0  0  0  1  0  0  0  0  0  0
  162.2570  206.7700  151.4610 C   0  0  2  0  0  3  0  0  0  0  0  0
  160.8770  206.6160  149.2980 C   0  0  0  0  0  3  0  0  0  0  0  0
  160.4330  203.7320  150.0020 C   0  0  1  0  0  3  0  0  0  0  0  0
  161.4790  205.9470  150.4790 C   0  0  0  0  0  0  0  0  0  0  0  0
  160.3840  202.5040  150.6420 F   0  0  0  0  0  0  0  0  0  0  0  0
  160.8230  204.7260  147.7130 N   0  0  0  0  0  2  0  0  0  0  0  0
  161.2950  204.6610  150.7830 C   0  0  0  0  0  3  0  0  0  0  0  0
  160.9320  203.6120  148.5970 C   0  0  0  0  0  0  0  0  0  0  0  0
  160.5950  206.0880  148.0990 C   0  0  0  0  0  3  0  0  0  0  0  0
  161.4140  202.1690  147.9890 S   0  0  0  0  0  0  0  0  0  0  0  0
  160.5930  208.6490  154.2120 N   0  0  0  0  0  2  0  0  0  0  0  0
  161.4240  208.1260  156.2940 C   0  0  0  0  0  1  0  0  0  0  0  0
  161.2750  209.1920  155.3130 N   0  0  0  0  0  0  0  0  0  0  0  0
  158.8950  212.2100  153.8400 C   0  0  0  0  0  0  0  0  0  0  0  0
  158.9800  210.0150  155.7720 C   0  0  0  0  0  2  0  0  0  0  0  0
  160.8970  211.7050  155.3640 C   0  0  0  0  0  2  0  0  0  0  0  0
  160.2980  212.0250  154.0750 N   0  0  0  0  0  2  0  0  0  0  0  0
  160.4800  210.3030  155.8620 C   0  0  2  0  0  3  0  0  0  0  0  0
  158.5120  212.4660  152.6700 O   0  0  0  0  0  0  0  0  0  0  0  0
  158.1790  211.2520  156.1440 C   0  0  0  0  0  2  0  0  0  0  0  0
  157.8450  212.1230  154.9260 C   0  0  1  0  0  3  0  0  0  0  0  0
  157.4140  213.5160  155.3650 C   0  0  0  0  0  2  0  0  0  0  0  0
  155.8980  213.6390  155.3790 C   0  0  0  0  0  2  0  0  0  0  0  0
  155.3040  213.0340  154.1160 C   0  0  0  0  0  2  0  0  0  0  0  0
  155.6870  214.3210  152.1360 O   0  0  0  0  0  1  0  0  0  0  0  0
  154.7940  214.1320  153.1940 C   0  0  0  0  0  2  0  0  0  0  0  0
  1  5  2  0  0  0  0
  2  3  2  0  0  0  0
  2  6  1  0  0  0  0
  3 17  1  0  0  0  0
  4  7  1  0  0  0  0
  4  5  1  0  0  0  0
  5  3  1  0  0  0  0
  7 10  1  6  0  0  0
  7  2  1  0  0  0  0
  8 10  1  0  0  0  0
  9 11  1  1  0  0  0
  9 13  1  0  0  0  0
 10 13  2  0  0  0  0
 12 15  1  0  0  0  0
 12 14  1  0  0  0  0
 14  9  1  0  0  0  0
 15  8  2  0  0  0  0
 16 14  2  0  0  0  0
 17 19  1  0  0  0  0
 19 18  1  0  0  0  0
 20 23  1  0  0  0  0
 20 27  1  0  0  0  0
 21 24  1  0  0  0  0
 21 26  1  0  0  0  0
 22 24  1  0  0  0  0
 23 22  1  0  0  0  0
 24 19  1  6  0  0  0
 25 20  2  0  0  0  0
 27 28  1  1  0  0  0
 27 26  1  0  0  0  0
 28 29  1  0  0  0  0
 30 29  1  0  0  0  0
 31 32  1  0  0  0  0
 32 30  1  0  0  0  0
M  END
>  <MODEL>
3

>  <REMARK>
 VINA RESULT:      -7.4      4.273      9.671
  Name = 
  8 active torsions:
  status: ('A' for Active; 'I' for Inactive)
    1  A    between atoms: C_5  and  C_10
    2  A    between atoms: C_5  and  C_20
    3  A    between atoms: C_6  and  C_28
    4  A    between atoms: C_9  and  N_22
    5  A    between atoms: C_10  and  C_32
    6  A    between atoms: C_16  and  N_31
    7  A    between atoms: C_20  and  C_25
    8  A    between atoms: N_22  and  N_31
                            x       y       z     vdW  Elec       q    Type
                         _______ _______ _______ _____ _____    ______ ____

>  <TORSDO>
F 8

$$$$
=
 OpenBabel11072410283D

 32 34  0  0  1  0  0  0  0  0999 V2000
  162.1170  209.9340  150.8200 O   0  0  0  0  0  0  0  0  0  0  0  0
  161.5710  206.9440  152.4500 C   0  0  0  0  0  0  0  0  0  0  0  0
  161.4040  208.2550  152.3950 C   0  0  0  0  0  0  0  0  0  0  0  0
  162.6560  207.6610  150.4910 N   0  0  0  0  0  2  0  0  0  0  0  0
  162.0620  208.7360  151.2010 C   0  0  0  0  0  0  0  0  0  0  0  0
  161.0600  206.0740  153.5480 C   0  0  0  0  0  1  0  0  0  0  0  0
  162.3730  206.4540  151.2680 C   0  0  2  0  0  3  0  0  0  0  0  0
  161.0260  205.8970  149.1510 C   0  0  0  0  0  3  0  0  0  0  0  0
  160.5240  203.2130  150.3960 C   0  0  1  0  0  3  0  0  0  0  0  0
  161.5970  205.4650  150.4500 C   0  0  0  0  0  0  0  0  0  0  0  0
  160.4440  202.1340  151.2610 F   0  0  0  0  0  0  0  0  0  0  0  0
  160.9660  203.7350  147.9640 N   0  0  0  0  0  2  0  0  0  0  0  0
  161.3880  204.2660  150.9960 C   0  0  0  0  0  3  0  0  0  0  0  0
  161.0440  202.8140  149.0500 C   0  0  0  0  0  0  0  0  0  0  0  0
  160.7550  205.1490  148.0720 C   0  0  0  0  0  3  0  0  0  0  0  0
  161.5120  201.2740  148.7450 S   0  0  0  0  0  0  0  0  0  0  0  0
  160.6870  209.0300  153.3630 N   0  0  0  0  0  2  0  0  0  0  0  0
  161.0610  209.2450  155.6250 C   0  0  0  0  0  1  0  0  0  0  0  0
  161.3390  209.8270  154.3190 N   0  0  0  0  0  0  0  0  0  0  0  0
  157.6710  211.6700  154.6240 C   0  0  0  0  0  0  0  0  0  0  0  0
  160.4240  211.7350  155.6120 C   0  0  0  0  0  2  0  0  0  0  0  0
  159.7460  211.4140  153.1350 C   0  0  0  0  0  2  0  0  0  0  0  0
  158.4160  211.0220  153.5830 N   0  0  0  0  0  2  0  0  0  0  0  0
  160.8120  211.1980  154.2320 C   0  0  2  0  0  3  0  0  0  0  0  0
  156.5380  211.2140  154.9220 O   0  0  0  0  0  0  0  0  0  0  0  0
  159.6910  213.0600  155.4780 C   0  0  0  0  0  2  0  0  0  0  0  0
  158.1690  212.8810  155.3810 C   0  0  1  0  0  3  0  0  0  0  0  0
  157.5140  214.1490  154.8510 C   0  0  0  0  0  2  0  0  0  0  0  0
  157.9510  214.4320  153.4210 C   0  0  0  0  0  2  0  0  0  0  0  0
  156.7770  214.2760  152.4660 C   0  0  0  0  0  2  0  0  0  0  0  0
  158.6620  214.1300  151.0010 O   0  0  0  0  0  1  0  0  0  0  0  0
  157.2690  214.2340  151.0270 C   0  0  0  0  0  2  0  0  0  0  0  0
  1  5  2  0  0  0  0
  2  6  1  0  0  0  0
  3  2  2  0  0  0  0
  3 17  1  0  0  0  0
  4  5  1  0  0  0  0
  4  7  1  0  0  0  0
  5  3  1  0  0  0  0
  7 10  1  6  0  0  0
  7  2  1  0  0  0  0
  8 10  1  0  0  0  0
  9 13  1  0  0  0  0
  9 11  1  1  0  0  0
 10 13  2  0  0  0  0
 12 15  1  0  0  0  0
 12 14  1  0  0  0  0
 14  9  1  0  0  0  0
 15  8  2  0  0  0  0
 16 14  2  0  0  0  0
 17 19  1  0  0  0  0
 19 18  1  0  0  0  0
 20 25  2  0  0  0  0
 20 27  1  0  0  0  0
 22 23  1  0  0  0  0
 22 24  1  0  0  0  0
 23 20  1  0  0  0  0
 24 19  1  1  0  0  0
 24 21  1  0  0  0  0
 26 21  1  0  0  0  0
 27 28  1  6  0  0  0
 27 26  1  0  0  0  0
 29 28  1  0  0  0  0
 30 29  1  0  0  0  0
 31 32  1  0  0  0  0
 32 30  1  0  0  0  0
M  END
>  <MODEL>
4

>  <REMARK>
 VINA RESULT:      -7.3      4.201      9.731
  Name = 
  8 active torsions:
  status: ('A' for Active; 'I' for Inactive)
    1  A    between atoms: C_5  and  C_10
    2  A    between atoms: C_5  and  C_20
    3  A    between atoms: C_6  and  C_28
    4  A    between atoms: C_9  and  N_22
    5  A    between atoms: C_10  and  C_32
    6  A    between atoms: C_16  and  N_31
    7  A    between atoms: C_20  and  C_25
    8  A    between atoms: N_22  and  N_31
                            x       y       z     vdW  Elec       q    Type
                         _______ _______ _______ _____ _____    ______ ____

>  <TORSDO>
F 8

$$$$
=
 OpenBabel11072410283D

 32 34  0  0  1  0  0  0  0  0999 V2000
  161.5870  205.3940  153.7670 O   0  0  0  0  0  0  0  0  0  0  0  0
  160.8490  206.0060  150.4540 C   0  0  0  0  0  0  0  0  0  0  0  0
  161.4120  206.4000  151.5840 C   0  0  0  0  0  0  0  0  0  0  0  0
  160.4660  204.2870  152.0120 N   0  0  0  0  0  2  0  0  0  0  0  0
  161.1950  205.3670  152.5720 C   0  0  0  0  0  0  0  0  0  0  0  0
  160.8310  206.8070  149.1960 C   0  0  0  0  0  1  0  0  0  0  0  0
  160.2020  204.6520  150.6200 C   0  0  2  0  0  3  0  0  0  0  0  0
  161.1470  202.2980  150.2040 C   0  0  0  0  0  3  0  0  0  0  0  0
  161.7720  203.2380  147.4220 C   0  0  1  0  0  3  0  0  0  0  0  0
  160.7950  203.6420  149.6830 C   0  0  0  0  0  0  0  0  0  0  0  0
  161.9650  203.9960  146.2790 F   0  0  0  0  0  0  0  0  0  0  0  0
  160.9350  200.9650  148.1390 N   0  0  0  0  0  2  0  0  0  0  0  0
  161.0570  204.0540  148.4420 C   0  0  0  0  0  3  0  0  0  0  0  0
  161.0170  201.9770  147.1390 C   0  0  0  0  0  0  0  0  0  0  0  0
  161.2060  201.1370  149.5370 C   0  0  0  0  0  3  0  0  0  0  0  0
  160.4550  201.6470  145.6360 S   0  0  0  0  0  0  0  0  0  0  0  0
  162.1120  207.6380  151.7620 N   0  0  0  0  0  2  0  0  0  0  0  0
  162.6840  209.8150  151.2790 C   0  0  0  0  0  1  0  0  0  0  0  0
  161.5790  208.8680  151.3410 N   0  0  0  0  0  0  0  0  0  0  0  0
  161.5410  210.6280  155.0610 C   0  0  0  0  0  0  0  0  0  0  0  0
  160.4510  210.8300  152.3540 C   0  0  0  0  0  2  0  0  0  0  0  0
  160.6700  208.6320  153.7030 C   0  0  0  0  0  2  0  0  0  0  0  0
  161.6520  209.2900  154.5540 N   0  0  0  0  0  2  0  0  0  0  0  0
  160.5670  209.3050  152.3150 C   0  0  2  0  0  3  0  0  0  0  0  0
  162.4740  211.0780  155.7740 O   0  0  0  0  0  0  0  0  0  0  0  0
  159.5620  211.2660  153.5070 C   0  0  0  0  0  2  0  0  0  0  0  0
  160.3560  211.5300  154.7930 C   0  0  1  0  0  3  0  0  0  0  0  0
  159.4270  211.5630  156.0000 C   0  0  0  0  0  2  0  0  0  0  0  0
  158.1950  210.7010  155.7620 C   0  0  0  0  0  2  0  0  0  0  0  0
  156.9350  211.4580  156.1530 C   0  0  0  0  0  2  0  0  0  0  0  0
  156.0350  212.9140  154.4820 O   0  0  0  0  0  1  0  0  0  0  0  0
  156.0090  211.5990  154.9540 C   0  0  0  0  0  2  0  0  0  0  0  0
  2  7  1  0  0  0  0
  2  3  2  0  0  0  0
  3 17  1  0  0  0  0
  3  5  1  0  0  0  0
  4  5  1  0  0  0  0
  5  1  2  0  0  0  0
  6  2  1  0  0  0  0
  7 10  1  6  0  0  0
  7  4  1  0  0  0  0
  9 11  1  6  0  0  0
  9 13  1  0  0  0  0
 10  8  1  0  0  0  0
 12 15  1  0  0  0  0
 13 10  2  0  0  0  0
 14  9  1  0  0  0  0
 14 12  1  0  0  0  0
 15  8  2  0  0  0  0
 16 14  2  0  0  0  0
 18 19  1  0  0  0  0
 19 17  1  0  0  0  0
 20 25  2  0  0  0  0
 21 26  1  0  0  0  0
 22 23  1  0  0  0  0
 23 20  1  0  0  0  0
 24 19  1  6  0  0  0
 24 21  1  0  0  0  0
 24 22  1  0  0  0  0
 26 27  1  0  0  0  0
 27 20  1  0  0  0  0
 27 28  1  1  0  0  0
 29 28  1  0  0  0  0
 29 30  1  0  0  0  0
 31 32  1  0  0  0  0
 32 30  1  0  0  0  0
M  END
>  <MODEL>
5

>  <REMARK>
 VINA RESULT:      -7.2      4.371      9.878
  Name = 
  8 active torsions:
  status: ('A' for Active; 'I' for Inactive)
    1  A    between atoms: C_5  and  C_10
    2  A    between atoms: C_5  and  C_20
    3  A    between atoms: C_6  and  C_28
    4  A    between atoms: C_9  and  N_22
    5  A    between atoms: C_10  and  C_32
    6  A    between atoms: C_16  and  N_31
    7  A    between atoms: C_20  and  C_25
    8  A    between atoms: N_22  and  N_31
                            x       y       z     vdW  Elec       q    Type
                         _______ _______ _______ _____ _____    ______ ____

>  <TORSDO>
F 8

$$$$
=
 OpenBabel11072410283D

 32 34  0  0  1  0  0  0  0  0999 V2000
  162.1420  202.7740  152.3610 O   0  0  0  0  0  0  0  0  0  0  0  0
  160.9810  205.0930  150.0860 C   0  0  0  0  0  0  0  0  0  0  0  0
  161.6470  204.8260  151.1980 C   0  0  0  0  0  0  0  0  0  0  0  0
  160.8980  202.7580  150.3570 N   0  0  0  0  0  2  0  0  0  0  0  0
  161.6150  203.3950  151.4010 C   0  0  0  0  0  0  0  0  0  0  0  0
  160.7630  206.4640  149.5410 C   0  0  0  0  0  1  0  0  0  0  0  0
  160.4480  203.8250  149.4620 C   0  0  2  0  0  3  0  0  0  0  0  0
  160.8580  202.2910  147.4410 C   0  0  0  0  0  3  0  0  0  0  0  0
  162.3790  204.5820  146.2390 C   0  0  1  0  0  3  0  0  0  0  0  0
  160.9920  203.6240  148.0790 C   0  0  0  0  0  0  0  0  0  0  0  0
  163.0360  205.7820  146.0180 F   0  0  0  0  0  0  0  0  0  0  0  0
  160.8550  202.9470  145.0630 N   0  0  0  0  0  2  0  0  0  0  0  0
  161.6530  204.6480  147.5370 C   0  0  0  0  0  3  0  0  0  0  0  0
  161.4340  204.2480  145.1280 C   0  0  0  0  0  0  0  0  0  0  0  0
  160.7970  201.9970  146.1350 C   0  0  0  0  0  3  0  0  0  0  0  0
  161.2080  205.2740  143.8710 S   0  0  0  0  0  0  0  0  0  0  0  0
  162.2800  205.8070  152.0280 N   0  0  0  0  0  2  0  0  0  0  0  0
  160.9390  205.0870  153.7550 C   0  0  0  0  0  1  0  0  0  0  0  0
  161.7490  206.1950  153.2700 N   0  0  0  0  0  0  0  0  0  0  0  0
  161.7530  210.0870  154.6110 C   0  0  0  0  0  0  0  0  0  0  0  0
  161.6440  208.4310  152.2010 C   0  0  0  0  0  2  0  0  0  0  0  0
  160.3110  207.9770  154.3730 C   0  0  0  0  0  2  0  0  0  0  0  0
  161.2490  208.8320  155.0890 N   0  0  0  0  0  2  0  0  0  0  0  0
  160.9280  207.4020  153.0780 C   0  0  2  0  0  3  0  0  0  0  0  0
  162.5740  210.7150  155.3270 O   0  0  0  0  0  0  0  0  0  0  0  0
  160.8770  209.7440  152.1910 C   0  0  0  0  0  2  0  0  0  0  0  0
  161.3460  210.7050  153.2910 C   0  0  1  0  0  3  0  0  0  0  0  0
  160.3180  211.8070  153.5130 C   0  0  0  0  0  2  0  0  0  0  0  0
  158.9020  211.2610  153.4060 C   0  0  0  0  0  2  0  0  0  0  0  0
  158.2640  211.1650  154.7840 C   0  0  0  0  0  2  0  0  0  0  0  0
  155.8760  211.0290  154.7410 O   0  0  0  0  0  1  0  0  0  0  0  0
  156.9460  211.9260  154.8090 C   0  0  0  0  0  2  0  0  0  0  0  0
  2  3  2  0  0  0  0
  3  5  1  0  0  0  0
  3 17  1  0  0  0  0
  4  5  1  0  0  0  0
  5  1  2  0  0  0  0
  6  2  1  0  0  0  0
  7 10  1  6  0  0  0
  7  2  1  0  0  0  0
  7  4  1  0  0  0  0
  8 10  1  0  0  0  0
  9 11  1  6  0  0  0
  9 13  1  0  0  0  0
 12 14  1  0  0  0  0
 12 15  1  0  0  0  0
 13 10  2  0  0  0  0
 14  9  1  0  0  0  0
 15  8  2  0  0  0  0
 16 14  2  0  0  0  0
 17 19  1  0  0  0  0
 19 18  1  0  0  0  0
 20 23  1  0  0  0  0
 20 25  2  0  0  0  0
 21 24  1  0  0  0  0
 22 23  1  0  0  0  0
 24 19  1  1  0  0  0
 24 22  1  0  0  0  0
 26 21  1  0  0  0  0
 26 27  1  0  0  0  0
 27 28  1  1  0  0  0
 27 20  1  0  0  0  0
 29 28  1  0  0  0  0
 29 30  1  0  0  0  0
 30 32  1  0  0  0  0
 31 32  1  0  0  0  0
M  END
>  <MODEL>
6

>  <REMARK>
 VINA RESULT:      -6.9      4.178      9.856
  Name = 
  8 active torsions:
  status: ('A' for Active; 'I' for Inactive)
    1  A    between atoms: C_5  and  C_10
    2  A    between atoms: C_5  and  C_20
    3  A    between atoms: C_6  and  C_28
    4  A    between atoms: C_9  and  N_22
    5  A    between atoms: C_10  and  C_32
    6  A    between atoms: C_16  and  N_31
    7  A    between atoms: C_20  and  C_25
    8  A    between atoms: N_22  and  N_31
                            x       y       z     vdW  Elec       q    Type
                         _______ _______ _______ _____ _____    ______ ____

>  <TORSDO>
F 8

$$$$
=
 OpenBabel11072410283D

 32 34  0  0  1  0  0  0  0  0999 V2000
  161.9490  211.0600  150.3140 O   0  0  0  0  0  0  0  0  0  0  0  0
  161.1280  208.3220  152.2450 C   0  0  0  0  0  0  0  0  0  0  0  0
  161.7990  208.8340  151.2260 C   0  0  0  0  0  0  0  0  0  0  0  0
  160.5970  210.6120  152.1940 N   0  0  0  0  0  2  0  0  0  0  0  0
  161.4950  210.2460  151.1600 C   0  0  0  0  0  0  0  0  0  0  0  0
  161.1530  206.8830  152.6350 C   0  0  0  0  0  1  0  0  0  0  0  0
  160.3120  209.3860  152.9400 C   0  0  2  0  0  3  0  0  0  0  0  0
  160.7270  208.3280  155.2450 C   0  0  0  0  0  3  0  0  0  0  0  0
  161.2050  211.1190  156.2390 C   0  0  1  0  0  3  0  0  0  0  0  0
  160.7110  209.5320  154.3780 C   0  0  0  0  0  0  0  0  0  0  0  0
  161.3020  212.4950  156.3650 F   0  0  0  0  0  0  0  0  0  0  0  0
  162.4270  209.0090  156.8980 N   0  0  0  0  0  2  0  0  0  0  0  0
  160.9400  210.7700  154.8160 C   0  0  0  0  0  3  0  0  0  0  0  0
  162.4380  210.4240  156.7260 C   0  0  0  0  0  0  0  0  0  0  0  0
  161.4710  208.0990  156.3350 C   0  0  0  0  0  3  0  0  0  0  0  0
  163.7330  211.2720  157.2600 S   0  0  0  0  0  0  0  0  0  0  0  0
  162.6690  208.0910  150.3640 N   0  0  0  0  0  2  0  0  0  0  0  0
  161.6010  208.7790  148.4430 C   0  0  0  0  0  1  0  0  0  0  0  0
  162.2700  207.6580  149.0880 N   0  0  0  0  0  0  0  0  0  0  0  0
  161.6490  204.0280  147.2500 C   0  0  0  0  0  0  0  0  0  0  0  0
  162.0670  205.3050  149.8480 C   0  0  0  0  0  2  0  0  0  0  0  0
  160.5010  206.2000  147.9920 C   0  0  0  0  0  2  0  0  0  0  0  0
  161.2260  205.3810  147.0300 N   0  0  0  0  0  2  0  0  0  0  0  0
  161.3540  206.5160  149.2410 C   0  0  2  0  0  3  0  0  0  0  0  0
  162.2850  203.4420  146.3370 O   0  0  0  0  0  0  0  0  0  0  0  0
  161.1670  204.0820  149.8010 C   0  0  0  0  0  2  0  0  0  0  0  0
  161.3650  203.2570  148.5210 C   0  0  1  0  0  3  0  0  0  0  0  0
  160.1990  202.2990  148.3160 C   0  0  0  0  0  2  0  0  0  0  0  0
  160.5880  200.8780  148.6950 C   0  0  0  0  0  2  0  0  0  0  0  0
  161.6370  200.3400  147.7340 C   0  0  0  0  0  2  0  0  0  0  0  0
  161.3220  198.9390  145.8200 O   0  0  0  0  0  1  0  0  0  0  0  0
  161.0530  200.2100  146.3340 C   0  0  0  0  0  2  0  0  0  0  0  0
  1  5  2  0  0  0  0
  2  6  1  0  0  0  0
  2  7  1  0  0  0  0
  3  2  2  0  0  0  0
  4  7  1  0  0  0  0
  5  3  1  0  0  0  0
  5  4  1  0  0  0  0
  7 10  1  1  0  0  0
  8 15  2  0  0  0  0
  9 11  1  6  0  0  0
  9 14  1  0  0  0  0
 10 13  2  0  0  0  0
 10  8  1  0  0  0  0
 13  9  1  0  0  0  0
 14 12  1  0  0  0  0
 14 16  2  0  0  0  0
 15 12  1  0  0  0  0
 17  3  1  0  0  0  0
 18 19  1  0  0  0  0
 19 17  1  0  0  0  0
 20 27  1  0  0  0  0
 22 24  1  0  0  0  0
 23 20  1  0  0  0  0
 23 22  1  0  0  0  0
 24 19  1  6  0  0  0
 24 21  1  0  0  0  0
 25 20  2  0  0  0  0
 26 21  1  0  0  0  0
 27 28  1  6  0  0  0
 27 26  1  0  0  0  0
 28 29  1  0  0  0  0
 30 29  1  0  0  0  0
 31 32  1  0  0  0  0
 32 30  1  0  0  0  0
M  END
>  <MODEL>
7

>  <REMARK>
 VINA RESULT:      -6.7      2.840      3.510
  Name = 
  8 active torsions:
  status: ('A' for Active; 'I' for Inactive)
    1  A    between atoms: C_5  and  C_10
    2  A    between atoms: C_5  and  C_20
    3  A    between atoms: C_6  and  C_28
    4  A    between atoms: C_9  and  N_22
    5  A    between atoms: C_10  and  C_32
    6  A    between atoms: C_16  and  N_31
    7  A    between atoms: C_20  and  C_25
    8  A    between atoms: N_22  and  N_31
                            x       y       z     vdW  Elec       q    Type
                         _______ _______ _______ _____ _____    ______ ____

>  <TORSDO>
F 8

$$$$
=
 OpenBabel11072410283D

 32 34  0  0  1  0  0  0  0  0999 V2000
  160.5040  206.9940  155.1800 O   0  0  0  0  0  0  0  0  0  0  0  0
  161.3780  209.4400  152.9100 C   0  0  0  0  0  0  0  0  0  0  0  0
  161.0510  208.1810  153.1550 C   0  0  0  0  0  0  0  0  0  0  0  0
  161.0250  209.2940  155.2300 N   0  0  0  0  0  2  0  0  0  0  0  0
  160.8280  208.0500  154.5780 C   0  0  0  0  0  0  0  0  0  0  0  0
  161.7110  209.9770  151.5590 C   0  0  0  0  0  1  0  0  0  0  0  0
  161.3960  210.2490  154.1850 C   0  0  2  0  0  3  0  0  0  0  0  0
  160.0760  211.9730  152.8100 C   0  0  0  0  0  3  0  0  0  0  0  0
  159.1230  213.0690  155.4370 C   0  0  1  0  0  3  0  0  0  0  0  0
  160.4180  211.3840  154.1290 C   0  0  0  0  0  0  0  0  0  0  0  0
  158.9340  213.3430  156.7810 F   0  0  0  0  0  0  0  0  0  0  0  0
  157.8110  212.8250  153.2920 N   0  0  0  0  0  2  0  0  0  0  0  0
  159.9810  211.8600  155.2950 C   0  0  0  0  0  3  0  0  0  0  0  0
  157.8250  212.8750  154.7170 C   0  0  0  0  0  0  0  0  0  0  0  0
  158.9460  212.5950  152.4460 C   0  0  0  0  0  3  0  0  0  0  0  0
  156.3970  212.9260  155.5170 S   0  0  0  0  0  0  0  0  0  0  0  0
  160.9420  207.1550  152.1610 N   0  0  0  0  0  2  0  0  0  0  0  0
  162.9050  206.0690  151.6440 C   0  0  0  0  0  1  0  0  0  0  0  0
  161.6030  205.9220  152.2800 N   0  0  0  0  0  0  0  0  0  0  0  0
  161.5030  204.1310  148.5750 C   0  0  0  0  0  0  0  0  0  0  0  0
  161.5910  203.5850  151.4480 C   0  0  0  0  0  2  0  0  0  0  0  0
  160.0820  205.3620  150.3220 C   0  0  0  0  0  2  0  0  0  0  0  0
  160.9580  205.3230  149.1590 N   0  0  0  0  0  2  0  0  0  0  0  0
  160.8030  204.8880  151.6050 C   0  0  2  0  0  3  0  0  0  0  0  0
  162.2620  204.2450  147.5790 O   0  0  0  0  0  0  0  0  0  0  0  0
  160.8300  202.6080  150.5670 C   0  0  0  0  0  2  0  0  0  0  0  0
  161.2070  202.7370  149.0850 C   0  0  1  0  0  3  0  0  0  0  0  0
  160.1660  202.0570  148.2060 C   0  0  0  0  0  2  0  0  0  0  0  0
  160.8310  201.2650  147.0890 C   0  0  0  0  0  2  0  0  0  0  0  0
  160.8440  202.0730  145.8000 C   0  0  0  0  0  2  0  0  0  0  0  0
  159.8920  200.3090  144.4950 O   0  0  0  0  0  1  0  0  0  0  0  0
  159.7050  201.6360  144.8910 C   0  0  0  0  0  2  0  0  0  0  0  0
  2  3  2  0  0  0  0
  2  7  1  0  0  0  0
  3  5  1  0  0  0  0
  5  1  2  0  0  0  0
  5  4  1  0  0  0  0
  6  2  1  0  0  0  0
  7 10  1  6  0  0  0
  7  4  1  0  0  0  0
  8 10  1  0  0  0  0
  9 11  1  1  0  0  0
 10 13  2  0  0  0  0
 12 14  1  0  0  0  0
 13  9  1  0  0  0  0
 14  9  1  0  0  0  0
 14 16  2  0  0  0  0
 15  8  2  0  0  0  0
 15 12  1  0  0  0  0
 17 19  1  0  0  0  0
 17  3  1  0  0  0  0
 18 19  1  0  0  0  0
 20 27  1  0  0  0  0
 20 23  1  0  0  0  0
 21 24  1  0  0  0  0
 22 24  1  0  0  0  0
 23 22  1  0  0  0  0
 24 19  1  6  0  0  0
 25 20  2  0  0  0  0
 26 21  1  0  0  0  0
 27 28  1  6  0  0  0
 27 26  1  0  0  0  0
 29 28  1  0  0  0  0
 30 29  1  0  0  0  0
 31 32  1  0  0  0  0
 32 30  1  0  0  0  0
M  END
>  <MODEL>
8

>  <REMARK>
 VINA RESULT:      -6.7      1.313      1.652
  Name = 
  8 active torsions:
  status: ('A' for Active; 'I' for Inactive)
    1  A    between atoms: C_5  and  C_10
    2  A    between atoms: C_5  and  C_20
    3  A    between atoms: C_6  and  C_28
    4  A    between atoms: C_9  and  N_22
    5  A    between atoms: C_10  and  C_32
    6  A    between atoms: C_16  and  N_31
    7  A    between atoms: C_20  and  C_25
    8  A    between atoms: N_22  and  N_31
                            x       y       z     vdW  Elec       q    Type
                         _______ _______ _______ _____ _____    ______ ____

>  <TORSDO>
F 8

$$$$
=
 OpenBabel11072410283D

 32 34  0  0  1  0  0  0  0  0999 V2000
  160.8350  206.3430  152.7500 O   0  0  0  0  0  0  0  0  0  0  0  0
  161.4290  209.5970  151.7700 C   0  0  0  0  0  0  0  0  0  0  0  0
  161.2000  208.3350  151.4440 C   0  0  0  0  0  0  0  0  0  0  0  0
  161.2010  208.4260  153.7970 N   0  0  0  0  0  2  0  0  0  0  0  0
  161.0570  207.5790  152.6670 C   0  0  0  0  0  0  0  0  0  0  0  0
  161.6580  210.6950  150.7880 C   0  0  0  0  0  1  0  0  0  0  0  0
  161.4550  209.7670  153.2710 C   0  0  2  0  0  3  0  0  0  0  0  0
  160.1750  211.9740  152.9580 C   0  0  0  0  0  3  0  0  0  0  0  0
  158.8200  211.3470  155.5620 C   0  0  1  0  0  3  0  0  0  0  0  0
  160.4000  210.7280  153.7320 C   0  0  0  0  0  0  0  0  0  0  0  0
  158.4470  210.7930  156.7750 F   0  0  0  0  0  0  0  0  0  0  0  0
  157.8060  212.3970  153.5010 N   0  0  0  0  0  2  0  0  0  0  0  0
  159.7860  210.4420  154.8810 C   0  0  0  0  0  3  0  0  0  0  0  0
  157.6410  211.6130  154.6800 C   0  0  0  0  0  0  0  0  0  0  0  0
  159.0510  212.6960  152.8550 C   0  0  0  0  0  3  0  0  0  0  0  0
  156.1260  211.1950  155.1420 S   0  0  0  0  0  0  0  0  0  0  0  0
  161.1120  207.8410  150.1020 N   0  0  0  0  0  2  0  0  0  0  0  0
  162.3910  208.4330  148.2820 C   0  0  0  0  0  1  0  0  0  0  0  0
  162.2470  207.4690  149.3630 N   0  0  0  0  0  0  0  0  0  0  0  0
  160.6750  205.7710  145.9590 C   0  0  0  0  0  0  0  0  0  0  0  0
  163.0250  205.8010  147.7000 C   0  0  0  0  0  2  0  0  0  0  0  0
  160.5720  205.7510  148.5240 C   0  0  0  0  0  2  0  0  0  0  0  0
  160.1570  206.2350  147.2140 N   0  0  0  0  0  2  0  0  0  0  0  0
  162.0430  206.1110  148.8320 C   0  0  2  0  0  3  0  0  0  0  0  0
  160.2370  206.2900  144.9010 O   0  0  0  0  0  0  0  0  0  0  0  0
  162.6620  204.4870  147.0280 C   0  0  0  0  0  2  0  0  0  0  0  0
  161.7170  204.6800  145.8350 C   0  0  1  0  0  3  0  0  0  0  0  0
  161.0640  203.3590  145.4500 C   0  0  0  0  0  2  0  0  0  0  0  0
  160.6610  202.5690  146.6870 C   0  0  0  0  0  2  0  0  0  0  0  0
  161.0920  201.1170  146.5530 C   0  0  0  0  0  2  0  0  0  0  0  0
  160.6330  201.1710  148.9000 O   0  0  0  0  0  1  0  0  0  0  0  0
  161.3980  200.5290  147.9230 C   0  0  0  0  0  2  0  0  0  0  0  0
  2  7  1  0  0  0  0
  3  2  2  0  0  0  0
  3  5  1  0  0  0  0
  5  1  2  0  0  0  0
  5  4  1  0  0  0  0
  6  2  1  0  0  0  0
  7 10  1  6  0  0  0
  7  4  1  0  0  0  0
  8 10  1  0  0  0  0
  9 11  1  1  0  0  0
 10 13  2  0  0  0  0
 12 14  1  0  0  0  0
 13  9  1  0  0  0  0
 14 16  2  0  0  0  0
 14  9  1  0  0  0  0
 15  8  2  0  0  0  0
 15 12  1  0  0  0  0
 17  3  1  0  0  0  0
 18 19  1  0  0  0  0
 19 17  1  0  0  0  0
 20 23  1  0  0  0  0
 21 24  1  0  0  0  0
 22 24  1  0  0  0  0
 23 22  1  0  0  0  0
 24 19  1  6  0  0  0
 25 20  2  0  0  0  0
 26 21  1  0  0  0  0
 27 28  1  1  0  0  0
 27 20  1  0  0  0  0
 27 26  1  0  0  0  0
 28 29  1  0  0  0  0
 30 29  1  0  0  0  0
 30 32  1  0  0  0  0
 32 31  1  0  0  0  0
M  END
>  <MODEL>
9

>  <REMARK>
 VINA RESULT:      -6.4      2.014      2.508
  Name = 
  8 active torsions:
  status: ('A' for Active; 'I' for Inactive)
    1  A    between atoms: C_5  and  C_10
    2  A    between atoms: C_5  and  C_20
    3  A    between atoms: C_6  and  C_28
    4  A    between atoms: C_9  and  N_22
    5  A    between atoms: C_10  and  C_32
    6  A    between atoms: C_16  and  N_31
    7  A    between atoms: C_20  and  C_25
    8  A    between atoms: N_22  and  N_31
                            x       y       z     vdW  Elec       q    Type
                         _______ _______ _______ _____ _____    ______ ____

>  <TORSDO>
F 8

$$$$
