=
 OpenBabel11072415143D

 40 44  0  0  1  0  0  0  0  0999 V2000
  161.1870  212.8410  150.2500 C   0  0  1  0  0  3  0  0  0  0  0  0
  159.8450  213.4020  150.6050 C   0  0  0  0  0  0  0  0  0  0  0  0
  161.4790  210.7650  151.6430 C   0  0  2  0  0  3  0  0  0  0  0  0
  161.6850  214.2360  148.3310 O   0  0  0  0  0  0  0  0  0  0  0  0
  160.8730  211.4910  152.8660 C   0  0  0  0  0  2  0  0  0  0  0  0
  159.0450  213.7140  149.7330 O   0  0  0  0  0  0  0  0  0  0  0  0
  159.4420  212.0900  152.7910 C   0  0  1  0  0  0  0  0  0  0  0  0
  161.9640  210.8170  149.1290 C   0  0  0  0  0  2  0  0  0  0  0  0
  161.0820  211.3260  150.2760 C   0  0  2  0  0  3  0  0  0  0  0  0
  161.6350  213.0960  148.8610 C   0  0  0  0  0  0  0  0  0  0  0  0
  159.4590  213.4700  152.0620 C   0  0  2  0  0  3  0  0  0  0  0  0
  162.0750  211.9280  148.2000 N   0  0  0  0  0  2  0  0  0  0  0  0
  158.2420  214.1450  152.2070 O   0  0  0  0  0  1  0  0  0  0  0  0
  158.4970  211.1170  152.0820 C   0  0  0  0  0  1  0  0  0  0  0  0
  160.0990  212.4800  155.2440 C   0  0  0  0  0  3  0  0  0  0  0  0
  158.5900  212.9210  157.1820 C   0  0  0  0  0  3  0  0  0  0  0  0
  158.0720  211.1340  154.7130 C   0  0  0  0  0  3  0  0  0  0  0  0
  158.9810  212.2440  154.2670 C   0  0  2  0  0  3  0  0  0  0  0  0
  159.9030  212.8190  156.5180 C   0  0  0  0  0  3  0  0  0  0  0  0
  157.3950  211.1530  155.8600 C   0  0  0  0  0  3  0  0  0  0  0  0
  157.5010  212.1970  156.8970 C   0  0  0  0  0  3  0  0  0  0  0  0
  161.3390  209.2710  151.7570 C   0  0  0  0  0  0  0  0  0  0  0  0
  161.0300  207.2890  153.1230 C   0  0  0  0  0  3  0  0  0  0  0  0
  161.1540  207.0820  150.7220 C   0  0  0  0  0  3  0  0  0  0  0  0
  161.0050  206.4820  151.9780 C   0  0  0  0  0  0  0  0  0  0  0  0
  161.3140  208.4630  150.6120 C   0  0  0  0  0  3  0  0  0  0  0  0
  161.1920  208.6810  153.0240 C   0  0  0  0  0  0  0  0  0  0  0  0
  160.3750  204.2150  150.9880 N   0  0  0  0  0  0  0  0  0  0  0  0
  161.1520  204.4410  153.1670 O   0  0  0  0  0  0  0  0  0  0  0  0
  162.0480  201.6890  150.4500 C   0  0  0  0  0  1  0  0  0  0  0  0
  160.8610  205.0110  152.0800 C   0  0  0  0  0  0  0  0  0  0  0  0
  160.1060  202.9010  151.1730 O   0  0  0  0  0  0  0  0  0  0  0  0
  160.7010  202.2720  150.0610 C   0  0  1  0  0  3  0  0  0  0  0  0
  160.7130  204.5210  149.6230 C   0  0  0  0  0  2  0  0  0  0  0  0
  160.8660  203.2380  148.9750 N   0  0  0  0  0  2  0  0  0  0  0  0
  161.2160  209.4890  154.1690 O   0  0  0  0  0  0  0  0  0  0  0  0
  161.6180  209.0190  155.4510 C   0  0  0  0  0  2  0  0  0  0  0  0
  160.1550  209.5740  157.2500 O   0  0  0  0  0  1  0  0  0  0  0  0
  159.6000  207.6910  156.0680 O   0  0  0  0  0  0  0  0  0  0  0  0
  160.4230  208.7830  156.3090 C   0  0  0  0  0  0  0  0  0  0  0  0
  1 10  1  6  0  0  0
  1  9  1  0  0  0  0
  1  2  1  0  0  0  0
  2 11  1  0  0  0  0
  3 22  1  6  0  0  0
  3  5  1  0  0  0  0
  4 10  2  0  0  0  0
  6  2  2  0  0  0  0
  7 14  1  6  0  0  0
  7  5  1  0  0  0  0
  7 18  1  0  0  0  0
  9  8  1  6  0  0  0
  9  3  1  0  0  0  0
 11 13  1  6  0  0  0
 11  7  1  0  0  0  0
 12 10  1  0  0  0  0
 12  8  1  0  0  0  0
 15 19  2  0  0  0  0
 17 20  2  0  0  0  0
 18 17  1  1  0  0  0
 18 15  1  0  0  0  0
 19 16  1  0  0  0  0
 20 21  1  0  0  0  0
 21 16  2  0  0  0  0
 22 27  1  0  0  0  0
 24 25  2  0  0  0  0
 25 31  1  0  0  0  0
 25 23  1  0  0  0  0
 26 24  1  0  0  0  0
 26 22  2  0  0  0  0
 27 23  2  0  0  0  0
 27 36  1  0  0  0  0
 28 32  1  0  0  0  0
 28 31  1  0  0  0  0
 31 29  2  0  0  0  0
 33 30  1  1  0  0  0
 33 32  1  0  0  0  0
 34 28  1  0  0  0  0
 35 34  1  0  0  0  0
 35 33  1  0  0  0  0
 36 37  1  0  0  0  0
 37 40  1  0  0  0  0
 39 40  2  0  0  0  0
 40 38  1  0  0  0  0
M  END
>  <MODEL>
1

>  <REMARK>
 VINA RESULT:      -5.4      0.000      0.000
  Name = 
  6 active torsions:
  status: ('A' for Active; 'I' for Inactive)
    1  A    between atoms: C_3  and  C_6
    2  A    between atoms: C_14  and  C_18
    3  A    between atoms: C_15  and  O_25
    4  A    between atoms: C_15  and  C_31
    5  A    between atoms: C_17  and  C_28
    6  A    between atoms: O_25  and  C_33
                            x       y       z     vdW  Elec       q    Type
                         _______ _______ _______ _____ _____    ______ ____

>  <TORSDO>
F 6

$$$$
=
 OpenBabel11072415143D

 40 44  0  0  1  0  0  0  0  0999 V2000
  161.5660  212.3230  150.2800 C   0  0  1  0  0  3  0  0  0  0  0  0
  160.4970  212.5570  151.3030 C   0  0  0  0  0  0  0  0  0  0  0  0
  162.1560  209.8800  150.4170 C   0  0  2  0  0  3  0  0  0  0  0  0
  161.4600  214.4530  149.1280 O   0  0  0  0  0  0  0  0  0  0  0  0
  162.0990  209.9450  151.9610 C   0  0  0  0  0  2  0  0  0  0  0  0
  159.4680  213.1500  151.0100 O   0  0  0  0  0  0  0  0  0  0  0  0
  160.7960  210.3920  152.6780 C   0  0  1  0  0  0  0  0  0  0  0  0
  161.7050  211.0660  148.1930 C   0  0  0  0  0  2  0  0  0  0  0  0
  161.3450  210.9460  149.6790 C   0  0  2  0  0  3  0  0  0  0  0  0
  161.5040  213.1960  149.0860 C   0  0  0  0  0  0  0  0  0  0  0  0
  160.6710  211.9490  152.6740 C   0  0  2  0  0  3  0  0  0  0  0  0
  161.5710  212.4770  147.8720 N   0  0  0  0  0  2  0  0  0  0  0  0
  159.6530  212.3870  153.5270 O   0  0  0  0  0  1  0  0  0  0  0  0
  159.5760  209.7520  152.0110 C   0  0  0  0  0  1  0  0  0  0  0  0
  159.6430  209.9290  154.9260 C   0  0  0  0  0  3  0  0  0  0  0  0
  160.5330  208.6370  156.8670 C   0  0  0  0  0  3  0  0  0  0  0  0
  162.0830  210.4230  154.8750 C   0  0  0  0  0  3  0  0  0  0  0  0
  160.9140  209.8460  154.1280 C   0  0  2  0  0  3  0  0  0  0  0  0
  159.4830  209.3510  156.1160 C   0  0  0  0  0  3  0  0  0  0  0  0
  162.5030  209.9630  156.0520 C   0  0  0  0  0  3  0  0  0  0  0  0
  161.8450  208.9030  156.8390 C   0  0  0  0  0  3  0  0  0  0  0  0
  161.9360  208.4800  149.9100 C   0  0  0  0  0  0  0  0  0  0  0  0
  161.7600  206.0970  150.3320 C   0  0  0  0  0  3  0  0  0  0  0  0
  161.3960  206.9490  148.1030 C   0  0  0  0  0  3  0  0  0  0  0  0
  161.4530  205.8630  148.9850 C   0  0  0  0  0  0  0  0  0  0  0  0
  161.6290  208.2460  148.5620 C   0  0  0  0  0  3  0  0  0  0  0  0
  161.9970  207.3990  150.8040 C   0  0  0  0  0  0  0  0  0  0  0  0
  161.3910  203.3320  149.3120 N   0  0  0  0  0  0  0  0  0  0  0  0
  160.9030  204.3280  147.2700 O   0  0  0  0  0  0  0  0  0  0  0  0
  159.0880  201.3030  149.0900 C   0  0  0  0  0  1  0  0  0  0  0  0
  161.2280  204.4890  148.4780 C   0  0  0  0  0  0  0  0  0  0  0  0
  161.3330  202.0930  148.7720 O   0  0  0  0  0  0  0  0  0  0  0  0
  160.4980  201.3770  149.6530 C   0  0  1  0  0  3  0  0  0  0  0  0
  161.0170  203.3460  150.7020 C   0  0  0  0  0  2  0  0  0  0  0  0
  160.4830  202.0280  150.9620 N   0  0  0  0  0  2  0  0  0  0  0  0
  162.3020  207.6340  152.1520 O   0  0  0  0  0  0  0  0  0  0  0  0
  162.5880  206.5960  153.0830 C   0  0  0  0  0  2  0  0  0  0  0  0
  161.1660  204.7080  153.3970 O   0  0  0  0  0  0  0  0  0  0  0  0
  160.3210  206.7130  154.1140 O   0  0  0  0  0  1  0  0  0  0  0  0
  161.3240  205.9490  153.5350 C   0  0  0  0  0  0  0  0  0  0  0  0
  1 10  1  6  0  0  0
  1  2  1  0  0  0  0
  2 11  1  0  0  0  0
  3 22  1  6  0  0  0
  3  5  1  0  0  0  0
  5  7  1  0  0  0  0
  6  2  2  0  0  0  0
  7 14  1  6  0  0  0
  7 18  1  0  0  0  0
  9  8  1  6  0  0  0
  9  1  1  0  0  0  0
  9  3  1  0  0  0  0
 10  4  2  0  0  0  0
 11  7  1  0  0  0  0
 11 13  1  1  0  0  0
 12  8  1  0  0  0  0
 12 10  1  0  0  0  0
 15 19  2  0  0  0  0
 17 20  2  0  0  0  0
 18 17  1  1  0  0  0
 18 15  1  0  0  0  0
 19 16  1  0  0  0  0
 20 21  1  0  0  0  0
 21 16  2  0  0  0  0
 22 27  1  0  0  0  0
 23 27  2  0  0  0  0
 24 26  1  0  0  0  0
 24 25  2  0  0  0  0
 25 23  1  0  0  0  0
 26 22  2  0  0  0  0
 27 36  1  0  0  0  0
 28 34  1  0  0  0  0
 29 31  2  0  0  0  0
 31 25  1  0  0  0  0
 31 28  1  0  0  0  0
 32 28  1  0  0  0  0
 32 33  1  0  0  0  0
 33 30  1  6  0  0  0
 33 35  1  0  0  0  0
 34 35  1  0  0  0  0
 36 37  1  0  0  0  0
 37 40  1  0  0  0  0
 38 40  2  0  0  0  0
 40 39  1  0  0  0  0
M  END
>  <MODEL>
2

>  <REMARK>
 VINA RESULT:      -4.0      1.922      3.015
  Name = 
  6 active torsions:
  status: ('A' for Active; 'I' for Inactive)
    1  A    between atoms: C_3  and  C_6
    2  A    between atoms: C_14  and  C_18
    3  A    between atoms: C_15  and  O_25
    4  A    between atoms: C_15  and  C_31
    5  A    between atoms: C_17  and  C_28
    6  A    between atoms: O_25  and  C_33
                            x       y       z     vdW  Elec       q    Type
                         _______ _______ _______ _____ _____    ______ ____

>  <TORSDO>
F 6

$$$$
=
 OpenBabel11072415143D

 40 44  0  0  1  0  0  0  0  0999 V2000
  161.5110  211.9620  149.8580 C   0  0  1  0  0  3  0  0  0  0  0  0
  160.4190  212.6430  150.6260 C   0  0  0  0  0  0  0  0  0  0  0  0
  161.9200  209.7610  151.0100 C   0  0  2  0  0  3  0  0  0  0  0  0
  161.6030  213.4400  147.9380 O   0  0  0  0  0  0  0  0  0  0  0  0
  161.8030  210.4520  152.3870 C   0  0  0  0  0  2  0  0  0  0  0  0
  159.4470  213.1130  150.0500 O   0  0  0  0  0  0  0  0  0  0  0  0
  160.5070  211.2150  152.7740 C   0  0  1  0  0  0  0  0  0  0  0  0
  161.6470  209.9590  148.4710 C   0  0  0  0  0  2  0  0  0  0  0  0
  161.2180  210.4720  149.8510 C   0  0  2  0  0  3  0  0  0  0  0  0
  161.5600  212.2740  148.4110 C   0  0  0  0  0  0  0  0  0  0  0  0
  160.4920  212.6380  152.1330 C   0  0  2  0  0  3  0  0  0  0  0  0
  161.6260  211.1200  147.5990 N   0  0  0  0  0  2  0  0  0  0  0  0
  159.4730  213.4340  152.6660 O   0  0  0  0  0  1  0  0  0  0  0  0
  159.2740  210.4170  152.3430 C   0  0  0  0  0  1  0  0  0  0  0  0
  161.8030  210.8250  154.9580 C   0  0  0  0  0  3  0  0  0  0  0  0
  161.1820  211.5620  157.2600 C   0  0  0  0  0  3  0  0  0  0  0  0
  159.3180  210.6720  154.9590 C   0  0  0  0  0  3  0  0  0  0  0  0
  160.5250  211.3020  154.3250 C   0  0  2  0  0  3  0  0  0  0  0  0
  162.0910  210.9880  156.2480 C   0  0  0  0  0  3  0  0  0  0  0  0
  159.0140  210.7980  156.2500 C   0  0  0  0  0  3  0  0  0  0  0  0
  159.8460  211.4790  157.2600 C   0  0  0  0  0  3  0  0  0  0  0  0
  161.6220  208.2890  151.0980 C   0  0  0  0  0  0  0  0  0  0  0  0
  161.7300  206.0630  150.1350 C   0  0  0  0  0  3  0  0  0  0  0  0
  160.7830  206.3740  152.3340 C   0  0  0  0  0  3  0  0  0  0  0  0
  161.1360  205.5190  151.2820 C   0  0  0  0  0  0  0  0  0  0  0  0
  161.0290  207.7440  152.2450 C   0  0  0  0  0  3  0  0  0  0  0  0
  161.9800  207.4420  150.0350 C   0  0  0  0  0  0  0  0  0  0  0  0
  160.3230  203.3200  150.2740 N   0  0  0  0  0  0  0  0  0  0  0  0
  161.0440  203.4790  152.4780 O   0  0  0  0  0  0  0  0  0  0  0  0
  161.7600  200.6410  149.7970 C   0  0  0  0  0  1  0  0  0  0  0  0
  160.8460  204.0700  151.3810 C   0  0  0  0  0  0  0  0  0  0  0  0
  159.9220  202.0400  150.4510 O   0  0  0  0  0  0  0  0  0  0  0  0
  160.4900  201.3510  149.3610 C   0  0  1  0  0  3  0  0  0  0  0  0
  160.7360  203.5860  148.9210 C   0  0  0  0  0  2  0  0  0  0  0  0
  160.7860  202.2920  148.2800 N   0  0  0  0  0  2  0  0  0  0  0  0
  162.5750  207.9870  148.8890 O   0  0  0  0  0  0  0  0  0  0  0  0
  163.1010  207.1970  147.8290 C   0  0  0  0  0  2  0  0  0  0  0  0
  160.8380  206.9010  147.1380 O   0  0  0  0  0  1  0  0  0  0  0  0
  162.2770  205.2110  146.5670 O   0  0  0  0  0  0  0  0  0  0  0  0
  162.0070  206.4350  147.1640 C   0  0  0  0  0  0  0  0  0  0  0  0
  1 10  1  6  0  0  0
  1  2  1  0  0  0  0
  2 11  1  0  0  0  0
  3 22  1  1  0  0  0
  3  5  1  0  0  0  0
  4 10  2  0  0  0  0
  5  7  1  0  0  0  0
  6  2  2  0  0  0  0
  7 14  1  6  0  0  0
  7 18  1  0  0  0  0
  9  8  1  6  0  0  0
  9  1  1  0  0  0  0
  9  3  1  0  0  0  0
 11 13  1  1  0  0  0
 11  7  1  0  0  0  0
 12 10  1  0  0  0  0
 12  8  1  0  0  0  0
 15 19  2  0  0  0  0
 16 21  2  0  0  0  0
 17 20  2  0  0  0  0
 18 15  1  1  0  0  0
 18 17  1  0  0  0  0
 19 16  1  0  0  0  0
 20 21  1  0  0  0  0
 22 26  1  0  0  0  0
 23 25  2  0  0  0  0
 25 31  1  0  0  0  0
 25 24  1  0  0  0  0
 26 24  2  0  0  0  0
 27 23  1  0  0  0  0
 27 22  2  0  0  0  0
 28 32  1  0  0  0  0
 28 31  1  0  0  0  0
 31 29  2  0  0  0  0
 33 30  1  1  0  0  0
 33 32  1  0  0  0  0
 34 28  1  0  0  0  0
 35 34  1  0  0  0  0
 35 33  1  0  0  0  0
 36 27  1  0  0  0  0
 37 36  1  0  0  0  0
 38 40  1  0  0  0  0
 39 40  2  0  0  0  0
 40 37  1  0  0  0  0
M  END
>  <MODEL>
3

>  <REMARK>
 VINA RESULT:      -3.7      2.075      3.530
  Name = 
  6 active torsions:
  status: ('A' for Active; 'I' for Inactive)
    1  A    between atoms: C_3  and  C_6
    2  A    between atoms: C_14  and  C_18
    3  A    between atoms: C_15  and  O_25
    4  A    between atoms: C_15  and  C_31
    5  A    between atoms: C_17  and  C_28
    6  A    between atoms: O_25  and  C_33
                            x       y       z     vdW  Elec       q    Type
                         _______ _______ _______ _____ _____    ______ ____

>  <TORSDO>
F 6

$$$$
=
 OpenBabel11072415143D

 40 44  0  0  1  0  0  0  0  0999 V2000
  160.6770  208.1450  155.0880 C   0  0  1  0  0  3  0  0  0  0  0  0
  161.2540  209.4950  155.3860 C   0  0  0  0  0  0  0  0  0  0  0  0
  160.3330  208.0560  152.5960 C   0  0  2  0  0  3  0  0  0  0  0  0
  160.9900  207.1130  157.2590 O   0  0  0  0  0  0  0  0  0  0  0  0
  159.8000  209.5070  152.6100 C   0  0  0  0  0  2  0  0  0  0  0  0
  162.2520  209.6110  156.0850 O   0  0  0  0  0  0  0  0  0  0  0  0
  160.6850  210.6610  153.1540 C   0  0  1  0  0  0  0  0  0  0  0  0
  161.4620  206.1630  153.9010 C   0  0  0  0  0  2  0  0  0  0  0  0
  161.2480  207.6760  153.7620 C   0  0  2  0  0  3  0  0  0  0  0  0
  161.0930  207.0600  156.0060 C   0  0  0  0  0  0  0  0  0  0  0  0
  160.6430  210.7010  154.7140 C   0  0  2  0  0  3  0  0  0  0  0  0
  161.5610  205.9130  155.3280 N   0  0  0  0  0  2  0  0  0  0  0  0
  161.2160  211.8740  155.2170 O   0  0  0  0  0  1  0  0  0  0  0  0
  162.1250  210.5040  152.6580 C   0  0  0  0  0  1  0  0  0  0  0  0
  158.6170  212.1410  152.7930 C   0  0  0  0  0  3  0  0  0  0  0  0
  158.5320  214.4530  151.8570 C   0  0  0  0  0  3  0  0  0  0  0  0
  160.4410  212.1420  151.0980 C   0  0  0  0  0  3  0  0  0  0  0  0
  160.0890  211.9610  152.5470 C   0  0  2  0  0  3  0  0  0  0  0  0
  157.9570  213.2660  152.5190 C   0  0  0  0  0  3  0  0  0  0  0  0
  160.2150  213.2670  150.4210 C   0  0  0  0  0  3  0  0  0  0  0  0
  159.5120  214.4530  150.9460 C   0  0  0  0  0  3  0  0  0  0  0  0
  160.8700  207.6720  151.2440 C   0  0  0  0  0  0  0  0  0  0  0  0
  161.3180  205.9770  149.5660 C   0  0  0  0  0  3  0  0  0  0  0  0
  161.8260  208.2900  149.0980 C   0  0  0  0  0  3  0  0  0  0  0  0
  161.8060  206.9520  148.6850 C   0  0  0  0  0  0  0  0  0  0  0  0
  161.3580  208.6470  150.3630 C   0  0  0  0  0  3  0  0  0  0  0  0
  160.8450  206.3260  150.8420 C   0  0  0  0  0  0  0  0  0  0  0  0
  162.4500  205.2180  146.9270 N   0  0  0  0  0  0  0  0  0  0  0  0
  162.7010  207.5000  146.5650 O   0  0  0  0  0  0  0  0  0  0  0  0
  161.3760  204.6910  144.0920 C   0  0  0  0  0  1  0  0  0  0  0  0
  162.3290  206.5850  147.3490 C   0  0  0  0  0  0  0  0  0  0  0  0
  163.0810  204.9190  145.7670 O   0  0  0  0  0  0  0  0  0  0  0  0
  162.2220  203.9920  145.1420 C   0  0  1  0  0  3  0  0  0  0  0  0
  161.4750  204.2250  147.2960 C   0  0  0  0  0  2  0  0  0  0  0  0
  161.3610  203.3610  146.1430 N   0  0  0  0  0  2  0  0  0  0  0  0
  160.3560  205.3520  151.7230 O   0  0  0  0  0  0  0  0  0  0  0  0
  159.8040  204.1130  151.2920 C   0  0  0  0  0  2  0  0  0  0  0  0
  160.8320  202.2740  150.1760 O   0  0  0  0  0  0  0  0  0  0  0  0
  161.9500  203.0680  152.0120 O   0  0  0  0  0  1  0  0  0  0  0  0
  160.8830  203.0990  151.1250 C   0  0  0  0  0  0  0  0  0  0  0  0
  1  2  1  1  0  0  0
  1 10  1  0  0  0  0
  2  6  2  0  0  0  0
  3 22  1  6  0  0  0
  3  5  1  0  0  0  0
  3  9  1  0  0  0  0
  5  7  1  0  0  0  0
  7 14  1  6  0  0  0
  7 11  1  0  0  0  0
  8 12  1  0  0  0  0
  9  8  1  1  0  0  0
  9  1  1  0  0  0  0
 10  4  2  0  0  0  0
 11 13  1  1  0  0  0
 11  2  1  0  0  0  0
 12 10  1  0  0  0  0
 16 19  1  0  0  0  0
 18 17  1  6  0  0  0
 18 15  1  0  0  0  0
 18  7  1  0  0  0  0
 19 15  2  0  0  0  0
 20 21  1  0  0  0  0
 20 17  2  0  0  0  0
 21 16  2  0  0  0  0
 23 27  2  0  0  0  0
 24 26  1  0  0  0  0
 25 24  2  0  0  0  0
 25 23  1  0  0  0  0
 26 22  2  0  0  0  0
 27 22  1  0  0  0  0
 27 36  1  0  0  0  0
 28 34  1  0  0  0  0
 28 31  1  0  0  0  0
 29 31  2  0  0  0  0
 31 25  1  0  0  0  0
 32 28  1  0  0  0  0
 33 30  1  6  0  0  0
 33 32  1  0  0  0  0
 33 35  1  0  0  0  0
 35 34  1  0  0  0  0
 37 36  1  0  0  0  0
 38 40  2  0  0  0  0
 40 37  1  0  0  0  0
 40 39  1  0  0  0  0
M  END
>  <MODEL>
4

>  <REMARK>
 VINA RESULT:      -3.5      2.785      5.766
  Name = 
  6 active torsions:
  status: ('A' for Active; 'I' for Inactive)
    1  A    between atoms: C_3  and  C_6
    2  A    between atoms: C_14  and  C_18
    3  A    between atoms: C_15  and  O_25
    4  A    between atoms: C_15  and  C_31
    5  A    between atoms: C_17  and  C_28
    6  A    between atoms: O_25  and  C_33
                            x       y       z     vdW  Elec       q    Type
                         _______ _______ _______ _____ _____    ______ ____

>  <TORSDO>
F 6

$$$$
=
 OpenBabel11072415143D

 40 44  0  0  1  0  0  0  0  0999 V2000
  162.0300  208.1700  154.0810 C   0  0  1  0  0  3  0  0  0  0  0  0
  161.1760  206.9640  153.8380 C   0  0  0  0  0  0  0  0  0  0  0  0
  162.2590  209.3340  151.8610 C   0  0  2  0  0  3  0  0  0  0  0  0
  162.0720  208.1230  156.5050 O   0  0  0  0  0  0  0  0  0  0  0  0
  162.4470  207.9710  151.1570 C   0  0  0  0  0  2  0  0  0  0  0  0
  160.2150  206.7210  154.5560 O   0  0  0  0  0  0  0  0  0  0  0  0
  161.3510  206.8770  151.2640 C   0  0  1  0  0  0  0  0  0  0  0  0
  161.6600  210.5810  154.0160 C   0  0  0  0  0  2  0  0  0  0  0  0
  161.5160  209.2920  153.1970 C   0  0  2  0  0  3  0  0  0  0  0  0
  161.9200  208.7650  155.4330 C   0  0  0  0  0  0  0  0  0  0  0  0
  161.4620  206.1160  152.6230 C   0  0  2  0  0  3  0  0  0  0  0  0
  161.6930  210.1590  155.4060 N   0  0  0  0  0  2  0  0  0  0  0  0
  160.6620  204.9680  152.6390 O   0  0  0  0  0  1  0  0  0  0  0  0
  159.9620  207.5000  151.1080 C   0  0  0  0  0  1  0  0  0  0  0  0
  161.6520  206.6010  148.7280 C   0  0  0  0  0  3  0  0  0  0  0  0
  162.3780  204.5630  147.4840 C   0  0  0  0  0  3  0  0  0  0  0  0
  160.6770  204.7370  150.0600 C   0  0  0  0  0  3  0  0  0  0  0  0
  161.6030  205.9190  150.0670 C   0  0  2  0  0  3  0  0  0  0  0  0
  162.0380  205.9940  147.6060 C   0  0  0  0  0  3  0  0  0  0  0  0
  160.8300  203.6860  149.2550 C   0  0  0  0  0  3  0  0  0  0  0  0
  161.8530  203.5620  148.2000 C   0  0  0  0  0  3  0  0  0  0  0  0
  161.7570  210.3880  150.9110 C   0  0  0  0  0  0  0  0  0  0  0  0
  160.1920  212.1660  150.3850 C   0  0  0  0  0  3  0  0  0  0  0  0
  161.9630  211.6310  148.8350 C   0  0  0  0  0  3  0  0  0  0  0  0
  160.8510  212.4110  149.1720 C   0  0  0  0  0  0  0  0  0  0  0  0
  162.4150  210.6320  149.6980 C   0  0  0  0  0  3  0  0  0  0  0  0
  160.6390  211.1630  151.2600 C   0  0  0  0  0  0  0  0  0  0  0  0
  160.5950  213.3660  146.8190 N   0  0  0  0  0  0  0  0  0  0  0  0
  159.7550  214.4530  148.6930 O   0  0  0  0  0  0  0  0  0  0  0  0
  158.1000  213.9610  145.1190 C   0  0  0  0  0  1  0  0  0  0  0  0
  160.3670  213.4510  148.2340 C   0  0  0  0  0  0  0  0  0  0  0  0
  160.2810  214.4100  146.0170 O   0  0  0  0  0  0  0  0  0  0  0  0
  159.6000  213.8150  144.9350 C   0  0  1  0  0  3  0  0  0  0  0  0
  160.5580  212.1060  146.1230 C   0  0  0  0  0  2  0  0  0  0  0  0
  159.9600  212.4010  144.8400 N   0  0  0  0  0  2  0  0  0  0  0  0
  159.9810  210.9180  152.4740 O   0  0  0  0  0  0  0  0  0  0  0  0
  158.6370  211.3090  152.7290 C   0  0  0  0  0  2  0  0  0  0  0  0
  157.7950  211.0170  154.9410 O   0  0  0  0  0  1  0  0  0  0  0  0
  159.1010  212.8720  154.6150 O   0  0  0  0  0  0  0  0  0  0  0  0
  158.4820  211.7190  154.1540 C   0  0  0  0  0  0  0  0  0  0  0  0
  1  2  1  1  0  0  0
  1 10  1  0  0  0  0
  2  6  2  0  0  0  0
  3 22  1  6  0  0  0
  3  9  1  0  0  0  0
  5  7  1  0  0  0  0
  5  3  1  0  0  0  0
  7 14  1  6  0  0  0
  7 11  1  0  0  0  0
  8 12  1  0  0  0  0
  9  8  1  1  0  0  0
  9  1  1  0  0  0  0
 10  4  2  0  0  0  0
 11 13  1  6  0  0  0
 11  2  1  0  0  0  0
 12 10  1  0  0  0  0
 16 19  1  0  0  0  0
 16 21  2  0  0  0  0
 17 18  1  0  0  0  0
 18 15  1  6  0  0  0
 18  7  1  0  0  0  0
 19 15  2  0  0  0  0
 20 17  2  0  0  0  0
 21 20  1  0  0  0  0
 22 27  1  0  0  0  0
 23 27  2  0  0  0  0
 24 25  2  0  0  0  0
 24 26  1  0  0  0  0
 25 23  1  0  0  0  0
 26 22  2  0  0  0  0
 27 36  1  0  0  0  0
 28 31  1  0  0  0  0
 31 29  2  0  0  0  0
 31 25  1  0  0  0  0
 32 28  1  0  0  0  0
 33 30  1  1  0  0  0
 33 32  1  0  0  0  0
 34 28  1  0  0  0  0
 35 33  1  0  0  0  0
 35 34  1  0  0  0  0
 36 37  1  0  0  0  0
 37 40  1  0  0  0  0
 40 39  2  0  0  0  0
 40 38  1  0  0  0  0
M  END
>  <MODEL>
5

>  <REMARK>
 VINA RESULT:      -3.2      2.575      8.132
  Name = 
  6 active torsions:
  status: ('A' for Active; 'I' for Inactive)
    1  A    between atoms: C_3  and  C_6
    2  A    between atoms: C_14  and  C_18
    3  A    between atoms: C_15  and  O_25
    4  A    between atoms: C_15  and  C_31
    5  A    between atoms: C_17  and  C_28
    6  A    between atoms: O_25  and  C_33
                            x       y       z     vdW  Elec       q    Type
                         _______ _______ _______ _____ _____    ______ ____

>  <TORSDO>
F 6

$$$$
=
 OpenBabel11072415143D

 40 44  0  0  1  0  0  0  0  0999 V2000
  161.5950  205.2680  152.0060 C   0  0  1  0  0  3  0  0  0  0  0  0
  160.7350  204.3550  151.1880 C   0  0  0  0  0  0  0  0  0  0  0  0
  162.2740  207.1540  150.4830 C   0  0  2  0  0  3  0  0  0  0  0  0
  161.2050  204.2980  154.1930 O   0  0  0  0  0  0  0  0  0  0  0  0
  162.5110  206.1490  149.3320 C   0  0  0  0  0  2  0  0  0  0  0  0
  159.6500  203.9720  151.6070 O   0  0  0  0  0  0  0  0  0  0  0  0
  161.3560  205.2340  148.8420 C   0  0  1  0  0  0  0  0  0  0  0  0
  161.3700  207.5480  152.8460 C   0  0  0  0  0  2  0  0  0  0  0  0
  161.3040  206.6950  151.5730 C   0  0  2  0  0  3  0  0  0  0  0  0
  161.2790  205.3130  153.4520 C   0  0  0  0  0  0  0  0  0  0  0  0
  161.1850  204.0060  149.7900 C   0  0  2  0  0  3  0  0  0  0  0  0
  161.1340  206.6280  153.9450 N   0  0  0  0  0  2  0  0  0  0  0  0
  160.3360  203.0410  149.2380 O   0  0  0  0  0  1  0  0  0  0  0  0
  160.0520  206.0290  148.7490 C   0  0  0  0  0  1  0  0  0  0  0  0
  163.2290  204.9430  147.1070 C   0  0  0  0  0  3  0  0  0  0  0  0
  163.1120  203.7620  144.9110 C   0  0  0  0  0  3  0  0  0  0  0  0
  160.9000  205.3810  146.3410 C   0  0  0  0  0  3  0  0  0  0  0  0
  161.7660  204.7820  147.4120 C   0  0  2  0  0  3  0  0  0  0  0  0
  163.8110  204.4470  146.0160 C   0  0  0  0  0  3  0  0  0  0  0  0
  160.9290  204.9910  145.0680 C   0  0  0  0  0  3  0  0  0  0  0  0
  161.8610  203.9990  144.5000 C   0  0  0  0  0  3  0  0  0  0  0  0
  162.0030  208.5410  149.9650 C   0  0  0  0  0  0  0  0  0  0  0  0
  161.7730  210.9230  150.3630 C   0  0  0  0  0  3  0  0  0  0  0  0
  161.5790  210.0600  148.1180 C   0  0  0  0  0  3  0  0  0  0  0  0
  161.5690  211.1510  148.9950 C   0  0  0  0  0  0  0  0  0  0  0  0
  161.7990  208.7680  148.5960 C   0  0  0  0  0  3  0  0  0  0  0  0
  161.9950  209.6270  150.8560 C   0  0  0  0  0  0  0  0  0  0  0  0
  162.1320  213.1120  147.4630 N   0  0  0  0  0  0  0  0  0  0  0  0
  160.3490  213.1770  148.9510 O   0  0  0  0  0  0  0  0  0  0  0  0
  160.5390  214.4530  145.1970 C   0  0  0  0  0  1  0  0  0  0  0  0
  161.3090  212.5130  148.4750 C   0  0  0  0  0  0  0  0  0  0  0  0
  161.9610  214.4130  147.1310 O   0  0  0  0  0  0  0  0  0  0  0  0
  161.9630  214.4090  145.7220 C   0  0  1  0  0  3  0  0  0  0  0  0
  162.6850  212.3370  146.3830 C   0  0  0  0  0  2  0  0  0  0  0  0
  162.6420  213.2090  145.2310 N   0  0  0  0  0  2  0  0  0  0  0  0
  162.2000  209.3980  152.2230 O   0  0  0  0  0  0  0  0  0  0  0  0
  162.4560  210.4380  153.1610 C   0  0  0  0  0  2  0  0  0  0  0  0
  160.3070  211.4010  153.5410 O   0  0  0  0  0  0  0  0  0  0  0  0
  161.1450  210.1390  155.2610 O   0  0  0  0  0  1  0  0  0  0  0  0
  161.2440  210.6910  153.9910 C   0  0  0  0  0  0  0  0  0  0  0  0
  1  2  1  6  0  0  0
  1 10  1  0  0  0  0
  2  6  2  0  0  0  0
  3 22  1  6  0  0  0
  3  9  1  0  0  0  0
  5  3  1  0  0  0  0
  7 14  1  6  0  0  0
  7  5  1  0  0  0  0
  7 11  1  0  0  0  0
  8 12  1  0  0  0  0
  9  1  1  0  0  0  0
  9  8  1  1  0  0  0
 10 12  1  0  0  0  0
 10  4  2  0  0  0  0
 11 13  1  6  0  0  0
 11  2  1  0  0  0  0
 15 18  1  0  0  0  0
 16 19  1  0  0  0  0
 18 17  1  6  0  0  0
 18  7  1  0  0  0  0
 19 15  2  0  0  0  0
 20 17  2  0  0  0  0
 21 16  2  0  0  0  0
 21 20  1  0  0  0  0
 22 27  1  0  0  0  0
 23 27  2  0  0  0  0
 24 26  1  0  0  0  0
 24 25  2  0  0  0  0
 25 23  1  0  0  0  0
 26 22  2  0  0  0  0
 27 36  1  0  0  0  0
 28 31  1  0  0  0  0
 31 29  2  0  0  0  0
 31 25  1  0  0  0  0
 32 28  1  0  0  0  0
 33 30  1  1  0  0  0
 33 32  1  0  0  0  0
 34 28  1  0  0  0  0
 35 33  1  0  0  0  0
 35 34  1  0  0  0  0
 36 37  1  0  0  0  0
 37 40  1  0  0  0  0
 38 40  2  0  0  0  0
 40 39  1  0  0  0  0
M  END
>  <MODEL>
6

>  <REMARK>
 VINA RESULT:      -2.7      2.607      9.046
  Name = 
  6 active torsions:
  status: ('A' for Active; 'I' for Inactive)
    1  A    between atoms: C_3  and  C_6
    2  A    between atoms: C_14  and  C_18
    3  A    between atoms: C_15  and  O_25
    4  A    between atoms: C_15  and  C_31
    5  A    between atoms: C_17  and  C_28
    6  A    between atoms: O_25  and  C_33
                            x       y       z     vdW  Elec       q    Type
                         _______ _______ _______ _____ _____    ______ ____

>  <TORSDO>
F 6

$$$$
