=
 OpenBabel11072414333D

 36 40  0  0  1  0  0  0  0  0999 V2000
  160.7880  208.1300  152.1640 C   0  0  1  0  0  3  0  0  0  0  0  0
  161.6650  210.3600  151.6270 N   0  0  0  0  0  2  0  0  0  0  0  0
  160.5960  209.6380  152.3370 C   0  0  2  0  0  0  0  0  0  0  0  0
  161.9560  209.0810  152.2890 C   0  0  1  0  0  3  0  0  0  0  0  0
  159.1060  211.8210  155.1530 C   0  0  2  0  0  3  0  0  0  0  0  0
  160.4480  212.2660  155.7360 C   0  0  0  0  0  2  0  0  0  0  0  0
  160.3650  210.1660  153.7630 C   0  0  1  0  0  3  0  0  0  0  0  0
  161.3790  211.1400  155.7740 N   0  0  0  0  0  2  0  0  0  0  0  0
  161.6500  210.7050  154.4040 C   0  0  0  0  0  2  0  0  0  0  0  0
  159.3350  211.2920  153.7400 C   0  0  0  0  0  2  0  0  0  0  0  0
  157.9400  213.1850  155.1580 S   0  0  0  0  0  0  0  0  0  0  0  0
  157.2240  213.2570  153.8380 O   0  0  0  0  0  0  0  0  0  0  0  0
  158.7350  214.4500  155.3190 O   0  0  0  0  0  0  0  0  0  0  0  0
  155.7500  211.0880  155.2400 C   0  0  0  0  0  1  0  0  0  0  0  0
  155.8150  212.0100  156.4500 C   0  0  0  0  0  0  0  0  0  0  0  0
  156.7880  213.1300  156.4820 N   0  0  0  0  0  0  0  0  0  0  0  0
  157.0140  211.8920  157.2590 C   0  0  0  0  0  2  0  0  0  0  0  0
  154.5550  212.2830  157.2410 C   0  0  0  0  0  1  0  0  0  0  0  0
  161.1470  206.1200  153.5770 N   0  0  0  0  0  0  0  0  0  0  0  0
  160.6770  207.3260  153.4250 C   0  0  0  0  0  3  0  0  0  0  0  0
  163.1700  205.3570  152.4610 C   0  0  0  0  0  2  0  0  0  0  0  0
  161.8540  205.2960  152.6320 C   0  0  0  0  0  0  0  0  0  0  0  0
  161.0740  204.3430  151.7960 C   0  0  0  0  0  2  0  0  0  0  0  0
  160.0600  202.7650  149.6380 O   0  0  0  0  0  0  0  0  0  0  0  0
  161.5290  204.4050  150.4150 N   0  0  0  0  0  2  0  0  0  0  0  0
  161.0280  203.5330  149.3980 C   0  0  0  0  0  0  0  0  0  0  0  0
  163.1770  204.6010  145.2890 C   0  0  0  0  0  1  0  0  0  0  0  0
  161.3820  202.9690  145.8120 C   0  0  2  0  0  3  0  0  0  0  0  0
  161.0350  202.5380  147.1630 N   0  0  0  0  0  2  0  0  0  0  0  0
  161.7750  204.8280  147.3180 C   0  0  1  0  0  3  0  0  0  0  0  0
  161.6860  203.4900  148.0510 C   0  0  1  0  0  3  0  0  0  0  0  0
  161.7810  204.4360  145.8600 C   0  0  1  0  0  3  0  0  0  0  0  0
  160.5990  205.7290  147.5540 C   0  0  0  0  0  3  0  0  0  0  0  0
  160.7450  206.8010  148.1190 O   0  0  0  0  0  0  0  0  0  0  0  0
  159.7110  201.3560  144.9150 C   0  0  0  0  0  1  0  0  0  0  0  0
  160.1890  202.7940  144.8880 C   0  0  0  0  0  2  0  0  0  0  0  0
  1  4  1  0  0  0  0
  1  3  1  0  0  0  0
  1 20  1  1  0  0  0
  3  2  1  6  0  0  0
  3  7  1  0  0  0  0
  4  2  1  6  0  0  0
  4  3  1  0  0  0  0
  5 11  1  6  0  0  0
  5  6  1  0  0  0  0
  6  8  1  0  0  0  0
  7 10  1  6  0  0  0
  7  9  1  0  0  0  0
  9  8  1  0  0  0  0
 10  5  1  0  0  0  0
 11 13  2  0  0  0  0
 11 16  1  0  0  0  0
 12 11  2  0  0  0  0
 14 15  1  0  0  0  0
 15 16  1  0  0  0  0
 15 18  1  0  0  0  0
 15 17  1  0  0  0  0
 16 17  1  0  0  0  0
 20 19  2  0  0  0  0
 21 22  2  0  0  0  0
 22 19  1  0  0  0  0
 23 22  1  0  0  0  0
 25 23  1  0  0  0  0
 26 24  2  0  0  0  0
 26 25  1  0  0  0  0
 28 36  1  6  0  0  0
 28 32  1  0  0  0  0
 28 29  1  0  0  0  0
 29 31  1  0  0  0  0
 30 33  1  6  0  0  0
 30 31  1  0  0  0  0
 31 26  1  1  0  0  0
 32 27  1  1  0  0  0
 32 30  1  0  0  0  0
 33 34  2  0  0  0  0
 36 35  1  0  0  0  0
M  END
>  <MODEL>
1

>  <REMARK>
 VINA RESULT:      -6.7      0.000      0.000
  Name = 
  10 active torsions:
  status: ('A' for Active; 'I' for Inactive)
    1  A    between atoms: C_1  and  S_25
    2  A    between atoms: C_2  and  C_27
    3  A    between atoms: N_5  and  S_25
    4  A    between atoms: C_6  and  C_19
    5  A    between atoms: C_11  and  C_17
    6  A    between atoms: C_12  and  C_20
    7  A    between atoms: C_14  and  C_29
    8  A    between atoms: C_14  and  N_32
    9  A    between atoms: N_18  and  C_29
   10  A    between atoms: C_33  and  C_34
                            x       y       z     vdW  Elec       q    Type
                         _______ _______ _______ _____ _____    ______ ____

>  <TORSDO>
F 10

$$$$
=
 OpenBabel11072414333D

 36 40  0  0  1  0  0  0  0  0999 V2000
  162.2630  206.5660  147.0660 C   0  0  1  0  0  3  0  0  0  0  0  0
  162.7340  205.4400  144.9360 N   0  0  0  0  0  2  0  0  0  0  0  0
  162.4770  205.2220  146.3690 C   0  0  2  0  0  0  0  0  0  0  0  0
  161.7910  206.3080  145.6540 C   0  0  1  0  0  3  0  0  0  0  0  0
  160.6250  202.4180  148.2740 C   0  0  2  0  0  3  0  0  0  0  0  0
  160.7350  201.3720  147.1630 C   0  0  0  0  0  2  0  0  0  0  0  0
  161.4390  204.1150  146.6270 C   0  0  1  0  0  3  0  0  0  0  0  0
  160.4820  201.9890  145.8620 N   0  0  0  0  0  2  0  0  0  0  0  0
  161.5250  202.9800  145.6000 C   0  0  0  0  0  2  0  0  0  0  0  0
  161.6500  203.5180  148.0160 C   0  0  0  0  0  2  0  0  0  0  0  0
  160.8770  201.6540  149.8780 S   0  0  0  0  0  0  0  0  0  0  0  0
  161.6090  200.3500  149.7190 O   0  0  0  0  0  0  0  0  0  0  0  0
  159.5190  201.3500  150.4450 O   0  0  0  0  0  0  0  0  0  0  0  0
  159.8230  204.4210  150.5310 C   0  0  0  0  0  1  0  0  0  0  0  0
  161.0430  203.9830  151.3300 C   0  0  0  0  0  0  0  0  0  0  0  0
  161.6990  202.6850  151.0350 N   0  0  0  0  0  0  0  0  0  0  0  0
  160.8310  202.8570  152.2210 C   0  0  0  0  0  2  0  0  0  0  0  0
  161.9910  205.0320  151.8660 C   0  0  0  0  0  1  0  0  0  0  0  0
  160.9330  207.4770  148.9550 N   0  0  0  0  0  0  0  0  0  0  0  0
  161.0710  206.6300  147.9740 C   0  0  0  0  0  3  0  0  0  0  0  0
  162.0500  209.6240  148.7050 C   0  0  0  0  0  2  0  0  0  0  0  0
  161.8330  208.5100  149.3960 C   0  0  0  0  0  0  0  0  0  0  0  0
  162.5680  208.3150  150.6760 C   0  0  0  0  0  2  0  0  0  0  0  0
  160.3680  208.2360  152.5000 O   0  0  0  0  0  0  0  0  0  0  0  0
  162.2130  209.3640  151.6180 N   0  0  0  0  0  2  0  0  0  0  0  0
  161.0530  209.2920  152.4530 C   0  0  0  0  0  0  0  0  0  0  0  0
  160.2840  212.5440  155.8400 C   0  0  0  0  0  1  0  0  0  0  0  0
  158.7820  211.6290  154.0890 C   0  0  2  0  0  3  0  0  0  0  0  0
  159.2410  210.8620  152.9350 N   0  0  0  0  0  2  0  0  0  0  0  0
  160.7380  210.3630  154.7580 C   0  0  1  0  0  3  0  0  0  0  0  0
  160.6140  210.4910  153.2400 C   0  0  1  0  0  3  0  0  0  0  0  0
  159.6580  211.2790  155.2820 C   0  0  1  0  0  3  0  0  0  0  0  0
  160.4680  208.9800  155.2760 C   0  0  0  0  0  3  0  0  0  0  0  0
  159.6690  208.8060  156.1800 O   0  0  0  0  0  0  0  0  0  0  0  0
  156.5330  212.5490  154.6350 C   0  0  0  0  0  1  0  0  0  0  0  0
  157.3350  211.2850  154.4000 C   0  0  0  0  0  2  0  0  0  0  0  0
  1 20  1  1  0  0  0
  3  2  1  6  0  0  0
  3  7  1  0  0  0  0
  3  1  1  0  0  0  0
  4  2  1  6  0  0  0
  4  3  1  0  0  0  0
  4  1  1  0  0  0  0
  5 11  1  1  0  0  0
  6  5  1  0  0  0  0
  7  9  1  6  0  0  0
  7 10  1  0  0  0  0
  8  6  1  0  0  0  0
  9  8  1  0  0  0  0
 10  5  1  0  0  0  0
 11 13  2  0  0  0  0
 11 16  1  0  0  0  0
 12 11  2  0  0  0  0
 14 15  1  0  0  0  0
 15 18  1  0  0  0  0
 15 17  1  0  0  0  0
 16 15  1  0  0  0  0
 16 17  1  0  0  0  0
 19 22  1  0  0  0  0
 20 19  2  0  0  0  0
 21 22  2  0  0  0  0
 22 23  1  0  0  0  0
 23 25  1  0  0  0  0
 25 26  1  0  0  0  0
 26 24  2  0  0  0  0
 28 36  1  1  0  0  0
 28 32  1  0  0  0  0
 29 31  1  0  0  0  0
 29 28  1  0  0  0  0
 30 33  1  6  0  0  0
 30 32  1  0  0  0  0
 31 26  1  6  0  0  0
 31 30  1  0  0  0  0
 32 27  1  6  0  0  0
 33 34  2  0  0  0  0
 36 35  1  0  0  0  0
M  END
>  <MODEL>
2

>  <REMARK>
 VINA RESULT:      -6.0      3.216     10.217
  Name = 
  10 active torsions:
  status: ('A' for Active; 'I' for Inactive)
    1  A    between atoms: C_1  and  S_25
    2  A    between atoms: C_2  and  C_27
    3  A    between atoms: N_5  and  S_25
    4  A    between atoms: C_6  and  C_19
    5  A    between atoms: C_11  and  C_17
    6  A    between atoms: C_12  and  C_20
    7  A    between atoms: C_14  and  C_29
    8  A    between atoms: C_14  and  N_32
    9  A    between atoms: N_18  and  C_29
   10  A    between atoms: C_33  and  C_34
                            x       y       z     vdW  Elec       q    Type
                         _______ _______ _______ _____ _____    ______ ____

>  <TORSDO>
F 10

$$$$
=
 OpenBabel11072414333D

 36 40  0  0  1  0  0  0  0  0999 V2000
  160.8230  205.3880  151.0360 C   0  0  1  0  0  3  0  0  0  0  0  0
  160.6020  203.3820  152.4350 N   0  0  0  0  0  2  0  0  0  0  0  0
  160.4660  203.9000  151.0640 C   0  0  2  0  0  0  0  0  0  0  0  0
  161.5320  204.4070  151.9410 C   0  0  1  0  0  3  0  0  0  0  0  0
  161.5340  202.6450  147.5710 C   0  0  2  0  0  3  0  0  0  0  0  0
  160.9940  201.2240  147.7400 C   0  0  0  0  0  2  0  0  0  0  0  0
  161.1280  202.9900  150.0140 C   0  0  1  0  0  3  0  0  0  0  0  0
  161.2950  200.7270  149.0820 N   0  0  0  0  0  2  0  0  0  0  0  0
  160.5910  201.5550  150.0610 C   0  0  0  0  0  2  0  0  0  0  0  0
  160.8820  203.5470  148.6150 C   0  0  0  0  0  2  0  0  0  0  0  0
  161.2190  203.2380  145.9070 S   0  0  0  0  0  0  0  0  0  0  0  0
  160.4040  202.2290  145.1460 O   0  0  0  0  0  0  0  0  0  0  0  0
  162.5490  203.3650  145.2190 O   0  0  0  0  0  0  0  0  0  0  0  0
  162.7830  205.7550  146.5500 C   0  0  0  0  0  1  0  0  0  0  0  0
  161.3440  205.9780  146.1040 C   0  0  0  0  0  0  0  0  0  0  0  0
  160.4560  204.8170  145.8480 N   0  0  0  0  0  0  0  0  0  0  0  0
  161.0500  205.5920  144.7360 C   0  0  0  0  0  2  0  0  0  0  0  0
  160.6070  207.2110  146.5760 C   0  0  0  0  0  1  0  0  0  0  0  0
  162.2370  206.9980  149.7810 N   0  0  0  0  0  0  0  0  0  0  0  0
  161.7570  205.7970  149.9350 C   0  0  0  0  0  3  0  0  0  0  0  0
  161.8590  209.3860  150.0580 C   0  0  0  0  0  2  0  0  0  0  0  0
  162.0120  208.1740  150.5800 C   0  0  0  0  0  0  0  0  0  0  0  0
  161.9660  208.0300  152.0620 C   0  0  0  0  0  2  0  0  0  0  0  0
  162.1160  210.3100  153.7790 O   0  0  0  0  0  0  0  0  0  0  0  0
  160.8280  208.7620  152.5970 N   0  0  0  0  0  2  0  0  0  0  0  0
  160.9730  209.8520  153.5120 C   0  0  0  0  0  0  0  0  0  0  0  0
  156.7820  211.8500  154.5510 C   0  0  0  0  0  1  0  0  0  0  0  0
  159.0160  212.1110  155.6010 C   0  0  2  0  0  3  0  0  0  0  0  0
  160.1410  211.2090  155.3690 N   0  0  0  0  0  2  0  0  0  0  0  0
  158.8600  211.2860  153.3260 C   0  0  1  0  0  3  0  0  0  0  0  0
  159.7710  210.4240  154.2010 C   0  0  1  0  0  3  0  0  0  0  0  0
  158.2270  212.2440  154.3080 C   0  0  1  0  0  3  0  0  0  0  0  0
  159.5930  212.0920  152.2950 C   0  0  0  0  0  3  0  0  0  0  0  0
  159.5230  213.3100  152.2990 O   0  0  0  0  0  0  0  0  0  0  0  0
  160.4060  213.3450  157.2590 C   0  0  0  0  0  1  0  0  0  0  0  0
  159.5240  213.4750  156.0330 C   0  0  0  0  0  2  0  0  0  0  0  0
  1 20  1  6  0  0  0
  1  3  1  0  0  0  0
  1  4  1  0  0  0  0
  3  4  1  0  0  0  0
  3  2  1  1  0  0  0
  4  2  1  1  0  0  0
  5 11  1  6  0  0  0
  5  6  1  0  0  0  0
  5 10  1  0  0  0  0
  6  8  1  0  0  0  0
  7 10  1  6  0  0  0
  7  9  1  0  0  0  0
  7  3  1  0  0  0  0
  8  9  1  0  0  0  0
 12 11  2  0  0  0  0
 13 11  2  0  0  0  0
 15 14  1  0  0  0  0
 15 18  1  0  0  0  0
 16 11  1  0  0  0  0
 16 15  1  0  0  0  0
 17 16  1  0  0  0  0
 17 15  1  0  0  0  0
 19 20  2  0  0  0  0
 19 22  1  0  0  0  0
 21 22  2  0  0  0  0
 22 23  1  0  0  0  0
 23 25  1  0  0  0  0
 25 26  1  0  0  0  0
 26 24  2  0  0  0  0
 28 36  1  6  0  0  0
 29 28  1  0  0  0  0
 30 33  1  6  0  0  0
 30 31  1  0  0  0  0
 30 32  1  0  0  0  0
 31 26  1  6  0  0  0
 31 29  1  0  0  0  0
 32 27  1  1  0  0  0
 32 28  1  0  0  0  0
 33 34  2  0  0  0  0
 36 35  1  0  0  0  0
M  END
>  <MODEL>
3

>  <REMARK>
 VINA RESULT:      -5.9      3.248     10.732
  Name = 
  10 active torsions:
  status: ('A' for Active; 'I' for Inactive)
    1  A    between atoms: C_1  and  S_25
    2  A    between atoms: C_2  and  C_27
    3  A    between atoms: N_5  and  S_25
    4  A    between atoms: C_6  and  C_19
    5  A    between atoms: C_11  and  C_17
    6  A    between atoms: C_12  and  C_20
    7  A    between atoms: C_14  and  C_29
    8  A    between atoms: C_14  and  N_32
    9  A    between atoms: N_18  and  C_29
   10  A    between atoms: C_33  and  C_34
                            x       y       z     vdW  Elec       q    Type
                         _______ _______ _______ _____ _____    ______ ____

>  <TORSDO>
F 10

$$$$
=
 OpenBabel11072414333D

 36 40  0  0  1  0  0  0  0  0999 V2000
  161.0050  206.5110  153.1160 C   0  0  1  0  0  3  0  0  0  0  0  0
  162.1940  204.8350  151.7730 N   0  0  0  0  0  2  0  0  0  0  0  0
  161.1020  205.8210  151.7540 C   0  0  2  0  0  0  0  0  0  0  0  0
  162.3290  206.0940  152.5170 C   0  0  1  0  0  3  0  0  0  0  0  0
  161.2010  206.7380  148.0030 C   0  0  2  0  0  3  0  0  0  0  0  0
  162.3970  207.6860  148.1030 C   0  0  0  0  0  2  0  0  0  0  0  0
  161.1290  206.7170  150.5030 C   0  0  1  0  0  3  0  0  0  0  0  0
  162.2830  208.5180  149.3010 N   0  0  0  0  0  2  0  0  0  0  0  0
  162.3420  207.6550  150.4800 C   0  0  0  0  0  2  0  0  0  0  0  0
  161.1700  205.8530  149.2460 C   0  0  0  0  0  2  0  0  0  0  0  0
  161.3060  205.7570  146.5050 S   0  0  0  0  0  0  0  0  0  0  0  0
  162.4450  206.2410  145.6500 O   0  0  0  0  0  0  0  0  0  0  0  0
  160.0320  205.9760  145.7380 O   0  0  0  0  0  0  0  0  0  0  0  0
  160.3150  203.7460  144.4620 C   0  0  0  0  0  1  0  0  0  0  0  0
  160.9960  203.1500  145.6860 C   0  0  0  0  0  0  0  0  0  0  0  0
  161.4420  204.0310  146.7940 N   0  0  0  0  0  0  0  0  0  0  0  0
  162.4070  203.4610  145.8270 C   0  0  0  0  0  2  0  0  0  0  0  0
  160.6170  201.7570  146.1370 C   0  0  0  0  0  1  0  0  0  0  0  0
  160.6670  208.7670  154.0980 N   0  0  0  0  0  0  0  0  0  0  0  0
  160.8970  208.0060  153.0650 C   0  0  0  0  0  3  0  0  0  0  0  0
  160.0730  207.1820  155.8460 C   0  0  0  0  0  2  0  0  0  0  0  0
  160.4710  208.3930  155.4740 C   0  0  0  0  0  0  0  0  0  0  0  0
  160.7090  209.4160  156.5300 C   0  0  0  0  0  2  0  0  0  0  0  0
  160.1310  211.7200  154.9390 O   0  0  0  0  0  0  0  0  0  0  0  0
  159.5390  210.2690  156.6690 N   0  0  0  0  0  2  0  0  0  0  0  0
  159.3470  211.4510  155.8870 C   0  0  0  0  0  0  0  0  0  0  0  0
  155.2280  213.4530  157.1760 C   0  0  0  0  0  1  0  0  0  0  0  0
  156.8330  214.0420  155.3770 C   0  0  2  0  0  3  0  0  0  0  0  0
  158.1960  213.5250  155.2930 N   0  0  0  0  0  2  0  0  0  0  0  0
  156.8420  211.7960  156.2900 C   0  0  1  0  0  3  0  0  0  0  0  0
  158.2420  212.4070  156.2220 C   0  0  1  0  0  3  0  0  0  0  0  0
  155.9340  212.9480  155.9310 C   0  0  1  0  0  3  0  0  0  0  0  0
  156.6110  210.6940  155.2980 C   0  0  0  0  0  3  0  0  0  0  0  0
  155.5490  210.6110  154.7040 O   0  0  0  0  0  0  0  0  0  0  0  0
  155.1050  213.6700  153.6220 C   0  0  0  0  0  1  0  0  0  0  0  0
  156.3480  214.4530  153.9970 C   0  0  0  0  0  2  0  0  0  0  0  0
  1 20  1  6  0  0  0
  3  2  1  6  0  0  0
  3  4  1  0  0  0  0
  3  1  1  0  0  0  0
  4  2  1  1  0  0  0
  4  1  1  0  0  0  0
  5 11  1  6  0  0  0
  5  6  1  0  0  0  0
  5 10  1  0  0  0  0
  6  8  1  0  0  0  0
  7 10  1  6  0  0  0
  7  3  1  0  0  0  0
  8  9  1  0  0  0  0
  9  7  1  0  0  0  0
 11 16  1  0  0  0  0
 12 11  2  0  0  0  0
 13 11  2  0  0  0  0
 14 15  1  0  0  0  0
 15 17  1  0  0  0  0
 15 18  1  0  0  0  0
 15 16  1  0  0  0  0
 17 16  1  0  0  0  0
 19 22  1  0  0  0  0
 20 19  2  0  0  0  0
 22 21  2  0  0  0  0
 22 23  1  0  0  0  0
 23 25  1  0  0  0  0
 24 26  2  0  0  0  0
 26 25  1  0  0  0  0
 28 36  1  6  0  0  0
 28 32  1  0  0  0  0
 29 28  1  0  0  0  0
 29 31  1  0  0  0  0
 30 33  1  6  0  0  0
 31 26  1  6  0  0  0
 31 30  1  0  0  0  0
 32 30  1  0  0  0  0
 32 27  1  1  0  0  0
 34 33  2  0  0  0  0
 35 36  1  0  0  0  0
M  END
>  <MODEL>
4

>  <REMARK>
 VINA RESULT:      -5.9      2.857     10.840
  Name = 
  10 active torsions:
  status: ('A' for Active; 'I' for Inactive)
    1  A    between atoms: C_1  and  S_25
    2  A    between atoms: C_2  and  C_27
    3  A    between atoms: N_5  and  S_25
    4  A    between atoms: C_6  and  C_19
    5  A    between atoms: C_11  and  C_17
    6  A    between atoms: C_12  and  C_20
    7  A    between atoms: C_14  and  C_29
    8  A    between atoms: C_14  and  N_32
    9  A    between atoms: N_18  and  C_29
   10  A    between atoms: C_33  and  C_34
                            x       y       z     vdW  Elec       q    Type
                         _______ _______ _______ _____ _____    ______ ____

>  <TORSDO>
F 10

$$$$
=
 OpenBabel11072414333D

 36 40  0  0  1  0  0  0  0  0999 V2000
  160.8750  207.0820  154.9730 C   0  0  1  0  0  3  0  0  0  0  0  0
  159.9180  206.8310  157.2200 N   0  0  0  0  0  2  0  0  0  0  0  0
  160.9050  207.5760  156.4200 C   0  0  2  0  0  0  0  0  0  0  0  0
  159.6260  207.1670  155.8200 C   0  0  1  0  0  3  0  0  0  0  0  0
  159.5260  211.1780  156.2090 C   0  0  2  0  0  3  0  0  0  0  0  0
  160.8190  211.8130  155.6950 C   0  0  0  0  0  2  0  0  0  0  0  0
  160.8380  209.0950  156.6550 C   0  0  1  0  0  3  0  0  0  0  0  0
  161.9710  211.2560  156.4040 N   0  0  0  0  0  2  0  0  0  0  0  0
  162.0650  209.8280  156.1020 C   0  0  0  0  0  2  0  0  0  0  0  0
  159.5940  209.6700  155.9810 C   0  0  0  0  0  2  0  0  0  0  0  0
  158.1060  211.8990  155.3840 S   0  0  0  0  0  0  0  0  0  0  0  0
  157.4380  212.8990  156.2870 O   0  0  0  0  0  0  0  0  0  0  0  0
  157.1270  210.7880  155.1280 O   0  0  0  0  0  0  0  0  0  0  0  0
  156.0300  213.5120  153.8710 C   0  0  0  0  0  1  0  0  0  0  0  0
  157.4080  213.4550  153.2270 C   0  0  0  0  0  0  0  0  0  0  0  0
  158.4790  212.6240  153.8300 N   0  0  0  0  0  0  0  0  0  0  0  0
  158.4730  214.0960  153.9770 C   0  0  0  0  0  2  0  0  0  0  0  0
  157.5280  213.6000  151.7260 C   0  0  0  0  0  1  0  0  0  0  0  0
  161.1130  207.9870  152.6720 N   0  0  0  0  0  0  0  0  0  0  0  0
  160.8330  208.1620  153.9330 C   0  0  0  0  0  3  0  0  0  0  0  0
  162.7510  206.3150  152.0100 C   0  0  0  0  0  2  0  0  0  0  0  0
  161.5090  206.7830  151.9900 C   0  0  0  0  0  0  0  0  0  0  0  0
  160.4820  206.0370  151.2110 C   0  0  0  0  0  2  0  0  0  0  0  0
  160.3820  203.4440  150.0110 O   0  0  0  0  0  0  0  0  0  0  0  0
  161.0080  205.6910  149.8990 N   0  0  0  0  0  2  0  0  0  0  0  0
  160.9900  204.3540  149.3890 C   0  0  0  0  0  0  0  0  0  0  0  0
  163.5070  204.4890  145.3540 C   0  0  0  0  0  1  0  0  0  0  0  0
  161.5630  203.0950  146.0150 C   0  0  2  0  0  3  0  0  0  0  0  0
  161.0870  202.9520  147.3880 N   0  0  0  0  0  2  0  0  0  0  0  0
  161.9810  205.1820  147.1770 C   0  0  1  0  0  3  0  0  0  0  0  0
  161.7400  204.0150  148.1360 C   0  0  1  0  0  3  0  0  0  0  0  0
  162.0650  204.5180  145.8230 C   0  0  1  0  0  3  0  0  0  0  0  0
  160.8610  206.1790  147.1390 C   0  0  0  0  0  3  0  0  0  0  0  0
  160.2220  206.3510  146.1140 O   0  0  0  0  0  0  0  0  0  0  0  0
  160.0050  201.3650  145.1300 C   0  0  0  0  0  1  0  0  0  0  0  0
  160.4310  202.8170  145.0410 C   0  0  0  0  0  2  0  0  0  0  0  0
  1 20  1  6  0  0  0
  1  4  1  0  0  0  0
  1  3  1  0  0  0  0
  3  7  1  0  0  0  0
  3  2  1  1  0  0  0
  4  3  1  0  0  0  0
  4  2  1  1  0  0  0
  5 11  1  6  0  0  0
  6  5  1  0  0  0  0
  6  8  1  0  0  0  0
  7 10  1  6  0  0  0
  9  8  1  0  0  0  0
  9  7  1  0  0  0  0
 10  5  1  0  0  0  0
 11 12  2  0  0  0  0
 13 11  2  0  0  0  0
 15 16  1  0  0  0  0
 15 14  1  0  0  0  0
 15 17  1  0  0  0  0
 16 17  1  0  0  0  0
 16 11  1  0  0  0  0
 18 15  1  0  0  0  0
 19 20  2  0  0  0  0
 22 21  2  0  0  0  0
 22 19  1  0  0  0  0
 23 22  1  0  0  0  0
 25 23  1  0  0  0  0
 26 25  1  0  0  0  0
 26 24  2  0  0  0  0
 28 36  1  6  0  0  0
 28 29  1  0  0  0  0
 29 31  1  0  0  0  0
 30 33  1  6  0  0  0
 30 31  1  0  0  0  0
 31 26  1  1  0  0  0
 32 27  1  1  0  0  0
 32 28  1  0  0  0  0
 32 30  1  0  0  0  0
 34 33  2  0  0  0  0
 36 35  1  0  0  0  0
M  END
>  <MODEL>
5

>  <REMARK>
 VINA RESULT:      -5.7      1.952      2.691
  Name = 
  10 active torsions:
  status: ('A' for Active; 'I' for Inactive)
    1  A    between atoms: C_1  and  S_25
    2  A    between atoms: C_2  and  C_27
    3  A    between atoms: N_5  and  S_25
    4  A    between atoms: C_6  and  C_19
    5  A    between atoms: C_11  and  C_17
    6  A    between atoms: C_12  and  C_20
    7  A    between atoms: C_14  and  C_29
    8  A    between atoms: C_14  and  N_32
    9  A    between atoms: N_18  and  C_29
   10  A    between atoms: C_33  and  C_34
                            x       y       z     vdW  Elec       q    Type
                         _______ _______ _______ _____ _____    ______ ____

>  <TORSDO>
F 10

$$$$
=
 OpenBabel11072414333D

 36 40  0  0  1  0  0  0  0  0999 V2000
  160.7130  206.9740  154.9310 C   0  0  1  0  0  3  0  0  0  0  0  0
  159.8950  206.9310  157.2460 N   0  0  0  0  0  2  0  0  0  0  0  0
  160.8130  207.6120  156.3180 C   0  0  2  0  0  0  0  0  0  0  0  0
  159.5130  207.1180  155.8390 C   0  0  1  0  0  3  0  0  0  0  0  0
  159.4840  211.1670  155.6030 C   0  0  2  0  0  3  0  0  0  0  0  0
  160.8350  211.7660  155.2080 C   0  0  0  0  0  2  0  0  0  0  0  0
  160.7200  209.1450  156.4040 C   0  0  1  0  0  3  0  0  0  0  0  0
  161.8810  211.2860  156.1100 N   0  0  0  0  0  2  0  0  0  0  0  0
  162.0110  209.8380  155.9530 C   0  0  0  0  0  2  0  0  0  0  0  0
  159.5770  209.6460  155.5230 C   0  0  0  0  0  2  0  0  0  0  0  0
  158.1860  211.7980  154.5370 S   0  0  0  0  0  0  0  0  0  0  0  0
  158.2120  211.0830  153.2140 O   0  0  0  0  0  0  0  0  0  0  0  0
  158.4860  213.2480  154.2790 O   0  0  0  0  0  0  0  0  0  0  0  0
  157.4140  213.6010  156.8500 C   0  0  0  0  0  1  0  0  0  0  0  0
  156.3000  212.7100  156.3180 C   0  0  0  0  0  0  0  0  0  0  0  0
  156.5830  211.7230  155.2470 N   0  0  0  0  0  0  0  0  0  0  0  0
  155.8750  212.9900  154.9590 C   0  0  0  0  0  2  0  0  0  0  0  0
  155.1830  212.2900  157.2470 C   0  0  0  0  0  1  0  0  0  0  0  0
  160.9020  207.6810  152.5580 N   0  0  0  0  0  0  0  0  0  0  0  0
  160.5810  207.9420  153.7940 C   0  0  0  0  0  3  0  0  0  0  0  0
  162.7160  206.1340  152.0700 C   0  0  0  0  0  2  0  0  0  0  0  0
  161.4320  206.4660  151.9960 C   0  0  0  0  0  0  0  0  0  0  0  0
  160.5020  205.5460  151.2850 C   0  0  0  0  0  2  0  0  0  0  0  0
  160.2870  203.0510  149.9060 O   0  0  0  0  0  0  0  0  0  0  0  0
  160.9990  205.2750  149.9450 N   0  0  0  0  0  2  0  0  0  0  0  0
  160.9230  203.9800  149.3410 C   0  0  0  0  0  0  0  0  0  0  0  0
  163.3570  204.3140  145.2670 C   0  0  0  0  0  1  0  0  0  0  0  0
  161.4170  202.8980  145.8940 C   0  0  2  0  0  3  0  0  0  0  0  0
  160.9690  202.6850  147.2670 N   0  0  0  0  0  2  0  0  0  0  0  0
  161.8740  204.9180  147.1560 C   0  0  1  0  0  3  0  0  0  0  0  0
  161.6440  203.7030  148.0560 C   0  0  1  0  0  3  0  0  0  0  0  0
  161.9250  204.3260  145.7670 C   0  0  1  0  0  3  0  0  0  0  0  0
  160.7600  205.9220  147.1950 C   0  0  0  0  0  3  0  0  0  0  0  0
  160.4540  206.5420  146.1900 O   0  0  0  0  0  0  0  0  0  0  0  0
  159.8660  201.2170  144.9100 C   0  0  0  0  0  1  0  0  0  0  0  0
  160.2640  202.6790  144.9300 C   0  0  0  0  0  2  0  0  0  0  0  0
  1 20  1  6  0  0  0
  1  4  1  0  0  0  0
  1  3  1  0  0  0  0
  3  7  1  0  0  0  0
  3  2  1  1  0  0  0
  4  3  1  0  0  0  0
  4  2  1  1  0  0  0
  5 11  1  6  0  0  0
  6  5  1  0  0  0  0
  6  8  1  0  0  0  0
  7 10  1  6  0  0  0
  9  8  1  0  0  0  0
  9  7  1  0  0  0  0
 10  5  1  0  0  0  0
 11 16  1  0  0  0  0
 12 11  2  0  0  0  0
 13 11  2  0  0  0  0
 15 14  1  0  0  0  0
 15 18  1  0  0  0  0
 16 15  1  0  0  0  0
 17 16  1  0  0  0  0
 17 15  1  0  0  0  0
 19 20  2  0  0  0  0
 22 21  2  0  0  0  0
 22 19  1  0  0  0  0
 23 22  1  0  0  0  0
 25 23  1  0  0  0  0
 26 24  2  0  0  0  0
 26 25  1  0  0  0  0
 28 36  1  6  0  0  0
 28 29  1  0  0  0  0
 29 31  1  0  0  0  0
 30 33  1  6  0  0  0
 30 31  1  0  0  0  0
 31 26  1  1  0  0  0
 32 27  1  1  0  0  0
 32 28  1  0  0  0  0
 32 30  1  0  0  0  0
 34 33  2  0  0  0  0
 35 36  1  0  0  0  0
M  END
>  <MODEL>
6

>  <REMARK>
 VINA RESULT:      -5.7      1.552      2.157
  Name = 
  10 active torsions:
  status: ('A' for Active; 'I' for Inactive)
    1  A    between atoms: C_1  and  S_25
    2  A    between atoms: C_2  and  C_27
    3  A    between atoms: N_5  and  S_25
    4  A    between atoms: C_6  and  C_19
    5  A    between atoms: C_11  and  C_17
    6  A    between atoms: C_12  and  C_20
    7  A    between atoms: C_14  and  C_29
    8  A    between atoms: C_14  and  N_32
    9  A    between atoms: N_18  and  C_29
   10  A    between atoms: C_33  and  C_34
                            x       y       z     vdW  Elec       q    Type
                         _______ _______ _______ _____ _____    ______ ____

>  <TORSDO>
F 10

$$$$
=
 OpenBabel11072414333D

 36 40  0  0  1  0  0  0  0  0999 V2000
  158.6890  213.6480  149.2640 C   0  0  1  0  0  3  0  0  0  0  0  0
  156.6210  213.6140  150.5860 N   0  0  0  0  0  2  0  0  0  0  0  0
  157.9770  213.0520  150.4800 C   0  0  2  0  0  0  0  0  0  0  0  0
  157.7280  214.4530  150.1080 C   0  0  1  0  0  3  0  0  0  0  0  0
  160.1330  211.7050  153.3870 C   0  0  2  0  0  3  0  0  0  0  0  0
  159.1560  212.0880  154.5000 C   0  0  0  0  0  2  0  0  0  0  0  0
  158.7320  213.0610  151.8210 C   0  0  1  0  0  3  0  0  0  0  0  0
  158.5950  213.4140  154.2440 N   0  0  0  0  0  2  0  0  0  0  0  0
  157.8130  213.3640  153.0090 C   0  0  0  0  0  2  0  0  0  0  0  0
  159.3860  211.7010  152.0570 C   0  0  0  0  0  2  0  0  0  0  0  0
  160.8690  210.1040  153.7270 S   0  0  0  0  0  0  0  0  0  0  0  0
  162.3680  210.2180  153.7420 O   0  0  0  0  0  0  0  0  0  0  0  0
  160.4900  209.1900  152.5950 O   0  0  0  0  0  0  0  0  0  0  0  0
  161.1820  207.1240  154.1980 C   0  0  0  0  0  1  0  0  0  0  0  0
  160.5760  207.9070  155.3550 C   0  0  0  0  0  0  0  0  0  0  0  0
  160.2930  209.3560  155.2060 N   0  0  0  0  0  0  0  0  0  0  0  0
  161.4570  208.8740  155.9820 C   0  0  0  0  0  2  0  0  0  0  0  0
  159.6400  207.2040  156.3130 C   0  0  0  0  0  1  0  0  0  0  0  0
  161.1650  213.5390  149.0960 N   0  0  0  0  0  0  0  0  0  0  0  0
  160.0850  214.1340  149.5190 C   0  0  0  0  0  3  0  0  0  0  0  0
  160.5490  212.0840  147.2450 C   0  0  0  0  0  2  0  0  0  0  0  0
  161.2910  212.3340  148.3180 C   0  0  0  0  0  0  0  0  0  0  0  0
  162.2870  211.3120  148.7460 C   0  0  0  0  0  2  0  0  0  0  0  0
  163.1810  208.6690  148.1250 O   0  0  0  0  0  0  0  0  0  0  0  0
  161.6070  210.0810  149.1170 N   0  0  0  0  0  2  0  0  0  0  0  0
  162.0720  208.7900  148.7100 C   0  0  0  0  0  0  0  0  0  0  0  0
  159.7000  205.1090  150.5700 C   0  0  0  0  0  1  0  0  0  0  0  0
  160.9770  205.3220  148.4520 C   0  0  2  0  0  3  0  0  0  0  0  0
  161.3940  206.5950  147.8720 N   0  0  0  0  0  2  0  0  0  0  0  0
  161.4200  206.8650  150.2690 C   0  0  1  0  0  3  0  0  0  0  0  0
  161.2190  207.5770  148.9310 C   0  0  1  0  0  3  0  0  0  0  0  0
  161.0540  205.4310  149.9670 C   0  0  1  0  0  3  0  0  0  0  0  0
  162.8360  206.8920  150.7640 C   0  0  0  0  0  3  0  0  0  0  0  0
  163.2000  206.1150  151.6320 O   0  0  0  0  0  0  0  0  0  0  0  0
  161.2190  202.8610  148.1580 C   0  0  0  0  0  1  0  0  0  0  0  0
  161.8900  204.2070  147.9730 C   0  0  0  0  0  2  0  0  0  0  0  0
  1 20  1  1  0  0  0
  1  4  1  0  0  0  0
  1  3  1  0  0  0  0
  3  2  1  6  0  0  0
  3  7  1  0  0  0  0
  4  3  1  0  0  0  0
  4  2  1  6  0  0  0
  5 11  1  1  0  0  0
  5  6  1  0  0  0  0
  7 10  1  1  0  0  0
  7  9  1  0  0  0  0
  8  6  1  0  0  0  0
  9  8  1  0  0  0  0
 10  5  1  0  0  0  0
 11 12  2  0  0  0  0
 11 16  1  0  0  0  0
 13 11  2  0  0  0  0
 14 15  1  0  0  0  0
 15 17  1  0  0  0  0
 15 18  1  0  0  0  0
 16 15  1  0  0  0  0
 16 17  1  0  0  0  0
 19 20  2  0  0  0  0
 21 22  2  0  0  0  0
 22 23  1  0  0  0  0
 22 19  1  0  0  0  0
 23 25  1  0  0  0  0
 24 26  2  0  0  0  0
 26 25  1  0  0  0  0
 28 36  1  6  0  0  0
 28 32  1  0  0  0  0
 29 28  1  0  0  0  0
 29 31  1  0  0  0  0
 30 33  1  6  0  0  0
 31 26  1  6  0  0  0
 31 30  1  0  0  0  0
 32 30  1  0  0  0  0
 32 27  1  1  0  0  0
 33 34  2  0  0  0  0
 36 35  1  0  0  0  0
M  END
>  <MODEL>
7

>  <REMARK>
 VINA RESULT:      -5.6      3.481      5.648
  Name = 
  10 active torsions:
  status: ('A' for Active; 'I' for Inactive)
    1  A    between atoms: C_1  and  S_25
    2  A    between atoms: C_2  and  C_27
    3  A    between atoms: N_5  and  S_25
    4  A    between atoms: C_6  and  C_19
    5  A    between atoms: C_11  and  C_17
    6  A    between atoms: C_12  and  C_20
    7  A    between atoms: C_14  and  C_29
    8  A    between atoms: C_14  and  N_32
    9  A    between atoms: N_18  and  C_29
   10  A    between atoms: C_33  and  C_34
                            x       y       z     vdW  Elec       q    Type
                         _______ _______ _______ _____ _____    ______ ____

>  <TORSDO>
F 10

$$$$
=
 OpenBabel11072414333D

 36 40  0  0  1  0  0  0  0  0999 V2000
  159.2390  213.3390  149.0500 C   0  0  1  0  0  3  0  0  0  0  0  0
  157.1600  213.8880  150.2350 N   0  0  0  0  0  2  0  0  0  0  0  0
  158.3830  213.0700  150.2880 C   0  0  2  0  0  0  0  0  0  0  0  0
  158.4260  214.4250  149.7180 C   0  0  1  0  0  3  0  0  0  0  0  0
  160.3700  211.8140  153.3530 C   0  0  2  0  0  3  0  0  0  0  0  0
  159.3570  212.2780  154.4010 C   0  0  0  0  0  2  0  0  0  0  0  0
  159.0780  213.1260  151.6600 C   0  0  1  0  0  3  0  0  0  0  0  0
  158.8450  213.6030  154.0550 N   0  0  0  0  0  2  0  0  0  0  0  0
  158.1170  213.5120  152.7900 C   0  0  0  0  0  2  0  0  0  0  0  0
  159.6820  211.7630  151.9920 C   0  0  0  0  0  2  0  0  0  0  0  0
  161.0450  210.2140  153.8030 S   0  0  0  0  0  0  0  0  0  0  0  0
  162.5230  210.3300  154.0550 O   0  0  0  0  0  0  0  0  0  0  0  0
  160.8510  209.3010  152.6250 O   0  0  0  0  0  0  0  0  0  0  0  0
  161.2030  207.2200  154.2610 C   0  0  0  0  0  1  0  0  0  0  0  0
  160.4610  208.0050  155.3330 C   0  0  0  0  0  0  0  0  0  0  0  0
  160.2430  209.4640  155.1720 N   0  0  0  0  0  0  0  0  0  0  0  0
  161.2710  208.9360  156.0960 C   0  0  0  0  0  2  0  0  0  0  0  0
  159.3790  207.3180  156.1360 C   0  0  0  0  0  1  0  0  0  0  0  0
  161.6440  212.7190  149.0960 N   0  0  0  0  0  0  0  0  0  0  0  0
  160.6940  213.5820  149.3230 C   0  0  0  0  0  3  0  0  0  0  0  0
  161.1790  211.1400  147.3040 C   0  0  0  0  0  2  0  0  0  0  0  0
  161.5500  211.3890  148.5550 C   0  0  0  0  0  0  0  0  0  0  0  0
  161.8670  210.2360  149.4420 C   0  0  0  0  0  2  0  0  0  0  0  0
  160.8320  207.5930  149.7790 O   0  0  0  0  0  0  0  0  0  0  0  0
  162.2290  209.0770  148.6410 N   0  0  0  0  0  2  0  0  0  0  0  0
  161.7270  207.7650  148.9110 C   0  0  0  0  0  0  0  0  0  0  0  0
  163.1730  204.6040  145.6620 C   0  0  0  0  0  1  0  0  0  0  0  0
  162.1130  204.2870  147.8840 C   0  0  2  0  0  3  0  0  0  0  0  0
  162.0020  205.3340  148.8950 N   0  0  0  0  0  2  0  0  0  0  0  0
  161.8690  206.4120  146.7410 C   0  0  1  0  0  3  0  0  0  0  0  0
  162.3000  206.5760  148.1980 C   0  0  1  0  0  3  0  0  0  0  0  0
  161.9560  204.9210  146.5100 C   0  0  1  0  0  3  0  0  0  0  0  0
  160.4570  206.8430  146.4730 C   0  0  0  0  0  3  0  0  0  0  0  0
  159.7940  206.2860  145.6140 O   0  0  0  0  0  0  0  0  0  0  0  0
  160.8300  202.9810  149.5720 C   0  0  0  0  0  1  0  0  0  0  0  0
  161.0270  203.2450  148.0920 C   0  0  0  0  0  2  0  0  0  0  0  0
  1 20  1  1  0  0  0
  1  4  1  0  0  0  0
  1  3  1  0  0  0  0
  3  2  1  6  0  0  0
  3  7  1  0  0  0  0
  4  2  1  6  0  0  0
  4  3  1  0  0  0  0
  5 11  1  1  0  0  0
  5  6  1  0  0  0  0
  7 10  1  1  0  0  0
  7  9  1  0  0  0  0
  8  6  1  0  0  0  0
  9  8  1  0  0  0  0
 10  5  1  0  0  0  0
 11 12  2  0  0  0  0
 11 16  1  0  0  0  0
 13 11  2  0  0  0  0
 14 15  1  0  0  0  0
 15 17  1  0  0  0  0
 15 18  1  0  0  0  0
 16 15  1  0  0  0  0
 16 17  1  0  0  0  0
 19 20  2  0  0  0  0
 21 22  2  0  0  0  0
 22 19  1  0  0  0  0
 22 23  1  0  0  0  0
 25 26  1  0  0  0  0
 25 23  1  0  0  0  0
 26 24  2  0  0  0  0
 28 36  1  1  0  0  0
 28 29  1  0  0  0  0
 30 33  1  1  0  0  0
 30 31  1  0  0  0  0
 31 29  1  0  0  0  0
 31 26  1  1  0  0  0
 32 27  1  6  0  0  0
 32 30  1  0  0  0  0
 32 28  1  0  0  0  0
 34 33  2  0  0  0  0
 36 35  1  0  0  0  0
M  END
>  <MODEL>
8

>  <REMARK>
 VINA RESULT:      -5.6      3.230      5.045
  Name = 
  10 active torsions:
  status: ('A' for Active; 'I' for Inactive)
    1  A    between atoms: C_1  and  S_25
    2  A    between atoms: C_2  and  C_27
    3  A    between atoms: N_5  and  S_25
    4  A    between atoms: C_6  and  C_19
    5  A    between atoms: C_11  and  C_17
    6  A    between atoms: C_12  and  C_20
    7  A    between atoms: C_14  and  C_29
    8  A    between atoms: C_14  and  N_32
    9  A    between atoms: N_18  and  C_29
   10  A    between atoms: C_33  and  C_34
                            x       y       z     vdW  Elec       q    Type
                         _______ _______ _______ _____ _____    ______ ____

>  <TORSDO>
F 10

$$$$
=
 OpenBabel11072414333D

 36 40  0  0  1  0  0  0  0  0999 V2000
  160.8450  205.4520  151.0710 C   0  0  1  0  0  3  0  0  0  0  0  0
  160.4640  203.4350  152.4200 N   0  0  0  0  0  2  0  0  0  0  0  0
  160.4450  203.9760  151.0500 C   0  0  2  0  0  0  0  0  0  0  0  0
  161.4570  204.4380  152.0120 C   0  0  1  0  0  3  0  0  0  0  0  0
  161.5810  202.6350  147.6110 C   0  0  2  0  0  3  0  0  0  0  0  0
  161.1230  201.1950  147.8420 C   0  0  0  0  0  2  0  0  0  0  0  0
  161.1570  203.0610  150.0380 C   0  0  1  0  0  3  0  0  0  0  0  0
  161.4530  200.7730  149.2030 N   0  0  0  0  0  2  0  0  0  0  0  0
  160.7030  201.6000  150.1470 C   0  0  0  0  0  2  0  0  0  0  0  0
  160.8790  203.5430  148.6170 C   0  0  0  0  0  2  0  0  0  0  0  0
  161.2320  203.1380  145.9240 S   0  0  0  0  0  0  0  0  0  0  0  0
  160.4350  202.0730  145.2230 O   0  0  0  0  0  0  0  0  0  0  0  0
  162.5510  203.2650  145.2140 O   0  0  0  0  0  0  0  0  0  0  0  0
  162.7060  205.7150  146.5430 C   0  0  0  0  0  1  0  0  0  0  0  0
  161.2760  205.8850  146.0480 C   0  0  0  0  0  0  0  0  0  0  0  0
  160.4280  204.6930  145.7980 N   0  0  0  0  0  0  0  0  0  0  0  0
  161.0350  205.4540  144.6830 C   0  0  0  0  0  2  0  0  0  0  0  0
  160.4900  207.1090  146.4630 C   0  0  0  0  0  1  0  0  0  0  0  0
  162.2890  207.0670  149.8570 N   0  0  0  0  0  0  0  0  0  0  0  0
  161.8690  205.8480  150.0500 C   0  0  0  0  0  3  0  0  0  0  0  0
  161.9560  209.4750  149.9660 C   0  0  0  0  0  2  0  0  0  0  0  0
  161.9050  208.2770  150.5360 C   0  0  0  0  0  0  0  0  0  0  0  0
  161.4450  208.1830  151.9500 C   0  0  0  0  0  2  0  0  0  0  0  0
  162.5180  210.3280  153.5050 O   0  0  0  0  0  0  0  0  0  0  0  0
  160.7340  209.3970  152.3220 N   0  0  0  0  0  2  0  0  0  0  0  0
  161.3070  210.3990  153.1660 C   0  0  0  0  0  0  0  0  0  0  0  0
  159.2710  213.7530  155.8570 C   0  0  0  0  0  1  0  0  0  0  0  0
  158.2950  212.1630  154.2200 C   0  0  2  0  0  3  0  0  0  0  0  0
  159.0770  211.4010  153.2520 N   0  0  0  0  0  2  0  0  0  0  0  0
  160.4500  211.6710  155.2160 C   0  0  1  0  0  3  0  0  0  0  0  0
  160.4580  211.5160  153.6960 C   0  0  1  0  0  3  0  0  0  0  0  0
  159.1010  212.2870  155.5040 C   0  0  1  0  0  3  0  0  0  0  0  0
  160.5370  210.3720  155.9610 C   0  0  0  0  0  3  0  0  0  0  0  0
  159.6370  209.5520  155.8780 O   0  0  0  0  0  0  0  0  0  0  0  0
  155.8900  212.4560  154.7970 C   0  0  0  0  0  1  0  0  0  0  0  0
  156.9850  211.4490  154.5070 C   0  0  0  0  0  2  0  0  0  0  0  0
  1 20  1  6  0  0  0
  1  4  1  0  0  0  0
  3  1  1  0  0  0  0
  3  4  1  0  0  0  0
  3  2  1  1  0  0  0
  4  2  1  1  0  0  0
  5 11  1  6  0  0  0
  5  6  1  0  0  0  0
  5 10  1  0  0  0  0
  6  8  1  0  0  0  0
  7 10  1  6  0  0  0
  7  9  1  0  0  0  0
  7  3  1  0  0  0  0
  8  9  1  0  0  0  0
 12 11  2  0  0  0  0
 13 11  2  0  0  0  0
 15 18  1  0  0  0  0
 15 14  1  0  0  0  0
 16 11  1  0  0  0  0
 16 15  1  0  0  0  0
 17 16  1  0  0  0  0
 17 15  1  0  0  0  0
 19 20  2  0  0  0  0
 19 22  1  0  0  0  0
 21 22  2  0  0  0  0
 22 23  1  0  0  0  0
 23 25  1  0  0  0  0
 25 26  1  0  0  0  0
 26 24  2  0  0  0  0
 28 36  1  1  0  0  0
 28 32  1  0  0  0  0
 29 31  1  0  0  0  0
 29 28  1  0  0  0  0
 30 32  1  0  0  0  0
 30 33  1  1  0  0  0
 31 26  1  1  0  0  0
 31 30  1  0  0  0  0
 32 27  1  6  0  0  0
 34 33  2  0  0  0  0
 36 35  1  0  0  0  0
M  END
>  <MODEL>
9

>  <REMARK>
 VINA RESULT:      -5.5      3.403     10.691
  Name = 
  10 active torsions:
  status: ('A' for Active; 'I' for Inactive)
    1  A    between atoms: C_1  and  S_25
    2  A    between atoms: C_2  and  C_27
    3  A    between atoms: N_5  and  S_25
    4  A    between atoms: C_6  and  C_19
    5  A    between atoms: C_11  and  C_17
    6  A    between atoms: C_12  and  C_20
    7  A    between atoms: C_14  and  C_29
    8  A    between atoms: C_14  and  N_32
    9  A    between atoms: N_18  and  C_29
   10  A    between atoms: C_33  and  C_34
                            x       y       z     vdW  Elec       q    Type
                         _______ _______ _______ _____ _____    ______ ____

>  <TORSDO>
F 10

$$$$
