=
 OpenBabel11072414303D

 65 72  0  0  1  0  0  0  0  0999 V2000
  159.6000  206.9800  144.7400 O   0  0  0  0  0  0  0  0  0  0  0  0
  163.1330  212.3880  145.5500 C   0  0  0  0  0  2  0  0  0  0  0  0
  162.4910  210.2460  150.8710 C   0  0  1  0  0  3  0  0  0  0  0  0
  162.3370  207.5460  141.4750 C   0  0  0  0  0  0  0  0  0  0  0  0
  161.5250  205.7550  142.7340 O   0  0  0  0  0  0  0  0  0  0  0  0
  163.2430  213.3960  146.6730 C   0  0  2  0  0  3  0  0  0  0  0  0
  162.6620  208.8750  150.1650 C   0  0  2  0  0  0  0  0  0  0  0  0
  163.5840  209.3340  140.3980 C   0  0  0  0  0  2  0  0  0  0  0  0
  160.2610  214.2430  144.2930 C   0  0  0  0  0  2  0  0  0  0  0  0
  161.8710  213.6450  140.6220 S   0  0  0  0  0  0  0  0  0  0  0  0
  162.3570  212.9760  147.8410 C   0  0  0  0  0  2  0  0  0  0  0  0
  160.7020  213.6860  142.9720 C   0  0  0  0  0  0  0  0  0  0  0  0
  160.2820  203.2230  145.1390 C   0  0  0  0  0  2  0  0  0  0  0  0
  161.0220  212.1330  141.2070 C   0  0  1  0  0  3  0  0  0  0  0  0
  162.9780  207.9720  140.4250 C   0  0  0  0  0  3  0  0  0  0  0  0
  163.6810  211.5190  149.1870 O   0  0  0  0  0  0  0  0  0  0  0  0
  161.0890  205.9910  146.3580 C   0  0  2  0  0  3  0  0  0  0  0  0
  161.8520  207.6680  150.6400 C   0  0  2  0  0  3  0  0  0  0  0  0
  160.9620  213.5560  145.4630 C   0  0  0  0  0  2  0  0  0  0  0  0
  161.9870  211.0480  141.3350 N   0  0  0  0  0  2  0  0  0  0  0  0
  160.5560  204.7630  147.0860 C   0  0  0  0  0  2  0  0  0  0  0  0
  161.4430  214.4520  142.0960 O   0  0  0  0  0  0  0  0  0  0  0  0
  161.9820  207.4270  148.1820 C   0  0  0  0  0  2  0  0  0  0  0  0
  162.5400  210.3770  140.2010 C   0  0  0  0  0  0  0  0  0  0  0  0
  163.1950  212.8270  149.0950 C   0  0  0  0  0  2  0  0  0  0  0  0
  162.1360  210.6450  139.0380 O   0  0  0  0  0  0  0  0  0  0  0  0
  160.8900  203.9350  144.0180 N   0  0  0  0  0  0  0  0  0  0  0  0
  163.6360  211.2160  150.5520 C   0  0  0  0  0  2  0  0  0  0  0  0
  160.9640  205.2290  143.9020 C   0  0  0  0  0  0  0  0  0  0  0  0
  160.4460  212.4570  142.5470 C   0  0  0  0  0  0  0  0  0  0  0  0
  160.8440  207.2320  147.2040 C   0  0  0  0  0  2  0  0  0  0  0  0
  163.9530  208.5210  149.7560 O   0  0  0  0  0  1  0  0  0  0  0  0
  162.4760  213.7430  145.3910 C   0  0  2  0  0  3  0  0  0  0  0  0
  161.5200  208.3390  149.3060 C   0  0  2  0  0  3  0  0  0  0  0  0
  160.4890  206.1200  144.9830 C   0  0  0  0  0  0  0  0  0  0  0  0
  161.7100  207.1210  142.5340 C   0  0  0  0  0  3  0  0  0  0  0  0
  161.0380  203.4760  146.4350 C   0  0  0  0  0  2  0  0  0  0  0  0
  160.8410  207.9940  151.7040 C   0  0  0  0  0  0  0  0  0  0  0  0
  160.9540  207.4130  152.9990 N   0  0  0  0  0  2  0  0  0  0  0  0
  159.8620  208.7470  151.4530 O   0  0  0  0  0  0  0  0  0  0  0  0
  161.7160  206.2520  153.2120 N   0  0  0  0  0  2  0  0  0  0  0  0
  160.9640  202.7650  150.5720 C   0  0  0  0  0  2  0  0  0  0  0  0
  161.0320  203.8600  152.9950 C   0  0  1  0  0  3  0  0  0  0  0  0
  162.3810  205.0840  150.8720 S   0  0  0  0  0  0  0  0  0  0  0  0
  161.2730  205.2050  152.2970 C   0  0  2  0  0  3  0  0  0  0  0  0
  159.6300  203.3900  152.6420 C   0  0  0  0  0  2  0  0  0  0  0  0
  161.0830  204.1750  150.0070 C   0  0  0  0  0  2  0  0  0  0  0  0
  160.8210  202.6250  152.1030 C   0  0  1  0  0  3  0  0  0  0  0  0
  161.1260  210.9050  150.6210 C   0  0  0  0  0  2  0  0  0  0  0  0
  161.8860  210.5730  153.5200 O   0  0  0  0  0  0  0  0  0  0  0  0
  159.9890  211.9820  154.0720 C   0  0  0  0  0  2  0  0  0  0  0  0
  159.4580  212.3890  151.8310 C   0  0  0  0  0  3  0  0  0  0  0  0
  160.9450  211.3250  153.1530 C   0  0  0  0  0  0  0  0  0  0  0  0
  159.0630  212.6230  153.0810 C   0  0  0  0  0  3  0  0  0  0  0  0
  160.6470  211.6160  151.7990 N   0  0  0  0  0  0  0  0  0  0  0  0
  159.6230  211.4690  143.3170 C   0  0  0  0  0  2  0  0  0  0  0  0
  158.5920  212.1740  144.1300 C   0  0  0  0  0  0  0  0  0  0  0  0
  157.7430  212.9990  143.5270 C   0  0  0  0  0  2  0  0  0  0  0  0
  158.4360  211.8260  145.5100 N   0  0  0  0  0  2  0  0  0  0  0  0
  157.1860  211.9740  146.2430 C   0  0  0  0  0  2  0  0  0  0  0  0
  157.4430  212.7060  147.5550 C   0  0  2  0  0  3  0  0  0  0  0  0
  156.8460  212.0280  148.6050 F   0  0  0  0  0  0  0  0  0  0  0  0
  156.9470  214.1520  147.5180 C   0  0  1  0  0  3  0  0  0  0  0  0
  156.3290  214.4480  146.2360 N   0  0  0  0  0  1  0  0  0  0  0  0
  155.9700  214.4530  148.6450 C   0  0  0  0  0  1  0  0  0  0  0  0
  1 35  2  0  0  0  0
  3 49  1  6  0  0  0
  4 36  2  0  0  0  0
  5 29  1  0  0  0  0
  6  2  1  6  0  0  0
  6 11  1  0  0  0  0
  7 32  1  6  0  0  0
  7 18  1  0  0  0  0
  7  3  1  0  0  0  0
  8 15  1  0  0  0  0
  9 19  1  0  0  0  0
 10 22  1  0  0  0  0
 11 25  1  0  0  0  0
 12  9  1  0  0  0  0
 13 37  1  0  0  0  0
 14 10  1  1  0  0  0
 14 20  1  0  0  0  0
 14 30  1  0  0  0  0
 15  4  2  0  0  0  0
 16 28  1  0  0  0  0
 17 21  1  1  0  0  0
 17 31  1  0  0  0  0
 18 38  1  1  0  0  0
 22 12  1  0  0  0  0
 24  8  1  0  0  0  0
 24 20  1  0  0  0  0
 25 16  1  0  0  0  0
 26 24  2  0  0  0  0
 27 13  1  0  0  0  0
 28  3  1  0  0  0  0
 29 27  2  0  0  0  0
 29 35  1  0  0  0  0
 30 12  2  0  0  0  0
 30 56  1  0  0  0  0
 31 23  1  0  0  0  0
 33 19  1  1  0  0  0
 33  2  1  0  0  0  0
 33  6  1  0  0  0  0
 34 23  1  6  0  0  0
 34  7  1  0  0  0  0
 34 18  1  0  0  0  0
 35 17  1  0  0  0  0
 36  5  1  0  0  0  0
 37 21  1  0  0  0  0
 38 39  1  0  0  0  0
 39 41  1  0  0  0  0
 40 38  2  0  0  0  0
 43 46  1  6  0  0  0
 44 45  1  0  0  0  0
 45 43  1  0  0  0  0
 45 41  1  1  0  0  0
 47 42  1  0  0  0  0
 47 44  1  0  0  0  0
 48 42  1  6  0  0  0
 48 46  1  0  0  0  0
 48 43  1  0  0  0  0
 49 55  1  0  0  0  0
 52 54  2  0  0  0  0
 53 50  2  0  0  0  0
 53 51  1  0  0  0  0
 54 51  1  0  0  0  0
 55 52  1  0  0  0  0
 55 53  1  0  0  0  0
 56 57  1  0  0  0  0
 57 59  1  0  0  0  0
 58 57  2  0  0  0  0
 59 60  1  0  0  0  0
 60 61  1  0  0  0  0
 61 62  1  1  0  0  0
 63 61  1  0  0  0  0
 63 65  1  1  0  0  0
 64 63  1  0  0  0  0
M  END
>  <MODEL>
1

>  <REMARK>
 VINA RESULT:      12.3      0.000      0.000
  Name = 
  11 active torsions:
  status: ('A' for Active; 'I' for Inactive)
    1  A    between atoms: C_3  and  C_31
    2  A    between atoms: C_5  and  N_48
    3  A    between atoms: C_5  and  C_64
    4  A    between atoms: C_6  and  C_49
    5  A    between atoms: C_17  and  C_38
    6  A    between atoms: C_17  and  C_39
    7  A    between atoms: C_21  and  N_30
    8  A    between atoms: N_28  and  N_30
    9  A    between atoms: C_39  and  N_48
   10  A    between atoms: C_49  and  N_59
   11  A    between atoms: C_53  and  C_64
                            x       y       z     vdW  Elec       q    Type
                         _______ _______ _______ _____ _____    ______ ____

>  <TORSDO>
F 11

$$$$
=
 OpenBabel11072414303D

 65 72  0  0  1  0  0  0  0  0999 V2000
  159.6840  207.2400  144.6580 O   0  0  0  0  0  0  0  0  0  0  0  0
  163.1760  212.5920  143.4160 C   0  0  0  0  0  2  0  0  0  0  0  0
  162.5030  212.5780  149.1490 C   0  0  1  0  0  3  0  0  0  0  0  0
  162.4450  206.5750  141.4320 C   0  0  0  0  0  0  0  0  0  0  0  0
  161.6330  205.3740  143.2620 O   0  0  0  0  0  0  0  0  0  0  0  0
  163.2700  213.9470  144.0840 C   0  0  2  0  0  3  0  0  0  0  0  0
  162.6890  211.0450  149.0050 C   0  0  2  0  0  0  0  0  0  0  0  0
  163.6890  207.8450  139.7730 C   0  0  0  0  0  2  0  0  0  0  0  0
  160.3030  213.8210  141.5440 C   0  0  0  0  0  2  0  0  0  0  0  0
  161.9480  211.9140  138.3670 S   0  0  0  0  0  0  0  0  0  0  0  0
  162.3770  213.9840  145.3190 C   0  0  0  0  0  2  0  0  0  0  0  0
  160.7590  212.8170  140.5270 C   0  0  0  0  0  0  0  0  0  0  0  0
  160.3870  203.9070  146.4300 C   0  0  0  0  0  2  0  0  0  0  0  0
  161.1040  210.7210  139.4690 C   0  0  1  0  0  3  0  0  0  0  0  0
  163.0920  206.5850  140.3010 C   0  0  0  0  0  3  0  0  0  0  0  0
  163.6990  213.1440  147.1190 O   0  0  0  0  0  0  0  0  0  0  0  0
  161.1660  206.9380  146.5350 C   0  0  2  0  0  3  0  0  0  0  0  0
  161.8830  210.0940  149.8900 C   0  0  2  0  0  3  0  0  0  0  0  0
  160.9980  213.6250  142.8890 C   0  0  0  0  0  2  0  0  0  0  0  0
  162.0740  209.7700  139.9960 N   0  0  0  0  0  2  0  0  0  0  0  0
  160.6350  206.0640  147.6650 C   0  0  0  0  0  2  0  0  0  0  0  0
  161.5020  213.2080  139.4330 O   0  0  0  0  0  0  0  0  0  0  0  0
  162.0350  208.9570  147.6990 C   0  0  0  0  0  2  0  0  0  0  0  0
  162.6400  208.7310  139.1960 C   0  0  0  0  0  0  0  0  0  0  0  0
  163.2060  214.3190  146.5440 C   0  0  0  0  0  2  0  0  0  0  0  0
  162.2440  208.5430  138.0150 O   0  0  0  0  0  0  0  0  0  0  0  0
  160.9990  204.1570  145.1280 N   0  0  0  0  0  0  0  0  0  0  0  0
  163.6450  213.3700  148.4980 C   0  0  0  0  0  2  0  0  0  0  0  0
  161.0660  205.3150  144.5390 C   0  0  0  0  0  0  0  0  0  0  0  0
  160.5140  211.5160  140.5890 C   0  0  0  0  0  0  0  0  0  0  0  0
  160.9060  208.4020  146.8580 C   0  0  0  0  0  2  0  0  0  0  0  0
  163.9860  210.5750  148.7630 O   0  0  0  0  0  1  0  0  0  0  0  0
  162.5120  213.7850  142.7610 C   0  0  2  0  0  3  0  0  0  0  0  0
  161.5570  210.2180  148.4010 C   0  0  2  0  0  3  0  0  0  0  0  0
  160.5770  206.5410  145.2080 C   0  0  0  0  0  0  0  0  0  0  0  0
  161.8120  206.5690  142.5690 C   0  0  0  0  0  3  0  0  0  0  0  0
  161.1300  204.6310  147.5430 C   0  0  0  0  0  2  0  0  0  0  0  0
  160.8610  210.7830  150.7500 C   0  0  0  0  0  0  0  0  0  0  0  0
  161.1000  210.9590  152.1430 N   0  0  0  0  0  2  0  0  0  0  0  0
  159.7660  211.1740  150.2630 O   0  0  0  0  0  0  0  0  0  0  0  0
  162.0460  210.1740  152.8230 N   0  0  0  0  0  2  0  0  0  0  0  0
  160.9950  208.6420  156.8530 C   0  0  0  0  0  2  0  0  0  0  0  0
  162.3850  210.2890  155.2950 C   0  0  1  0  0  3  0  0  0  0  0  0
  161.1670  208.0220  154.1960 S   0  0  0  0  0  0  0  0  0  0  0  0
  161.5170  209.7970  154.1300 C   0  0  2  0  0  3  0  0  0  0  0  0
  161.4940  211.0600  156.2550 C   0  0  0  0  0  2  0  0  0  0  0  0
  160.1280  208.3340  155.6390 C   0  0  0  0  0  2  0  0  0  0  0  0
  162.0760  209.7330  156.6950 C   0  0  1  0  0  3  0  0  0  0  0  0
  161.1360  213.0850  148.6640 C   0  0  0  0  0  2  0  0  0  0  0  0
  158.1590  213.5610  148.7020 O   0  0  0  0  0  0  0  0  0  0  0  0
  158.4250  214.3980  150.9630 C   0  0  0  0  0  2  0  0  0  0  0  0
  160.7100  213.9030  151.0300 C   0  0  0  0  0  3  0  0  0  0  0  0
  158.8840  213.7530  149.7130 C   0  0  0  0  0  0  0  0  0  0  0  0
  159.7160  214.4530  151.7250 C   0  0  0  0  0  3  0  0  0  0  0  0
  160.2560  213.4110  149.7790 N   0  0  0  0  0  0  0  0  0  0  0  0
  159.6900  210.8780  141.6670 C   0  0  0  0  0  2  0  0  0  0  0  0
  158.6160  211.8060  142.1180 C   0  0  0  0  0  0  0  0  0  0  0  0
  158.6130  212.2300  143.3770 C   0  0  0  0  0  1  0  0  0  0  0  0
  157.7080  212.3440  141.1500 N   0  0  0  0  0  0  0  0  0  0  0  0
  157.7380  211.9940  139.7360 C   0  0  0  0  0  2  0  0  0  0  0  0
  156.8660  210.7690  139.4920 C   0  0  2  0  0  3  0  0  0  0  0  0
  157.6590  209.6640  139.2240 F   0  0  0  0  0  0  0  0  0  0  0  0
  155.8700  210.9850  138.3520 C   0  0  1  0  0  3  0  0  0  0  0  0
  155.6090  209.7350  137.6570 N   0  0  0  0  0  1  0  0  0  0  0  0
  154.5610  211.5880  138.8400 C   0  0  0  0  0  1  0  0  0  0  0  0
  1 35  2  0  0  0  0
  3 49  1  6  0  0  0
  4 36  2  0  0  0  0
  5 29  1  0  0  0  0
  6  2  1  1  0  0  0
  6 11  1  0  0  0  0
  7 32  1  6  0  0  0
  7  3  1  0  0  0  0
  7 18  1  0  0  0  0
  8 15  1  0  0  0  0
  9 19  1  0  0  0  0
 10 22  1  0  0  0  0
 11 25  1  0  0  0  0
 12 30  2  0  0  0  0
 12  9  1  0  0  0  0
 13 37  1  0  0  0  0
 14 10  1  6  0  0  0
 14 20  1  0  0  0  0
 14 30  1  0  0  0  0
 15  4  2  0  0  0  0
 16 28  1  0  0  0  0
 17 31  1  1  0  0  0
 17 21  1  0  0  0  0
 18 38  1  1  0  0  0
 22 12  1  0  0  0  0
 24  8  1  0  0  0  0
 24 20  1  0  0  0  0
 25 16  1  0  0  0  0
 26 24  2  0  0  0  0
 27 13  1  0  0  0  0
 28  3  1  0  0  0  0
 29 27  2  0  0  0  0
 29 35  1  0  0  0  0
 30 56  1  0  0  0  0
 31 23  1  0  0  0  0
 33 19  1  1  0  0  0
 33  2  1  0  0  0  0
 33  6  1  0  0  0  0
 34 23  1  6  0  0  0
 34  7  1  0  0  0  0
 34 18  1  0  0  0  0
 35 17  1  0  0  0  0
 36  5  1  0  0  0  0
 37 21  1  0  0  0  0
 38 39  1  0  0  0  0
 39 41  1  0  0  0  0
 40 38  2  0  0  0  0
 43 46  1  1  0  0  0
 43 48  1  0  0  0  0
 44 47  1  0  0  0  0
 45 41  1  6  0  0  0
 45 44  1  0  0  0  0
 45 43  1  0  0  0  0
 47 42  1  0  0  0  0
 48 46  1  1  0  0  0
 48 42  1  0  0  0  0
 49 55  1  0  0  0  0
 50 53  2  0  0  0  0
 51 54  1  0  0  0  0
 52 54  2  0  0  0  0
 53 55  1  0  0  0  0
 53 51  1  0  0  0  0
 55 52  1  0  0  0  0
 56 57  1  0  0  0  0
 57 58  1  0  0  0  0
 59 57  2  0  0  0  0
 60 59  1  0  0  0  0
 61 62  1  6  0  0  0
 61 60  1  0  0  0  0
 63 65  1  1  0  0  0
 63 61  1  0  0  0  0
 64 63  1  0  0  0  0
M  END
>  <MODEL>
2

>  <REMARK>
 VINA RESULT:      13.4      2.848      4.327
  Name = 
  11 active torsions:
  status: ('A' for Active; 'I' for Inactive)
    1  A    between atoms: C_3  and  C_31
    2  A    between atoms: C_5  and  N_48
    3  A    between atoms: C_5  and  C_64
    4  A    between atoms: C_6  and  C_49
    5  A    between atoms: C_17  and  C_38
    6  A    between atoms: C_17  and  C_39
    7  A    between atoms: C_21  and  N_30
    8  A    between atoms: N_28  and  N_30
    9  A    between atoms: C_39  and  N_48
   10  A    between atoms: C_49  and  N_59
   11  A    between atoms: C_53  and  C_64
                            x       y       z     vdW  Elec       q    Type
                         _______ _______ _______ _____ _____    ______ ____

>  <TORSDO>
F 11

$$$$
=
 OpenBabel11072414303D

 65 72  0  0  1  0  0  0  0  0999 V2000
  162.9710  208.1800  150.1600 O   0  0  0  0  0  0  0  0  0  0  0  0
  158.2210  211.9700  152.4960 C   0  0  0  0  0  2  0  0  0  0  0  0
  158.9640  213.7390  147.0530 C   0  0  1  0  0  3  0  0  0  0  0  0
  160.4180  205.9920  152.8370 C   0  0  0  0  0  0  0  0  0  0  0  0
  161.5350  205.5870  150.8280 O   0  0  0  0  0  0  0  0  0  0  0  0
  157.7980  213.3950  152.2140 C   0  0  2  0  0  3  0  0  0  0  0  0
  159.1700  212.2290  146.7610 C   0  0  2  0  0  0  0  0  0  0  0  0
  158.8680  206.4060  154.6650 C   0  0  0  0  0  2  0  0  0  0  0  0
  160.6610  213.2660  154.8700 C   0  0  0  0  0  2  0  0  0  0  0  0
  159.5030  210.2040  157.2610 S   0  0  0  0  0  0  0  0  0  0  0  0
  158.6720  213.9920  151.1160 C   0  0  0  0  0  2  0  0  0  0  0  0
  160.4590  211.9370  155.5350 C   0  0  0  0  0  0  0  0  0  0  0  0
  163.1600  205.4170  147.5010 C   0  0  0  0  0  2  0  0  0  0  0  0
  160.6380  209.6080  155.9550 C   0  0  1  0  0  3  0  0  0  0  0  0
  159.7720  205.5270  153.8690 C   0  0  0  0  0  3  0  0  0  0  0  0
  157.6330  213.4050  149.0500 O   0  0  0  0  0  0  0  0  0  0  0  0
  161.6430  208.0770  148.1510 C   0  0  2  0  0  3  0  0  0  0  0  0
  160.2030  211.7880  145.7250 C   0  0  2  0  0  3  0  0  0  0  0  0
  160.0590  213.2990  153.4680 C   0  0  0  0  0  2  0  0  0  0  0  0
  159.9470  208.6430  155.1090 N   0  0  0  0  0  2  0  0  0  0  0  0
  162.3950  207.7110  146.8770 C   0  0  0  0  0  2  0  0  0  0  0  0
  159.6240  211.8140  156.6260 O   0  0  0  0  0  0  0  0  0  0  0  0
  160.3100  210.0760  147.5060 C   0  0  0  0  0  2  0  0  0  0  0  0
  159.6500  207.3160  155.5470 C   0  0  0  0  0  0  0  0  0  0  0  0
  157.8040  214.4520  149.9600 C   0  0  0  0  0  2  0  0  0  0  0  0
  160.0620  206.9020  156.6630 O   0  0  0  0  0  0  0  0  0  0  0  0
  162.4850  205.1350  148.7640 N   0  0  0  0  0  0  0  0  0  0  0  0
  157.6490  214.0190  147.7930 C   0  0  0  0  0  2  0  0  0  0  0  0
  162.1190  206.0280  149.6360 C   0  0  0  0  0  0  0  0  0  0  0  0
  161.0250  210.8040  155.1450 C   0  0  0  0  0  0  0  0  0  0  0  0
  161.5290  209.5900  148.2590 C   0  0  0  0  0  2  0  0  0  0  0  0
  158.0300  211.4160  146.7550 O   0  0  0  0  0  1  0  0  0  0  0  0
  158.5520  213.0510  153.5040 C   0  0  2  0  0  3  0  0  0  0  0  0
  160.4640  211.5590  147.2140 C   0  0  2  0  0  3  0  0  0  0  0  0
  162.2920  207.4730  149.3670 C   0  0  0  0  0  0  0  0  0  0  0  0
  161.0500  206.4590  151.7990 C   0  0  0  0  0  3  0  0  0  0  0  0
  162.2760  206.2270  146.5650 C   0  0  0  0  0  2  0  0  0  0  0  0
  161.0310  212.9150  145.1730 C   0  0  0  0  0  0  0  0  0  0  0  0
  160.5690  213.6580  144.0490 N   0  0  0  0  0  2  0  0  0  0  0  0
  162.1580  213.1890  145.6670 O   0  0  0  0  0  0  0  0  0  0  0  0
  159.5880  213.1400  143.1880 N   0  0  0  0  0  2  0  0  0  0  0  0
  161.5800  213.0500  139.2240 C   0  0  0  0  0  2  0  0  0  0  0  0
  160.2010  211.8380  141.1480 C   0  0  1  0  0  3  0  0  0  0  0  0
  161.5580  214.2220  141.6940 S   0  0  0  0  0  0  0  0  0  0  0  0
  160.0600  213.2140  141.8090 C   0  0  2  0  0  3  0  0  0  0  0  0
  159.4230  211.8590  139.8420 C   0  0  0  0  0  2  0  0  0  0  0  0
  161.2600  214.3670  139.9200 C   0  0  0  0  0  2  0  0  0  0  0  0
  160.9340  211.7700  139.7970 C   0  0  1  0  0  3  0  0  0  0  0  0
  160.1510  214.3970  147.7720 C   0  0  0  0  0  2  0  0  0  0  0  0
  163.0100  213.6330  148.3490 O   0  0  0  0  0  0  0  0  0  0  0  0
  162.1460  211.9460  149.8640 C   0  0  0  0  0  2  0  0  0  0  0  0
  159.9230  212.6090  149.5610 C   0  0  0  0  0  3  0  0  0  0  0  0
  162.0390  213.1070  148.9540 C   0  0  0  0  0  0  0  0  0  0  0  0
  160.6960  211.7120  150.1700 C   0  0  0  0  0  3  0  0  0  0  0  0
  160.6960  213.5350  148.8130 N   0  0  0  0  0  0  0  0  0  0  0  0
  162.0000  210.7120  154.0100 C   0  0  0  0  0  2  0  0  0  0  0  0
  163.3970  210.8180  154.5160 C   0  0  0  0  0  0  0  0  0  0  0  0
  164.3910  210.9630  153.6460 C   0  0  0  0  0  2  0  0  0  0  0  0
  163.6220  210.9210  155.9260 N   0  0  0  0  0  2  0  0  0  0  0  0
  164.4090  211.9800  156.5420 C   0  0  0  0  0  2  0  0  0  0  0  0
  165.8650  211.8560  156.1080 C   0  0  2  0  0  3  0  0  0  0  0  0
  166.6040  211.2210  157.0930 F   0  0  0  0  0  0  0  0  0  0  0  0
  166.4890  213.2130  155.7810 C   0  0  1  0  0  3  0  0  0  0  0  0
  165.9840  214.2380  156.6780 N   0  0  0  0  0  1  0  0  0  0  0  0
  168.0090  213.1760  155.8420 C   0  0  0  0  0  1  0  0  0  0  0  0
  3 49  1  1  0  0  0
  3 28  1  0  0  0  0
  4 15  2  0  0  0  0
  5 36  1  0  0  0  0
  6 11  1  6  0  0  0
  6  2  1  0  0  0  0
  6 33  1  0  0  0  0
  7 32  1  1  0  0  0
  7  3  1  0  0  0  0
  7 34  1  0  0  0  0
  8 24  1  0  0  0  0
  9 12  1  0  0  0  0
 12 22  1  0  0  0  0
 13 27  1  0  0  0  0
 14 20  1  6  0  0  0
 14 10  1  0  0  0  0
 15  8  1  0  0  0  0
 16 25  1  0  0  0  0
 17 21  1  6  0  0  0
 17 31  1  0  0  0  0
 17 35  1  0  0  0  0
 18 38  1  1  0  0  0
 18  7  1  0  0  0  0
 18 34  1  0  0  0  0
 19 33  1  0  0  0  0
 19  9  1  0  0  0  0
 20 24  1  0  0  0  0
 22 10  1  0  0  0  0
 23 31  1  0  0  0  0
 24 26  2  0  0  0  0
 25 11  1  0  0  0  0
 27 29  2  0  0  0  0
 28 16  1  0  0  0  0
 29  5  1  0  0  0  0
 30 12  2  0  0  0  0
 30 14  1  0  0  0  0
 33  2  1  6  0  0  0
 34 23  1  6  0  0  0
 35 29  1  0  0  0  0
 35  1  2  0  0  0  0
 36  4  2  0  0  0  0
 37 21  1  0  0  0  0
 37 13  1  0  0  0  0
 38 40  2  0  0  0  0
 39 38  1  0  0  0  0
 41 39  1  0  0  0  0
 42 47  1  0  0  0  0
 43 46  1  6  0  0  0
 43 45  1  0  0  0  0
 44 45  1  0  0  0  0
 45 41  1  1  0  0  0
 47 44  1  0  0  0  0
 48 42  1  6  0  0  0
 48 46  1  0  0  0  0
 48 43  1  0  0  0  0
 49 55  1  0  0  0  0
 50 53  2  0  0  0  0
 51 54  1  0  0  0  0
 52 54  2  0  0  0  0
 53 51  1  0  0  0  0
 55 53  1  0  0  0  0
 55 52  1  0  0  0  0
 56 57  1  0  0  0  0
 56 30  1  0  0  0  0
 57 59  1  0  0  0  0
 58 57  2  0  0  0  0
 59 60  1  0  0  0  0
 61 60  1  0  0  0  0
 61 62  1  1  0  0  0
 63 65  1  1  0  0  0
 63 61  1  0  0  0  0
 63 64  1  0  0  0  0
M  END
>  <MODEL>
3

>  <REMARK>
 VINA RESULT:      13.8      3.611     10.412
  Name = 
  11 active torsions:
  status: ('A' for Active; 'I' for Inactive)
    1  A    between atoms: C_3  and  C_31
    2  A    between atoms: C_5  and  N_48
    3  A    between atoms: C_5  and  C_64
    4  A    between atoms: C_6  and  C_49
    5  A    between atoms: C_17  and  C_38
    6  A    between atoms: C_17  and  C_39
    7  A    between atoms: C_21  and  N_30
    8  A    between atoms: N_28  and  N_30
    9  A    between atoms: C_39  and  N_48
   10  A    between atoms: C_49  and  N_59
   11  A    between atoms: C_53  and  C_64
                            x       y       z     vdW  Elec       q    Type
                         _______ _______ _______ _____ _____    ______ ____

>  <TORSDO>
F 11

$$$$
=
 OpenBabel11072414303D

 65 72  0  0  1  0  0  0  0  0999 V2000
  159.7250  207.0680  144.5780 O   0  0  0  0  0  0  0  0  0  0  0  0
  163.3800  212.3800  145.4730 C   0  0  0  0  0  2  0  0  0  0  0  0
  162.4530  210.3280  150.7870 C   0  0  1  0  0  3  0  0  0  0  0  0
  162.6110  207.5100  141.4260 C   0  0  0  0  0  0  0  0  0  0  0  0
  161.6940  205.7610  142.6700 O   0  0  0  0  0  0  0  0  0  0  0  0
  163.4730  213.4000  146.5870 C   0  0  2  0  0  3  0  0  0  0  0  0
  162.6120  208.9430  150.1050 C   0  0  2  0  0  0  0  0  0  0  0  0
  163.9550  209.2470  140.3800 C   0  0  0  0  0  2  0  0  0  0  0  0
  160.6200  214.3020  144.0740 C   0  0  0  0  0  2  0  0  0  0  0  0
  162.3640  213.6090  140.4810 S   0  0  0  0  0  0  0  0  0  0  0  0
  162.5270  213.0210  147.7210 C   0  0  0  0  0  2  0  0  0  0  0  0
  161.0990  213.7150  142.7790 C   0  0  0  0  0  0  0  0  0  0  0  0
  160.2770  203.2980  145.0510 C   0  0  0  0  0  2  0  0  0  0  0  0
  161.4460  212.1300  141.0480 C   0  0  1  0  0  3  0  0  0  0  0  0
  163.3080  207.9040  140.3980 C   0  0  0  0  0  3  0  0  0  0  0  0
  163.7500  211.5430  149.1400 O   0  0  0  0  0  0  0  0  0  0  0  0
  161.1150  206.0570  146.2690 C   0  0  2  0  0  3  0  0  0  0  0  0
  161.7480  207.7670  150.5590 C   0  0  2  0  0  3  0  0  0  0  0  0
  161.2500  213.6100  145.2800 C   0  0  0  0  0  2  0  0  0  0  0  0
  162.3720  211.0190  141.2290 N   0  0  0  0  0  2  0  0  0  0  0  0
  160.5160  204.8550  146.9890 C   0  0  0  0  0  2  0  0  0  0  0  0
  161.8980  214.4470  141.9260 O   0  0  0  0  0  0  0  0  0  0  0  0
  161.9730  207.4900  148.1120 C   0  0  0  0  0  2  0  0  0  0  0  0
  162.9510  210.3180  140.1270 C   0  0  0  0  0  0  0  0  0  0  0  0
  163.3070  212.8630  149.0120 C   0  0  0  0  0  2  0  0  0  0  0  0
  162.6040  210.5820  138.9450 O   0  0  0  0  0  0  0  0  0  0  0  0
  160.9520  203.9770  143.9480 N   0  0  0  0  0  0  0  0  0  0  0  0
  163.6390  211.2590  150.5050 C   0  0  0  0  0  2  0  0  0  0  0  0
  161.0690  205.2660  143.8190 C   0  0  0  0  0  0  0  0  0  0  0  0
  160.8250  212.4890  142.3590 C   0  0  0  0  0  0  0  0  0  0  0  0
  160.8720  207.3150  147.0900 C   0  0  0  0  0  2  0  0  0  0  0  0
  163.9090  208.5460  149.7540 O   0  0  0  0  0  1  0  0  0  0  0  0
  162.7710  213.7520  145.2700 C   0  0  2  0  0  3  0  0  0  0  0  0
  161.4920  208.4300  149.2050 C   0  0  2  0  0  3  0  0  0  0  0  0
  160.5770  206.1860  144.8690 C   0  0  0  0  0  0  0  0  0  0  0  0
  161.9280  207.1180  142.4620 C   0  0  0  0  0  3  0  0  0  0  0  0
  160.9860  203.5460  146.3740 C   0  0  0  0  0  2  0  0  0  0  0  0
  160.7040  208.1360  151.5760 C   0  0  0  0  0  0  0  0  0  0  0  0
  160.8040  207.6530  152.9120 N   0  0  0  0  0  2  0  0  0  0  0  0
  159.7080  208.8380  151.2510 O   0  0  0  0  0  0  0  0  0  0  0  0
  161.5950  206.5360  153.2240 N   0  0  0  0  0  2  0  0  0  0  0  0
  161.2490  202.9370  150.6510 C   0  0  0  0  0  2  0  0  0  0  0  0
  160.8230  204.1750  152.9660 C   0  0  1  0  0  3  0  0  0  0  0  0
  162.7090  205.1900  151.1660 S   0  0  0  0  0  0  0  0  0  0  0  0
  161.3100  205.4580  152.2810 C   0  0  2  0  0  3  0  0  0  0  0  0
  159.5140  203.7590  152.3140 C   0  0  0  0  0  2  0  0  0  0  0  0
  161.5910  204.3000  150.0630 C   0  0  0  0  0  2  0  0  0  0  0  0
  160.7440  202.8990  152.1090 C   0  0  1  0  0  3  0  0  0  0  0  0
  161.1200  211.0230  150.4710 C   0  0  0  0  0  2  0  0  0  0  0  0
  161.4890  210.7130  153.4480 O   0  0  0  0  0  0  0  0  0  0  0  0
  159.9090  212.5320  153.7300 C   0  0  0  0  0  2  0  0  0  0  0  0
  159.7110  212.9070  151.4300 C   0  0  0  0  0  3  0  0  0  0  0  0
  160.7820  211.6280  152.9500 C   0  0  0  0  0  0  0  0  0  0  0  0
  159.2550  213.2980  152.6180 C   0  0  0  0  0  3  0  0  0  0  0  0
  160.6950  211.8920  151.5610 N   0  0  0  0  0  0  0  0  0  0  0  0
  159.9400  211.5350  143.1050 C   0  0  0  0  0  2  0  0  0  0  0  0
  158.7030  212.2260  143.5650 C   0  0  0  0  0  0  0  0  0  0  0  0
  158.3120  212.0820  144.8270 C   0  0  0  0  0  1  0  0  0  0  0  0
  158.0550  213.1520  142.6860 N   0  0  0  0  0  0  0  0  0  0  0  0
  158.4670  213.3790  141.3080 C   0  0  0  0  0  2  0  0  0  0  0  0
  157.2370  213.5070  140.4180 C   0  0  2  0  0  3  0  0  0  0  0  0
  156.1250  213.8210  141.1820 F   0  0  0  0  0  0  0  0  0  0  0  0
  156.9730  212.2360  139.6100 C   0  0  1  0  0  3  0  0  0  0  0  0
  156.3200  212.5570  138.3510 N   0  0  0  0  0  1  0  0  0  0  0  0
  158.2470  211.4480  139.3450 C   0  0  0  0  0  1  0  0  0  0  0  0
  1 35  2  0  0  0  0
  3 49  1  6  0  0  0
  4 36  2  0  0  0  0
  5 29  1  0  0  0  0
  6  2  1  6  0  0  0
  6 11  1  0  0  0  0
  7 32  1  6  0  0  0
  7 18  1  0  0  0  0
  7  3  1  0  0  0  0
  8 15  1  0  0  0  0
  9 19  1  0  0  0  0
 10 22  1  0  0  0  0
 11 25  1  0  0  0  0
 12  9  1  0  0  0  0
 13 37  1  0  0  0  0
 14 10  1  1  0  0  0
 14 20  1  0  0  0  0
 14 30  1  0  0  0  0
 15  4  2  0  0  0  0
 16 28  1  0  0  0  0
 17 21  1  1  0  0  0
 17 31  1  0  0  0  0
 18 38  1  1  0  0  0
 22 12  1  0  0  0  0
 24  8  1  0  0  0  0
 24 20  1  0  0  0  0
 25 16  1  0  0  0  0
 26 24  2  0  0  0  0
 27 13  1  0  0  0  0
 28  3  1  0  0  0  0
 29 27  2  0  0  0  0
 29 35  1  0  0  0  0
 30 12  2  0  0  0  0
 30 56  1  0  0  0  0
 31 23  1  0  0  0  0
 33 19  1  1  0  0  0
 33  2  1  0  0  0  0
 33  6  1  0  0  0  0
 34 23  1  6  0  0  0
 34  7  1  0  0  0  0
 34 18  1  0  0  0  0
 35 17  1  0  0  0  0
 36  5  1  0  0  0  0
 37 21  1  0  0  0  0
 38 39  1  0  0  0  0
 39 41  1  0  0  0  0
 40 38  2  0  0  0  0
 43 46  1  6  0  0  0
 44 45  1  0  0  0  0
 45 43  1  0  0  0  0
 45 41  1  1  0  0  0
 47 42  1  0  0  0  0
 47 44  1  0  0  0  0
 48 42  1  6  0  0  0
 48 46  1  0  0  0  0
 48 43  1  0  0  0  0
 49 55  1  0  0  0  0
 52 55  1  0  0  0  0
 52 54  2  0  0  0  0
 53 50  2  0  0  0  0
 53 51  1  0  0  0  0
 54 51  1  0  0  0  0
 55 53  1  0  0  0  0
 56 57  1  0  0  0  0
 57 58  1  0  0  0  0
 59 57  2  0  0  0  0
 60 59  1  0  0  0  0
 61 62  1  1  0  0  0
 61 60  1  0  0  0  0
 63 65  1  6  0  0  0
 63 61  1  0  0  0  0
 64 63  1  0  0  0  0
M  END
>  <MODEL>
4

>  <REMARK>
 VINA RESULT:      14.5      1.586      2.452
  Name = 
  11 active torsions:
  status: ('A' for Active; 'I' for Inactive)
    1  A    between atoms: C_3  and  C_31
    2  A    between atoms: C_5  and  N_48
    3  A    between atoms: C_5  and  C_64
    4  A    between atoms: C_6  and  C_49
    5  A    between atoms: C_17  and  C_38
    6  A    between atoms: C_17  and  C_39
    7  A    between atoms: C_21  and  N_30
    8  A    between atoms: N_28  and  N_30
    9  A    between atoms: C_39  and  N_48
   10  A    between atoms: C_49  and  N_59
   11  A    between atoms: C_53  and  C_64
                            x       y       z     vdW  Elec       q    Type
                         _______ _______ _______ _____ _____    ______ ____

>  <TORSDO>
F 11

$$$$
=
 OpenBabel11072414303D

 65 72  0  0  1  0  0  0  0  0999 V2000
  159.5700  207.1010  144.6810 O   0  0  0  0  0  0  0  0  0  0  0  0
  162.5270  212.6990  143.1640 C   0  0  0  0  0  2  0  0  0  0  0  0
  162.2810  212.6880  148.9310 C   0  0  1  0  0  3  0  0  0  0  0  0
  162.1300  206.6240  141.2620 C   0  0  0  0  0  0  0  0  0  0  0  0
  161.5530  205.3810  143.1510 O   0  0  0  0  0  0  0  0  0  0  0  0
  162.5630  214.0640  143.8180 C   0  0  2  0  0  3  0  0  0  0  0  0
  162.5760  211.1720  148.7790 C   0  0  2  0  0  0  0  0  0  0  0  0
  163.1450  207.9720  139.5110 C   0  0  0  0  0  2  0  0  0  0  0  0
  159.4360  213.6810  141.5050 C   0  0  0  0  0  2  0  0  0  0  0  0
  160.9890  211.8790  138.2230 S   0  0  0  0  0  0  0  0  0  0  0  0
  161.7630  214.0420  145.1160 C   0  0  0  0  0  2  0  0  0  0  0  0
  159.8940  212.7060  140.4620 C   0  0  0  0  0  0  0  0  0  0  0  0
  160.6620  203.8510  146.4090 C   0  0  0  0  0  2  0  0  0  0  0  0
  160.3250  210.6330  139.3880 C   0  0  1  0  0  3  0  0  0  0  0  0
  162.6900  206.6750  140.0870 C   0  0  0  0  0  3  0  0  0  0  0  0
  163.2760  213.3260  146.8160 O   0  0  0  0  0  0  0  0  0  0  0  0
  161.2050  206.9340  146.4440 C   0  0  2  0  0  3  0  0  0  0  0  0
  161.9150  210.1700  149.7250 C   0  0  2  0  0  3  0  0  0  0  0  0
  160.2420  213.5530  142.7960 C   0  0  0  0  0  2  0  0  0  0  0  0
  161.4040  209.7670  139.8460 N   0  0  0  0  0  2  0  0  0  0  0  0
  160.8290  206.0320  147.6140 C   0  0  0  0  0  2  0  0  0  0  0  0
  160.5210  213.1430  139.3140 O   0  0  0  0  0  0  0  0  0  0  0  0
  161.9950  209.0270  147.5330 C   0  0  0  0  0  2  0  0  0  0  0  0
  161.9900  208.7680  139.0100 C   0  0  0  0  0  0  0  0  0  0  0  0
  162.6500  214.4530  146.2750 C   0  0  0  0  0  2  0  0  0  0  0  0
  161.5240  208.5380  137.8620 O   0  0  0  0  0  0  0  0  0  0  0  0
  161.1560  204.1360  145.0640 N   0  0  0  0  0  0  0  0  0  0  0  0
  163.3060  213.5600  148.1940 C   0  0  0  0  0  2  0  0  0  0  0  0
  161.0870  205.2900  144.4670 C   0  0  0  0  0  0  0  0  0  0  0  0
  159.7590  211.3900  140.5460 C   0  0  0  0  0  0  0  0  0  0  0  0
  160.8550  208.3760  146.7810 C   0  0  0  0  0  2  0  0  0  0  0  0
  163.8850  210.8040  148.4440 O   0  0  0  0  0  1  0  0  0  0  0  0
  161.7250  213.8300  142.5550 C   0  0  2  0  0  3  0  0  0  0  0  0
  161.4720  210.2530  148.2640 C   0  0  2  0  0  3  0  0  0  0  0  0
  160.5530  206.4790  145.1660 C   0  0  0  0  0  0  0  0  0  0  0  0
  161.5850  206.5800  142.4430 C   0  0  0  0  0  3  0  0  0  0  0  0
  161.4260  204.6420  147.4600 C   0  0  0  0  0  2  0  0  0  0  0  0
  160.9080  210.7840  150.6560 C   0  0  0  0  0  0  0  0  0  0  0  0
  161.0800  210.6790  152.0660 N   0  0  0  0  0  2  0  0  0  0  0  0
  159.8810  211.3600  150.2060 O   0  0  0  0  0  0  0  0  0  0  0  0
  161.9130  209.6970  152.6260 N   0  0  0  0  0  2  0  0  0  0  0  0
  160.2140  209.1710  156.6910 C   0  0  0  0  0  2  0  0  0  0  0  0
  160.8150  208.1950  154.2910 C   0  0  1  0  0  3  0  0  0  0  0  0
  160.7180  210.9630  154.6890 S   0  0  0  0  0  0  0  0  0  0  0  0
  161.5670  209.5060  154.0310 C   0  0  2  0  0  3  0  0  0  0  0  0
  161.5460  207.4420  155.3910 C   0  0  0  0  0  2  0  0  0  0  0  0
  161.0950  210.3660  156.3500 C   0  0  0  0  0  2  0  0  0  0  0  0
  160.1710  208.0080  155.6750 C   0  0  1  0  0  3  0  0  0  0  0  0
  160.8460  213.0800  148.5460 C   0  0  0  0  0  2  0  0  0  0  0  0
  161.8700  213.8680  151.2710 O   0  0  0  0  0  0  0  0  0  0  0  0
  159.5850  214.4420  151.8510 C   0  0  0  0  0  2  0  0  0  0  0  0
  158.7750  213.9870  149.7040 C   0  0  0  0  0  3  0  0  0  0  0  0
  160.6680  214.0320  150.9310 C   0  0  0  0  0  0  0  0  0  0  0  0
  158.4040  214.3510  150.9290 C   0  0  0  0  0  3  0  0  0  0  0  0
  160.1800  213.8050  149.6210 N   0  0  0  0  0  0  0  0  0  0  0  0
  159.0690  210.6990  141.6840 C   0  0  0  0  0  2  0  0  0  0  0  0
  159.9330  210.7100  142.8980 C   0  0  0  0  0  0  0  0  0  0  0  0
  161.2000  210.3250  142.7940 C   0  0  0  0  0  2  0  0  0  0  0  0
  159.4250  211.2810  144.1090 N   0  0  0  0  0  2  0  0  0  0  0  0
  158.7190  212.5540  144.1650 C   0  0  0  0  0  2  0  0  0  0  0  0
  158.4450  212.9250  145.6170 C   0  0  2  0  0  3  0  0  0  0  0  0
  158.5680  211.8080  146.4280 F   0  0  0  0  0  0  0  0  0  0  0  0
  157.0640  213.5550  145.8030 C   0  0  1  0  0  3  0  0  0  0  0  0
  157.0450  214.4080  146.9800 N   0  0  0  0  0  1  0  0  0  0  0  0
  156.6260  214.3500  144.5830 C   0  0  0  0  0  1  0  0  0  0  0  0
  1 35  2  0  0  0  0
  3 49  1  6  0  0  0
  4 36  2  0  0  0  0
  5 29  1  0  0  0  0
  6  2  1  1  0  0  0
  6 11  1  0  0  0  0
  7 32  1  6  0  0  0
  7  3  1  0  0  0  0
  7 18  1  0  0  0  0
  8 15  1  0  0  0  0
  9 19  1  0  0  0  0
 10 22  1  0  0  0  0
 11 25  1  0  0  0  0
 12 30  2  0  0  0  0
 12  9  1  0  0  0  0
 13 37  1  0  0  0  0
 14 10  1  6  0  0  0
 14 20  1  0  0  0  0
 14 30  1  0  0  0  0
 15  4  2  0  0  0  0
 16 28  1  0  0  0  0
 17 31  1  1  0  0  0
 17 21  1  0  0  0  0
 18 38  1  1  0  0  0
 22 12  1  0  0  0  0
 24  8  1  0  0  0  0
 24 20  1  0  0  0  0
 25 16  1  0  0  0  0
 26 24  2  0  0  0  0
 27 13  1  0  0  0  0
 28  3  1  0  0  0  0
 29 27  2  0  0  0  0
 29 35  1  0  0  0  0
 30 56  1  0  0  0  0
 31 23  1  0  0  0  0
 33 19  1  1  0  0  0
 33  2  1  0  0  0  0
 33  6  1  0  0  0  0
 34 23  1  6  0  0  0
 34  7  1  0  0  0  0
 34 18  1  0  0  0  0
 35 17  1  0  0  0  0
 36  5  1  0  0  0  0
 37 21  1  0  0  0  0
 38 39  1  0  0  0  0
 39 41  1  0  0  0  0
 40 38  2  0  0  0  0
 43 46  1  1  0  0  0
 43 48  1  0  0  0  0
 44 47  1  0  0  0  0
 45 41  1  6  0  0  0
 45 43  1  0  0  0  0
 45 44  1  0  0  0  0
 47 42  1  0  0  0  0
 48 46  1  1  0  0  0
 48 42  1  0  0  0  0
 49 55  1  0  0  0  0
 52 54  2  0  0  0  0
 53 50  2  0  0  0  0
 53 51  1  0  0  0  0
 54 51  1  0  0  0  0
 55 52  1  0  0  0  0
 55 53  1  0  0  0  0
 56 57  1  0  0  0  0
 57 59  1  0  0  0  0
 58 57  2  0  0  0  0
 59 60  1  0  0  0  0
 60 61  1  0  0  0  0
 61 63  1  0  0  0  0
 61 62  1  1  0  0  0
 63 65  1  6  0  0  0
 63 64  1  0  0  0  0
M  END
>  <MODEL>
5

>  <REMARK>
 VINA RESULT:      15.1      2.345      3.280
  Name = 
  11 active torsions:
  status: ('A' for Active; 'I' for Inactive)
    1  A    between atoms: C_3  and  C_31
    2  A    between atoms: C_5  and  N_48
    3  A    between atoms: C_5  and  C_64
    4  A    between atoms: C_6  and  C_49
    5  A    between atoms: C_17  and  C_38
    6  A    between atoms: C_17  and  C_39
    7  A    between atoms: C_21  and  N_30
    8  A    between atoms: N_28  and  N_30
    9  A    between atoms: C_39  and  N_48
   10  A    between atoms: C_49  and  N_59
   11  A    between atoms: C_53  and  C_64
                            x       y       z     vdW  Elec       q    Type
                         _______ _______ _______ _____ _____    ______ ____

>  <TORSDO>
F 11

$$$$
