=
 OpenBabel11072410093D

 43 48  0  0  1  0  0  0  0  0999 V2000
  161.0860  207.6480  154.3410 C   0  0  0  0  0  0  0  0  0  0  0  0
  159.7000  207.4280  156.3220 C   0  0  0  0  0  3  0  0  0  0  0  0
  160.4460  206.8420  155.2980 C   0  0  0  0  0  3  0  0  0  0  0  0
  159.5880  208.8200  156.3950 C   0  0  0  0  0  3  0  0  0  0  0  0
  160.1970  209.6350  155.4260 C   0  0  0  0  0  0  0  0  0  0  0  0
  160.9540  209.0380  154.4100 C   0  0  0  0  0  3  0  0  0  0  0  0
  161.9410  207.0800  153.3390 N   0  0  0  0  0  2  0  0  0  0  0  0
  161.7950  205.6600  149.8230 N   0  0  0  0  0  0  0  0  0  0  0  0
  160.7720  206.5590  149.2500 C   0  0  2  0  0  0  0  0  0  0  0  0
  162.4330  208.2500  151.1980 C   0  0  0  0  0  2  0  0  0  0  0  0
  161.6910  207.0890  151.9010 C   0  0  1  0  0  3  0  0  0  0  0  0
  161.8660  205.6810  151.2980 C   0  0  1  0  0  3  0  0  0  0  0  0
  161.1620  208.0300  149.3180 C   0  0  2  0  0  3  0  0  0  0  0  0
  159.4360  206.3360  149.5390 F   0  0  0  0  0  0  0  0  0  0  0  0
  161.1490  207.2920  147.9850 C   0  0  0  0  0  2  0  0  0  0  0  0
  162.4810  208.1410  149.7900 O   0  0  0  0  0  0  0  0  0  0  0  0
  160.9110  204.8400  151.8570 F   0  0  0  0  0  0  0  0  0  0  0  0
  161.8180  204.2850  149.2900 C   0  0  0  0  0  2  0  0  0  0  0  0
  161.2210  203.0560  147.1570 C   0  0  0  0  0  0  0  0  0  0  0  0
  160.4720  201.6750  147.9960 S   0  0  0  0  0  0  0  0  0  0  0  0
  162.2960  205.2130  146.9920 C   0  0  0  0  0  3  0  0  0  0  0  0
  162.2830  205.1060  145.5930 C   0  0  0  0  0  3  0  0  0  0  0  0
  161.7490  203.9640  144.9790 C   0  0  0  0  0  3  0  0  0  0  0  0
  161.7700  204.1850  147.7880 C   0  0  0  0  0  0  0  0  0  0  0  0
  160.5570  200.7280  146.4320 C   0  0  0  0  0  2  0  0  0  0  0  0
  160.6430  201.6970  145.2510 C   0  0  0  0  0  2  0  0  0  0  0  0
  161.2280  202.9480  145.7810 C   0  0  0  0  0  0  0  0  0  0  0  0
  160.1510  211.1420  155.5180 C   0  0  2  0  0  3  0  0  0  0  0  0
  162.2010  211.3980  156.7800 O   0  0  0  0  0  1  0  0  0  0  0  0
  160.8300  211.6570  156.7980 C   0  0  1  0  0  3  0  0  0  0  0  0
  160.5850  213.1390  157.0110 C   0  0  0  0  0  1  0  0  0  0  0  0
  158.7330  211.7250  155.3860 C   0  0  1  0  0  3  0  0  0  0  0  0
  159.3930  212.8920  152.3070 C   0  0  0  0  0  3  0  0  0  0  0  0
  158.7900  214.1930  152.7420 C   0  0  0  0  0  2  0  0  0  0  0  0
  156.6170  213.5430  153.7840 C   0  0  0  0  0  2  0  0  0  0  0  0
  156.7200  212.0200  153.7430 C   0  0  0  0  0  2  0  0  0  0  0  0
  158.1370  211.4820  153.9880 C   0  0  1  0  0  3  0  0  0  0  0  0
  159.1010  211.7040  152.8530 C   0  0  0  0  0  3  0  0  0  0  0  0
  157.2810  214.1920  152.5780 C   0  0  0  0  0  2  0  0  0  0  0  0
  157.8710  211.2450  156.4130 O   0  0  0  0  0  0  0  0  0  0  0  0
  155.6280  211.5840  157.2600 O   0  0  0  0  0  1  0  0  0  0  0  0
  156.8990  212.0720  156.9830 C   0  0  0  0  0  0  0  0  0  0  0  0
  157.1740  213.2720  157.2420 O   0  0  0  0  0  0  0  0  0  0  0  0
  1  6  2  0  0  0  0
  1  3  1  0  0  0  0
  2  4  1  0  0  0  0
  3  2  2  0  0  0  0
  5 28  1  0  0  0  0
  5  4  2  0  0  0  0
  6  5  1  0  0  0  0
  7  1  1  0  0  0  0
  8 12  1  0  0  0  0
  9 13  1  0  0  0  0
  9 14  1  1  0  0  0
  9  8  1  0  0  0  0
 10 11  1  0  0  0  0
 11  7  1  1  0  0  0
 12 17  1  1  0  0  0
 12 11  1  0  0  0  0
 13 15  1  6  0  0  0
 13 16  1  0  0  0  0
 15  9  1  0  0  0  0
 16 10  1  0  0  0  0
 18  8  1  0  0  0  0
 19 24  1  0  0  0  0
 19 20  1  0  0  0  0
 21 24  2  0  0  0  0
 22 21  1  0  0  0  0
 23 22  2  0  0  0  0
 23 27  1  0  0  0  0
 24 18  1  0  0  0  0
 25 20  1  0  0  0  0
 26 27  1  0  0  0  0
 26 25  1  0  0  0  0
 27 19  2  0  0  0  0
 28 32  1  1  0  0  0
 28 30  1  0  0  0  0
 29 30  1  0  0  0  0
 30 31  1  6  0  0  0
 32 40  1  1  0  0  0
 33 34  1  0  0  0  0
 33 38  2  0  0  0  0
 36 35  1  0  0  0  0
 36 37  1  0  0  0  0
 37 32  1  1  0  0  0
 38 37  1  0  0  0  0
 39 34  1  0  0  0  0
 39 35  1  0  0  0  0
 40 42  1  0  0  0  0
 42 43  2  0  0  0  0
 42 41  1  0  0  0  0
M  END
>  <MODEL>
1

>  <REMARK>
 VINA RESULT:      -7.2      0.000      0.000
  Name = 
  10 active torsions:
  status: ('A' for Active; 'I' for Inactive)
    1  A    between atoms: O_1  and  C_9
    2  A    between atoms: O_1  and  C_17
    3  A    between atoms: N_3  and  C_30
    4  A    between atoms: C_9  and  C_20
    5  A    between atoms: C_9  and  C_29
    6  A    between atoms: C_10  and  N_13
    7  A    between atoms: N_13  and  C_23
    8  A    between atoms: C_15  and  C_29
    9  A    between atoms: C_28  and  C_30
   10  A    between atoms: C_29  and  C_31
                            x       y       z     vdW  Elec       q    Type
                         _______ _______ _______ _____ _____    ______ ____

>  <TORSDO>
F 10

$$$$
=
 OpenBabel11072410093D

 43 48  0  0  1  0  0  0  0  0999 V2000
  160.6020  209.4720  153.5270 C   0  0  0  0  0  0  0  0  0  0  0  0
  162.5240  210.0160  152.1460 C   0  0  0  0  0  3  0  0  0  0  0  0
  161.6540  210.3410  153.1890 C   0  0  0  0  0  3  0  0  0  0  0  0
  162.3480  208.8240  151.4360 C   0  0  0  0  0  3  0  0  0  0  0  0
  161.2810  207.9630  151.7440 C   0  0  0  0  0  0  0  0  0  0  0  0
  160.4220  208.2910  152.8000 C   0  0  0  0  0  3  0  0  0  0  0  0
  159.7560  209.7280  154.6560 N   0  0  0  0  0  2  0  0  0  0  0  0
  158.0360  213.0120  153.8450 N   0  0  0  0  0  0  0  0  0  0  0  0
  157.2240  213.1590  155.0690 C   0  0  2  0  0  0  0  0  0  0  0  0
  159.8710  211.8660  155.9240 C   0  0  0  0  0  2  0  0  0  0  0  0
  159.0690  210.9850  154.9380 C   0  0  1  0  0  3  0  0  0  0  0  0
  158.5840  211.6560  153.6370 C   0  0  1  0  0  3  0  0  0  0  0  0
  158.0590  213.1860  156.3420 C   0  0  2  0  0  3  0  0  0  0  0  0
  156.0550  212.4270  155.1990 F   0  0  0  0  0  0  0  0  0  0  0  0
  157.3820  214.4530  155.8330 C   0  0  0  0  0  2  0  0  0  0  0  0
  159.4230  213.2050  156.0050 O   0  0  0  0  0  0  0  0  0  0  0  0
  157.6480  210.8240  153.0360 F   0  0  0  0  0  0  0  0  0  0  0  0
  157.4490  213.5630  152.6080 C   0  0  0  0  0  2  0  0  0  0  0  0
  157.8770  213.7950  150.1230 C   0  0  0  0  0  0  0  0  0  0  0  0
  156.1760  214.1330  149.7180 S   0  0  0  0  0  0  0  0  0  0  0  0
  159.7480  213.3600  151.5870 C   0  0  0  0  0  3  0  0  0  0  0  0
  160.6050  213.3410  150.4770 C   0  0  0  0  0  3  0  0  0  0  0  0
  160.0910  213.5370  149.1870 C   0  0  0  0  0  3  0  0  0  0  0  0
  158.3730  213.5810  151.4200 C   0  0  0  0  0  0  0  0  0  0  0  0
  156.5640  213.7870  147.9640 C   0  0  0  0  0  2  0  0  0  0  0  0
  158.0640  213.9720  147.7260 C   0  0  0  0  0  2  0  0  0  0  0  0
  158.7230  213.7570  149.0320 C   0  0  0  0  0  0  0  0  0  0  0  0
  161.1080  206.6370  151.0410 C   0  0  2  0  0  3  0  0  0  0  0  0
  162.6860  206.0230  152.7710 O   0  0  0  0  0  1  0  0  0  0  0  0
  161.9930  205.5430  151.6590 C   0  0  1  0  0  3  0  0  0  0  0  0
  161.1880  204.3140  152.0410 C   0  0  0  0  0  1  0  0  0  0  0  0
  161.3240  206.7130  149.5200 C   0  0  1  0  0  3  0  0  0  0  0  0
  162.0010  203.8630  147.8790 C   0  0  0  0  0  3  0  0  0  0  0  0
  162.6030  204.7050  146.7960 C   0  0  0  0  0  2  0  0  0  0  0  0
  160.8740  206.4490  146.3460 C   0  0  0  0  0  2  0  0  0  0  0  0
  159.8530  206.1340  147.4370 C   0  0  0  0  0  2  0  0  0  0  0  0
  160.4760  205.6760  148.7630 C   0  0  1  0  0  3  0  0  0  0  0  0
  161.0650  204.2900  148.7370 C   0  0  0  0  0  3  0  0  0  0  0  0
  161.5490  205.1920  145.8170 C   0  0  0  0  0  2  0  0  0  0  0  0
  161.1050  208.0300  149.0240 O   0  0  0  0  0  0  0  0  0  0  0  0
  162.1130  210.1770  148.5380 O   0  0  0  0  0  1  0  0  0  0  0  0
  162.1560  208.7890  148.5020 C   0  0  0  0  0  0  0  0  0  0  0  0
  163.1490  208.2110  147.9900 O   0  0  0  0  0  0  0  0  0  0  0  0
  1  7  1  0  0  0  0
  2  3  2  0  0  0  0
  3  1  1  0  0  0  0
  4  5  2  0  0  0  0
  4  2  1  0  0  0  0
  5  6  1  0  0  0  0
  6  1  2  0  0  0  0
  8  9  1  0  0  0  0
  9 14  1  1  0  0  0
  9 15  1  0  0  0  0
  9 13  1  0  0  0  0
 10 16  1  0  0  0  0
 11  7  1  6  0  0  0
 11 10  1  0  0  0  0
 12 17  1  1  0  0  0
 12  8  1  0  0  0  0
 12 11  1  0  0  0  0
 13 15  1  6  0  0  0
 16 13  1  0  0  0  0
 18  8  1  0  0  0  0
 19 24  1  0  0  0  0
 20 19  1  0  0  0  0
 22 21  1  0  0  0  0
 23 22  2  0  0  0  0
 24 21  2  0  0  0  0
 24 18  1  0  0  0  0
 25 20  1  0  0  0  0
 26 25  1  0  0  0  0
 26 27  1  0  0  0  0
 27 23  1  0  0  0  0
 27 19  2  0  0  0  0
 28 32  1  6  0  0  0
 28 30  1  0  0  0  0
 28  5  1  0  0  0  0
 30 31  1  1  0  0  0
 30 29  1  0  0  0  0
 32 40  1  6  0  0  0
 33 38  2  0  0  0  0
 34 33  1  0  0  0  0
 35 36  1  0  0  0  0
 36 37  1  0  0  0  0
 37 32  1  6  0  0  0
 38 37  1  0  0  0  0
 39 35  1  0  0  0  0
 39 34  1  0  0  0  0
 42 41  1  0  0  0  0
 42 40  1  0  0  0  0
 43 42  2  0  0  0  0
M  END
>  <MODEL>
2

>  <REMARK>
 VINA RESULT:      -7.1      3.462      9.251
  Name = 
  10 active torsions:
  status: ('A' for Active; 'I' for Inactive)
    1  A    between atoms: O_1  and  C_9
    2  A    between atoms: O_1  and  C_17
    3  A    between atoms: N_3  and  C_30
    4  A    between atoms: C_9  and  C_20
    5  A    between atoms: C_9  and  C_29
    6  A    between atoms: C_10  and  N_13
    7  A    between atoms: N_13  and  C_23
    8  A    between atoms: C_15  and  C_29
    9  A    between atoms: C_28  and  C_30
   10  A    between atoms: C_29  and  C_31
                            x       y       z     vdW  Elec       q    Type
                         _______ _______ _______ _____ _____    ______ ____

>  <TORSDO>
F 10

$$$$
=
 OpenBabel11072410093D

 43 48  0  0  1  0  0  0  0  0999 V2000
  161.2830  208.6940  152.2610 C   0  0  0  0  0  0  0  0  0  0  0  0
  162.0070  209.0110  149.9650 C   0  0  0  0  0  3  0  0  0  0  0  0
  161.8220  209.5140  151.2550 C   0  0  0  0  0  3  0  0  0  0  0  0
  161.6550  207.6900  149.6740 C   0  0  0  0  0  3  0  0  0  0  0  0
  161.0850  206.8700  150.6630 C   0  0  0  0  0  0  0  0  0  0  0  0
  160.9150  207.3790  151.9570 C   0  0  0  0  0  3  0  0  0  0  0  0
  161.1750  209.1490  153.6170 N   0  0  0  0  0  2  0  0  0  0  0  0
  158.9000  212.1670  153.2800 N   0  0  0  0  0  0  0  0  0  0  0  0
  158.2630  212.1290  154.6120 C   0  0  2  0  0  0  0  0  0  0  0  0
  161.1650  211.2150  155.0030 C   0  0  0  0  0  2  0  0  0  0  0  0
  160.3630  210.2710  154.0770 C   0  0  1  0  0  3  0  0  0  0  0  0
  159.6020  210.9220  152.9060 C   0  0  1  0  0  3  0  0  0  0  0  0
  159.2630  212.2210  155.7570 C   0  0  2  0  0  3  0  0  0  0  0  0
  157.2440  211.2210  154.8500 F   0  0  0  0  0  0  0  0  0  0  0  0
  158.3430  213.3920  155.4350 C   0  0  0  0  0  2  0  0  0  0  0  0
  160.5450  212.4640  155.2370 O   0  0  0  0  0  0  0  0  0  0  0  0
  158.7170  209.9870  152.3810 F   0  0  0  0  0  0  0  0  0  0  0  0
  158.0650  212.6810  152.1780 C   0  0  0  0  0  2  0  0  0  0  0  0
  158.1560  213.6160  149.8250 C   0  0  0  0  0  0  0  0  0  0  0  0
  156.4000  213.8890  149.7150 S   0  0  0  0  0  0  0  0  0  0  0  0
  160.2220  212.9780  150.9010 C   0  0  0  0  0  3  0  0  0  0  0  0
  160.9290  213.3410  149.7450 C   0  0  0  0  0  3  0  0  0  0  0  0
  160.2430  213.8300  148.6250 C   0  0  0  0  0  3  0  0  0  0  0  0
  158.8260  213.1060  150.9500 C   0  0  0  0  0  0  0  0  0  0  0  0
  156.5790  214.0690  147.9030 C   0  0  0  0  0  2  0  0  0  0  0  0
  158.0220  214.4520  147.5680 C   0  0  0  0  0  2  0  0  0  0  0  0
  158.8550  213.9540  148.6840 C   0  0  0  0  0  0  0  0  0  0  0  0
  160.7580  205.4200  150.3960 C   0  0  2  0  0  3  0  0  0  0  0  0
  162.6850  205.1720  151.8410 O   0  0  0  0  0  1  0  0  0  0  0  0
  161.6520  204.4730  151.2130 C   0  0  1  0  0  3  0  0  0  0  0  0
  160.8560  203.6900  152.2410 C   0  0  0  0  0  1  0  0  0  0  0  0
  160.7940  205.0450  148.9040 C   0  0  1  0  0  3  0  0  0  0  0  0
  160.2610  206.1190  145.7670 C   0  0  0  0  0  3  0  0  0  0  0  0
  160.9780  204.8900  145.2940 C   0  0  0  0  0  2  0  0  0  0  0  0
  163.0770  204.8490  146.6470 C   0  0  0  0  0  2  0  0  0  0  0  0
  162.8350  206.0220  147.5930 C   0  0  0  0  0  2  0  0  0  0  0  0
  161.3730  206.1760  148.0380 C   0  0  1  0  0  3  0  0  0  0  0  0
  160.4410  206.6820  146.9690 C   0  0  0  0  0  3  0  0  0  0  0  0
  162.4820  205.0970  145.2680 C   0  0  0  0  0  2  0  0  0  0  0  0
  161.4810  203.8160  148.6880 O   0  0  0  0  0  0  0  0  0  0  0  0
  160.9460  202.0530  147.1180 O   0  0  0  0  0  0  0  0  0  0  0  0
  160.7860  202.6490  148.3630 C   0  0  0  0  0  0  0  0  0  0  0  0
  160.0040  202.1330  149.2030 O   0  0  0  0  0  1  0  0  0  0  0  0
  1  7  1  0  0  0  0
  2  3  1  0  0  0  0
  3  1  2  0  0  0  0
  4  2  2  0  0  0  0
  4  5  1  0  0  0  0
  5  6  2  0  0  0  0
  6  1  1  0  0  0  0
  8  9  1  0  0  0  0
  9 14  1  1  0  0  0
  9 15  1  0  0  0  0
  9 13  1  0  0  0  0
 10 16  1  0  0  0  0
 11  7  1  6  0  0  0
 11 10  1  0  0  0  0
 12 17  1  1  0  0  0
 12  8  1  0  0  0  0
 12 11  1  0  0  0  0
 13 15  1  1  0  0  0
 16 13  1  0  0  0  0
 18  8  1  0  0  0  0
 19 24  1  0  0  0  0
 20 19  1  0  0  0  0
 21 24  2  0  0  0  0
 22 21  1  0  0  0  0
 23 27  1  0  0  0  0
 23 22  2  0  0  0  0
 24 18  1  0  0  0  0
 25 20  1  0  0  0  0
 26 25  1  0  0  0  0
 26 27  1  0  0  0  0
 27 19  2  0  0  0  0
 28 32  1  6  0  0  0
 28  5  1  0  0  0  0
 28 30  1  0  0  0  0
 30 29  1  0  0  0  0
 30 31  1  1  0  0  0
 32 40  1  1  0  0  0
 33 38  2  0  0  0  0
 34 33  1  0  0  0  0
 35 36  1  0  0  0  0
 36 37  1  0  0  0  0
 37 32  1  6  0  0  0
 38 37  1  0  0  0  0
 39 34  1  0  0  0  0
 39 35  1  0  0  0  0
 41 42  2  0  0  0  0
 42 40  1  0  0  0  0
 42 43  1  0  0  0  0
M  END
>  <MODEL>
3

>  <REMARK>
 VINA RESULT:      -6.9      3.617      9.531
  Name = 
  10 active torsions:
  status: ('A' for Active; 'I' for Inactive)
    1  A    between atoms: O_1  and  C_9
    2  A    between atoms: O_1  and  C_17
    3  A    between atoms: N_3  and  C_30
    4  A    between atoms: C_9  and  C_20
    5  A    between atoms: C_9  and  C_29
    6  A    between atoms: C_10  and  N_13
    7  A    between atoms: N_13  and  C_23
    8  A    between atoms: C_15  and  C_29
    9  A    between atoms: C_28  and  C_30
   10  A    between atoms: C_29  and  C_31
                            x       y       z     vdW  Elec       q    Type
                         _______ _______ _______ _____ _____    ______ ____

>  <TORSDO>
F 10

$$$$
=
 OpenBabel11072410093D

 43 48  0  0  1  0  0  0  0  0999 V2000
  160.9310  207.4380  152.1050 C   0  0  0  0  0  0  0  0  0  0  0  0
  161.2270  205.4170  153.4180 C   0  0  0  0  0  3  0  0  0  0  0  0
  161.1240  206.8070  153.3460 C   0  0  0  0  0  3  0  0  0  0  0  0
  161.1370  204.6500  152.2520 C   0  0  0  0  0  3  0  0  0  0  0  0
  160.9760  205.2710  151.0020 C   0  0  0  0  0  0  0  0  0  0  0  0
  160.8620  206.6660  150.9420 C   0  0  0  0  0  3  0  0  0  0  0  0
  160.7220  208.8540  152.0120 N   0  0  0  0  0  2  0  0  0  0  0  0
  159.7690  212.0740  153.7810 N   0  0  0  0  0  0  0  0  0  0  0  0
  159.6020  211.5470  155.1500 C   0  0  2  0  0  0  0  0  0  0  0  0
  161.9140  209.9780  153.8850 C   0  0  0  0  0  2  0  0  0  0  0  0
  160.5750  209.7690  153.1400 C   0  0  1  0  0  3  0  0  0  0  0  0
  159.7990  211.0360  152.7300 C   0  0  1  0  0  3  0  0  0  0  0  0
  160.8590  210.8810  155.6930 C   0  0  2  0  0  3  0  0  0  0  0  0
  158.4400  210.8670  155.4780 F   0  0  0  0  0  0  0  0  0  0  0  0
  160.3990  212.2280  156.2380 C   0  0  0  0  0  2  0  0  0  0  0  0
  161.9150  211.0680  154.7850 O   0  0  0  0  0  0  0  0  0  0  0  0
  158.5130  210.6640  152.3570 F   0  0  0  0  0  0  0  0  0  0  0  0
  158.8970  213.2060  153.4120 C   0  0  0  0  0  2  0  0  0  0  0  0
  157.6350  213.8760  151.3200 C   0  0  0  0  0  0  0  0  0  0  0  0
  156.0790  214.0930  152.1590 S   0  0  0  0  0  0  0  0  0  0  0  0
  160.0000  213.4120  151.1510 C   0  0  0  0  0  3  0  0  0  0  0  0
  159.9430  213.6620  149.7710 C   0  0  0  0  0  3  0  0  0  0  0  0
  158.7260  214.0070  149.1670 C   0  0  0  0  0  3  0  0  0  0  0  0
  158.8430  213.5110  151.9380 C   0  0  0  0  0  0  0  0  0  0  0  0
  155.2420  214.0750  150.5320 C   0  0  0  0  0  2  0  0  0  0  0  0
  156.2440  214.4530  149.4390 C   0  0  0  0  0  2  0  0  0  0  0  0
  157.5830  214.1030  149.9600 C   0  0  0  0  0  0  0  0  0  0  0  0
  160.8080  204.4660  149.7350 C   0  0  2  0  0  3  0  0  0  0  0  0
  161.5700  202.7430  151.2560 O   0  0  0  0  0  1  0  0  0  0  0  0
  161.0870  202.9720  149.9670 C   0  0  1  0  0  3  0  0  0  0  0  0
  159.8540  202.1210  149.7170 C   0  0  0  0  0  1  0  0  0  0  0  0
  161.6400  204.9940  148.5540 C   0  0  1  0  0  3  0  0  0  0  0  0
  163.4630  204.7910  145.7400 C   0  0  0  0  0  3  0  0  0  0  0  0
  162.5490  205.8220  145.1510 C   0  0  0  0  0  2  0  0  0  0  0  0
  160.2580  204.9660  145.6490 C   0  0  0  0  0  2  0  0  0  0  0  0
  160.5840  203.7480  146.5110 C   0  0  0  0  0  2  0  0  0  0  0  0
  161.7920  203.9440  147.4390 C   0  0  1  0  0  3  0  0  0  0  0  0
  163.1250  203.9660  146.7410 C   0  0  0  0  0  3  0  0  0  0  0  0
  161.3000  205.1910  144.5630 C   0  0  0  0  0  2  0  0  0  0  0  0
  161.1180  206.2190  148.0510 O   0  0  0  0  0  0  0  0  0  0  0  0
  161.2000  208.6380  148.1380 O   0  0  0  0  0  0  0  0  0  0  0  0
  161.8460  207.4080  148.1470 C   0  0  0  0  0  0  0  0  0  0  0  0
  163.1010  207.3650  148.2390 O   0  0  0  0  0  1  0  0  0  0  0  0
  1  3  1  0  0  0  0
  3  2  2  0  0  0  0
  4  2  1  0  0  0  0
  5  4  2  0  0  0  0
  6  5  1  0  0  0  0
  6  1  2  0  0  0  0
  7  1  1  0  0  0  0
  8  9  1  0  0  0  0
  9 14  1  1  0  0  0
  9 13  1  0  0  0  0
  9 15  1  0  0  0  0
 10 16  1  0  0  0  0
 11  7  1  6  0  0  0
 11 10  1  0  0  0  0
 12 17  1  1  0  0  0
 12 11  1  0  0  0  0
 12  8  1  0  0  0  0
 13 15  1  1  0  0  0
 16 13  1  0  0  0  0
 18  8  1  0  0  0  0
 19 24  1  0  0  0  0
 19 20  1  0  0  0  0
 21 24  2  0  0  0  0
 22 21  1  0  0  0  0
 23 22  2  0  0  0  0
 23 27  1  0  0  0  0
 24 18  1  0  0  0  0
 25 20  1  0  0  0  0
 26 27  1  0  0  0  0
 26 25  1  0  0  0  0
 27 19  2  0  0  0  0
 28 32  1  6  0  0  0
 28 30  1  0  0  0  0
 28  5  1  0  0  0  0
 30 31  1  1  0  0  0
 30 29  1  0  0  0  0
 32 40  1  6  0  0  0
 33 38  2  0  0  0  0
 34 33  1  0  0  0  0
 35 36  1  0  0  0  0
 36 37  1  0  0  0  0
 37 32  1  6  0  0  0
 38 37  1  0  0  0  0
 39 34  1  0  0  0  0
 39 35  1  0  0  0  0
 40 42  1  0  0  0  0
 41 42  2  0  0  0  0
 42 43  1  0  0  0  0
M  END
>  <MODEL>
4

>  <REMARK>
 VINA RESULT:      -6.8      3.354      9.707
  Name = 
  10 active torsions:
  status: ('A' for Active; 'I' for Inactive)
    1  A    between atoms: O_1  and  C_9
    2  A    between atoms: O_1  and  C_17
    3  A    between atoms: N_3  and  C_30
    4  A    between atoms: C_9  and  C_20
    5  A    between atoms: C_9  and  C_29
    6  A    between atoms: C_10  and  N_13
    7  A    between atoms: N_13  and  C_23
    8  A    between atoms: C_15  and  C_29
    9  A    between atoms: C_28  and  C_30
   10  A    between atoms: C_29  and  C_31
                            x       y       z     vdW  Elec       q    Type
                         _______ _______ _______ _____ _____    ______ ____

>  <TORSDO>
F 10

$$$$
=
 OpenBabel11072410093D

 43 48  0  0  1  0  0  0  0  0999 V2000
  160.9810  207.4990  154.5620 C   0  0  0  0  0  0  0  0  0  0  0  0
  159.7050  207.6470  156.6230 C   0  0  0  0  0  3  0  0  0  0  0  0
  160.3260  206.8760  155.6390 C   0  0  0  0  0  3  0  0  0  0  0  0
  159.7320  209.0420  156.5370 C   0  0  0  0  0  3  0  0  0  0  0  0
  160.3550  209.6770  155.4480 C   0  0  0  0  0  0  0  0  0  0  0  0
  160.9880  208.8940  154.4730 C   0  0  0  0  0  3  0  0  0  0  0  0
  161.7140  206.7380  153.5920 N   0  0  0  0  0  2  0  0  0  0  0  0
  161.8240  205.5310  149.9960 N   0  0  0  0  0  0  0  0  0  0  0  0
  160.8290  206.4520  149.4100 C   0  0  2  0  0  0  0  0  0  0  0  0
  162.3310  208.0390  151.5630 C   0  0  0  0  0  2  0  0  0  0  0  0
  161.5600  206.8310  152.1440 C   0  0  1  0  0  3  0  0  0  0  0  0
  161.7960  205.4640  151.4710 C   0  0  1  0  0  3  0  0  0  0  0  0
  161.1920  207.9200  149.5920 C   0  0  2  0  0  3  0  0  0  0  0  0
  159.4800  206.1980  149.5940 F   0  0  0  0  0  0  0  0  0  0  0  0
  161.2800  207.2640  148.2190 C   0  0  0  0  0  2  0  0  0  0  0  0
  162.4750  208.0170  150.1580 O   0  0  0  0  0  0  0  0  0  0  0  0
  160.8170  204.5810  151.9130 F   0  0  0  0  0  0  0  0  0  0  0  0
  161.9030  204.1910  149.3850 C   0  0  0  0  0  2  0  0  0  0  0  0
  161.2160  203.0990  147.2050 C   0  0  0  0  0  0  0  0  0  0  0  0
  160.4340  201.7030  147.9870 S   0  0  0  0  0  0  0  0  0  0  0  0
  162.3660  205.2220  147.1280 C   0  0  0  0  0  3  0  0  0  0  0  0
  162.3190  205.1900  145.7260 C   0  0  0  0  0  3  0  0  0  0  0  0
  161.7310  204.1020  145.0660 C   0  0  0  0  0  3  0  0  0  0  0  0
  161.8190  204.1730  147.8820 C   0  0  0  0  0  0  0  0  0  0  0  0
  160.4510  200.8380  146.3750 C   0  0  0  0  0  2  0  0  0  0  0  0
  160.5480  201.8650  145.2450 C   0  0  0  0  0  2  0  0  0  0  0  0
  161.1890  203.0640  145.8250 C   0  0  0  0  0  0  0  0  0  0  0  0
  160.4600  211.1810  155.3640 C   0  0  2  0  0  3  0  0  0  0  0  0
  161.9500  211.3990  157.2600 O   0  0  0  0  0  1  0  0  0  0  0  0
  160.7220  211.8130  156.7410 C   0  0  1  0  0  3  0  0  0  0  0  0
  160.6670  213.3290  156.6870 C   0  0  0  0  0  1  0  0  0  0  0  0
  159.2500  211.8460  154.6850 C   0  0  1  0  0  3  0  0  0  0  0  0
  156.1440  211.1830  155.7740 C   0  0  0  0  0  3  0  0  0  0  0  0
  155.6450  211.6690  154.4470 C   0  0  0  0  0  2  0  0  0  0  0  0
  156.8030  213.8560  154.1210 C   0  0  0  0  0  2  0  0  0  0  0  0
  157.7330  213.8750  155.3320 C   0  0  0  0  0  2  0  0  0  0  0  0
  158.3020  212.4990  155.7060 C   0  0  1  0  0  3  0  0  0  0  0  0
  157.3070  211.5530  156.3250 C   0  0  0  0  0  3  0  0  0  0  0  0
  155.4770  213.1770  154.4320 C   0  0  0  0  0  2  0  0  0  0  0  0
  159.6560  212.7720  153.6810 O   0  0  0  0  0  0  0  0  0  0  0  0
  160.3690  211.1380  152.0430 O   0  0  0  0  0  1  0  0  0  0  0  0
  159.8100  212.3720  152.3520 C   0  0  0  0  0  0  0  0  0  0  0  0
  159.4440  213.1380  151.4230 O   0  0  0  0  0  0  0  0  0  0  0  0
  1  3  1  0  0  0  0
  3  2  2  0  0  0  0
  4  2  1  0  0  0  0
  5  4  2  0  0  0  0
  6  1  2  0  0  0  0
  6  5  1  0  0  0  0
  7  1  1  0  0  0  0
  8 12  1  0  0  0  0
  9 13  1  0  0  0  0
  9 14  1  1  0  0  0
  9  8  1  0  0  0  0
 10 11  1  0  0  0  0
 11  7  1  1  0  0  0
 12 17  1  6  0  0  0
 12 11  1  0  0  0  0
 13 15  1  6  0  0  0
 13 16  1  0  0  0  0
 15  9  1  0  0  0  0
 16 10  1  0  0  0  0
 18  8  1  0  0  0  0
 19 24  1  0  0  0  0
 19 20  1  0  0  0  0
 21 24  2  0  0  0  0
 22 21  1  0  0  0  0
 23 22  2  0  0  0  0
 23 27  1  0  0  0  0
 24 18  1  0  0  0  0
 25 20  1  0  0  0  0
 26 27  1  0  0  0  0
 26 25  1  0  0  0  0
 27 19  2  0  0  0  0
 28 32  1  1  0  0  0
 28  5  1  0  0  0  0
 28 30  1  0  0  0  0
 30 31  1  6  0  0  0
 30 29  1  0  0  0  0
 32 40  1  6  0  0  0
 33 38  2  0  0  0  0
 34 33  1  0  0  0  0
 35 39  1  0  0  0  0
 35 36  1  0  0  0  0
 36 37  1  0  0  0  0
 37 32  1  6  0  0  0
 37 38  1  0  0  0  0
 39 34  1  0  0  0  0
 41 42  1  0  0  0  0
 42 40  1  0  0  0  0
 43 42  2  0  0  0  0
M  END
>  <MODEL>
5

>  <REMARK>
 VINA RESULT:      -6.5      1.358      2.231
  Name = 
  10 active torsions:
  status: ('A' for Active; 'I' for Inactive)
    1  A    between atoms: O_1  and  C_9
    2  A    between atoms: O_1  and  C_17
    3  A    between atoms: N_3  and  C_30
    4  A    between atoms: C_9  and  C_20
    5  A    between atoms: C_9  and  C_29
    6  A    between atoms: C_10  and  N_13
    7  A    between atoms: N_13  and  C_23
    8  A    between atoms: C_15  and  C_29
    9  A    between atoms: C_28  and  C_30
   10  A    between atoms: C_29  and  C_31
                            x       y       z     vdW  Elec       q    Type
                         _______ _______ _______ _____ _____    ______ ____

>  <TORSDO>
F 10

$$$$
=
 OpenBabel11072410093D

 43 48  0  0  1  0  0  0  0  0999 V2000
  161.1200  211.0590  152.7620 C   0  0  0  0  0  0  0  0  0  0  0  0
  159.6010  212.6720  151.7680 C   0  0  0  0  0  3  0  0  0  0  0  0
  160.6650  211.7770  151.6420 C   0  0  0  0  0  3  0  0  0  0  0  0
  158.9870  212.8560  153.0110 C   0  0  0  0  0  3  0  0  0  0  0  0
  159.4540  212.1680  154.1450 C   0  0  0  0  0  0  0  0  0  0  0  0
  160.5130  211.2620  154.0050 C   0  0  0  0  0  3  0  0  0  0  0  0
  162.1410  210.0590  152.6430 N   0  0  0  0  0  2  0  0  0  0  0  0
  160.8460  206.8930  150.9990 N   0  0  0  0  0  0  0  0  0  0  0  0
  161.8020  205.9240  151.5720 C   0  0  2  0  0  0  0  0  0  0  0  0
  161.2580  208.0140  153.7520 C   0  0  0  0  0  2  0  0  0  0  0  0
  161.9150  208.6240  152.4920 C   0  0  1  0  0  3  0  0  0  0  0  0
  161.2550  208.3060  151.1360 C   0  0  1  0  0  3  0  0  0  0  0  0
  161.7830  205.8940  153.0950 C   0  0  2  0  0  3  0  0  0  0  0  0
  163.0780  205.8370  151.0410 F   0  0  0  0  0  0  0  0  0  0  0  0
  161.2090  204.7350  152.2890 C   0  0  0  0  0  2  0  0  0  0  0  0
  160.7410  206.7120  153.5650 O   0  0  0  0  0  0  0  0  0  0  0  0
  162.1320  208.6730  150.1220 F   0  0  0  0  0  0  0  0  0  0  0  0
  160.3550  206.5920  149.6400 C   0  0  0  0  0  2  0  0  0  0  0  0
  161.4390  205.1450  147.8660 C   0  0  0  0  0  0  0  0  0  0  0  0
  161.9280  206.5200  146.8440 S   0  0  0  0  0  0  0  0  0  0  0  0
  160.4830  204.0760  149.8090 C   0  0  0  0  0  3  0  0  0  0  0  0
  160.8410  202.8240  149.2880 C   0  0  0  0  0  3  0  0  0  0  0  0
  161.4870  202.7350  148.0480 C   0  0  0  0  0  3  0  0  0  0  0  0
  160.7730  205.2500  149.0980 C   0  0  0  0  0  0  0  0  0  0  0  0
  162.2150  205.3480  145.4690 C   0  0  0  0  0  2  0  0  0  0  0  0
  162.4450  203.9440  146.0330 C   0  0  0  0  0  2  0  0  0  0  0  0
  161.7730  203.9090  147.3500 C   0  0  0  0  0  0  0  0  0  0  0  0
  158.7680  212.2950  155.4840 C   0  0  2  0  0  3  0  0  0  0  0  0
  160.8340  212.3340  156.7450 O   0  0  0  0  0  1  0  0  0  0  0  0
  159.6470  213.0290  156.5090 C   0  0  1  0  0  3  0  0  0  0  0  0
  159.9570  214.4500  156.0740 C   0  0  0  0  0  1  0  0  0  0  0  0
  158.2770  210.9530  156.0540 C   0  0  1  0  0  3  0  0  0  0  0  0
  155.8670  212.2800  154.1290 C   0  0  0  0  0  3  0  0  0  0  0  0
  156.1100  213.5800  154.8340 C   0  0  0  0  0  2  0  0  0  0  0  0
  156.0840  212.9760  157.2560 C   0  0  0  0  0  2  0  0  0  0  0  0
  155.9680  211.4560  157.1750 C   0  0  0  0  0  2  0  0  0  0  0  0
  156.7440  210.8310  156.0060 C   0  0  1  0  0  3  0  0  0  0  0  0
  156.1420  211.0760  154.6480 C   0  0  0  0  0  3  0  0  0  0  0  0
  155.3260  213.6660  156.1320 C   0  0  0  0  0  2  0  0  0  0  0  0
  158.9100  209.8490  155.4160 O   0  0  0  0  0  0  0  0  0  0  0  0
  158.9530  207.5010  156.0070 O   0  0  0  0  0  0  0  0  0  0  0  0
  159.4420  208.7930  156.1610 C   0  0  0  0  0  0  0  0  0  0  0  0
  160.3680  209.0130  156.9830 O   0  0  0  0  0  1  0  0  0  0  0  0
  1  6  1  0  0  0  0
  2  4  2  0  0  0  0
  3  2  1  0  0  0  0
  3  1  2  0  0  0  0
  4  5  1  0  0  0  0
  5 28  1  0  0  0  0
  6  5  2  0  0  0  0
  7  1  1  0  0  0  0
  8 12  1  0  0  0  0
  8  9  1  0  0  0  0
  9 14  1  6  0  0  0
  9 15  1  0  0  0  0
  9 13  1  0  0  0  0
 11  7  1  1  0  0  0
 11 10  1  0  0  0  0
 12 17  1  6  0  0  0
 12 11  1  0  0  0  0
 13 15  1  6  0  0  0
 13 16  1  0  0  0  0
 16 10  1  0  0  0  0
 18  8  1  0  0  0  0
 19 24  1  0  0  0  0
 20 19  1  0  0  0  0
 22 21  1  0  0  0  0
 23 22  2  0  0  0  0
 24 18  1  0  0  0  0
 24 21  2  0  0  0  0
 25 26  1  0  0  0  0
 25 20  1  0  0  0  0
 26 27  1  0  0  0  0
 27 19  2  0  0  0  0
 27 23  1  0  0  0  0
 28 32  1  1  0  0  0
 28 30  1  0  0  0  0
 30 31  1  6  0  0  0
 30 29  1  0  0  0  0
 32 40  1  6  0  0  0
 33 38  2  0  0  0  0
 33 34  1  0  0  0  0
 34 39  1  0  0  0  0
 36 35  1  0  0  0  0
 37 32  1  6  0  0  0
 37 36  1  0  0  0  0
 38 37  1  0  0  0  0
 39 35  1  0  0  0  0
 40 42  1  0  0  0  0
 41 42  2  0  0  0  0
 42 43  1  0  0  0  0
M  END
>  <MODEL>
6

>  <REMARK>
 VINA RESULT:      -6.2      2.058      3.692
  Name = 
  10 active torsions:
  status: ('A' for Active; 'I' for Inactive)
    1  A    between atoms: O_1  and  C_9
    2  A    between atoms: O_1  and  C_17
    3  A    between atoms: N_3  and  C_30
    4  A    between atoms: C_9  and  C_20
    5  A    between atoms: C_9  and  C_29
    6  A    between atoms: C_10  and  N_13
    7  A    between atoms: N_13  and  C_23
    8  A    between atoms: C_15  and  C_29
    9  A    between atoms: C_28  and  C_30
   10  A    between atoms: C_29  and  C_31
                            x       y       z     vdW  Elec       q    Type
                         _______ _______ _______ _____ _____    ______ ____

>  <TORSDO>
F 10

$$$$
=
 OpenBabel11072410093D

 43 48  0  0  1  0  0  0  0  0999 V2000
  161.4670  207.4790  152.1510 C   0  0  0  0  0  0  0  0  0  0  0  0
  161.5250  208.2620  149.8540 C   0  0  0  0  0  3  0  0  0  0  0  0
  161.6670  208.5130  151.2200 C   0  0  0  0  0  3  0  0  0  0  0  0
  161.1840  206.9810  149.4110 C   0  0  0  0  0  3  0  0  0  0  0  0
  160.9490  205.9470  150.3340 C   0  0  0  0  0  0  0  0  0  0  0  0
  161.1070  206.2050  151.7010 C   0  0  0  0  0  3  0  0  0  0  0  0
  161.7040  207.6800  153.5510 N   0  0  0  0  0  2  0  0  0  0  0  0
  159.3690  210.3310  154.9400 N   0  0  0  0  0  0  0  0  0  0  0  0
  160.1450  210.7240  156.1330 C   0  0  2  0  0  0  0  0  0  0  0  0
  162.1850  210.0920  153.9300 C   0  0  0  0  0  2  0  0  0  0  0  0
  161.3270  208.8650  154.3170 C   0  0  1  0  0  3  0  0  0  0  0  0
  159.7980  209.0560  154.3280 C   0  0  1  0  0  3  0  0  0  0  0  0
  161.5420  211.2300  155.7990 C   0  0  2  0  0  3  0  0  0  0  0  0
  160.1130  209.9160  157.2590 F   0  0  0  0  0  0  0  0  0  0  0  0
  160.4620  212.1930  156.2780 C   0  0  0  0  0  2  0  0  0  0  0  0
  161.6820  211.3250  154.4040 O   0  0  0  0  0  0  0  0  0  0  0  0
  159.2220  207.9700  154.9770 F   0  0  0  0  0  0  0  0  0  0  0  0
  157.9010  210.4140  155.0660 C   0  0  0  0  0  2  0  0  0  0  0  0
  157.7250  212.4440  153.5620 C   0  0  0  0  0  0  0  0  0  0  0  0
  158.9040  211.8390  152.3720 S   0  0  0  0  0  0  0  0  0  0  0  0
  156.3430  212.3420  155.5400 C   0  0  0  0  0  3  0  0  0  0  0  0
  155.8160  213.6050  155.2300 C   0  0  0  0  0  3  0  0  0  0  0  0
  156.2560  214.2900  154.0890 C   0  0  0  0  0  3  0  0  0  0  0  0
  157.3090  211.7520  154.7110 C   0  0  0  0  0  0  0  0  0  0  0  0
  159.0220  213.5310  151.6850 C   0  0  0  0  0  2  0  0  0  0  0  0
  157.7610  214.3180  152.0460 C   0  0  0  0  0  2  0  0  0  0  0  0
  157.2160  213.6930  153.2710 C   0  0  0  0  0  0  0  0  0  0  0  0
  160.6460  204.5390  149.8820 C   0  0  2  0  0  3  0  0  0  0  0  0
  162.4540  204.0830  151.4270 O   0  0  0  0  0  1  0  0  0  0  0  0
  161.4060  203.4950  150.7170 C   0  0  1  0  0  3  0  0  0  0  0  0
  160.4860  202.7550  151.6710 C   0  0  0  0  0  1  0  0  0  0  0  0
  160.8850  204.3070  148.3800 C   0  0  1  0  0  3  0  0  0  0  0  0
  160.2340  205.9620  145.5310 C   0  0  0  0  0  3  0  0  0  0  0  0
  160.8450  204.8070  144.7970 C   0  0  0  0  0  2  0  0  0  0  0  0
  163.0140  204.4150  145.9710 C   0  0  0  0  0  2  0  0  0  0  0  0
  162.9010  205.4050  147.1270 C   0  0  0  0  0  2  0  0  0  0  0  0
  161.4800  205.5480  147.6930 C   0  0  1  0  0  3  0  0  0  0  0  0
  160.5190  206.2870  146.8000 C   0  0  0  0  0  3  0  0  0  0  0  0
  162.3550  204.9410  144.7040 C   0  0  0  0  0  2  0  0  0  0  0  0
  161.6800  203.1490  148.1480 O   0  0  0  0  0  0  0  0  0  0  0  0
  160.6600  201.7900  146.4220 O   0  0  0  0  0  0  0  0  0  0  0  0
  161.1000  201.9480  147.7310 C   0  0  0  0  0  0  0  0  0  0  0  0
  160.9690  201.0010  148.5490 O   0  0  0  0  0  1  0  0  0  0  0  0
  1  7  1  0  0  0  0
  2  3  1  0  0  0  0
  3  1  2  0  0  0  0
  4  2  2  0  0  0  0
  4  5  1  0  0  0  0
  5  6  2  0  0  0  0
  6  1  1  0  0  0  0
  8 18  1  0  0  0  0
  8  9  1  0  0  0  0
  9 15  1  0  0  0  0
  9 14  1  1  0  0  0
 10 11  1  0  0  0  0
 10 16  1  0  0  0  0
 11  7  1  6  0  0  0
 11 12  1  0  0  0  0
 12  8  1  0  0  0  0
 12 17  1  1  0  0  0
 13  9  1  0  0  0  0
 13 15  1  1  0  0  0
 16 13  1  0  0  0  0
 19 24  1  0  0  0  0
 20 19  1  0  0  0  0
 22 21  1  0  0  0  0
 23 22  2  0  0  0  0
 24 18  1  0  0  0  0
 24 21  2  0  0  0  0
 25 26  1  0  0  0  0
 25 20  1  0  0  0  0
 26 27  1  0  0  0  0
 27 19  2  0  0  0  0
 27 23  1  0  0  0  0
 28 32  1  6  0  0  0
 28  5  1  0  0  0  0
 28 30  1  0  0  0  0
 30 29  1  0  0  0  0
 30 31  1  1  0  0  0
 32 40  1  1  0  0  0
 33 38  2  0  0  0  0
 34 33  1  0  0  0  0
 35 36  1  0  0  0  0
 36 37  1  0  0  0  0
 37 32  1  6  0  0  0
 38 37  1  0  0  0  0
 39 34  1  0  0  0  0
 39 35  1  0  0  0  0
 41 42  2  0  0  0  0
 42 40  1  0  0  0  0
 42 43  1  0  0  0  0
M  END
>  <MODEL>
7

>  <REMARK>
 VINA RESULT:      -5.9      3.202     10.238
  Name = 
  10 active torsions:
  status: ('A' for Active; 'I' for Inactive)
    1  A    between atoms: O_1  and  C_9
    2  A    between atoms: O_1  and  C_17
    3  A    between atoms: N_3  and  C_30
    4  A    between atoms: C_9  and  C_20
    5  A    between atoms: C_9  and  C_29
    6  A    between atoms: C_10  and  N_13
    7  A    between atoms: N_13  and  C_23
    8  A    between atoms: C_15  and  C_29
    9  A    between atoms: C_28  and  C_30
   10  A    between atoms: C_29  and  C_31
                            x       y       z     vdW  Elec       q    Type
                         _______ _______ _______ _____ _____    ______ ____

>  <TORSDO>
F 10

$$$$
=
 OpenBabel11072410093D

 43 48  0  0  1  0  0  0  0  0999 V2000
  161.2610  208.2960  150.9600 C   0  0  0  0  0  0  0  0  0  0  0  0
  162.3350  209.5710  149.1950 C   0  0  0  0  0  3  0  0  0  0  0  0
  161.8380  209.4910  150.4970 C   0  0  0  0  0  3  0  0  0  0  0  0
  162.2580  208.4600  148.3490 C   0  0  0  0  0  3  0  0  0  0  0  0
  161.6540  207.2700  148.7900 C   0  0  0  0  0  0  0  0  0  0  0  0
  161.1700  207.1960  150.1020 C   0  0  0  0  0  3  0  0  0  0  0  0
  160.8340  208.1520  152.3220 N   0  0  0  0  0  2  0  0  0  0  0  0
  160.0260  211.6360  153.5900 N   0  0  0  0  0  0  0  0  0  0  0  0
  159.8410  211.3270  155.0220 C   0  0  2  0  0  0  0  0  0  0  0  0
  162.0810  209.4900  154.0100 C   0  0  0  0  0  2  0  0  0  0  0  0
  160.7300  209.2300  153.3010 C   0  0  1  0  0  3  0  0  0  0  0  0
  160.0070  210.4540  152.7050 C   0  0  1  0  0  3  0  0  0  0  0  0
  161.0710  210.6960  155.6610 C   0  0  2  0  0  3  0  0  0  0  0  0
  158.6530  210.7530  155.4440 F   0  0  0  0  0  0  0  0  0  0  0  0
  160.6710  212.1270  155.9980 C   0  0  0  0  0  2  0  0  0  0  0  0
  162.1310  210.7010  154.7380 O   0  0  0  0  0  0  0  0  0  0  0  0
  158.7050  210.0850  152.3890 F   0  0  0  0  0  0  0  0  0  0  0  0
  159.2010  212.7370  153.0550 C   0  0  0  0  0  2  0  0  0  0  0  0
  158.3540  213.5460  150.8090 C   0  0  0  0  0  0  0  0  0  0  0  0
  156.7440  213.9980  151.4210 S   0  0  0  0  0  0  0  0  0  0  0  0
  160.6270  212.7460  150.9720 C   0  0  0  0  0  3  0  0  0  0  0  0
  160.8010  212.9780  149.5990 C   0  0  0  0  0  3  0  0  0  0  0  0
  159.7420  213.4840  148.8310 C   0  0  0  0  0  3  0  0  0  0  0  0
  159.3980  213.0220  151.5890 C   0  0  0  0  0  0  0  0  0  0  0  0
  156.1490  214.0730  149.6920 C   0  0  0  0  0  2  0  0  0  0  0  0
  157.3370  214.2860  148.7520 C   0  0  0  0  0  2  0  0  0  0  0  0
  158.5250  213.7560  149.4560 C   0  0  0  0  0  0  0  0  0  0  0  0
  161.6180  206.0340  147.9230 C   0  0  2  0  0  3  0  0  0  0  0  0
  159.2610  206.5780  147.8110 O   0  0  0  0  0  1  0  0  0  0  0  0
  160.2960  205.9200  147.1460 C   0  0  1  0  0  3  0  0  0  0  0  0
  160.4240  206.4540  145.7310 C   0  0  0  0  0  1  0  0  0  0  0  0
  161.9070  204.7330  148.6920 C   0  0  1  0  0  3  0  0  0  0  0  0
  161.0210  203.6130  151.7310 C   0  0  0  0  0  3  0  0  0  0  0  0
  161.9170  202.4370  151.4870 C   0  0  0  0  0  2  0  0  0  0  0  0
  161.2600  201.6270  149.2190 C   0  0  0  0  0  2  0  0  0  0  0  0
  160.2610  202.7040  148.8040 C   0  0  0  0  0  2  0  0  0  0  0  0
  160.6280  204.1160  149.2840 C   0  0  1  0  0  3  0  0  0  0  0  0
  160.4540  204.3440  150.7620 C   0  0  0  0  0  3  0  0  0  0  0  0
  161.2040  201.3430  150.7130 C   0  0  0  0  0  2  0  0  0  0  0  0
  162.6170  203.7960  147.8880 O   0  0  0  0  0  0  0  0  0  0  0  0
  161.8250  203.2790  145.6590 O   0  0  0  0  0  0  0  0  0  0  0  0
  162.7010  203.9520  146.5020 C   0  0  0  0  0  0  0  0  0  0  0  0
  163.5810  204.7040  146.0110 O   0  0  0  0  0  1  0  0  0  0  0  0
  1  7  1  0  0  0  0
  2  3  2  0  0  0  0
  3  1  1  0  0  0  0
  4  5  2  0  0  0  0
  4  2  1  0  0  0  0
  5  6  1  0  0  0  0
  6  1  2  0  0  0  0
  8  9  1  0  0  0  0
  9 14  1  1  0  0  0
  9 13  1  0  0  0  0
  9 15  1  0  0  0  0
 10 16  1  0  0  0  0
 11  7  1  6  0  0  0
 11 10  1  0  0  0  0
 12 17  1  1  0  0  0
 12 11  1  0  0  0  0
 12  8  1  0  0  0  0
 13 15  1  1  0  0  0
 16 13  1  0  0  0  0
 18  8  1  0  0  0  0
 19 20  1  0  0  0  0
 19 24  1  0  0  0  0
 21 24  2  0  0  0  0
 22 21  1  0  0  0  0
 23 27  1  0  0  0  0
 23 22  2  0  0  0  0
 24 18  1  0  0  0  0
 25 20  1  0  0  0  0
 26 27  1  0  0  0  0
 26 25  1  0  0  0  0
 27 19  2  0  0  0  0
 28 30  1  1  0  0  0
 28 32  1  0  0  0  0
 28  5  1  0  0  0  0
 30 31  1  6  0  0  0
 30 29  1  0  0  0  0
 32 40  1  6  0  0  0
 34 33  1  0  0  0  0
 35 39  1  0  0  0  0
 36 35  1  0  0  0  0
 36 37  1  0  0  0  0
 37 32  1  1  0  0  0
 37 38  1  0  0  0  0
 38 33  2  0  0  0  0
 39 34  1  0  0  0  0
 41 42  2  0  0  0  0
 42 40  1  0  0  0  0
 43 42  1  0  0  0  0
M  END
>  <MODEL>
8

>  <REMARK>
 VINA RESULT:      -5.7      3.511      9.969
  Name = 
  10 active torsions:
  status: ('A' for Active; 'I' for Inactive)
    1  A    between atoms: O_1  and  C_9
    2  A    between atoms: O_1  and  C_17
    3  A    between atoms: N_3  and  C_30
    4  A    between atoms: C_9  and  C_20
    5  A    between atoms: C_9  and  C_29
    6  A    between atoms: C_10  and  N_13
    7  A    between atoms: N_13  and  C_23
    8  A    between atoms: C_15  and  C_29
    9  A    between atoms: C_28  and  C_30
   10  A    between atoms: C_29  and  C_31
                            x       y       z     vdW  Elec       q    Type
                         _______ _______ _______ _____ _____    ______ ____

>  <TORSDO>
F 10

$$$$
=
 OpenBabel11072410093D

 43 48  0  0  1  0  0  0  0  0999 V2000
  161.6730  207.8270  151.0790 C   0  0  0  0  0  0  0  0  0  0  0  0
  162.1880  209.3840  149.2880 C   0  0  0  0  0  3  0  0  0  0  0  0
  161.9930  209.1260  150.6460 C   0  0  0  0  0  3  0  0  0  0  0  0
  162.0650  208.3490  148.3560 C   0  0  0  0  0  3  0  0  0  0  0  0
  161.7150  207.0530  148.7720 C   0  0  0  0  0  0  0  0  0  0  0  0
  161.5340  206.8010  150.1380 C   0  0  0  0  0  3  0  0  0  0  0  0
  161.5670  207.5100  152.4730 N   0  0  0  0  0  2  0  0  0  0  0  0
  160.0870  209.7770  155.1330 N   0  0  0  0  0  0  0  0  0  0  0  0
  161.2430  209.8460  156.0500 C   0  0  2  0  0  0  0  0  0  0  0  0
  162.3870  209.7420  153.2050 C   0  0  0  0  0  2  0  0  0  0  0  0
  161.5800  208.4740  153.5690 C   0  0  1  0  0  3  0  0  0  0  0  0
  160.1640  208.6870  154.1390 C   0  0  1  0  0  3  0  0  0  0  0  0
  162.5010  210.3930  155.3870 C   0  0  2  0  0  3  0  0  0  0  0  0
  161.4940  208.7860  156.9050 F   0  0  0  0  0  0  0  0  0  0  0  0
  161.7380  211.2270  156.4090 C   0  0  0  0  0  2  0  0  0  0  0  0
  162.1920  210.8290  154.0880 O   0  0  0  0  0  0  0  0  0  0  0  0
  159.7210  207.4850  154.6800 F   0  0  0  0  0  0  0  0  0  0  0  0
  158.7560  209.8550  155.7630 C   0  0  0  0  0  2  0  0  0  0  0  0
  158.0730  212.0800  154.7620 C   0  0  0  0  0  0  0  0  0  0  0  0
  158.4810  211.6130  153.0930 S   0  0  0  0  0  0  0  0  0  0  0  0
  157.7980  211.7430  157.1390 C   0  0  0  0  0  3  0  0  0  0  0  0
  157.3070  213.0510  157.2610 C   0  0  0  0  0  3  0  0  0  0  0  0
  157.2120  213.8760  156.1310 C   0  0  0  0  0  3  0  0  0  0  0  0
  158.1930  211.2460  155.8870 C   0  0  0  0  0  0  0  0  0  0  0  0
  158.4140  213.3800  152.6220 C   0  0  0  0  0  2  0  0  0  0  0  0
  157.5560  214.1450  153.6330 C   0  0  0  0  0  2  0  0  0  0  0  0
  157.6050  213.3720  154.8920 C   0  0  0  0  0  0  0  0  0  0  0  0
  161.6420  205.9020  147.7980 C   0  0  2  0  0  3  0  0  0  0  0  0
  159.3180  206.5790  147.7270 O   0  0  0  0  0  1  0  0  0  0  0  0
  160.3100  205.8870  147.0300 C   0  0  1  0  0  3  0  0  0  0  0  0
  160.4560  206.4590  145.6320 C   0  0  0  0  0  1  0  0  0  0  0  0
  161.9110  204.5310  148.4420 C   0  0  1  0  0  3  0  0  0  0  0  0
  160.8290  203.4560  151.4330 C   0  0  0  0  0  3  0  0  0  0  0  0
  161.7980  202.3210  151.3030 C   0  0  0  0  0  2  0  0  0  0  0  0
  161.3730  201.4120  149.0170 C   0  0  0  0  0  2  0  0  0  0  0  0
  160.3620  202.4250  148.4860 C   0  0  0  0  0  2  0  0  0  0  0  0
  160.6180  203.8670  148.9470 C   0  0  1  0  0  3  0  0  0  0  0  0
  160.3100  204.1290  150.3970 C   0  0  0  0  0  3  0  0  0  0  0  0
  161.2070  201.1700  150.5100 C   0  0  0  0  0  2  0  0  0  0  0  0
  162.6320  203.6720  147.5640 O   0  0  0  0  0  0  0  0  0  0  0  0
  161.6180  203.2380  145.4080 O   0  0  0  0  0  0  0  0  0  0  0  0
  162.5930  203.8580  146.1800 C   0  0  0  0  0  0  0  0  0  0  0  0
  163.4530  204.5900  145.6240 O   0  0  0  0  0  1  0  0  0  0  0  0
  1  7  1  0  0  0  0
  2  3  2  0  0  0  0
  3  1  1  0  0  0  0
  4  5  2  0  0  0  0
  4  2  1  0  0  0  0
  5  6  1  0  0  0  0
  6  1  2  0  0  0  0
  8 18  1  0  0  0  0
  8  9  1  0  0  0  0
  9 15  1  0  0  0  0
  9 14  1  1  0  0  0
 10 11  1  0  0  0  0
 10 16  1  0  0  0  0
 11  7  1  6  0  0  0
 11 12  1  0  0  0  0
 12 17  1  1  0  0  0
 12  8  1  0  0  0  0
 13  9  1  0  0  0  0
 13 15  1  1  0  0  0
 16 13  1  0  0  0  0
 18 24  1  0  0  0  0
 19 27  2  0  0  0  0
 19 24  1  0  0  0  0
 20 19  1  0  0  0  0
 21 22  1  0  0  0  0
 23 22  2  0  0  0  0
 24 21  2  0  0  0  0
 25 20  1  0  0  0  0
 25 26  1  0  0  0  0
 26 27  1  0  0  0  0
 27 23  1  0  0  0  0
 28 30  1  1  0  0  0
 28 32  1  0  0  0  0
 28  5  1  0  0  0  0
 30 31  1  6  0  0  0
 30 29  1  0  0  0  0
 32 40  1  6  0  0  0
 34 33  1  0  0  0  0
 35 39  1  0  0  0  0
 36 37  1  0  0  0  0
 36 35  1  0  0  0  0
 37 32  1  1  0  0  0
 37 38  1  0  0  0  0
 38 33  2  0  0  0  0
 39 34  1  0  0  0  0
 41 42  2  0  0  0  0
 42 40  1  0  0  0  0
 43 42  1  0  0  0  0
M  END
>  <MODEL>
9

>  <REMARK>
 VINA RESULT:      -5.6      3.110     10.550
  Name = 
  10 active torsions:
  status: ('A' for Active; 'I' for Inactive)
    1  A    between atoms: O_1  and  C_9
    2  A    between atoms: O_1  and  C_17
    3  A    between atoms: N_3  and  C_30
    4  A    between atoms: C_9  and  C_20
    5  A    between atoms: C_9  and  C_29
    6  A    between atoms: C_10  and  N_13
    7  A    between atoms: N_13  and  C_23
    8  A    between atoms: C_15  and  C_29
    9  A    between atoms: C_28  and  C_30
   10  A    between atoms: C_29  and  C_31
                            x       y       z     vdW  Elec       q    Type
                         _______ _______ _______ _____ _____    ______ ____

>  <TORSDO>
F 10

$$$$
