=
 OpenBabel11072411513D

 32 36  0  0  1  0  0  0  0  0999 V2000
  161.7000  208.0640  149.5960 C   0  0  0  0  0  0  0  0  0  0  0  0
  161.4450  206.1020  150.5400 C   0  0  0  0  0  0  0  0  0  0  0  0
  161.2880  206.0310  149.1750 C   0  0  0  0  0  0  0  0  0  0  0  0
  160.9790  204.8350  148.5360 C   0  0  0  0  0  0  0  0  0  0  0  0
  161.9360  209.4380  149.5500 C   0  0  0  0  0  0  0  0  0  0  0  0
  161.7140  207.4180  150.8010 C   0  0  0  0  0  0  0  0  0  0  0  0
  161.4440  207.2200  148.6170 O   0  0  0  0  0  0  0  0  0  0  0  0
  162.1840  210.0740  150.7340 N   0  0  0  0  0  0  0  0  0  0  0  0
  160.8610  203.6610  149.3400 C   0  0  0  0  0  0  0  0  0  0  0  0
  161.3060  204.9980  151.3630 C   0  0  0  0  0  3  0  0  0  0  0  0
  161.9520  208.0550  151.9720 N   0  0  0  0  0  0  0  0  0  0  0  0
  162.1910  209.3990  151.9290 C   0  0  0  0  0  3  0  0  0  0  0  0
  161.0140  203.7550  150.7590 C   0  0  0  0  0  0  0  0  0  0  0  0
  160.6760  202.3290  148.7240 C   0  0  0  0  0  0  0  0  0  0  0  0
  159.4590  201.6700  148.8330 O   0  0  0  0  0  1  0  0  0  0  0  0
  161.6090  201.7960  148.0660 O   0  0  0  0  0  0  0  0  0  0  0  0
  162.0020  201.7570  151.8440 C   0  0  0  0  0  1  0  0  0  0  0  0
  160.8980  202.6010  151.5440 O   0  0  0  0  0  0  0  0  0  0  0  0
  160.7400  204.8630  147.1200 N   0  0  0  0  0  2  0  0  0  0  0  0
  163.0810  204.9140  146.5040 C   0  0  0  0  0  1  0  0  0  0  0  0
  161.6970  204.4350  146.1090 C   0  0  2  0  0  3  0  0  0  0  0  0
  161.3140  205.0170  144.7590 C   0  0  0  0  0  2  0  0  0  0  0  0
  160.3630  206.0250  144.9240 O   0  0  0  0  0  1  0  0  0  0  0  0
  161.9300  210.1860  148.3280 N   0  0  0  0  0  2  0  0  0  0  0  0
  160.6930  214.2470  147.9400 C   0  0  0  0  0  2  0  0  0  0  0  0
  161.7360  211.6270  148.2570 C   0  0  2  0  0  3  0  0  0  0  0  0
  162.0460  213.6470  146.2460 C   0  0  0  0  0  2  0  0  0  0  0  0
  160.6830  211.9720  147.1750 C   0  0  0  0  0  2  0  0  0  0  0  0
  162.8480  213.7720  147.5050 C   0  0  2  0  0  3  0  0  0  0  0  0
  163.0780  212.3400  148.0050 C   0  0  0  0  0  2  0  0  0  0  0  0
  160.7230  213.3900  146.7550 N   0  0  1  0  0  0  0  0  0  0  0  0
  162.0150  214.4520  148.4100 O   0  0  0  0  0  0  0  0  0  0  0  0
  1  6  2  0  0  0  0
  2  6  1  0  0  0  0
  2 10  1  0  0  0  0
  3  2  2  0  0  0  0
  4  3  1  0  0  0  0
  4  9  2  0  0  0  0
  5  1  1  0  0  0  0
  5  8  2  0  0  0  0
  6 11  1  0  0  0  0
  7  3  1  0  0  0  0
  7  1  1  0  0  0  0
  8 12  1  0  0  0  0
  9 13  1  0  0  0  0
 12 11  2  0  0  0  0
 13 10  2  0  0  0  0
 13 18  1  0  0  0  0
 14 15  1  0  0  0  0
 14  9  1  0  0  0  0
 16 14  2  0  0  0  0
 18 17  1  0  0  0  0
 19  4  1  0  0  0  0
 21 20  1  1  0  0  0
 21 19  1  0  0  0  0
 22 23  1  0  0  0  0
 22 21  1  0  0  0  0
 24  5  1  0  0  0  0
 25 32  1  0  0  0  0
 26 24  1  6  0  0  0
 28 26  1  0  0  0  0
 29 27  1  6  0  0  0
 29 30  1  0  0  0  0
 29 32  1  0  0  0  0
 30 26  1  0  0  0  0
 31 27  1  1  0  0  0
 31 28  1  0  0  0  0
 31 25  1  0  0  0  0
M  END
>  <MODEL>
1

>  <REMARK>
 VINA RESULT:      -8.3      0.000      0.000
  Name = 
  7 active torsions:
  status: ('A' for Active; 'I' for Inactive)
    1  A    between atoms: C_1  and  CA_25
    2  A    between atoms: C_3  and  N_29
    3  A    between atoms: C_7  and  N_22
    4  A    between atoms: C_9  and  N_29
    5  A    between atoms: O_15  and  C_30
    6  A    between atoms: C_18  and  C_19
    7  A    between atoms: N_22  and  CA_25
                            x       y       z     vdW  Elec       q    Type
                         _______ _______ _______ _____ _____    ______ ____

>  <TORSDO>
F 7

$$$$
=
 OpenBabel11072411513D

 32 36  0  0  1  0  0  0  0  0999 V2000
  161.2710  207.2330  150.1250 C   0  0  0  0  0  0  0  0  0  0  0  0
  161.6960  206.4840  148.1090 C   0  0  0  0  0  0  0  0  0  0  0  0
  161.1520  205.5050  148.9090 C   0  0  0  0  0  0  0  0  0  0  0  0
  160.9470  204.2110  148.4440 C   0  0  0  0  0  0  0  0  0  0  0  0
  161.2260  208.1730  151.1550 C   0  0  0  0  0  0  0  0  0  0  0  0
  161.7650  207.5960  148.9030 C   0  0  0  0  0  0  0  0  0  0  0  0
  160.9000  205.9680  150.1220 O   0  0  0  0  0  0  0  0  0  0  0  0
  161.6770  209.4320  150.8770 N   0  0  0  0  0  0  0  0  0  0  0  0
  161.2880  203.9290  147.0860 C   0  0  0  0  0  0  0  0  0  0  0  0
  162.0730  206.2490  146.7980 C   0  0  0  0  0  3  0  0  0  0  0  0
  162.2180  208.8430  148.6360 N   0  0  0  0  0  0  0  0  0  0  0  0
  162.1680  209.7680  149.6410 C   0  0  0  0  0  3  0  0  0  0  0  0
  161.8640  204.9540  146.2720 C   0  0  0  0  0  0  0  0  0  0  0  0
  160.9690  202.6210  146.4730 C   0  0  0  0  0  0  0  0  0  0  0  0
  160.2280  202.5590  145.3000 O   0  0  0  0  0  0  0  0  0  0  0  0
  161.3970  201.5540  146.9890 O   0  0  0  0  0  1  0  0  0  0  0  0
  161.6220  205.3660  143.8390 C   0  0  0  0  0  1  0  0  0  0  0  0
  162.1970  204.6750  144.9410 O   0  0  0  0  0  0  0  0  0  0  0  0
  160.4620  203.2240  149.3670 N   0  0  0  0  0  2  0  0  0  0  0  0
  161.0220  201.0090  150.1670 C   0  0  0  0  0  1  0  0  0  0  0  0
  161.2930  202.4940  150.3130 C   0  0  2  0  0  3  0  0  0  0  0  0
  160.9750  202.9410  151.7310 C   0  0  0  0  0  2  0  0  0  0  0  0
  161.8160  203.9910  152.1010 O   0  0  0  0  0  1  0  0  0  0  0  0
  160.7310  207.8670  152.4640 N   0  0  0  0  0  2  0  0  0  0  0  0
  162.0280  209.4010  156.2240 C   0  0  0  0  0  2  0  0  0  0  0  0
  161.0950  208.6040  153.6650 C   0  0  2  0  0  3  0  0  0  0  0  0
  159.7830  209.3330  156.1080 C   0  0  0  0  0  2  0  0  0  0  0  0
  160.9680  207.6940  154.9110 C   0  0  0  0  0  2  0  0  0  0  0  0
  160.2940  210.4290  155.2250 C   0  0  2  0  0  3  0  0  0  0  0  0
  160.2410  209.8810  153.7930 C   0  0  0  0  0  2  0  0  0  0  0  0
  160.9180  208.4490  156.1820 N   0  0  1  0  0  0  0  0  0  0  0  0
  161.6360  210.6140  155.6030 O   0  0  0  0  0  0  0  0  0  0  0  0
  1  5  1  0  0  0  0
  2  6  1  0  0  0  0
  2  3  1  0  0  0  0
  3  7  1  0  0  0  0
  4  3  2  0  0  0  0
  4 19  1  0  0  0  0
  5 24  1  0  0  0  0
  6  1  2  0  0  0  0
  7  1  1  0  0  0  0
  8  5  2  0  0  0  0
  9  4  1  0  0  0  0
 10  2  2  0  0  0  0
 11  6  1  0  0  0  0
 11 12  2  0  0  0  0
 12  8  1  0  0  0  0
 13 10  1  0  0  0  0
 13  9  2  0  0  0  0
 14 16  1  0  0  0  0
 14  9  1  0  0  0  0
 15 14  2  0  0  0  0
 17 18  1  0  0  0  0
 18 13  1  0  0  0  0
 19 21  1  0  0  0  0
 21 20  1  1  0  0  0
 21 22  1  0  0  0  0
 22 23  1  0  0  0  0
 26 24  1  6  0  0  0
 26 30  1  0  0  0  0
 26 28  1  0  0  0  0
 27 31  1  0  0  0  0
 29 30  1  6  0  0  0
 29 32  1  0  0  0  0
 29 27  1  0  0  0  0
 31 28  1  6  0  0  0
 31 25  1  0  0  0  0
 32 25  1  0  0  0  0
M  END
>  <MODEL>
2

>  <REMARK>
 VINA RESULT:      -7.8      2.796      5.782
  Name = 
  7 active torsions:
  status: ('A' for Active; 'I' for Inactive)
    1  A    between atoms: C_1  and  CA_25
    2  A    between atoms: C_3  and  N_29
    3  A    between atoms: C_7  and  N_22
    4  A    between atoms: C_9  and  N_29
    5  A    between atoms: O_15  and  C_30
    6  A    between atoms: C_18  and  C_19
    7  A    between atoms: N_22  and  CA_25
                            x       y       z     vdW  Elec       q    Type
                         _______ _______ _______ _____ _____    ______ ____

>  <TORSDO>
F 7

$$$$
=
 OpenBabel11072411513D

 32 36  0  0  1  0  0  0  0  0999 V2000
  161.2690  206.1920  150.9280 C   0  0  0  0  0  0  0  0  0  0  0  0
  161.1470  206.5790  153.0820 C   0  0  0  0  0  0  0  0  0  0  0  0
  161.3860  207.7340  152.3730 C   0  0  0  0  0  0  0  0  0  0  0  0
  161.5480  208.9610  153.0070 C   0  0  0  0  0  0  0  0  0  0  0  0
  161.2560  205.4200  149.7660 C   0  0  0  0  0  0  0  0  0  0  0  0
  161.0700  205.5900  152.1400 C   0  0  0  0  0  0  0  0  0  0  0  0
  161.4580  207.4890  151.0760 O   0  0  0  0  0  0  0  0  0  0  0  0
  161.0290  204.0800  149.9050 N   0  0  0  0  0  0  0  0  0  0  0  0
  161.4230  208.9980  154.4300 C   0  0  0  0  0  0  0  0  0  0  0  0
  161.0520  206.5600  154.4630 C   0  0  0  0  0  3  0  0  0  0  0  0
  160.8540  204.2610  152.2710 N   0  0  0  0  0  0  0  0  0  0  0  0
  160.8320  203.5030  151.1340 C   0  0  0  0  0  3  0  0  0  0  0  0
  161.1880  207.7860  155.1520 C   0  0  0  0  0  0  0  0  0  0  0  0
  161.4380  210.2810  155.1660 C   0  0  0  0  0  0  0  0  0  0  0  0
  162.6210  210.7590  155.7140 O   0  0  0  0  0  1  0  0  0  0  0  0
  160.3880  210.9690  155.2710 O   0  0  0  0  0  0  0  0  0  0  0  0
  160.1030  207.0590  157.2600 C   0  0  0  0  0  1  0  0  0  0  0  0
  161.0650  207.8250  156.5470 O   0  0  0  0  0  0  0  0  0  0  0  0
  161.8860  210.1030  152.2050 N   0  0  0  0  0  2  0  0  0  0  0  0
  161.7820  211.1700  150.0350 C   0  0  0  0  0  1  0  0  0  0  0  0
  160.9880  210.7430  151.2540 C   0  0  2  0  0  3  0  0  0  0  0  0
  160.3360  211.9550  151.8970 C   0  0  0  0  0  2  0  0  0  0  0  0
  159.0580  211.6260  152.3500 O   0  0  0  0  0  1  0  0  0  0  0  0
  161.4650  205.9760  148.4620 N   0  0  0  0  0  2  0  0  0  0  0  0
  161.1940  203.4430  145.0440 C   0  0  0  0  0  2  0  0  0  0  0  0
  161.1980  205.2630  147.2220 C   0  0  2  0  0  3  0  0  0  0  0  0
  162.1420  205.4140  144.5190 C   0  0  0  0  0  2  0  0  0  0  0  0
  162.4950  204.6000  146.6960 C   0  0  0  0  0  2  0  0  0  0  0  0
  160.6800  205.6160  144.7700 C   0  0  2  0  0  3  0  0  0  0  0  0
  160.5690  206.2090  146.1810 C   0  0  0  0  0  2  0  0  0  0  0  0
  162.4150  204.2150  145.2700 N   0  0  1  0  0  0  0  0  0  0  0  0
  160.1200  204.3260  144.7630 O   0  0  0  0  0  0  0  0  0  0  0  0
  1  7  1  0  0  0  0
  1  6  2  0  0  0  0
  2 10  1  0  0  0  0
  3  4  1  0  0  0  0
  3  2  2  0  0  0  0
  4  9  2  0  0  0  0
  5  8  2  0  0  0  0
  5  1  1  0  0  0  0
  6 11  1  0  0  0  0
  6  2  1  0  0  0  0
  7  3  1  0  0  0  0
  8 12  1  0  0  0  0
  9 13  1  0  0  0  0
  9 14  1  0  0  0  0
 10 13  2  0  0  0  0
 12 11  2  0  0  0  0
 13 18  1  0  0  0  0
 14 16  2  0  0  0  0
 14 15  1  0  0  0  0
 18 17  1  0  0  0  0
 19  4  1  0  0  0  0
 21 20  1  6  0  0  0
 21 22  1  0  0  0  0
 21 19  1  0  0  0  0
 22 23  1  0  0  0  0
 24  5  1  0  0  0  0
 25 31  1  0  0  0  0
 26 24  1  1  0  0  0
 28 26  1  0  0  0  0
 29 27  1  1  0  0  0
 29 30  1  0  0  0  0
 30 26  1  0  0  0  0
 31 27  1  6  0  0  0
 31 28  1  0  0  0  0
 32 29  1  0  0  0  0
 32 25  1  0  0  0  0
M  END
>  <MODEL>
3

>  <REMARK>
 VINA RESULT:      -7.8      3.431      7.483
  Name = 
  7 active torsions:
  status: ('A' for Active; 'I' for Inactive)
    1  A    between atoms: C_1  and  CA_25
    2  A    between atoms: C_3  and  N_29
    3  A    between atoms: C_7  and  N_22
    4  A    between atoms: C_9  and  N_29
    5  A    between atoms: O_15  and  C_30
    6  A    between atoms: C_18  and  C_19
    7  A    between atoms: N_22  and  CA_25
                            x       y       z     vdW  Elec       q    Type
                         _______ _______ _______ _____ _____    ______ ____

>  <TORSDO>
F 7

$$$$
=
 OpenBabel11072411513D

 32 36  0  0  1  0  0  0  0  0999 V2000
  161.9350  208.7480  150.3740 C   0  0  0  0  0  0  0  0  0  0  0  0
  161.6140  207.4970  148.6030 C   0  0  0  0  0  0  0  0  0  0  0  0
  161.6960  206.7410  149.7490 C   0  0  0  0  0  0  0  0  0  0  0  0
  161.6070  205.3530  149.7170 C   0  0  0  0  0  0  0  0  0  0  0  0
  162.1260  209.9350  151.0820 C   0  0  0  0  0  0  0  0  0  0  0  0
  161.7650  208.7920  149.0180 C   0  0  0  0  0  0  0  0  0  0  0  0
  161.8900  207.5050  150.8100 O   0  0  0  0  0  0  0  0  0  0  0  0
  162.1220  211.1000  150.3680 N   0  0  0  0  0  0  0  0  0  0  0  0
  161.3890  204.7290  148.4510 C   0  0  0  0  0  0  0  0  0  0  0  0
  161.4370  206.9350  147.3500 C   0  0  0  0  0  3  0  0  0  0  0  0
  161.7710  209.9490  148.3150 N   0  0  0  0  0  0  0  0  0  0  0  0
  161.9500  211.1140  149.0070 C   0  0  0  0  0  3  0  0  0  0  0  0
  161.3180  205.5290  147.2680 C   0  0  0  0  0  0  0  0  0  0  0  0
  161.1390  203.2740  148.3490 C   0  0  0  0  0  0  0  0  0  0  0  0
  160.0570  202.7020  149.0050 O   0  0  0  0  0  1  0  0  0  0  0  0
  161.8840  202.5470  147.6390 O   0  0  0  0  0  0  0  0  0  0  0  0
  160.5780  205.6050  144.9030 C   0  0  0  0  0  1  0  0  0  0  0  0
  161.1040  204.9140  146.0280 O   0  0  0  0  0  0  0  0  0  0  0  0
  161.7950  204.6300  150.9430 N   0  0  0  0  0  2  0  0  0  0  0  0
  161.2120  205.3160  153.1900 C   0  0  0  0  0  1  0  0  0  0  0  0
  160.7900  204.4940  151.9880 C   0  0  2  0  0  3  0  0  0  0  0  0
  160.6530  203.0330  152.3830 C   0  0  0  0  0  2  0  0  0  0  0  0
  161.6190  202.2680  151.7280 O   0  0  0  0  0  1  0  0  0  0  0  0
  162.3190  209.9700  152.5010 N   0  0  0  0  0  2  0  0  0  0  0  0
  160.3890  212.1460  155.6180 C   0  0  0  0  0  2  0  0  0  0  0  0
  161.4660  210.7100  153.4200 C   0  0  2  0  0  3  0  0  0  0  0  0
  159.6190  210.0350  155.5070 C   0  0  0  0  0  2  0  0  0  0  0  0
  161.8570  210.3940  154.8850 C   0  0  0  0  0  2  0  0  0  0  0  0
  159.1090  210.8140  154.3340 C   0  0  2  0  0  3  0  0  0  0  0  0
  159.9810  210.4060  153.1400 C   0  0  0  0  0  2  0  0  0  0  0  0
  160.8100  210.7660  155.8600 N   0  0  1  0  0  0  0  0  0  0  0  0
  159.3540  212.1630  154.6500 O   0  0  0  0  0  0  0  0  0  0  0  0
  1  7  1  0  0  0  0
  1  5  1  0  0  0  0
  2  6  1  0  0  0  0
  2  3  1  0  0  0  0
  3  7  1  0  0  0  0
  4  3  2  0  0  0  0
  4 19  1  0  0  0  0
  5 24  1  0  0  0  0
  6  1  2  0  0  0  0
  8  5  2  0  0  0  0
  9  4  1  0  0  0  0
 10  2  2  0  0  0  0
 11 12  2  0  0  0  0
 11  6  1  0  0  0  0
 12  8  1  0  0  0  0
 13 10  1  0  0  0  0
 13  9  2  0  0  0  0
 14  9  1  0  0  0  0
 14 15  1  0  0  0  0
 16 14  2  0  0  0  0
 17 18  1  0  0  0  0
 18 13  1  0  0  0  0
 19 21  1  0  0  0  0
 21 22  1  0  0  0  0
 21 20  1  1  0  0  0
 23 22  1  0  0  0  0
 25 31  1  0  0  0  0
 26 24  1  6  0  0  0
 26 28  1  0  0  0  0
 27 31  1  0  0  0  0
 29 30  1  6  0  0  0
 29 32  1  0  0  0  0
 29 27  1  0  0  0  0
 30 26  1  0  0  0  0
 31 28  1  6  0  0  0
 32 25  1  0  0  0  0
M  END
>  <MODEL>
4

>  <REMARK>
 VINA RESULT:      -7.4      2.560      5.435
  Name = 
  7 active torsions:
  status: ('A' for Active; 'I' for Inactive)
    1  A    between atoms: C_1  and  CA_25
    2  A    between atoms: C_3  and  N_29
    3  A    between atoms: C_7  and  N_22
    4  A    between atoms: C_9  and  N_29
    5  A    between atoms: O_15  and  C_30
    6  A    between atoms: C_18  and  C_19
    7  A    between atoms: N_22  and  CA_25
                            x       y       z     vdW  Elec       q    Type
                         _______ _______ _______ _____ _____    ______ ____

>  <TORSDO>
F 7

$$$$
=
 OpenBabel11072411513D

 32 36  0  0  1  0  0  0  0  0999 V2000
  160.9420  208.1990  152.5090 C   0  0  0  0  0  0  0  0  0  0  0  0
  161.0640  206.0110  152.4620 C   0  0  0  0  0  0  0  0  0  0  0  0
  160.8950  206.5360  151.2010 C   0  0  0  0  0  0  0  0  0  0  0  0
  160.7940  205.7230  150.0780 C   0  0  0  0  0  0  0  0  0  0  0  0
  160.9250  209.4650  153.0960 C   0  0  0  0  0  0  0  0  0  0  0  0
  161.0960  207.0930  153.2990 C   0  0  0  0  0  0  0  0  0  0  0  0
  160.8230  207.8560  151.2420 O   0  0  0  0  0  0  0  0  0  0  0  0
  161.0780  209.5320  154.4520 N   0  0  0  0  0  0  0  0  0  0  0  0
  160.9060  204.3120  150.2650 C   0  0  0  0  0  0  0  0  0  0  0  0
  161.1430  204.6490  152.6960 C   0  0  0  0  0  3  0  0  0  0  0  0
  161.2380  207.1660  154.6430 N   0  0  0  0  0  0  0  0  0  0  0  0
  161.2300  208.4050  155.2190 C   0  0  0  0  0  3  0  0  0  0  0  0
  161.0680  203.7810  151.5830 C   0  0  0  0  0  0  0  0  0  0  0  0
  160.9530  203.3890  149.1100 C   0  0  0  0  0  0  0  0  0  0  0  0
  160.0020  202.3860  148.9750 O   0  0  0  0  0  1  0  0  0  0  0  0
  161.8340  203.5260  148.2190 O   0  0  0  0  0  0  0  0  0  0  0  0
  162.4280  201.7240  151.8340 C   0  0  0  0  0  1  0  0  0  0  0  0
  161.1780  202.3970  151.7630 O   0  0  0  0  0  0  0  0  0  0  0  0
  160.5270  206.3430  148.8100 N   0  0  0  0  0  2  0  0  0  0  0  0
  161.9310  208.1700  148.0680 C   0  0  0  0  0  1  0  0  0  0  0  0
  161.5450  206.7210  147.8410 C   0  0  2  0  0  3  0  0  0  0  0  0
  161.0060  206.5430  146.4310 C   0  0  0  0  0  2  0  0  0  0  0  0
  161.9090  205.8100  145.6620 O   0  0  0  0  0  1  0  0  0  0  0  0
  160.7600  210.6700  152.3370 N   0  0  0  0  0  2  0  0  0  0  0  0
  158.2630  213.6120  154.1480 C   0  0  0  0  0  2  0  0  0  0  0  0
  160.0170  211.8300  152.8060 C   0  0  2  0  0  3  0  0  0  0  0  0
  157.5950  213.1640  152.0470 C   0  0  0  0  0  2  0  0  0  0  0  0
  158.5940  211.4100  153.2510 C   0  0  0  0  0  2  0  0  0  0  0  0
  158.8740  213.9430  152.0080 C   0  0  2  0  0  3  0  0  0  0  0  0
  159.9830  212.9230  151.7200 C   0  0  0  0  0  2  0  0  0  0  0  0
  157.6550  212.5480  153.3480 N   0  0  1  0  0  0  0  0  0  0  0  0
  159.0380  214.4520  153.3090 O   0  0  0  0  0  0  0  0  0  0  0  0
  1  5  1  0  0  0  0
  1  6  2  0  0  0  0
  2 10  1  0  0  0  0
  2  6  1  0  0  0  0
  3  7  1  0  0  0  0
  3  2  2  0  0  0  0
  4  9  2  0  0  0  0
  4  3  1  0  0  0  0
  5  8  2  0  0  0  0
  6 11  1  0  0  0  0
  7  1  1  0  0  0  0
  8 12  1  0  0  0  0
  9 13  1  0  0  0  0
 11 12  2  0  0  0  0
 13 18  1  0  0  0  0
 13 10  2  0  0  0  0
 14  9  1  0  0  0  0
 15 14  1  0  0  0  0
 16 14  2  0  0  0  0
 18 17  1  0  0  0  0
 19  4  1  0  0  0  0
 21 20  1  1  0  0  0
 21 19  1  0  0  0  0
 22 21  1  0  0  0  0
 23 22  1  0  0  0  0
 24  5  1  0  0  0  0
 26 24  1  6  0  0  0
 26 28  1  0  0  0  0
 28 31  1  0  0  0  0
 29 30  1  1  0  0  0
 29 27  1  0  0  0  0
 29 32  1  0  0  0  0
 30 26  1  0  0  0  0
 31 27  1  6  0  0  0
 31 25  1  0  0  0  0
 32 25  1  0  0  0  0
M  END
>  <MODEL>
5

>  <REMARK>
 VINA RESULT:      -7.1      2.979      3.785
  Name = 
  7 active torsions:
  status: ('A' for Active; 'I' for Inactive)
    1  A    between atoms: C_1  and  CA_25
    2  A    between atoms: C_3  and  N_29
    3  A    between atoms: C_7  and  N_22
    4  A    between atoms: C_9  and  N_29
    5  A    between atoms: O_15  and  C_30
    6  A    between atoms: C_18  and  C_19
    7  A    between atoms: N_22  and  CA_25
                            x       y       z     vdW  Elec       q    Type
                         _______ _______ _______ _____ _____    ______ ____

>  <TORSDO>
F 7

$$$$
=
 OpenBabel11072411513D

 32 36  0  0  1  0  0  0  0  0999 V2000
  161.4190  204.7310  150.5020 C   0  0  0  0  0  0  0  0  0  0  0  0
  160.9830  205.7910  152.3700 C   0  0  0  0  0  0  0  0  0  0  0  0
  161.4940  206.6380  151.4150 C   0  0  0  0  0  0  0  0  0  0  0  0
  161.7090  207.9880  151.6750 C   0  0  0  0  0  0  0  0  0  0  0  0
  161.5000  203.6330  149.6450 C   0  0  0  0  0  0  0  0  0  0  0  0
  160.9350  204.5620  151.7690 C   0  0  0  0  0  0  0  0  0  0  0  0
  161.7530  205.9890  150.2930 O   0  0  0  0  0  0  0  0  0  0  0  0
  161.0730  202.4280  150.1260 N   0  0  0  0  0  0  0  0  0  0  0  0
  161.3490  208.4840  152.9650 C   0  0  0  0  0  0  0  0  0  0  0  0
  160.6510  206.2190  153.6440 C   0  0  0  0  0  3  0  0  0  0  0  0
  160.5210  203.3640  152.2430 N   0  0  0  0  0  0  0  0  0  0  0  0
  160.5920  202.2880  151.4030 C   0  0  0  0  0  3  0  0  0  0  0  0
  160.8310  207.5860  153.9500 C   0  0  0  0  0  0  0  0  0  0  0  0
  161.4120  209.9290  153.2730 C   0  0  0  0  0  0  0  0  0  0  0  0
  162.4530  210.4370  154.0380 O   0  0  0  0  0  1  0  0  0  0  0  0
  160.5430  210.7180  152.8140 O   0  0  0  0  0  0  0  0  0  0  0  0
  160.4360  207.2570  156.3760 C   0  0  0  0  0  1  0  0  0  0  0  0
  160.4780  208.0760  155.2140 O   0  0  0  0  0  0  0  0  0  0  0  0
  162.3320  208.7860  150.6560 N   0  0  0  0  0  2  0  0  0  0  0  0
  161.9850  208.8230  148.2610 C   0  0  0  0  0  1  0  0  0  0  0  0
  161.6190  209.4660  149.5840 C   0  0  2  0  0  3  0  0  0  0  0  0
  161.9970  210.9380  149.5670 C   0  0  0  0  0  2  0  0  0  0  0  0
  162.3070  211.3370  148.2670 O   0  0  0  0  0  1  0  0  0  0  0  0
  162.0030  203.7280  148.3060 N   0  0  0  0  0  2  0  0  0  0  0  0
  159.6860  204.9270  144.9350 C   0  0  0  0  0  2  0  0  0  0  0  0
  161.2840  204.3620  147.2110 C   0  0  2  0  0  3  0  0  0  0  0  0
  161.8870  205.0860  144.5020 C   0  0  0  0  0  2  0  0  0  0  0  0
  161.2070  203.4030  145.9970 C   0  0  0  0  0  2  0  0  0  0  0  0
  161.4870  206.1710  145.4540 C   0  0  2  0  0  3  0  0  0  0  0  0
  161.9400  205.7070  146.8440 C   0  0  0  0  0  2  0  0  0  0  0  0
  160.8690  204.0920  144.7320 N   0  0  1  0  0  0  0  0  0  0  0  0
  160.0810  206.2030  145.4090 O   0  0  0  0  0  0  0  0  0  0  0  0
  1  6  2  0  0  0  0
  2 10  1  0  0  0  0
  3  4  1  0  0  0  0
  3  2  2  0  0  0  0
  4  9  2  0  0  0  0
  5  8  2  0  0  0  0
  5  1  1  0  0  0  0
  6 11  1  0  0  0  0
  6  2  1  0  0  0  0
  7  1  1  0  0  0  0
  7  3  1  0  0  0  0
  8 12  1  0  0  0  0
  9 14  1  0  0  0  0
  9 13  1  0  0  0  0
 10 13  2  0  0  0  0
 12 11  2  0  0  0  0
 13 18  1  0  0  0  0
 14 15  1  0  0  0  0
 16 14  2  0  0  0  0
 18 17  1  0  0  0  0
 19  4  1  0  0  0  0
 21 20  1  6  0  0  0
 21 19  1  0  0  0  0
 22 21  1  0  0  0  0
 23 22  1  0  0  0  0
 24  5  1  0  0  0  0
 25 32  1  0  0  0  0
 26 24  1  1  0  0  0
 28 26  1  0  0  0  0
 29 27  1  6  0  0  0
 29 30  1  0  0  0  0
 30 26  1  0  0  0  0
 31 27  1  1  0  0  0
 31 25  1  0  0  0  0
 31 28  1  0  0  0  0
 32 29  1  0  0  0  0
M  END
>  <MODEL>
6

>  <REMARK>
 VINA RESULT:      -6.8      2.809      6.853
  Name = 
  7 active torsions:
  status: ('A' for Active; 'I' for Inactive)
    1  A    between atoms: C_1  and  CA_25
    2  A    between atoms: C_3  and  N_29
    3  A    between atoms: C_7  and  N_22
    4  A    between atoms: C_9  and  N_29
    5  A    between atoms: O_15  and  C_30
    6  A    between atoms: C_18  and  C_19
    7  A    between atoms: N_22  and  CA_25
                            x       y       z     vdW  Elec       q    Type
                         _______ _______ _______ _____ _____    ______ ____

>  <TORSDO>
F 7

$$$$
=
 OpenBabel11072411513D

 32 36  0  0  1  0  0  0  0  0999 V2000
  160.8730  207.5010  152.5620 C   0  0  0  0  0  0  0  0  0  0  0  0
  161.1860  205.3720  152.1450 C   0  0  0  0  0  0  0  0  0  0  0  0
  160.9140  206.0780  150.9960 C   0  0  0  0  0  0  0  0  0  0  0  0
  160.8330  205.4530  149.7560 C   0  0  0  0  0  0  0  0  0  0  0  0
  160.7710  208.6470  153.3520 C   0  0  0  0  0  0  0  0  0  0  0  0
  161.1610  206.3010  153.1500 C   0  0  0  0  0  0  0  0  0  0  0  0
  160.7270  207.3600  151.2590 O   0  0  0  0  0  0  0  0  0  0  0  0
  160.9800  208.5050  154.6940 N   0  0  0  0  0  0  0  0  0  0  0  0
  161.0780  204.0470  149.7010 C   0  0  0  0  0  0  0  0  0  0  0  0
  161.3960  204.0030  152.1460 C   0  0  0  0  0  3  0  0  0  0  0  0
  161.3580  206.1650  154.4820 N   0  0  0  0  0  0  0  0  0  0  0  0
  161.2670  207.2870  155.2570 C   0  0  0  0  0  3  0  0  0  0  0  0
  161.3470  203.3260  150.9070 C   0  0  0  0  0  0  0  0  0  0  0  0
  161.1540  203.3340  148.4070 C   0  0  0  0  0  0  0  0  0  0  0  0
  162.2310  203.5420  147.5550 O   0  0  0  0  0  0  0  0  0  0  0  0
  160.2610  202.5060  148.0820 O   0  0  0  0  0  1  0  0  0  0  0  0
  160.5450  200.9830  150.8000 C   0  0  0  0  0  1  0  0  0  0  0  0
  161.5880  201.9480  150.8490 O   0  0  0  0  0  0  0  0  0  0  0  0
  160.4540  206.2440  148.6190 N   0  0  0  0  0  2  0  0  0  0  0  0
  161.7010  208.1980  147.9230 C   0  0  0  0  0  1  0  0  0  0  0  0
  161.3790  206.7490  147.6150 C   0  0  2  0  0  3  0  0  0  0  0  0
  160.7500  206.6400  146.2350 C   0  0  0  0  0  2  0  0  0  0  0  0
  161.5910  205.9250  145.3810 O   0  0  0  0  0  1  0  0  0  0  0  0
  160.4650  209.9380  152.8100 N   0  0  0  0  0  2  0  0  0  0  0  0
  157.2910  212.5250  153.9920 C   0  0  0  0  0  2  0  0  0  0  0  0
  159.5180  210.8670  153.4090 C   0  0  2  0  0  3  0  0  0  0  0  0
  159.0920  213.7020  153.3360 C   0  0  0  0  0  2  0  0  0  0  0  0
  158.7370  211.6200  152.3040 C   0  0  0  0  0  2  0  0  0  0  0  0
  159.3700  213.0600  154.6620 C   0  0  2  0  0  3  0  0  0  0  0  0
  160.2420  211.8330  154.3650 C   0  0  0  0  0  2  0  0  0  0  0  0
  158.0680  212.8440  152.7950 N   0  0  1  0  0  0  0  0  0  0  0  0
  158.1170  212.6360  155.1380 O   0  0  0  0  0  0  0  0  0  0  0  0
  1  6  2  0  0  0  0
  1  5  1  0  0  0  0
  2 10  1  0  0  0  0
  2  6  1  0  0  0  0
  3  7  1  0  0  0  0
  3  2  2  0  0  0  0
  4  3  1  0  0  0  0
  5  8  2  0  0  0  0
  6 11  1  0  0  0  0
  7  1  1  0  0  0  0
  8 12  1  0  0  0  0
  9  4  2  0  0  0  0
  9 13  1  0  0  0  0
 11 12  2  0  0  0  0
 13 10  2  0  0  0  0
 14  9  1  0  0  0  0
 15 14  2  0  0  0  0
 16 14  1  0  0  0  0
 17 18  1  0  0  0  0
 18 13  1  0  0  0  0
 19  4  1  0  0  0  0
 21 20  1  1  0  0  0
 21 19  1  0  0  0  0
 22 21  1  0  0  0  0
 23 22  1  0  0  0  0
 24  5  1  0  0  0  0
 25 32  1  0  0  0  0
 26 24  1  6  0  0  0
 26 30  1  0  0  0  0
 28 26  1  0  0  0  0
 29 27  1  6  0  0  0
 29 32  1  0  0  0  0
 30 29  1  0  0  0  0
 31 28  1  1  0  0  0
 31 27  1  0  0  0  0
 31 25  1  0  0  0  0
M  END
>  <MODEL>
7

>  <REMARK>
 VINA RESULT:      -6.5      3.253      4.213
  Name = 
  7 active torsions:
  status: ('A' for Active; 'I' for Inactive)
    1  A    between atoms: C_1  and  CA_25
    2  A    between atoms: C_3  and  N_29
    3  A    between atoms: C_7  and  N_22
    4  A    between atoms: C_9  and  N_29
    5  A    between atoms: O_15  and  C_30
    6  A    between atoms: C_18  and  C_19
    7  A    between atoms: N_22  and  CA_25
                            x       y       z     vdW  Elec       q    Type
                         _______ _______ _______ _____ _____    ______ ____

>  <TORSDO>
F 7

$$$$
=
 OpenBabel11072411513D

 32 36  0  0  1  0  0  0  0  0999 V2000
  161.1090  208.3700  153.0370 C   0  0  0  0  0  0  0  0  0  0  0  0
  161.0820  206.2820  152.3690 C   0  0  0  0  0  0  0  0  0  0  0  0
  161.0420  207.1550  151.3060 C   0  0  0  0  0  0  0  0  0  0  0  0
  160.9650  206.7030  149.9920 C   0  0  0  0  0  0  0  0  0  0  0  0
  161.1380  209.4160  153.9600 C   0  0  0  0  0  0  0  0  0  0  0  0
  161.1290  207.0780  153.4820 C   0  0  0  0  0  0  0  0  0  0  0  0
  161.0580  208.4110  151.7200 O   0  0  0  0  0  0  0  0  0  0  0  0
  161.1970  209.0840  155.2840 N   0  0  0  0  0  0  0  0  0  0  0  0
  160.9650  205.2920  149.7720 C   0  0  0  0  0  0  0  0  0  0  0  0
  161.0490  204.9080  152.2060 C   0  0  0  0  0  3  0  0  0  0  0  0
  161.1780  206.7550  154.7950 N   0  0  0  0  0  0  0  0  0  0  0  0
  161.2150  207.7770  155.7010 C   0  0  0  0  0  3  0  0  0  0  0  0
  160.9940  204.4000  150.8890 C   0  0  0  0  0  0  0  0  0  0  0  0
  161.0310  204.7320  148.4040 C   0  0  0  0  0  0  0  0  0  0  0  0
  161.6450  203.5070  148.1780 O   0  0  0  0  0  1  0  0  0  0  0  0
  160.5010  205.3430  147.4380 O   0  0  0  0  0  0  0  0  0  0  0  0
  161.5060  202.0840  151.6130 C   0  0  0  0  0  1  0  0  0  0  0  0
  160.9950  203.0170  150.6690 O   0  0  0  0  0  0  0  0  0  0  0  0
  160.8340  207.6760  148.9450 N   0  0  0  0  0  2  0  0  0  0  0  0
  163.1700  207.4850  148.3430 C   0  0  0  0  0  1  0  0  0  0  0  0
  161.9460  208.3780  148.3200 C   0  0  2  0  0  3  0  0  0  0  0  0
  162.2300  209.6660  149.0760 C   0  0  0  0  0  2  0  0  0  0  0  0
  161.9720  210.7670  148.2590 O   0  0  0  0  0  1  0  0  0  0  0  0
  161.1120  210.7950  153.5720 N   0  0  0  0  0  2  0  0  0  0  0  0
  158.3680  213.7720  154.9050 C   0  0  0  0  0  2  0  0  0  0  0  0
  160.0180  211.7050  153.8760 C   0  0  2  0  0  3  0  0  0  0  0  0
  157.8420  211.7530  155.7430 C   0  0  0  0  0  2  0  0  0  0  0  0
  160.1170  212.1880  155.3450 C   0  0  0  0  0  2  0  0  0  0  0  0
  157.5210  211.7840  154.2800 C   0  0  2  0  0  3  0  0  0  0  0  0
  158.6620  211.0360  153.5790 C   0  0  0  0  0  2  0  0  0  0  0  0
  158.8560  212.7710  155.8520 N   0  0  1  0  0  0  0  0  0  0  0  0
  157.5650  213.1430  153.9200 O   0  0  0  0  0  0  0  0  0  0  0  0
  1  6  2  0  0  0  0
  1  5  1  0  0  0  0
  2  6  1  0  0  0  0
  3  7  1  0  0  0  0
  3  2  2  0  0  0  0
  4  3  1  0  0  0  0
  5  8  2  0  0  0  0
  6 11  1  0  0  0  0
  7  1  1  0  0  0  0
  8 12  1  0  0  0  0
  9  4  2  0  0  0  0
  9 13  1  0  0  0  0
 10  2  1  0  0  0  0
 11 12  2  0  0  0  0
 13 10  2  0  0  0  0
 14  9  1  0  0  0  0
 15 14  1  0  0  0  0
 16 14  2  0  0  0  0
 18 13  1  0  0  0  0
 18 17  1  0  0  0  0
 19  4  1  0  0  0  0
 21 20  1  1  0  0  0
 21 19  1  0  0  0  0
 21 22  1  0  0  0  0
 23 22  1  0  0  0  0
 24  5  1  0  0  0  0
 26 24  1  1  0  0  0
 26 28  1  0  0  0  0
 27 31  1  0  0  0  0
 28 31  1  0  0  0  0
 29 30  1  6  0  0  0
 29 27  1  0  0  0  0
 30 26  1  0  0  0  0
 31 25  1  6  0  0  0
 32 29  1  0  0  0  0
 32 25  1  0  0  0  0
M  END
>  <MODEL>
8

>  <REMARK>
 VINA RESULT:      -6.1      3.483      5.108
  Name = 
  7 active torsions:
  status: ('A' for Active; 'I' for Inactive)
    1  A    between atoms: C_1  and  CA_25
    2  A    between atoms: C_3  and  N_29
    3  A    between atoms: C_7  and  N_22
    4  A    between atoms: C_9  and  N_29
    5  A    between atoms: O_15  and  C_30
    6  A    between atoms: C_18  and  C_19
    7  A    between atoms: N_22  and  CA_25
                            x       y       z     vdW  Elec       q    Type
                         _______ _______ _______ _____ _____    ______ ____

>  <TORSDO>
F 7

$$$$
=
 OpenBabel11072411513D

 32 36  0  0  1  0  0  0  0  0999 V2000
  161.2270  207.4130  152.4000 C   0  0  0  0  0  0  0  0  0  0  0  0
  161.2330  205.8590  150.8540 C   0  0  0  0  0  0  0  0  0  0  0  0
  161.2730  207.1200  150.3050 C   0  0  0  0  0  0  0  0  0  0  0  0
  161.2860  207.3170  148.9280 C   0  0  0  0  0  0  0  0  0  0  0  0
  161.1980  207.9240  153.6980 C   0  0  0  0  0  0  0  0  0  0  0  0
  161.2070  206.0600  152.2070 C   0  0  0  0  0  0  0  0  0  0  0  0
  161.2690  208.0490  151.2460 O   0  0  0  0  0  0  0  0  0  0  0  0
  161.1620  207.0250  154.7260 N   0  0  0  0  0  0  0  0  0  0  0  0
  161.2920  206.1610  148.0890 C   0  0  0  0  0  0  0  0  0  0  0  0
  161.2030  204.7110  150.0810 C   0  0  0  0  0  3  0  0  0  0  0  0
  161.1630  205.1740  153.2300 N   0  0  0  0  0  0  0  0  0  0  0  0
  161.1420  205.6710  154.5030 C   0  0  0  0  0  3  0  0  0  0  0  0
  161.2380  204.8580  148.6760 C   0  0  0  0  0  0  0  0  0  0  0  0
  161.4510  206.2810  146.6230 C   0  0  0  0  0  0  0  0  0  0  0  0
  160.3480  206.5360  145.8190 O   0  0  0  0  0  0  0  0  0  0  0  0
  162.5910  206.1900  146.0950 O   0  0  0  0  0  1  0  0  0  0  0  0
  161.1980  202.4000  148.3590 C   0  0  0  0  0  1  0  0  0  0  0  0
  161.2450  203.7270  147.8510 O   0  0  0  0  0  0  0  0  0  0  0  0
  161.2350  208.6640  148.4330 N   0  0  0  0  0  2  0  0  0  0  0  0
  162.3230  209.9800  150.1480 C   0  0  0  0  0  1  0  0  0  0  0  0
  162.2580  209.6730  148.6650 C   0  0  2  0  0  3  0  0  0  0  0  0
  161.9220  210.9350  147.8890 C   0  0  0  0  0  2  0  0  0  0  0  0
  162.0760  212.0550  148.7060 O   0  0  0  0  0  1  0  0  0  0  0  0
  161.2080  209.3290  153.9800 N   0  0  0  0  0  2  0  0  0  0  0  0
  157.8380  211.9380  154.0120 C   0  0  0  0  0  2  0  0  0  0  0  0
  160.0090  210.1210  154.2070 C   0  0  2  0  0  3  0  0  0  0  0  0
  159.4060  212.6230  155.4710 C   0  0  0  0  0  2  0  0  0  0  0  0
  160.1520  211.5110  153.5400 C   0  0  0  0  0  2  0  0  0  0  0  0
  158.7430  211.3860  155.9960 C   0  0  2  0  0  3  0  0  0  0  0  0
  159.7140  210.2320  155.7160 C   0  0  0  0  0  2  0  0  0  0  0  0
  159.1850  212.5060  154.0520 N   0  0  1  0  0  0  0  0  0  0  0  0
  157.5880  211.2240  155.2110 O   0  0  0  0  0  0  0  0  0  0  0  0
  1  5  1  0  0  0  0
  2  6  1  0  0  0  0
  3  2  1  0  0  0  0
  3  7  1  0  0  0  0
  4  3  2  0  0  0  0
  5 24  1  0  0  0  0
  5  8  2  0  0  0  0
  6  1  2  0  0  0  0
  6 11  1  0  0  0  0
  7  1  1  0  0  0  0
  9 13  2  0  0  0  0
  9  4  1  0  0  0  0
 10  2  2  0  0  0  0
 11 12  2  0  0  0  0
 12  8  1  0  0  0  0
 13 10  1  0  0  0  0
 14  9  1  0  0  0  0
 15 14  2  0  0  0  0
 16 14  1  0  0  0  0
 18 17  1  0  0  0  0
 18 13  1  0  0  0  0
 19 21  1  0  0  0  0
 19  4  1  0  0  0  0
 21 20  1  1  0  0  0
 22 21  1  0  0  0  0
 22 23  1  0  0  0  0
 25 31  1  0  0  0  0
 25 32  1  0  0  0  0
 26 24  1  1  0  0  0
 26 30  1  0  0  0  0
 28 26  1  0  0  0  0
 29 27  1  6  0  0  0
 30 29  1  0  0  0  0
 31 28  1  1  0  0  0
 31 27  1  0  0  0  0
 32 29  1  0  0  0  0
M  END
>  <MODEL>
9

>  <REMARK>
 VINA RESULT:      -5.8      3.172      5.533
  Name = 
  7 active torsions:
  status: ('A' for Active; 'I' for Inactive)
    1  A    between atoms: C_1  and  CA_25
    2  A    between atoms: C_3  and  N_29
    3  A    between atoms: C_7  and  N_22
    4  A    between atoms: C_9  and  N_29
    5  A    between atoms: O_15  and  C_30
    6  A    between atoms: C_18  and  C_19
    7  A    between atoms: N_22  and  CA_25
                            x       y       z     vdW  Elec       q    Type
                         _______ _______ _______ _____ _____    ______ ____

>  <TORSDO>
F 7

$$$$
