=
 OpenBabel11072412423D

 66 74  0  0  1  0  0  0  0  0999 V2000
  164.1420  207.9390  148.1200 C   0  0  0  0  0  2  0  0  0  0  0  0
  159.2390  203.0360  144.9280 O   0  0  0  0  0  0  0  0  0  0  0  0
  160.5610  203.4360  150.3330 C   0  0  1  0  0  3  0  0  0  0  0  0
  159.9610  204.2840  146.8070 C   0  0  1  0  0  3  0  0  0  0  0  0
  158.0350  205.0700  145.4110 C   0  0  0  0  0  2  0  0  0  0  0  0
  163.5600  205.4150  145.6890 C   0  0  0  0  0  2  0  0  0  0  0  0
  161.3240  204.9830  146.8690 C   0  0  1  0  0  3  0  0  0  0  0  0
  162.3730  207.2530  153.3490 C   0  0  0  0  0  0  0  0  0  0  0  0
  162.6460  209.8610  149.8650 C   0  0  0  0  0  2  0  0  0  0  0  0
  160.5300  209.4050  154.3250 C   0  0  0  0  0  2  0  0  0  0  0  0
  159.6530  202.1470  145.8900 N   0  0  0  0  0  0  0  0  0  0  0  0
  161.4120  209.8880  152.0350 C   0  0  0  0  0  2  0  0  0  0  0  0
  163.9790  210.1820  149.2070 C   0  0  0  0  0  2  0  0  0  0  0  0
  161.0760  206.9100  152.9460 O   0  0  0  0  0  0  0  0  0  0  0  0
  158.7060  213.5020  148.9380 C   0  0  0  0  0  0  0  0  0  0  0  0
  161.7960  209.6880  153.5070 C   0  0  2  0  0  0  0  0  0  0  0  0
  159.3650  204.3480  145.4170 C   0  0  0  0  0  0  0  0  0  0  0  0
  161.8040  204.9910  148.1970 O   0  0  0  0  0  0  0  0  0  0  0  0
  158.7440  205.8750  151.3380 C   0  0  0  0  0  2  0  0  0  0  0  0
  159.6710  202.5600  149.4360 C   0  0  1  0  0  3  0  0  0  0  0  0
  160.7010  213.8750  150.2590 C   0  0  0  0  0  2  0  0  0  0  0  0
  162.9330  205.8340  148.3570 C   0  0  0  0  0  2  0  0  0  0  0  0
  162.4980  202.1580  149.5900 C   0  0  0  0  0  3  0  0  0  0  0  0
  162.7080  208.5880  153.6120 O   0  0  0  0  0  0  0  0  0  0  0  0
  159.9260  203.7670  151.5340 O   0  0  0  0  0  0  0  0  0  0  0  0
  163.2430  206.3560  153.5140 O   0  0  0  0  0  0  0  0  0  0  0  0
  161.8900  202.7940  150.5860 C   0  0  0  0  0  3  0  0  0  0  0  0
  160.6030  205.5710  152.9950 C   0  0  2  0  0  3  0  0  0  0  0  0
  159.8830  211.5320  150.1140 C   0  0  0  0  0  2  0  0  0  0  0  0
  164.0990  209.4450  147.8780 C   0  0  0  0  0  2  0  0  0  0  0  0
  156.3260  212.0960  152.5800 C   0  0  0  0  0  2  0  0  0  0  0  0
  162.3490  204.4820  145.8330 C   0  0  0  0  0  2  0  0  0  0  0  0
  160.4340  202.0560  148.1970 C   0  0  1  0  0  3  0  0  0  0  0  0
  163.2380  206.8800  146.0320 C   0  0  0  0  0  2  0  0  0  0  0  0
  159.6860  214.2780  149.2930 N   0  0  0  0  0  0  0  0  0  0  0  0
  162.5000  210.5650  151.1990 C   0  0  2  0  0  3  0  0  0  0  0  0
  158.4750  209.9970  154.9050 C   0  0  1  0  0  3  0  0  0  0  0  0
  160.0430  205.1580  151.6480 C   0  0  1  0  0  0  0  0  0  0  0  0
  162.9640  207.1430  147.5380 C   0  0  2  0  0  0  0  0  0  0  0  0
  157.4420  211.9200  150.4120 C   0  0  0  0  0  3  0  0  0  0  0  0
  158.3970  210.5720  156.3130 C   0  0  0  0  0  1  0  0  0  0  0  0
  158.6020  212.0870  149.4740 C   0  0  1  0  0  3  0  0  0  0  0  0
  156.7700  211.7630  153.9990 C   0  0  0  0  0  2  0  0  0  0  0  0
  162.1920  212.0630  151.0420 C   0  0  0  0  0  2  0  0  0  0  0  0
  157.5030  212.3040  151.6890 C   0  0  0  0  0  3  0  0  0  0  0  0
  160.0470  202.7830  146.9490 C   0  0  0  0  0  0  0  0  0  0  0  0
  156.5940  209.4320  153.6100 O   0  0  0  0  0  0  0  0  0  0  0  0
  159.1710  205.5510  144.5210 C   0  0  0  0  0  2  0  0  0  0  0  0
  161.8580  201.9990  148.3560 O   0  0  0  0  0  0  0  0  0  0  0  0
  161.1140  212.4340  150.0130 C   0  0  2  0  0  3  0  0  0  0  0  0
  159.1050  205.5740  152.7750 C   0  0  2  0  0  3  0  0  0  0  0  0
  157.2390  210.3380  154.1270 C   0  0  0  0  0  0  0  0  0  0  0  0
  159.6170  210.4670  154.2490 O   0  0  0  0  0  0  0  0  0  0  0  0
  160.9230  207.7830  148.8570 C   0  0  0  0  0  2  0  0  0  0  0  0
  161.6360  207.8470  147.7310 C   0  0  0  0  0  3  0  0  0  0  0  0
  157.7710  213.9910  148.0200 O   0  0  0  0  0  0  0  0  0  0  0  0
  157.2310  213.1950  146.9760 C   0  0  0  0  0  1  0  0  0  0  0  0
  162.4670  210.9440  154.0670 C   0  0  0  0  0  2  0  0  0  0  0  0
  163.4770  210.6150  155.0130 O   0  0  0  0  0  0  0  0  0  0  0  0
  163.2810  210.7790  156.3830 C   0  0  0  0  0  0  0  0  0  0  0  0
  164.1280  211.4150  157.0570 O   0  0  0  0  0  0  0  0  0  0  0  0
  162.1030  210.1790  157.0800 C   0  0  0  0  0  2  0  0  0  0  0  0
  162.3060  208.8100  157.2540 O   0  0  0  0  0  1  0  0  0  0  0  0
  159.0860  201.3650  150.1810 C   0  0  0  0  0  2  0  0  0  0  0  0
  157.1470  201.2080  148.8010 O   0  0  0  0  0  1  0  0  0  0  0  0
  158.2650  200.5020  149.2450 C   0  0  0  0  0  2  0  0  0  0  0  0
  2 17  1  0  0  0  0
  2 11  1  0  0  0  0
  3 27  1  1  0  0  0
  3 25  1  0  0  0  0
  4  7  1  0  0  0  0
  4 46  1  6  0  0  0
  5 17  1  0  0  0  0
  6 32  1  0  0  0  0
  6 34  1  0  0  0  0
  7 32  1  6  0  0  0
  7 18  1  0  0  0  0
  8 26  2  0  0  0  0
  8 24  1  0  0  0  0
 11 46  2  0  0  0  0
 12 16  1  0  0  0  0
 13  9  1  0  0  0  0
 14  8  1  0  0  0  0
 15 35  2  0  0  0  0
 15 42  1  0  0  0  0
 16 24  1  0  0  0  0
 16 58  1  1  0  0  0
 16 10  1  0  0  0  0
 17  4  1  0  0  0  0
 18 22  1  0  0  0  0
 20 64  1  1  0  0  0
 20  3  1  0  0  0  0
 23 27  2  0  0  0  0
 25 38  1  0  0  0  0
 28 14  1  6  0  0  0
 30  1  1  0  0  0  0
 30 13  1  0  0  0  0
 31 43  1  0  0  0  0
 33 46  1  6  0  0  0
 33 49  1  0  0  0  0
 33 20  1  0  0  0  0
 34 39  1  0  0  0  0
 35 21  1  0  0  0  0
 36  9  1  6  0  0  0
 36 12  1  0  0  0  0
 37 41  1  1  0  0  0
 38 19  1  6  0  0  0
 38 51  1  0  0  0  0
 38 28  1  0  0  0  0
 39 55  1  1  0  0  0
 39  1  1  0  0  0  0
 39 22  1  0  0  0  0
 40 45  2  0  0  0  0
 42 29  1  1  0  0  0
 42 40  1  0  0  0  0
 43 52  1  0  0  0  0
 44 36  1  0  0  0  0
 45 31  1  0  0  0  0
 47 52  2  0  0  0  0
 48  5  1  0  0  0  0
 48 17  1  0  0  0  0
 49 23  1  0  0  0  0
 50 29  1  1  0  0  0
 50 21  1  0  0  0  0
 50 44  1  0  0  0  0
 51 19  1  6  0  0  0
 51 28  1  0  0  0  0
 52 37  1  0  0  0  0
 53 10  1  0  0  0  0
 53 37  1  0  0  0  0
 55 54  2  0  0  0  0
 56 15  1  0  0  0  0
 57 56  1  0  0  0  0
 58 59  1  0  0  0  0
 59 60  1  0  0  0  0
 60 61  2  0  0  0  0
 60 62  1  0  0  0  0
 62 63  1  0  0  0  0
 65 66  1  0  0  0  0
 66 64  1  0  0  0  0
M  END
>  <MODEL>
1

>  <REMARK>
 VINA RESULT:      54.1      0.000      0.000
  Name = 
  8 active torsions:
  status: ('A' for Active; 'I' for Inactive)
    1  A    between atoms: C_15  and  O_39
    2  A    between atoms: C_16  and  C_48
    3  A    between atoms: C_18  and  C_20
    4  A    between atoms: C_20  and  O_63
    5  A    between atoms: C_22  and  C_51
    6  A    between atoms: C_44  and  C_46
    7  A    between atoms: C_45  and  C_51
    8  A    between atoms: C_48  and  O_63
                            x       y       z     vdW  Elec       q    Type
                         _______ _______ _______ _____ _____    ______ ____

>  <TORSDO>
F 8

$$$$
=
 OpenBabel11072412423D

 66 74  0  0  1  0  0  0  0  0999 V2000
  163.8510  208.9740  149.9190 C   0  0  0  0  0  2  0  0  0  0  0  0
  160.3110  203.3870  146.1060 O   0  0  0  0  0  0  0  0  0  0  0  0
  160.8180  203.8900  151.6390 C   0  0  1  0  0  3  0  0  0  0  0  0
  160.5570  204.6990  148.0630 C   0  0  1  0  0  3  0  0  0  0  0  0
  158.7280  205.1810  146.4190 C   0  0  0  0  0  2  0  0  0  0  0  0
  164.0300  206.4390  147.4370 C   0  0  0  0  0  2  0  0  0  0  0  0
  161.7620  205.6140  148.3070 C   0  0  1  0  0  3  0  0  0  0  0  0
  161.5440  207.8930  154.8640 C   0  0  0  0  0  0  0  0  0  0  0  0
  161.8350  210.5820  151.4430 C   0  0  0  0  0  2  0  0  0  0  0  0
  159.2520  209.6870  155.5790 C   0  0  0  0  0  2  0  0  0  0  0  0
  160.7380  202.5600  147.1170 N   0  0  0  0  0  0  0  0  0  0  0  0
  160.3370  210.3570  153.4280 C   0  0  0  0  0  2  0  0  0  0  0  0
  163.1690  211.1350  150.9690 C   0  0  0  0  0  2  0  0  0  0  0  0
  160.3890  207.3470  154.2910 O   0  0  0  0  0  0  0  0  0  0  0  0
  157.4960  213.5310  149.9890 C   0  0  0  0  0  0  0  0  0  0  0  0
  160.5500  210.1940  154.9390 C   0  0  2  0  0  0  0  0  0  0  0  0
  160.1480  204.6920  146.6050 C   0  0  0  0  0  0  0  0  0  0  0  0
  162.0540  205.6760  149.6870 O   0  0  0  0  0  0  0  0  0  0  0  0
  158.4980  205.9700  152.3860 C   0  0  0  0  0  2  0  0  0  0  0  0
  160.2140  202.8970  150.6330 C   0  0  1  0  0  3  0  0  0  0  0  0
  159.2070  214.2050  151.5650 C   0  0  0  0  0  2  0  0  0  0  0  0
  162.9930  206.6910  149.9960 C   0  0  0  0  0  2  0  0  0  0  0  0
  163.0230  202.9690  151.1650 C   0  0  0  0  0  3  0  0  0  0  0  0
  161.6120  209.2590  155.1670 O   0  0  0  0  0  0  0  0  0  0  0  0
  159.9820  204.0850  152.7440 O   0  0  0  0  0  0  0  0  0  0  0  0
  162.5230  207.1510  155.1460 O   0  0  0  0  0  0  0  0  0  0  0  0
  162.1900  203.4740  152.0700 C   0  0  0  0  0  3  0  0  0  0  0  0
  160.1460  205.9470  154.2790 C   0  0  2  0  0  3  0  0  0  0  0  0
  158.8210  211.7620  151.3160 C   0  0  0  0  0  2  0  0  0  0  0  0
  163.5880  210.4560  149.6710 C   0  0  0  0  0  2  0  0  0  0  0  0
  154.9250  211.6720  153.2800 C   0  0  0  0  0  2  0  0  0  0  0  0
  162.9850  205.3140  147.4180 C   0  0  0  0  0  2  0  0  0  0  0  0
  161.2090  202.5530  149.5080 C   0  0  1  0  0  3  0  0  0  0  0  0
  163.4230  207.8220  147.7310 C   0  0  0  0  0  2  0  0  0  0  0  0
  158.2750  214.4530  150.4710 N   0  0  0  0  0  0  0  0  0  0  0  0
  161.3960  211.2240  152.7440 C   0  0  2  0  0  3  0  0  0  0  0  0
  157.0680  209.9150  155.8770 C   0  0  1  0  0  3  0  0  0  0  0  0
  159.8470  205.4740  152.8700 C   0  0  1  0  0  0  0  0  0  0  0  0
  162.9120  208.0040  149.1850 C   0  0  2  0  0  0  0  0  0  0  0  0
  156.3320  211.7300  151.2830 C   0  0  0  0  0  3  0  0  0  0  0  0
  156.7080  210.4390  157.2600 C   0  0  0  0  0  1  0  0  0  0  0  0
  157.5610  212.1080  150.5080 C   0  0  1  0  0  3  0  0  0  0  0  0
  155.2260  211.3890  154.7470 C   0  0  0  0  0  2  0  0  0  0  0  0
  160.8640  212.6520  152.5450 C   0  0  0  0  0  2  0  0  0  0  0  0
  156.1580  212.0930  152.5560 C   0  0  0  0  0  3  0  0  0  0  0  0
  160.8750  203.2310  148.2180 C   0  0  0  0  0  0  0  0  0  0  0  0
  155.4980  209.0700  154.3420 O   0  0  0  0  0  0  0  0  0  0  0  0
  159.8750  205.8640  145.6900 C   0  0  0  0  0  2  0  0  0  0  0  0
  162.5880  202.7310  149.8580 O   0  0  0  0  0  0  0  0  0  0  0  0
  159.8850  212.8590  151.3790 C   0  0  2  0  0  3  0  0  0  0  0  0
  158.7110  205.7040  153.8590 C   0  0  2  0  0  3  0  0  0  0  0  0
  155.9070  210.0600  154.9390 C   0  0  0  0  0  0  0  0  0  0  0  0
  158.1920  210.5820  155.3790 O   0  0  0  0  0  0  0  0  0  0  0  0
  160.6440  208.2930  150.2290 C   0  0  0  0  0  2  0  0  0  0  0  0
  161.4700  208.4720  149.1970 C   0  0  0  0  0  3  0  0  0  0  0  0
  156.6230  213.8760  148.9520 O   0  0  0  0  0  0  0  0  0  0  0  0
  157.0730  214.3700  147.7000 C   0  0  0  0  0  1  0  0  0  0  0  0
  160.9190  211.5320  155.5820 C   0  0  0  0  0  2  0  0  0  0  0  0
  159.7670  212.2080  156.0700 O   0  0  0  0  0  0  0  0  0  0  0  0
  159.7430  213.5920  156.2320 C   0  0  0  0  0  0  0  0  0  0  0  0
  160.5160  214.1310  157.0640 O   0  0  0  0  0  0  0  0  0  0  0  0
  158.7890  214.4520  155.4680 C   0  0  0  0  0  2  0  0  0  0  0  0
  157.4780  214.1040  155.7920 O   0  0  0  0  0  1  0  0  0  0  0  0
  159.7460  201.6060  151.2950 C   0  0  0  0  0  2  0  0  0  0  0  0
  158.2120  200.9620  149.5850 O   0  0  0  0  0  1  0  0  0  0  0  0
  159.3750  200.5730  150.2490 C   0  0  0  0  0  2  0  0  0  0  0  0
  2 17  1  0  0  0  0
  2 11  1  0  0  0  0
  3 27  1  1  0  0  0
  3 25  1  0  0  0  0
  4 46  1  6  0  0  0
  4  7  1  0  0  0  0
  5 17  1  0  0  0  0
  6 34  1  0  0  0  0
  7 32  1  6  0  0  0
  7 18  1  0  0  0  0
  8 26  2  0  0  0  0
  8 24  1  0  0  0  0
 11 46  2  0  0  0  0
 12 16  1  0  0  0  0
 13  9  1  0  0  0  0
 14  8  1  0  0  0  0
 15 35  2  0  0  0  0
 15 42  1  0  0  0  0
 16 24  1  0  0  0  0
 16 10  1  0  0  0  0
 16 58  1  1  0  0  0
 17  4  1  0  0  0  0
 18 22  1  0  0  0  0
 20 64  1  1  0  0  0
 20  3  1  0  0  0  0
 23 27  2  0  0  0  0
 25 38  1  0  0  0  0
 28 14  1  6  0  0  0
 30  1  1  0  0  0  0
 30 13  1  0  0  0  0
 31 43  1  0  0  0  0
 32  6  1  0  0  0  0
 33 46  1  6  0  0  0
 33 49  1  0  0  0  0
 33 20  1  0  0  0  0
 34 39  1  0  0  0  0
 35 21  1  0  0  0  0
 36  9  1  6  0  0  0
 36 12  1  0  0  0  0
 37 41  1  1  0  0  0
 38 19  1  6  0  0  0
 38 51  1  0  0  0  0
 38 28  1  0  0  0  0
 39 55  1  6  0  0  0
 39  1  1  0  0  0  0
 39 22  1  0  0  0  0
 40 45  2  0  0  0  0
 42 40  1  1  0  0  0
 42 29  1  0  0  0  0
 43 52  1  0  0  0  0
 44 36  1  0  0  0  0
 45 31  1  0  0  0  0
 47 52  2  0  0  0  0
 48  5  1  0  0  0  0
 48 17  1  0  0  0  0
 49 23  1  0  0  0  0
 50 29  1  1  0  0  0
 50 21  1  0  0  0  0
 50 44  1  0  0  0  0
 51 19  1  6  0  0  0
 51 28  1  0  0  0  0
 52 37  1  0  0  0  0
 53 10  1  0  0  0  0
 53 37  1  0  0  0  0
 55 54  2  0  0  0  0
 56 15  1  0  0  0  0
 57 56  1  0  0  0  0
 58 59  1  0  0  0  0
 59 60  1  0  0  0  0
 60 61  2  0  0  0  0
 62 63  1  0  0  0  0
 62 60  1  0  0  0  0
 65 66  1  0  0  0  0
 66 64  1  0  0  0  0
M  END
>  <MODEL>
2

>  <REMARK>
 VINA RESULT:      54.6      1.729      2.201
  Name = 
  8 active torsions:
  status: ('A' for Active; 'I' for Inactive)
    1  A    between atoms: C_15  and  O_39
    2  A    between atoms: C_16  and  C_48
    3  A    between atoms: C_18  and  C_20
    4  A    between atoms: C_20  and  O_63
    5  A    between atoms: C_22  and  C_51
    6  A    between atoms: C_44  and  C_46
    7  A    between atoms: C_45  and  C_51
    8  A    between atoms: C_48  and  O_63
                            x       y       z     vdW  Elec       q    Type
                         _______ _______ _______ _____ _____    ______ ____

>  <TORSDO>
F 8

$$$$
