=
 OpenBabel11072410013D

 55 59  0  0  1  0  0  0  0  0999 V2000
  159.4140  206.5870  149.7850 C   0  0  0  0  0  2  0  0  0  0  0  0
  162.9240  209.7670  149.1290 C   0  0  0  0  0  0  0  0  0  0  0  0
  160.5530  207.1110  150.2310 C   0  0  0  0  0  0  0  0  0  0  0  0
  158.3970  212.1940  151.9510 O   0  0  0  0  0  1  0  0  0  0  0  0
  159.6110  211.2810  154.4080 C   0  0  0  0  0  2  0  0  0  0  0  0
  162.2900  211.0450  149.3320 N   0  0  0  0  0  0  0  0  0  0  0  0
  161.1610  214.4530  150.4050 O   0  0  0  0  0  0  0  0  0  0  0  0
  161.2780  206.4050  151.3600 C   0  0  2  0  0  3  0  0  0  0  0  0
  160.3610  213.3880  149.6820 P   0  0  2  0  0  0  0  0  0  0  0  0
  161.7920  211.3120  150.6810 C   0  0  0  0  0  2  0  0  0  0  0  0
  159.9680  210.2560  155.4930 C   0  0  2  0  0  3  0  0  0  0  0  0
  162.6060  210.4620  155.6400 C   0  0  0  0  0  3  0  0  0  0  0  0
  160.9140  208.4220  155.4480 C   0  0  1  0  0  0  0  0  0  0  0  0
  164.1170  209.7110  148.7260 O   0  0  0  0  0  0  0  0  0  0  0  0
  161.4990  207.6200  154.3070 C   0  0  0  0  0  3  0  0  0  0  0  0
  158.5300  208.4240  156.4120 C   0  0  0  0  0  1  0  0  0  0  0  0
  160.8950  208.5080  149.8020 C   0  0  0  0  0  2  0  0  0  0  0  0
  160.3570  211.8430  150.6450 C   0  0  1  0  0  3  0  0  0  0  0  0
  161.7480  208.1220  153.0950 C   0  0  0  0  0  3  0  0  0  0  0  0
  161.1470  207.7590  156.6560 O   0  0  0  0  0  1  0  0  0  0  0  0
  160.1150  210.9400  153.0110 C   0  0  0  0  0  2  0  0  0  0  0  0
  158.9290  208.6020  154.0400 F   0  0  0  0  0  0  0  0  0  0  0  0
  162.2580  208.5720  149.4040 O   0  0  0  0  0  0  0  0  0  0  0  0
  159.7820  212.0720  152.0450 C   0  0  2  0  0  3  0  0  0  0  0  0
  161.4350  209.8520  155.5330 C   0  0  0  0  0  0  0  0  0  0  0  0
  163.7790  209.7250  155.6640 O   0  0  0  0  0  1  0  0  0  0  0  0
  162.3500  207.2520  152.0430 C   0  0  0  0  0  2  0  0  0  0  0  0
  162.5170  212.2030  148.4370 C   0  0  2  0  0  3  0  0  0  0  0  0
  161.2100  212.9380  148.1440 C   0  0  0  0  0  2  0  0  0  0  0  0
  159.4700  208.8510  155.2930 C   0  0  1  0  0  0  0  0  0  0  0  0
  158.4780  214.0680  147.7670 C   0  0  0  0  0  2  0  0  0  0  0  0
  157.3140  213.1940  147.2840 C   0  0  2  0  0  3  0  0  0  0  0  0
  156.8330  213.6110  145.9720 N   0  0  0  0  0  0  0  0  0  0  0  0
  156.2060  213.5020  149.6280 C   0  0  0  0  0  2  0  0  0  0  0  0
  157.6370  213.1710  150.0580 C   0  0  0  0  0  2  0  0  0  0  0  0
  154.7650  214.4530  144.9830 C   0  0  0  0  0  1  0  0  0  0  0  0
  155.6020  213.9810  146.1200 C   0  0  0  0  0  0  0  0  0  0  0  0
  155.1300  213.9380  147.4600 N   0  0  0  0  0  0  0  0  0  0  0  0
  158.6900  214.0100  149.2990 C   0  0  1  0  0  3  0  0  0  0  0  0
  156.1280  213.4760  148.1360 C   0  0  0  0  0  0  0  0  0  0  0  0
  160.3150  203.7370  152.0470 O   0  0  0  0  0  0  0  0  0  0  0  0
  161.2660  203.8430  151.2320 C   0  0  0  0  0  0  0  0  0  0  0  0
  161.8350  205.1200  150.9350 N   0  0  0  0  0  2  0  0  0  0  0  0
  161.8210  202.6190  150.5920 C   0  0  0  0  0  2  0  0  0  0  0  0
  160.8560  202.0300  149.5760 C   0  0  0  0  0  2  0  0  0  0  0  0
  161.5530  200.1820  148.0430 C   0  0  0  0  0  1  0  0  0  0  0  0
  161.5330  201.6780  148.2500 C   0  0  1  0  0  3  0  0  0  0  0  0
  160.6400  202.4510  146.8730 S   0  0  0  0  0  0  0  0  0  0  0  0
  162.3590  203.9650  145.2940 C   0  0  0  0  0  1  0  0  0  0  0  0
  161.8490  203.8140  146.7250 C   0  0  1  0  0  3  0  0  0  0  0  0
  162.2260  206.3180  147.0140 C   0  0  0  0  0  1  0  0  0  0  0  0
  161.2800  205.1350  147.2440 C   0  0  0  0  0  2  0  0  0  0  0  0
  162.4740  211.8390  146.0620 O   0  0  0  0  0  0  0  0  0  0  0  0
  164.4950  211.4870  147.0880 O   0  0  0  0  0  1  0  0  0  0  0  0
  163.1510  211.8340  147.1260 C   0  0  0  0  0  0  0  0  0  0  0  0
  1  3  2  0  0  0  0
  2  6  1  0  0  0  0
  2 23  1  0  0  0  0
  3  8  1  0  0  0  0
  6 10  1  0  0  0  0
  8 43  1  6  0  0  0
  8 27  1  0  0  0  0
  9  7  2  1  0  0  0
  9 18  1  0  0  0  0
 11  5  1  6  0  0  0
 11 25  1  0  0  0  0
 12 26  1  0  0  0  0
 13 25  1  0  0  0  0
 13 20  1  1  0  0  0
 14  2  2  0  0  0  0
 15 13  1  0  0  0  0
 17  3  1  0  0  0  0
 18 10  1  1  0  0  0
 18 24  1  0  0  0  0
 19 15  2  0  0  0  0
 21  5  1  0  0  0  0
 22 30  1  0  0  0  0
 23 17  1  0  0  0  0
 24  4  1  6  0  0  0
 24 21  1  0  0  0  0
 25 12  2  0  0  0  0
 27 19  1  0  0  0  0
 28 55  1  6  0  0  0
 28  6  1  0  0  0  0
 29 28  1  0  0  0  0
 29  9  1  0  0  0  0
 30 13  1  0  0  0  0
 30 11  1  0  0  0  0
 30 16  1  1  0  0  0
 32 31  1  1  0  0  0
 32 40  1  0  0  0  0
 33 37  2  0  0  0  0
 33 32  1  0  0  0  0
 34 35  1  0  0  0  0
 36 37  1  0  0  0  0
 37 38  1  0  0  0  0
 38 40  2  0  0  0  0
 39 31  1  6  0  0  0
 39  9  1  0  0  0  0
 39 35  1  0  0  0  0
 40 34  1  0  0  0  0
 42 41  2  0  0  0  0
 43 42  1  0  0  0  0
 44 42  1  0  0  0  0
 45 44  1  0  0  0  0
 47 46  1  6  0  0  0
 47 45  1  0  0  0  0
 48 47  1  0  0  0  0
 50 49  1  6  0  0  0
 50 48  1  0  0  0  0
 50 52  1  0  0  0  0
 51 52  1  0  0  0  0
 53 55  2  0  0  0  0
 54 55  1  0  0  0  0
M  END
>  <MODEL>
1

>  <REMARK>
 VINA RESULT:       8.2      0.000      0.000
  Name = 
  9 active torsions:
  status: ('A' for Active; 'I' for Inactive)
    1  A    between atoms: C_14  and  C_24
    2  A    between atoms: C_16  and  N_33
    3  A    between atoms: P_17  and  C_46
    4  A    between atoms: C_19  and  C_55
    5  A    between atoms: C_20  and  C_24
    6  A    between atoms: C_20  and  C_30
    7  A    between atoms: S_21  and  C_30
    8  A    between atoms: S_21  and  C_55
    9  A    between atoms: C_40  and  C_52
                            x       y       z     vdW  Elec       q    Type
                         _______ _______ _______ _____ _____    ______ ____

>  <TORSDO>
F 9

$$$$
=
 OpenBabel11072410013D

 55 59  0  0  1  0  0  0  0  0999 V2000
  159.4690  206.5580  149.9110 C   0  0  0  0  0  2  0  0  0  0  0  0
  162.9900  209.7270  149.2650 C   0  0  0  0  0  0  0  0  0  0  0  0
  160.5910  207.0990  150.3760 C   0  0  0  0  0  0  0  0  0  0  0  0
  158.3690  212.2270  151.8620 O   0  0  0  0  0  1  0  0  0  0  0  0
  159.5050  211.3980  154.3850 C   0  0  0  0  0  2  0  0  0  0  0  0
  162.3460  211.0080  149.4070 N   0  0  0  0  0  0  0  0  0  0  0  0
  161.1750  214.4450  150.3330 O   0  0  0  0  0  0  0  0  0  0  0  0
  161.2820  206.4330  151.5500 C   0  0  2  0  0  3  0  0  0  0  0  0
  160.4010  213.3550  149.6200 P   0  0  2  0  0  0  0  0  0  0  0  0
  161.8050  211.3160  150.7300 C   0  0  0  0  0  2  0  0  0  0  0  0
  159.8310  210.4100  155.5130 C   0  0  2  0  0  3  0  0  0  0  0  0
  162.4620  210.6300  155.7370 C   0  0  0  0  0  3  0  0  0  0  0  0
  160.7820  208.5790  155.5580 C   0  0  1  0  0  0  0  0  0  0  0  0
  164.1950  209.6620  148.9030 O   0  0  0  0  0  0  0  0  0  0  0  0
  161.4050  207.7420  154.4620 C   0  0  0  0  0  3  0  0  0  0  0  0
  158.3680  208.6030  156.4440 C   0  0  0  0  0  1  0  0  0  0  0  0
  160.9430  208.4830  149.9140 C   0  0  0  0  0  2  0  0  0  0  0  0
  160.3710  211.8420  150.6320 C   0  0  1  0  0  3  0  0  0  0  0  0
  161.6910  208.2060  153.2430 C   0  0  0  0  0  3  0  0  0  0  0  0
  160.9780  207.9550  156.7930 O   0  0  0  0  0  1  0  0  0  0  0  0
  160.0550  211.0140  153.0160 C   0  0  0  0  0  2  0  0  0  0  0  0
  158.8430  208.7050  154.0820 F   0  0  0  0  0  0  0  0  0  0  0  0
  162.3180  208.5390  149.5570 O   0  0  0  0  0  0  0  0  0  0  0  0
  159.7500  212.1130  152.0040 C   0  0  2  0  0  3  0  0  0  0  0  0
  161.2970  210.0120  155.6130 C   0  0  0  0  0  0  0  0  0  0  0  0
  163.6350  209.8980  155.8220 O   0  0  0  0  0  1  0  0  0  0  0  0
  162.3300  207.3040  152.2400 C   0  0  0  0  0  2  0  0  0  0  0  0
  162.5990  212.1380  148.4830 C   0  0  2  0  0  3  0  0  0  0  0  0
  161.3000  212.8580  148.1240 C   0  0  0  0  0  2  0  0  0  0  0  0
  159.3420  208.9970  155.3420 C   0  0  1  0  0  0  0  0  0  0  0  0
  158.6110  214.0550  147.6240 C   0  0  0  0  0  2  0  0  0  0  0  0
  157.4910  213.1740  147.0570 C   0  0  2  0  0  3  0  0  0  0  0  0
  157.0730  213.6190  145.7320 N   0  0  0  0  0  0  0  0  0  0  0  0
  156.2540  213.3980  149.3450 C   0  0  0  0  0  2  0  0  0  0  0  0
  157.6660  213.0810  149.8430 C   0  0  0  0  0  2  0  0  0  0  0  0
  155.0460  214.4520  144.6560 C   0  0  0  0  0  1  0  0  0  0  0  0
  155.8290  213.9640  145.8230 C   0  0  0  0  0  0  0  0  0  0  0  0
  155.2870  213.8760  147.1340 N   0  0  0  0  0  0  0  0  0  0  0  0
  158.7420  213.9580  149.1640 C   0  0  1  0  0  3  0  0  0  0  0  0
  156.2560  213.4120  147.8500 C   0  0  0  0  0  0  0  0  0  0  0  0
  160.6130  203.8170  152.6590 O   0  0  0  0  0  0  0  0  0  0  0  0
  161.4240  203.8750  151.7010 C   0  0  0  0  0  0  0  0  0  0  0  0
  161.8550  205.1370  151.1840 N   0  0  0  0  0  2  0  0  0  0  0  0
  161.9590  202.6150  151.1180 C   0  0  0  0  0  2  0  0  0  0  0  0
  160.9160  201.8960  150.2790 C   0  0  0  0  0  2  0  0  0  0  0  0
  161.9090  200.3960  148.5440 C   0  0  0  0  0  1  0  0  0  0  0  0
  161.3240  201.7630  148.8100 C   0  0  1  0  0  3  0  0  0  0  0  0
  159.8800  202.0050  147.7410 S   0  0  0  0  0  0  0  0  0  0  0  0
  162.0900  203.6340  147.2920 C   0  0  0  0  0  1  0  0  0  0  0  0
  160.7280  203.2560  146.7130 C   0  0  1  0  0  3  0  0  0  0  0  0
  160.1820  201.4520  144.9980 C   0  0  0  0  0  1  0  0  0  0  0  0
  160.8610  202.8000  145.2590 C   0  0  0  0  0  2  0  0  0  0  0  0
  164.3890  211.1380  147.2300 O   0  0  0  0  0  1  0  0  0  0  0  0
  162.6670  212.0080  145.9880 O   0  0  0  0  0  0  0  0  0  0  0  0
  163.2750  211.7300  147.2060 C   0  0  0  0  0  0  0  0  0  0  0  0
  1  3  2  0  0  0  0
  2  6  1  0  0  0  0
  2 23  1  0  0  0  0
  3  8  1  0  0  0  0
  6 10  1  0  0  0  0
  8 43  1  6  0  0  0
  8 27  1  0  0  0  0
  9  7  2  1  0  0  0
  9 18  1  0  0  0  0
 11  5  1  6  0  0  0
 11 25  1  0  0  0  0
 12 26  1  0  0  0  0
 13 25  1  0  0  0  0
 13 20  1  1  0  0  0
 14  2  2  0  0  0  0
 15 13  1  0  0  0  0
 17  3  1  0  0  0  0
 18 10  1  1  0  0  0
 18 24  1  0  0  0  0
 19 15  2  0  0  0  0
 21  5  1  0  0  0  0
 22 30  1  0  0  0  0
 23 17  1  0  0  0  0
 24  4  1  6  0  0  0
 24 21  1  0  0  0  0
 25 12  2  0  0  0  0
 27 19  1  0  0  0  0
 28 55  1  6  0  0  0
 28  6  1  0  0  0  0
 29 28  1  0  0  0  0
 29  9  1  0  0  0  0
 30 11  1  0  0  0  0
 30 13  1  0  0  0  0
 30 16  1  1  0  0  0
 32 31  1  1  0  0  0
 32 40  1  0  0  0  0
 33 37  2  0  0  0  0
 33 32  1  0  0  0  0
 34 35  1  0  0  0  0
 36 37  1  0  0  0  0
 37 38  1  0  0  0  0
 38 40  2  0  0  0  0
 39 31  1  6  0  0  0
 39  9  1  0  0  0  0
 39 35  1  0  0  0  0
 40 34  1  0  0  0  0
 42 41  2  0  0  0  0
 43 42  1  0  0  0  0
 44 42  1  0  0  0  0
 45 44  1  0  0  0  0
 47 46  1  1  0  0  0
 47 45  1  0  0  0  0
 48 47  1  0  0  0  0
 50 49  1  1  0  0  0
 50 48  1  0  0  0  0
 51 52  1  0  0  0  0
 52 50  1  0  0  0  0
 54 55  2  0  0  0  0
 55 53  1  0  0  0  0
M  END
>  <MODEL>
2

>  <REMARK>
 VINA RESULT:       9.2      0.643      1.074
  Name = 
  9 active torsions:
  status: ('A' for Active; 'I' for Inactive)
    1  A    between atoms: C_14  and  C_24
    2  A    between atoms: C_16  and  N_33
    3  A    between atoms: P_17  and  C_46
    4  A    between atoms: C_19  and  C_55
    5  A    between atoms: C_20  and  C_24
    6  A    between atoms: C_20  and  C_30
    7  A    between atoms: S_21  and  C_30
    8  A    between atoms: S_21  and  C_55
    9  A    between atoms: C_40  and  C_52
                            x       y       z     vdW  Elec       q    Type
                         _______ _______ _______ _____ _____    ______ ____

>  <TORSDO>
F 9

$$$$
