=
 OpenBabel11072415153D

 40 41  0  0  1  0  0  0  0  0999 V2000
  162.4020  204.9920  151.5370 O   0  0  0  0  0  0  0  0  0  0  0  0
  161.4420  204.4490  152.0680 C   0  0  0  0  0  0  0  0  0  0  0  0
  161.8940  202.0520  151.4900 C   0  0  0  0  0  1  0  0  0  0  0  0
  160.8810  203.1950  151.4590 C   0  0  2  0  0  3  0  0  0  0  0  0
  160.4390  203.4960  150.0350 C   0  0  0  0  0  2  0  0  0  0  0  0
  161.4760  203.0620  149.0110 C   0  0  0  0  0  2  0  0  0  0  0  0
  160.7940  202.3990  147.8200 C   0  0  2  0  0  3  0  0  0  0  0  0
  161.4130  201.1000  147.6060 N   0  0  0  0  0  1  0  0  0  0  0  0
  160.8900  203.2520  146.5410 C   0  0  1  0  0  3  0  0  0  0  0  0
  162.0860  204.2130  146.6120 C   0  0  1  0  0  3  0  0  0  0  0  0
  163.1260  203.8250  145.7590 O   0  0  0  0  0  1  0  0  0  0  0  0
  161.7010  205.6880  146.4270 C   0  0  1  0  0  3  0  0  0  0  0  0
  160.1940  205.8440  145.4170 S   0  0  0  0  0  1  0  0  0  0  0  0
  160.3060  207.0520  149.6770 C   0  0  0  0  0  3  0  0  0  0  0  0
  160.4450  206.3260  148.4880 C   0  0  0  0  0  3  0  0  0  0  0  0
  162.4660  208.0800  149.3040 C   0  0  0  0  0  3  0  0  0  0  0  0
  161.5900  206.4770  147.7010 C   0  0  0  0  0  0  0  0  0  0  0  0
  161.3130  207.9320  150.0820 C   0  0  0  0  0  0  0  0  0  0  0  0
  162.6070  207.3530  148.1160 C   0  0  0  0  0  3  0  0  0  0  0  0
  161.1750  208.6550  151.2590 O   0  0  0  0  0  1  0  0  0  0  0  0
  159.6820  202.0510  144.8600 O   0  0  0  0  0  1  0  0  0  0  0  0
  160.9710  202.3770  145.2910 C   0  0  0  0  0  2  0  0  0  0  0  0
  160.8840  205.0180  153.3440 C   0  0  0  0  0  2  0  0  0  0  0  0
  161.5970  206.2980  153.7510 C   0  0  0  0  0  2  0  0  0  0  0  0
  161.1030  208.0170  155.4410 C   0  0  1  0  0  3  0  0  0  0  0  0
  160.6600  207.2370  154.4430 C   0  0  0  0  0  2  0  0  0  0  0  0
  161.0370  208.6920  154.6630 C   0  0  0  0  0  1  0  0  0  0  0  0
  160.6240  209.1290  155.9710 O   0  0  0  0  0  0  0  0  0  0  0  0
  160.5670  210.5230  155.8920 C   0  0  0  0  0  2  0  0  0  0  0  0
  159.2840  211.0110  156.5340 C   0  0  0  0  0  2  0  0  0  0  0  0
  158.4120  213.0970  155.3580 N   0  0  0  0  0  2  0  0  0  0  0  0
  159.1850  212.4940  156.4020 C   0  0  0  0  0  0  0  0  0  0  0  0
  159.7760  213.2290  157.2370 O   0  0  0  0  0  0  0  0  0  0  0  0
  157.6540  212.3210  154.3820 C   0  0  2  0  0  3  0  0  0  0  0  0
  159.5260  212.7870  152.9710 O   0  0  0  0  0  0  0  0  0  0  0  0
  158.9920  211.5940  152.4550 C   0  0  0  0  0  2  0  0  0  0  0  0
  158.1230  212.6730  152.9790 C   0  0  1  0  0  3  0  0  0  0  0  0
  156.1720  212.6270  154.5250 C   0  0  0  0  0  2  0  0  0  0  0  0
  155.6130  211.8330  155.5260 O   0  0  0  0  0  0  0  0  0  0  0  0
  155.4520  210.6520  154.9650 O   0  0  0  0  0  1  0  0  0  0  0  0
  1  2  2  0  0  0  0
  2 23  1  0  0  0  0
  4  3  1  6  0  0  0
  4  2  1  0  0  0  0
  5  4  1  0  0  0  0
  6  5  1  0  0  0  0
  7  8  1  6  0  0  0
  7  6  1  0  0  0  0
  9 22  1  6  0  0  0
  9 10  1  0  0  0  0
  9  7  1  0  0  0  0
 10 11  1  6  0  0  0
 12 13  1  1  0  0  0
 12 10  1  0  0  0  0
 12 17  1  0  0  0  0
 14 18  1  0  0  0  0
 15 14  2  0  0  0  0
 16 18  2  0  0  0  0
 17 19  2  0  0  0  0
 17 15  1  0  0  0  0
 18 20  1  0  0  0  0
 19 16  1  0  0  0  0
 21 22  1  0  0  0  0
 23 24  1  0  0  0  0
 24 26  1  0  0  0  0
 25 27  1  6  0  0  0
 25 28  1  0  0  0  0
 26 25  1  0  0  0  0
 29 28  1  0  0  0  0
 29 30  1  0  0  0  0
 31 32  1  0  0  0  0
 32 30  1  0  0  0  0
 32 33  2  0  0  0  0
 34 38  1  6  0  0  0
 34 31  1  0  0  0  0
 35 37  1  0  0  0  0
 36 35  1  0  0  0  0
 36 37  1  0  0  0  0
 37 34  1  1  0  0  0
 38 39  1  0  0  0  0
 40 39  1  0  0  0  0
M  END
>  <MODEL>
1

>  <REMARK>
 VINA RESULT:      -5.8      0.000      0.000
  Name = 
  21 active torsions:
  status: ('A' for Active; 'I' for Inactive)
    1  A    between atoms: C_1  and  C_21
    2  A    between atoms: C_1  and  N_27
    3  A    between atoms: C_1  and  C_34
    4  A    between atoms: C_2  and  O_11
    5  A    between atoms: C_2  and  C_29
    6  A    between atoms: C_3  and  C_23
    7  A    between atoms: C_3  and  C_39
    8  A    between atoms: C_4  and  C_8
    9  A    between atoms: C_4  and  C_36
   10  A    between atoms: C_8  and  C_32
   11  A    between atoms: O_10  and  C_21
   12  A    between atoms: O_11  and  C_16
   13  A    between atoms: C_13  and  C_31
   14  A    between atoms: C_13  and  C_35
   15  A    between atoms: C_16  and  C_39
   16  A    between atoms: C_20  and  C_23
   17  A    between atoms: C_20  and  C_35
   18  A    between atoms: C_22  and  C_36
   19  A    between atoms: C_24  and  C_31
   20  A    between atoms: C_24  and  C_36
   21  A    between atoms: C_28  and  C_29
                            x       y       z     vdW  Elec       q    Type
                         _______ _______ _______ _____ _____    ______ ____

>  <TORSDO>
F 21

$$$$
=
 OpenBabel11072415153D

 40 41  0  0  1  0  0  0  0  0999 V2000
  162.4830  205.4070  151.6950 O   0  0  0  0  0  0  0  0  0  0  0  0
  161.4850  204.9250  152.2160 C   0  0  0  0  0  0  0  0  0  0  0  0
  161.8200  202.4950  151.7030 C   0  0  0  0  0  1  0  0  0  0  0  0
  160.8730  203.6890  151.6200 C   0  0  2  0  0  3  0  0  0  0  0  0
  160.4840  203.9820  150.1780 C   0  0  0  0  0  2  0  0  0  0  0  0
  161.4560  203.3610  149.1880 C   0  0  0  0  0  2  0  0  0  0  0  0
  160.6990  202.5470  148.1450 C   0  0  2  0  0  3  0  0  0  0  0  0
  161.2460  201.1990  148.1310 N   0  0  0  0  0  1  0  0  0  0  0  0
  160.7850  203.1710  146.7390 C   0  0  1  0  0  3  0  0  0  0  0  0
  161.9950  204.1110  146.6310 C   0  0  1  0  0  3  0  0  0  0  0  0
  162.9620  203.6250  145.7430 O   0  0  0  0  0  1  0  0  0  0  0  0
  161.6170  205.5700  146.3380 C   0  0  1  0  0  3  0  0  0  0  0  0
  160.0210  205.6630  145.4650 S   0  0  0  0  0  1  0  0  0  0  0  0
  162.8170  208.1580  148.8340 C   0  0  0  0  0  3  0  0  0  0  0  0
  162.7570  207.3020  147.7280 C   0  0  0  0  0  3  0  0  0  0  0  0
  160.6370  207.3850  149.5510 C   0  0  0  0  0  3  0  0  0  0  0  0
  161.6420  206.4820  147.5320 C   0  0  0  0  0  0  0  0  0  0  0  0
  161.7600  208.1960  149.7470 C   0  0  0  0  0  0  0  0  0  0  0  0
  160.5760  206.5310  148.4440 C   0  0  0  0  0  3  0  0  0  0  0  0
  161.8190  209.0420  150.8470 O   0  0  0  0  0  1  0  0  0  0  0  0
  159.9820  202.4520  144.6030 O   0  0  0  0  0  1  0  0  0  0  0  0
  160.8320  202.0980  145.6530 C   0  0  0  0  0  2  0  0  0  0  0  0
  160.9320  205.5480  153.4690 C   0  0  0  0  0  2  0  0  0  0  0  0
  161.5230  206.9260  153.7230 C   0  0  0  0  0  2  0  0  0  0  0  0
  160.6590  209.0390  154.6420 C   0  0  0  0  0  2  0  0  0  0  0  0
  160.4450  207.9500  153.8870 C   0  0  0  0  0  2  0  0  0  0  0  0
  160.7370  209.4280  153.6900 C   0  0  0  0  0  2  0  0  0  0  0  0
  159.7810  210.2330  154.4030 O   0  0  0  0  0  0  0  0  0  0  0  0
  159.9520  211.5290  153.9120 C   0  0  0  0  0  2  0  0  0  0  0  0
  158.9530  211.7820  152.8010 C   0  0  0  0  0  2  0  0  0  0  0  0
  157.9900  213.9270  151.8170 N   0  0  0  0  0  2  0  0  0  0  0  0
  158.3560  213.1410  152.9570 C   0  0  0  0  0  0  0  0  0  0  0  0
  158.1520  213.5960  154.1130 O   0  0  0  0  0  0  0  0  0  0  0  0
  158.1440  213.4540  150.4450 C   0  0  2  0  0  3  0  0  0  0  0  0
  160.3670  214.3270  150.5390 O   0  0  0  0  0  0  0  0  0  0  0  0
  160.3920  213.4340  149.4550 C   0  0  0  0  0  2  0  0  0  0  0  0
  159.2090  214.2790  149.7390 C   0  0  1  0  0  3  0  0  0  0  0  0
  156.8190  213.5810  149.7090 C   0  0  0  0  0  2  0  0  0  0  0  0
  155.7940  213.8580  150.6130 O   0  0  0  0  0  0  0  0  0  0  0  0
  154.7910  214.2720  149.8660 O   0  0  0  0  0  1  0  0  0  0  0  0
  1  2  2  0  0  0  0
  2 23  1  0  0  0  0
  4  3  1  6  0  0  0
  4  2  1  0  0  0  0
  5  4  1  0  0  0  0
  6  5  1  0  0  0  0
  7  8  1  6  0  0  0
  7  6  1  0  0  0  0
  9 22  1  6  0  0  0
  9  7  1  0  0  0  0
 10 11  1  6  0  0  0
 10  9  1  0  0  0  0
 12 13  1  1  0  0  0
 12 10  1  0  0  0  0
 12 17  1  0  0  0  0
 14 18  1  0  0  0  0
 15 14  2  0  0  0  0
 16 18  2  0  0  0  0
 17 15  1  0  0  0  0
 17 19  2  0  0  0  0
 18 20  1  0  0  0  0
 19 16  1  0  0  0  0
 21 22  1  0  0  0  0
 23 24  1  0  0  0  0
 24 26  1  0  0  0  0
 26 25  1  0  0  0  0
 27 28  1  0  0  0  0
 27 25  1  0  0  0  0
 29 28  1  0  0  0  0
 30 32  1  0  0  0  0
 30 29  1  0  0  0  0
 31 32  1  0  0  0  0
 32 33  2  0  0  0  0
 34 38  1  6  0  0  0
 34 31  1  0  0  0  0
 36 37  1  0  0  0  0
 36 35  1  0  0  0  0
 37 34  1  1  0  0  0
 37 35  1  0  0  0  0
 38 39  1  0  0  0  0
 40 39  1  0  0  0  0
M  END
>  <MODEL>
2

>  <REMARK>
 VINA RESULT:      -5.4      1.909      2.464
  Name = 
  21 active torsions:
  status: ('A' for Active; 'I' for Inactive)
    1  A    between atoms: C_1  and  C_21
    2  A    between atoms: C_1  and  N_27
    3  A    between atoms: C_1  and  C_34
    4  A    between atoms: C_2  and  O_11
    5  A    between atoms: C_2  and  C_29
    6  A    between atoms: C_3  and  C_23
    7  A    between atoms: C_3  and  C_39
    8  A    between atoms: C_4  and  C_8
    9  A    between atoms: C_4  and  C_36
   10  A    between atoms: C_8  and  C_32
   11  A    between atoms: O_10  and  C_21
   12  A    between atoms: O_11  and  C_16
   13  A    between atoms: C_13  and  C_31
   14  A    between atoms: C_13  and  C_35
   15  A    between atoms: C_16  and  C_39
   16  A    between atoms: C_20  and  C_23
   17  A    between atoms: C_20  and  C_35
   18  A    between atoms: C_22  and  C_36
   19  A    between atoms: C_24  and  C_31
   20  A    between atoms: C_24  and  C_36
   21  A    between atoms: C_28  and  C_29
                            x       y       z     vdW  Elec       q    Type
                         _______ _______ _______ _____ _____    ______ ____

>  <TORSDO>
F 21

$$$$
=
 OpenBabel11072415153D

 40 41  0  0  1  0  0  0  0  0999 V2000
  162.2770  202.1220  151.8520 O   0  0  0  0  0  0  0  0  0  0  0  0
  161.2070  202.6520  151.5810 C   0  0  0  0  0  0  0  0  0  0  0  0
  161.2100  201.1140  149.6030 C   0  0  0  0  0  1  0  0  0  0  0  0
  160.4620  202.2140  150.3530 C   0  0  2  0  0  3  0  0  0  0  0  0
  160.2300  203.4250  149.4620 C   0  0  0  0  0  2  0  0  0  0  0  0
  161.5360  204.0820  149.0410 C   0  0  0  0  0  2  0  0  0  0  0  0
  161.4400  205.5950  149.1980 C   0  0  2  0  0  3  0  0  0  0  0  0
  160.0610  205.9340  149.5160 N   0  0  0  0  0  1  0  0  0  0  0  0
  161.8940  206.3460  147.9320 C   0  0  1  0  0  3  0  0  0  0  0  0
  161.0170  205.9690  146.7290 C   0  0  1  0  0  3  0  0  0  0  0  0
  160.4260  207.0910  146.1350 O   0  0  0  0  0  1  0  0  0  0  0  0
  161.7310  205.0770  145.7020 C   0  0  1  0  0  3  0  0  0  0  0  0
  163.4880  204.8680  146.1370 S   0  0  0  0  0  1  0  0  0  0  0  0
  160.9120  201.3850  145.9450 C   0  0  0  0  0  3  0  0  0  0  0  0
  161.5010  202.6350  146.1640 C   0  0  0  0  0  3  0  0  0  0  0  0
  159.4430  202.3670  144.2890 C   0  0  0  0  0  3  0  0  0  0  0  0
  161.0690  203.7530  145.4460 C   0  0  0  0  0  0  0  0  0  0  0  0
  159.8870  201.2500  145.0040 C   0  0  0  0  0  0  0  0  0  0  0  0
  160.0310  203.6180  144.5110 C   0  0  0  0  0  3  0  0  0  0  0  0
  159.3030  200.0100  144.7820 O   0  0  0  0  0  1  0  0  0  0  0  0
  162.6060  208.1650  149.3140 O   0  0  0  0  0  1  0  0  0  0  0  0
  161.8960  207.8580  148.1500 C   0  0  0  0  0  2  0  0  0  0  0  0
  160.6400  203.6880  152.5140 C   0  0  0  0  0  2  0  0  0  0  0  0
  161.5640  204.8890  152.6540 C   0  0  0  0  0  2  0  0  0  0  0  0
  161.4130  207.0500  153.8210 C   0  0  0  0  0  2  0  0  0  0  0  0
  160.8040  206.1010  153.0920 C   0  0  0  0  0  2  0  0  0  0  0  0
  161.3760  207.4940  152.8910 C   0  0  0  0  0  2  0  0  0  0  0  0
  160.5620  208.2480  151.9750 O   0  0  0  0  0  0  0  0  0  0  0  0
  161.0420  209.5580  152.0460 C   0  0  0  0  0  2  0  0  0  0  0  0
  160.0060  210.4380  152.7140 C   0  0  0  0  0  2  0  0  0  0  0  0
  159.8600  212.0560  154.6780 N   0  0  0  0  0  2  0  0  0  0  0  0
  160.5930  211.0830  153.9250 C   0  0  0  0  0  0  0  0  0  0  0  0
  161.7480  210.7500  154.3020 O   0  0  0  0  0  0  0  0  0  0  0  0
  158.4990  212.4600  154.3410 C   0  0  2  0  0  3  0  0  0  0  0  0
  158.8920  213.6790  152.3230 O   0  0  0  0  0  0  0  0  0  0  0  0
  157.5250  213.8710  152.5830 C   0  0  0  0  0  2  0  0  0  0  0  0
  158.5250  213.8270  153.6740 C   0  0  1  0  0  3  0  0  0  0  0  0
  157.6560  212.5160  155.6050 C   0  0  0  0  0  2  0  0  0  0  0  0
  156.3350  212.1770  155.3140 O   0  0  0  0  0  0  0  0  0  0  0  0
  155.6340  213.2410  155.6520 O   0  0  0  0  0  1  0  0  0  0  0  0
  2  1  2  0  0  0  0
  2 23  1  0  0  0  0
  4  3  1  6  0  0  0
  4  2  1  0  0  0  0
  5  4  1  0  0  0  0
  6  7  1  0  0  0  0
  6  5  1  0  0  0  0
  7  8  1  6  0  0  0
  9 22  1  1  0  0  0
  9  7  1  0  0  0  0
 10 11  1  6  0  0  0
 10  9  1  0  0  0  0
 12 13  1  1  0  0  0
 12 10  1  0  0  0  0
 14 15  1  0  0  0  0
 16 19  2  0  0  0  0
 16 18  1  0  0  0  0
 17 12  1  0  0  0  0
 17 15  2  0  0  0  0
 18 14  2  0  0  0  0
 19 17  1  0  0  0  0
 20 18  1  0  0  0  0
 22 21  1  0  0  0  0
 23 24  1  0  0  0  0
 24 26  1  0  0  0  0
 26 25  1  0  0  0  0
 27 25  1  0  0  0  0
 28 29  1  0  0  0  0
 28 27  1  0  0  0  0
 29 30  1  0  0  0  0
 30 32  1  0  0  0  0
 32 33  2  0  0  0  0
 32 31  1  0  0  0  0
 34 31  1  0  0  0  0
 34 38  1  1  0  0  0
 35 36  1  0  0  0  0
 35 37  1  0  0  0  0
 36 37  1  0  0  0  0
 37 34  1  1  0  0  0
 39 38  1  0  0  0  0
 39 40  1  0  0  0  0
M  END
>  <MODEL>
3

>  <REMARK>
 VINA RESULT:      -5.4      1.999      4.207
  Name = 
  21 active torsions:
  status: ('A' for Active; 'I' for Inactive)
    1  A    between atoms: C_1  and  C_21
    2  A    between atoms: C_1  and  N_27
    3  A    between atoms: C_1  and  C_34
    4  A    between atoms: C_2  and  O_11
    5  A    between atoms: C_2  and  C_29
    6  A    between atoms: C_3  and  C_23
    7  A    between atoms: C_3  and  C_39
    8  A    between atoms: C_4  and  C_8
    9  A    between atoms: C_4  and  C_36
   10  A    between atoms: C_8  and  C_32
   11  A    between atoms: O_10  and  C_21
   12  A    between atoms: O_11  and  C_16
   13  A    between atoms: C_13  and  C_31
   14  A    between atoms: C_13  and  C_35
   15  A    between atoms: C_16  and  C_39
   16  A    between atoms: C_20  and  C_23
   17  A    between atoms: C_20  and  C_35
   18  A    between atoms: C_22  and  C_36
   19  A    between atoms: C_24  and  C_31
   20  A    between atoms: C_24  and  C_36
   21  A    between atoms: C_28  and  C_29
                            x       y       z     vdW  Elec       q    Type
                         _______ _______ _______ _____ _____    ______ ____

>  <TORSDO>
F 21

$$$$
=
 OpenBabel11072415153D

 40 41  0  0  1  0  0  0  0  0999 V2000
  162.4070  205.1820  151.6990 O   0  0  0  0  0  0  0  0  0  0  0  0
  161.4700  204.6060  152.2350 C   0  0  0  0  0  0  0  0  0  0  0  0
  162.0110  202.2360  151.6270 C   0  0  0  0  0  1  0  0  0  0  0  0
  160.9500  203.3330  151.6300 C   0  0  2  0  0  3  0  0  0  0  0  0
  160.4600  203.6260  150.2190 C   0  0  0  0  0  2  0  0  0  0  0  0
  161.4850  203.2350  149.1670 C   0  0  0  0  0  2  0  0  0  0  0  0
  160.7880  202.6510  147.9430 C   0  0  2  0  0  3  0  0  0  0  0  0
  161.3150  201.3150  147.7130 N   0  0  0  0  0  1  0  0  0  0  0  0
  160.9810  203.5230  146.6880 C   0  0  1  0  0  3  0  0  0  0  0  0
  162.1540  204.4970  146.8720 C   0  0  1  0  0  3  0  0  0  0  0  0
  163.2780  204.1150  146.1300 O   0  0  0  0  0  1  0  0  0  0  0  0
  161.7760  205.9670  146.6400 C   0  0  1  0  0  3  0  0  0  0  0  0
  160.2590  206.0960  145.6400 S   0  0  0  0  0  1  0  0  0  0  0  0
  160.5670  207.2620  149.9910 C   0  0  0  0  0  3  0  0  0  0  0  0
  160.6880  206.5010  148.8220 C   0  0  0  0  0  3  0  0  0  0  0  0
  162.4450  208.6250  149.2980 C   0  0  0  0  0  3  0  0  0  0  0  0
  161.6820  206.8000  147.8860 C   0  0  0  0  0  0  0  0  0  0  0  0
  161.4420  208.3270  150.2260 C   0  0  0  0  0  0  0  0  0  0  0  0
  162.5680  207.8620  148.1310 C   0  0  0  0  0  3  0  0  0  0  0  0
  161.3220  209.0850  151.3830 O   0  0  0  0  0  1  0  0  0  0  0  0
  159.9530  202.1220  145.0420 O   0  0  0  0  0  1  0  0  0  0  0  0
  161.1780  202.6660  145.4380 C   0  0  0  0  0  2  0  0  0  0  0  0
  160.9000  205.1560  153.5140 C   0  0  0  0  0  2  0  0  0  0  0  0
  161.1800  206.6440  153.6640 C   0  0  0  0  0  2  0  0  0  0  0  0
  161.4580  208.0660  155.6530 C   0  0  0  0  0  2  0  0  0  0  0  0
  160.7350  207.1400  155.0040 C   0  0  0  0  0  2  0  0  0  0  0  0
  160.6690  208.6290  155.3000 C   0  0  0  0  0  2  0  0  0  0  0  0
  159.3480  209.0010  155.7340 O   0  0  0  0  0  0  0  0  0  0  0  0
  159.4780  210.2950  156.2420 C   0  0  0  0  0  2  0  0  0  0  0  0
  159.5240  211.2840  155.0950 C   0  0  0  0  0  2  0  0  0  0  0  0
  159.2030  213.8100  154.9840 N   0  0  0  0  0  2  0  0  0  0  0  0
  159.7690  212.6590  155.6210 C   0  0  0  0  0  0  0  0  0  0  0  0
  160.4700  212.8070  156.6570 O   0  0  0  0  0  0  0  0  0  0  0  0
  158.3370  213.7240  153.8130 C   0  0  2  0  0  3  0  0  0  0  0  0
  156.4360  213.2810  155.1930 O   0  0  0  0  0  0  0  0  0  0  0  0
  155.8940  213.4940  153.9150 C   0  0  0  0  0  2  0  0  0  0  0  0
  157.1790  212.7820  154.1060 C   0  0  1  0  0  3  0  0  0  0  0  0
  159.1350  213.2100  152.6250 C   0  0  0  0  0  2  0  0  0  0  0  0
  158.3040  212.4930  151.7650 O   0  0  0  0  0  0  0  0  0  0  0  0
  158.4290  213.0970  150.6000 O   0  0  0  0  0  1  0  0  0  0  0  0
  1  2  2  0  0  0  0
  2 23  1  0  0  0  0
  4  3  1  6  0  0  0
  4  2  1  0  0  0  0
  5  4  1  0  0  0  0
  6  5  1  0  0  0  0
  7  8  1  6  0  0  0
  7  6  1  0  0  0  0
  9 22  1  6  0  0  0
  9 10  1  0  0  0  0
  9  7  1  0  0  0  0
 10 11  1  6  0  0  0
 12 13  1  1  0  0  0
 12 10  1  0  0  0  0
 12 17  1  0  0  0  0
 14 18  1  0  0  0  0
 15 14  2  0  0  0  0
 16 18  2  0  0  0  0
 17 19  2  0  0  0  0
 17 15  1  0  0  0  0
 18 20  1  0  0  0  0
 19 16  1  0  0  0  0
 21 22  1  0  0  0  0
 23 24  1  0  0  0  0
 24 26  1  0  0  0  0
 26 25  1  0  0  0  0
 27 25  1  0  0  0  0
 27 28  1  0  0  0  0
 28 29  1  0  0  0  0
 30 32  1  0  0  0  0
 30 29  1  0  0  0  0
 31 32  1  0  0  0  0
 32 33  2  0  0  0  0
 34 38  1  6  0  0  0
 34 31  1  0  0  0  0
 36 37  1  0  0  0  0
 36 35  1  0  0  0  0
 37 34  1  6  0  0  0
 37 35  1  0  0  0  0
 39 38  1  0  0  0  0
 40 39  1  0  0  0  0
M  END
>  <MODEL>
4

>  <REMARK>
 VINA RESULT:      -5.3      0.881      1.706
  Name = 
  21 active torsions:
  status: ('A' for Active; 'I' for Inactive)
    1  A    between atoms: C_1  and  C_21
    2  A    between atoms: C_1  and  N_27
    3  A    between atoms: C_1  and  C_34
    4  A    between atoms: C_2  and  O_11
    5  A    between atoms: C_2  and  C_29
    6  A    between atoms: C_3  and  C_23
    7  A    between atoms: C_3  and  C_39
    8  A    between atoms: C_4  and  C_8
    9  A    between atoms: C_4  and  C_36
   10  A    between atoms: C_8  and  C_32
   11  A    between atoms: O_10  and  C_21
   12  A    between atoms: O_11  and  C_16
   13  A    between atoms: C_13  and  C_31
   14  A    between atoms: C_13  and  C_35
   15  A    between atoms: C_16  and  C_39
   16  A    between atoms: C_20  and  C_23
   17  A    between atoms: C_20  and  C_35
   18  A    between atoms: C_22  and  C_36
   19  A    between atoms: C_24  and  C_31
   20  A    between atoms: C_24  and  C_36
   21  A    between atoms: C_28  and  C_29
                            x       y       z     vdW  Elec       q    Type
                         _______ _______ _______ _____ _____    ______ ____

>  <TORSDO>
F 21

$$$$
=
 OpenBabel11072415153D

 40 41  0  0  1  0  0  0  0  0999 V2000
  162.2520  202.4980  151.9940 O   0  0  0  0  0  0  0  0  0  0  0  0
  161.1710  202.9970  151.7130 C   0  0  0  0  0  0  0  0  0  0  0  0
  161.1010  201.2660  149.9020 C   0  0  0  0  0  1  0  0  0  0  0  0
  160.4100  202.4760  150.5270 C   0  0  2  0  0  3  0  0  0  0  0  0
  160.2510  203.6000  149.5140 C   0  0  0  0  0  2  0  0  0  0  0  0
  161.5780  204.2700  149.1920 C   0  0  0  0  0  2  0  0  0  0  0  0
  161.4290  205.7860  149.2470 C   0  0  2  0  0  3  0  0  0  0  0  0
  160.0380  206.0980  149.5350 N   0  0  0  0  0  1  0  0  0  0  0  0
  161.8670  206.4640  147.9340 C   0  0  1  0  0  3  0  0  0  0  0  0
  161.0070  205.9820  146.7560 C   0  0  1  0  0  3  0  0  0  0  0  0
  160.3610  207.0410  146.1060 O   0  0  0  0  0  1  0  0  0  0  0  0
  161.7620  205.0720  145.7760 C   0  0  1  0  0  3  0  0  0  0  0  0
  163.5010  204.8760  146.2810 S   0  0  0  0  0  1  0  0  0  0  0  0
  160.9410  201.3820  146.0610 C   0  0  0  0  0  3  0  0  0  0  0  0
  161.5190  202.6390  146.2780 C   0  0  0  0  0  3  0  0  0  0  0  0
  159.5340  202.3280  144.3320 C   0  0  0  0  0  3  0  0  0  0  0  0
  161.1120  203.7410  145.5210 C   0  0  0  0  0  0  0  0  0  0  0  0
  159.9530  201.2260  145.0850 C   0  0  0  0  0  0  0  0  0  0  0  0
  160.1100  203.5840  144.5500 C   0  0  0  0  0  3  0  0  0  0  0  0
  159.3800  199.9800  144.8660 O   0  0  0  0  0  1  0  0  0  0  0  0
  162.4340  208.3860  149.2430 O   0  0  0  0  0  1  0  0  0  0  0  0
  161.8220  207.9870  148.0510 C   0  0  0  0  0  2  0  0  0  0  0  0
  160.6050  204.0790  152.5930 C   0  0  0  0  0  2  0  0  0  0  0  0
  161.6240  205.1740  152.8670 C   0  0  0  0  0  2  0  0  0  0  0  0
  160.8190  206.7830  154.5460 C   0  0  0  0  0  2  0  0  0  0  0  0
  160.9460  206.4520  153.2520 C   0  0  0  0  0  2  0  0  0  0  0  0
  161.5870  207.4040  154.2480 C   0  0  0  0  0  2  0  0  0  0  0  0
  160.5920  208.2520  154.8480 O   0  0  0  0  0  0  0  0  0  0  0  0
  161.2920  209.0660  155.7420 C   0  0  0  0  0  2  0  0  0  0  0  0
  160.9860  210.5200  155.4450 C   0  0  0  0  0  2  0  0  0  0  0  0
  158.9490  211.2270  154.0850 N   0  0  0  0  0  2  0  0  0  0  0  0
  159.5130  210.7060  155.2950 C   0  0  0  0  0  0  0  0  0  0  0  0
  158.7500  210.3810  156.2430 O   0  0  0  0  0  0  0  0  0  0  0  0
  159.7560  211.5790  152.9210 C   0  0  2  0  0  3  0  0  0  0  0  0
  158.4550  213.5350  152.4780 O   0  0  0  0  0  0  0  0  0  0  0  0
  159.5260  213.6190  151.5720 C   0  0  0  0  0  2  0  0  0  0  0  0
  158.8940  212.3230  151.9130 C   0  0  1  0  0  3  0  0  0  0  0  0
  160.3190  210.3160  152.2890 C   0  0  0  0  0  2  0  0  0  0  0  0
  161.4430  210.6240  151.5240 O   0  0  0  0  0  0  0  0  0  0  0  0
  162.4420  210.0250  152.1400 O   0  0  0  0  0  1  0  0  0  0  0  0
  2  1  2  0  0  0  0
  2 23  1  0  0  0  0
  4  3  1  6  0  0  0
  4  2  1  0  0  0  0
  5  4  1  0  0  0  0
  6  7  1  0  0  0  0
  6  5  1  0  0  0  0
  7  8  1  6  0  0  0
  9 22  1  1  0  0  0
  9  7  1  0  0  0  0
 10 11  1  6  0  0  0
 10  9  1  0  0  0  0
 12 13  1  1  0  0  0
 12 10  1  0  0  0  0
 14 15  1  0  0  0  0
 16 19  2  0  0  0  0
 16 18  1  0  0  0  0
 17 12  1  0  0  0  0
 17 15  2  0  0  0  0
 18 14  2  0  0  0  0
 19 17  1  0  0  0  0
 20 18  1  0  0  0  0
 22 21  1  0  0  0  0
 23 24  1  0  0  0  0
 24 26  1  0  0  0  0
 26 25  1  0  0  0  0
 27 25  1  0  0  0  0
 27 28  1  0  0  0  0
 28 29  1  0  0  0  0
 30 29  1  0  0  0  0
 31 32  1  0  0  0  0
 32 30  1  0  0  0  0
 32 33  2  0  0  0  0
 34 38  1  6  0  0  0
 34 31  1  0  0  0  0
 36 37  1  0  0  0  0
 36 35  1  0  0  0  0
 37 35  1  0  0  0  0
 37 34  1  1  0  0  0
 39 40  1  0  0  0  0
 39 38  1  0  0  0  0
M  END
>  <MODEL>
5

>  <REMARK>
 VINA RESULT:      -5.2      2.121      4.405
  Name = 
  21 active torsions:
  status: ('A' for Active; 'I' for Inactive)
    1  A    between atoms: C_1  and  C_21
    2  A    between atoms: C_1  and  N_27
    3  A    between atoms: C_1  and  C_34
    4  A    between atoms: C_2  and  O_11
    5  A    between atoms: C_2  and  C_29
    6  A    between atoms: C_3  and  C_23
    7  A    between atoms: C_3  and  C_39
    8  A    between atoms: C_4  and  C_8
    9  A    between atoms: C_4  and  C_36
   10  A    between atoms: C_8  and  C_32
   11  A    between atoms: O_10  and  C_21
   12  A    between atoms: O_11  and  C_16
   13  A    between atoms: C_13  and  C_31
   14  A    between atoms: C_13  and  C_35
   15  A    between atoms: C_16  and  C_39
   16  A    between atoms: C_20  and  C_23
   17  A    between atoms: C_20  and  C_35
   18  A    between atoms: C_22  and  C_36
   19  A    between atoms: C_24  and  C_31
   20  A    between atoms: C_24  and  C_36
   21  A    between atoms: C_28  and  C_29
                            x       y       z     vdW  Elec       q    Type
                         _______ _______ _______ _____ _____    ______ ____

>  <TORSDO>
F 21

$$$$
=
 OpenBabel11072415153D

 40 41  0  0  1  0  0  0  0  0999 V2000
  161.5640  206.5920  153.1680 O   0  0  0  0  0  0  0  0  0  0  0  0
  161.2120  207.7600  153.2640 C   0  0  0  0  0  0  0  0  0  0  0  0
  160.6660  207.5000  155.6960 C   0  0  0  0  0  1  0  0  0  0  0  0
  161.2240  208.4210  154.6130 C   0  0  2  0  0  3  0  0  0  0  0  0
  160.4290  209.7160  154.5320 C   0  0  0  0  0  2  0  0  0  0  0  0
  161.0150  210.8020  155.4200 C   0  0  0  0  0  2  0  0  0  0  0  0
  160.0040  211.2150  156.4830 C   0  0  2  0  0  3  0  0  0  0  0  0
  159.2220  210.0440  156.8490 N   0  0  0  0  0  1  0  0  0  0  0  0
  159.0750  212.3460  156.0010 C   0  0  1  0  0  3  0  0  0  0  0  0
  157.6200  211.8620  155.9210 C   0  0  1  0  0  3  0  0  0  0  0  0
  156.8590  212.2950  157.0140 O   0  0  0  0  0  1  0  0  0  0  0  0
  156.9400  212.1740  154.5800 C   0  0  1  0  0  3  0  0  0  0  0  0
  155.5360  213.3090  154.8140 S   0  0  0  0  0  1  0  0  0  0  0  0
  159.3940  212.1420  151.6910 C   0  0  0  0  0  3  0  0  0  0  0  0
  158.5200  211.7220  152.7000 C   0  0  0  0  0  3  0  0  0  0  0  0
  158.9550  214.4520  152.2710 C   0  0  0  0  0  3  0  0  0  0  0  0
  157.8650  212.6620  153.5010 C   0  0  0  0  0  0  0  0  0  0  0  0
  159.6150  213.5060  151.4800 C   0  0  0  0  0  0  0  0  0  0  0  0
  158.0790  214.0320  153.2790 C   0  0  0  0  0  3  0  0  0  0  0  0
  160.4850  213.9250  150.4810 O   0  0  0  0  0  1  0  0  0  0  0  0
  160.5200  214.0010  156.9490 O   0  0  0  0  0  1  0  0  0  0  0  0
  159.1890  213.5800  156.8940 C   0  0  0  0  0  2  0  0  0  0  0  0
  160.8320  208.5210  152.0220 C   0  0  0  0  0  2  0  0  0  0  0  0
  161.8710  208.3630  150.9220 C   0  0  0  0  0  2  0  0  0  0  0  0
  161.5430  207.8260  148.5440 C   0  0  0  0  0  2  0  0  0  0  0  0
  161.3620  207.4790  149.8280 C   0  0  0  0  0  2  0  0  0  0  0  0
  162.2560  207.0890  148.6620 C   0  0  0  0  0  2  0  0  0  0  0  0
  161.4950  206.4140  147.6450 O   0  0  0  0  0  0  0  0  0  0  0  0
  162.3900  206.2040  146.5930 C   0  0  0  0  0  2  0  0  0  0  0  0
  162.6890  204.7230  146.4740 C   0  0  0  0  0  2  0  0  0  0  0  0
  160.8690  203.0280  147.0310 N   0  0  0  0  0  2  0  0  0  0  0  0
  161.4410  203.9820  146.1280 C   0  0  0  0  0  0  0  0  0  0  0  0
  160.8700  204.2130  145.0300 O   0  0  0  0  0  0  0  0  0  0  0  0
  161.4370  202.7380  148.3440 C   0  0  2  0  0  3  0  0  0  0  0  0
  160.3650  200.6990  147.7040 O   0  0  0  0  0  0  0  0  0  0  0  0
  161.7330  200.3800  147.7250 C   0  0  0  0  0  2  0  0  0  0  0  0
  161.1330  201.2970  148.7220 C   0  0  1  0  0  3  0  0  0  0  0  0
  160.8410  203.6810  149.3770 C   0  0  0  0  0  2  0  0  0  0  0  0
  160.8360  203.0740  150.6330 O   0  0  0  0  0  0  0  0  0  0  0  0
  161.4250  203.9450  151.4270 O   0  0  0  0  0  1  0  0  0  0  0  0
  1  2  2  0  0  0  0
  2  4  1  0  0  0  0
  4  3  1  1  0  0  0
  5  4  1  0  0  0  0
  5  6  1  0  0  0  0
  6  7  1  0  0  0  0
  7  8  1  6  0  0  0
  9  7  1  0  0  0  0
  9 22  1  1  0  0  0
 10  9  1  0  0  0  0
 10 11  1  1  0  0  0
 12 13  1  1  0  0  0
 12 10  1  0  0  0  0
 14 15  1  0  0  0  0
 15 17  2  0  0  0  0
 16 19  2  0  0  0  0
 17 12  1  0  0  0  0
 18 14  2  0  0  0  0
 18 16  1  0  0  0  0
 19 17  1  0  0  0  0
 20 18  1  0  0  0  0
 22 21  1  0  0  0  0
 23  2  1  0  0  0  0
 24 23  1  0  0  0  0
 25 27  1  0  0  0  0
 25 26  1  0  0  0  0
 26 24  1  0  0  0  0
 28 27  1  0  0  0  0
 29 28  1  0  0  0  0
 30 29  1  0  0  0  0
 31 34  1  0  0  0  0
 32 30  1  0  0  0  0
 32 31  1  0  0  0  0
 33 32  2  0  0  0  0
 34 38  1  1  0  0  0
 35 36  1  0  0  0  0
 35 37  1  0  0  0  0
 36 37  1  0  0  0  0
 37 34  1  6  0  0  0
 38 39  1  0  0  0  0
 39 40  1  0  0  0  0
M  END
>  <MODEL>
6

>  <REMARK>
 VINA RESULT:      -5.0      2.717     10.543
  Name = 
  21 active torsions:
  status: ('A' for Active; 'I' for Inactive)
    1  A    between atoms: C_1  and  C_21
    2  A    between atoms: C_1  and  N_27
    3  A    between atoms: C_1  and  C_34
    4  A    between atoms: C_2  and  O_11
    5  A    between atoms: C_2  and  C_29
    6  A    between atoms: C_3  and  C_23
    7  A    between atoms: C_3  and  C_39
    8  A    between atoms: C_4  and  C_8
    9  A    between atoms: C_4  and  C_36
   10  A    between atoms: C_8  and  C_32
   11  A    between atoms: O_10  and  C_21
   12  A    between atoms: O_11  and  C_16
   13  A    between atoms: C_13  and  C_31
   14  A    between atoms: C_13  and  C_35
   15  A    between atoms: C_16  and  C_39
   16  A    between atoms: C_20  and  C_23
   17  A    between atoms: C_20  and  C_35
   18  A    between atoms: C_22  and  C_36
   19  A    between atoms: C_24  and  C_31
   20  A    between atoms: C_24  and  C_36
   21  A    between atoms: C_28  and  C_29
                            x       y       z     vdW  Elec       q    Type
                         _______ _______ _______ _____ _____    ______ ____

>  <TORSDO>
F 21

$$$$
=
 OpenBabel11072415153D

 40 41  0  0  1  0  0  0  0  0999 V2000
  162.4280  202.3670  151.5810 O   0  0  0  0  0  0  0  0  0  0  0  0
  161.2920  202.8220  151.5810 C   0  0  0  0  0  0  0  0  0  0  0  0
  160.8420  201.2620  149.6710 C   0  0  0  0  0  1  0  0  0  0  0  0
  160.3740  202.4980  150.4370 C   0  0  2  0  0  3  0  0  0  0  0  0
  160.2850  203.7090  149.5210 C   0  0  0  0  0  2  0  0  0  0  0  0
  161.6380  204.3740  149.3210 C   0  0  0  0  0  2  0  0  0  0  0  0
  161.4740  205.8870  149.2380 C   0  0  2  0  0  3  0  0  0  0  0  0
  160.0720  206.2070  149.4550 N   0  0  0  0  0  1  0  0  0  0  0  0
  161.9470  206.4530  147.8850 C   0  0  1  0  0  3  0  0  0  0  0  0
  161.0890  205.9070  146.7340 C   0  0  1  0  0  3  0  0  0  0  0  0
  160.4340  206.9280  146.0330 O   0  0  0  0  0  1  0  0  0  0  0  0
  161.8490  204.9550  145.7990 C   0  0  1  0  0  3  0  0  0  0  0  0
  163.5730  204.7480  146.3460 S   0  0  0  0  0  1  0  0  0  0  0  0
  159.6190  202.2860  144.2920 C   0  0  0  0  0  3  0  0  0  0  0  0
  160.2630  203.5060  144.5270 C   0  0  0  0  0  3  0  0  0  0  0  0
  160.8230  201.2930  146.1430 C   0  0  0  0  0  3  0  0  0  0  0  0
  161.1840  203.6270  145.5710 C   0  0  0  0  0  0  0  0  0  0  0  0
  159.8950  201.1810  145.1030 C   0  0  0  0  0  0  0  0  0  0  0  0
  161.4690  202.5130  146.3760 C   0  0  0  0  0  3  0  0  0  0  0  0
  159.2550  199.9700  144.8730 O   0  0  0  0  0  1  0  0  0  0  0  0
  162.4380  208.4520  149.1050 O   0  0  0  0  0  1  0  0  0  0  0  0
  161.9420  207.9810  147.8870 C   0  0  0  0  0  2  0  0  0  0  0  0
  160.8270  203.6470  152.7490 C   0  0  0  0  0  2  0  0  0  0  0  0
  161.6400  204.9240  152.8990 C   0  0  0  0  0  2  0  0  0  0  0  0
  160.8480  207.0080  153.9410 C   0  0  0  0  0  2  0  0  0  0  0  0
  160.7480  206.1260  152.9350 C   0  0  0  0  0  2  0  0  0  0  0  0
  161.3200  207.5130  153.1750 C   0  0  0  0  0  2  0  0  0  0  0  0
  161.1730  208.3310  152.0000 O   0  0  0  0  0  0  0  0  0  0  0  0
  161.3940  209.6410  152.4330 C   0  0  0  0  0  2  0  0  0  0  0  0
  160.0640  210.3070  152.7210 C   0  0  0  0  0  2  0  0  0  0  0  0
  160.7620  211.6970  154.7400 N   0  0  0  0  0  2  0  0  0  0  0  0
  160.2910  211.6220  153.3890 C   0  0  0  0  0  0  0  0  0  0  0  0
  160.0830  212.6850  152.7460 O   0  0  0  0  0  0  0  0  0  0  0  0
  161.0770  210.5170  155.5380 C   0  0  2  0  0  3  0  0  0  0  0  0
  158.7210  210.2400  155.8360 O   0  0  0  0  0  0  0  0  0  0  0  0
  159.2630  208.9890  156.1770 C   0  0  0  0  0  2  0  0  0  0  0  0
  159.9500  210.2550  156.5250 C   0  0  1  0  0  3  0  0  0  0  0  0
  162.3800  210.7410  156.2880 C   0  0  0  0  0  2  0  0  0  0  0  0
  163.4340  210.8830  155.3860 O   0  0  0  0  0  0  0  0  0  0  0  0
  164.4060  211.4250  156.0910 O   0  0  0  0  0  1  0  0  0  0  0  0
  2  1  2  0  0  0  0
  2 23  1  0  0  0  0
  4  3  1  6  0  0  0
  4  2  1  0  0  0  0
  5  4  1  0  0  0  0
  6  5  1  0  0  0  0
  7  6  1  0  0  0  0
  7  8  1  6  0  0  0
  9 22  1  1  0  0  0
  9  7  1  0  0  0  0
 10 11  1  6  0  0  0
 10  9  1  0  0  0  0
 12 13  1  1  0  0  0
 12 10  1  0  0  0  0
 14 15  2  0  0  0  0
 14 18  1  0  0  0  0
 15 17  1  0  0  0  0
 16 19  1  0  0  0  0
 17 12  1  0  0  0  0
 17 19  2  0  0  0  0
 18 16  2  0  0  0  0
 20 18  1  0  0  0  0
 22 21  1  0  0  0  0
 23 24  1  0  0  0  0
 24 26  1  0  0  0  0
 26 25  1  0  0  0  0
 27 25  1  0  0  0  0
 28 29  1  0  0  0  0
 28 27  1  0  0  0  0
 29 30  1  0  0  0  0
 30 32  1  0  0  0  0
 31 34  1  0  0  0  0
 32 31  1  0  0  0  0
 33 32  2  0  0  0  0
 34 38  1  1  0  0  0
 35 36  1  0  0  0  0
 35 37  1  0  0  0  0
 36 37  1  0  0  0  0
 37 34  1  6  0  0  0
 39 40  1  0  0  0  0
 39 38  1  0  0  0  0
M  END
>  <MODEL>
7

>  <REMARK>
 VINA RESULT:      -4.7      2.231      4.875
  Name = 
  21 active torsions:
  status: ('A' for Active; 'I' for Inactive)
    1  A    between atoms: C_1  and  C_21
    2  A    between atoms: C_1  and  N_27
    3  A    between atoms: C_1  and  C_34
    4  A    between atoms: C_2  and  O_11
    5  A    between atoms: C_2  and  C_29
    6  A    between atoms: C_3  and  C_23
    7  A    between atoms: C_3  and  C_39
    8  A    between atoms: C_4  and  C_8
    9  A    between atoms: C_4  and  C_36
   10  A    between atoms: C_8  and  C_32
   11  A    between atoms: O_10  and  C_21
   12  A    between atoms: O_11  and  C_16
   13  A    between atoms: C_13  and  C_31
   14  A    between atoms: C_13  and  C_35
   15  A    between atoms: C_16  and  C_39
   16  A    between atoms: C_20  and  C_23
   17  A    between atoms: C_20  and  C_35
   18  A    between atoms: C_22  and  C_36
   19  A    between atoms: C_24  and  C_31
   20  A    between atoms: C_24  and  C_36
   21  A    between atoms: C_28  and  C_29
                            x       y       z     vdW  Elec       q    Type
                         _______ _______ _______ _____ _____    ______ ____

>  <TORSDO>
F 21

$$$$
=
 OpenBabel11072415153D

 40 41  0  0  1  0  0  0  0  0999 V2000
  160.6460  205.8570  148.3610 O   0  0  0  0  0  0  0  0  0  0  0  0
  161.2730  204.8240  148.5540 C   0  0  0  0  0  0  0  0  0  0  0  0
  160.7340  202.8200  149.9580 C   0  0  0  0  0  1  0  0  0  0  0  0
  161.3060  204.2350  149.9360 C   0  0  2  0  0  3  0  0  0  0  0  0
  160.5400  205.1510  150.8780 C   0  0  0  0  0  2  0  0  0  0  0  0
  161.4400  205.7550  151.9450 C   0  0  0  0  0  2  0  0  0  0  0  0
  161.2850  207.2710  151.9680 C   0  0  2  0  0  3  0  0  0  0  0  0
  162.3340  207.8510  151.1440 N   0  0  0  0  0  1  0  0  0  0  0  0
  161.3520  207.8440  153.3970 C   0  0  1  0  0  3  0  0  0  0  0  0
  161.0300  209.3460  153.3990 C   0  0  1  0  0  3  0  0  0  0  0  0
  159.9870  209.6630  152.5190 O   0  0  0  0  0  1  0  0  0  0  0  0
  160.8010  209.9240  154.8030 C   0  0  1  0  0  3  0  0  0  0  0  0
  162.3540  210.5760  155.4970 S   0  0  0  0  0  1  0  0  0  0  0  0
  158.9510  213.2280  154.6310 C   0  0  0  0  0  3  0  0  0  0  0  0
  159.9580  212.2600  154.5460 C   0  0  0  0  0  3  0  0  0  0  0  0
  157.3970  211.5430  155.4140 C   0  0  0  0  0  3  0  0  0  0  0  0
  159.6920  210.9340  154.8990 C   0  0  0  0  0  0  0  0  0  0  0  0
  157.6720  212.8710  155.0700 C   0  0  0  0  0  0  0  0  0  0  0  0
  158.4040  210.5750  155.3270 C   0  0  0  0  0  3  0  0  0  0  0  0
  156.6720  213.8300  155.1570 O   0  0  0  0  0  1  0  0  0  0  0  0
  161.0890  206.8240  155.5450 O   0  0  0  0  0  1  0  0  0  0  0  0
  160.4230  207.0880  154.3460 C   0  0  0  0  0  2  0  0  0  0  0  0
  161.9480  204.1430  147.3950 C   0  0  0  0  0  2  0  0  0  0  0  0
  162.2630  205.1180  146.2710 C   0  0  0  0  0  2  0  0  0  0  0  0
  161.2290  205.9740  144.2090 C   0  0  2  0  0  3  0  0  0  0  0  0
  161.1200  205.2150  145.3110 C   0  0  0  0  0  2  0  0  0  0  0  0
  161.3380  205.0250  143.8190 C   0  0  0  0  0  1  0  0  0  0  0  0
  161.6190  206.2860  143.1840 O   0  0  0  0  0  0  0  0  0  0  0  0
  161.6730  206.0060  141.8170 C   0  0  0  0  0  2  0  0  0  0  0  0
  162.2010  207.2170  141.0760 C   0  0  0  0  0  2  0  0  0  0  0  0
  161.3510  208.0720  138.8310 N   0  0  0  0  0  2  0  0  0  0  0  0
  161.9820  207.0490  139.6100 C   0  0  0  0  0  0  0  0  0  0  0  0
  162.3780  205.9960  139.0440 O   0  0  0  0  0  0  0  0  0  0  0  0
  160.9100  209.3420  139.3970 C   0  0  2  0  0  3  0  0  0  0  0  0
  158.8120  209.2110  138.2580 O   0  0  0  0  0  0  0  0  0  0  0  0
  158.6700  210.3110  139.1200 C   0  0  0  0  0  2  0  0  0  0  0  0
  159.9500  210.0220  138.4330 C   0  0  1  0  0  3  0  0  0  0  0  0
  162.1140  210.2370  139.6440 C   0  0  0  0  0  2  0  0  0  0  0  0
  162.7380  210.5450  138.4360 O   0  0  0  0  0  0  0  0  0  0  0  0
  163.5350  211.5560  138.7200 O   0  0  0  0  0  1  0  0  0  0  0  0
  1  2  2  0  0  0  0
  2  4  1  0  0  0  0
  4  3  1  6  0  0  0
  4  5  1  0  0  0  0
  5  6  1  0  0  0  0
  6  7  1  0  0  0  0
  7  8  1  6  0  0  0
  7  9  1  0  0  0  0
  9 10  1  0  0  0  0
  9 22  1  1  0  0  0
 10 11  1  6  0  0  0
 10 12  1  0  0  0  0
 12 17  1  0  0  0  0
 12 13  1  6  0  0  0
 14 18  1  0  0  0  0
 15 14  2  0  0  0  0
 15 17  1  0  0  0  0
 17 19  2  0  0  0  0
 18 20  1  0  0  0  0
 18 16  2  0  0  0  0
 19 16  1  0  0  0  0
 22 21  1  0  0  0  0
 23  2  1  0  0  0  0
 24 23  1  0  0  0  0
 25 27  1  6  0  0  0
 25 26  1  0  0  0  0
 26 24  1  0  0  0  0
 28 25  1  0  0  0  0
 29 28  1  0  0  0  0
 30 29  1  0  0  0  0
 31 34  1  0  0  0  0
 31 32  1  0  0  0  0
 32 30  1  0  0  0  0
 33 32  2  0  0  0  0
 34 38  1  6  0  0  0
 35 37  1  0  0  0  0
 35 36  1  0  0  0  0
 37 36  1  0  0  0  0
 37 34  1  1  0  0  0
 39 40  1  0  0  0  0
 39 38  1  0  0  0  0
M  END
>  <MODEL>
8

>  <REMARK>
 VINA RESULT:      -4.7      5.386     11.473
  Name = 
  21 active torsions:
  status: ('A' for Active; 'I' for Inactive)
    1  A    between atoms: C_1  and  C_21
    2  A    between atoms: C_1  and  N_27
    3  A    between atoms: C_1  and  C_34
    4  A    between atoms: C_2  and  O_11
    5  A    between atoms: C_2  and  C_29
    6  A    between atoms: C_3  and  C_23
    7  A    between atoms: C_3  and  C_39
    8  A    between atoms: C_4  and  C_8
    9  A    between atoms: C_4  and  C_36
   10  A    between atoms: C_8  and  C_32
   11  A    between atoms: O_10  and  C_21
   12  A    between atoms: O_11  and  C_16
   13  A    between atoms: C_13  and  C_31
   14  A    between atoms: C_13  and  C_35
   15  A    between atoms: C_16  and  C_39
   16  A    between atoms: C_20  and  C_23
   17  A    between atoms: C_20  and  C_35
   18  A    between atoms: C_22  and  C_36
   19  A    between atoms: C_24  and  C_31
   20  A    between atoms: C_24  and  C_36
   21  A    between atoms: C_28  and  C_29
                            x       y       z     vdW  Elec       q    Type
                         _______ _______ _______ _____ _____    ______ ____

>  <TORSDO>
F 21

$$$$
=
 OpenBabel11072415153D

 40 41  0  0  1  0  0  0  0  0999 V2000
  160.9700  206.4660  151.4670 O   0  0  0  0  0  0  0  0  0  0  0  0
  160.9190  205.4300  152.1170 C   0  0  0  0  0  0  0  0  0  0  0  0
  161.8160  203.1300  151.6840 C   0  0  0  0  0  1  0  0  0  0  0  0
  160.6940  204.1270  151.4030 C   0  0  2  0  0  3  0  0  0  0  0  0
  160.5650  204.4010  149.9120 C   0  0  0  0  0  2  0  0  0  0  0  0
  161.5100  203.5390  149.0900 C   0  0  0  0  0  2  0  0  0  0  0  0
  160.7160  202.6000  148.1890 C   0  0  2  0  0  3  0  0  0  0  0  0
  161.2100  201.2470  148.3910 N   0  0  0  0  0  1  0  0  0  0  0  0
  160.8210  202.9880  146.7010 C   0  0  1  0  0  3  0  0  0  0  0  0
  162.0660  203.8510  146.4480 C   0  0  1  0  0  3  0  0  0  0  0  0
  162.9930  203.2080  145.6180 O   0  0  0  0  0  1  0  0  0  0  0  0
  161.7410  205.2720  145.9650 C   0  0  1  0  0  3  0  0  0  0  0  0
  160.1600  205.3050  145.0610 S   0  0  0  0  0  1  0  0  0  0  0  0
  163.0980  207.6840  148.5540 C   0  0  0  0  0  3  0  0  0  0  0  0
  163.0230  206.7090  147.5530 C   0  0  0  0  0  3  0  0  0  0  0  0
  160.6870  207.9120  148.5140 C   0  0  0  0  0  3  0  0  0  0  0  0
  161.7830  206.3280  147.0320 C   0  0  0  0  0  0  0  0  0  0  0  0
  161.9300  208.2810  149.0380 C   0  0  0  0  0  0  0  0  0  0  0  0
  160.6120  206.9390  147.5110 C   0  0  0  0  0  3  0  0  0  0  0  0
  162.0020  209.2470  150.0340 O   0  0  0  0  0  1  0  0  0  0  0  0
  159.8130  201.8690  144.8420 O   0  0  0  0  0  1  0  0  0  0  0  0
  160.8230  201.7540  145.8010 C   0  0  0  0  0  2  0  0  0  0  0  0
  161.1390  205.4810  153.6050 C   0  0  0  0  0  2  0  0  0  0  0  0
  161.2150  206.9110  154.1160 C   0  0  0  0  0  2  0  0  0  0  0  0
  160.5120  207.3400  156.4350 C   0  0  0  0  0  2  0  0  0  0  0  0
  160.1640  207.1660  155.1510 C   0  0  0  0  0  2  0  0  0  0  0  0
  160.3080  208.3080  156.1430 C   0  0  0  0  0  2  0  0  0  0  0  0
  159.3230  209.3260  155.8900 O   0  0  0  0  0  0  0  0  0  0  0  0
  159.7000  210.4090  156.6870 C   0  0  0  0  0  2  0  0  0  0  0  0
  159.2180  211.6960  156.0480 C   0  0  0  0  0  2  0  0  0  0  0  0
  158.0600  211.5620  153.7820 N   0  0  0  0  0  2  0  0  0  0  0  0
  158.0160  211.4240  155.2060 C   0  0  0  0  0  0  0  0  0  0  0  0
  156.9490  211.0470  155.7590 O   0  0  0  0  0  0  0  0  0  0  0  0
  159.2690  211.9430  153.0580 C   0  0  2  0  0  3  0  0  0  0  0  0
  158.0110  213.6320  151.9270 O   0  0  0  0  0  0  0  0  0  0  0  0
  159.3500  213.9570  151.6540 C   0  0  0  0  0  2  0  0  0  0  0  0
  158.8880  212.5510  151.7170 C   0  0  1  0  0  3  0  0  0  0  0  0
  160.1420  210.7180  152.8420 C   0  0  0  0  0  2  0  0  0  0  0  0
  161.3010  210.8140  153.6110 O   0  0  0  0  0  0  0  0  0  0  0  0
  162.1970  210.1040  152.9560 O   0  0  0  0  0  1  0  0  0  0  0  0
  1  2  2  0  0  0  0
  2 23  1  0  0  0  0
  4  3  1  6  0  0  0
  4  2  1  0  0  0  0
  5  4  1  0  0  0  0
  6  5  1  0  0  0  0
  7  8  1  6  0  0  0
  7  6  1  0  0  0  0
  9 22  1  6  0  0  0
  9  7  1  0  0  0  0
 10 11  1  6  0  0  0
 10  9  1  0  0  0  0
 12 13  1  1  0  0  0
 12 10  1  0  0  0  0
 12 17  1  0  0  0  0
 14 18  1  0  0  0  0
 15 14  2  0  0  0  0
 16 18  2  0  0  0  0
 17 19  2  0  0  0  0
 17 15  1  0  0  0  0
 18 20  1  0  0  0  0
 19 16  1  0  0  0  0
 21 22  1  0  0  0  0
 23 24  1  0  0  0  0
 24 26  1  0  0  0  0
 26 25  1  0  0  0  0
 27 25  1  0  0  0  0
 28 27  1  0  0  0  0
 28 29  1  0  0  0  0
 30 29  1  0  0  0  0
 31 32  1  0  0  0  0
 32 33  2  0  0  0  0
 32 30  1  0  0  0  0
 34 38  1  6  0  0  0
 34 31  1  0  0  0  0
 36 37  1  0  0  0  0
 36 35  1  0  0  0  0
 37 35  1  0  0  0  0
 37 34  1  1  0  0  0
 38 39  1  0  0  0  0
 40 39  1  0  0  0  0
M  END
>  <MODEL>
9

>  <REMARK>
 VINA RESULT:      -4.5      1.320      2.248
  Name = 
  21 active torsions:
  status: ('A' for Active; 'I' for Inactive)
    1  A    between atoms: C_1  and  C_21
    2  A    between atoms: C_1  and  N_27
    3  A    between atoms: C_1  and  C_34
    4  A    between atoms: C_2  and  O_11
    5  A    between atoms: C_2  and  C_29
    6  A    between atoms: C_3  and  C_23
    7  A    between atoms: C_3  and  C_39
    8  A    between atoms: C_4  and  C_8
    9  A    between atoms: C_4  and  C_36
   10  A    between atoms: C_8  and  C_32
   11  A    between atoms: O_10  and  C_21
   12  A    between atoms: O_11  and  C_16
   13  A    between atoms: C_13  and  C_31
   14  A    between atoms: C_13  and  C_35
   15  A    between atoms: C_16  and  C_39
   16  A    between atoms: C_20  and  C_23
   17  A    between atoms: C_20  and  C_35
   18  A    between atoms: C_22  and  C_36
   19  A    between atoms: C_24  and  C_31
   20  A    between atoms: C_24  and  C_36
   21  A    between atoms: C_28  and  C_29
                            x       y       z     vdW  Elec       q    Type
                         _______ _______ _______ _____ _____    ______ ____

>  <TORSDO>
F 21

$$$$
