=
 OpenBabel11072415263D

 25 27  0  0  0  0  0  0  0  0999 V2000
  161.3500  203.0710  151.6510 C   0  0  0  0  0  3  0  0  0  0  0  0
  161.1540  202.5250  150.3860 C   0  0  0  0  0  0  0  0  0  0  0  0
  160.9410  200.5990  148.9910 N   0  0  0  0  0  0  0  0  0  0  0  0
  160.9210  203.3650  149.2730 C   0  0  0  0  0  0  0  0  0  0  0  0
  160.6940  201.3780  147.9050 C   0  0  0  0  0  3  0  0  0  0  0  0
  160.6760  202.7690  148.0290 C   0  0  0  0  0  3  0  0  0  0  0  0
  161.3050  204.4520  151.8260 C   0  0  0  0  0  3  0  0  0  0  0  0
  160.9060  204.7710  149.4450 C   0  0  0  0  0  0  0  0  0  0  0  0
  161.1670  201.1390  150.2180 C   0  0  0  0  0  3  0  0  0  0  0  0
  161.0790  205.3120  150.7420 C   0  0  0  0  0  0  0  0  0  0  0  0
  161.0190  207.5590  149.9980 O   0  0  0  0  0  0  0  0  0  0  0  0
  161.0100  206.7750  150.9870 C   0  0  0  0  0  0  0  0  0  0  0  0
  160.7910  208.4660  154.9260 C   0  0  0  0  0  3  0  0  0  0  0  0
  160.8230  209.2970  153.8040 C   0  0  0  0  0  3  0  0  0  0  0  0
  160.8890  208.7410  152.5230 C   0  0  0  0  0  3  0  0  0  0  0  0
  160.9160  207.3480  152.3510 C   0  0  0  0  0  0  0  0  0  0  0  0
  160.8270  207.0790  154.7680 C   0  0  0  0  0  3  0  0  0  0  0  0
  160.8930  206.5230  153.4880 C   0  0  0  0  0  3  0  0  0  0  0  0
  160.7110  205.6670  148.3380 N   0  0  0  0  0  2  0  0  0  0  0  0
  162.4380  207.3500  147.2310 O   0  0  0  0  0  0  0  0  0  0  0  0
  161.8760  205.9630  147.0890 S   0  0  0  0  0  0  0  0  0  0  0  0
  162.9870  204.9550  147.1770 O   0  0  0  0  0  0  0  0  0  0  0  0
  159.7790  206.3140  145.6070 F   0  0  0  0  0  0  0  0  0  0  0  0
  161.0440  204.5140  145.1050 F   0  0  0  0  0  0  0  0  0  0  0  0
  161.0710  205.8350  145.5090 C   0  0  0  0  0  3  0  0  0  0  0  0
  1  7  1  0  0  0  0
  2  1  2  0  0  0  0
  3  9  2  0  0  0  0
  4  8  2  0  0  0  0
  4  2  1  0  0  0  0
  5  6  2  0  0  0  0
  5  3  1  0  0  0  0
  6  4  1  0  0  0  0
  8 10  1  0  0  0  0
  9  2  1  0  0  0  0
 10 12  1  0  0  0  0
 10  7  2  0  0  0  0
 11 12  2  0  0  0  0
 12 16  1  0  0  0  0
 14 13  2  0  0  0  0
 15 14  1  0  0  0  0
 16 15  2  0  0  0  0
 16 18  1  0  0  0  0
 17 13  1  0  0  0  0
 18 17  2  0  0  0  0
 19  8  1  0  0  0  0
 21 22  2  0  0  0  0
 21 20  2  0  0  0  0
 21 19  1  0  0  0  0
 24 25  1  0  0  0  0
 25 23  1  0  0  0  0
 25 21  1  0  0  0  0
M  END
>  <MODEL>
1

>  <REMARK>
 VINA RESULT:      -9.4      0.000      0.000
  Name = 
  5 active torsions:
  status: ('A' for Active; 'I' for Inactive)
    1  A    between atoms: C_13  and  C_25
    2  A    between atoms: S_14  and  C_15
    3  A    between atoms: S_14  and  N_17
    4  A    between atoms: N_17  and  C_19
    5  A    between atoms: C_21  and  C_25
                            x       y       z     vdW  Elec       q    Type
                         _______ _______ _______ _____ _____    ______ ____

>  <TORSDO>
F 5

$$$$
=
 OpenBabel11072415263D

 25 27  0  0  0  0  0  0  0  0999 V2000
  161.4670  203.9210  151.7250 C   0  0  0  0  0  3  0  0  0  0  0  0
  161.2010  203.0190  150.6980 C   0  0  0  0  0  0  0  0  0  0  0  0
  160.8710  200.7670  149.9780 N   0  0  0  0  0  0  0  0  0  0  0  0
  160.9500  203.4820  149.3870 C   0  0  0  0  0  0  0  0  0  0  0  0
  160.6040  201.1820  148.7110 C   0  0  0  0  0  3  0  0  0  0  0  0
  160.6350  202.5420  148.3970 C   0  0  0  0  0  3  0  0  0  0  0  0
  161.4730  205.2890  151.4630 C   0  0  0  0  0  3  0  0  0  0  0  0
  160.9870  204.8720  149.1130 C   0  0  0  0  0  0  0  0  0  0  0  0
  161.1640  201.6500  150.9690 C   0  0  0  0  0  3  0  0  0  0  0  0
  161.2300  205.7800  150.1730 C   0  0  0  0  0  0  0  0  0  0  0  0
  161.0570  207.6870  148.7800 O   0  0  0  0  0  0  0  0  0  0  0  0
  161.2180  207.2480  149.9520 C   0  0  0  0  0  0  0  0  0  0  0  0
  161.7300  210.0480  153.1660 C   0  0  0  0  0  3  0  0  0  0  0  0
  162.4180  210.2230  151.9630 C   0  0  0  0  0  3  0  0  0  0  0  0
  162.2430  209.3110  150.9190 C   0  0  0  0  0  3  0  0  0  0  0  0
  161.3730  208.2190  151.0630 C   0  0  0  0  0  0  0  0  0  0  0  0
  160.8680  208.9590  153.3250 C   0  0  0  0  0  3  0  0  0  0  0  0
  160.6940  208.0490  152.2800 C   0  0  0  0  0  3  0  0  0  0  0  0
  160.7750  205.3900  147.7890 N   0  0  0  0  0  2  0  0  0  0  0  0
  162.3060  206.5030  145.9310 O   0  0  0  0  0  0  0  0  0  0  0  0
  161.8610  205.1670  146.4560 S   0  0  0  0  0  0  0  0  0  0  0  0
  163.0570  204.3720  146.8980 O   0  0  0  0  0  0  0  0  0  0  0  0
  161.3520  202.9630  145.1910 F   0  0  0  0  0  0  0  0  0  0  0  0
  161.3580  204.8360  143.9330 F   0  0  0  0  0  0  0  0  0  0  0  0
  161.0090  204.3010  145.1580 C   0  0  0  0  0  3  0  0  0  0  0  0
  2  9  1  0  0  0  0
  2  1  2  0  0  0  0
  3  9  2  0  0  0  0
  4  2  1  0  0  0  0
  5  3  1  0  0  0  0
  6  5  2  0  0  0  0
  6  4  1  0  0  0  0
  7  1  1  0  0  0  0
  8  4  2  0  0  0  0
  8 10  1  0  0  0  0
 10  7  2  0  0  0  0
 11 12  2  0  0  0  0
 12 10  1  0  0  0  0
 12 16  1  0  0  0  0
 13 17  1  0  0  0  0
 14 13  2  0  0  0  0
 15 16  2  0  0  0  0
 15 14  1  0  0  0  0
 16 18  1  0  0  0  0
 18 17  2  0  0  0  0
 19  8  1  0  0  0  0
 20 21  2  0  0  0  0
 21 22  2  0  0  0  0
 21 19  1  0  0  0  0
 24 25  1  0  0  0  0
 25 23  1  0  0  0  0
 25 21  1  0  0  0  0
M  END
>  <MODEL>
2

>  <REMARK>
 VINA RESULT:      -9.3      1.220      1.556
  Name = 
  5 active torsions:
  status: ('A' for Active; 'I' for Inactive)
    1  A    between atoms: C_13  and  C_25
    2  A    between atoms: S_14  and  C_15
    3  A    between atoms: S_14  and  N_17
    4  A    between atoms: N_17  and  C_19
    5  A    between atoms: C_21  and  C_25
                            x       y       z     vdW  Elec       q    Type
                         _______ _______ _______ _____ _____    ______ ____

>  <TORSDO>
F 5

$$$$
=
 OpenBabel11072415263D

 25 27  0  0  0  0  0  0  0  0999 V2000
  160.4460  206.8950  147.7830 C   0  0  0  0  0  3  0  0  0  0  0  0
  160.7730  205.9800  146.7880 C   0  0  0  0  0  0  0  0  0  0  0  0
  160.9830  205.4570  144.4680 N   0  0  0  0  0  0  0  0  0  0  0  0
  161.2660  204.6990  147.1270 C   0  0  0  0  0  0  0  0  0  0  0  0
  161.4800  204.2270  144.7610 C   0  0  0  0  0  3  0  0  0  0  0  0
  161.6320  203.8310  146.0910 C   0  0  0  0  0  3  0  0  0  0  0  0
  160.6160  206.5540  149.1230 C   0  0  0  0  0  3  0  0  0  0  0  0
  161.4100  204.3410  148.4900 C   0  0  0  0  0  0  0  0  0  0  0  0
  160.6320  206.3350  145.4450 C   0  0  0  0  0  3  0  0  0  0  0  0
  161.0990  205.2920  149.4930 C   0  0  0  0  0  0  0  0  0  0  0  0
  161.5440  203.8010  151.2780 O   0  0  0  0  0  0  0  0  0  0  0  0
  161.2920  204.9890  150.9340 C   0  0  0  0  0  0  0  0  0  0  0  0
  161.0090  207.9880  153.9910 C   0  0  0  0  0  3  0  0  0  0  0  0
  161.0590  206.6350  154.3350 C   0  0  0  0  0  3  0  0  0  0  0  0
  161.1570  205.6640  153.3350 C   0  0  0  0  0  3  0  0  0  0  0  0
  161.2120  206.0340  151.9820 C   0  0  0  0  0  0  0  0  0  0  0  0
  161.0530  208.3700  152.6480 C   0  0  0  0  0  3  0  0  0  0  0  0
  161.1510  207.3970  151.6490 C   0  0  0  0  0  3  0  0  0  0  0  0
  161.8710  203.0390  148.8860 N   0  0  0  0  0  2  0  0  0  0  0  0
  161.2410  200.6760  149.9160 O   0  0  0  0  0  0  0  0  0  0  0  0
  160.9450  201.5790  148.7520 S   0  0  0  0  0  0  0  0  0  0  0  0
  159.4780  201.9050  148.7220 O   0  0  0  0  0  0  0  0  0  0  0  0
  160.4490  200.9720  146.2800 F   0  0  0  0  0  0  0  0  0  0  0  0
  161.5060  199.3840  147.4870 F   0  0  0  0  0  0  0  0  0  0  0  0
  161.4050  200.7420  147.2520 C   0  0  0  0  0  3  0  0  0  0  0  0
  1  7  1  0  0  0  0
  2  4  1  0  0  0  0
  2  1  2  0  0  0  0
  3  5  1  0  0  0  0
  3  9  2  0  0  0  0
  4  8  2  0  0  0  0
  5  6  2  0  0  0  0
  6  4  1  0  0  0  0
  7 10  2  0  0  0  0
  8 19  1  0  0  0  0
  8 10  1  0  0  0  0
  9  2  1  0  0  0  0
 10 12  1  0  0  0  0
 12 11  2  0  0  0  0
 12 16  1  0  0  0  0
 13 14  1  0  0  0  0
 15 14  2  0  0  0  0
 16 15  1  0  0  0  0
 17 13  2  0  0  0  0
 18 16  2  0  0  0  0
 18 17  1  0  0  0  0
 21 19  1  0  0  0  0
 21 20  2  0  0  0  0
 22 21  2  0  0  0  0
 23 25  1  0  0  0  0
 25 24  1  0  0  0  0
 25 21  1  0  0  0  0
M  END
>  <MODEL>
3

>  <REMARK>
 VINA RESULT:      -8.8      2.773      4.221
  Name = 
  5 active torsions:
  status: ('A' for Active; 'I' for Inactive)
    1  A    between atoms: C_13  and  C_25
    2  A    between atoms: S_14  and  C_15
    3  A    between atoms: S_14  and  N_17
    4  A    between atoms: N_17  and  C_19
    5  A    between atoms: C_21  and  C_25
                            x       y       z     vdW  Elec       q    Type
                         _______ _______ _______ _____ _____    ______ ____

>  <TORSDO>
F 5

$$$$
=
 OpenBabel11072415263D

 25 27  0  0  0  0  0  0  0  0999 V2000
  160.7610  202.9290  151.8790 C   0  0  0  0  0  3  0  0  0  0  0  0
  160.8000  202.5740  150.5340 C   0  0  0  0  0  0  0  0  0  0  0  0
  160.3630  200.9700  148.8200 N   0  0  0  0  0  0  0  0  0  0  0  0
  161.2630  203.4930  149.5640 C   0  0  0  0  0  0  0  0  0  0  0  0
  160.7820  201.8380  147.8620 C   0  0  0  0  0  3  0  0  0  0  0  0
  161.2340  203.1100  148.2170 C   0  0  0  0  0  3  0  0  0  0  0  0
  161.1690  204.2010  152.2730 C   0  0  0  0  0  3  0  0  0  0  0  0
  161.7070  204.7760  149.9680 C   0  0  0  0  0  0  0  0  0  0  0  0
  160.3600  201.3100  150.1360 C   0  0  0  0  0  3  0  0  0  0  0  0
  161.6360  205.1340  151.3360 C   0  0  0  0  0  0  0  0  0  0  0  0
  162.9650  207.0900  151.2080 O   0  0  0  0  0  0  0  0  0  0  0  0
  162.0300  206.4880  151.8040 C   0  0  0  0  0  0  0  0  0  0  0  0
  160.1230  208.4850  155.0900 C   0  0  0  0  0  3  0  0  0  0  0  0
  160.4050  209.1800  153.9120 C   0  0  0  0  0  3  0  0  0  0  0  0
  161.0210  208.5230  152.8430 C   0  0  0  0  0  3  0  0  0  0  0  0
  161.3560  207.1630  152.9390 C   0  0  0  0  0  0  0  0  0  0  0  0
  160.4590  207.1340  155.2010 C   0  0  0  0  0  3  0  0  0  0  0  0
  161.0750  206.4780  154.1320 C   0  0  0  0  0  3  0  0  0  0  0  0
  162.2220  205.7310  149.0250 N   0  0  0  0  0  2  0  0  0  0  0  0
  161.5100  206.3950  146.5570 O   0  0  0  0  0  0  0  0  0  0  0  0
  161.2440  206.7290  147.9980 S   0  0  0  0  0  0  0  0  0  0  0  0
  159.7900  206.5140  148.3090 O   0  0  0  0  0  0  0  0  0  0  0  0
  163.0370  208.5970  148.1280 F   0  0  0  0  0  0  0  0  0  0  0  0
  161.2980  208.8070  149.5510 F   0  0  0  0  0  0  0  0  0  0  0  0
  161.6730  208.4320  148.2750 C   0  0  0  0  0  3  0  0  0  0  0  0
  1  7  1  0  0  0  0
  2  1  2  0  0  0  0
  3  9  2  0  0  0  0
  4  8  2  0  0  0  0
  4  2  1  0  0  0  0
  5  6  2  0  0  0  0
  5  3  1  0  0  0  0
  6  4  1  0  0  0  0
  8 10  1  0  0  0  0
  9  2  1  0  0  0  0
 10 12  1  0  0  0  0
 10  7  2  0  0  0  0
 11 12  2  0  0  0  0
 12 16  1  0  0  0  0
 13 17  1  0  0  0  0
 14 13  2  0  0  0  0
 15 16  2  0  0  0  0
 15 14  1  0  0  0  0
 16 18  1  0  0  0  0
 18 17  2  0  0  0  0
 19  8  1  0  0  0  0
 20 21  2  0  0  0  0
 21 25  1  0  0  0  0
 21 22  2  0  0  0  0
 21 19  1  0  0  0  0
 23 25  1  0  0  0  0
 25 24  1  0  0  0  0
M  END
>  <MODEL>
4

>  <REMARK>
 VINA RESULT:      -8.8      1.920      2.097
  Name = 
  5 active torsions:
  status: ('A' for Active; 'I' for Inactive)
    1  A    between atoms: C_13  and  C_25
    2  A    between atoms: S_14  and  C_15
    3  A    between atoms: S_14  and  N_17
    4  A    between atoms: N_17  and  C_19
    5  A    between atoms: C_21  and  C_25
                            x       y       z     vdW  Elec       q    Type
                         _______ _______ _______ _____ _____    ______ ____

>  <TORSDO>
F 5

$$$$
=
 OpenBabel11072415263D

 25 27  0  0  0  0  0  0  0  0999 V2000
  161.0560  206.9680  155.0990 C   0  0  0  0  0  3  0  0  0  0  0  0
  160.4780  208.2320  155.0430 C   0  0  0  0  0  0  0  0  0  0  0  0
  159.4790  210.0850  156.1700 N   0  0  0  0  0  0  0  0  0  0  0  0
  160.3770  208.9190  153.8110 C   0  0  0  0  0  0  0  0  0  0  0  0
  159.3870  210.7800  155.0050 C   0  0  0  0  0  3  0  0  0  0  0  0
  159.8370  210.2110  153.8120 C   0  0  0  0  0  3  0  0  0  0  0  0
  161.5500  206.3780  153.9380 C   0  0  0  0  0  3  0  0  0  0  0  0
  160.8510  208.3060  152.6250 C   0  0  0  0  0  0  0  0  0  0  0  0
  160.0130  208.8360  156.2130 C   0  0  0  0  0  3  0  0  0  0  0  0
  161.4620  207.0310  152.7010 C   0  0  0  0  0  0  0  0  0  0  0  0
  162.9860  206.9330  150.8910 O   0  0  0  0  0  0  0  0  0  0  0  0
  162.0320  206.3730  151.4980 C   0  0  0  0  0  0  0  0  0  0  0  0
  160.6260  202.5840  150.0500 C   0  0  0  0  0  3  0  0  0  0  0  0
  160.9530  202.7450  151.3990 C   0  0  0  0  0  3  0  0  0  0  0  0
  161.4050  203.9820  151.8650 C   0  0  0  0  0  3  0  0  0  0  0  0
  161.5280  205.0730  150.9900 C   0  0  0  0  0  0  0  0  0  0  0  0
  160.7540  203.6590  149.1680 C   0  0  0  0  0  3  0  0  0  0  0  0
  161.2050  204.8960  149.6350 C   0  0  0  0  0  3  0  0  0  0  0  0
  160.7380  208.9480  151.3440 N   0  0  0  0  0  2  0  0  0  0  0  0
  161.1640  211.5120  150.8110 O   0  0  0  0  0  0  0  0  0  0  0  0
  161.8220  210.1620  150.7480 S   0  0  0  0  0  0  0  0  0  0  0  0
  163.0800  210.1730  151.5700 O   0  0  0  0  0  0  0  0  0  0  0  0
  161.8540  210.8680  148.2540 F   0  0  0  0  0  0  0  0  0  0  0  0
  161.5320  208.6690  148.6460 F   0  0  0  0  0  0  0  0  0  0  0  0
  162.2150  209.8000  149.0520 C   0  0  0  0  0  3  0  0  0  0  0  0
  2  1  1  0  0  0  0
  2  9  1  0  0  0  0
  3  9  2  0  0  0  0
  4  6  1  0  0  0  0
  4  2  2  0  0  0  0
  5  3  1  0  0  0  0
  6  5  2  0  0  0  0
  7  1  2  0  0  0  0
  8 10  2  0  0  0  0
  8  4  1  0  0  0  0
 10  7  1  0  0  0  0
 11 12  2  0  0  0  0
 12 10  1  0  0  0  0
 13 14  1  0  0  0  0
 14 15  2  0  0  0  0
 16 12  1  0  0  0  0
 16 15  1  0  0  0  0
 17 18  1  0  0  0  0
 17 13  2  0  0  0  0
 18 16  2  0  0  0  0
 19  8  1  0  0  0  0
 21 20  2  0  0  0  0
 21 19  1  0  0  0  0
 21 22  2  0  0  0  0
 23 25  1  0  0  0  0
 24 25  1  0  0  0  0
 25 21  1  0  0  0  0
M  END
>  <MODEL>
5

>  <REMARK>
 VINA RESULT:      -8.6      3.145      6.534
  Name = 
  5 active torsions:
  status: ('A' for Active; 'I' for Inactive)
    1  A    between atoms: C_13  and  C_25
    2  A    between atoms: S_14  and  C_15
    3  A    between atoms: S_14  and  N_17
    4  A    between atoms: N_17  and  C_19
    5  A    between atoms: C_21  and  C_25
                            x       y       z     vdW  Elec       q    Type
                         _______ _______ _______ _____ _____    ______ ____

>  <TORSDO>
F 5

$$$$
=
 OpenBabel11072415263D

 25 27  0  0  0  0  0  0  0  0999 V2000
  162.5550  207.4130  148.5910 C   0  0  0  0  0  3  0  0  0  0  0  0
  162.0880  206.3130  147.8790 C   0  0  0  0  0  0  0  0  0  0  0  0
  161.9250  205.1190  145.8170 N   0  0  0  0  0  0  0  0  0  0  0  0
  161.3680  205.2890  148.5350 C   0  0  0  0  0  0  0  0  0  0  0  0
  161.2490  204.1080  146.4240 C   0  0  0  0  0  3  0  0  0  0  0  0
  160.9640  204.1750  147.7890 C   0  0  0  0  0  3  0  0  0  0  0  0
  162.3240  207.5030  149.9610 C   0  0  0  0  0  3  0  0  0  0  0  0
  161.1060  205.3940  149.9230 C   0  0  0  0  0  0  0  0  0  0  0  0
  162.3490  206.2090  146.5110 C   0  0  0  0  0  3  0  0  0  0  0  0
  161.6110  206.5060  150.6410 C   0  0  0  0  0  0  0  0  0  0  0  0
  161.6320  205.6270  152.8400 O   0  0  0  0  0  0  0  0  0  0  0  0
  161.4180  206.6330  152.1080 C   0  0  0  0  0  0  0  0  0  0  0  0
  160.1490  210.2800  153.9840 C   0  0  0  0  0  3  0  0  0  0  0  0
  160.4870  209.1690  154.7610 C   0  0  0  0  0  3  0  0  0  0  0  0
  160.9040  207.9860  154.1450 C   0  0  0  0  0  3  0  0  0  0  0  0
  160.9950  207.9030  152.7460 C   0  0  0  0  0  0  0  0  0  0  0  0
  160.2260  210.2070  152.5910 C   0  0  0  0  0  3  0  0  0  0  0  0
  160.6440  209.0240  151.9760 C   0  0  0  0  0  3  0  0  0  0  0  0
  160.3460  204.3980  150.6290 N   0  0  0  0  0  2  0  0  0  0  0  0
  162.5000  203.0200  151.3370 O   0  0  0  0  0  0  0  0  0  0  0  0
  161.0010  202.9240  151.2640 S   0  0  0  0  0  0  0  0  0  0  0  0
  160.4430  202.6650  152.6360 O   0  0  0  0  0  0  0  0  0  0  0  0
  161.6310  201.3100  149.3360 F   0  0  0  0  0  0  0  0  0  0  0  0
  159.4640  201.9360  149.4230 F   0  0  0  0  0  0  0  0  0  0  0  0
  160.5690  201.5860  150.1760 C   0  0  0  0  0  3  0  0  0  0  0  0
  1  7  1  0  0  0  0
  2  4  1  0  0  0  0
  2  1  2  0  0  0  0
  3  5  1  0  0  0  0
  3  9  2  0  0  0  0
  4  8  2  0  0  0  0
  5  6  2  0  0  0  0
  6  4  1  0  0  0  0
  7 10  2  0  0  0  0
  8 19  1  0  0  0  0
  8 10  1  0  0  0  0
  9  2  1  0  0  0  0
 10 12  1  0  0  0  0
 12 16  1  0  0  0  0
 12 11  2  0  0  0  0
 13 14  1  0  0  0  0
 15 14  2  0  0  0  0
 16 15  1  0  0  0  0
 17 13  2  0  0  0  0
 18 17  1  0  0  0  0
 18 16  2  0  0  0  0
 19 21  1  0  0  0  0
 21 20  2  0  0  0  0
 21 22  2  0  0  0  0
 23 25  1  0  0  0  0
 24 25  1  0  0  0  0
 25 21  1  0  0  0  0
M  END
>  <MODEL>
6

>  <REMARK>
 VINA RESULT:      -8.3      2.928      4.120
  Name = 
  5 active torsions:
  status: ('A' for Active; 'I' for Inactive)
    1  A    between atoms: C_13  and  C_25
    2  A    between atoms: S_14  and  C_15
    3  A    between atoms: S_14  and  N_17
    4  A    between atoms: N_17  and  C_19
    5  A    between atoms: C_21  and  C_25
                            x       y       z     vdW  Elec       q    Type
                         _______ _______ _______ _____ _____    ______ ____

>  <TORSDO>
F 5

$$$$
=
 OpenBabel11072415263D

 25 27  0  0  0  0  0  0  0  0999 V2000
  160.8550  206.9920  147.2370 C   0  0  0  0  0  3  0  0  0  0  0  0
  160.9550  205.7290  146.6620 C   0  0  0  0  0  0  0  0  0  0  0  0
  160.8250  204.3380  144.7260 N   0  0  0  0  0  0  0  0  0  0  0  0
  161.3370  204.6150  147.4440 C   0  0  0  0  0  0  0  0  0  0  0  0
  161.2100  203.2520  145.4460 C   0  0  0  0  0  3  0  0  0  0  0  0
  161.4760  203.3730  146.8110 C   0  0  0  0  0  3  0  0  0  0  0  0
  161.1450  207.1650  148.5880 C   0  0  0  0  0  3  0  0  0  0  0  0
  161.6020  204.7840  148.8250 C   0  0  0  0  0  0  0  0  0  0  0  0
  160.6950  205.5630  145.3000 C   0  0  0  0  0  3  0  0  0  0  0  0
  161.5240  206.0800  149.3910 C   0  0  0  0  0  0  0  0  0  0  0  0
  162.3280  205.3750  151.5040 O   0  0  0  0  0  0  0  0  0  0  0  0
  161.8520  206.3220  150.8190 C   0  0  0  0  0  0  0  0  0  0  0  0
  161.3400  210.1460  152.7020 C   0  0  0  0  0  3  0  0  0  0  0  0
  162.1700  210.0160  151.5860 C   0  0  0  0  0  3  0  0  0  0  0  0
  162.3280  208.7700  150.9740 C   0  0  0  0  0  3  0  0  0  0  0  0
  161.6540  207.6410  151.4670 C   0  0  0  0  0  0  0  0  0  0  0  0
  160.6720  209.0280  153.2090 C   0  0  0  0  0  3  0  0  0  0  0  0
  160.8310  207.7830  152.5960 C   0  0  0  0  0  3  0  0  0  0  0  0
  161.9570  203.6770  149.6700 N   0  0  0  0  0  2  0  0  0  0  0  0
  161.4860  202.2520  151.8580 O   0  0  0  0  0  0  0  0  0  0  0  0
  160.8300  202.7390  150.5960 S   0  0  0  0  0  0  0  0  0  0  0  0
  159.6290  203.5750  150.9380 O   0  0  0  0  0  0  0  0  0  0  0  0
  161.4190  200.8160  148.9600 F   0  0  0  0  0  0  0  0  0  0  0  0
  159.3590  201.7070  148.7240 F   0  0  0  0  0  0  0  0  0  0  0  0
  160.3280  201.3300  149.6350 C   0  0  0  0  0  3  0  0  0  0  0  0
  1  7  1  0  0  0  0
  2  1  2  0  0  0  0
  2  4  1  0  0  0  0
  3  9  2  0  0  0  0
  3  5  1  0  0  0  0
  4  8  2  0  0  0  0
  5  6  2  0  0  0  0
  6  4  1  0  0  0  0
  7 10  2  0  0  0  0
  8 10  1  0  0  0  0
  8 19  1  0  0  0  0
  9  2  1  0  0  0  0
 10 12  1  0  0  0  0
 12 16  1  0  0  0  0
 12 11  2  0  0  0  0
 13 17  1  0  0  0  0
 14 13  2  0  0  0  0
 15 16  2  0  0  0  0
 15 14  1  0  0  0  0
 16 18  1  0  0  0  0
 18 17  2  0  0  0  0
 19 21  1  0  0  0  0
 21 22  2  0  0  0  0
 21 20  2  0  0  0  0
 23 25  1  0  0  0  0
 24 25  1  0  0  0  0
 25 21  1  0  0  0  0
M  END
>  <MODEL>
7

>  <REMARK>
 VINA RESULT:      -8.1      2.832      4.129
  Name = 
  5 active torsions:
  status: ('A' for Active; 'I' for Inactive)
    1  A    between atoms: C_13  and  C_25
    2  A    between atoms: S_14  and  C_15
    3  A    between atoms: S_14  and  N_17
    4  A    between atoms: N_17  and  C_19
    5  A    between atoms: C_21  and  C_25
                            x       y       z     vdW  Elec       q    Type
                         _______ _______ _______ _____ _____    ______ ____

>  <TORSDO>
F 5

$$$$
=
 OpenBabel11072415263D

 25 27  0  0  0  0  0  0  0  0999 V2000
  162.3310  209.0340  149.0750 C   0  0  0  0  0  3  0  0  0  0  0  0
  161.8450  209.2230  150.3650 C   0  0  0  0  0  0  0  0  0  0  0  0
  161.4130  210.6850  152.2020 N   0  0  0  0  0  0  0  0  0  0  0  0
  161.2610  208.1490  151.0740 C   0  0  0  0  0  0  0  0  0  0  0  0
  160.8260  209.6790  152.9020 C   0  0  0  0  0  3  0  0  0  0  0  0
  160.7370  208.4000  152.3490 C   0  0  0  0  0  3  0  0  0  0  0  0
  162.2310  207.7830  148.4720 C   0  0  0  0  0  3  0  0  0  0  0  0
  161.1860  206.8680  150.4730 C   0  0  0  0  0  0  0  0  0  0  0  0
  161.9180  210.4860  150.9560 C   0  0  0  0  0  3  0  0  0  0  0  0
  161.6590  206.6960  149.1490 C   0  0  0  0  0  0  0  0  0  0  0  0
  161.5870  204.3290  149.1330 O   0  0  0  0  0  0  0  0  0  0  0  0
  161.5480  205.3910  148.4510 C   0  0  0  0  0  0  0  0  0  0  0  0
  161.1200  205.0990  144.1900 C   0  0  0  0  0  3  0  0  0  0  0  0
  161.9180  204.1850  144.8810 C   0  0  0  0  0  3  0  0  0  0  0  0
  162.0490  204.2820  146.2690 C   0  0  0  0  0  3  0  0  0  0  0  0
  161.3780  205.2890  146.9810 C   0  0  0  0  0  0  0  0  0  0  0  0
  160.4550  206.1120  144.8850 C   0  0  0  0  0  3  0  0  0  0  0  0
  160.5860  206.2080  146.2730 C   0  0  0  0  0  3  0  0  0  0  0  0
  160.6350  205.7370  151.1670 N   0  0  0  0  0  2  0  0  0  0  0  0
  162.9700  204.8480  152.0590 O   0  0  0  0  0  0  0  0  0  0  0  0
  161.4930  204.7760  152.3280 S   0  0  0  0  0  0  0  0  0  0  0  0
  161.2050  205.2740  153.7170 O   0  0  0  0  0  0  0  0  0  0  0  0
  162.0650  202.2790  151.9350 F   0  0  0  0  0  0  0  0  0  0  0  0
  160.0720  202.9670  151.1280 F   0  0  0  0  0  0  0  0  0  0  0  0
  160.9680  203.0840  152.1740 C   0  0  0  0  0  3  0  0  0  0  0  0
  1  2  1  0  0  0  0
  2  9  2  0  0  0  0
  2  4  1  0  0  0  0
  3  5  2  0  0  0  0
  4  6  2  0  0  0  0
  6  5  1  0  0  0  0
  7  1  2  0  0  0  0
  7 10  1  0  0  0  0
  8  4  1  0  0  0  0
  8 19  1  0  0  0  0
  9  3  1  0  0  0  0
 10  8  2  0  0  0  0
 12 11  2  0  0  0  0
 12 10  1  0  0  0  0
 13 14  2  0  0  0  0
 13 17  1  0  0  0  0
 14 15  1  0  0  0  0
 15 16  2  0  0  0  0
 16 12  1  0  0  0  0
 17 18  2  0  0  0  0
 18 16  1  0  0  0  0
 19 21  1  0  0  0  0
 20 21  2  0  0  0  0
 21 22  2  0  0  0  0
 23 25  1  0  0  0  0
 24 25  1  0  0  0  0
 25 21  1  0  0  0  0
M  END
>  <MODEL>
8

>  <REMARK>
 VINA RESULT:      -8.1      3.263      7.093
  Name = 
  5 active torsions:
  status: ('A' for Active; 'I' for Inactive)
    1  A    between atoms: C_13  and  C_25
    2  A    between atoms: S_14  and  C_15
    3  A    between atoms: S_14  and  N_17
    4  A    between atoms: N_17  and  C_19
    5  A    between atoms: C_21  and  C_25
                            x       y       z     vdW  Elec       q    Type
                         _______ _______ _______ _____ _____    ______ ____

>  <TORSDO>
F 5

$$$$
=
 OpenBabel11072415263D

 25 27  0  0  0  0  0  0  0  0999 V2000
  162.2300  208.5300  148.2620 C   0  0  0  0  0  3  0  0  0  0  0  0
  161.7630  207.2260  148.3920 C   0  0  0  0  0  0  0  0  0  0  0  0
  161.4040  205.0680  147.4370 N   0  0  0  0  0  0  0  0  0  0  0  0
  161.2410  206.7740  149.6260 C   0  0  0  0  0  0  0  0  0  0  0  0
  160.9170  204.5960  148.6150 C   0  0  0  0  0  3  0  0  0  0  0  0
  160.8310  205.4380  149.7260 C   0  0  0  0  0  3  0  0  0  0  0  0
  162.1970  209.3930  149.3540 C   0  0  0  0  0  3  0  0  0  0  0  0
  161.1770  207.6600  150.7290 C   0  0  0  0  0  0  0  0  0  0  0  0
  161.8270  206.3530  147.3050 C   0  0  0  0  0  3  0  0  0  0  0  0
  161.6830  208.9760  150.5900 C   0  0  0  0  0  0  0  0  0  0  0  0
  162.7090  209.9530  152.4870 O   0  0  0  0  0  0  0  0  0  0  0  0
  161.6980  209.9250  151.7330 C   0  0  0  0  0  0  0  0  0  0  0  0
  158.4820  212.6480  152.5510 C   0  0  0  0  0  3  0  0  0  0  0  0
  159.4290  212.9510  151.5700 C   0  0  0  0  0  3  0  0  0  0  0  0
  160.4700  212.0580  151.3040 C   0  0  0  0  0  3  0  0  0  0  0  0
  160.5730  210.8500  152.0110 C   0  0  0  0  0  0  0  0  0  0  0  0
  158.5790  211.4540  153.2700 C   0  0  0  0  0  3  0  0  0  0  0  0
  159.6210  210.5610  153.0030 C   0  0  0  0  0  3  0  0  0  0  0  0
  160.6220  207.2590  151.9920 N   0  0  0  0  0  2  0  0  0  0  0  0
  160.8480  204.8790  153.1440 O   0  0  0  0  0  0  0  0  0  0  0  0
  161.4340  206.2630  153.1570 S   0  0  0  0  0  0  0  0  0  0  0  0
  162.9010  206.1960  152.8390 O   0  0  0  0  0  0  0  0  0  0  0  0
  159.8840  206.8050  155.1630 F   0  0  0  0  0  0  0  0  0  0  0  0
  161.5150  208.3090  154.7500 F   0  0  0  0  0  0  0  0  0  0  0  0
  161.2010  206.9640  154.7750 C   0  0  0  0  0  3  0  0  0  0  0  0
  1  2  2  0  0  0  0
  1  7  1  0  0  0  0
  2  4  1  0  0  0  0
  3  5  1  0  0  0  0
  4  6  1  0  0  0  0
  4  8  2  0  0  0  0
  5  6  2  0  0  0  0
  7 10  2  0  0  0  0
  8 19  1  0  0  0  0
  9  3  2  0  0  0  0
  9  2  1  0  0  0  0
 10  8  1  0  0  0  0
 10 12  1  0  0  0  0
 12 16  1  0  0  0  0
 12 11  2  0  0  0  0
 13 17  1  0  0  0  0
 14 13  2  0  0  0  0
 15 14  1  0  0  0  0
 15 16  2  0  0  0  0
 16 18  1  0  0  0  0
 18 17  2  0  0  0  0
 19 21  1  0  0  0  0
 20 21  2  0  0  0  0
 21 25  1  0  0  0  0
 22 21  2  0  0  0  0
 24 25  1  0  0  0  0
 25 23  1  0  0  0  0
M  END
>  <MODEL>
9

>  <REMARK>
 VINA RESULT:      -8.1      4.068      5.571
  Name = 
  5 active torsions:
  status: ('A' for Active; 'I' for Inactive)
    1  A    between atoms: C_13  and  C_25
    2  A    between atoms: S_14  and  C_15
    3  A    between atoms: S_14  and  N_17
    4  A    between atoms: N_17  and  C_19
    5  A    between atoms: C_21  and  C_25
                            x       y       z     vdW  Elec       q    Type
                         _______ _______ _______ _____ _____    ______ ____

>  <TORSDO>
F 5

$$$$
