=
 OpenBabel11072411373D

 25 29  0  0  1  0  0  0  0  0999 V2000
  160.8320  209.3100  151.2720 C   0  0  1  0  0  3  0  0  0  0  0  0
  160.9480  205.2800  153.9160 O   0  0  0  0  0  0  0  0  0  0  0  0
  161.5000  207.9980  157.0250 N   0  0  0  0  0  0  0  0  0  0  0  0
  161.3170  207.3770  152.8650 C   0  0  0  0  0  0  0  0  0  0  0  0
  161.8360  208.6930  150.3710 C   0  0  2  0  0  3  0  0  0  0  0  0
  160.1070  207.1560  155.1180 C   0  0  0  0  0  2  0  0  0  0  0  0
  161.0430  208.1230  155.7650 C   0  0  0  0  0  0  0  0  0  0  0  0
  162.3500  208.9870  157.2610 N   0  0  0  0  0  2  0  0  0  0  0  0
  161.3700  209.8120  153.7960 C   0  0  1  0  0  3  0  0  0  0  0  0
  161.6390  209.2160  155.1590 C   0  0  0  0  0  0  0  0  0  0  0  0
  162.8280  207.7300  151.0250 C   0  0  0  0  0  2  0  0  0  0  0  0
  162.4540  209.7340  156.1440 C   0  0  0  0  0  0  0  0  0  0  0  0
  160.7860  206.5290  153.9450 C   0  0  0  0  0  0  0  0  0  0  0  0
  162.1930  206.8990  152.0380 N   0  0  0  0  0  0  0  0  0  0  0  0
  160.8390  208.8030  152.7330 C   0  0  1  0  0  3  0  0  0  0  0  0
  162.0710  210.0300  150.9340 N   0  0  0  0  0  2  0  0  0  0  0  0
  157.6380  211.5650  154.3510 N   0  0  0  0  0  0  0  0  0  0  0  0
  157.1750  212.7350  155.0780 C   0  0  0  0  0  1  0  0  0  0  0  0
  158.4100  210.7370  155.2910 C   0  0  0  0  0  2  0  0  0  0  0  0
  159.5590  211.0960  152.8540 C   0  0  0  0  0  2  0  0  0  0  0  0
  160.5190  211.0030  153.9600 N   0  0  0  0  0  0  0  0  0  0  0  0
  159.9070  211.0810  155.3020 C   0  0  0  0  0  2  0  0  0  0  0  0
  158.4230  212.0520  153.2090 C   0  0  0  0  0  2  0  0  0  0  0  0
  163.2680  210.9780  156.0500 C   0  0  0  0  0  2  0  0  0  0  0  0
  164.0480  211.1150  157.1980 O   0  0  0  0  0  1  0  0  0  0  0  0
  1 16  1  1  0  0  0
  1 15  1  0  0  0  0
  2 13  2  0  0  0  0
  3  8  1  0  0  0  0
  4 13  1  0  0  0  0
  5 16  1  0  0  0  0
  5 11  1  1  0  0  0
  5  1  1  0  0  0  0
  6  7  1  0  0  0  0
  7  3  2  0  0  0  0
  9 21  1  1  0  0  0
  9 10  1  0  0  0  0
 10  7  1  0  0  0  0
 10 12  2  0  0  0  0
 11 14  1  0  0  0  0
 12  8  1  0  0  0  0
 13  6  1  0  0  0  0
 14  4  2  0  0  0  0
 15  4  1  6  0  0  0
 15  9  1  0  0  0  0
 17 18  1  0  0  0  0
 17 19  1  0  0  0  0
 19 22  1  0  0  0  0
 20 23  1  0  0  0  0
 20 21  1  0  0  0  0
 21 22  1  0  0  0  0
 23 17  1  0  0  0  0
 24 12  1  0  0  0  0
 24 25  1  0  0  0  0
M  END
>  <MODEL>
1

>  <REMARK>
 VINA RESULT:      -5.8      0.000      0.000
  Name = 
  2 active torsions:
  status: ('A' for Active; 'I' for Inactive)
    1  A    between atoms: C_1  and  C_15
    2  A    between atoms: C_11  and  N_21
                            x       y       z     vdW  Elec       q    Type
                         _______ _______ _______ _____ _____    ______ ____

>  <TORSDO>
F 2

$$$$
=
 OpenBabel11072411373D

 25 29  0  0  1  0  0  0  0  0999 V2000
  161.5800  209.8220  155.3540 C   0  0  1  0  0  3  0  0  0  0  0  0
  157.5630  211.6860  157.2610 O   0  0  0  0  0  0  0  0  0  0  0  0
  156.9670  212.9770  153.3440 N   0  0  0  0  0  0  0  0  0  0  0  0
  159.6000  211.2340  156.1290 C   0  0  0  0  0  0  0  0  0  0  0  0
  162.3440  210.4650  156.4520 C   0  0  2  0  0  3  0  0  0  0  0  0
  157.3160  211.0980  154.9660 C   0  0  0  0  0  2  0  0  0  0  0  0
  157.7580  212.0350  153.8910 C   0  0  2  0  0  3  0  0  0  0  0  0
  157.6850  213.6670  152.4690 N   0  0  0  0  0  0  0  0  0  0  0  0
  160.2320  211.2430  153.5990 C   0  0  1  0  0  3  0  0  0  0  0  0
  159.0360  212.1380  153.3700 C   0  0  0  0  0  0  0  0  0  0  0  0
  161.7830  211.7860  156.9820 C   0  0  0  0  0  2  0  0  0  0  0  0
  158.9420  213.1810  152.4710 C   0  0  0  0  0  0  0  0  0  0  0  0
  158.1330  211.3400  156.1930 C   0  0  0  0  0  0  0  0  0  0  0  0
  160.3280  211.7680  157.0590 N   0  0  0  0  0  0  0  0  0  0  0  0
  160.2470  210.5070  154.9740 C   0  0  1  0  0  3  0  0  0  0  0  0
  162.7410  210.6760  155.0530 N   0  0  0  0  0  2  0  0  0  0  0  0
  162.1720  208.1250  151.6440 N   0  0  0  0  0  0  0  0  0  0  0  0
  161.7230  207.0470  150.7780 C   0  0  0  0  0  1  0  0  0  0  0  0
  161.3610  208.0730  152.8710 C   0  0  0  0  0  2  0  0  0  0  0  0
  161.6790  210.5500  151.7980 C   0  0  0  0  0  2  0  0  0  0  0  0
  160.3780  210.3410  152.4430 N   0  0  0  0  0  0  0  0  0  0  0  0
  160.0910  208.9330  152.7860 C   0  0  0  0  0  2  0  0  0  0  0  0
  162.0210  209.3740  150.8860 C   0  0  0  0  0  2  0  0  0  0  0  0
  160.0190  213.6620  151.5630 C   0  0  0  0  0  2  0  0  0  0  0  0
  159.7060  213.3260  150.2460 O   0  0  0  0  0  1  0  0  0  0  0  0
  1 16  1  6  0  0  0
  1  5  1  0  0  0  0
  3  7  1  0  0  0  0
  4 13  1  0  0  0  0
  4 14  2  0  0  0  0
  5 11  1  6  0  0  0
  6 13  1  0  0  0  0
  7  6  1  1  0  0  0
  8 12  1  0  0  0  0
  8  3  2  0  0  0  0
  9 21  1  6  0  0  0
  9 15  1  0  0  0  0
 10  9  1  0  0  0  0
 10  7  1  0  0  0  0
 11 14  1  0  0  0  0
 12 10  2  0  0  0  0
 13  2  2  0  0  0  0
 15  1  1  0  0  0  0
 15  4  1  1  0  0  0
 16  5  1  0  0  0  0
 17 19  1  0  0  0  0
 18 17  1  0  0  0  0
 20 21  1  0  0  0  0
 21 22  1  0  0  0  0
 22 19  1  0  0  0  0
 23 17  1  0  0  0  0
 23 20  1  0  0  0  0
 24 12  1  0  0  0  0
 25 24  1  0  0  0  0
M  END
>  <MODEL>
2

>  <REMARK>
 VINA RESULT:      -5.3      2.638      5.807
  Name = 
  2 active torsions:
  status: ('A' for Active; 'I' for Inactive)
    1  A    between atoms: C_1  and  C_15
    2  A    between atoms: C_11  and  N_21
                            x       y       z     vdW  Elec       q    Type
                         _______ _______ _______ _____ _____    ______ ____

>  <TORSDO>
F 2

$$$$
=
 OpenBabel11072411373D

 25 29  0  0  1  0  0  0  0  0999 V2000
  159.2770  211.4260  152.5830 C   0  0  1  0  0  3  0  0  0  0  0  0
  161.2380  207.0210  152.5510 O   0  0  0  0  0  0  0  0  0  0  0  0
  161.8890  207.8870  156.5740 N   0  0  0  0  0  0  0  0  0  0  0  0
  160.7050  209.3210  152.7960 C   0  0  0  0  0  0  0  0  0  0  0  0
  160.1120  211.7560  151.4020 C   0  0  2  0  0  3  0  0  0  0  0  0
  160.2960  207.6030  154.6590 C   0  0  0  0  0  2  0  0  0  0  0  0
  161.0760  208.4150  155.6400 C   0  0  0  0  0  0  0  0  0  0  0  0
  162.4670  208.8810  157.2340 N   0  0  0  0  0  2  0  0  0  0  0  0
  160.3540  210.8170  154.9040 C   0  0  1  0  0  3  0  0  0  0  0  0
  161.1520  209.7960  155.6820 C   0  0  0  0  0  0  0  0  0  0  0  0
  161.4730  211.0610  151.3220 C   0  0  0  0  0  2  0  0  0  0  0  0
  162.0410  210.0450  156.7070 C   0  0  0  0  0  0  0  0  0  0  0  0
  160.7570  207.9310  153.2770 C   0  0  0  0  0  0  0  0  0  0  0  0
  161.4050  209.6760  151.7650 N   0  0  0  0  0  0  0  0  0  0  0  0
  159.8390  210.3280  153.5160 C   0  0  1  0  0  3  0  0  0  0  0  0
  160.1240  212.6310  152.5820 N   0  0  0  0  0  2  0  0  0  0  0  0
  156.8500  212.9930  155.4440 N   0  0  0  0  0  0  0  0  0  0  0  0
  155.7040  212.8500  156.3260 C   0  0  0  0  0  1  0  0  0  0  0  0
  157.0330  211.7110  154.7470 C   0  0  0  0  0  2  0  0  0  0  0  0
  159.3060  212.8210  155.7430 C   0  0  0  0  0  2  0  0  0  0  0  0
  159.2940  211.3530  155.7740 N   0  0  0  0  0  0  0  0  0  0  0  0
  157.9740  210.7520  155.4920 C   0  0  0  0  0  2  0  0  0  0  0  0
  157.9920  213.3790  156.2830 C   0  0  0  0  0  2  0  0  0  0  0  0
  162.4220  211.3840  157.2370 C   0  0  0  0  0  2  0  0  0  0  0  0
  163.8090  211.5240  157.2020 O   0  0  0  0  0  1  0  0  0  0  0  0
  1 16  1  1  0  0  0
  1 15  1  0  0  0  0
  2 13  2  0  0  0  0
  3  8  1  0  0  0  0
  4 13  1  0  0  0  0
  5 11  1  1  0  0  0
  5 16  1  0  0  0  0
  5  1  1  0  0  0  0
  6  7  1  0  0  0  0
  7 10  1  0  0  0  0
  7  3  2  0  0  0  0
  9 10  1  0  0  0  0
  9 21  1  1  0  0  0
 10 12  2  0  0  0  0
 11 14  1  0  0  0  0
 12  8  1  0  0  0  0
 12 24  1  0  0  0  0
 13  6  1  0  0  0  0
 14  4  2  0  0  0  0
 15  4  1  6  0  0  0
 15  9  1  0  0  0  0
 17 23  1  0  0  0  0
 17 18  1  0  0  0  0
 19 17  1  0  0  0  0
 19 22  1  0  0  0  0
 20 21  1  0  0  0  0
 20 23  1  0  0  0  0
 22 21  1  0  0  0  0
 25 24  1  0  0  0  0
M  END
>  <MODEL>
3

>  <REMARK>
 VINA RESULT:      -5.2      1.480      2.215
  Name = 
  2 active torsions:
  status: ('A' for Active; 'I' for Inactive)
    1  A    between atoms: C_1  and  C_15
    2  A    between atoms: C_11  and  N_21
                            x       y       z     vdW  Elec       q    Type
                         _______ _______ _______ _____ _____    ______ ____

>  <TORSDO>
F 2

$$$$
=
 OpenBabel11072411373D

 25 29  0  0  1  0  0  0  0  0999 V2000
  160.0150  211.8240  152.7220 C   0  0  1  0  0  3  0  0  0  0  0  0
  161.3790  212.7130  157.2600 O   0  0  0  0  0  0  0  0  0  0  0  0
  162.2600  208.6410  157.2050 N   0  0  0  0  0  0  0  0  0  0  0  0
  160.4500  211.8930  155.2350 C   0  0  0  0  0  0  0  0  0  0  0  0
  158.7330  212.5070  153.0220 C   0  0  2  0  0  3  0  0  0  0  0  0
  162.6030  210.9350  156.2540 C   0  0  0  0  0  2  0  0  0  0  0  0
  162.0470  209.5490  156.2340 C   0  0  0  0  0  0  0  0  0  0  0  0
  161.5800  207.5430  156.9050 N   0  0  0  0  0  2  0  0  0  0  0  0
  160.7340  209.6270  153.9750 C   0  0  1  0  0  3  0  0  0  0  0  0
  161.1820  209.0270  155.2880 C   0  0  0  0  0  0  0  0  0  0  0  0
  158.2250  212.3860  154.4610 C   0  0  0  0  0  2  0  0  0  0  0  0
  160.9170  207.7550  155.7520 C   0  0  0  0  0  0  0  0  0  0  0  0
  161.4740  211.9130  156.2920 C   0  0  0  0  0  0  0  0  0  0  0  0
  159.3080  212.4750  155.4300 N   0  0  0  0  0  0  0  0  0  0  0  0
  160.7360  211.1860  153.9320 C   0  0  1  0  0  3  0  0  0  0  0  0
  158.7330  211.1600  152.4330 N   0  0  0  0  0  2  0  0  0  0  0  0
  161.5140  209.1010  149.9230 N   0  0  0  0  0  0  0  0  0  0  0  0
  162.7270  208.8830  149.1530 C   0  0  0  0  0  1  0  0  0  0  0  0
  161.7240  210.3010  150.7480 C   0  0  0  0  0  2  0  0  0  0  0  0
  160.6140  208.1860  152.0450 C   0  0  0  0  0  2  0  0  0  0  0  0
  161.5000  209.0030  152.8830 N   0  0  0  0  0  0  0  0  0  0  0  0
  162.3110  209.9820  152.1310 C   0  0  0  0  0  2  0  0  0  0  0  0
  161.2760  207.8800  150.7040 C   0  0  0  0  0  2  0  0  0  0  0  0
  160.0990  206.7190  155.0620 C   0  0  0  0  0  2  0  0  0  0  0  0
  160.9280  205.9040  154.2920 O   0  0  0  0  0  1  0  0  0  0  0  0
  1 16  1  6  0  0  0
  1  5  1  0  0  0  0
  1 15  1  0  0  0  0
  4 14  2  0  0  0  0
  4 13  1  0  0  0  0
  5 11  1  1  0  0  0
  6 13  1  0  0  0  0
  7  6  1  0  0  0  0
  7  3  2  0  0  0  0
  8  3  1  0  0  0  0
  9 21  1  6  0  0  0
  9 10  1  0  0  0  0
 10 12  2  0  0  0  0
 10  7  1  0  0  0  0
 11 14  1  0  0  0  0
 12  8  1  0  0  0  0
 13  2  2  0  0  0  0
 15  9  1  0  0  0  0
 15  4  1  1  0  0  0
 16  5  1  0  0  0  0
 17 23  1  0  0  0  0
 17 19  1  0  0  0  0
 18 17  1  0  0  0  0
 19 22  1  0  0  0  0
 20 21  1  0  0  0  0
 22 21  1  0  0  0  0
 23 20  1  0  0  0  0
 24 12  1  0  0  0  0
 25 24  1  0  0  0  0
M  END
>  <MODEL>
4

>  <REMARK>
 VINA RESULT:      -4.4      1.405      5.000
  Name = 
  2 active torsions:
  status: ('A' for Active; 'I' for Inactive)
    1  A    between atoms: C_1  and  C_15
    2  A    between atoms: C_11  and  N_21
                            x       y       z     vdW  Elec       q    Type
                         _______ _______ _______ _____ _____    ______ ____

>  <TORSDO>
F 2

$$$$
=
 OpenBabel11072411373D

 25 29  0  0  1  0  0  0  0  0999 V2000
  158.2210  211.2790  139.9470 C   0  0  1  0  0  3  0  0  0  0  0  0
  161.5190  208.0280  138.6020 O   0  0  0  0  0  0  0  0  0  0  0  0
  164.0860  211.2840  139.0100 N   0  0  0  0  0  0  0  0  0  0  0  0
  160.1070  209.9130  138.9010 C   0  0  0  0  0  0  0  0  0  0  0  0
  157.4040  210.8640  138.7800 C   0  0  2  0  0  3  0  0  0  0  0  0
  162.4080  209.7200  140.0220 C   0  0  0  0  0  2  0  0  0  0  0  0
  162.8420  211.0330  139.4570 C   0  0  2  0  0  3  0  0  0  0  0  0
  164.1140  212.5180  138.5250 N   0  0  0  0  0  0  0  0  0  0  0  0
  160.5990  212.3630  139.6480 C   0  0  1  0  0  3  0  0  0  0  0  0
  162.0330  212.1340  139.2300 C   0  0  0  0  0  0  0  0  0  0  0  0
  158.1780  210.3980  137.5450 C   0  0  0  0  0  2  0  0  0  0  0  0
  162.8820  213.0490  138.6430 C   0  0  0  0  0  0  0  0  0  0  0  0
  161.3370  209.1450  139.1550 C   0  0  0  0  0  0  0  0  0  0  0  0
  159.3430  209.6000  137.9020 N   0  0  0  0  0  0  0  0  0  0  0  0
  159.7470  211.0670  139.8070 C   0  0  1  0  0  3  0  0  0  0  0  0
  157.7180  212.2830  138.9960 N   0  0  0  0  0  2  0  0  0  0  0  0
  159.0770  213.3860  143.3830 N   0  0  0  0  0  0  0  0  0  0  0  0
  159.6670  213.9330  144.5930 C   0  0  0  0  0  1  0  0  0  0  0  0
  159.8610  212.1980  143.0070 C   0  0  0  0  0  2  0  0  0  0  0  0
  159.2830  213.8960  140.9650 C   0  0  0  0  0  2  0  0  0  0  0  0
  160.5840  213.2310  140.8380 N   0  0  0  0  0  0  0  0  0  0  0  0
  161.0250  212.5240  142.0580 C   0  0  0  0  0  2  0  0  0  0  0  0
  159.1000  214.4530  142.3740 C   0  0  0  0  0  2  0  0  0  0  0  0
  162.5430  214.4500  138.2670 C   0  0  0  0  0  2  0  0  0  0  0  0
  161.8140  214.4530  137.0790 O   0  0  0  0  0  1  0  0  0  0  0  0
  1 16  1  6  0  0  0
  2 13  2  0  0  0  0
  3  7  1  0  0  0  0
  4 13  1  0  0  0  0
  5 11  1  6  0  0  0
  5 16  1  0  0  0  0
  5  1  1  0  0  0  0
  7  6  1  6  0  0  0
  8 12  1  0  0  0  0
  8  3  2  0  0  0  0
  9 15  1  0  0  0  0
  9 21  1  1  0  0  0
 10  7  1  0  0  0  0
 10  9  1  0  0  0  0
 11 14  1  0  0  0  0
 12 10  2  0  0  0  0
 13  6  1  0  0  0  0
 14  4  2  0  0  0  0
 15  4  1  6  0  0  0
 15  1  1  0  0  0  0
 17 18  1  0  0  0  0
 19 17  1  0  0  0  0
 20 23  1  0  0  0  0
 21 20  1  0  0  0  0
 21 22  1  0  0  0  0
 22 19  1  0  0  0  0
 23 17  1  0  0  0  0
 24 12  1  0  0  0  0
 25 24  1  0  0  0  0
M  END
>  <MODEL>
5

>  <REMARK>
 VINA RESULT:      -4.4     11.992     14.866
  Name = 
  2 active torsions:
  status: ('A' for Active; 'I' for Inactive)
    1  A    between atoms: C_1  and  C_15
    2  A    between atoms: C_11  and  N_21
                            x       y       z     vdW  Elec       q    Type
                         _______ _______ _______ _____ _____    ______ ____

>  <TORSDO>
F 2

$$$$
=
 OpenBabel11072411373D

 25 29  0  0  1  0  0  0  0  0999 V2000
  162.3090  206.9040  151.1770 C   0  0  1  0  0  3  0  0  0  0  0  0
  161.9670  210.2300  147.7030 O   0  0  0  0  0  0  0  0  0  0  0  0
  160.4810  212.5440  150.8320 N   0  0  0  0  0  0  0  0  0  0  0  0
  161.6550  208.7230  149.5100 C   0  0  0  0  0  0  0  0  0  0  0  0
  161.5940  205.9610  150.2810 C   0  0  2  0  0  3  0  0  0  0  0  0
  162.3390  211.1730  149.8580 C   0  0  0  0  0  2  0  0  0  0  0  0
  161.1960  211.4050  150.7910 C   0  0  0  0  0  0  0  0  0  0  0  0
  159.5120  212.3950  151.7250 N   0  0  0  0  0  2  0  0  0  0  0  0
  161.1700  209.1100  152.0440 C   0  0  1  0  0  3  0  0  0  0  0  0
  160.6560  210.4820  151.6690 C   0  0  0  0  0  0  0  0  0  0  0  0
  160.5720  206.5810  149.3260 C   0  0  0  0  0  2  0  0  0  0  0  0
  159.5950  211.1530  152.2400 C   0  0  0  0  0  0  0  0  0  0  0  0
  162.0030  210.0370  148.9470 C   0  0  0  0  0  0  0  0  0  0  0  0
  161.0360  207.8490  148.7800 N   0  0  0  0  0  0  0  0  0  0  0  0
  162.0180  208.4040  150.9420 C   0  0  1  0  0  3  0  0  0  0  0  0
  161.1170  206.1820  151.6530 N   0  0  0  0  0  2  0  0  0  0  0  0
  161.1720  210.1210  156.0790 N   0  0  0  0  0  0  0  0  0  0  0  0
  161.7860  209.5390  157.2610 C   0  0  0  0  0  1  0  0  0  0  0  0
  160.4170  209.0550  155.4020 C   0  0  0  0  0  2  0  0  0  0  0  0
  161.9490  210.6000  153.7730 C   0  0  0  0  0  2  0  0  0  0  0  0
  161.8490  209.1990  153.3480 N   0  0  0  0  0  0  0  0  0  0  0  0
  161.2530  208.3000  154.3570 C   0  0  0  0  0  2  0  0  0  0  0  0
  162.2570  210.6860  155.2660 C   0  0  0  0  0  2  0  0  0  0  0  0
  158.7130  210.6460  153.3280 C   0  0  0  0  0  2  0  0  0  0  0  0
  158.3640  211.6950  154.1770 O   0  0  0  0  0  1  0  0  0  0  0  0
  1 16  1  1  0  0  0
  2 13  2  0  0  0  0
  3  8  1  0  0  0  0
  5 11  1  6  0  0  0
  5  1  1  0  0  0  0
  5 16  1  0  0  0  0
  6  7  1  0  0  0  0
  7  3  2  0  0  0  0
  7 10  1  0  0  0  0
  8 12  1  0  0  0  0
  9 21  1  1  0  0  0
 10  9  1  0  0  0  0
 10 12  2  0  0  0  0
 12 24  1  0  0  0  0
 13  4  1  0  0  0  0
 13  6  1  0  0  0  0
 14 11  1  0  0  0  0
 14  4  2  0  0  0  0
 15  4  1  6  0  0  0
 15  1  1  0  0  0  0
 15  9  1  0  0  0  0
 17 18  1  0  0  0  0
 19 17  1  0  0  0  0
 20 23  1  0  0  0  0
 21 20  1  0  0  0  0
 21 22  1  0  0  0  0
 22 19  1  0  0  0  0
 23 17  1  0  0  0  0
 24 25  1  0  0  0  0
M  END
>  <MODEL>
6

>  <REMARK>
 VINA RESULT:      -3.7      2.724      4.847
  Name = 
  2 active torsions:
  status: ('A' for Active; 'I' for Inactive)
    1  A    between atoms: C_1  and  C_15
    2  A    between atoms: C_11  and  N_21
                            x       y       z     vdW  Elec       q    Type
                         _______ _______ _______ _____ _____    ______ ____

>  <TORSDO>
F 2

$$$$
=
 OpenBabel11072411373D

 25 29  0  0  1  0  0  0  0  0999 V2000
  161.7830  206.8900  153.5070 C   0  0  1  0  0  3  0  0  0  0  0  0
  162.1830  209.0360  149.2070 O   0  0  0  0  0  0  0  0  0  0  0  0
  160.1030  212.0770  151.1520 N   0  0  0  0  0  0  0  0  0  0  0  0
  161.4970  208.1060  151.2810 C   0  0  0  0  0  0  0  0  0  0  0  0
  161.2610  205.6900  152.8080 C   0  0  2  0  0  3  0  0  0  0  0  0
  162.1120  210.5850  151.0150 C   0  0  0  0  0  2  0  0  0  0  0  0
  160.8040  211.0160  151.5920 C   0  0  0  0  0  0  0  0  0  0  0  0
  158.9710  212.1430  151.8390 N   0  0  0  0  0  2  0  0  0  0  0  0
  160.5060  209.1880  153.4380 C   0  0  1  0  0  3  0  0  0  0  0  0
  160.0890  210.3610  152.5800 C   0  0  0  0  0  0  0  0  0  0  0  0
  160.4600  205.9480  151.5300 C   0  0  0  0  0  2  0  0  0  0  0  0
  158.9390  211.1120  152.7050 C   0  0  0  0  0  0  0  0  0  0  0  0
  161.9620  209.2170  150.4340 C   0  0  0  0  0  0  0  0  0  0  0  0
  161.0350  207.0260  150.7360 N   0  0  0  0  0  0  0  0  0  0  0  0
  161.5570  208.2390  152.7850 C   0  0  1  0  0  3  0  0  0  0  0  0
  160.5140  206.2750  153.9300 N   0  0  0  0  0  2  0  0  0  0  0  0
  163.4310  210.0690  156.2630 N   0  0  0  0  0  0  0  0  0  0  0  0
  163.5840  211.1170  157.2580 C   0  0  0  0  0  1  0  0  0  0  0  0
  163.1810  210.7230  154.9680 C   0  0  0  0  0  2  0  0  0  0  0  0
  161.5520  208.6230  155.5360 C   0  0  0  0  0  2  0  0  0  0  0  0
  160.9050  209.6900  154.7640 N   0  0  0  0  0  0  0  0  0  0  0  0
  161.6870  210.9400  154.6840 C   0  0  0  0  0  2  0  0  0  0  0  0
  162.3300  209.2070  156.7120 C   0  0  0  0  0  2  0  0  0  0  0  0
  157.8490  210.8950  153.6970 C   0  0  0  0  0  2  0  0  0  0  0  0
  158.1280  211.6080  154.8630 O   0  0  0  0  0  1  0  0  0  0  0  0
  1 16  1  1  0  0  0
  2 13  2  0  0  0  0
  3  7  2  0  0  0  0
  3  8  1  0  0  0  0
  5 11  1  6  0  0  0
  5  1  1  0  0  0  0
  5 16  1  0  0  0  0
  6  7  1  0  0  0  0
  7 10  1  0  0  0  0
  8 12  1  0  0  0  0
  9 21  1  1  0  0  0
 10 12  2  0  0  0  0
 10  9  1  0  0  0  0
 12 24  1  0  0  0  0
 13  6  1  0  0  0  0
 13  4  1  0  0  0  0
 14  4  2  0  0  0  0
 14 11  1  0  0  0  0
 15  4  1  6  0  0  0
 15  9  1  0  0  0  0
 15  1  1  0  0  0  0
 17 23  1  0  0  0  0
 17 18  1  0  0  0  0
 19 17  1  0  0  0  0
 20 23  1  0  0  0  0
 21 20  1  0  0  0  0
 22 21  1  0  0  0  0
 22 19  1  0  0  0  0
 24 25  1  0  0  0  0
M  END
>  <MODEL>
7

>  <REMARK>
 VINA RESULT:      -3.5      2.383      4.786
  Name = 
  2 active torsions:
  status: ('A' for Active; 'I' for Inactive)
    1  A    between atoms: C_1  and  C_15
    2  A    between atoms: C_11  and  N_21
                            x       y       z     vdW  Elec       q    Type
                         _______ _______ _______ _____ _____    ______ ____

>  <TORSDO>
F 2

$$$$
=
 OpenBabel11072411373D

 25 29  0  0  1  0  0  0  0  0999 V2000
  161.3140  206.2030  146.8550 C   0  0  1  0  0  3  0  0  0  0  0  0
  160.4580  201.5530  147.7970 O   0  0  0  0  0  0  0  0  0  0  0  0
  160.9750  202.8280  151.7300 N   0  0  0  0  0  0  0  0  0  0  0  0
  161.2790  203.7750  147.6380 C   0  0  0  0  0  0  0  0  0  0  0  0
  162.3300  205.7680  145.8650 C   0  0  2  0  0  3  0  0  0  0  0  0
  159.7500  203.0010  149.5500 C   0  0  0  0  0  2  0  0  0  0  0  0
  160.7220  203.4780  150.5790 C   0  0  0  0  0  0  0  0  0  0  0  0
  161.9240  203.4880  152.3810 N   0  0  0  0  0  2  0  0  0  0  0  0
  161.5670  205.6620  149.4160 C   0  0  1  0  0  3  0  0  0  0  0  0
  161.5520  204.5800  150.4720 C   0  0  0  0  0  0  0  0  0  0  0  0
  163.0660  204.4650  146.1810 C   0  0  0  0  0  2  0  0  0  0  0  0
  162.2920  204.5490  151.6360 C   0  0  0  0  0  0  0  0  0  0  0  0
  160.4830  202.7160  148.2800 C   0  0  0  0  0  0  0  0  0  0  0  0
  162.1790  203.4650  146.7600 N   0  0  0  0  0  0  0  0  0  0  0  0
  161.0430  205.2180  148.0160 C   0  0  1  0  0  3  0  0  0  0  0  0
  162.6820  206.7460  146.9030 N   0  0  0  0  0  2  0  0  0  0  0  0
  161.5560  209.0710  151.8000 N   0  0  0  0  0  0  0  0  0  0  0  0
  160.9580  210.3890  151.6660 C   0  0  0  0  0  1  0  0  0  0  0  0
  162.3310  208.8110  150.5760 C   0  0  0  0  0  2  0  0  0  0  0  0
  160.7610  206.7550  151.4090 C   0  0  0  0  0  2  0  0  0  0  0  0
  160.8900  206.8560  149.9510 N   0  0  0  0  0  0  0  0  0  0  0  0
  161.5090  208.1130  149.4820 C   0  0  0  0  0  2  0  0  0  0  0  0
  160.4560  208.1220  152.0160 C   0  0  0  0  0  2  0  0  0  0  0  0
  163.2880  205.5650  152.0750 C   0  0  0  0  0  2  0  0  0  0  0  0
  162.8620  206.1560  153.2630 O   0  0  0  0  0  1  0  0  0  0  0  0
  1 16  1  1  0  0  0
  1 15  1  0  0  0  0
  2 13  2  0  0  0  0
  3  8  1  0  0  0  0
  4 13  1  0  0  0  0
  5 11  1  1  0  0  0
  5  1  1  0  0  0  0
  5 16  1  0  0  0  0
  6  7  1  0  0  0  0
  7  3  2  0  0  0  0
  9 21  1  1  0  0  0
  9 10  1  0  0  0  0
 10  7  1  0  0  0  0
 10 12  2  0  0  0  0
 11 14  1  0  0  0  0
 12 24  1  0  0  0  0
 12  8  1  0  0  0  0
 13  6  1  0  0  0  0
 14  4  2  0  0  0  0
 15  4  1  6  0  0  0
 15  9  1  0  0  0  0
 17 23  1  0  0  0  0
 18 17  1  0  0  0  0
 19 17  1  0  0  0  0
 20 23  1  0  0  0  0
 21 20  1  0  0  0  0
 22 21  1  0  0  0  0
 22 19  1  0  0  0  0
 24 25  1  0  0  0  0
M  END
>  <MODEL>
8

>  <REMARK>
 VINA RESULT:      -3.1      4.126      6.249
  Name = 
  2 active torsions:
  status: ('A' for Active; 'I' for Inactive)
    1  A    between atoms: C_1  and  C_15
    2  A    between atoms: C_11  and  N_21
                            x       y       z     vdW  Elec       q    Type
                         _______ _______ _______ _____ _____    ______ ____

>  <TORSDO>
F 2

$$$$
