=
 OpenBabel11072414323D

 36 39  0  0  1  0  0  0  0  0999 V2000
  158.8550  213.5470  149.6230 C   0  0  0  0  0  0  0  0  0  0  0  0
  161.2880  209.8360  149.6290 C   0  0  0  0  0  2  0  0  0  0  0  0
  160.7540  210.2430  151.9600 N   0  0  0  0  0  2  0  0  0  0  0  0
  159.1070  212.5430  155.1300 C   0  0  0  0  0  3  0  0  0  0  0  0
  160.6960  214.0440  151.1170 F   0  0  0  0  0  0  0  0  0  0  0  0
  162.4510  207.9590  148.3140 C   0  0  0  0  0  1  0  0  0  0  0  0
  162.3300  209.4080  148.6360 C   0  0  0  0  0  0  0  0  0  0  0  0
  156.2330  214.2170  152.9310 C   0  0  0  0  0  0  0  0  0  0  0  0
  155.7010  214.4530  156.6930 S   0  0  0  0  0  0  0  0  0  0  0  0
  157.4590  213.5060  149.4310 C   0  0  0  0  0  0  0  0  0  0  0  0
  154.5050  214.1550  154.1900 N   0  0  0  0  0  0  0  0  0  0  0  0
  163.0740  211.7700  148.1310 C   0  0  0  0  0  2  0  0  0  0  0  0
  155.9800  212.6780  156.8320 C   0  0  0  0  0  0  0  0  0  0  0  0
  154.8930  214.0600  152.9260 N   0  0  0  0  0  0  0  0  0  0  0  0
  156.5920  213.7630  150.4990 C   0  0  0  0  0  3  0  0  0  0  0  0
  161.7910  212.3610  147.5700 C   0  0  0  0  0  2  0  0  0  0  0  0
  158.1980  211.6710  155.8910 C   0  0  0  0  0  0  0  0  0  0  0  0
  161.2120  209.9660  153.3110 C   0  0  0  0  0  2  0  0  0  0  0  0
  160.0810  212.0080  154.3910 C   0  0  0  0  0  3  0  0  0  0  0  0
  162.7550  211.0570  151.0820 O   0  0  0  0  0  1  0  0  0  0  0  0
  159.3620  213.9440  150.8810 C   0  0  0  0  0  0  0  0  0  0  0  0
  159.5010  209.7170  155.0490 C   0  0  0  0  0  3  0  0  0  0  0  0
  160.2490  210.5390  154.2970 C   0  0  0  0  0  0  0  0  0  0  0  0
  156.6830  214.4260  154.1420 O   0  0  0  0  0  0  0  0  0  0  0  0
  155.6240  214.3700  154.9070 C   0  0  0  0  0  0  0  0  0  0  0  0
  163.1080  210.2760  147.9670 C   0  0  0  0  0  3  0  0  0  0  0  0
  156.9300  213.1790  148.1860 O   0  0  0  0  0  1  0  0  0  0  0  0
  157.1020  212.1690  156.3950 C   0  0  0  0  0  0  0  0  0  0  0  0
  158.4890  214.1960  151.9350 C   0  0  0  0  0  3  0  0  0  0  0  0
  160.9670  212.8590  148.7030 C   0  0  0  0  0  3  0  0  0  0  0  0
  161.8540  209.9910  151.0390 C   0  0  2  0  0  3  0  0  0  0  0  0
  157.1060  214.0890  151.7610 C   0  0  0  0  0  0  0  0  0  0  0  0
  158.5330  210.2220  156.0900 C   0  0  0  0  0  2  0  0  0  0  0  0
  159.7110  213.1210  148.5480 N   0  0  0  0  0  0  0  0  0  0  0  0
  154.9350  211.8010  157.2610 N   0  0  0  0  0  2  0  0  0  0  0  0
  154.6930  210.5120  156.6340 C   0  0  0  0  0  1  0  0  0  0  0  0
  1 21  1  0  0  0  0
  2 31  1  0  0  0  0
  3 18  1  0  0  0  0
  4 17  1  0  0  0  0
  6  7  1  0  0  0  0
  7  2  1  0  0  0  0
  8 24  1  0  0  0  0
  9 13  1  0  0  0  0
 10  1  2  0  0  0  0
 10 15  1  0  0  0  0
 11 25  2  0  0  0  0
 13 35  1  0  0  0  0
 14  8  2  0  0  0  0
 14 11  1  0  0  0  0
 15 32  2  0  0  0  0
 16 12  1  0  0  0  0
 16 30  1  0  0  0  0
 17 33  1  0  0  0  0
 17 28  2  0  0  0  0
 18 23  1  0  0  0  0
 19  4  2  0  0  0  0
 21  5  1  0  0  0  0
 21 29  2  0  0  0  0
 22 33  1  0  0  0  0
 23 19  1  0  0  0  0
 23 22  2  0  0  0  0
 24 25  1  0  0  0  0
 25  9  1  0  0  0  0
 26 12  1  0  0  0  0
 26  7  2  0  0  0  0
 27 10  1  0  0  0  0
 28 13  2  0  0  0  0
 31 20  1  6  0  0  0
 31  3  1  0  0  0  0
 32 29  1  0  0  0  0
 32  8  1  0  0  0  0
 34 30  2  0  0  0  0
 34  1  1  0  0  0  0
 36 35  1  0  0  0  0
M  END
>  <MODEL>
1

>  <REMARK>
 VINA RESULT:      -2.6      0.000      0.000
  Name = 
  1 active torsions:
  status: ('A' for Active; 'I' for Inactive)
    1  A    between atoms: C_13  and  N_22
                            x       y       z     vdW  Elec       q    Type
                         _______ _______ _______ _____ _____    ______ ____

>  <TORSDO>
F 1

$$$$
=
 OpenBabel11072414323D

 36 39  0  0  1  0  0  0  0  0999 V2000
  160.5720  210.1650  153.6430 C   0  0  0  0  0  0  0  0  0  0  0  0
  156.3970  211.2630  154.6680 C   0  0  0  0  0  2  0  0  0  0  0  0
  156.9180  212.5560  152.6830 N   0  0  0  0  0  2  0  0  0  0  0  0
  159.5420  213.9580  149.6490 C   0  0  0  0  0  3  0  0  0  0  0  0
  160.6280  212.5770  153.8670 F   0  0  0  0  0  0  0  0  0  0  0  0
  154.2990  210.8650  156.0990 C   0  0  0  0  0  1  0  0  0  0  0  0
  155.7370  211.2450  156.0170 C   0  0  0  0  0  0  0  0  0  0  0  0
  161.8380  210.6980  149.5960 C   0  0  0  0  0  0  0  0  0  0  0  0
  162.1940  212.9460  146.5440 S   0  0  0  0  0  0  0  0  0  0  0  0
  160.8570  209.0400  152.8440 C   0  0  0  0  0  0  0  0  0  0  0  0
  162.1800  210.3310  147.5170 N   0  0  0  0  0  0  0  0  0  0  0  0
  157.8600  211.8230  157.2610 C   0  0  0  0  0  2  0  0  0  0  0  0
  160.4030  212.9390  146.3450 C   0  0  0  0  0  0  0  0  0  0  0  0
  161.9970  209.7210  148.6790 N   0  0  0  0  0  0  0  0  0  0  0  0
  161.3100  209.2040  151.5300 C   0  0  0  0  0  3  0  0  0  0  0  0
  158.7330  210.6300  156.9060 C   0  0  0  0  0  2  0  0  0  0  0  0
  158.9060  213.6910  148.3490 C   0  0  0  0  0  0  0  0  0  0  0  0
  156.5440  213.7610  151.9630 C   0  0  0  0  0  2  0  0  0  0  0  0
  158.7930  214.0470  150.7500 C   0  0  0  0  0  3  0  0  0  0  0  0
  157.2430  213.5040  154.7880 O   0  0  0  0  0  1  0  0  0  0  0  0
  160.8410  211.4550  153.1320 C   0  0  0  0  0  0  0  0  0  0  0  0
  156.7020  213.7040  149.5170 C   0  0  0  0  0  3  0  0  0  0  0  0
  157.3260  213.8540  150.6950 C   0  0  0  0  0  0  0  0  0  0  0  0
  161.9370  211.8830  149.0500 O   0  0  0  0  0  0  0  0  0  0  0  0
  162.1300  211.6510  147.7780 C   0  0  0  0  0  0  0  0  0  0  0  0
  156.3990  211.4820  157.1620 C   0  0  0  0  0  3  0  0  0  0  0  0
  160.6610  207.7550  153.3430 O   0  0  0  0  0  1  0  0  0  0  0  0
  159.6460  213.3460  147.3310 C   0  0  0  0  0  0  0  0  0  0  0  0
  161.2900  211.6040  151.8230 C   0  0  0  0  0  3  0  0  0  0  0  0
  159.4100  210.9100  155.6120 C   0  0  0  0  0  3  0  0  0  0  0  0
  156.4160  212.6580  154.0460 C   0  0  2  0  0  3  0  0  0  0  0  0
  161.5090  210.4890  151.0090 C   0  0  0  0  0  0  0  0  0  0  0  0
  157.4190  213.8190  148.1940 C   0  0  0  0  0  2  0  0  0  0  0  0
  159.9580  209.9600  154.9280 N   0  0  0  0  0  0  0  0  0  0  0  0
  159.7940  212.3470  145.1940 N   0  0  0  0  0  2  0  0  0  0  0  0
  160.3140  212.5400  143.8500 C   0  0  0  0  0  1  0  0  0  0  0  0
  1 34  1  0  0  0  0
  2  7  1  0  0  0  0
  3 31  1  0  0  0  0
  4 19  2  0  0  0  0
  7  6  1  0  0  0  0
  7 26  2  0  0  0  0
  8 32  1  0  0  0  0
  9 25  1  0  0  0  0
 10 27  1  0  0  0  0
 10  1  2  0  0  0  0
 11 25  2  0  0  0  0
 11 14  1  0  0  0  0
 13  9  1  0  0  0  0
 13 28  2  0  0  0  0
 14  8  2  0  0  0  0
 15 10  1  0  0  0  0
 16 12  1  0  0  0  0
 17  4  1  0  0  0  0
 18  3  1  0  0  0  0
 21  1  1  0  0  0  0
 21  5  1  0  0  0  0
 22 23  2  0  0  0  0
 23 19  1  0  0  0  0
 23 18  1  0  0  0  0
 24  8  1  0  0  0  0
 25 24  1  0  0  0  0
 26 12  1  0  0  0  0
 28 17  2  0  0  0  0
 29 21  2  0  0  0  0
 30 16  1  0  0  0  0
 31  2  1  0  0  0  0
 31 20  1  1  0  0  0
 32 15  2  0  0  0  0
 32 29  1  0  0  0  0
 33 17  1  0  0  0  0
 33 22  1  0  0  0  0
 34 30  2  0  0  0  0
 35 13  1  0  0  0  0
 36 35  1  0  0  0  0
M  END
>  <MODEL>
2

>  <REMARK>
 VINA RESULT:      -2.3      2.898      8.465
  Name = 
  1 active torsions:
  status: ('A' for Active; 'I' for Inactive)
    1  A    between atoms: C_13  and  N_22
                            x       y       z     vdW  Elec       q    Type
                         _______ _______ _______ _____ _____    ______ ____

>  <TORSDO>
F 1

$$$$
