=
 OpenBabel11072413133D

 34 36  0  0  1  0  0  0  0  0999 V2000
  160.7290  209.0760  154.7200 C   0  0  0  0  0  0  0  0  0  0  0  0
  160.1050  209.7280  155.7800 O   0  0  0  0  0  1  0  0  0  0  0  0
  161.5460  209.7640  153.9090 C   0  0  0  0  0  3  0  0  0  0  0  0
  162.3070  209.8520  151.5240 C   0  0  0  0  0  2  0  0  0  0  0  0
  159.7140  206.9240  155.3580 F   0  0  0  0  0  0  0  0  0  0  0  0
  161.8230  209.0970  150.5410 C   0  0  0  0  0  0  0  0  0  0  0  0
  161.5710  207.8300  152.3900 C   0  0  2  0  0  3  0  0  0  0  0  0
  160.8020  207.0810  153.3400 N   0  0  0  0  0  0  0  0  0  0  0  0
  162.2950  209.0710  152.7990 C   0  0  2  0  0  3  0  0  0  0  0  0
  161.3700  207.8130  151.0790 C   0  0  0  0  0  0  0  0  0  0  0  0
  160.4490  207.6360  154.4670 C   0  0  0  0  0  0  0  0  0  0  0  0
  161.6940  209.5870  149.1240 C   0  0  2  0  0  3  0  0  0  0  0  0
  162.5430  208.8970  148.2550 O   0  0  0  0  0  1  0  0  0  0  0  0
  161.9510  211.0620  149.0310 C   0  0  0  0  0  0  0  0  0  0  0  0
  161.2530  211.8330  149.6750 O   0  0  0  0  0  0  0  0  0  0  0  0
  163.0330  211.5950  148.1430 C   0  0  0  0  0  2  0  0  0  0  0  0
  162.7270  213.0310  147.7500 C   0  0  0  0  0  2  0  0  0  0  0  0
  162.7730  213.5800  145.4300 O   0  0  0  0  0  0  0  0  0  0  0  0
  160.8580  212.5560  146.1760 O   0  0  0  0  0  1  0  0  0  0  0  0
  162.1330  213.0660  146.3870 C   0  0  0  0  0  0  0  0  0  0  0  0
  160.5080  206.9020  150.3800 N   0  0  0  0  0  2  0  0  0  0  0  0
  161.2400  204.5980  150.2460 C   0  0  0  0  0  3  0  0  0  0  0  0
  161.6090  203.6060  149.1930 C   0  0  2  0  0  3  0  0  0  0  0  0
  160.9860  205.6270  148.2020 C   0  0  0  0  0  3  0  0  0  0  0  0
  160.9300  205.7420  149.6540 C   0  0  0  0  0  0  0  0  0  0  0  0
  161.3550  204.3830  147.9380 C   0  0  0  0  0  0  0  0  0  0  0  0
  159.5570  202.4690  149.5580 O   0  0  0  0  0  0  0  0  0  0  0  0
  160.7800  202.3550  149.2840 C   0  0  0  0  0  0  0  0  0  0  0  0
  161.3070  201.0770  149.0700 O   0  0  0  0  0  0  0  0  0  0  0  0
  161.3760  200.5340  147.8470 O   0  0  0  0  0  1  0  0  0  0  0  0
  161.6030  203.8750  146.5570 C   0  0  0  0  0  2  0  0  0  0  0  0
  162.6870  205.6540  145.3970 O   0  0  0  0  0  1  0  0  0  0  0  0
  160.4860  205.3080  144.8470 O   0  0  0  0  0  0  0  0  0  0  0  0
  161.6240  205.0050  145.5860 C   0  0  0  0  0  0  0  0  0  0  0  0
  1  2  1  0  0  0  0
  3  1  2  0  0  0  0
  6 10  2  0  0  0  0
  6  4  1  0  0  0  0
  7 10  1  6  0  0  0
  7  9  1  0  0  0  0
  7  8  1  0  0  0  0
  8 11  2  0  0  0  0
  9  4  1  6  0  0  0
  9  3  1  0  0  0  0
 11  1  1  0  0  0  0
 11  5  1  0  0  0  0
 12 13  1  6  0  0  0
 12  6  1  0  0  0  0
 14 12  1  0  0  0  0
 14 15  2  0  0  0  0
 16 14  1  0  0  0  0
 17 16  1  0  0  0  0
 18 20  2  0  0  0  0
 19 20  1  0  0  0  0
 20 17  1  0  0  0  0
 21 10  1  0  0  0  0
 23 28  1  6  0  0  0
 23 22  1  0  0  0  0
 24 25  1  0  0  0  0
 25 22  2  0  0  0  0
 25 21  1  0  0  0  0
 26 24  2  0  0  0  0
 26 23  1  0  0  0  0
 28 27  2  0  0  0  0
 29 28  1  0  0  0  0
 30 29  1  0  0  0  0
 31 26  1  0  0  0  0
 32 34  1  0  0  0  0
 33 34  2  0  0  0  0
 34 31  1  0  0  0  0
M  END
>  <MODEL>
1

>  <REMARK>
 VINA RESULT:      -7.0      0.000      0.000
  Name = 
  11 active torsions:
  status: ('A' for Active; 'I' for Inactive)
    1  A    between atoms: C_1  and  C_5
    2  A    between atoms: C_1  and  C_33
    3  A    between atoms: C_5  and  C_18
    4  A    between atoms: C_6  and  C_34
    5  A    between atoms: C_8  and  C_26
    6  A    between atoms: C_8  and  C_31
    7  A    between atoms: C_11  and  C_23
    8  A    between atoms: C_11  and  C_33
    9  A    between atoms: O_13  and  C_34
   10  A    between atoms: C_22  and  N_27
   11  A    between atoms: N_27  and  C_30
                            x       y       z     vdW  Elec       q    Type
                         _______ _______ _______ _____ _____    ______ ____

>  <TORSDO>
F 11

$$$$
=
 OpenBabel11072413133D

 34 36  0  0  1  0  0  0  0  0999 V2000
  161.4660  208.9120  154.8130 C   0  0  0  0  0  0  0  0  0  0  0  0
  161.8990  208.6420  156.1090 O   0  0  0  0  0  1  0  0  0  0  0  0
  161.0340  207.9080  154.0370 C   0  0  0  0  0  3  0  0  0  0  0  0
  160.9580  207.1880  151.6390 C   0  0  0  0  0  2  0  0  0  0  0  0
  161.8610  211.3250  155.1130 F   0  0  0  0  0  0  0  0  0  0  0  0
  161.5340  207.8360  150.6300 C   0  0  0  0  0  0  0  0  0  0  0  0
  161.0520  209.4540  152.1250 C   0  0  2  0  0  3  0  0  0  0  0  0
  161.3910  210.5320  153.0080 N   0  0  0  0  0  0  0  0  0  0  0  0
  160.4890  208.1770  152.6580 C   0  0  2  0  0  3  0  0  0  0  0  0
  161.5850  209.2690  150.9240 C   0  0  0  0  0  0  0  0  0  0  0  0
  161.5310  210.3020  154.2840 C   0  0  0  0  0  0  0  0  0  0  0  0
  162.1200  207.1310  149.4370 C   0  0  2  0  0  3  0  0  0  0  0  0
  162.5320  208.0310  148.4510 O   0  0  0  0  0  1  0  0  0  0  0  0
  161.1550  206.1400  148.8580 C   0  0  0  0  0  0  0  0  0  0  0  0
  160.0280  206.5090  148.5550 O   0  0  0  0  0  0  0  0  0  0  0  0
  161.5490  204.7070  148.6700 C   0  0  0  0  0  2  0  0  0  0  0  0
  160.8850  203.8390  149.7260 C   0  0  0  0  0  2  0  0  0  0  0  0
  161.0630  202.1600  148.0430 O   0  0  0  0  0  0  0  0  0  0  0  0
  160.4180  201.4270  150.1220 O   0  0  0  0  0  1  0  0  0  0  0  0
  160.8050  202.4340  149.2470 C   0  0  0  0  0  0  0  0  0  0  0  0
  162.4150  210.2100  150.2280 N   0  0  0  0  0  2  0  0  0  0  0  0
  162.3590  211.6470  148.2800 C   0  0  0  0  0  3  0  0  0  0  0  0
  161.6650  212.8900  147.8320 C   0  0  2  0  0  3  0  0  0  0  0  0
  160.9390  212.2970  149.9710 C   0  0  0  0  0  3  0  0  0  0  0  0
  161.9550  211.3600  149.5080 C   0  0  0  0  0  0  0  0  0  0  0  0
  160.7560  213.1670  148.9900 C   0  0  0  0  0  0  0  0  0  0  0  0
  159.7340  212.2730  146.5950 O   0  0  0  0  0  0  0  0  0  0  0  0
  160.9220  212.6860  146.5410 C   0  0  0  0  0  0  0  0  0  0  0  0
  161.4900  212.9430  145.2890 O   0  0  0  0  0  0  0  0  0  0  0  0
  162.7640  213.3360  145.1550 O   0  0  0  0  0  1  0  0  0  0  0  0
  159.8430  214.3420  149.0940 C   0  0  0  0  0  2  0  0  0  0  0  0
  158.2730  214.3000  150.8880 O   0  0  0  0  0  1  0  0  0  0  0  0
  157.6210  213.2130  148.9760 O   0  0  0  0  0  0  0  0  0  0  0  0
  158.5480  213.9390  149.7130 C   0  0  0  0  0  0  0  0  0  0  0  0
  1  2  1  0  0  0  0
  3  1  2  0  0  0  0
  6 10  2  0  0  0  0
  6  4  1  0  0  0  0
  7 10  1  1  0  0  0
  7  9  1  0  0  0  0
  7  8  1  0  0  0  0
  8 11  2  0  0  0  0
  9  4  1  6  0  0  0
  9  3  1  0  0  0  0
 11  1  1  0  0  0  0
 11  5  1  0  0  0  0
 12 13  1  6  0  0  0
 12  6  1  0  0  0  0
 14 12  1  0  0  0  0
 15 14  2  0  0  0  0
 16 14  1  0  0  0  0
 16 17  1  0  0  0  0
 18 20  2  0  0  0  0
 20 17  1  0  0  0  0
 20 19  1  0  0  0  0
 21 10  1  0  0  0  0
 22 25  2  0  0  0  0
 23 28  1  6  0  0  0
 23 22  1  0  0  0  0
 23 26  1  0  0  0  0
 25 24  1  0  0  0  0
 25 21  1  0  0  0  0
 26 31  1  0  0  0  0
 26 24  2  0  0  0  0
 28 27  2  0  0  0  0
 29 28  1  0  0  0  0
 30 29  1  0  0  0  0
 31 34  1  0  0  0  0
 33 34  2  0  0  0  0
 34 32  1  0  0  0  0
M  END
>  <MODEL>
2

>  <REMARK>
 VINA RESULT:      -6.8      2.199      7.635
  Name = 
  11 active torsions:
  status: ('A' for Active; 'I' for Inactive)
    1  A    between atoms: C_1  and  C_5
    2  A    between atoms: C_1  and  C_33
    3  A    between atoms: C_5  and  C_18
    4  A    between atoms: C_6  and  C_34
    5  A    between atoms: C_8  and  C_26
    6  A    between atoms: C_8  and  C_31
    7  A    between atoms: C_11  and  C_23
    8  A    between atoms: C_11  and  C_33
    9  A    between atoms: O_13  and  C_34
   10  A    between atoms: C_22  and  N_27
   11  A    between atoms: N_27  and  C_30
                            x       y       z     vdW  Elec       q    Type
                         _______ _______ _______ _____ _____    ______ ____

>  <TORSDO>
F 11

$$$$
=
 OpenBabel11072413133D

 34 36  0  0  1  0  0  0  0  0999 V2000
  160.7720  209.1560  154.4810 C   0  0  0  0  0  0  0  0  0  0  0  0
  160.1560  209.8240  155.5360 O   0  0  0  0  0  1  0  0  0  0  0  0
  161.5930  209.8300  153.6610 C   0  0  0  0  0  3  0  0  0  0  0  0
  162.3490  209.8900  151.2740 C   0  0  0  0  0  2  0  0  0  0  0  0
  159.7390  207.0200  155.1400 F   0  0  0  0  0  0  0  0  0  0  0  0
  161.8570  209.1300  150.2990 C   0  0  0  0  0  0  0  0  0  0  0  0
  161.5980  207.8820  152.1600 C   0  0  2  0  0  3  0  0  0  0  0  0
  160.8240  207.1490  153.1190 N   0  0  0  0  0  0  0  0  0  0  0  0
  162.3330  209.1200  152.5560 C   0  0  2  0  0  3  0  0  0  0  0  0
  161.3930  207.8550  150.8490 C   0  0  0  0  0  0  0  0  0  0  0  0
  160.4780  207.7170  154.2410 C   0  0  0  0  0  0  0  0  0  0  0  0
  161.7290  209.6090  148.8780 C   0  0  2  0  0  3  0  0  0  0  0  0
  162.5510  208.8870  148.0090 O   0  0  0  0  0  1  0  0  0  0  0  0
  162.0240  211.0750  148.7660 C   0  0  0  0  0  0  0  0  0  0  0  0
  163.1060  211.4360  148.3250 O   0  0  0  0  0  0  0  0  0  0  0  0
  161.0180  212.0940  149.2080 C   0  0  0  0  0  2  0  0  0  0  0  0
  160.7650  213.0950  148.0940 C   0  0  0  0  0  2  0  0  0  0  0  0
  158.7630  213.5850  149.2920 O   0  0  0  0  0  1  0  0  0  0  0  0
  158.7440  214.1130  147.0570 O   0  0  0  0  0  0  0  0  0  0  0  0
  159.3760  213.6170  148.1900 C   0  0  0  0  0  0  0  0  0  0  0  0
  160.5220  206.9450  150.1610 N   0  0  0  0  0  2  0  0  0  0  0  0
  161.1890  204.6210  150.2560 C   0  0  0  0  0  3  0  0  0  0  0  0
  161.5340  203.5210  149.3070 C   0  0  2  0  0  3  0  0  0  0  0  0
  160.9720  205.4520  148.1200 C   0  0  0  0  0  3  0  0  0  0  0  0
  160.9140  205.7090  149.5540 C   0  0  0  0  0  0  0  0  0  0  0  0
  161.3080  204.1790  147.9800 C   0  0  0  0  0  0  0  0  0  0  0  0
  159.9390  201.9280  148.5620 O   0  0  0  0  0  0  0  0  0  0  0  0
  160.6700  202.3070  149.5130 C   0  0  0  0  0  0  0  0  0  0  0  0
  160.6520  201.5830  150.7090 O   0  0  0  0  0  0  0  0  0  0  0  0
  161.5110  201.8370  151.7060 O   0  0  0  0  0  1  0  0  0  0  0  0
  161.5470  203.5320  146.6570 C   0  0  0  0  0  2  0  0  0  0  0  0
  161.7250  204.8150  144.6550 O   0  0  0  0  0  0  0  0  0  0  0  0
  163.4830  205.0120  146.1160 O   0  0  0  0  0  1  0  0  0  0  0  0
  162.2580  204.4710  145.7440 C   0  0  0  0  0  0  0  0  0  0  0  0
  1  2  1  0  0  0  0
  3  1  2  0  0  0  0
  6 10  2  0  0  0  0
  6  4  1  0  0  0  0
  7 10  1  6  0  0  0
  7  9  1  0  0  0  0
  7  8  1  0  0  0  0
  8 11  2  0  0  0  0
  9  4  1  6  0  0  0
  9  3  1  0  0  0  0
 11  1  1  0  0  0  0
 11  5  1  0  0  0  0
 12 13  1  6  0  0  0
 12  6  1  0  0  0  0
 14 12  1  0  0  0  0
 14 16  1  0  0  0  0
 15 14  2  0  0  0  0
 17 20  1  0  0  0  0
 17 16  1  0  0  0  0
 19 20  2  0  0  0  0
 20 18  1  0  0  0  0
 21 10  1  0  0  0  0
 23 28  1  1  0  0  0
 23 22  1  0  0  0  0
 24 25  1  0  0  0  0
 25 21  1  0  0  0  0
 25 22  2  0  0  0  0
 26 24  2  0  0  0  0
 26 23  1  0  0  0  0
 27 28  2  0  0  0  0
 28 29  1  0  0  0  0
 29 30  1  0  0  0  0
 31 26  1  0  0  0  0
 32 34  2  0  0  0  0
 34 33  1  0  0  0  0
 34 31  1  0  0  0  0
M  END
>  <MODEL>
3

>  <REMARK>
 VINA RESULT:      -6.3      1.298      1.723
  Name = 
  11 active torsions:
  status: ('A' for Active; 'I' for Inactive)
    1  A    between atoms: C_1  and  C_5
    2  A    between atoms: C_1  and  C_33
    3  A    between atoms: C_5  and  C_18
    4  A    between atoms: C_6  and  C_34
    5  A    between atoms: C_8  and  C_26
    6  A    between atoms: C_8  and  C_31
    7  A    between atoms: C_11  and  C_23
    8  A    between atoms: C_11  and  C_33
    9  A    between atoms: O_13  and  C_34
   10  A    between atoms: C_22  and  N_27
   11  A    between atoms: N_27  and  C_30
                            x       y       z     vdW  Elec       q    Type
                         _______ _______ _______ _____ _____    ______ ____

>  <TORSDO>
F 11

$$$$
=
 OpenBabel11072413133D

 34 36  0  0  1  0  0  0  0  0999 V2000
  161.4480  204.5220  148.4000 C   0  0  0  0  0  0  0  0  0  0  0  0
  161.9650  203.4840  147.6290 O   0  0  0  0  0  1  0  0  0  0  0  0
  161.3940  205.7610  147.8900 C   0  0  0  0  0  3  0  0  0  0  0  0
  161.5510  208.1640  148.5790 C   0  0  0  0  0  2  0  0  0  0  0  0
  160.9580  202.9860  150.2620 F   0  0  0  0  0  0  0  0  0  0  0  0
  161.8450  208.5880  149.8050 C   0  0  0  0  0  0  0  0  0  0  0  0
  160.8340  206.5980  150.1330 C   0  0  2  0  0  3  0  0  0  0  0  0
  160.7770  205.2490  150.6150 N   0  0  0  0  0  0  0  0  0  0  0  0
  160.7710  206.8910  148.6690 C   0  0  2  0  0  3  0  0  0  0  0  0
  161.3830  207.6100  150.7920 C   0  0  0  0  0  0  0  0  0  0  0  0
  161.0050  204.2600  149.7970 C   0  0  0  0  0  0  0  0  0  0  0  0
  162.6300  209.8450  150.0670 C   0  0  2  0  0  3  0  0  0  0  0  0
  162.9720  209.9730  151.4150 O   0  0  0  0  0  1  0  0  0  0  0  0
  161.8820  211.0620  149.6080 C   0  0  0  0  0  0  0  0  0  0  0  0
  161.0120  211.5360  150.3260 O   0  0  0  0  0  0  0  0  0  0  0  0
  162.1770  211.6840  148.2780 C   0  0  0  0  0  2  0  0  0  0  0  0
  161.0210  212.5720  147.8490 C   0  0  0  0  0  2  0  0  0  0  0  0
  160.3900  213.6680  145.8280 O   0  0  0  0  0  0  0  0  0  0  0  0
  162.6290  213.2160  146.0610 O   0  0  0  0  0  1  0  0  0  0  0  0
  161.3220  213.1910  146.5310 C   0  0  0  0  0  0  0  0  0  0  0  0
  161.8140  207.5770  152.1610 N   0  0  0  0  0  2  0  0  0  0  0  0
  160.6200  207.2130  154.2350 C   0  0  0  0  0  3  0  0  0  0  0  0
  159.8940  208.0210  155.2600 C   0  0  2  0  0  3  0  0  0  0  0  0
  160.7460  209.4210  153.5950 C   0  0  0  0  0  3  0  0  0  0  0  0
  161.0560  208.0300  153.2880 C   0  0  0  0  0  0  0  0  0  0  0  0
  160.0950  209.4150  154.7480 C   0  0  0  0  0  0  0  0  0  0  0  0
  160.1610  206.7590  157.2530 O   0  0  0  0  0  0  0  0  0  0  0  0
  160.4570  207.8170  156.6390 C   0  0  0  0  0  0  0  0  0  0  0  0
  161.2980  208.7450  157.2610 O   0  0  0  0  0  0  0  0  0  0  0  0
  162.6010  208.8360  156.9600 O   0  0  0  0  0  1  0  0  0  0  0  0
  159.5310  210.6430  155.3800 C   0  0  0  0  0  2  0  0  0  0  0  0
  157.5420  211.0930  154.1450 O   0  0  0  0  0  1  0  0  0  0  0  0
  159.2890  212.5310  153.7670 O   0  0  0  0  0  0  0  0  0  0  0  0
  158.7350  211.4170  154.3860 C   0  0  0  0  0  0  0  0  0  0  0  0
  1 11  1  0  0  0  0
  2  1  1  0  0  0  0
  3  1  2  0  0  0  0
  4  9  1  0  0  0  0
  4  6  1  0  0  0  0
  6 12  1  0  0  0  0
  6 10  2  0  0  0  0
  7  8  1  6  0  0  0
  7 10  1  0  0  0  0
  9  3  1  6  0  0  0
  9  7  1  0  0  0  0
 10 21  1  0  0  0  0
 11  5  1  0  0  0  0
 11  8  2  0  0  0  0
 12 13  1  1  0  0  0
 14 12  1  0  0  0  0
 14 15  2  0  0  0  0
 16 14  1  0  0  0  0
 17 16  1  0  0  0  0
 18 20  2  0  0  0  0
 19 20  1  0  0  0  0
 20 17  1  0  0  0  0
 21 25  1  0  0  0  0
 22 23  1  0  0  0  0
 23 28  1  1  0  0  0
 24 26  2  0  0  0  0
 25 24  1  0  0  0  0
 25 22  2  0  0  0  0
 26 23  1  0  0  0  0
 26 31  1  0  0  0  0
 28 27  2  0  0  0  0
 28 29  1  0  0  0  0
 30 29  1  0  0  0  0
 32 34  1  0  0  0  0
 33 34  2  0  0  0  0
 34 31  1  0  0  0  0
M  END
>  <MODEL>
4

>  <REMARK>
 VINA RESULT:      -6.3      2.118      6.789
  Name = 
  11 active torsions:
  status: ('A' for Active; 'I' for Inactive)
    1  A    between atoms: C_1  and  C_5
    2  A    between atoms: C_1  and  C_33
    3  A    between atoms: C_5  and  C_18
    4  A    between atoms: C_6  and  C_34
    5  A    between atoms: C_8  and  C_26
    6  A    between atoms: C_8  and  C_31
    7  A    between atoms: C_11  and  C_23
    8  A    between atoms: C_11  and  C_33
    9  A    between atoms: O_13  and  C_34
   10  A    between atoms: C_22  and  N_27
   11  A    between atoms: N_27  and  C_30
                            x       y       z     vdW  Elec       q    Type
                         _______ _______ _______ _____ _____    ______ ____

>  <TORSDO>
F 11

$$$$
=
 OpenBabel11072413133D

 34 36  0  0  1  0  0  0  0  0999 V2000
  160.8270  204.6360  145.2100 C   0  0  0  0  0  0  0  0  0  0  0  0
  160.2070  204.1190  144.0750 O   0  0  0  0  0  1  0  0  0  0  0  0
  161.3920  203.8010  146.0950 C   0  0  0  0  0  3  0  0  0  0  0  0
  161.8460  203.5720  148.5470 C   0  0  0  0  0  2  0  0  0  0  0  0
  160.3460  206.9460  144.5020 F   0  0  0  0  0  0  0  0  0  0  0  0
  161.4180  204.4140  149.4840 C   0  0  0  0  0  0  0  0  0  0  0  0
  161.6360  205.6970  147.6410 C   0  0  2  0  0  3  0  0  0  0  0  0
  161.1460  206.5810  146.6250 N   0  0  0  0  0  0  0  0  0  0  0  0
  162.1360  204.3330  147.2920 C   0  0  2  0  0  3  0  0  0  0  0  0
  161.2960  205.7610  148.9220 C   0  0  0  0  0  0  0  0  0  0  0  0
  160.8170  206.1050  145.4560 C   0  0  0  0  0  0  0  0  0  0  0  0
  161.0340  203.9670  150.8680 C   0  0  2  0  0  3  0  0  0  0  0  0
  161.7850  204.6160  151.8520 O   0  0  0  0  0  1  0  0  0  0  0  0
  161.1640  202.4810  151.0190 C   0  0  0  0  0  0  0  0  0  0  0  0
  161.9600  202.0280  151.8300 O   0  0  0  0  0  0  0  0  0  0  0  0
  160.3460  201.5520  150.1730 C   0  0  0  0  0  2  0  0  0  0  0  0
  161.2540  200.5820  149.4350 C   0  0  0  0  0  2  0  0  0  0  0  0
  159.9710  201.2890  147.5540 O   0  0  0  0  0  1  0  0  0  0  0  0
  161.6730  199.8140  147.1050 O   0  0  0  0  0  0  0  0  0  0  0  0
  160.9320  200.5940  147.9840 C   0  0  0  0  0  0  0  0  0  0  0  0
  160.5640  206.8310  149.5370 N   0  0  0  0  0  2  0  0  0  0  0  0
  161.8990  208.8490  149.4720 C   0  0  0  0  0  3  0  0  0  0  0  0
  162.2960  209.9530  150.3950 C   0  0  2  0  0  3  0  0  0  0  0  0
  160.8880  208.4540  151.5020 C   0  0  0  0  0  3  0  0  0  0  0  0
  161.1350  207.9980  150.1390 C   0  0  0  0  0  0  0  0  0  0  0  0
  161.5410  209.5970  151.6390 C   0  0  0  0  0  0  0  0  0  0  0  0
  160.9630  211.9180  150.3850 O   0  0  0  0  0  0  0  0  0  0  0  0
  161.9230  211.3040  149.8500 C   0  0  0  0  0  0  0  0  0  0  0  0
  162.6010  211.9070  148.7860 O   0  0  0  0  0  0  0  0  0  0  0  0
  162.3310  213.1580  148.3910 O   0  0  0  0  0  1  0  0  0  0  0  0
  161.6070  210.3570  152.9210 C   0  0  0  0  0  2  0  0  0  0  0  0
  160.1340  209.7480  154.6940 O   0  0  0  0  0  1  0  0  0  0  0  0
  159.2130  211.0500  153.0450 O   0  0  0  0  0  0  0  0  0  0  0  0
  160.2790  210.3490  153.5970 C   0  0  0  0  0  0  0  0  0  0  0  0
  1 11  1  0  0  0  0
  1  3  2  0  0  0  0
  2  1  1  0  0  0  0
  4  6  1  0  0  0  0
  5 11  1  0  0  0  0
  6 12  1  0  0  0  0
  7  8  1  6  0  0  0
  7 10  1  0  0  0  0
  9  3  1  6  0  0  0
  9  7  1  0  0  0  0
  9  4  1  0  0  0  0
 10  6  2  0  0  0  0
 10 21  1  0  0  0  0
 11  8  2  0  0  0  0
 12 14  1  0  0  0  0
 12 13  1  1  0  0  0
 14 15  2  0  0  0  0
 16 14  1  0  0  0  0
 17 16  1  0  0  0  0
 18 20  1  0  0  0  0
 19 20  2  0  0  0  0
 20 17  1  0  0  0  0
 21 25  1  0  0  0  0
 22 25  2  0  0  0  0
 22 23  1  0  0  0  0
 23 28  1  6  0  0  0
 23 26  1  0  0  0  0
 24 26  2  0  0  0  0
 25 24  1  0  0  0  0
 26 31  1  0  0  0  0
 28 27  2  0  0  0  0
 29 28  1  0  0  0  0
 30 29  1  0  0  0  0
 31 34  1  0  0  0  0
 33 34  2  0  0  0  0
 34 32  1  0  0  0  0
M  END
>  <MODEL>
5

>  <REMARK>
 VINA RESULT:      -6.1      2.648      9.006
  Name = 
  11 active torsions:
  status: ('A' for Active; 'I' for Inactive)
    1  A    between atoms: C_1  and  C_5
    2  A    between atoms: C_1  and  C_33
    3  A    between atoms: C_5  and  C_18
    4  A    between atoms: C_6  and  C_34
    5  A    between atoms: C_8  and  C_26
    6  A    between atoms: C_8  and  C_31
    7  A    between atoms: C_11  and  C_23
    8  A    between atoms: C_11  and  C_33
    9  A    between atoms: O_13  and  C_34
   10  A    between atoms: C_22  and  N_27
   11  A    between atoms: N_27  and  C_30
                            x       y       z     vdW  Elec       q    Type
                         _______ _______ _______ _____ _____    ______ ____

>  <TORSDO>
F 11

$$$$
=
 OpenBabel11072413133D

 34 36  0  0  1  0  0  0  0  0999 V2000
  162.0900  210.1610  150.2750 C   0  0  0  0  0  0  0  0  0  0  0  0
  162.9230  211.1090  149.6870 O   0  0  0  0  0  1  0  0  0  0  0  0
  161.4580  210.4550  151.4210 C   0  0  0  0  0  3  0  0  0  0  0  0
  160.6330  209.3800  153.5270 C   0  0  0  0  0  2  0  0  0  0  0  0
  162.4950  208.5680  148.4410 F   0  0  0  0  0  0  0  0  0  0  0  0
  160.8370  208.1090  153.8650 C   0  0  0  0  0  0  0  0  0  0  0  0
  160.8180  208.0890  151.6090 C   0  0  2  0  0  3  0  0  0  0  0  0
  161.3940  207.8370  150.3210 N   0  0  0  0  0  0  0  0  0  0  0  0
  160.4910  209.4800  152.0420 C   0  0  2  0  0  3  0  0  0  0  0  0
  160.9410  207.2860  152.6580 C   0  0  0  0  0  0  0  0  0  0  0  0
  161.9440  208.8150  149.6560 C   0  0  0  0  0  0  0  0  0  0  0  0
  161.0270  207.6640  155.2890 C   0  0  2  0  0  3  0  0  0  0  0  0
  159.9590  206.8820  155.7370 O   0  0  0  0  0  1  0  0  0  0  0  0
  161.2270  208.8340  156.2060 C   0  0  0  0  0  0  0  0  0  0  0  0
  162.3310  209.3560  156.2780 O   0  0  0  0  0  0  0  0  0  0  0  0
  160.0980  209.3520  157.0430 C   0  0  0  0  0  2  0  0  0  0  0  0
  160.1310  210.8710  157.0830 C   0  0  0  0  0  2  0  0  0  0  0  0
  159.4810  212.5420  155.5110 O   0  0  0  0  0  0  0  0  0  0  0  0
  158.0960  210.7160  155.6570 O   0  0  0  0  0  1  0  0  0  0  0  0
  159.2310  211.4230  156.0350 C   0  0  0  0  0  0  0  0  0  0  0  0
  161.4780  205.9550  152.6300 N   0  0  0  0  0  2  0  0  0  0  0  0
  160.6920  205.2860  150.4410 C   0  0  0  0  0  3  0  0  0  0  0  0
  160.6470  204.0510  149.6020 C   0  0  2  0  0  3  0  0  0  0  0  0
  161.7020  203.5970  151.6360 C   0  0  0  0  0  3  0  0  0  0  0  0
  161.2600  204.9860  151.5990 C   0  0  0  0  0  0  0  0  0  0  0  0
  161.3680  203.0660  150.4700 C   0  0  0  0  0  0  0  0  0  0  0  0
  162.0770  205.2420  148.1270 O   0  0  0  0  0  0  0  0  0  0  0  0
  161.3120  204.2520  148.2680 C   0  0  0  0  0  0  0  0  0  0  0  0
  161.1230  203.3860  147.1870 O   0  0  0  0  0  0  0  0  0  0  0  0
  161.7410  203.5700  146.0130 O   0  0  0  0  0  1  0  0  0  0  0  0
  161.5800  201.6280  150.1310 C   0  0  0  0  0  2  0  0  0  0  0  0
  160.9080  200.5950  148.0900 O   0  0  0  0  0  0  0  0  0  0  0  0
  159.2020  201.3280  149.4360 O   0  0  0  0  0  1  0  0  0  0  0  0
  160.5530  201.1710  149.1520 C   0  0  0  0  0  0  0  0  0  0  0  0
  1  3  2  0  0  0  0
  2  1  1  0  0  0  0
  4  6  1  0  0  0  0
  5 11  1  0  0  0  0
  6 12  1  0  0  0  0
  7  8  1  1  0  0  0
  7  9  1  0  0  0  0
  7 10  1  0  0  0  0
  9  3  1  6  0  0  0
  9  4  1  0  0  0  0
 10  6  2  0  0  0  0
 11  1  1  0  0  0  0
 11  8  2  0  0  0  0
 12 13  1  1  0  0  0
 12 14  1  0  0  0  0
 14 15  2  0  0  0  0
 14 16  1  0  0  0  0
 16 17  1  0  0  0  0
 18 20  2  0  0  0  0
 19 20  1  0  0  0  0
 20 17  1  0  0  0  0
 21 10  1  0  0  0  0
 22 25  2  0  0  0  0
 23 28  1  6  0  0  0
 23 22  1  0  0  0  0
 23 26  1  0  0  0  0
 25 24  1  0  0  0  0
 25 21  1  0  0  0  0
 26 24  2  0  0  0  0
 27 28  2  0  0  0  0
 29 28  1  0  0  0  0
 30 29  1  0  0  0  0
 31 26  1  0  0  0  0
 32 34  2  0  0  0  0
 34 33  1  0  0  0  0
 34 31  1  0  0  0  0
M  END
>  <MODEL>
6

>  <REMARK>
 VINA RESULT:      -5.9      2.499      5.760
  Name = 
  11 active torsions:
  status: ('A' for Active; 'I' for Inactive)
    1  A    between atoms: C_1  and  C_5
    2  A    between atoms: C_1  and  C_33
    3  A    between atoms: C_5  and  C_18
    4  A    between atoms: C_6  and  C_34
    5  A    between atoms: C_8  and  C_26
    6  A    between atoms: C_8  and  C_31
    7  A    between atoms: C_11  and  C_23
    8  A    between atoms: C_11  and  C_33
    9  A    between atoms: O_13  and  C_34
   10  A    between atoms: C_22  and  N_27
   11  A    between atoms: N_27  and  C_30
                            x       y       z     vdW  Elec       q    Type
                         _______ _______ _______ _____ _____    ______ ____

>  <TORSDO>
F 11

$$$$
=
 OpenBabel11072413133D

 34 36  0  0  1  0  0  0  0  0999 V2000
  160.9340  209.4120  154.6340 C   0  0  0  0  0  0  0  0  0  0  0  0
  160.4120  210.0700  155.7450 O   0  0  0  0  0  1  0  0  0  0  0  0
  161.7790  210.0590  153.8190 C   0  0  0  0  0  3  0  0  0  0  0  0
  162.4560  210.1860  151.4110 C   0  0  0  0  0  2  0  0  0  0  0  0
  159.7490  207.3350  155.2240 F   0  0  0  0  0  0  0  0  0  0  0  0
  161.8700  209.5230  150.4180 C   0  0  0  0  0  0  0  0  0  0  0  0
  161.5710  208.2010  152.2220 C   0  0  2  0  0  3  0  0  0  0  0  0
  160.7720  207.4830  153.1710 N   0  0  0  0  0  0  0  0  0  0  0  0
  162.4200  209.3520  152.6520 C   0  0  2  0  0  3  0  0  0  0  0  0
  161.3200  208.2620  150.9200 C   0  0  0  0  0  0  0  0  0  0  0  0
  160.5130  208.0160  154.3330 C   0  0  0  0  0  0  0  0  0  0  0  0
  161.7340  210.0860  149.0300 C   0  0  2  0  0  3  0  0  0  0  0  0
  162.5850  209.4490  148.1230 O   0  0  0  0  0  1  0  0  0  0  0  0
  161.9790  211.5650  149.0130 C   0  0  0  0  0  0  0  0  0  0  0  0
  163.0970  211.9840  148.7440 O   0  0  0  0  0  0  0  0  0  0  0  0
  160.8790  212.5270  149.3420 C   0  0  0  0  0  2  0  0  0  0  0  0
  160.7130  213.5360  148.2180 C   0  0  0  0  0  2  0  0  0  0  0  0
  159.4330  212.1220  146.7880 O   0  0  0  0  0  1  0  0  0  0  0  0
  161.3980  212.9180  145.9070 O   0  0  0  0  0  0  0  0  0  0  0  0
  160.4680  212.8260  146.9350 C   0  0  0  0  0  0  0  0  0  0  0  0
  160.3530  207.4640  150.2200 N   0  0  0  0  0  2  0  0  0  0  0  0
  160.5480  206.2810  148.1180 C   0  0  0  0  0  3  0  0  0  0  0  0
  160.9380  204.9230  147.6350 C   0  0  2  0  0  3  0  0  0  0  0  0
  161.1420  205.0340  149.9590 C   0  0  0  0  0  3  0  0  0  0  0  0
  160.6380  206.2990  149.4390 C   0  0  0  0  0  0  0  0  0  0  0  0
  161.3380  204.2480  148.9120 C   0  0  0  0  0  0  0  0  0  0  0  0
  163.0700  205.6700  146.9070 O   0  0  0  0  0  0  0  0  0  0  0  0
  162.0540  204.9810  146.6300 C   0  0  0  0  0  0  0  0  0  0  0  0
  162.0140  204.2990  145.4100 O   0  0  0  0  0  0  0  0  0  0  0  0
  161.3620  203.1370  145.2680 O   0  0  0  0  0  1  0  0  0  0  0  0
  161.7830  202.8280  149.0210 C   0  0  0  0  0  2  0  0  0  0  0  0
  159.7970  201.7290  148.2900 O   0  0  0  0  0  0  0  0  0  0  0  0
  160.4420  201.2790  150.4450 O   0  0  0  0  0  1  0  0  0  0  0  0
  160.6100  201.9330  149.2300 C   0  0  0  0  0  0  0  0  0  0  0  0
  1  2  1  0  0  0  0
  3  1  2  0  0  0  0
  6 10  2  0  0  0  0
  6  4  1  0  0  0  0
  7 10  1  6  0  0  0
  7  9  1  0  0  0  0
  7  8  1  0  0  0  0
  8 11  2  0  0  0  0
  9  4  1  6  0  0  0
  9  3  1  0  0  0  0
 11  1  1  0  0  0  0
 11  5  1  0  0  0  0
 12 13  1  6  0  0  0
 12  6  1  0  0  0  0
 14 12  1  0  0  0  0
 14 16  1  0  0  0  0
 15 14  2  0  0  0  0
 17 16  1  0  0  0  0
 18 20  1  0  0  0  0
 19 20  2  0  0  0  0
 20 17  1  0  0  0  0
 21 10  1  0  0  0  0
 22 25  2  0  0  0  0
 23 28  1  6  0  0  0
 23 22  1  0  0  0  0
 23 26  1  0  0  0  0
 25 24  1  0  0  0  0
 25 21  1  0  0  0  0
 26 31  1  0  0  0  0
 26 24  2  0  0  0  0
 28 27  2  0  0  0  0
 29 28  1  0  0  0  0
 30 29  1  0  0  0  0
 31 34  1  0  0  0  0
 32 34  2  0  0  0  0
 34 33  1  0  0  0  0
M  END
>  <MODEL>
7

>  <REMARK>
 VINA RESULT:      -5.9      1.104      2.703
  Name = 
  11 active torsions:
  status: ('A' for Active; 'I' for Inactive)
    1  A    between atoms: C_1  and  C_5
    2  A    between atoms: C_1  and  C_33
    3  A    between atoms: C_5  and  C_18
    4  A    between atoms: C_6  and  C_34
    5  A    between atoms: C_8  and  C_26
    6  A    between atoms: C_8  and  C_31
    7  A    between atoms: C_11  and  C_23
    8  A    between atoms: C_11  and  C_33
    9  A    between atoms: O_13  and  C_34
   10  A    between atoms: C_22  and  N_27
   11  A    between atoms: N_27  and  C_30
                            x       y       z     vdW  Elec       q    Type
                         _______ _______ _______ _____ _____    ______ ____

>  <TORSDO>
F 11

$$$$
=
 OpenBabel11072413133D

 34 36  0  0  1  0  0  0  0  0999 V2000
  161.9570  210.3450  150.3160 C   0  0  0  0  0  0  0  0  0  0  0  0
  162.7040  211.3650  149.7300 O   0  0  0  0  0  1  0  0  0  0  0  0
  161.3340  210.5690  151.4820 C   0  0  0  0  0  3  0  0  0  0  0  0
  160.6430  209.3920  153.5820 C   0  0  0  0  0  2  0  0  0  0  0  0
  162.4330  208.8250  148.4370 F   0  0  0  0  0  0  0  0  0  0  0  0
  160.9480  208.1330  153.8870 C   0  0  0  0  0  0  0  0  0  0  0  0
  160.8750  208.1580  151.6320 C   0  0  2  0  0  3  0  0  0  0  0  0
  161.4360  207.9760  150.3260 N   0  0  0  0  0  0  0  0  0  0  0  0
  160.4560  209.5120  152.1030 C   0  0  2  0  0  3  0  0  0  0  0  0
  161.0820  207.3450  152.6600 C   0  0  0  0  0  0  0  0  0  0  0  0
  161.8960  209.0050  149.6700 C   0  0  0  0  0  0  0  0  0  0  0  0
  161.2050  207.6740  155.2960 C   0  0  2  0  0  3  0  0  0  0  0  0
  160.2430  206.7570  155.7290 O   0  0  0  0  0  1  0  0  0  0  0  0
  161.2730  208.8340  156.2450 C   0  0  0  0  0  0  0  0  0  0  0  0
  162.3540  209.3620  156.4680 O   0  0  0  0  0  0  0  0  0  0  0  0
  160.0390  209.3330  156.9330 C   0  0  0  0  0  2  0  0  0  0  0  0
  160.1470  210.8290  157.1770 C   0  0  0  0  0  2  0  0  0  0  0  0
  160.0820  212.4510  155.4310 O   0  0  0  0  0  0  0  0  0  0  0  0
  158.1250  211.3080  155.8070 O   0  0  0  0  0  1  0  0  0  0  0  0
  159.4610  211.5690  156.0850 C   0  0  0  0  0  0  0  0  0  0  0  0
  161.7140  206.0580  152.5900 N   0  0  0  0  0  2  0  0  0  0  0  0
  161.8510  203.8400  151.6310 C   0  0  0  0  0  3  0  0  0  0  0  0
  161.6350  203.1830  150.3070 C   0  0  2  0  0  3  0  0  0  0  0  0
  161.1730  205.4670  150.1500 C   0  0  0  0  0  3  0  0  0  0  0  0
  161.6180  205.1360  151.4980 C   0  0  0  0  0  0  0  0  0  0  0  0
  161.1600  204.3300  149.4700 C   0  0  0  0  0  0  0  0  0  0  0  0
  160.0770  201.8450  151.4980 O   0  0  0  0  0  0  0  0  0  0  0  0
  160.6330  202.0650  150.3910 C   0  0  0  0  0  0  0  0  0  0  0  0
  160.2900  201.2700  149.2930 O   0  0  0  0  0  0  0  0  0  0  0  0
  161.2070  200.5780  148.6030 O   0  0  0  0  0  1  0  0  0  0  0  0
  160.8310  204.2450  148.0170 C   0  0  0  0  0  2  0  0  0  0  0  0
  160.7880  206.4380  147.0820 O   0  0  0  0  0  1  0  0  0  0  0  0
  162.7700  205.3050  146.8570 O   0  0  0  0  0  0  0  0  0  0  0  0
  161.4480  205.3840  147.2790 C   0  0  0  0  0  0  0  0  0  0  0  0
  1  3  2  0  0  0  0
  2  1  1  0  0  0  0
  4  6  1  0  0  0  0
  5 11  1  0  0  0  0
  6 12  1  0  0  0  0
  7  8  1  1  0  0  0
  7  9  1  0  0  0  0
  7 10  1  0  0  0  0
  9  3  1  6  0  0  0
  9  4  1  0  0  0  0
 10  6  2  0  0  0  0
 11  1  1  0  0  0  0
 11  8  2  0  0  0  0
 12 13  1  1  0  0  0
 12 14  1  0  0  0  0
 14 15  2  0  0  0  0
 14 16  1  0  0  0  0
 16 17  1  0  0  0  0
 18 20  2  0  0  0  0
 19 20  1  0  0  0  0
 20 17  1  0  0  0  0
 21 10  1  0  0  0  0
 23 28  1  1  0  0  0
 23 22  1  0  0  0  0
 24 25  1  0  0  0  0
 25 22  2  0  0  0  0
 25 21  1  0  0  0  0
 26 24  2  0  0  0  0
 26 23  1  0  0  0  0
 28 27  2  0  0  0  0
 29 28  1  0  0  0  0
 30 29  1  0  0  0  0
 31 26  1  0  0  0  0
 32 34  1  0  0  0  0
 33 34  2  0  0  0  0
 34 31  1  0  0  0  0
M  END
>  <MODEL>
8

>  <REMARK>
 VINA RESULT:      -5.7      2.428      5.355
  Name = 
  11 active torsions:
  status: ('A' for Active; 'I' for Inactive)
    1  A    between atoms: C_1  and  C_5
    2  A    between atoms: C_1  and  C_33
    3  A    between atoms: C_5  and  C_18
    4  A    between atoms: C_6  and  C_34
    5  A    between atoms: C_8  and  C_26
    6  A    between atoms: C_8  and  C_31
    7  A    between atoms: C_11  and  C_23
    8  A    between atoms: C_11  and  C_33
    9  A    between atoms: O_13  and  C_34
   10  A    between atoms: C_22  and  N_27
   11  A    between atoms: N_27  and  C_30
                            x       y       z     vdW  Elec       q    Type
                         _______ _______ _______ _____ _____    ______ ____

>  <TORSDO>
F 11

$$$$
=
 OpenBabel11072413133D

 34 36  0  0  1  0  0  0  0  0999 V2000
  161.4850  206.5310  152.6110 C   0  0  0  0  0  0  0  0  0  0  0  0
  161.9530  205.8360  153.7240 O   0  0  0  0  0  1  0  0  0  0  0  0
  160.9690  205.8530  151.5760 C   0  0  0  0  0  3  0  0  0  0  0  0
  160.7600  205.9590  149.0820 C   0  0  0  0  0  2  0  0  0  0  0  0
  162.0210  208.6970  153.6550 F   0  0  0  0  0  0  0  0  0  0  0  0
  161.3300  206.8780  148.3080 C   0  0  0  0  0  0  0  0  0  0  0  0
  160.9950  207.9370  150.2710 C   0  0  2  0  0  3  0  0  0  0  0  0
  161.4270  208.6530  151.4360 N   0  0  0  0  0  0  0  0  0  0  0  0
  160.3850  206.5780  150.3910 C   0  0  2  0  0  3  0  0  0  0  0  0
  161.4690  208.1330  149.0480 C   0  0  0  0  0  0  0  0  0  0  0  0
  161.6050  208.0140  152.5590 C   0  0  0  0  0  0  0  0  0  0  0  0
  161.8300  206.5790  146.9210 C   0  0  2  0  0  3  0  0  0  0  0  0
  160.8350  206.7650  145.9570 O   0  0  0  0  0  1  0  0  0  0  0  0
  162.3820  205.1870  146.8260 C   0  0  0  0  0  0  0  0  0  0  0  0
  163.5880  205.0130  146.9410 O   0  0  0  0  0  0  0  0  0  0  0  0
  161.4770  204.0210  146.5730 C   0  0  0  0  0  2  0  0  0  0  0  0
  161.5140  203.0650  147.7540 C   0  0  0  0  0  2  0  0  0  0  0  0
  160.6860  201.5130  146.1450 O   0  0  0  0  0  0  0  0  0  0  0  0
  161.2420  200.6300  148.1900 O   0  0  0  0  0  1  0  0  0  0  0  0
  161.1330  201.6980  147.3090 C   0  0  0  0  0  0  0  0  0  0  0  0
  162.3220  209.2180  148.6500 N   0  0  0  0  0  2  0  0  0  0  0  0
  161.8800  211.3040  147.5050 C   0  0  0  0  0  3  0  0  0  0  0  0
  161.4540  212.6940  147.8470 C   0  0  2  0  0  3  0  0  0  0  0  0
  161.5450  211.3880  149.7810 C   0  0  0  0  0  3  0  0  0  0  0  0
  161.9580  210.6020  148.6250 C   0  0  0  0  0  0  0  0  0  0  0  0
  161.2300  212.5910  149.3250 C   0  0  0  0  0  0  0  0  0  0  0  0
  160.0940  214.3130  146.7670 O   0  0  0  0  0  0  0  0  0  0  0  0
  160.2180  213.1050  147.0950 C   0  0  0  0  0  0  0  0  0  0  0  0
  159.2100  212.2020  146.7400 O   0  0  0  0  0  0  0  0  0  0  0  0
  158.0670  212.6040  146.1680 O   0  0  0  0  0  1  0  0  0  0  0  0
  160.8250  213.7240  150.2060 C   0  0  0  0  0  2  0  0  0  0  0  0
  159.2830  213.5160  152.0120 O   0  0  0  0  0  1  0  0  0  0  0  0
  158.3870  213.2800  149.9140 O   0  0  0  0  0  0  0  0  0  0  0  0
  159.4650  213.4840  150.7660 C   0  0  0  0  0  0  0  0  0  0  0  0
  1  2  1  0  0  0  0
  3  1  2  0  0  0  0
  6 10  2  0  0  0  0
  6  4  1  0  0  0  0
  7 10  1  6  0  0  0
  7  9  1  0  0  0  0
  7  8  1  0  0  0  0
  8 11  2  0  0  0  0
  9  4  1  6  0  0  0
  9  3  1  0  0  0  0
 11  1  1  0  0  0  0
 11  5  1  0  0  0  0
 12 13  1  6  0  0  0
 12  6  1  0  0  0  0
 14 12  1  0  0  0  0
 14 15  2  0  0  0  0
 16 14  1  0  0  0  0
 16 17  1  0  0  0  0
 18 20  2  0  0  0  0
 20 17  1  0  0  0  0
 20 19  1  0  0  0  0
 21 10  1  0  0  0  0
 22 23  1  0  0  0  0
 22 25  2  0  0  0  0
 23 28  1  6  0  0  0
 23 26  1  0  0  0  0
 25 21  1  0  0  0  0
 25 24  1  0  0  0  0
 26 24  2  0  0  0  0
 26 31  1  0  0  0  0
 27 28  2  0  0  0  0
 29 28  1  0  0  0  0
 30 29  1  0  0  0  0
 31 34  1  0  0  0  0
 33 34  2  0  0  0  0
 34 32  1  0  0  0  0
M  END
>  <MODEL>
9

>  <REMARK>
 VINA RESULT:      -5.6      2.170      7.898
  Name = 
  11 active torsions:
  status: ('A' for Active; 'I' for Inactive)
    1  A    between atoms: C_1  and  C_5
    2  A    between atoms: C_1  and  C_33
    3  A    between atoms: C_5  and  C_18
    4  A    between atoms: C_6  and  C_34
    5  A    between atoms: C_8  and  C_26
    6  A    between atoms: C_8  and  C_31
    7  A    between atoms: C_11  and  C_23
    8  A    between atoms: C_11  and  C_33
    9  A    between atoms: O_13  and  C_34
   10  A    between atoms: C_22  and  N_27
   11  A    between atoms: N_27  and  C_30
                            x       y       z     vdW  Elec       q    Type
                         _______ _______ _______ _____ _____    ______ ____

>  <TORSDO>
F 11

$$$$
