=
 OpenBabel11072413303D

 36 41  0  0  1  0  0  0  0  0999 V2000
  161.5700  210.6700  151.3560 C   0  0  0  0  0  0  0  0  0  0  0  0
  162.2030  209.9840  149.1930 C   0  0  0  0  0  3  0  0  0  0  0  0
  160.6500  209.2270  152.8650 O   0  0  0  0  0  0  0  0  0  0  0  0
  161.6510  208.2710  150.8730 C   0  0  0  0  0  0  0  0  0  0  0  0
  160.6930  211.3660  151.9630 N   0  0  0  0  0  0  0  0  0  0  0  0
  161.9530  208.5800  149.5990 C   0  0  0  0  0  3  0  0  0  0  0  0
  160.1880  210.5590  153.0630 C   0  0  1  0  0  0  0  0  0  0  0  0
  161.7130  209.3320  151.9450 C   0  0  1  0  0  3  0  0  0  0  0  0
  158.6650  210.5640  153.0110 C   0  0  0  0  0  1  0  0  0  0  0  0
  162.0010  210.9640  150.0250 N   0  0  0  0  0  0  0  0  0  0  0  0
  159.6390  211.3410  155.3670 N   0  0  0  0  0  0  0  0  0  0  0  0
  159.7600  210.5090  156.4770 N   0  0  0  0  0  0  0  0  0  0  0  0
  160.8110  209.7710  156.3790 C   0  0  0  0  0  3  0  0  0  0  0  0
  160.7160  211.0970  154.4140 C   0  0  1  0  0  3  0  0  0  0  0  0
  161.5780  210.0430  155.1230 C   0  0  1  0  0  3  0  0  0  0  0  0
  162.9240  210.6450  155.4720 C   0  0  0  0  0  1  0  0  0  0  0  0
  157.0120  213.6750  155.6350 N   0  0  0  0  0  0  0  0  0  0  0  0
  157.9430  214.4530  155.0440 C   0  0  0  0  0  3  0  0  0  0  0  0
  158.7730  212.4800  155.3570 C   0  0  0  0  0  0  0  0  0  0  0  0
  157.5150  212.4690  155.8240 N   0  0  0  0  0  2  0  0  0  0  0  0
  159.1000  213.7180  154.8430 C   0  0  0  0  0  3  0  0  0  0  0  0
  161.4190  206.9130  151.2620 N   0  0  0  0  0  2  0  0  0  0  0  0
  160.3740  206.0730  150.6920 C   0  0  0  0  0  2  0  0  0  0  0  0
  161.0240  202.4630  149.1710 C   0  0  1  0  0  3  0  0  0  0  0  0
  161.6500  202.5760  151.5830 C   0  0  0  0  0  3  0  0  0  0  0  0
  161.8230  204.7630  148.2000 C   0  0  2  0  0  3  0  0  0  0  0  0
  160.8620  204.6640  150.5640 C   0  0  0  0  0  0  0  0  0  0  0  0
  159.5930  201.9740  149.0250 C   0  0  0  0  0  1  0  0  0  0  0  0
  161.1750  203.9740  151.6650 C   0  0  0  0  0  3  0  0  0  0  0  0
  161.0610  204.0000  149.2250 C   0  0  2  0  0  0  0  0  0  0  0  0
  161.6150  201.8880  150.4330 C   0  0  0  0  0  3  0  0  0  0  0  0
  160.4140  204.6400  148.1530 O   0  0  0  0  0  0  0  0  0  0  0  0
  162.4160  203.8930  147.1950 N   0  0  0  0  0  2  0  0  0  0  0  0
  162.8100  204.7390  146.0800 C   0  0  0  0  0  2  0  0  0  0  0  0
  161.7700  204.6700  144.9770 C   0  0  0  0  0  2  0  0  0  0  0  0
  160.7840  205.6140  145.2020 F   0  0  0  0  0  0  0  0  0  0  0  0
  1  8  1  0  0  0  0
  1  5  2  0  0  0  0
  2  6  1  0  0  0  0
  2 10  2  0  0  0  0
  3  7  1  0  0  0  0
  4 22  1  0  0  0  0
  5  7  1  0  0  0  0
  6  4  2  0  0  0  0
  7  9  1  6  0  0  0
  7 14  1  0  0  0  0
  8  4  1  6  0  0  0
  8  3  1  0  0  0  0
 10  1  1  0  0  0  0
 11 12  1  0  0  0  0
 13 12  2  0  0  0  0
 14 15  1  0  0  0  0
 14 11  1  1  0  0  0
 15 16  1  1  0  0  0
 15 13  1  0  0  0  0
 17 20  1  0  0  0  0
 18 17  2  0  0  0  0
 19 11  1  0  0  0  0
 19 20  1  0  0  0  0
 21 18  1  0  0  0  0
 21 19  2  0  0  0  0
 23 22  1  0  0  0  0
 24 28  1  1  0  0  0
 24 30  1  0  0  0  0
 24 31  1  0  0  0  0
 25 29  1  0  0  0  0
 26 33  1  6  0  0  0
 26 30  1  0  0  0  0
 27 23  1  0  0  0  0
 27 29  2  0  0  0  0
 30 32  1  6  0  0  0
 30 27  1  0  0  0  0
 31 25  2  0  0  0  0
 32 26  1  0  0  0  0
 34 33  1  0  0  0  0
 35 36  1  0  0  0  0
 35 34  1  0  0  0  0
M  END
>  <MODEL>
1

>  <REMARK>
 VINA RESULT:      -6.7      0.000      0.000
  Name = 
  8 active torsions:
  status: ('A' for Active; 'I' for Inactive)
    1  A    between atoms: C_5  and  C_11
    2  A    between atoms: C_5  and  N_28
    3  A    between atoms: N_6  and  C_20
    4  A    between atoms: C_8  and  N_28
    5  A    between atoms: C_9  and  C_31
    6  A    between atoms: C_12  and  N_18
    7  A    between atoms: N_18  and  C_31
    8  A    between atoms: C_21  and  C_23
                            x       y       z     vdW  Elec       q    Type
                         _______ _______ _______ _____ _____    ______ ____

>  <TORSDO>
F 8

$$$$
=
 OpenBabel11072413303D

 36 41  0  0  1  0  0  0  0  0999 V2000
  161.1440  207.9450  153.2900 C   0  0  0  0  0  0  0  0  0  0  0  0
  161.2660  205.6030  153.0760 C   0  0  0  0  0  3  0  0  0  0  0  0
  161.2270  209.3350  151.4820 O   0  0  0  0  0  0  0  0  0  0  0  0
  160.9100  206.9680  151.0580 C   0  0  0  0  0  0  0  0  0  0  0  0
  161.8230  208.9450  153.6920 N   0  0  0  0  0  0  0  0  0  0  0  0
  161.1480  205.7620  151.6070 C   0  0  0  0  0  3  0  0  0  0  0  0
  161.7670  209.9540  152.6450 C   0  0  1  0  0  0  0  0  0  0  0  0
  160.6060  208.1540  151.9400 C   0  0  1  0  0  3  0  0  0  0  0  0
  163.1850  210.4200  152.3400 C   0  0  0  0  0  1  0  0  0  0  0  0
  161.2830  206.6420  153.8590 N   0  0  0  0  0  0  0  0  0  0  0  0
  159.9650  211.5550  152.0060 N   0  0  0  0  0  0  0  0  0  0  0  0
  158.6330  211.3460  152.3570 N   0  0  0  0  0  0  0  0  0  0  0  0
  158.5480  210.8650  153.5480 C   0  0  0  0  0  3  0  0  0  0  0  0
  160.8590  211.1290  153.0770 C   0  0  1  0  0  3  0  0  0  0  0  0
  159.8910  210.6940  154.1870 C   0  0  1  0  0  3  0  0  0  0  0  0
  160.0170  211.6390  155.3640 C   0  0  0  0  0  1  0  0  0  0  0  0
  161.2920  212.9850  149.0710 N   0  0  0  0  0  0  0  0  0  0  0  0
  160.5920  214.0400  149.5370 C   0  0  0  0  0  3  0  0  0  0  0  0
  160.3410  212.3760  150.8960 C   0  0  0  0  0  0  0  0  0  0  0  0
  161.1430  211.9680  149.9010 N   0  0  0  0  0  2  0  0  0  0  0  0
  159.9620  213.6910  150.7200 C   0  0  0  0  0  3  0  0  0  0  0  0
  160.7870  207.1150  149.6400 N   0  0  0  0  0  2  0  0  0  0  0  0
  161.8800  206.8920  148.7020 C   0  0  0  0  0  2  0  0  0  0  0  0
  161.5190  204.1190  145.8840 C   0  0  1  0  0  3  0  0  0  0  0  0
  160.2190  206.1750  145.3300 C   0  0  0  0  0  3  0  0  0  0  0  0
  161.1610  203.8180  148.4630 C   0  0  2  0  0  3  0  0  0  0  0  0
  161.3790  206.1700  147.4910 C   0  0  0  0  0  0  0  0  0  0  0  0
  162.9020  204.1920  145.2600 C   0  0  0  0  0  1  0  0  0  0  0  0
  160.7210  206.8480  146.5470 C   0  0  0  0  0  3  0  0  0  0  0  0
  161.5480  204.6820  147.3150 C   0  0  2  0  0  0  0  0  0  0  0  0
  160.5550  204.9100  145.0370 C   0  0  0  0  0  3  0  0  0  0  0  0
  162.5130  204.1000  148.1550 O   0  0  0  0  0  0  0  0  0  0  0  0
  160.8450  202.4600  148.0470 N   0  0  0  0  0  2  0  0  0  0  0  0
  160.0660  201.8580  149.1170 C   0  0  0  0  0  2  0  0  0  0  0  0
  160.9860  201.3260  150.2000 C   0  0  0  0  0  2  0  0  0  0  0  0
  160.9550  202.1690  151.2970 F   0  0  0  0  0  0  0  0  0  0  0  0
  1  5  2  0  0  0  0
  1 10  1  0  0  0  0
  2 10  2  0  0  0  0
  3  8  1  0  0  0  0
  3  7  1  0  0  0  0
  4  6  2  0  0  0  0
  6  2  1  0  0  0  0
  7  9  1  6  0  0  0
  7 14  1  0  0  0  0
  7  5  1  0  0  0  0
  8  4  1  6  0  0  0
  8  1  1  0  0  0  0
 11 12  1  0  0  0  0
 12 13  2  0  0  0  0
 13 15  1  0  0  0  0
 14 11  1  6  0  0  0
 14 15  1  0  0  0  0
 15 16  1  1  0  0  0
 17 18  2  0  0  0  0
 17 20  1  0  0  0  0
 18 21  1  0  0  0  0
 19 11  1  0  0  0  0
 20 19  1  0  0  0  0
 21 19  2  0  0  0  0
 22  4  1  0  0  0  0
 23 22  1  0  0  0  0
 24 28  1  6  0  0  0
 24 30  1  0  0  0  0
 25 29  1  0  0  0  0
 26 33  1  6  0  0  0
 27 23  1  0  0  0  0
 29 27  2  0  0  0  0
 30 27  1  1  0  0  0
 30 32  1  0  0  0  0
 30 26  1  0  0  0  0
 31 25  2  0  0  0  0
 31 24  1  0  0  0  0
 32 26  1  0  0  0  0
 33 34  1  0  0  0  0
 34 35  1  0  0  0  0
 35 36  1  0  0  0  0
M  END
>  <MODEL>
2

>  <REMARK>
 VINA RESULT:      -6.6      2.362      4.426
  Name = 
  8 active torsions:
  status: ('A' for Active; 'I' for Inactive)
    1  A    between atoms: C_5  and  C_11
    2  A    between atoms: C_5  and  N_28
    3  A    between atoms: N_6  and  C_20
    4  A    between atoms: C_8  and  N_28
    5  A    between atoms: C_9  and  C_31
    6  A    between atoms: C_12  and  N_18
    7  A    between atoms: N_18  and  C_31
    8  A    between atoms: C_21  and  C_23
                            x       y       z     vdW  Elec       q    Type
                         _______ _______ _______ _____ _____    ______ ____

>  <TORSDO>
F 8

$$$$
=
 OpenBabel11072413303D

 36 41  0  0  1  0  0  0  0  0999 V2000
  161.4410  206.9760  150.1520 C   0  0  0  0  0  0  0  0  0  0  0  0
  161.2190  208.7060  151.7340 C   0  0  0  0  0  3  0  0  0  0  0  0
  161.7130  207.3960  147.9250 O   0  0  0  0  0  0  0  0  0  0  0  0
  161.9550  209.2650  149.4520 C   0  0  0  0  0  0  0  0  0  0  0  0
  160.7670  206.0630  149.5740 N   0  0  0  0  0  0  0  0  0  0  0  0
  161.5680  209.6800  150.6720 C   0  0  0  0  0  3  0  0  0  0  0  0
  161.0390  206.1620  148.1490 C   0  0  1  0  0  0  0  0  0  0  0  0
  162.1880  207.7970  149.1910 C   0  0  1  0  0  3  0  0  0  0  0  0
  159.7120  206.1830  147.3990 C   0  0  0  0  0  1  0  0  0  0  0  0
  161.1430  207.4340  151.4720 N   0  0  0  0  0  0  0  0  0  0  0  0
  161.2310  203.7140  147.7130 N   0  0  0  0  0  0  0  0  0  0  0  0
  161.1200  203.1810  146.4320 N   0  0  0  0  0  0  0  0  0  0  0  0
  161.7020  203.9420  145.5720 C   0  0  0  0  0  3  0  0  0  0  0  0
  161.9370  204.9890  147.6880 C   0  0  1  0  0  3  0  0  0  0  0  0
  162.3240  205.1440  146.2100 C   0  0  1  0  0  3  0  0  0  0  0  0
  163.8320  205.0680  146.0740 C   0  0  0  0  0  1  0  0  0  0  0  0
  160.9330  202.3640  150.9560 N   0  0  0  0  0  0  0  0  0  0  0  0
  160.4100  201.3470  150.2410 C   0  0  0  0  0  2  0  0  0  0  0  0
  160.9770  202.9360  148.8880 C   0  0  0  0  0  0  0  0  0  0  0  0
  161.2830  203.3340  150.1310 N   0  0  0  0  0  0  0  0  0  0  0  0
  160.4220  201.6730  148.8950 C   0  0  0  0  0  3  0  0  0  0  0  0
  162.2990  210.2090  148.4320 N   0  0  0  0  0  2  0  0  0  0  0  0
  162.5940  211.6120  148.6920 C   0  0  0  0  0  2  0  0  0  0  0  0
  160.1980  213.2980  146.0120 C   0  0  1  0  0  3  0  0  0  0  0  0
  162.6030  213.6570  145.4560 C   0  0  0  0  0  3  0  0  0  0  0  0
  160.1030  213.5650  148.6180 C   0  0  2  0  0  3  0  0  0  0  0  0
  162.1360  212.4540  147.5420 C   0  0  0  0  0  0  0  0  0  0  0  0
  159.6770  212.0590  145.3040 C   0  0  0  0  0  1  0  0  0  0  0  0
  163.0170  212.8340  146.6130 C   0  0  0  0  0  3  0  0  0  0  0  0
  160.7120  212.9350  147.4160 C   0  0  2  0  0  0  0  0  0  0  0  0
  161.3100  213.9010  145.1940 C   0  0  0  0  0  3  0  0  0  0  0  0
  159.7880  212.2440  148.2190 O   0  0  0  0  0  0  0  0  0  0  0  0
  158.9970  214.4470  148.2760 N   0  0  0  0  0  2  0  0  0  0  0  0
  158.0390  214.3710  149.3670 C   0  0  0  0  0  2  0  0  0  0  0  0
  156.8020  213.6100  148.9240 C   0  0  0  0  0  2  0  0  0  0  0  0
  156.8410  213.4060  147.5570 F   0  0  0  0  0  0  0  0  0  0  0  0
  1 10  1  0  0  0  0
  3  7  1  0  0  0  0
  4  6  2  0  0  0  0
  5  1  2  0  0  0  0
  6  2  1  0  0  0  0
  7  9  1  6  0  0  0
  7  5  1  0  0  0  0
  8  3  1  6  0  0  0
  8  4  1  0  0  0  0
  8  1  1  0  0  0  0
 10  2  2  0  0  0  0
 11 19  1  0  0  0  0
 12 11  1  0  0  0  0
 13 15  1  0  0  0  0
 13 12  2  0  0  0  0
 14 11  1  6  0  0  0
 14  7  1  0  0  0  0
 15 16  1  1  0  0  0
 15 14  1  0  0  0  0
 18 17  1  0  0  0  0
 19 21  2  0  0  0  0
 19 20  1  0  0  0  0
 20 17  2  0  0  0  0
 21 18  1  0  0  0  0
 22 23  1  0  0  0  0
 22  4  1  0  0  0  0
 24 28  1  6  0  0  0
 24 30  1  0  0  0  0
 25 29  1  0  0  0  0
 26 33  1  6  0  0  0
 27 23  1  0  0  0  0
 29 27  2  0  0  0  0
 30 27  1  1  0  0  0
 30 32  1  0  0  0  0
 30 26  1  0  0  0  0
 31 25  2  0  0  0  0
 31 24  1  0  0  0  0
 32 26  1  0  0  0  0
 33 34  1  0  0  0  0
 35 34  1  0  0  0  0
 36 35  1  0  0  0  0
M  END
>  <MODEL>
3

>  <REMARK>
 VINA RESULT:      -6.4      3.885      9.509
  Name = 
  8 active torsions:
  status: ('A' for Active; 'I' for Inactive)
    1  A    between atoms: C_5  and  C_11
    2  A    between atoms: C_5  and  N_28
    3  A    between atoms: N_6  and  C_20
    4  A    between atoms: C_8  and  N_28
    5  A    between atoms: C_9  and  C_31
    6  A    between atoms: C_12  and  N_18
    7  A    between atoms: N_18  and  C_31
    8  A    between atoms: C_21  and  C_23
                            x       y       z     vdW  Elec       q    Type
                         _______ _______ _______ _____ _____    ______ ____

>  <TORSDO>
F 8

$$$$
=
 OpenBabel11072413303D

 36 41  0  0  1  0  0  0  0  0999 V2000
  161.8360  211.1470  150.1050 C   0  0  0  0  0  0  0  0  0  0  0  0
  162.1100  209.4540  151.7190 C   0  0  0  0  0  3  0  0  0  0  0  0
  161.9090  210.7120  147.8660 O   0  0  0  0  0  0  0  0  0  0  0  0
  161.7560  208.8130  149.3680 C   0  0  0  0  0  0  0  0  0  0  0  0
  162.4340  212.1550  149.6070 N   0  0  0  0  0  0  0  0  0  0  0  0
  162.0440  208.4490  150.6310 C   0  0  0  0  0  3  0  0  0  0  0  0
  162.3600  212.0300  148.1600 C   0  0  1  0  0  0  0  0  0  0  0  0
  161.3430  210.2330  149.0660 C   0  0  1  0  0  3  0  0  0  0  0  0
  163.7590  212.2110  147.5820 C   0  0  0  0  0  1  0  0  0  0  0  0
  162.0300  210.7260  151.4560 N   0  0  0  0  0  0  0  0  0  0  0  0
  160.9480  212.7210  146.2240 N   0  0  0  0  0  0  0  0  0  0  0  0
  159.5820  212.4550  146.1740 N   0  0  0  0  0  0  0  0  0  0  0  0
  159.0470  212.6150  147.3340 C   0  0  0  0  0  3  0  0  0  0  0  0
  161.3640  213.0610  147.5790 C   0  0  1  0  0  3  0  0  0  0  0  0
  160.0430  213.0470  148.3630 C   0  0  1  0  0  3  0  0  0  0  0  0
  159.7180  214.4530  148.8260 C   0  0  0  0  0  1  0  0  0  0  0  0
  163.2750  213.6980  143.7630 N   0  0  0  0  0  0  0  0  0  0  0  0
  162.4370  212.9660  143.0010 C   0  0  0  0  0  3  0  0  0  0  0  0
  161.7250  212.9460  145.0430 C   0  0  0  0  0  0  0  0  0  0  0  0
  162.8400  213.6900  145.0100 N   0  0  0  0  0  2  0  0  0  0  0  0
  161.4160  212.4620  143.7880 C   0  0  0  0  0  3  0  0  0  0  0  0
  161.6840  207.8380  148.3230 N   0  0  0  0  0  2  0  0  0  0  0  0
  161.0940  206.5160  148.4850 C   0  0  0  0  0  2  0  0  0  0  0  0
  161.9450  203.9530  145.5750 C   0  0  1  0  0  3  0  0  0  0  0  0
  160.4370  205.7770  144.7880 C   0  0  0  0  0  3  0  0  0  0  0  0
  161.0610  203.3910  147.9780 C   0  0  2  0  0  3  0  0  0  0  0  0
  161.0390  205.8130  147.1660 C   0  0  0  0  0  0  0  0  0  0  0  0
  163.3950  204.3230  145.3100 C   0  0  0  0  0  1  0  0  0  0  0  0
  160.5010  206.4330  146.1120 C   0  0  0  0  0  3  0  0  0  0  0  0
  161.5300  204.3980  146.9880 C   0  0  2  0  0  0  0  0  0  0  0  0
  161.0710  204.6210  144.5450 C   0  0  0  0  0  3  0  0  0  0  0  0
  162.3670  203.9350  148.0180 O   0  0  0  0  0  0  0  0  0  0  0  0
  161.1210  202.0350  147.4530 N   0  0  0  0  0  2  0  0  0  0  0  0
  161.0230  201.1350  148.5910 C   0  0  0  0  0  2  0  0  0  0  0  0
  160.0750  201.7050  149.6300 C   0  0  0  0  0  2  0  0  0  0  0  0
  158.7870  201.2670  149.3800 F   0  0  0  0  0  0  0  0  0  0  0  0
  1 10  1  0  0  0  0
  3  7  1  0  0  0  0
  4  6  2  0  0  0  0
  5  1  2  0  0  0  0
  6  2  1  0  0  0  0
  7  9  1  6  0  0  0
  7  5  1  0  0  0  0
  8  3  1  6  0  0  0
  8  4  1  0  0  0  0
  8  1  1  0  0  0  0
 10  2  2  0  0  0  0
 12 11  1  0  0  0  0
 12 13  2  0  0  0  0
 13 15  1  0  0  0  0
 14 11  1  6  0  0  0
 14  7  1  0  0  0  0
 14 15  1  0  0  0  0
 15 16  1  6  0  0  0
 17 20  1  0  0  0  0
 18 17  2  0  0  0  0
 18 21  1  0  0  0  0
 19 11  1  0  0  0  0
 20 19  1  0  0  0  0
 21 19  2  0  0  0  0
 22 23  1  0  0  0  0
 22  4  1  0  0  0  0
 24 28  1  6  0  0  0
 24 30  1  0  0  0  0
 25 29  1  0  0  0  0
 26 33  1  6  0  0  0
 26 32  1  0  0  0  0
 27 23  1  0  0  0  0
 29 27  2  0  0  0  0
 30 27  1  1  0  0  0
 30 26  1  0  0  0  0
 30 32  1  0  0  0  0
 31 25  2  0  0  0  0
 31 24  1  0  0  0  0
 33 34  1  0  0  0  0
 34 35  1  0  0  0  0
 36 35  1  0  0  0  0
M  END
>  <MODEL>
4

>  <REMARK>
 VINA RESULT:      -6.1      3.653      6.843
  Name = 
  8 active torsions:
  status: ('A' for Active; 'I' for Inactive)
    1  A    between atoms: C_5  and  C_11
    2  A    between atoms: C_5  and  N_28
    3  A    between atoms: N_6  and  C_20
    4  A    between atoms: C_8  and  N_28
    5  A    between atoms: C_9  and  C_31
    6  A    between atoms: C_12  and  N_18
    7  A    between atoms: N_18  and  C_31
    8  A    between atoms: C_21  and  C_23
                            x       y       z     vdW  Elec       q    Type
                         _______ _______ _______ _____ _____    ______ ____

>  <TORSDO>
F 8

$$$$
=
 OpenBabel11072413303D

 36 41  0  0  1  0  0  0  0  0999 V2000
  161.7290  208.2850  150.1630 C   0  0  0  0  0  0  0  0  0  0  0  0
  162.1480  210.6000  150.0560 C   0  0  0  0  0  3  0  0  0  0  0  0
  161.1630  207.2430  152.1130 O   0  0  0  0  0  0  0  0  0  0  0  0
  161.1140  209.6680  152.0870 C   0  0  0  0  0  0  0  0  0  0  0  0
  162.3260  207.1610  150.1050 N   0  0  0  0  0  0  0  0  0  0  0  0
  161.6560  210.7220  151.4500 C   0  0  0  0  0  3  0  0  0  0  0  0
  161.8670  206.3700  151.2360 C   0  0  1  0  0  0  0  0  0  0  0  0
  160.8560  208.3820  151.3400 C   0  0  1  0  0  3  0  0  0  0  0  0
  163.0830  205.8140  151.9680 C   0  0  0  0  0  1  0  0  0  0  0  0
  162.1960  209.4410  149.4660 N   0  0  0  0  0  0  0  0  0  0  0  0
  161.3730  204.6430  149.5070 N   0  0  0  0  0  0  0  0  0  0  0  0
  161.7020  203.3020  149.6870 N   0  0  0  0  0  0  0  0  0  0  0  0
  161.4880  202.9420  150.9040 C   0  0  0  0  0  3  0  0  0  0  0  0
  160.9230  205.2420  150.7580 C   0  0  1  0  0  3  0  0  0  0  0  0
  160.9430  204.0590  151.7370 C   0  0  1  0  0  3  0  0  0  0  0  0
  159.5250  203.7310  152.1610 C   0  0  0  0  0  1  0  0  0  0  0  0
  160.3740  206.4210  146.6320 N   0  0  0  0  0  0  0  0  0  0  0  0
  161.3600  205.6710  146.1000 C   0  0  0  0  0  3  0  0  0  0  0  0
  161.1930  205.2160  148.2080 C   0  0  0  0  0  0  0  0  0  0  0  0
  160.2680  206.1430  147.9190 N   0  0  0  0  0  2  0  0  0  0  0  0
  161.9170  204.8720  147.0840 C   0  0  0  0  0  3  0  0  0  0  0  0
  160.6320  209.7920  153.4290 N   0  0  0  0  0  2  0  0  0  0  0  0
  160.5520  211.0570  154.1490 C   0  0  0  0  0  2  0  0  0  0  0  0
  157.2350  213.2380  154.2080 C   0  0  1  0  0  3  0  0  0  0  0  0
  156.9560  211.0970  155.4580 C   0  0  0  0  0  3  0  0  0  0  0  0
  158.6570  212.5670  152.1110 C   0  0  2  0  0  3  0  0  0  0  0  0
  159.1200  211.4400  154.3560 C   0  0  0  0  0  0  0  0  0  0  0  0
  157.6610  214.3450  155.1570 C   0  0  0  0  0  1  0  0  0  0  0  0
  158.3710  210.7450  155.2170 C   0  0  0  0  0  3  0  0  0  0  0  0
  158.4690  212.5620  153.5870 C   0  0  2  0  0  0  0  0  0  0  0  0
  156.4190  212.2250  154.9690 C   0  0  0  0  0  3  0  0  0  0  0  0
  159.3690  213.4430  152.9640 O   0  0  0  0  0  0  0  0  0  0  0  0
  157.6090  213.3090  151.4260 N   0  0  0  0  0  2  0  0  0  0  0  0
  158.0390  213.4770  150.0470 C   0  0  0  0  0  2  0  0  0  0  0  0
  156.8480  213.3850  149.1110 C   0  0  0  0  0  2  0  0  0  0  0  0
  157.0540  212.3760  148.1880 F   0  0  0  0  0  0  0  0  0  0  0  0
  2  6  1  0  0  0  0
  4 22  1  0  0  0  0
  5  1  2  0  0  0  0
  5  7  1  0  0  0  0
  6  4  2  0  0  0  0
  7  9  1  1  0  0  0
  7  3  1  0  0  0  0
  8  1  1  6  0  0  0
  8  4  1  0  0  0  0
  8  3  1  0  0  0  0
 10  2  2  0  0  0  0
 10  1  1  0  0  0  0
 11 12  1  0  0  0  0
 12 13  2  0  0  0  0
 13 15  1  0  0  0  0
 14 11  1  6  0  0  0
 14  7  1  0  0  0  0
 14 15  1  0  0  0  0
 15 16  1  6  0  0  0
 17 20  1  0  0  0  0
 18 17  2  0  0  0  0
 18 21  1  0  0  0  0
 19 11  1  0  0  0  0
 20 19  1  0  0  0  0
 21 19  2  0  0  0  0
 22 23  1  0  0  0  0
 23 27  1  0  0  0  0
 24 31  1  0  0  0  0
 24 28  1  1  0  0  0
 26 33  1  6  0  0  0
 26 32  1  0  0  0  0
 26 30  1  0  0  0  0
 27 29  2  0  0  0  0
 29 25  1  0  0  0  0
 30 32  1  1  0  0  0
 30 24  1  0  0  0  0
 30 27  1  0  0  0  0
 31 25  2  0  0  0  0
 34 33  1  0  0  0  0
 35 34  1  0  0  0  0
 36 35  1  0  0  0  0
M  END
>  <MODEL>
5

>  <REMARK>
 VINA RESULT:      -5.8      2.601      8.722
  Name = 
  8 active torsions:
  status: ('A' for Active; 'I' for Inactive)
    1  A    between atoms: C_5  and  C_11
    2  A    between atoms: C_5  and  N_28
    3  A    between atoms: N_6  and  C_20
    4  A    between atoms: C_8  and  N_28
    5  A    between atoms: C_9  and  C_31
    6  A    between atoms: C_12  and  N_18
    7  A    between atoms: N_18  and  C_31
    8  A    between atoms: C_21  and  C_23
                            x       y       z     vdW  Elec       q    Type
                         _______ _______ _______ _____ _____    ______ ____

>  <TORSDO>
F 8

$$$$
=
 OpenBabel11072413303D

 36 41  0  0  1  0  0  0  0  0999 V2000
  160.2890  208.4430  155.1720 C   0  0  0  0  0  0  0  0  0  0  0  0
  160.6800  206.1450  154.8340 C   0  0  0  0  0  3  0  0  0  0  0  0
  161.0080  210.0260  153.6950 O   0  0  0  0  0  0  0  0  0  0  0  0
  161.0920  207.7100  152.9780 C   0  0  0  0  0  0  0  0  0  0  0  0
  160.6540  209.4170  155.9070 N   0  0  0  0  0  0  0  0  0  0  0  0
  161.1750  206.4610  153.4730 C   0  0  0  0  0  3  0  0  0  0  0  0
  160.9590  210.5330  155.0240 C   0  0  1  0  0  0  0  0  0  0  0  0
  160.3510  208.7790  153.7440 C   0  0  1  0  0  3  0  0  0  0  0  0
  162.3320  211.0840  155.3920 C   0  0  0  0  0  1  0  0  0  0  0  0
  160.2820  207.0910  155.6340 N   0  0  0  0  0  0  0  0  0  0  0  0
  159.0660  211.7100  153.9080 N   0  0  0  0  0  0  0  0  0  0  0  0
  157.7380  211.3720  154.1540 N   0  0  0  0  0  0  0  0  0  0  0  0
  157.5620  211.1010  155.4010 C   0  0  0  0  0  3  0  0  0  0  0  0
  159.8620  211.6180  155.1260 C   0  0  1  0  0  3  0  0  0  0  0  0
  158.8230  211.2460  156.1950 C   0  0  1  0  0  3  0  0  0  0  0  0
  158.6750  212.3930  157.1750 C   0  0  0  0  0  1  0  0  0  0  0  0
  160.4200  212.6930  150.8060 N   0  0  0  0  0  0  0  0  0  0  0  0
  159.8160  213.8450  151.1610 C   0  0  0  0  0  3  0  0  0  0  0  0
  159.4740  212.3690  152.7050 C   0  0  0  0  0  0  0  0  0  0  0  0
  160.2160  211.7910  151.7490 N   0  0  0  0  0  2  0  0  0  0  0  0
  159.1930  213.6820  152.3880 C   0  0  0  0  0  3  0  0  0  0  0  0
  161.5630  208.0090  151.6600 N   0  0  0  0  0  2  0  0  0  0  0  0
  162.4370  207.1320  150.8920 C   0  0  0  0  0  2  0  0  0  0  0  0
  161.2290  204.9190  147.8260 C   0  0  1  0  0  3  0  0  0  0  0  0
  160.8400  207.3490  147.4210 C   0  0  0  0  0  3  0  0  0  0  0  0
  160.6240  204.5920  150.3550 C   0  0  2  0  0  3  0  0  0  0  0  0
  161.7760  206.7460  149.6070 C   0  0  0  0  0  0  0  0  0  0  0  0
  162.5720  204.5020  147.2520 C   0  0  0  0  0  1  0  0  0  0  0  0
  161.4840  207.6900  148.7080 C   0  0  0  0  0  3  0  0  0  0  0  0
  161.3790  205.3230  149.3020 C   0  0  2  0  0  0  0  0  0  0  0  0
  160.6900  206.0770  147.0250 C   0  0  0  0  0  3  0  0  0  0  0  0
  161.9990  204.3570  150.1140 O   0  0  0  0  0  0  0  0  0  0  0  0
  159.8440  203.4920  149.8090 N   0  0  0  0  0  2  0  0  0  0  0  0
  160.5450  202.2640  150.1490 C   0  0  0  0  0  2  0  0  0  0  0  0
  160.7550  201.4190  148.9060 C   0  0  0  0  0  2  0  0  0  0  0  0
  161.8570  200.6000  149.0760 F   0  0  0  0  0  0  0  0  0  0  0  0
  1 10  1  0  0  0  0
  1  5  2  0  0  0  0
  2 10  2  0  0  0  0
  3  8  1  0  0  0  0
  3  7  1  0  0  0  0
  4  6  2  0  0  0  0
  6  2  1  0  0  0  0
  7 14  1  0  0  0  0
  7  9  1  1  0  0  0
  7  5  1  0  0  0  0
  8  4  1  6  0  0  0
  8  1  1  0  0  0  0
 11 12  1  0  0  0  0
 12 13  2  0  0  0  0
 13 15  1  0  0  0  0
 14 11  1  6  0  0  0
 14 15  1  0  0  0  0
 15 16  1  1  0  0  0
 17 18  2  0  0  0  0
 17 20  1  0  0  0  0
 18 21  1  0  0  0  0
 19 11  1  0  0  0  0
 20 19  1  0  0  0  0
 21 19  2  0  0  0  0
 22  4  1  0  0  0  0
 23 22  1  0  0  0  0
 24 28  1  6  0  0  0
 24 30  1  0  0  0  0
 25 29  1  0  0  0  0
 26 33  1  6  0  0  0
 27 23  1  0  0  0  0
 29 27  2  0  0  0  0
 30 27  1  1  0  0  0
 30 32  1  0  0  0  0
 30 26  1  0  0  0  0
 31 25  2  0  0  0  0
 31 24  1  0  0  0  0
 32 26  1  0  0  0  0
 33 34  1  0  0  0  0
 35 36  1  0  0  0  0
 35 34  1  0  0  0  0
M  END
>  <MODEL>
6

>  <REMARK>
 VINA RESULT:      -5.8      2.262      4.103
  Name = 
  8 active torsions:
  status: ('A' for Active; 'I' for Inactive)
    1  A    between atoms: C_5  and  C_11
    2  A    between atoms: C_5  and  N_28
    3  A    between atoms: N_6  and  C_20
    4  A    between atoms: C_8  and  N_28
    5  A    between atoms: C_9  and  C_31
    6  A    between atoms: C_12  and  N_18
    7  A    between atoms: N_18  and  C_31
    8  A    between atoms: C_21  and  C_23
                            x       y       z     vdW  Elec       q    Type
                         _______ _______ _______ _____ _____    ______ ____

>  <TORSDO>
F 8

$$$$
=
 OpenBabel11072413303D

 36 41  0  0  1  0  0  0  0  0999 V2000
  161.3000  206.3100  150.2020 C   0  0  0  0  0  0  0  0  0  0  0  0
  161.0140  207.8670  151.9460 C   0  0  0  0  0  3  0  0  0  0  0  0
  161.7990  206.9530  148.0700 O   0  0  0  0  0  0  0  0  0  0  0  0
  161.9860  208.6280  149.8150 C   0  0  0  0  0  0  0  0  0  0  0  0
  160.6410  205.5050  149.4680 N   0  0  0  0  0  0  0  0  0  0  0  0
  161.5070  208.9300  151.0360 C   0  0  0  0  0  3  0  0  0  0  0  0
  161.0490  205.7430  148.0920 C   0  0  1  0  0  0  0  0  0  0  0  0
  162.1730  207.1870  149.4100 C   0  0  1  0  0  3  0  0  0  0  0  0
  159.8010  205.9220  147.2370 C   0  0  0  0  0  1  0  0  0  0  0  0
  160.9030  206.6380  151.5350 N   0  0  0  0  0  0  0  0  0  0  0  0
  161.1960  203.3190  147.5240 N   0  0  0  0  0  0  0  0  0  0  0  0
  161.0960  202.8610  146.2130 N   0  0  0  0  0  0  0  0  0  0  0  0
  161.7100  203.6560  145.4070 C   0  0  0  0  0  3  0  0  0  0  0  0
  161.9290  204.5780  147.5820 C   0  0  1  0  0  3  0  0  0  0  0  0
  162.3470  204.8060  146.1220 C   0  0  1  0  0  3  0  0  0  0  0  0
  163.8540  204.7030  146.0060 C   0  0  0  0  0  1  0  0  0  0  0  0
  160.0210  200.9170  149.8200 N   0  0  0  0  0  0  0  0  0  0  0  0
  160.8220  201.6330  150.6360 C   0  0  0  0  0  2  0  0  0  0  0  0
  160.9040  202.4830  148.6490 C   0  0  0  0  0  0  0  0  0  0  0  0
  160.0660  201.4360  148.6070 N   0  0  0  0  0  0  0  0  0  0  0  0
  161.4130  202.6600  149.9190 C   0  0  0  0  0  3  0  0  0  0  0  0
  162.4690  209.6560  148.9430 N   0  0  0  0  0  2  0  0  0  0  0  0
  161.6540  210.3070  147.9250 C   0  0  0  0  0  2  0  0  0  0  0  0
  161.8870  214.2700  147.9340 C   0  0  1  0  0  3  0  0  0  0  0  0
  160.6600  213.4120  149.9300 C   0  0  0  0  0  3  0  0  0  0  0  0
  161.0670  212.7320  145.9770 C   0  0  2  0  0  3  0  0  0  0  0  0
  161.4020  211.7320  148.3030 C   0  0  0  0  0  0  0  0  0  0  0  0
  163.3590  214.4490  148.2630 C   0  0  0  0  0  1  0  0  0  0  0  0
  160.9130  212.0160  149.5140 C   0  0  0  0  0  3  0  0  0  0  0  0
  161.6370  212.8720  147.3440 C   0  0  2  0  0  0  0  0  0  0  0  0
  161.0760  214.4520  149.1920 C   0  0  0  0  0  3  0  0  0  0  0  0
  162.4450  212.5490  146.2390 O   0  0  0  0  0  0  0  0  0  0  0  0
  160.8670  214.0200  145.3300 N   0  0  0  0  0  2  0  0  0  0  0  0
  160.0380  213.7830  144.1590 C   0  0  0  0  0  2  0  0  0  0  0  0
  159.7640  212.2990  144.0030 C   0  0  0  0  0  2  0  0  0  0  0  0
  159.7070  211.9710  142.6600 F   0  0  0  0  0  0  0  0  0  0  0  0
  1 10  1  0  0  0  0
  3  7  1  0  0  0  0
  4  6  2  0  0  0  0
  5  1  2  0  0  0  0
  6  2  1  0  0  0  0
  7  9  1  6  0  0  0
  7  5  1  0  0  0  0
  8  3  1  6  0  0  0
  8  4  1  0  0  0  0
  8  1  1  0  0  0  0
 10  2  2  0  0  0  0
 11 19  1  0  0  0  0
 12 11  1  0  0  0  0
 13 15  1  0  0  0  0
 13 12  2  0  0  0  0
 14 11  1  6  0  0  0
 14  7  1  0  0  0  0
 15 16  1  1  0  0  0
 15 14  1  0  0  0  0
 17 18  1  0  0  0  0
 19 21  2  0  0  0  0
 20 19  1  0  0  0  0
 20 17  2  0  0  0  0
 21 18  1  0  0  0  0
 22  4  1  0  0  0  0
 23 27  1  0  0  0  0
 23 22  1  0  0  0  0
 24 28  1  1  0  0  0
 24 31  1  0  0  0  0
 26 33  1  6  0  0  0
 26 32  1  0  0  0  0
 26 30  1  0  0  0  0
 27 29  2  0  0  0  0
 29 25  1  0  0  0  0
 30 32  1  6  0  0  0
 30 24  1  0  0  0  0
 30 27  1  0  0  0  0
 31 25  2  0  0  0  0
 34 33  1  0  0  0  0
 35 34  1  0  0  0  0
 36 35  1  0  0  0  0
M  END
>  <MODEL>
7

>  <REMARK>
 VINA RESULT:      -5.5      3.916      9.423
  Name = 
  8 active torsions:
  status: ('A' for Active; 'I' for Inactive)
    1  A    between atoms: C_5  and  C_11
    2  A    between atoms: C_5  and  N_28
    3  A    between atoms: N_6  and  C_20
    4  A    between atoms: C_8  and  N_28
    5  A    between atoms: C_9  and  C_31
    6  A    between atoms: C_12  and  N_18
    7  A    between atoms: N_18  and  C_31
    8  A    between atoms: C_21  and  C_23
                            x       y       z     vdW  Elec       q    Type
                         _______ _______ _______ _____ _____    ______ ____

>  <TORSDO>
F 8

$$$$
=
 OpenBabel11072413303D

 36 41  0  0  1  0  0  0  0  0999 V2000
  161.5890  209.0300  148.5940 C   0  0  0  0  0  0  0  0  0  0  0  0
  161.9290  211.3520  148.7970 C   0  0  0  0  0  3  0  0  0  0  0  0
  162.2140  207.5650  150.2280 O   0  0  0  0  0  0  0  0  0  0  0  0
  162.2200  209.9260  150.7840 C   0  0  0  0  0  0  0  0  0  0  0  0
  162.0180  208.0130  147.9590 N   0  0  0  0  0  0  0  0  0  0  0  0
  162.3260  211.1390  150.2100 C   0  0  0  0  0  3  0  0  0  0  0  0
  162.2690  206.9670  148.9380 C   0  0  1  0  0  0  0  0  0  0  0  0
  161.5500  208.7950  150.0430 C   0  0  1  0  0  3  0  0  0  0  0  0
  163.6700  206.4130  148.7110 C   0  0  0  0  0  1  0  0  0  0  0  0
  161.6020  210.3460  148.0390 N   0  0  0  0  0  0  0  0  0  0  0  0
  161.4750  204.9200  147.7540 N   0  0  0  0  0  0  0  0  0  0  0  0
  161.7040  203.6420  148.2550 N   0  0  0  0  0  0  0  0  0  0  0  0
  161.5710  203.6260  149.5360 C   0  0  0  0  0  3  0  0  0  0  0  0
  161.1930  205.8600  148.8330 C   0  0  1  0  0  3  0  0  0  0  0  0
  161.2010  204.9680  150.0830 C   0  0  1  0  0  3  0  0  0  0  0  0
  159.8050  204.9100  150.6690 C   0  0  0  0  0  1  0  0  0  0  0  0
  160.4660  206.0880  144.5850 N   0  0  0  0  0  0  0  0  0  0  0  0
  161.1570  204.9920  144.2100 C   0  0  0  0  0  3  0  0  0  0  0  0
  161.2280  205.1620  146.3650 C   0  0  0  0  0  0  0  0  0  0  0  0
  160.5050  206.1930  145.9010 N   0  0  0  0  0  2  0  0  0  0  0  0
  161.6660  204.3590  145.3320 C   0  0  0  0  0  3  0  0  0  0  0  0
  162.5960  209.7270  152.1500 N   0  0  0  0  0  2  0  0  0  0  0  0
  161.8880  210.3150  153.2800 C   0  0  0  0  0  2  0  0  0  0  0  0
  160.0860  208.4200  156.2680 C   0  0  1  0  0  3  0  0  0  0  0  0
  160.5020  206.9060  154.3290 C   0  0  0  0  0  3  0  0  0  0  0  0
  159.3680  210.6850  155.1600 C   0  0  2  0  0  3  0  0  0  0  0  0
  161.1600  209.2510  154.0390 C   0  0  0  0  0  0  0  0  0  0  0  0
  161.2350  208.3290  157.2570 C   0  0  0  0  0  1  0  0  0  0  0  0
  161.1990  207.9890  153.6030 C   0  0  0  0  0  3  0  0  0  0  0  0
  160.3340  209.5580  155.2630 C   0  0  2  0  0  0  0  0  0  0  0  0
  159.9590  207.1070  155.5400 C   0  0  0  0  0  3  0  0  0  0  0  0
  160.5980  210.8090  155.8470 O   0  0  0  0  0  0  0  0  0  0  0  0
  158.2860  210.5710  156.1270 N   0  0  0  0  0  2  0  0  0  0  0  0
  157.2530  211.5100  155.7210 C   0  0  0  0  0  2  0  0  0  0  0  0
  155.9530  210.7750  155.4510 C   0  0  0  0  0  2  0  0  0  0  0  0
  155.1320  210.8500  156.5610 F   0  0  0  0  0  0  0  0  0  0  0  0
  2  6  1  0  0  0  0
  4 22  1  0  0  0  0
  5  1  2  0  0  0  0
  5  7  1  0  0  0  0
  6  4  2  0  0  0  0
  7  9  1  6  0  0  0
  7  3  1  0  0  0  0
  8  1  1  6  0  0  0
  8  3  1  0  0  0  0
  8  4  1  0  0  0  0
 10  1  1  0  0  0  0
 10  2  2  0  0  0  0
 11 12  1  0  0  0  0
 12 13  2  0  0  0  0
 13 15  1  0  0  0  0
 14 11  1  6  0  0  0
 14  7  1  0  0  0  0
 14 15  1  0  0  0  0
 15 16  1  6  0  0  0
 17 20  1  0  0  0  0
 18 17  2  0  0  0  0
 18 21  1  0  0  0  0
 19 11  1  0  0  0  0
 20 19  1  0  0  0  0
 21 19  2  0  0  0  0
 22 23  1  0  0  0  0
 23 27  1  0  0  0  0
 24 28  1  1  0  0  0
 25 31  2  0  0  0  0
 26 30  1  0  0  0  0
 26 32  1  0  0  0  0
 26 33  1  1  0  0  0
 29 27  2  0  0  0  0
 29 25  1  0  0  0  0
 30 27  1  6  0  0  0
 30 32  1  0  0  0  0
 30 24  1  0  0  0  0
 31 24  1  0  0  0  0
 34 33  1  0  0  0  0
 35 34  1  0  0  0  0
 35 36  1  0  0  0  0
M  END
>  <MODEL>
8

>  <REMARK>
 VINA RESULT:      -5.5      3.099      8.876
  Name = 
  8 active torsions:
  status: ('A' for Active; 'I' for Inactive)
    1  A    between atoms: C_5  and  C_11
    2  A    between atoms: C_5  and  N_28
    3  A    between atoms: N_6  and  C_20
    4  A    between atoms: C_8  and  N_28
    5  A    between atoms: C_9  and  C_31
    6  A    between atoms: C_12  and  N_18
    7  A    between atoms: N_18  and  C_31
    8  A    between atoms: C_21  and  C_23
                            x       y       z     vdW  Elec       q    Type
                         _______ _______ _______ _____ _____    ______ ____

>  <TORSDO>
F 8

$$$$
=
 OpenBabel11072413303D

 36 41  0  0  1  0  0  0  0  0999 V2000
  161.4700  211.2130  150.8600 C   0  0  0  0  0  0  0  0  0  0  0  0
  161.9770  211.0210  148.5690 C   0  0  0  0  0  3  0  0  0  0  0  0
  160.9450  209.3990  152.1430 O   0  0  0  0  0  0  0  0  0  0  0  0
  161.8730  208.9790  149.9420 C   0  0  0  0  0  0  0  0  0  0  0  0
  160.5620  211.6350  151.6480 N   0  0  0  0  0  0  0  0  0  0  0  0
  161.9910  209.5470  148.7260 C   0  0  0  0  0  3  0  0  0  0  0  0
  160.3040  210.5790  152.6150 C   0  0  1  0  0  0  0  0  0  0  0  0
  161.8790  209.8390  151.1820 C   0  0  1  0  0  3  0  0  0  0  0  0
  158.8010  210.3320  152.6760 C   0  0  0  0  0  1  0  0  0  0  0  0
  161.7100  211.7960  149.5790 N   0  0  0  0  0  0  0  0  0  0  0  0
  159.8280  211.1540  154.9940 N   0  0  0  0  0  0  0  0  0  0  0  0
  159.9350  210.2150  156.0160 N   0  0  0  0  0  0  0  0  0  0  0  0
  160.9540  209.4510  155.8250 C   0  0  0  0  0  3  0  0  0  0  0  0
  160.8770  210.9640  153.9990 C   0  0  1  0  0  3  0  0  0  0  0  0
  161.7090  209.8140  154.5850 C   0  0  1  0  0  3  0  0  0  0  0  0
  163.0840  210.3290  154.9610 C   0  0  0  0  0  1  0  0  0  0  0  0
  158.3630  214.3600  154.9250 N   0  0  0  0  0  0  0  0  0  0  0  0
  157.4260  213.7010  155.6370 C   0  0  0  0  0  2  0  0  0  0  0  0
  159.0080  212.3210  155.1130 C   0  0  0  0  0  0  0  0  0  0  0  0
  159.3320  213.5200  154.6070 N   0  0  0  0  0  0  0  0  0  0  0  0
  157.8040  212.3770  155.7860 C   0  0  0  0  0  3  0  0  0  0  0  0
  161.8970  207.5560  150.0900 N   0  0  0  0  0  2  0  0  0  0  0  0
  160.7500  206.6940  149.8340 C   0  0  0  0  0  2  0  0  0  0  0  0
  161.8600  204.3850  146.8020 C   0  0  1  0  0  3  0  0  0  0  0  0
  160.5340  206.3510  146.0290 C   0  0  0  0  0  3  0  0  0  0  0  0
  160.6600  203.6390  149.0090 C   0  0  2  0  0  3  0  0  0  0  0  0
  160.8340  206.1250  148.4530 C   0  0  0  0  0  0  0  0  0  0  0  0
  163.3450  204.7040  146.7530 C   0  0  0  0  0  1  0  0  0  0  0  0
  160.4570  206.8710  147.4100 C   0  0  0  0  0  3  0  0  0  0  0  0
  161.2880  204.7110  148.1910 C   0  0  2  0  0  0  0  0  0  0  0  0
  161.1480  205.1920  145.7470 C   0  0  0  0  0  3  0  0  0  0  0  0
  161.9700  204.1090  149.2630 O   0  0  0  0  0  0  0  0  0  0  0  0
  160.7330  202.3380  148.3600 N   0  0  0  0  0  2  0  0  0  0  0  0
  161.3840  201.4330  149.2930 C   0  0  0  0  0  2  0  0  0  0  0  0
  160.6960  201.4890  150.6440 C   0  0  0  0  0  2  0  0  0  0  0  0
  161.5460  202.0490  151.5810 F   0  0  0  0  0  0  0  0  0  0  0  0
  1  8  1  0  0  0  0
  1  5  2  0  0  0  0
  2  6  1  0  0  0  0
  2 10  2  0  0  0  0
  3  7  1  0  0  0  0
  4 22  1  0  0  0  0
  5  7  1  0  0  0  0
  6  4  2  0  0  0  0
  7  9  1  1  0  0  0
  7 14  1  0  0  0  0
  8  4  1  6  0  0  0
  8  3  1  0  0  0  0
 10  1  1  0  0  0  0
 11 19  1  0  0  0  0
 11 12  1  0  0  0  0
 13 12  2  0  0  0  0
 14 15  1  0  0  0  0
 14 11  1  1  0  0  0
 15 16  1  1  0  0  0
 15 13  1  0  0  0  0
 17 18  1  0  0  0  0
 18 21  1  0  0  0  0
 19 21  2  0  0  0  0
 20 17  2  0  0  0  0
 20 19  1  0  0  0  0
 23 22  1  0  0  0  0
 24 28  1  1  0  0  0
 24 30  1  0  0  0  0
 25 29  1  0  0  0  0
 26 33  1  6  0  0  0
 26 32  1  0  0  0  0
 27 23  1  0  0  0  0
 29 27  2  0  0  0  0
 30 27  1  1  0  0  0
 30 26  1  0  0  0  0
 30 32  1  0  0  0  0
 31 25  2  0  0  0  0
 31 24  1  0  0  0  0
 33 34  1  0  0  0  0
 34 35  1  0  0  0  0
 35 36  1  0  0  0  0
M  END
>  <MODEL>
9

>  <REMARK>
 VINA RESULT:      -5.4      1.741      2.952
  Name = 
  8 active torsions:
  status: ('A' for Active; 'I' for Inactive)
    1  A    between atoms: C_5  and  C_11
    2  A    between atoms: C_5  and  N_28
    3  A    between atoms: N_6  and  C_20
    4  A    between atoms: C_8  and  N_28
    5  A    between atoms: C_9  and  C_31
    6  A    between atoms: C_12  and  N_18
    7  A    between atoms: N_18  and  C_31
    8  A    between atoms: C_21  and  C_23
                            x       y       z     vdW  Elec       q    Type
                         _______ _______ _______ _____ _____    ______ ____

>  <TORSDO>
F 8

$$$$
