=
 OpenBabel11072413593D

 29 32  0  0  1  0  0  0  0  0999 V2000
  157.5930  213.2680  145.8700 C   0  0  2  0  0  3  0  0  0  0  0  0
  158.9440  213.5420  147.8630 C   0  0  0  0  0  2  0  0  0  0  0  0
  161.4570  213.6350  142.7860 C   0  0  1  0  0  3  0  0  0  0  0  0
  159.3430  213.6040  144.2650 C   0  0  0  0  0  2  0  0  0  0  0  0
  163.5070  214.2900  141.7410 O   0  0  0  0  0  0  0  0  0  0  0  0
  158.9900  213.0020  145.5510 N   0  0  1  0  0  0  0  0  0  0  0  0
  160.8590  213.8810  144.1780 C   0  0  1  0  0  3  0  0  0  0  0  0
  161.6780  213.1300  145.2620 C   0  0  1  0  0  3  0  0  0  0  0  0
  162.9230  213.9780  142.8110 C   0  0  0  0  0  0  0  0  0  0  0  0
  163.1140  213.5680  145.2230 C   0  0  0  0  0  3  0  0  0  0  0  0
  159.7350  213.6940  146.5880 C   0  0  2  0  0  3  0  0  0  0  0  0
  157.5070  213.5630  147.3680 C   0  0  2  0  0  3  0  0  0  0  0  0
  161.1260  213.2140  146.6350 N   0  0  0  0  0  0  0  0  0  0  0  0
  157.0870  212.2090  146.8310 C   0  0  0  0  0  2  0  0  0  0  0  0
  163.6910  213.9310  144.0730 C   0  0  0  0  0  3  0  0  0  0  0  0
  160.8820  210.4540  140.7460 N   0  0  0  0  0  2  0  0  0  0  0  0
  161.3010  212.2390  142.3930 N   0  0  0  0  0  2  0  0  0  0  0  0
  161.1350  212.6840  140.1070 O   0  0  0  0  0  0  0  0  0  0  0  0
  161.1050  211.8340  141.0370 C   0  0  0  0  0  0  0  0  0  0  0  0
  160.6730  209.9780  139.3900 C   0  0  0  0  0  1  0  0  0  0  0  0
  162.7540  212.3230  148.7560 O   0  0  0  0  0  0  0  0  0  0  0  0
  161.1180  211.9030  147.1440 N   0  0  0  0  0  2  0  0  0  0  0  0
  161.9890  211.4920  148.1990 C   0  0  0  0  0  0  0  0  0  0  0  0
  161.9880  210.0670  148.6420 C   0  0  0  0  0  2  0  0  0  0  0  0
  161.8520  209.9120  150.1610 C   0  0  2  0  0  3  0  0  0  0  0  0
  162.9560  210.4140  150.8300 F   0  0  0  0  0  0  0  0  0  0  0  0
  160.8000  208.4840  151.9800 C   0  0  0  0  0  1  0  0  0  0  0  0
  161.5010  208.4970  150.6340 C   0  0  2  0  0  3  0  0  0  0  0  0
  162.6400  207.6920  150.6780 O   0  0  0  0  0  1  0  0  0  0  0  0
  1 14  1  1  0  0  0
  1 12  1  0  0  0  0
  3 17  1  1  0  0  0
  3  9  1  0  0  0  0
  3  7  1  0  0  0  0
  5  9  2  0  0  0  0
  6  4  1  6  0  0  0
  6  1  1  0  0  0  0
  6 11  1  0  0  0  0
  7  4  1  6  0  0  0
  7  8  1  0  0  0  0
  8 10  1  1  0  0  0
  8 13  1  0  0  0  0
  9 15  1  0  0  0  0
 11 13  1  0  0  0  0
 11  2  1  1  0  0  0
 12 14  1  1  0  0  0
 12  2  1  0  0  0  0
 13 22  1  0  0  0  0
 15 10  2  0  0  0  0
 16 19  1  0  0  0  0
 18 19  2  0  0  0  0
 19 17  1  0  0  0  0
 20 16  1  0  0  0  0
 22 23  1  0  0  0  0
 23 24  1  0  0  0  0
 23 21  2  0  0  0  0
 24 25  1  0  0  0  0
 25 28  1  0  0  0  0
 25 26  1  1  0  0  0
 28 29  1  0  0  0  0
 28 27  1  1  0  0  0
M  END
>  <MODEL>
1

>  <REMARK>
 VINA RESULT:      -5.2      0.000      0.000
  Name = 
  5 active torsions:
  status: ('A' for Active; 'I' for Inactive)
    1  A    between atoms: C_5  and  N_19
    2  A    between atoms: C_7  and  C_9
    3  A    between atoms: C_9  and  C_14
    4  A    between atoms: N_11  and  N_26
    5  A    between atoms: C_14  and  C_20
                            x       y       z     vdW  Elec       q    Type
                         _______ _______ _______ _____ _____    ______ ____

>  <TORSDO>
F 5

$$$$
=
 OpenBabel11072413593D

 29 32  0  0  1  0  0  0  0  0999 V2000
  161.0980  208.2830  152.9820 C   0  0  2  0  0  3  0  0  0  0  0  0
  162.4780  207.1170  151.3670 C   0  0  0  0  0  2  0  0  0  0  0  0
  160.9910  212.4900  150.3620 C   0  0  1  0  0  3  0  0  0  0  0  0
  161.1110  210.4250  151.9050 C   0  0  0  0  0  2  0  0  0  0  0  0
  161.5870  214.3550  148.9870 O   0  0  0  0  0  0  0  0  0  0  0  0
  161.0430  208.9780  151.7020 N   0  0  1  0  0  0  0  0  0  0  0  0
  161.6580  211.1370  150.6490 C   0  0  1  0  0  3  0  0  0  0  0  0
  161.6360  210.2400  149.3820 C   0  0  1  0  0  3  0  0  0  0  0  0
  161.6310  213.1080  149.1470 C   0  0  0  0  0  0  0  0  0  0  0  0
  162.3270  210.9340  148.2440 C   0  0  0  0  0  3  0  0  0  0  0  0
  162.2530  208.5650  151.0140 C   0  0  2  0  0  3  0  0  0  0  0  0
  161.9670  207.0380  152.7970 C   0  0  2  0  0  3  0  0  0  0  0  0
  162.1630  208.8690  149.5760 N   0  0  0  0  0  0  0  0  0  0  0  0
  160.4560  206.9150  152.8380 C   0  0  0  0  0  2  0  0  0  0  0  0
  162.2920  212.2660  148.1270 C   0  0  0  0  0  3  0  0  0  0  0  0
  157.2140  213.0580  150.2240 N   0  0  0  0  0  2  0  0  0  0  0  0
  159.5630  212.3230  150.1140 N   0  0  0  0  0  2  0  0  0  0  0  0
  158.9710  214.4530  150.8640 O   0  0  0  0  0  0  0  0  0  0  0  0
  158.6000  213.3310  150.4240 C   0  0  0  0  0  0  0  0  0  0  0  0
  156.1850  214.0390  150.5230 C   0  0  0  0  0  1  0  0  0  0  0  0
  162.7550  207.0010  147.5510 O   0  0  0  0  0  0  0  0  0  0  0  0
  161.2220  207.9930  149.0050 N   0  0  0  0  0  2  0  0  0  0  0  0
  161.5660  207.0890  147.9550 C   0  0  0  0  0  0  0  0  0  0  0  0
  160.5050  206.2410  147.3360 C   0  0  0  0  0  2  0  0  0  0  0  0
  160.8900  205.7200  145.9460 C   0  0  2  0  0  3  0  0  0  0  0  0
  159.8340  205.8050  145.0540 F   0  0  0  0  0  0  0  0  0  0  0  0
  161.5180  203.6660  147.3030 C   0  0  0  0  0  1  0  0  0  0  0  0
  161.5250  204.3260  145.9360 C   0  0  2  0  0  3  0  0  0  0  0  0
  162.8270  204.3780  145.4360 O   0  0  0  0  0  1  0  0  0  0  0  0
  1 14  1  6  0  0  0
  3 17  1  6  0  0  0
  3  7  1  0  0  0  0
  5  9  2  0  0  0  0
  6  4  1  1  0  0  0
  6  1  1  0  0  0  0
  7  4  1  1  0  0  0
  8 10  1  6  0  0  0
  8 13  1  0  0  0  0
  8  7  1  0  0  0  0
  9  3  1  0  0  0  0
 11  2  1  6  0  0  0
 11  6  1  0  0  0  0
 12  2  1  6  0  0  0
 12 14  1  0  0  0  0
 12  1  1  0  0  0  0
 13 11  1  0  0  0  0
 15 10  2  0  0  0  0
 15  9  1  0  0  0  0
 16 19  1  0  0  0  0
 16 20  1  0  0  0  0
 17 19  1  0  0  0  0
 19 18  2  0  0  0  0
 21 23  2  0  0  0  0
 22 13  1  0  0  0  0
 23 22  1  0  0  0  0
 24 23  1  0  0  0  0
 25 26  1  6  0  0  0
 25 24  1  0  0  0  0
 28 25  1  0  0  0  0
 28 27  1  1  0  0  0
 29 28  1  0  0  0  0
M  END
>  <MODEL>
2

>  <REMARK>
 VINA RESULT:      -4.9      5.035      7.582
  Name = 
  5 active torsions:
  status: ('A' for Active; 'I' for Inactive)
    1  A    between atoms: C_5  and  N_19
    2  A    between atoms: C_7  and  C_9
    3  A    between atoms: C_9  and  C_14
    4  A    between atoms: N_11  and  N_26
    5  A    between atoms: C_14  and  C_20
                            x       y       z     vdW  Elec       q    Type
                         _______ _______ _______ _____ _____    ______ ____

>  <TORSDO>
F 5

$$$$
=
 OpenBabel11072413593D

 29 32  0  0  1  0  0  0  0  0999 V2000
  160.3840  210.4250  153.6410 C   0  0  2  0  0  3  0  0  0  0  0  0
  162.0010  208.7920  152.8720 C   0  0  0  0  0  2  0  0  0  0  0  0
  160.8040  213.2500  149.5890 C   0  0  1  0  0  3  0  0  0  0  0  0
  160.6210  211.9680  151.8210 C   0  0  0  0  0  2  0  0  0  0  0  0
  161.6610  214.4520  147.7060 O   0  0  0  0  0  0  0  0  0  0  0  0
  160.5630  210.5570  152.2000 N   0  0  1  0  0  0  0  0  0  0  0  0
  161.3880  212.1560  150.4940 C   0  0  1  0  0  3  0  0  0  0  0  0
  161.5680  210.8330  149.7030 C   0  0  1  0  0  3  0  0  0  0  0  0
  161.6540  213.3720  148.3520 C   0  0  0  0  0  0  0  0  0  0  0  0
  162.4570  211.0580  148.5130 C   0  0  0  0  0  3  0  0  0  0  0  0
  161.8660  209.9700  151.9420 C   0  0  2  0  0  3  0  0  0  0  0  0
  161.2500  209.2550  154.1100 C   0  0  2  0  0  3  0  0  0  0  0  0
  162.0300  209.6780  150.5090 N   0  0  0  0  0  0  0  0  0  0  0  0
  159.7530  209.0800  153.9470 C   0  0  0  0  0  2  0  0  0  0  0  0
  162.4660  212.2330  147.8740 C   0  0  0  0  0  3  0  0  0  0  0  0
  156.9890  213.1040  149.4070 N   0  0  0  0  0  2  0  0  0  0  0  0
  159.4370  212.9240  149.1960 N   0  0  0  0  0  2  0  0  0  0  0  0
  158.4340  214.4530  150.6470 O   0  0  0  0  0  0  0  0  0  0  0  0
  158.2940  213.5370  149.7930 C   0  0  0  0  0  0  0  0  0  0  0  0
  155.7860  213.6840  149.9790 C   0  0  0  0  0  1  0  0  0  0  0  0
  162.7770  207.5120  148.8680 O   0  0  0  0  0  0  0  0  0  0  0  0
  161.1850  208.6010  150.1850 N   0  0  0  0  0  2  0  0  0  0  0  0
  161.6010  207.5440  149.3190 C   0  0  0  0  0  0  0  0  0  0  0  0
  160.6330  206.4700  148.9500 C   0  0  0  0  0  2  0  0  0  0  0  0
  160.8540  205.1690  149.7320 C   0  0  2  0  0  3  0  0  0  0  0  0
  161.6460  205.3700  150.8500 F   0  0  0  0  0  0  0  0  0  0  0  0
  161.5930  204.3630  147.4390 C   0  0  0  0  0  1  0  0  0  0  0  0
  161.3530  203.9900  148.8910 C   0  0  2  0  0  3  0  0  0  0  0  0
  160.4670  202.9150  148.9690 O   0  0  0  0  0  1  0  0  0  0  0  0
  1 14  1  6  0  0  0
  1 12  1  0  0  0  0
  3 17  1  6  0  0  0
  3  7  1  0  0  0  0
  5  9  2  0  0  0  0
  6  4  1  1  0  0  0
  6  1  1  0  0  0  0
  7  4  1  1  0  0  0
  8 10  1  6  0  0  0
  8  7  1  0  0  0  0
  8 13  1  0  0  0  0
  9  3  1  0  0  0  0
 11  6  1  0  0  0  0
 11  2  1  1  0  0  0
 12  2  1  6  0  0  0
 13 11  1  0  0  0  0
 14 12  1  0  0  0  0
 15  9  1  0  0  0  0
 15 10  2  0  0  0  0
 16 19  1  0  0  0  0
 16 20  1  0  0  0  0
 17 19  1  0  0  0  0
 19 18  2  0  0  0  0
 21 23  2  0  0  0  0
 22 13  1  0  0  0  0
 23 22  1  0  0  0  0
 24 23  1  0  0  0  0
 24 25  1  0  0  0  0
 25 26  1  1  0  0  0
 28 27  1  6  0  0  0
 28 29  1  0  0  0  0
 28 25  1  0  0  0  0
M  END
>  <MODEL>
3

>  <REMARK>
 VINA RESULT:      -4.8      4.606      6.987
  Name = 
  5 active torsions:
  status: ('A' for Active; 'I' for Inactive)
    1  A    between atoms: C_5  and  N_19
    2  A    between atoms: C_7  and  C_9
    3  A    between atoms: C_9  and  C_14
    4  A    between atoms: N_11  and  N_26
    5  A    between atoms: C_14  and  C_20
                            x       y       z     vdW  Elec       q    Type
                         _______ _______ _______ _____ _____    ______ ____

>  <TORSDO>
F 5

$$$$
=
 OpenBabel11072413593D

 29 32  0  0  1  0  0  0  0  0999 V2000
  162.5460  212.3560  148.0650 C   0  0  2  0  0  3  0  0  0  0  0  0
  161.2600  214.2370  148.8890 C   0  0  0  0  0  2  0  0  0  0  0  0
  161.6240  209.5450  152.0430 C   0  0  1  0  0  3  0  0  0  0  0  0
  162.3250  210.9620  150.0030 C   0  0  0  0  0  2  0  0  0  0  0  0
  161.2660  208.7810  154.2820 O   0  0  0  0  0  0  0  0  0  0  0  0
  161.6440  211.9050  149.1170 N   0  0  1  0  0  0  0  0  0  0  0  0
  161.6690  210.9390  151.4010 C   0  0  1  0  0  3  0  0  0  0  0  0
  160.2620  211.5940  151.4240 C   0  0  1  0  0  3  0  0  0  0  0  0
  161.0070  209.6530  153.4130 C   0  0  0  0  0  0  0  0  0  0  0  0
  159.7550  211.6830  152.8350 C   0  0  0  0  0  3  0  0  0  0  0  0
  161.3510  213.1050  149.8810 C   0  0  2  0  0  3  0  0  0  0  0  0
  162.2900  213.8470  147.8410 C   0  0  2  0  0  3  0  0  0  0  0  0
  160.1690  212.9030  150.7340 N   0  0  0  0  0  0  0  0  0  0  0  0
  161.7320  212.8220  146.8720 C   0  0  0  0  0  2  0  0  0  0  0  0
  160.0830  210.7590  153.7430 C   0  0  0  0  0  3  0  0  0  0  0  0
  160.5720  206.7480  149.6610 N   0  0  0  0  0  2  0  0  0  0  0  0
  160.8310  208.6260  151.2350 N   0  0  0  0  0  2  0  0  0  0  0  0
  162.6450  207.3170  150.5680 O   0  0  0  0  0  0  0  0  0  0  0  0
  161.4100  207.5540  150.4900 C   0  0  0  0  0  0  0  0  0  0  0  0
  161.0990  205.6450  148.8750 C   0  0  0  0  0  1  0  0  0  0  0  0
  157.8420  214.4530  151.0890 O   0  0  0  0  0  0  0  0  0  0  0  0
  159.0370  212.8360  149.9010 N   0  0  0  0  0  2  0  0  0  0  0  0
  157.8680  213.6190  150.1450 C   0  0  0  0  0  0  0  0  0  0  0  0
  156.6700  213.4460  149.2720 C   0  0  0  0  0  2  0  0  0  0  0  0
  156.8370  214.0940  147.8910 C   0  0  2  0  0  3  0  0  0  0  0  0
  155.6150  214.3930  147.3130 F   0  0  0  0  0  0  0  0  0  0  0  0
  158.2790  214.1930  145.8030 C   0  0  0  0  0  1  0  0  0  0  0  0
  157.7440  213.3240  146.9260 C   0  0  2  0  0  3  0  0  0  0  0  0
  157.0810  212.2140  146.4010 O   0  0  0  0  0  1  0  0  0  0  0  0
  1 14  1  6  0  0  0
  1  6  1  0  0  0  0
  3 17  1  6  0  0  0
  3  9  1  0  0  0  0
  6 11  1  0  0  0  0
  6  4  1  1  0  0  0
  7  4  1  6  0  0  0
  7  8  1  0  0  0  0
  7  3  1  0  0  0  0
  8 10  1  1  0  0  0
  9 15  1  0  0  0  0
  9  5  2  0  0  0  0
 10 15  2  0  0  0  0
 11  2  1  6  0  0  0
 11 13  1  0  0  0  0
 12 14  1  6  0  0  0
 12  1  1  0  0  0  0
 12  2  1  0  0  0  0
 13  8  1  0  0  0  0
 16 19  1  0  0  0  0
 19 18  2  0  0  0  0
 19 17  1  0  0  0  0
 20 16  1  0  0  0  0
 22 23  1  0  0  0  0
 22 13  1  0  0  0  0
 23 21  2  0  0  0  0
 24 23  1  0  0  0  0
 25 26  1  6  0  0  0
 25 24  1  0  0  0  0
 28 27  1  6  0  0  0
 28 25  1  0  0  0  0
 29 28  1  0  0  0  0
M  END
>  <MODEL>
4

>  <REMARK>
 VINA RESULT:      -4.3      4.435      8.070
  Name = 
  5 active torsions:
  status: ('A' for Active; 'I' for Inactive)
    1  A    between atoms: C_5  and  N_19
    2  A    between atoms: C_7  and  C_9
    3  A    between atoms: C_9  and  C_14
    4  A    between atoms: N_11  and  N_26
    5  A    between atoms: C_14  and  C_20
                            x       y       z     vdW  Elec       q    Type
                         _______ _______ _______ _____ _____    ______ ____

>  <TORSDO>
F 5

$$$$
=
 OpenBabel11072413593D

 29 32  0  0  1  0  0  0  0  0999 V2000
  160.7550  204.6140  153.0320 C   0  0  2  0  0  3  0  0  0  0  0  0
  162.3430  205.0680  151.2590 C   0  0  0  0  0  2  0  0  0  0  0  0
  160.8720  209.2480  154.7880 C   0  0  1  0  0  3  0  0  0  0  0  0
  160.8510  206.7650  154.0870 C   0  0  0  0  0  2  0  0  0  0  0  0
  161.5880  211.4190  155.4950 O   0  0  0  0  0  0  0  0  0  0  0  0
  160.8380  206.0520  152.8100 N   0  0  1  0  0  0  0  0  0  0  0  0
  161.5280  208.1450  153.9460 C   0  0  1  0  0  3  0  0  0  0  0  0
  161.6760  208.6030  152.4700 C   0  0  1  0  0  3  0  0  0  0  0  0
  161.6380  210.5320  154.6050 C   0  0  0  0  0  0  0  0  0  0  0  0
  162.4830  209.8680  152.3980 C   0  0  0  0  0  3  0  0  0  0  0  0
  162.1310  206.2460  152.1760 C   0  0  2  0  0  3  0  0  0  0  0  0
  161.6670  203.9330  152.0100 C   0  0  2  0  0  3  0  0  0  0  0  0
  162.2060  207.5730  151.5450 N   0  0  0  0  0  0  0  0  0  0  0  0
  160.1640  203.9500  151.8020 C   0  0  0  0  0  2  0  0  0  0  0  0
  162.4340  210.7710  153.3820 C   0  0  0  0  0  3  0  0  0  0  0  0
  157.1860  210.2600  154.7460 N   0  0  0  0  0  2  0  0  0  0  0  0
  159.4870  209.4600  154.3780 N   0  0  0  0  0  2  0  0  0  0  0  0
  158.9020  210.7060  156.2640 O   0  0  0  0  0  0  0  0  0  0  0  0
  158.5420  210.1660  155.1830 C   0  0  0  0  0  0  0  0  0  0  0  0
  156.1750  210.9610  155.5190 C   0  0  0  0  0  1  0  0  0  0  0  0
  163.1050  207.4810  148.8750 O   0  0  0  0  0  0  0  0  0  0  0  0
  161.3580  207.5700  150.4220 N   0  0  0  0  0  2  0  0  0  0  0  0
  161.8660  207.5580  149.0880 C   0  0  0  0  0  0  0  0  0  0  0  0
  160.9170  207.6350  147.9380 C   0  0  0  0  0  2  0  0  0  0  0  0
  160.6790  206.2780  147.2660 C   0  0  2  0  0  3  0  0  0  0  0  0
  160.7000  205.2390  148.1820 F   0  0  0  0  0  0  0  0  0  0  0  0
  160.8430  205.3250  144.9170 C   0  0  0  0  0  1  0  0  0  0  0  0
  161.5840  205.9880  146.0630 C   0  0  2  0  0  3  0  0  0  0  0  0
  162.6780  205.2100  146.4430 O   0  0  0  0  0  1  0  0  0  0  0  0
  1 14  1  6  0  0  0
  3 17  1  6  0  0  0
  6  1  1  0  0  0  0
  6  4  1  1  0  0  0
  7  4  1  6  0  0  0
  7  3  1  0  0  0  0
  8 10  1  1  0  0  0
  8  7  1  0  0  0  0
  9  3  1  0  0  0  0
  9  5  2  0  0  0  0
 10 15  2  0  0  0  0
 11  2  1  6  0  0  0
 11  6  1  0  0  0  0
 12  2  1  6  0  0  0
 12  1  1  0  0  0  0
 13 11  1  0  0  0  0
 13  8  1  0  0  0  0
 14 12  1  0  0  0  0
 15  9  1  0  0  0  0
 16 19  1  0  0  0  0
 16 20  1  0  0  0  0
 17 19  1  0  0  0  0
 19 18  2  0  0  0  0
 21 23  2  0  0  0  0
 22 13  1  0  0  0  0
 23 22  1  0  0  0  0
 24 23  1  0  0  0  0
 25 24  1  0  0  0  0
 25 26  1  1  0  0  0
 28 27  1  6  0  0  0
 28 29  1  0  0  0  0
 28 25  1  0  0  0  0
M  END
>  <MODEL>
5

>  <REMARK>
 VINA RESULT:      -4.0      6.753     10.376
  Name = 
  5 active torsions:
  status: ('A' for Active; 'I' for Inactive)
    1  A    between atoms: C_5  and  N_19
    2  A    between atoms: C_7  and  C_9
    3  A    between atoms: C_9  and  C_14
    4  A    between atoms: N_11  and  N_26
    5  A    between atoms: C_14  and  C_20
                            x       y       z     vdW  Elec       q    Type
                         _______ _______ _______ _____ _____    ______ ____

>  <TORSDO>
F 5

$$$$
=
 OpenBabel11072413593D

 29 32  0  0  1  0  0  0  0  0999 V2000
  160.6150  208.4380  152.1190 C   0  0  2  0  0  3  0  0  0  0  0  0
  161.6440  208.0250  154.2740 C   0  0  0  0  0  2  0  0  0  0  0  0
  158.4870  212.6760  153.5660 C   0  0  1  0  0  3  0  0  0  0  0  0
  159.3900  210.4050  152.7370 C   0  0  0  0  0  2  0  0  0  0  0  0
  157.3590  214.3640  154.8310 O   0  0  0  0  0  0  0  0  0  0  0  0
  160.6490  209.6760  152.8870 N   0  0  1  0  0  0  0  0  0  0  0  0
  159.1400  211.3380  153.9420 C   0  0  1  0  0  3  0  0  0  0  0  0
  160.4120  211.5760  154.8010 C   0  0  1  0  0  3  0  0  0  0  0  0
  158.2540  213.4800  154.8180 C   0  0  0  0  0  0  0  0  0  0  0  0
  160.0630  212.3550  156.0370 C   0  0  0  0  0  3  0  0  0  0  0  0
  160.7520  209.2410  154.2690 C   0  0  2  0  0  3  0  0  0  0  0  0
  161.3020  207.3560  152.9530 C   0  0  2  0  0  3  0  0  0  0  0  0
  161.1800  210.3540  155.1330 N   0  0  0  0  0  0  0  0  0  0  0  0
  162.0340  208.0090  151.7960 C   0  0  0  0  0  2  0  0  0  0  0  0
  159.0780  213.2590  156.0250 C   0  0  0  0  0  3  0  0  0  0  0  0
  160.0110  214.2600  150.4390 N   0  0  0  0  0  2  0  0  0  0  0  0
  159.3440  213.4380  152.6640 N   0  0  0  0  0  2  0  0  0  0  0  0
  158.0320  213.0690  150.7690 O   0  0  0  0  0  0  0  0  0  0  0  0
  159.0800  213.5630  151.2660 C   0  0  0  0  0  0  0  0  0  0  0  0
  159.8020  214.4190  149.0100 C   0  0  0  0  0  1  0  0  0  0  0  0
  163.0820  211.1630  157.0490 O   0  0  0  0  0  0  0  0  0  0  0  0
  162.5270  210.6370  154.8430 N   0  0  0  0  0  2  0  0  0  0  0  0
  163.4430  211.0780  155.8460 C   0  0  0  0  0  0  0  0  0  0  0  0
  164.8400  211.4390  155.4610 C   0  0  0  0  0  2  0  0  0  0  0  0
  165.6170  212.1190  156.5940 C   0  0  2  0  0  3  0  0  0  0  0  0
  164.8430  213.0540  157.2610 F   0  0  0  0  0  0  0  0  0  0  0  0
  166.9790  214.2170  156.1520 C   0  0  0  0  0  1  0  0  0  0  0  0
  166.9740  212.7000  156.1840 C   0  0  2  0  0  3  0  0  0  0  0  0
  167.3780  212.1930  154.9480 O   0  0  0  0  0  1  0  0  0  0  0  0
  1 14  1  6  0  0  0
  1  6  1  0  0  0  0
  1 12  1  0  0  0  0
  3 17  1  6  0  0  0
  3  7  1  0  0  0  0
  3  9  1  0  0  0  0
  6  4  1  1  0  0  0
  6 11  1  0  0  0  0
  7  4  1  6  0  0  0
  7  8  1  0  0  0  0
  8 13  1  0  0  0  0
  8 10  1  1  0  0  0
  9  5  2  0  0  0  0
  9 15  1  0  0  0  0
 11  2  1  6  0  0  0
 11 13  1  0  0  0  0
 12 14  1  6  0  0  0
 12  2  1  0  0  0  0
 15 10  2  0  0  0  0
 16 19  1  0  0  0  0
 18 19  2  0  0  0  0
 19 17  1  0  0  0  0
 20 16  1  0  0  0  0
 22 13  1  0  0  0  0
 22 23  1  0  0  0  0
 23 21  2  0  0  0  0
 24 23  1  0  0  0  0
 24 25  1  0  0  0  0
 25 26  1  6  0  0  0
 28 27  1  6  0  0  0
 28 25  1  0  0  0  0
 29 28  1  0  0  0  0
M  END
>  <MODEL>
6

>  <REMARK>
 VINA RESULT:      -3.2      6.165      9.761
  Name = 
  5 active torsions:
  status: ('A' for Active; 'I' for Inactive)
    1  A    between atoms: C_5  and  N_19
    2  A    between atoms: C_7  and  C_9
    3  A    between atoms: C_9  and  C_14
    4  A    between atoms: N_11  and  N_26
    5  A    between atoms: C_14  and  C_20
                            x       y       z     vdW  Elec       q    Type
                         _______ _______ _______ _____ _____    ______ ____

>  <TORSDO>
F 5

$$$$
=
 OpenBabel11072413593D

 29 32  0  0  1  0  0  0  0  0999 V2000
  161.0080  208.9940  152.5760 C   0  0  2  0  0  3  0  0  0  0  0  0
  161.7590  210.8050  151.1510 C   0  0  0  0  0  2  0  0  0  0  0  0
  158.4140  211.9750  155.5700 C   0  0  1  0  0  3  0  0  0  0  0  0
  159.8630  210.3390  154.1990 C   0  0  0  0  0  2  0  0  0  0  0  0
  157.6990  213.8160  156.9210 O   0  0  0  0  0  0  0  0  0  0  0  0
  160.1540  210.1590  152.7770 N   0  0  1  0  0  0  0  0  0  0  0  0
  159.5150  211.8100  154.5130 C   0  0  1  0  0  3  0  0  0  0  0  0
  159.1810  212.6410  153.2450 C   0  0  1  0  0  3  0  0  0  0  0  0
  158.1910  213.4430  155.8250 C   0  0  0  0  0  0  0  0  0  0  0  0
  159.0130  214.0890  153.6050 C   0  0  0  0  0  3  0  0  0  0  0  0
  160.9650  211.2820  152.3410 C   0  0  2  0  0  3  0  0  0  0  0  0
  162.0240  209.3460  151.4890 C   0  0  2  0  0  3  0  0  0  0  0  0
  160.1290  212.4720  152.1180 N   0  0  0  0  0  0  0  0  0  0  0  0
  160.8250  208.4770  151.1620 C   0  0  0  0  0  2  0  0  0  0  0  0
  158.5230  214.4500  154.7950 C   0  0  0  0  0  3  0  0  0  0  0  0
  154.9910  210.2760  155.4920 N   0  0  0  0  0  2  0  0  0  0  0  0
  157.1630  211.3760  155.1160 N   0  0  0  0  0  2  0  0  0  0  0  0
  156.2760  211.0980  157.2570 O   0  0  0  0  0  0  0  0  0  0  0  0
  156.1500  210.9230  156.0150 C   0  0  0  0  0  0  0  0  0  0  0  0
  153.9270  209.7890  156.3530 C   0  0  0  0  0  1  0  0  0  0  0  0
  159.8130  214.3300  150.0230 O   0  0  0  0  0  0  0  0  0  0  0  0
  159.3480  212.2470  150.9700 N   0  0  0  0  0  2  0  0  0  0  0  0
  159.1930  213.2370  149.9520 C   0  0  0  0  0  0  0  0  0  0  0  0
  158.2880  212.9680  148.7950 C   0  0  0  0  0  2  0  0  0  0  0  0
  158.8130  213.5500  147.4770 C   0  0  2  0  0  3  0  0  0  0  0  0
  157.7820  213.9850  146.6610 F   0  0  0  0  0  0  0  0  0  0  0  0
  161.0940  213.3390  146.3790 C   0  0  0  0  0  1  0  0  0  0  0  0
  159.7880  212.6440  146.7180 C   0  0  2  0  0  3  0  0  0  0  0  0
  159.1980  212.1400  145.5590 O   0  0  0  0  0  1  0  0  0  0  0  0
  1 14  1  6  0  0  0
  1  6  1  0  0  0  0
  3 17  1  6  0  0  0
  3  9  1  0  0  0  0
  6  4  1  1  0  0  0
  7  4  1  6  0  0  0
  7  3  1  0  0  0  0
  8 10  1  1  0  0  0
  8  7  1  0  0  0  0
  9  5  2  0  0  0  0
 10 15  2  0  0  0  0
 11  2  1  6  0  0  0
 11  6  1  0  0  0  0
 12  2  1  6  0  0  0
 12  1  1  0  0  0  0
 13 11  1  0  0  0  0
 13  8  1  0  0  0  0
 14 12  1  0  0  0  0
 15  9  1  0  0  0  0
 16 19  1  0  0  0  0
 16 20  1  0  0  0  0
 17 19  1  0  0  0  0
 19 18  2  0  0  0  0
 22 13  1  0  0  0  0
 23 21  2  0  0  0  0
 23 22  1  0  0  0  0
 24 23  1  0  0  0  0
 25 26  1  6  0  0  0
 25 24  1  0  0  0  0
 28 27  1  6  0  0  0
 28 25  1  0  0  0  0
 29 28  1  0  0  0  0
M  END
>  <MODEL>
7

>  <REMARK>
 VINA RESULT:      -2.3      5.555     10.387
  Name = 
  5 active torsions:
  status: ('A' for Active; 'I' for Inactive)
    1  A    between atoms: C_5  and  N_19
    2  A    between atoms: C_7  and  C_9
    3  A    between atoms: C_9  and  C_14
    4  A    between atoms: N_11  and  N_26
    5  A    between atoms: C_14  and  C_20
                            x       y       z     vdW  Elec       q    Type
                         _______ _______ _______ _____ _____    ______ ____

>  <TORSDO>
F 5

$$$$
=
 OpenBabel11072413593D

 29 32  0  0  1  0  0  0  0  0999 V2000
  160.4720  212.7900  150.4540 C   0  0  2  0  0  3  0  0  0  0  0  0
  159.7830  213.2370  152.7340 C   0  0  0  0  0  2  0  0  0  0  0  0
  162.0240  208.1920  151.4650 C   0  0  1  0  0  3  0  0  0  0  0  0
  161.4190  210.6220  150.8410 C   0  0  0  0  0  2  0  0  0  0  0  0
  162.9970  206.2750  152.5160 O   0  0  0  0  0  0  0  0  0  0  0  0
  160.3230  211.5320  151.1740 N   0  0  1  0  0  0  0  0  0  0  0  0
  161.6490  209.5920  151.9690 C   0  0  1  0  0  3  0  0  0  0  0  0
  160.4640  209.5110  152.9700 C   0  0  1  0  0  3  0  0  0  0  0  0
  162.2640  207.2900  152.6470 C   0  0  0  0  0  0  0  0  0  0  0  0
  160.8210  208.6170  154.1230 C   0  0  0  0  0  3  0  0  0  0  0  0
  160.4540  211.8970  152.5730 C   0  0  2  0  0  3  0  0  0  0  0  0
  160.0750  213.9190  151.4070 C   0  0  2  0  0  3  0  0  0  0  0  0
  159.9520  210.8190  153.4410 N   0  0  0  0  0  0  0  0  0  0  0  0
  159.1160  213.4580  150.3270 C   0  0  0  0  0  2  0  0  0  0  0  0
  161.6340  207.5690  153.9540 C   0  0  0  0  0  3  0  0  0  0  0  0
  160.0510  206.6770  148.5630 N   0  0  0  0  0  2  0  0  0  0  0  0
  160.9530  207.6290  150.6480 N   0  0  0  0  0  2  0  0  0  0  0  0
  162.3290  207.1060  148.8350 O   0  0  0  0  0  0  0  0  0  0  0  0
  161.1670  207.1380  149.3240 C   0  0  0  0  0  0  0  0  0  0  0  0
  160.2000  206.1690  147.2100 C   0  0  0  0  0  1  0  0  0  0  0  0
  158.1410  211.7650  155.3830 O   0  0  0  0  0  0  0  0  0  0  0  0
  158.5520  210.7720  153.3100 N   0  0  0  0  0  2  0  0  0  0  0  0
  157.6770  211.2330  154.3400 C   0  0  0  0  0  0  0  0  0  0  0  0
  156.2010  211.0820  154.1740 C   0  0  0  0  0  2  0  0  0  0  0  0
  155.5500  210.2810  155.3080 C   0  0  2  0  0  3  0  0  0  0  0  0
  154.8440  209.1910  154.8270 F   0  0  0  0  0  0  0  0  0  0  0  0
  155.4980  212.2350  156.9310 C   0  0  0  0  0  1  0  0  0  0  0  0
  154.7080  211.1130  156.2820 C   0  0  2  0  0  3  0  0  0  0  0  0
  154.1350  210.3000  157.2610 O   0  0  0  0  0  1  0  0  0  0  0  0
  1 14  1  6  0  0  0
  1  6  1  0  0  0  0
  1 12  1  0  0  0  0
  3 17  1  6  0  0  0
  3  7  1  0  0  0  0
  3  9  1  0  0  0  0
  5  9  2  0  0  0  0
  6  4  1  6  0  0  0
  6 11  1  0  0  0  0
  7  4  1  6  0  0  0
  7  8  1  0  0  0  0
  8 13  1  0  0  0  0
  8 10  1  1  0  0  0
  9 15  1  0  0  0  0
 11  2  1  6  0  0  0
 11 13  1  0  0  0  0
 12 14  1  6  0  0  0
 12  2  1  0  0  0  0
 15 10  2  0  0  0  0
 16 19  1  0  0  0  0
 18 19  2  0  0  0  0
 19 17  1  0  0  0  0
 20 16  1  0  0  0  0
 22 13  1  0  0  0  0
 22 23  1  0  0  0  0
 23 21  2  0  0  0  0
 24 23  1  0  0  0  0
 24 25  1  0  0  0  0
 25 26  1  6  0  0  0
 25 28  1  0  0  0  0
 28 27  1  1  0  0  0
 28 29  1  0  0  0  0
M  END
>  <MODEL>
8

>  <REMARK>
 VINA RESULT:      -2.3      6.176      8.730
  Name = 
  5 active torsions:
  status: ('A' for Active; 'I' for Inactive)
    1  A    between atoms: C_5  and  N_19
    2  A    between atoms: C_7  and  C_9
    3  A    between atoms: C_9  and  C_14
    4  A    between atoms: N_11  and  N_26
    5  A    between atoms: C_14  and  C_20
                            x       y       z     vdW  Elec       q    Type
                         _______ _______ _______ _____ _____    ______ ____

>  <TORSDO>
F 5

$$$$
