=
 OpenBabel11072414593D

 39 45  0  0  1  0  0  0  0  0999 V2000
  161.5510  207.7100  152.9810 C   0  0  1  0  0  0  0  0  0  0  0  0
  162.2860  206.4220  152.6480 C   0  0  0  0  0  2  0  0  0  0  0  0
  161.5120  208.7830  151.9090 C   0  0  0  0  0  2  0  0  0  0  0  0
  161.0080  207.7710  150.9000 C   0  0  2  0  0  3  0  0  0  0  0  0
  160.9530  206.7100  151.9910 C   0  0  2  0  0  3  0  0  0  0  0  0
  160.5720  207.7890  154.1450 C   0  0  0  0  0  2  0  0  0  0  0  0
  161.6870  208.0350  156.2140 O   0  0  0  0  0  0  0  0  0  0  0  0
  161.1430  208.5930  155.2730 C   0  0  0  0  0  0  0  0  0  0  0  0
  161.0890  210.0840  155.2160 C   0  0  0  0  0  2  0  0  0  0  0  0
  159.7350  210.5210  155.1430 O   0  0  0  0  0  0  0  0  0  0  0  0
  158.3300  213.1610  152.1880 C   0  0  0  0  0  0  0  0  0  0  0  0
  157.4780  212.7320  153.2040 C   0  0  0  0  0  3  0  0  0  0  0  0
  157.8370  214.1190  151.1620 C   0  0  0  0  0  1  0  0  0  0  0  0
  157.9200  211.8190  154.1680 C   0  0  0  0  0  0  0  0  0  0  0  0
  160.1050  211.8030  153.1060 C   0  0  0  0  0  3  0  0  0  0  0  0
  159.6430  212.6930  152.1350 C   0  0  0  0  0  3  0  0  0  0  0  0
  159.2570  211.3650  154.1360 C   0  0  0  0  0  0  0  0  0  0  0  0
  156.7270  212.1680  156.3900 C   0  0  0  0  0  0  0  0  0  0  0  0
  157.0060  211.4240  155.2030 N   0  0  0  0  0  2  0  0  0  0  0  0
  157.4850  213.1070  156.7550 O   0  0  0  0  0  0  0  0  0  0  0  0
  154.8490  210.7650  156.6160 O   0  0  0  0  0  1  0  0  0  0  0  0
  155.5830  211.7660  157.2530 C   0  0  0  0  0  2  0  0  0  0  0  0
  162.0350  207.4680  149.9670 O   0  0  0  0  0  0  0  0  0  0  0  0
  162.3440  207.2470  147.5480 N   0  0  0  0  0  2  0  0  0  0  0  0
  162.0860  208.0560  148.7000 C   0  0  0  0  0  0  0  0  0  0  0  0
  161.9300  209.3000  148.5660 O   0  0  0  0  0  0  0  0  0  0  0  0
  162.6220  205.8230  147.6600 C   0  0  0  0  0  2  0  0  0  0  0  0
  161.3920  202.7750  150.8890 C   0  0  1  0  0  0  0  0  0  0  0  0
  161.1080  202.7450  148.0000 C   0  0  0  0  0  0  0  0  0  0  0  0
  161.2980  203.9080  148.6060 C   0  0  0  0  0  0  0  0  0  0  0  0
  161.3480  204.0840  150.1050 C   0  0  1  0  0  3  0  0  0  0  0  0
  161.0430  203.0040  146.5830 C   0  0  0  0  0  0  0  0  0  0  0  0
  160.7140  201.4940  148.7050 C   0  0  0  0  0  2  0  0  0  0  0  0
  160.1120  203.5000  150.7680 C   0  0  2  0  0  3  0  0  0  0  0  0
  161.3210  205.0310  147.5980 C   0  0  2  0  0  3  0  0  0  0  0  0
  161.2140  204.3560  146.3470 O   0  0  0  0  0  0  0  0  0  0  0  0
  161.3250  201.4370  150.1130 C   0  0  0  0  0  2  0  0  0  0  0  0
  160.4550  202.8040  152.0200 N   0  0  0  0  0  2  0  0  0  0  0  0
  160.8850  202.1360  145.6800 O   0  0  0  0  0  0  0  0  0  0  0  0
  1  6  1  1  0  0  0
  2  1  1  0  0  0  0
  3  1  1  0  0  0  0
  4 23  1  6  0  0  0
  4  3  1  0  0  0  0
  4  5  1  0  0  0  0
  5  2  1  6  0  0  0
  5  1  1  0  0  0  0
  6  8  1  0  0  0  0
  8  7  2  0  0  0  0
  9  8  1  0  0  0  0
 10  9  1  0  0  0  0
 11 12  1  0  0  0  0
 12 14  2  0  0  0  0
 13 11  1  0  0  0  0
 14 19  1  0  0  0  0
 15 17  2  0  0  0  0
 16 11  2  0  0  0  0
 16 15  1  0  0  0  0
 17 14  1  0  0  0  0
 17 10  1  0  0  0  0
 18 20  2  0  0  0  0
 18 22  1  0  0  0  0
 19 18  1  0  0  0  0
 21 22  1  0  0  0  0
 24 27  1  0  0  0  0
 24 25  1  0  0  0  0
 25 23  1  0  0  0  0
 26 25  2  0  0  0  0
 28 37  1  6  0  0  0
 28 38  1  0  0  0  0
 29 30  2  0  0  0  0
 29 33  1  0  0  0  0
 31 30  1  6  0  0  0
 31 34  1  0  0  0  0
 31 28  1  0  0  0  0
 32 29  1  0  0  0  0
 33 37  1  0  0  0  0
 34 28  1  0  0  0  0
 34 38  1  1  0  0  0
 35 27  1  6  0  0  0
 35 30  1  0  0  0  0
 36 32  1  0  0  0  0
 36 35  1  0  0  0  0
 39 32  2  0  0  0  0
M  END
>  <MODEL>
1

>  <REMARK>
 VINA RESULT:      -7.9      0.000      0.000
  Name = 
  11 active torsions:
  status: ('A' for Active; 'I' for Inactive)
    1  A    between atoms: C_1  and  C_5
    2  A    between atoms: C_5  and  C_26
    3  A    between atoms: C_6  and  C_37
    4  A    between atoms: C_14  and  N_22
    5  A    between atoms: O_17  and  C_19
    6  A    between atoms: O_17  and  C_34
    7  A    between atoms: N_18  and  C_24
    8  A    between atoms: C_21  and  C_24
    9  A    between atoms: C_26  and  C_33
   10  A    between atoms: C_32  and  O_39
   11  A    between atoms: C_33  and  O_39
                            x       y       z     vdW  Elec       q    Type
                         _______ _______ _______ _____ _____    ______ ____

>  <TORSDO>
F 11

$$$$
=
 OpenBabel11072414593D

 39 45  0  0  1  0  0  0  0  0999 V2000
  161.3470  208.4450  150.8930 C   0  0  1  0  0  0  0  0  0  0  0  0
  161.2820  207.7450  149.5460 C   0  0  0  0  0  2  0  0  0  0  0  0
  161.0220  207.6170  152.1220 C   0  0  0  0  0  2  0  0  0  0  0  0
  162.0110  206.5580  151.6830 C   0  0  2  0  0  3  0  0  0  0  0  0
  162.4150  207.4240  150.4970 C   0  0  2  0  0  3  0  0  0  0  0  0
  162.0750  209.7720  151.0650 C   0  0  0  0  0  2  0  0  0  0  0  0
  162.3900  210.3800  153.3270 O   0  0  0  0  0  0  0  0  0  0  0  0
  161.6710  210.4450  152.3410 C   0  0  0  0  0  0  0  0  0  0  0  0
  160.4070  211.2390  152.3860 C   0  0  0  0  0  2  0  0  0  0  0  0
  160.2680  211.8620  153.6580 O   0  0  0  0  0  0  0  0  0  0  0  0
  156.7620  211.7820  155.9790 C   0  0  0  0  0  0  0  0  0  0  0  0
  157.9860  211.4370  156.5490 C   0  0  0  0  0  3  0  0  0  0  0  0
  155.5290  211.7810  156.8120 C   0  0  0  0  0  1  0  0  0  0  0  0
  159.1530  211.4170  155.7770 C   0  0  0  0  0  0  0  0  0  0  0  0
  157.8560  212.1380  153.8550 C   0  0  0  0  0  3  0  0  0  0  0  0
  156.6950  212.1270  154.6300 C   0  0  0  0  0  3  0  0  0  0  0  0
  159.0950  211.7950  154.4180 C   0  0  0  0  0  0  0  0  0  0  0  0
  161.0560  209.8130  156.3120 C   0  0  0  0  0  0  0  0  0  0  0  0
  160.3900  211.0720  156.4200 N   0  0  0  0  0  2  0  0  0  0  0  0
  160.4540  208.8020  155.8610 O   0  0  0  0  0  0  0  0  0  0  0  0
  163.2180  210.7470  156.3770 O   0  0  0  0  0  1  0  0  0  0  0  0
  162.4460  209.6740  156.8270 C   0  0  0  0  0  2  0  0  0  0  0  0
  161.3150  205.4030  151.2370 O   0  0  0  0  0  0  0  0  0  0  0  0
  160.5590  203.0900  151.5120 N   0  0  0  0  0  2  0  0  0  0  0  0
  161.1220  204.2880  152.0570 C   0  0  0  0  0  0  0  0  0  0  0  0
  161.4170  204.3360  153.2820 O   0  0  0  0  0  0  0  0  0  0  0  0
  160.1160  203.0140  150.1280 C   0  0  0  0  0  2  0  0  0  0  0  0
  161.2040  205.2720  146.2620 C   0  0  1  0  0  0  0  0  0  0  0  0
  161.2010  202.4420  146.9060 C   0  0  0  0  0  0  0  0  0  0  0  0
  161.2390  203.3180  147.9000 C   0  0  0  0  0  0  0  0  0  0  0  0
  161.3580  204.8110  147.7090 C   0  0  1  0  0  3  0  0  0  0  0  0
  161.1650  201.1260  147.4950 C   0  0  0  0  0  0  0  0  0  0  0  0
  161.4790  202.7850  145.4840 C   0  0  0  0  0  2  0  0  0  0  0  0
  162.5570  205.1590  146.8420 C   0  0  2  0  0  3  0  0  0  0  0  0
  161.2790  202.6060  149.2300 C   0  0  2  0  0  3  0  0  0  0  0  0
  161.1680  201.2300  148.8730 O   0  0  0  0  0  0  0  0  0  0  0  0
  161.0050  204.2090  145.1560 C   0  0  0  0  0  2  0  0  0  0  0  0
  162.2400  206.2500  145.9050 N   0  0  0  0  0  2  0  0  0  0  0  0
  161.1110  200.0360  146.8610 O   0  0  0  0  0  0  0  0  0  0  0  0
  1  6  1  1  0  0  0
  1  3  1  0  0  0  0
  2  1  1  0  0  0  0
  4 23  1  6  0  0  0
  4  3  1  0  0  0  0
  5  2  1  6  0  0  0
  5  1  1  0  0  0  0
  5  4  1  0  0  0  0
  6  8  1  0  0  0  0
  8  9  1  0  0  0  0
  8  7  2  0  0  0  0
  9 10  1  0  0  0  0
 10 17  1  0  0  0  0
 11 12  1  0  0  0  0
 11 13  1  0  0  0  0
 14 19  1  0  0  0  0
 14 12  2  0  0  0  0
 15 17  2  0  0  0  0
 15 16  1  0  0  0  0
 16 11  2  0  0  0  0
 17 14  1  0  0  0  0
 18 19  1  0  0  0  0
 18 22  1  0  0  0  0
 20 18  2  0  0  0  0
 21 22  1  0  0  0  0
 23 25  1  0  0  0  0
 24 25  1  0  0  0  0
 25 26  2  0  0  0  0
 27 24  1  0  0  0  0
 28 37  1  6  0  0  0
 28 34  1  0  0  0  0
 28 31  1  0  0  0  0
 29 32  1  0  0  0  0
 29 30  2  0  0  0  0
 30 35  1  0  0  0  0
 31 30  1  6  0  0  0
 32 36  1  0  0  0  0
 33 29  1  0  0  0  0
 34 38  1  1  0  0  0
 34 31  1  0  0  0  0
 35 27  1  1  0  0  0
 36 35  1  0  0  0  0
 37 33  1  0  0  0  0
 38 28  1  0  0  0  0
 39 32  2  0  0  0  0
M  END
>  <MODEL>
2

>  <REMARK>
 VINA RESULT:      -7.7      2.128      4.236
  Name = 
  11 active torsions:
  status: ('A' for Active; 'I' for Inactive)
    1  A    between atoms: C_1  and  C_5
    2  A    between atoms: C_5  and  C_26
    3  A    between atoms: C_6  and  C_37
    4  A    between atoms: C_14  and  N_22
    5  A    between atoms: O_17  and  C_19
    6  A    between atoms: O_17  and  C_34
    7  A    between atoms: N_18  and  C_24
    8  A    between atoms: C_21  and  C_24
    9  A    between atoms: C_26  and  C_33
   10  A    between atoms: C_32  and  O_39
   11  A    between atoms: C_33  and  O_39
                            x       y       z     vdW  Elec       q    Type
                         _______ _______ _______ _____ _____    ______ ____

>  <TORSDO>
F 11

$$$$
=
 OpenBabel11072414593D

 39 45  0  0  1  0  0  0  0  0999 V2000
  161.0670  206.7680  151.7730 C   0  0  1  0  0  0  0  0  0  0  0  0
  160.6460  206.5840  150.3250 C   0  0  0  0  0  2  0  0  0  0  0  0
  161.1050  205.5280  152.6460 C   0  0  0  0  0  2  0  0  0  0  0  0
  161.9540  204.8140  151.6140 C   0  0  2  0  0  3  0  0  0  0  0  0
  162.0020  206.0830  150.7750 C   0  0  2  0  0  3  0  0  0  0  0  0
  161.7920  208.0240  152.2380 C   0  0  0  0  0  2  0  0  0  0  0  0
  160.8420  208.7610  154.2730 O   0  0  0  0  0  0  0  0  0  0  0  0
  160.8890  208.8920  153.0590 C   0  0  0  0  0  0  0  0  0  0  0  0
  160.0810  209.9560  152.3890 C   0  0  0  0  0  2  0  0  0  0  0  0
  160.9090  211.0700  152.0730 O   0  0  0  0  0  0  0  0  0  0  0  0
  161.6960  212.4480  148.1790 C   0  0  0  0  0  0  0  0  0  0  0  0
  160.8790  213.1890  149.0310 C   0  0  0  0  0  3  0  0  0  0  0  0
  161.9960  212.9550  146.8130 C   0  0  0  0  0  1  0  0  0  0  0  0
  160.5740  212.7200  150.3130 C   0  0  0  0  0  0  0  0  0  0  0  0
  161.9560  210.7680  149.8950 C   0  0  0  0  0  3  0  0  0  0  0  0
  162.2300  211.2340  148.6080 C   0  0  0  0  0  3  0  0  0  0  0  0
  161.1370  211.5060  150.7630 C   0  0  0  0  0  0  0  0  0  0  0  0
  158.3140  213.5050  151.1860 C   0  0  0  0  0  0  0  0  0  0  0  0
  159.7420  213.5330  151.1560 N   0  0  0  0  0  2  0  0  0  0  0  0
  157.6610  212.9540  150.2590 O   0  0  0  0  0  0  0  0  0  0  0  0
  157.1940  213.2980  153.2480 O   0  0  0  0  0  1  0  0  0  0  0  0
  157.5910  214.2160  152.2750 C   0  0  0  0  0  2  0  0  0  0  0  0
  161.1820  203.8180  150.9600 O   0  0  0  0  0  0  0  0  0  0  0  0
  160.9450  201.5010  150.2050 N   0  0  0  0  0  2  0  0  0  0  0  0
  161.3940  202.4530  151.1740 C   0  0  0  0  0  0  0  0  0  0  0  0
  161.9580  202.0510  152.2270 O   0  0  0  0  0  0  0  0  0  0  0  0
  160.2080  201.9070  149.0180 C   0  0  0  0  0  2  0  0  0  0  0  0
  161.3200  205.7110  146.6670 C   0  0  1  0  0  0  0  0  0  0  0  0
  160.7350  203.0060  145.7920 C   0  0  0  0  0  0  0  0  0  0  0  0
  161.0940  203.2000  147.0530 C   0  0  0  0  0  0  0  0  0  0  0  0
  161.5350  204.5320  147.6130 C   0  0  1  0  0  3  0  0  0  0  0  0
  160.4640  201.5970  145.6360 C   0  0  0  0  0  0  0  0  0  0  0  0
  160.9110  204.0140  144.7120 C   0  0  0  0  0  2  0  0  0  0  0  0
  162.6680  205.1240  146.7910 C   0  0  2  0  0  3  0  0  0  0  0  0
  161.1270  201.8900  147.8020 C   0  0  2  0  0  3  0  0  0  0  0  0
  160.6560  200.9480  146.8410 O   0  0  0  0  0  0  0  0  0  0  0  0
  160.7470  205.4420  145.2550 C   0  0  0  0  0  2  0  0  0  0  0  0
  162.5050  206.5780  146.6240 N   0  0  0  0  0  2  0  0  0  0  0  0
  160.0810  201.0340  144.5730 O   0  0  0  0  0  0  0  0  0  0  0  0
  1  6  1  1  0  0  0
  1  3  1  0  0  0  0
  2  1  1  0  0  0  0
  4 23  1  6  0  0  0
  4  3  1  0  0  0  0
  5  2  1  6  0  0  0
  5  4  1  0  0  0  0
  5  1  1  0  0  0  0
  6  8  1  0  0  0  0
  8  7  2  0  0  0  0
  9  8  1  0  0  0  0
 10  9  1  0  0  0  0
 11 16  2  0  0  0  0
 11 12  1  0  0  0  0
 12 14  2  0  0  0  0
 13 11  1  0  0  0  0
 14 17  1  0  0  0  0
 14 19  1  0  0  0  0
 15 17  2  0  0  0  0
 16 15  1  0  0  0  0
 17 10  1  0  0  0  0
 18 22  1  0  0  0  0
 19 18  1  0  0  0  0
 20 18  2  0  0  0  0
 22 21  1  0  0  0  0
 23 25  1  0  0  0  0
 24 25  1  0  0  0  0
 25 26  2  0  0  0  0
 27 24  1  0  0  0  0
 28 37  1  6  0  0  0
 28 34  1  0  0  0  0
 28 31  1  0  0  0  0
 29 30  2  0  0  0  0
 30 35  1  0  0  0  0
 31 30  1  6  0  0  0
 32 29  1  0  0  0  0
 32 36  1  0  0  0  0
 33 37  1  0  0  0  0
 33 29  1  0  0  0  0
 34 38  1  1  0  0  0
 34 31  1  0  0  0  0
 35 27  1  1  0  0  0
 36 35  1  0  0  0  0
 38 28  1  0  0  0  0
 39 32  2  0  0  0  0
M  END
>  <MODEL>
3

>  <REMARK>
 VINA RESULT:      -7.6      2.663      4.493
  Name = 
  11 active torsions:
  status: ('A' for Active; 'I' for Inactive)
    1  A    between atoms: C_1  and  C_5
    2  A    between atoms: C_5  and  C_26
    3  A    between atoms: C_6  and  C_37
    4  A    between atoms: C_14  and  N_22
    5  A    between atoms: O_17  and  C_19
    6  A    between atoms: O_17  and  C_34
    7  A    between atoms: N_18  and  C_24
    8  A    between atoms: C_21  and  C_24
    9  A    between atoms: C_26  and  C_33
   10  A    between atoms: C_32  and  O_39
   11  A    between atoms: C_33  and  O_39
                            x       y       z     vdW  Elec       q    Type
                         _______ _______ _______ _____ _____    ______ ____

>  <TORSDO>
F 11

$$$$
=
 OpenBabel11072414593D

 39 45  0  0  1  0  0  0  0  0999 V2000
  160.0940  210.9810  154.5110 C   0  0  1  0  0  0  0  0  0  0  0  0
  161.5320  210.6770  154.1260 C   0  0  0  0  0  2  0  0  0  0  0  0
  159.3710  209.9530  155.3600 C   0  0  0  0  0  2  0  0  0  0  0  0
  160.5170  209.9490  156.3510 C   0  0  2  0  0  3  0  0  0  0  0  0
  161.2080  211.0500  155.5570 C   0  0  2  0  0  3  0  0  0  0  0  0
  159.5240  212.3900  154.4080 C   0  0  0  0  0  2  0  0  0  0  0  0
  158.5450  211.6880  152.3740 O   0  0  0  0  0  0  0  0  0  0  0  0
  158.9240  212.6280  153.0560 C   0  0  0  0  0  0  0  0  0  0  0  0
  158.7430  214.0280  152.5670 C   0  0  0  0  0  2  0  0  0  0  0  0
  159.3000  214.1650  151.2640 O   0  0  0  0  0  0  0  0  0  0  0  0
  156.9550  214.4000  147.7820 C   0  0  0  0  0  0  0  0  0  0  0  0
  158.3450  214.3610  147.6870 C   0  0  0  0  0  3  0  0  0  0  0  0
  156.1290  214.4530  146.5450 C   0  0  0  0  0  1  0  0  0  0  0  0
  159.1380  214.3270  148.8390 C   0  0  0  0  0  0  0  0  0  0  0  0
  157.1200  214.3280  150.1910 C   0  0  0  0  0  3  0  0  0  0  0  0
  156.3420  214.3900  149.0340 C   0  0  0  0  0  3  0  0  0  0  0  0
  158.5210  214.2860  150.1090 C   0  0  0  0  0  0  0  0  0  0  0  0
  161.2780  213.2760  147.9460 C   0  0  0  0  0  0  0  0  0  0  0  0
  160.5650  214.2700  148.6840 N   0  0  0  0  0  2  0  0  0  0  0  0
  160.7170  212.2010  147.6030 O   0  0  0  0  0  0  0  0  0  0  0  0
  163.4140  212.2840  147.8990 O   0  0  0  0  0  1  0  0  0  0  0  0
  162.7250  213.4750  147.6620 C   0  0  0  0  0  2  0  0  0  0  0  0
  161.2440  208.7340  156.2430 O   0  0  0  0  0  0  0  0  0  0  0  0
  160.4890  206.8150  154.9220 N   0  0  0  0  0  2  0  0  0  0  0  0
  160.6070  207.4910  156.1780 C   0  0  0  0  0  0  0  0  0  0  0  0
  160.1140  206.9690  157.2140 O   0  0  0  0  0  0  0  0  0  0  0  0
  160.9600  207.4160  153.6830 C   0  0  0  0  0  2  0  0  0  0  0  0
  161.0570  207.3370  149.0770 C   0  0  1  0  0  0  0  0  0  0  0  0
  161.0180  205.2010  151.0420 C   0  0  0  0  0  0  0  0  0  0  0  0
  161.4100  206.4080  151.4250 C   0  0  0  0  0  0  0  0  0  0  0  0
  161.5860  207.5790  150.4880 C   0  0  1  0  0  3  0  0  0  0  0  0
  161.0510  204.3490  152.2050 C   0  0  0  0  0  0  0  0  0  0  0  0
  160.8990  204.7780  149.6190 C   0  0  0  0  0  2  0  0  0  0  0  0
  162.5060  207.2230  149.3320 C   0  0  2  0  0  3  0  0  0  0  0  0
  161.7780  206.4040  152.8890 C   0  0  2  0  0  3  0  0  0  0  0  0
  161.4600  205.0780  153.3070 O   0  0  0  0  0  0  0  0  0  0  0  0
  160.4630  205.9510  148.7280 C   0  0  0  0  0  2  0  0  0  0  0  0
  162.0180  207.7950  148.0650 N   0  0  0  0  0  2  0  0  0  0  0  0
  160.7300  203.1290  152.2350 O   0  0  0  0  0  0  0  0  0  0  0  0
  1  6  1  6  0  0  0
  1  3  1  0  0  0  0
  1  5  1  0  0  0  0
  2  1  1  0  0  0  0
  3  4  1  0  0  0  0
  4 23  1  6  0  0  0
  5  2  1  6  0  0  0
  5  4  1  0  0  0  0
  7  8  2  0  0  0  0
  8  6  1  0  0  0  0
  9  8  1  0  0  0  0
 10  9  1  0  0  0  0
 11 16  1  0  0  0  0
 12 11  2  0  0  0  0
 12 14  1  0  0  0  0
 13 11  1  0  0  0  0
 14 17  2  0  0  0  0
 16 15  2  0  0  0  0
 17 15  1  0  0  0  0
 17 10  1  0  0  0  0
 18 19  1  0  0  0  0
 19 14  1  0  0  0  0
 20 18  2  0  0  0  0
 22 21  1  0  0  0  0
 22 18  1  0  0  0  0
 24 25  1  0  0  0  0
 25 23  1  0  0  0  0
 25 26  2  0  0  0  0
 27 24  1  0  0  0  0
 28 37  1  6  0  0  0
 28 34  1  0  0  0  0
 28 31  1  0  0  0  0
 29 30  2  0  0  0  0
 29 32  1  0  0  0  0
 30 35  1  0  0  0  0
 31 30  1  1  0  0  0
 32 39  2  0  0  0  0
 32 36  1  0  0  0  0
 33 29  1  0  0  0  0
 34 38  1  6  0  0  0
 34 31  1  0  0  0  0
 35 36  1  0  0  0  0
 35 27  1  1  0  0  0
 37 33  1  0  0  0  0
 38 28  1  0  0  0  0
M  END
>  <MODEL>
4

>  <REMARK>
 VINA RESULT:      -7.6      2.979      6.419
  Name = 
  11 active torsions:
  status: ('A' for Active; 'I' for Inactive)
    1  A    between atoms: C_1  and  C_5
    2  A    between atoms: C_5  and  C_26
    3  A    between atoms: C_6  and  C_37
    4  A    between atoms: C_14  and  N_22
    5  A    between atoms: O_17  and  C_19
    6  A    between atoms: O_17  and  C_34
    7  A    between atoms: N_18  and  C_24
    8  A    between atoms: C_21  and  C_24
    9  A    between atoms: C_26  and  C_33
   10  A    between atoms: C_32  and  O_39
   11  A    between atoms: C_33  and  O_39
                            x       y       z     vdW  Elec       q    Type
                         _______ _______ _______ _____ _____    ______ ____

>  <TORSDO>
F 11

$$$$
=
 OpenBabel11072414593D

 39 45  0  0  1  0  0  0  0  0999 V2000
  161.5800  207.8360  152.7420 C   0  0  1  0  0  0  0  0  0  0  0  0
  162.2790  206.5080  152.5030 C   0  0  0  0  0  2  0  0  0  0  0  0
  161.5430  208.8180  151.5860 C   0  0  0  0  0  2  0  0  0  0  0  0
  160.9970  207.7390  150.6730 C   0  0  2  0  0  3  0  0  0  0  0  0
  160.9400  206.7720  151.8480 C   0  0  2  0  0  3  0  0  0  0  0  0
  160.6250  208.0330  153.9120 C   0  0  0  0  0  2  0  0  0  0  0  0
  161.6200  208.0660  156.0560 O   0  0  0  0  0  0  0  0  0  0  0  0
  161.3150  208.7050  155.0600 C   0  0  0  0  0  0  0  0  0  0  0  0
  161.6740  210.1510  154.9580 C   0  0  0  0  0  2  0  0  0  0  0  0
  160.6590  210.8570  154.2510 O   0  0  0  0  0  0  0  0  0  0  0  0
  157.0110  211.9900  156.0070 C   0  0  0  0  0  0  0  0  0  0  0  0
  157.2240  212.1940  154.6450 C   0  0  0  0  0  3  0  0  0  0  0  0
  155.7070  212.3660  156.6170 C   0  0  0  0  0  1  0  0  0  0  0  0
  158.4500  211.8620  154.0570 C   0  0  0  0  0  0  0  0  0  0  0  0
  159.2360  211.0740  156.2160 C   0  0  0  0  0  3  0  0  0  0  0  0
  158.0190  211.4350  156.7940 C   0  0  0  0  0  3  0  0  0  0  0  0
  159.4630  211.2730  154.8440 C   0  0  0  0  0  0  0  0  0  0  0  0
  158.8380  213.3410  152.0210 C   0  0  0  0  0  0  0  0  0  0  0  0
  158.6100  212.0770  152.6460 N   0  0  0  0  0  2  0  0  0  0  0  0
  158.6340  214.4160  152.6470 O   0  0  0  0  0  0  0  0  0  0  0  0
  160.4630  212.7570  150.4190 O   0  0  0  0  0  1  0  0  0  0  0  0
  159.2290  213.3870  150.5860 C   0  0  0  0  0  2  0  0  0  0  0  0
  161.9990  207.3360  149.7500 O   0  0  0  0  0  0  0  0  0  0  0  0
  162.3430  206.9910  147.3510 N   0  0  0  0  0  2  0  0  0  0  0  0
  162.0710  207.8580  148.4560 C   0  0  0  0  0  0  0  0  0  0  0  0
  161.9220  209.0940  148.2550 O   0  0  0  0  0  0  0  0  0  0  0  0
  162.6130  205.5730  147.5390 C   0  0  0  0  0  2  0  0  0  0  0  0
  161.4090  202.7140  150.9460 C   0  0  1  0  0  0  0  0  0  0  0  0
  161.0860  202.5280  148.0670 C   0  0  0  0  0  0  0  0  0  0  0  0
  161.2910  203.7220  148.6060 C   0  0  0  0  0  0  0  0  0  0  0  0
  161.3630  203.9790  150.0920 C   0  0  1  0  0  3  0  0  0  0  0  0
  161.0030  202.7110  146.6380 C   0  0  0  0  0  0  0  0  0  0  0  0
  160.6940  201.3200  148.8440 C   0  0  0  0  0  2  0  0  0  0  0  0
  160.1320  203.4400  150.8020 C   0  0  2  0  0  3  0  0  0  0  0  0
  161.3070  204.7880  147.5380 C   0  0  2  0  0  3  0  0  0  0  0  0
  161.1790  204.0460  146.3270 O   0  0  0  0  0  0  0  0  0  0  0  0
  161.3230  201.3360  150.2450 C   0  0  0  0  0  2  0  0  0  0  0  0
  160.4880  202.8100  152.0850 N   0  0  0  0  0  2  0  0  0  0  0  0
  160.8270  201.7960  145.7870 O   0  0  0  0  0  0  0  0  0  0  0  0
  1  6  1  1  0  0  0
  2  1  1  0  0  0  0
  3  1  1  0  0  0  0
  4 23  1  6  0  0  0
  4  3  1  0  0  0  0
  4  5  1  0  0  0  0
  5  2  1  6  0  0  0
  5  1  1  0  0  0  0
  6  8  1  0  0  0  0
  8  7  2  0  0  0  0
  9  8  1  0  0  0  0
 10 17  1  0  0  0  0
 10  9  1  0  0  0  0
 11 13  1  0  0  0  0
 11 16  1  0  0  0  0
 12 11  2  0  0  0  0
 14 12  1  0  0  0  0
 14 17  2  0  0  0  0
 15 16  2  0  0  0  0
 17 15  1  0  0  0  0
 18 19  1  0  0  0  0
 18 20  2  0  0  0  0
 19 14  1  0  0  0  0
 21 22  1  0  0  0  0
 22 18  1  0  0  0  0
 24 27  1  0  0  0  0
 24 25  1  0  0  0  0
 25 23  1  0  0  0  0
 26 25  2  0  0  0  0
 28 37  1  6  0  0  0
 28 38  1  0  0  0  0
 29 30  2  0  0  0  0
 29 33  1  0  0  0  0
 31 30  1  6  0  0  0
 31 34  1  0  0  0  0
 31 28  1  0  0  0  0
 32 29  1  0  0  0  0
 33 37  1  0  0  0  0
 34 28  1  0  0  0  0
 34 38  1  1  0  0  0
 35 27  1  6  0  0  0
 35 30  1  0  0  0  0
 36 32  1  0  0  0  0
 36 35  1  0  0  0  0
 39 32  2  0  0  0  0
M  END
>  <MODEL>
5

>  <REMARK>
 VINA RESULT:      -7.6      1.470      2.716
  Name = 
  11 active torsions:
  status: ('A' for Active; 'I' for Inactive)
    1  A    between atoms: C_1  and  C_5
    2  A    between atoms: C_5  and  C_26
    3  A    between atoms: C_6  and  C_37
    4  A    between atoms: C_14  and  N_22
    5  A    between atoms: O_17  and  C_19
    6  A    between atoms: O_17  and  C_34
    7  A    between atoms: N_18  and  C_24
    8  A    between atoms: C_21  and  C_24
    9  A    between atoms: C_26  and  C_33
   10  A    between atoms: C_32  and  O_39
   11  A    between atoms: C_33  and  O_39
                            x       y       z     vdW  Elec       q    Type
                         _______ _______ _______ _____ _____    ______ ____

>  <TORSDO>
F 11

$$$$
=
 OpenBabel11072414593D

 39 45  0  0  1  0  0  0  0  0999 V2000
  161.0700  206.5970  151.8850 C   0  0  1  0  0  0  0  0  0  0  0  0
  160.4840  206.4500  150.4910 C   0  0  0  0  0  2  0  0  0  0  0  0
  161.2350  205.3310  152.7040 C   0  0  0  0  0  2  0  0  0  0  0  0
  161.9710  204.6710  151.5550 C   0  0  2  0  0  3  0  0  0  0  0  0
  161.8940  205.9670  150.7600 C   0  0  2  0  0  3  0  0  0  0  0  0
  161.8190  207.8550  152.3050 C   0  0  0  0  0  2  0  0  0  0  0  0
  160.4530  207.8730  154.2330 O   0  0  0  0  0  0  0  0  0  0  0  0
  161.1400  208.5240  153.4600 C   0  0  0  0  0  0  0  0  0  0  0  0
  161.3490  209.9850  153.6910 C   0  0  0  0  0  2  0  0  0  0  0  0
  160.2510  210.7240  153.1650 O   0  0  0  0  0  0  0  0  0  0  0  0
  157.0710  212.1330  155.5270 C   0  0  0  0  0  0  0  0  0  0  0  0
  157.1380  212.4650  154.1750 C   0  0  0  0  0  3  0  0  0  0  0  0
  155.9280  212.6100  156.3510 C   0  0  0  0  0  1  0  0  0  0  0  0
  158.2140  212.0390  153.3880 C   0  0  0  0  0  0  0  0  0  0  0  0
  159.1390  210.9010  155.3240 C   0  0  0  0  0  3  0  0  0  0  0  0
  158.0750  211.3560  156.1040 C   0  0  0  0  0  3  0  0  0  0  0  0
  159.2170  211.2270  153.9610 C   0  0  0  0  0  0  0  0  0  0  0  0
  158.9040  213.5180  151.4330 C   0  0  0  0  0  0  0  0  0  0  0  0
  158.2240  212.3950  151.9970 N   0  0  0  0  0  2  0  0  0  0  0  0
  159.3210  214.4530  152.1680 O   0  0  0  0  0  0  0  0  0  0  0  0
  160.2940  214.1340  149.6350 O   0  0  0  0  0  1  0  0  0  0  0  0
  159.0340  213.6270  149.9550 C   0  0  0  0  0  2  0  0  0  0  0  0
  161.1460  203.6780  150.9620 O   0  0  0  0  0  0  0  0  0  0  0  0
  160.9570  201.3810  150.1350 N   0  0  0  0  0  2  0  0  0  0  0  0
  161.3880  202.3120  151.1330 C   0  0  0  0  0  0  0  0  0  0  0  0
  161.9620  201.8890  152.1730 O   0  0  0  0  0  0  0  0  0  0  0  0
  160.2090  201.8090  148.9620 C   0  0  0  0  0  2  0  0  0  0  0  0
  161.2110  205.6710  146.6580 C   0  0  1  0  0  0  0  0  0  0  0  0
  160.6900  202.9640  145.7500 C   0  0  0  0  0  0  0  0  0  0  0  0
  161.0520  203.1510  147.0110 C   0  0  0  0  0  0  0  0  0  0  0  0
  161.4610  204.4860  147.5860 C   0  0  1  0  0  3  0  0  0  0  0  0
  160.4550  201.5520  145.5750 C   0  0  0  0  0  0  0  0  0  0  0  0
  160.8360  203.9910  144.6820 C   0  0  0  0  0  2  0  0  0  0  0  0
  162.5750  205.1170  146.7670 C   0  0  2  0  0  3  0  0  0  0  0  0
  161.1220  201.8320  147.7410 C   0  0  2  0  0  3  0  0  0  0  0  0
  160.6700  200.8910  146.7700 O   0  0  0  0  0  0  0  0  0  0  0  0
  160.6370  205.4060  145.2450 C   0  0  0  0  0  2  0  0  0  0  0  0
  162.3730  206.5690  146.6210 N   0  0  0  0  0  2  0  0  0  0  0  0
  160.0810  200.9930  144.5070 O   0  0  0  0  0  0  0  0  0  0  0  0
  1  6  1  1  0  0  0
  1  3  1  0  0  0  0
  2  1  1  0  0  0  0
  4 23  1  6  0  0  0
  4  3  1  0  0  0  0
  5  2  1  6  0  0  0
  5  4  1  0  0  0  0
  5  1  1  0  0  0  0
  6  8  1  0  0  0  0
  8  9  1  0  0  0  0
  8  7  2  0  0  0  0
 10  9  1  0  0  0  0
 10 17  1  0  0  0  0
 11 16  1  0  0  0  0
 11 13  1  0  0  0  0
 12 11  2  0  0  0  0
 14 17  2  0  0  0  0
 14 12  1  0  0  0  0
 15 16  2  0  0  0  0
 17 15  1  0  0  0  0
 18 19  1  0  0  0  0
 18 20  2  0  0  0  0
 19 14  1  0  0  0  0
 21 22  1  0  0  0  0
 22 18  1  0  0  0  0
 23 25  1  0  0  0  0
 24 25  1  0  0  0  0
 25 26  2  0  0  0  0
 27 24  1  0  0  0  0
 28 37  1  6  0  0  0
 28 34  1  0  0  0  0
 28 31  1  0  0  0  0
 29 30  2  0  0  0  0
 30 35  1  0  0  0  0
 31 30  1  6  0  0  0
 32 29  1  0  0  0  0
 32 36  1  0  0  0  0
 33 37  1  0  0  0  0
 33 29  1  0  0  0  0
 34 38  1  1  0  0  0
 34 31  1  0  0  0  0
 35 27  1  1  0  0  0
 36 35  1  0  0  0  0
 38 28  1  0  0  0  0
 39 32  2  0  0  0  0
M  END
>  <MODEL>
6

>  <REMARK>
 VINA RESULT:      -7.3      2.257      4.403
  Name = 
  11 active torsions:
  status: ('A' for Active; 'I' for Inactive)
    1  A    between atoms: C_1  and  C_5
    2  A    between atoms: C_5  and  C_26
    3  A    between atoms: C_6  and  C_37
    4  A    between atoms: C_14  and  N_22
    5  A    between atoms: O_17  and  C_19
    6  A    between atoms: O_17  and  C_34
    7  A    between atoms: N_18  and  C_24
    8  A    between atoms: C_21  and  C_24
    9  A    between atoms: C_26  and  C_33
   10  A    between atoms: C_32  and  O_39
   11  A    between atoms: C_33  and  O_39
                            x       y       z     vdW  Elec       q    Type
                         _______ _______ _______ _____ _____    ______ ____

>  <TORSDO>
F 11

$$$$
=
 OpenBabel11072414593D

 39 45  0  0  1  0  0  0  0  0999 V2000
  160.8160  209.6510  153.5670 C   0  0  1  0  0  0  0  0  0  0  0  0
  161.7910  210.6990  153.0570 C   0  0  0  0  0  2  0  0  0  0  0  0
  159.5930  210.1480  154.3150 C   0  0  0  0  0  2  0  0  0  0  0  0
  159.2750  211.1040  153.1840 C   0  0  2  0  0  3  0  0  0  0  0  0
  160.4440  210.5460  152.3830 C   0  0  2  0  0  3  0  0  0  0  0  0
  160.8280  208.2260  153.0310 C   0  0  0  0  0  2  0  0  0  0  0  0
  161.4620  207.6460  155.2330 O   0  0  0  0  0  0  0  0  0  0  0  0
  161.2020  207.2520  154.1050 C   0  0  0  0  0  0  0  0  0  0  0  0
  161.2060  205.7890  153.8040 C   0  0  0  0  0  2  0  0  0  0  0  0
  161.9720  205.5350  152.6310 O   0  0  0  0  0  0  0  0  0  0  0  0
  160.8320  202.8970  149.5610 C   0  0  0  0  0  0  0  0  0  0  0  0
  161.1830  204.2120  149.2590 C   0  0  0  0  0  3  0  0  0  0  0  0
  160.4580  201.9600  148.4680 C   0  0  0  0  0  1  0  0  0  0  0  0
  161.5220  205.1120  150.2760 C   0  0  0  0  0  0  0  0  0  0  0  0
  161.1940  203.3430  151.9080 C   0  0  0  0  0  3  0  0  0  0  0  0
  160.8320  202.4640  150.8860 C   0  0  0  0  0  3  0  0  0  0  0  0
  161.5520  204.6690  151.6160 C   0  0  0  0  0  0  0  0  0  0  0  0
  161.7580  207.0160  148.6020 C   0  0  0  0  0  0  0  0  0  0  0  0
  161.8930  206.4490  149.9070 N   0  0  0  0  0  2  0  0  0  0  0  0
  161.5600  206.2820  147.5980 O   0  0  0  0  0  0  0  0  0  0  0  0
  161.9610  209.1090  149.6640 O   0  0  0  0  0  1  0  0  0  0  0  0
  161.9500  208.4800  148.4180 C   0  0  0  0  0  2  0  0  0  0  0  0
  159.5470  212.4380  153.5890 O   0  0  0  0  0  0  0  0  0  0  0  0
  158.3940  214.3820  152.6470 N   0  0  0  0  0  2  0  0  0  0  0  0
  158.5420  213.4060  153.6830 C   0  0  0  0  0  0  0  0  0  0  0  0
  157.7790  213.4410  154.6860 O   0  0  0  0  0  0  0  0  0  0  0  0
  159.3060  214.4410  151.5150 C   0  0  0  0  0  2  0  0  0  0  0  0
  161.7800  213.6360  147.7130 C   0  0  1  0  0  0  0  0  0  0  0  0
  158.9150  213.7880  148.1530 C   0  0  0  0  0  0  0  0  0  0  0  0
  159.7060  213.5660  149.1940 C   0  0  0  0  0  0  0  0  0  0  0  0
  161.1970  213.3510  149.0940 C   0  0  1  0  0  3  0  0  0  0  0  0
  157.5620  213.8580  148.6480 C   0  0  0  0  0  0  0  0  0  0  0  0
  159.3480  213.6510  146.7350 C   0  0  0  0  0  2  0  0  0  0  0  0
  161.5270  212.2380  148.1140 C   0  0  2  0  0  3  0  0  0  0  0  0
  158.8900  213.4270  150.4560 C   0  0  2  0  0  3  0  0  0  0  0  0
  157.5580  213.6870  150.0200 O   0  0  0  0  0  0  0  0  0  0  0  0
  160.8230  214.0460  146.5670 C   0  0  0  0  0  2  0  0  0  0  0  0
  162.7080  212.5750  147.3010 N   0  0  0  0  0  2  0  0  0  0  0  0
  156.5320  214.0720  147.9520 O   0  0  0  0  0  0  0  0  0  0  0  0
  1  6  1  6  0  0  0
  1  3  1  0  0  0  0
  2  1  1  0  0  0  0
  4 23  1  1  0  0  0
  4  3  1  0  0  0  0
  5  2  1  1  0  0  0
  5  4  1  0  0  0  0
  5  1  1  0  0  0  0
  6  8  1  0  0  0  0
  8  7  2  0  0  0  0
  9  8  1  0  0  0  0
 10  9  1  0  0  0  0
 11 16  1  0  0  0  0
 12 11  2  0  0  0  0
 12 14  1  0  0  0  0
 13 11  1  0  0  0  0
 14 17  2  0  0  0  0
 16 15  2  0  0  0  0
 17 15  1  0  0  0  0
 17 10  1  0  0  0  0
 18 19  1  0  0  0  0
 19 14  1  0  0  0  0
 20 18  2  0  0  0  0
 22 18  1  0  0  0  0
 22 21  1  0  0  0  0
 23 25  1  0  0  0  0
 24 25  1  0  0  0  0
 25 26  2  0  0  0  0
 27 24  1  0  0  0  0
 28 37  1  6  0  0  0
 28 34  1  0  0  0  0
 28 31  1  0  0  0  0
 29 32  1  0  0  0  0
 29 30  2  0  0  0  0
 30 35  1  0  0  0  0
 31 30  1  6  0  0  0
 32 36  1  0  0  0  0
 33 29  1  0  0  0  0
 34 38  1  1  0  0  0
 34 31  1  0  0  0  0
 35 27  1  1  0  0  0
 36 35  1  0  0  0  0
 37 33  1  0  0  0  0
 38 28  1  0  0  0  0
 39 32  2  0  0  0  0
M  END
>  <MODEL>
7

>  <REMARK>
 VINA RESULT:      -7.3      2.946      9.112
  Name = 
  11 active torsions:
  status: ('A' for Active; 'I' for Inactive)
    1  A    between atoms: C_1  and  C_5
    2  A    between atoms: C_5  and  C_26
    3  A    between atoms: C_6  and  C_37
    4  A    between atoms: C_14  and  N_22
    5  A    between atoms: O_17  and  C_19
    6  A    between atoms: O_17  and  C_34
    7  A    between atoms: N_18  and  C_24
    8  A    between atoms: C_21  and  C_24
    9  A    between atoms: C_26  and  C_33
   10  A    between atoms: C_32  and  O_39
   11  A    between atoms: C_33  and  O_39
                            x       y       z     vdW  Elec       q    Type
                         _______ _______ _______ _____ _____    ______ ____

>  <TORSDO>
F 11

$$$$
=
 OpenBabel11072414593D

 39 45  0  0  1  0  0  0  0  0999 V2000
  161.5010  208.3200  152.9010 C   0  0  1  0  0  0  0  0  0  0  0  0
  161.8590  208.8470  151.5220 C   0  0  0  0  0  2  0  0  0  0  0  0
  161.2440  209.3460  153.9900 C   0  0  0  0  0  2  0  0  0  0  0  0
  160.2620  210.0690  153.0910 C   0  0  2  0  0  3  0  0  0  0  0  0
  160.4400  208.9930  152.0280 C   0  0  2  0  0  3  0  0  0  0  0  0
  161.0300  206.8860  153.1080 C   0  0  0  0  0  2  0  0  0  0  0  0
  162.8750  206.3180  151.7450 O   0  0  0  0  0  0  0  0  0  0  0  0
  161.8760  205.9260  152.3300 C   0  0  0  0  0  0  0  0  0  0  0  0
  161.5210  204.4750  152.3170 C   0  0  0  0  0  2  0  0  0  0  0  0
  160.5470  204.2210  151.3090 O   0  0  0  0  0  0  0  0  0  0  0  0
  161.2090  201.3640  148.2950 C   0  0  0  0  0  0  0  0  0  0  0  0
  161.3680  202.7220  148.0200 C   0  0  0  0  0  3  0  0  0  0  0  0
  161.4730  200.3560  147.2340 C   0  0  0  0  0  1  0  0  0  0  0  0
  161.1080  203.6840  149.0010 C   0  0  0  0  0  0  0  0  0  0  0  0
  160.5670  201.9030  150.5610 C   0  0  0  0  0  3  0  0  0  0  0  0
  160.8020  200.9550  149.5650 C   0  0  0  0  0  3  0  0  0  0  0  0
  160.7260  203.2730  150.2960 C   0  0  0  0  0  0  0  0  0  0  0  0
  161.8800  205.5540  147.4540 C   0  0  0  0  0  0  0  0  0  0  0  0
  161.3060  205.0670  148.6680 N   0  0  0  0  0  2  0  0  0  0  0  0
  162.5220  204.7830  146.6900 O   0  0  0  0  0  0  0  0  0  0  0  0
  161.2400  207.6880  148.2170 O   0  0  0  0  0  1  0  0  0  0  0  0
  161.7990  207.0050  147.1360 C   0  0  0  0  0  2  0  0  0  0  0  0
  160.8250  211.2960  152.6510 O   0  0  0  0  0  0  0  0  0  0  0  0
  159.9380  212.9610  151.0890 N   0  0  0  0  0  2  0  0  0  0  0  0
  160.0440  212.4310  152.4140 C   0  0  0  0  0  0  0  0  0  0  0  0
  159.4480  213.0070  153.3650 O   0  0  0  0  0  0  0  0  0  0  0  0
  160.6790  212.3880  149.9750 C   0  0  0  0  0  2  0  0  0  0  0  0
  157.7540  212.8840  146.4500 C   0  0  1  0  0  0  0  0  0  0  0  0
  160.6480  213.0540  146.5930 C   0  0  0  0  0  0  0  0  0  0  0  0
  159.9490  213.1960  147.7100 C   0  0  0  0  0  0  0  0  0  0  0  0
  158.4400  213.2430  147.7660 C   0  0  1  0  0  3  0  0  0  0  0  0
  162.0440  213.1370  146.9460 C   0  0  0  0  0  0  0  0  0  0  0  0
  160.0590  213.1300  145.2280 C   0  0  0  0  0  2  0  0  0  0  0  0
  157.8900  214.3050  146.8280 C   0  0  2  0  0  3  0  0  0  0  0  0
  160.8690  213.4330  148.8820 C   0  0  2  0  0  3  0  0  0  0  0  0
  162.1700  213.3190  148.3110 O   0  0  0  0  0  0  0  0  0  0  0  0
  158.6270  212.5730  145.2110 C   0  0  0  0  0  2  0  0  0  0  0  0
  156.6760  213.8330  146.1400 N   0  0  0  0  0  2  0  0  0  0  0  0
  163.0140  213.0330  146.1460 O   0  0  0  0  0  0  0  0  0  0  0  0
  1  6  1  1  0  0  0
  1  3  1  0  0  0  0
  2  1  1  0  0  0  0
  4 23  1  6  0  0  0
  4  3  1  0  0  0  0
  5  2  1  6  0  0  0
  5  1  1  0  0  0  0
  5  4  1  0  0  0  0
  7  8  2  0  0  0  0
  8  6  1  0  0  0  0
  9  8  1  0  0  0  0
 10  9  1  0  0  0  0
 11 16  1  0  0  0  0
 12 11  2  0  0  0  0
 12 14  1  0  0  0  0
 13 11  1  0  0  0  0
 14 17  2  0  0  0  0
 16 15  2  0  0  0  0
 17 15  1  0  0  0  0
 17 10  1  0  0  0  0
 18 19  1  0  0  0  0
 19 14  1  0  0  0  0
 20 18  2  0  0  0  0
 22 18  1  0  0  0  0
 22 21  1  0  0  0  0
 24 25  1  0  0  0  0
 25 23  1  0  0  0  0
 25 26  2  0  0  0  0
 27 24  1  0  0  0  0
 28 37  1  6  0  0  0
 28 34  1  0  0  0  0
 28 31  1  0  0  0  0
 29 32  1  0  0  0  0
 29 30  2  0  0  0  0
 30 35  1  0  0  0  0
 31 30  1  6  0  0  0
 32 36  1  0  0  0  0
 33 29  1  0  0  0  0
 34 38  1  1  0  0  0
 34 31  1  0  0  0  0
 35 27  1  1  0  0  0
 36 35  1  0  0  0  0
 37 33  1  0  0  0  0
 38 28  1  0  0  0  0
 39 32  2  0  0  0  0
M  END
>  <MODEL>
8

>  <REMARK>
 VINA RESULT:      -7.3      3.377      9.460
  Name = 
  11 active torsions:
  status: ('A' for Active; 'I' for Inactive)
    1  A    between atoms: C_1  and  C_5
    2  A    between atoms: C_5  and  C_26
    3  A    between atoms: C_6  and  C_37
    4  A    between atoms: C_14  and  N_22
    5  A    between atoms: O_17  and  C_19
    6  A    between atoms: O_17  and  C_34
    7  A    between atoms: N_18  and  C_24
    8  A    between atoms: C_21  and  C_24
    9  A    between atoms: C_26  and  C_33
   10  A    between atoms: C_32  and  O_39
   11  A    between atoms: C_33  and  O_39
                            x       y       z     vdW  Elec       q    Type
                         _______ _______ _______ _____ _____    ______ ____

>  <TORSDO>
F 11

$$$$
=
 OpenBabel11072414593D

 39 45  0  0  1  0  0  0  0  0999 V2000
  161.5720  207.8330  151.6550 C   0  0  1  0  0  0  0  0  0  0  0  0
  161.6650  209.3500  151.6830 C   0  0  0  0  0  2  0  0  0  0  0  0
  161.8210  207.0990  152.9580 C   0  0  0  0  0  2  0  0  0  0  0  0
  160.8130  207.9840  153.6620 C   0  0  2  0  0  3  0  0  0  0  0  0
  160.4860  208.6640  152.3400 C   0  0  2  0  0  3  0  0  0  0  0  0
  160.8830  207.1000  150.5110 C   0  0  0  0  0  2  0  0  0  0  0  0
  162.6840  207.9080  149.2110 O   0  0  0  0  0  0  0  0  0  0  0  0
  161.6460  207.2650  149.2320 C   0  0  0  0  0  0  0  0  0  0  0  0
  161.1550  206.5940  147.9910 C   0  0  0  0  0  2  0  0  0  0  0  0
  162.0080  205.5040  147.6560 O   0  0  0  0  0  0  0  0  0  0  0  0
  160.5580  202.1340  145.6000 C   0  0  0  0  0  0  0  0  0  0  0  0
  160.8890  202.0400  146.9510 C   0  0  0  0  0  3  0  0  0  0  0  0
  160.0170  200.9470  144.8850 C   0  0  0  0  0  1  0  0  0  0  0  0
  161.4140  203.1420  147.6350 C   0  0  0  0  0  0  0  0  0  0  0  0
  161.2310  204.4540  145.6000 C   0  0  0  0  0  3  0  0  0  0  0  0
  160.7340  203.3400  144.9220 C   0  0  0  0  0  3  0  0  0  0  0  0
  161.5660  204.3730  146.9610 C   0  0  0  0  0  0  0  0  0  0  0  0
  160.8140  203.2340  150.1080 C   0  0  0  0  0  0  0  0  0  0  0  0
  161.7210  202.9950  149.0300 N   0  0  0  0  0  2  0  0  0  0  0  0
  159.7430  203.8720  149.9190 O   0  0  0  0  0  0  0  0  0  0  0  0
  160.8280  203.8060  152.3930 O   0  0  0  0  0  1  0  0  0  0  0  0
  161.1850  202.8080  151.4840 C   0  0  0  0  0  2  0  0  0  0  0  0
  161.4860  208.8860  154.5290 O   0  0  0  0  0  0  0  0  0  0  0  0
  160.7160  209.9320  156.6040 N   0  0  0  0  0  2  0  0  0  0  0  0
  161.3320  208.8380  155.9170 C   0  0  0  0  0  0  0  0  0  0  0  0
  161.7530  207.8480  156.5740 O   0  0  0  0  0  0  0  0  0  0  0  0
  160.2970  211.1370  155.9040 C   0  0  0  0  0  2  0  0  0  0  0  0
  158.9690  213.7700  152.3640 C   0  0  1  0  0  0  0  0  0  0  0  0
  157.4540  212.4420  154.4540 C   0  0  0  0  0  0  0  0  0  0  0  0
  158.6810  212.0140  154.1900 C   0  0  0  0  0  0  0  0  0  0  0  0
  159.5360  212.5350  153.0600 C   0  0  1  0  0  3  0  0  0  0  0  0
  156.9480  211.6500  155.5480 C   0  0  0  0  0  0  0  0  0  0  0  0
  156.6750  213.3380  153.5560 C   0  0  0  0  0  2  0  0  0  0  0  0
  158.8010  212.4460  151.7320 C   0  0  2  0  0  3  0  0  0  0  0  0
  159.0400  210.8550  155.0880 C   0  0  2  0  0  3  0  0  0  0  0  0
  157.9090  210.7400  155.9490 O   0  0  0  0  0  0  0  0  0  0  0  0
  157.5980  214.3220  152.8200 C   0  0  0  0  0  2  0  0  0  0  0  0
  159.0510  213.6380  150.9030 N   0  0  0  0  0  2  0  0  0  0  0  0
  155.8150  211.7760  156.0870 O   0  0  0  0  0  0  0  0  0  0  0  0
  1  6  1  6  0  0  0
  1  2  1  0  0  0  0
  1  5  1  0  0  0  0
  1  3  1  0  0  0  0
  3  4  1  0  0  0  0
  4 23  1  1  0  0  0
  5  2  1  1  0  0  0
  5  4  1  0  0  0  0
  7  8  2  0  0  0  0
  8  6  1  0  0  0  0
  9  8  1  0  0  0  0
 10  9  1  0  0  0  0
 11 12  1  0  0  0  0
 12 14  2  0  0  0  0
 13 11  1  0  0  0  0
 14 19  1  0  0  0  0
 15 17  2  0  0  0  0
 16 15  1  0  0  0  0
 16 11  2  0  0  0  0
 17 14  1  0  0  0  0
 17 10  1  0  0  0  0
 18 22  1  0  0  0  0
 19 18  1  0  0  0  0
 20 18  2  0  0  0  0
 22 21  1  0  0  0  0
 23 25  1  0  0  0  0
 25 26  2  0  0  0  0
 25 24  1  0  0  0  0
 27 24  1  0  0  0  0
 28 37  1  1  0  0  0
 28 31  1  0  0  0  0
 29 32  1  0  0  0  0
 30 29  2  0  0  0  0
 30 35  1  0  0  0  0
 31 30  1  1  0  0  0
 32 36  1  0  0  0  0
 32 39  2  0  0  0  0
 33 29  1  0  0  0  0
 34 38  1  6  0  0  0
 34 28  1  0  0  0  0
 34 31  1  0  0  0  0
 35 27  1  1  0  0  0
 35 36  1  0  0  0  0
 37 33  1  0  0  0  0
 38 28  1  0  0  0  0
M  END
>  <MODEL>
9

>  <REMARK>
 VINA RESULT:      -7.2      1.940     10.106
  Name = 
  11 active torsions:
  status: ('A' for Active; 'I' for Inactive)
    1  A    between atoms: C_1  and  C_5
    2  A    between atoms: C_5  and  C_26
    3  A    between atoms: C_6  and  C_37
    4  A    between atoms: C_14  and  N_22
    5  A    between atoms: O_17  and  C_19
    6  A    between atoms: O_17  and  C_34
    7  A    between atoms: N_18  and  C_24
    8  A    between atoms: C_21  and  C_24
    9  A    between atoms: C_26  and  C_33
   10  A    between atoms: C_32  and  O_39
   11  A    between atoms: C_33  and  O_39
                            x       y       z     vdW  Elec       q    Type
                         _______ _______ _______ _____ _____    ______ ____

>  <TORSDO>
F 11

$$$$
