=
 OpenBabel11072412313D

 56 63  0  0  1  0  0  0  0  0999 V2000
  161.3050  213.1160  146.8960 C   0  0  1  0  0  0  0  0  0  0  0  0
  159.9470  212.5310  146.6720 N   0  0  2  0  0  0  0  0  0  0  0  0
  162.3820  212.2010  147.0700 O   0  0  0  0  0  0  0  0  0  0  0  0
  160.8980  212.6110  145.5620 C   0  0  1  0  0  3  0  0  0  0  0  0
  161.7370  212.5220  148.2370 C   0  0  2  0  0  3  0  0  0  0  0  0
  162.6520  212.0560  141.1810 O   0  0  0  0  0  1  0  0  0  0  0  0
  159.7940  213.1930  143.3600 C   0  0  0  0  0  2  0  0  0  0  0  0
  161.8660  214.4530  144.0120 C   0  0  0  0  0  2  0  0  0  0  0  0
  162.7490  213.4950  143.2130 C   0  0  0  0  0  2  0  0  0  0  0  0
  160.6420  212.5200  142.3080 C   0  0  0  0  0  3  0  0  0  0  0  0
  160.6160  213.7300  144.5320 C   0  0  2  0  0  3  0  0  0  0  0  0
  161.9670  212.6980  142.2040 C   0  0  0  0  0  0  0  0  0  0  0  0
  157.0340  214.4530  148.1140 O   0  0  0  0  0  0  0  0  0  0  0  0
  158.2590  214.3890  148.7470 C   0  0  2  0  0  3  0  0  0  0  0  0
  157.0800  214.4530  145.5730 O   0  0  0  0  0  1  0  0  0  0  0  0
  157.5380  212.1190  145.5860 O   0  0  0  0  0  1  0  0  0  0  0  0
  157.8560  213.3500  147.7340 C   0  0  2  0  0  0  0  0  0  0  0  0
  159.0270  213.6700  146.7580 C   0  0  2  0  0  3  0  0  0  0  0  0
  157.6990  213.3650  146.1990 C   0  0  0  0  0  0  0  0  0  0  0  0
  159.1730  213.7590  151.0070 N   0  0  0  0  0  2  0  0  0  0  0  0
  158.0350  213.9570  150.1660 C   0  0  0  0  0  0  0  0  0  0  0  0
  156.8690  213.7770  150.6110 O   0  0  0  0  0  0  0  0  0  0  0  0
  159.1740  213.9930  152.4510 C   0  0  0  0  0  2  0  0  0  0  0  0
  157.4760  213.0310  154.0180 N   0  0  0  0  0  2  0  0  0  0  0  0
  159.5590  211.6350  155.3150 C   0  0  0  0  0  3  0  0  0  0  0  0
  158.1590  211.5970  155.8670 C   0  0  0  0  0  2  0  0  0  0  0  0
  157.1320  211.8110  154.7530 C   0  0  0  0  0  2  0  0  0  0  0  0
  159.8310  212.2320  154.1450 C   0  0  0  0  0  3  0  0  0  0  0  0
  158.7240  212.7860  153.2780 C   0  0  2  0  0  3  0  0  0  0  0  0
  161.0540  211.2580  148.7670 C   0  0  0  0  0  2  0  0  0  0  0  0
  161.6280  210.0240  148.0760 C   0  0  0  0  0  2  0  0  0  0  0  0
  162.3510  209.1280  149.0720 C   0  0  0  0  0  2  0  0  0  0  0  0
  162.1460  207.6540  148.7350 C   0  0  1  0  0  3  0  0  0  0  0  0
  162.2730  205.4380  149.6890 F   0  0  0  0  0  0  0  0  0  0  0  0
  162.7620  206.7310  149.8020 C   0  0  2  0  0  3  0  0  0  0  0  0
  162.5780  208.4860  151.4310 O   0  0  0  0  0  0  0  0  0  0  0  0
  162.5980  207.2430  151.2020 C   0  0  0  0  0  0  0  0  0  0  0  0
  162.4730  206.3210  152.2360 O   0  0  0  0  0  0  0  0  0  0  0  0
  161.2740  206.1450  152.9740 C   0  0  2  0  0  3  0  0  0  0  0  0
  160.2970  208.6210  153.2690 O   0  0  0  0  0  1  0  0  0  0  0  0
  160.1410  207.0610  155.0070 N   0  0  0  0  0  0  0  0  0  0  0  0
  160.3940  207.0390  156.4350 C   0  0  0  0  0  1  0  0  0  0  0  0
  161.4400  206.8040  154.3530 C   0  0  2  0  0  3  0  0  0  0  0  0
  160.9120  208.1830  154.4460 C   0  0  1  0  0  3  0  0  0  0  0  0
  160.9700  204.6500  153.0760 C   0  0  0  0  0  2  0  0  0  0  0  0
  160.6500  201.8190  149.8640 C   0  0  0  0  0  2  0  0  0  0  0  0
  159.9970  203.9120  150.9380 N   0  0  0  0  0  2  0  0  0  0  0  0
  161.5550  201.6050  151.0530 C   0  0  0  0  0  3  0  0  0  0  0  0
  161.2190  203.9580  151.7430 C   0  0  2  0  0  3  0  0  0  0  0  0
  161.7830  202.5760  151.9560 C   0  0  0  0  0  3  0  0  0  0  0  0
  160.3540  203.3100  149.6560 C   0  0  0  0  0  2  0  0  0  0  0  0
  160.7800  207.3970  148.5750 O   0  0  0  0  0  0  0  0  0  0  0  0
  160.7150  206.1260  147.9910 C   0  0  0  0  0  2  0  0  0  0  0  0
  161.1500  206.1950  146.5700 C   0  0  0  0  0  0  0  0  0  0  0  0
  162.3090  205.8330  146.2460 O   0  0  0  0  0  1  0  0  0  0  0  0
  160.2930  206.7220  145.6130 O   0  0  0  0  0  0  0  0  0  0  0  0
  1  3  1  6  0  0  0
  1  5  1  0  0  0  0
  2 18  1  6  0  0  0
  2  1  1  0  0  0  0
  3  5  1  0  0  0  0
  4 11  1  6  0  0  0
  4  2  1  0  0  0  0
  4  1  1  0  0  0  0
  5 30  1  6  0  0  0
  6 12  1  0  0  0  0
  8 11  1  0  0  0  0
  9  8  1  0  0  0  0
 10  7  1  0  0  0  0
 11  7  1  6  0  0  0
 12 10  2  0  0  0  0
 12  9  1  0  0  0  0
 13 14  1  0  0  0  0
 14 21  1  1  0  0  0
 15 19  1  0  0  0  0
 16 19  1  0  0  0  0
 17 13  1  6  0  0  0
 17 14  1  0  0  0  0
 18 19  1  6  0  0  0
 18 17  1  0  0  0  0
 19 17  1  0  0  0  0
 20 23  1  0  0  0  0
 21 22  2  0  0  0  0
 21 20  1  0  0  0  0
 24 27  1  0  0  0  0
 25 26  1  0  0  0  0
 27 26  1  0  0  0  0
 28 25  2  0  0  0  0
 29 23  1  1  0  0  0
 29 24  1  0  0  0  0
 29 28  1  0  0  0  0
 31 30  1  0  0  0  0
 31 32  1  0  0  0  0
 33 32  1  1  0  0  0
 33 35  1  0  0  0  0
 35 34  1  1  0  0  0
 35 37  1  0  0  0  0
 37 36  2  0  0  0  0
 37 38  1  0  0  0  0
 38 39  1  0  0  0  0
 39 45  1  1  0  0  0
 41 42  1  0  0  0  0
 43 39  1  6  0  0  0
 43 44  1  0  0  0  0
 43 41  1  0  0  0  0
 44 40  1  6  0  0  0
 44 41  1  0  0  0  0
 46 48  1  0  0  0  0
 47 49  1  0  0  0  0
 48 50  2  0  0  0  0
 49 50  1  0  0  0  0
 49 45  1  1  0  0  0
 51 46  1  0  0  0  0
 51 47  1  0  0  0  0
 52 33  1  0  0  0  0
 53 52  1  0  0  0  0
 54 53  1  0  0  0  0
 55 54  1  0  0  0  0
 56 54  2  0  0  0  0
M  END
>  <MODEL>
1

>  <REMARK>
 VINA RESULT:      -4.9      0.000      0.000
  Name = 
  19 active torsions:
  status: ('A' for Active; 'I' for Inactive)
    1  A    between atoms: O_1  and  C_31
    2  A    between atoms: O_1  and  C_35
    3  A    between atoms: C_8  and  N_25
    4  A    between atoms: C_8  and  C_44
    5  A    between atoms: C_11  and  C_35
    6  A    between atoms: C_11  and  C_49
    7  A    between atoms: O_14  and  C_21
    8  A    between atoms: O_14  and  C_27
    9  A    between atoms: C_15  and  C_27
   10  A    between atoms: C_15  and  C_35
   11  A    between atoms: C_17  and  C_38
   12  A    between atoms: N_20  and  C_50
   13  A    between atoms: C_21  and  CA_30
   14  A    between atoms: C_21  and  C_53
   15  A    between atoms: C_22  and  C_31
   16  A    between atoms: C_33  and  C_49
   17  A    between atoms: C_33  and  C_55
   18  A    between atoms: C_39  and  C_53
   19  A    between atoms: C_47  and  C_51
                            x       y       z     vdW  Elec       q    Type
                         _______ _______ _______ _____ _____    ______ ____

>  <TORSDO>
F 19

$$$$
=
 OpenBabel11072412313D

 56 63  0  0  1  0  0  0  0  0999 V2000
  160.6230  206.3810  149.7890 C   0  0  1  0  0  0  0  0  0  0  0  0
  161.6940  206.3740  150.8320 N   0  0  2  0  0  0  0  0  0  0  0  0
  161.0440  206.4680  148.4310 O   0  0  0  0  0  0  0  0  0  0  0  0
  161.3820  205.1460  150.1000 C   0  0  1  0  0  3  0  0  0  0  0  0
  160.8660  207.6870  149.0330 C   0  0  2  0  0  3  0  0  0  0  0  0
  161.6270  200.6270  148.6480 O   0  0  0  0  0  1  0  0  0  0  0  0
  161.4900  203.0580  151.5270 C   0  0  0  0  0  2  0  0  0  0  0  0
  159.4660  203.3960  150.0790 C   0  0  0  0  0  2  0  0  0  0  0  0
  160.0760  202.5530  148.9590 C   0  0  0  0  0  2  0  0  0  0  0  0
  161.8770  201.9530  150.5740 C   0  0  0  0  0  3  0  0  0  0  0  0
  160.5660  204.0960  150.8900 C   0  0  2  0  0  3  0  0  0  0  0  0
  161.2080  201.6860  149.4420 C   0  0  0  0  0  0  0  0  0  0  0  0
  160.8960  208.0400  154.1250 O   0  0  0  0  0  0  0  0  0  0  0  0
  160.4440  208.5380  152.9200 C   0  0  2  0  0  3  0  0  0  0  0  0
  161.0840  205.5120  154.2970 O   0  0  0  0  0  1  0  0  0  0  0  0
  163.0660  205.5750  152.9850 O   0  0  0  0  0  1  0  0  0  0  0  0
  161.6360  207.6210  152.9800 C   0  0  2  0  0  0  0  0  0  0  0  0
  160.9810  206.5110  152.1070 C   0  0  2  0  0  3  0  0  0  0  0  0
  161.8060  206.1130  153.2600 C   0  0  0  0  0  0  0  0  0  0  0  0
  159.8520  210.9110  152.3190 N   0  0  0  0  0  2  0  0  0  0  0  0
  160.8120  209.9900  152.8410 C   0  0  0  0  0  0  0  0  0  0  0  0
  161.9410  210.3930  153.2310 O   0  0  0  0  0  0  0  0  0  0  0  0
  159.7380  212.3040  152.7480 C   0  0  0  0  0  2  0  0  0  0  0  0
  160.0370  212.5220  155.2240 N   0  0  0  0  0  2  0  0  0  0  0  0
  157.6410  211.0700  155.5760 C   0  0  0  0  0  3  0  0  0  0  0  0
  158.4820  211.4520  156.7660 C   0  0  0  0  0  2  0  0  0  0  0  0
  159.2930  212.7150  156.4720 C   0  0  0  0  0  2  0  0  0  0  0  0
  157.9440  211.5010  154.3420 C   0  0  0  0  0  3  0  0  0  0  0  0
  159.0700  212.4830  154.1140 C   0  0  2  0  0  3  0  0  0  0  0  0
  162.2300  208.3780  149.1210 C   0  0  0  0  0  2  0  0  0  0  0  0
  162.2740  209.5740  148.1740 C   0  0  0  0  0  2  0  0  0  0  0  0
  161.3780  210.6990  148.6740 C   0  0  0  0  0  2  0  0  0  0  0  0
  162.1450  212.0150  148.7650 C   0  0  1  0  0  3  0  0  0  0  0  0
  164.3730  212.5530  148.0010 F   0  0  0  0  0  0  0  0  0  0  0  0
  163.1000  212.2050  147.5730 C   0  0  2  0  0  3  0  0  0  0  0  0
  162.7540  214.4240  146.7210 O   0  0  0  0  0  0  0  0  0  0  0  0
  162.5950  213.1810  146.5520 C   0  0  0  0  0  0  0  0  0  0  0  0
  161.9480  212.6880  145.4240 O   0  0  0  0  0  0  0  0  0  0  0  0
  161.7380  213.4610  144.2530 C   0  0  2  0  0  3  0  0  0  0  0  0
  159.5990  214.4530  145.5230 O   0  0  0  0  0  1  0  0  0  0  0  0
  159.6430  214.3150  143.1870 N   0  0  0  0  0  0  0  0  0  0  0  0
  158.7530  213.8600  142.1370 C   0  0  0  0  0  1  0  0  0  0  0  0
  160.3570  213.1180  143.6720 C   0  0  2  0  0  3  0  0  0  0  0  0
  159.2130  213.6640  144.4350 C   0  0  1  0  0  3  0  0  0  0  0  0
  162.8710  213.1800  143.2660 C   0  0  0  0  0  2  0  0  0  0  0  0
  162.7410  212.5350  139.0230 C   0  0  0  0  0  2  0  0  0  0  0  0
  162.4510  211.7400  141.3130 N   0  0  0  0  0  2  0  0  0  0  0  0
  163.1800  213.8430  139.6360 C   0  0  0  0  0  3  0  0  0  0  0  0
  162.3380  213.1020  141.8420 C   0  0  2  0  0  3  0  0  0  0  0  0
  163.0440  214.0930  140.9510 C   0  0  0  0  0  3  0  0  0  0  0  0
  161.8420  211.7480  139.9850 C   0  0  0  0  0  2  0  0  0  0  0  0
  161.2400  213.0770  148.8590 O   0  0  0  0  0  0  0  0  0  0  0  0
  160.0150  212.5520  148.4280 C   0  0  0  0  0  2  0  0  0  0  0  0
  158.8980  213.4230  148.8830 C   0  0  0  0  0  0  0  0  0  0  0  0
  158.9910  214.0580  149.9640 O   0  0  0  0  0  1  0  0  0  0  0  0
  157.7260  213.4820  148.1410 O   0  0  0  0  0  0  0  0  0  0  0  0
  1  3  1  6  0  0  0
  1  4  1  0  0  0  0
  1  2  1  0  0  0  0
  2 18  1  1  0  0  0
  3  5  1  0  0  0  0
  4  2  1  0  0  0  0
  4 11  1  1  0  0  0
  5 30  1  1  0  0  0
  5  1  1  0  0  0  0
  6 12  1  0  0  0  0
  9 12  1  0  0  0  0
  9  8  1  0  0  0  0
 10  7  1  0  0  0  0
 11  8  1  6  0  0  0
 11  7  1  0  0  0  0
 12 10  2  0  0  0  0
 14 21  1  1  0  0  0
 14 17  1  0  0  0  0
 14 13  1  0  0  0  0
 16 19  1  0  0  0  0
 17 19  1  0  0  0  0
 17 13  1  1  0  0  0
 18 17  1  0  0  0  0
 18 19  1  1  0  0  0
 19 15  1  0  0  0  0
 20 23  1  0  0  0  0
 20 21  1  0  0  0  0
 21 22  2  0  0  0  0
 24 27  1  0  0  0  0
 25 26  1  0  0  0  0
 27 26  1  0  0  0  0
 28 25  2  0  0  0  0
 29 23  1  6  0  0  0
 29 28  1  0  0  0  0
 29 24  1  0  0  0  0
 31 32  1  0  0  0  0
 31 30  1  0  0  0  0
 33 32  1  6  0  0  0
 33 52  1  0  0  0  0
 35 34  1  1  0  0  0
 35 33  1  0  0  0  0
 37 36  2  0  0  0  0
 37 35  1  0  0  0  0
 38 37  1  0  0  0  0
 39 45  1  6  0  0  0
 39 38  1  0  0  0  0
 41 43  1  0  0  0  0
 41 44  1  0  0  0  0
 42 41  1  0  0  0  0
 43 39  1  1  0  0  0
 43 44  1  0  0  0  0
 44 40  1  1  0  0  0
 46 48  1  0  0  0  0
 46 51  1  0  0  0  0
 47 49  1  0  0  0  0
 48 50  2  0  0  0  0
 49 45  1  1  0  0  0
 50 49  1  0  0  0  0
 51 47  1  0  0  0  0
 53 52  1  0  0  0  0
 53 54  1  0  0  0  0
 54 55  1  0  0  0  0
 56 54  2  0  0  0  0
M  END
>  <MODEL>
2

>  <REMARK>
 VINA RESULT:      -4.7      2.292      9.726
  Name = 
  19 active torsions:
  status: ('A' for Active; 'I' for Inactive)
    1  A    between atoms: O_1  and  C_31
    2  A    between atoms: O_1  and  C_35
    3  A    between atoms: C_8  and  N_25
    4  A    between atoms: C_8  and  C_44
    5  A    between atoms: C_11  and  C_35
    6  A    between atoms: C_11  and  C_49
    7  A    between atoms: O_14  and  C_21
    8  A    between atoms: O_14  and  C_27
    9  A    between atoms: C_15  and  C_27
   10  A    between atoms: C_15  and  C_35
   11  A    between atoms: C_17  and  C_38
   12  A    between atoms: N_20  and  C_50
   13  A    between atoms: C_21  and  CA_30
   14  A    between atoms: C_21  and  C_53
   15  A    between atoms: C_22  and  C_31
   16  A    between atoms: C_33  and  C_49
   17  A    between atoms: C_33  and  C_55
   18  A    between atoms: C_39  and  C_53
   19  A    between atoms: C_47  and  C_51
                            x       y       z     vdW  Elec       q    Type
                         _______ _______ _______ _____ _____    ______ ____

>  <TORSDO>
F 19

$$$$
=
 OpenBabel11072412313D

 56 63  0  0  1  0  0  0  0  0999 V2000
  160.7130  204.5160  148.6200 C   0  0  1  0  0  0  0  0  0  0  0  0
  161.6700  204.2990  149.7490 N   0  0  2  0  0  0  0  0  0  0  0  0
  161.2480  205.0470  147.4120 O   0  0  0  0  0  0  0  0  0  0  0  0
  161.5940  203.3240  148.6600 C   0  0  1  0  0  3  0  0  0  0  0  0
  160.8540  206.0060  148.3100 C   0  0  2  0  0  3  0  0  0  0  0  0
  160.5450  200.3960  145.0660 O   0  0  0  0  0  1  0  0  0  0  0  0
  161.7000  200.7950  148.6330 C   0  0  0  0  0  2  0  0  0  0  0  0
  159.4520  201.8860  148.3780 C   0  0  0  0  0  2  0  0  0  0  0  0
  159.5450  201.8160  146.8540 C   0  0  0  0  0  2  0  0  0  0  0  0
  161.5810  200.4150  147.1770 C   0  0  0  0  0  3  0  0  0  0  0  0
  160.8490  202.0110  149.0010 C   0  0  2  0  0  3  0  0  0  0  0  0
  160.5800  200.8280  146.3850 C   0  0  0  0  0  0  0  0  0  0  0  0
  160.7550  204.3300  153.4110 O   0  0  0  0  0  0  0  0  0  0  0  0
  160.5810  205.4330  152.6010 C   0  0  2  0  0  3  0  0  0  0  0  0
  160.4250  202.0630  152.3130 O   0  0  0  0  0  1  0  0  0  0  0  0
  162.5460  202.2720  151.2570 O   0  0  0  0  0  1  0  0  0  0  0  0
  161.5540  204.3450  152.2300 C   0  0  2  0  0  0  0  0  0  0  0  0
  160.8250  203.9770  150.9040 C   0  0  2  0  0  3  0  0  0  0  0  0
  161.3880  202.8950  151.7290 C   0  0  0  0  0  0  0  0  0  0  0  0
  160.6330  207.1470  154.4450 N   0  0  0  0  0  2  0  0  0  0  0  0
  161.2300  206.6130  153.2620 C   0  0  0  0  0  0  0  0  0  0  0  0
  162.2830  207.1210  152.7890 O   0  0  0  0  0  0  0  0  0  0  0  0
  161.3870  207.7750  155.5300 C   0  0  0  0  0  2  0  0  0  0  0  0
  159.6850  209.6050  155.3930 N   0  0  0  0  0  2  0  0  0  0  0  0
  161.2110  211.0750  157.2600 C   0  0  0  0  0  3  0  0  0  0  0  0
  160.0010  211.6930  156.6110 C   0  0  0  0  0  2  0  0  0  0  0  0
  158.9960  210.6140  156.2020 C   0  0  0  0  0  2  0  0  0  0  0  0
  161.5290  209.7870  157.0570 C   0  0  0  0  0  3  0  0  0  0  0  0
  160.6190  208.8760  156.2660 C   0  0  2  0  0  3  0  0  0  0  0  0
  162.1010  206.7670  148.7710 C   0  0  0  0  0  2  0  0  0  0  0  0
  161.7140  207.8410  149.7850 C   0  0  0  0  0  2  0  0  0  0  0  0
  162.1680  209.2180  149.3210 C   0  0  0  0  0  2  0  0  0  0  0  0
  161.3230  210.3190  149.9550 C   0  0  1  0  0  3  0  0  0  0  0  0
  160.3980  208.9600  151.7260 F   0  0  0  0  0  0  0  0  0  0  0  0
  161.1420  210.1030  151.4680 C   0  0  2  0  0  3  0  0  0  0  0  0
  161.0130  211.6530  153.2980 O   0  0  0  0  0  0  0  0  0  0  0  0
  160.5590  211.2890  152.1760 C   0  0  0  0  0  0  0  0  0  0  0  0
  159.5090  211.9730  151.5710 O   0  0  0  0  0  0  0  0  0  0  0  0
  159.0830  213.2610  151.9890 C   0  0  2  0  0  3  0  0  0  0  0  0
  158.9680  214.0060  154.5590 O   0  0  0  0  0  1  0  0  0  0  0  0
  157.1820  214.4390  153.1080 N   0  0  0  0  0  0  0  0  0  0  0  0
  155.7400  214.2920  153.1330 C   0  0  0  0  0  1  0  0  0  0  0  0
  157.7250  213.1300  152.6960 C   0  0  2  0  0  3  0  0  0  0  0  0
  157.7300  213.5230  154.1220 C   0  0  1  0  0  3  0  0  0  0  0  0
  159.0180  214.1800  150.7690 C   0  0  0  0  0  2  0  0  0  0  0  0
  156.9050  213.6540  147.0680 C   0  0  0  0  0  2  0  0  0  0  0  0
  158.9790  213.6910  148.3560 N   0  0  0  0  0  2  0  0  0  0  0  0
  156.2140  214.0300  148.3560 C   0  0  0  0  0  3  0  0  0  0  0  0
  158.2720  213.5070  149.6250 C   0  0  2  0  0  3  0  0  0  0  0  0
  156.8550  214.0140  149.5390 C   0  0  0  0  0  3  0  0  0  0  0  0
  158.2370  212.9440  147.3440 C   0  0  0  0  0  2  0  0  0  0  0  0
  161.9040  211.5640  149.6900 O   0  0  0  0  0  0  0  0  0  0  0  0
  161.9410  211.6590  148.2940 C   0  0  0  0  0  2  0  0  0  0  0  0
  162.4670  212.9900  147.8870 C   0  0  0  0  0  0  0  0  0  0  0  0
  162.3110  213.9870  148.6360 O   0  0  0  0  0  1  0  0  0  0  0  0
  163.0740  213.1390  146.6480 O   0  0  0  0  0  0  0  0  0  0  0  0
  1  3  1  6  0  0  0
  1  4  1  0  0  0  0
  1  2  1  0  0  0  0
  2 18  1  1  0  0  0
  3  5  1  0  0  0  0
  4 11  1  1  0  0  0
  4  2  1  0  0  0  0
  5  1  1  0  0  0  0
  5 30  1  1  0  0  0
  6 12  1  0  0  0  0
  7 11  1  0  0  0  0
  9  8  1  0  0  0  0
 10  7  1  0  0  0  0
 11  8  1  6  0  0  0
 12  9  1  0  0  0  0
 12 10  2  0  0  0  0
 14 21  1  1  0  0  0
 14 13  1  0  0  0  0
 16 19  1  0  0  0  0
 17 14  1  0  0  0  0
 17 13  1  1  0  0  0
 18 19  1  1  0  0  0
 18 17  1  0  0  0  0
 19 17  1  0  0  0  0
 19 15  1  0  0  0  0
 20 23  1  0  0  0  0
 21 20  1  0  0  0  0
 22 21  2  0  0  0  0
 24 27  1  0  0  0  0
 24 29  1  0  0  0  0
 26 25  1  0  0  0  0
 27 26  1  0  0  0  0
 28 25  2  0  0  0  0
 29 23  1  6  0  0  0
 29 28  1  0  0  0  0
 30 31  1  0  0  0  0
 32 31  1  0  0  0  0
 33 32  1  1  0  0  0
 33 35  1  0  0  0  0
 35 34  1  6  0  0  0
 35 37  1  0  0  0  0
 37 36  2  0  0  0  0
 38 39  1  0  0  0  0
 38 37  1  0  0  0  0
 39 45  1  6  0  0  0
 41 42  1  0  0  0  0
 41 44  1  0  0  0  0
 43 39  1  6  0  0  0
 43 41  1  0  0  0  0
 43 44  1  0  0  0  0
 44 40  1  6  0  0  0
 46 51  1  0  0  0  0
 46 48  1  0  0  0  0
 47 49  1  0  0  0  0
 48 50  2  0  0  0  0
 49 45  1  1  0  0  0
 50 49  1  0  0  0  0
 51 47  1  0  0  0  0
 52 33  1  0  0  0  0
 53 52  1  0  0  0  0
 54 53  1  0  0  0  0
 54 55  1  0  0  0  0
 56 54  2  0  0  0  0
M  END
>  <MODEL>
3

>  <REMARK>
 VINA RESULT:      -4.0      2.669      8.960
  Name = 
  19 active torsions:
  status: ('A' for Active; 'I' for Inactive)
    1  A    between atoms: O_1  and  C_31
    2  A    between atoms: O_1  and  C_35
    3  A    between atoms: C_8  and  N_25
    4  A    between atoms: C_8  and  C_44
    5  A    between atoms: C_11  and  C_35
    6  A    between atoms: C_11  and  C_49
    7  A    between atoms: O_14  and  C_21
    8  A    between atoms: O_14  and  C_27
    9  A    between atoms: C_15  and  C_27
   10  A    between atoms: C_15  and  C_35
   11  A    between atoms: C_17  and  C_38
   12  A    between atoms: N_20  and  C_50
   13  A    between atoms: C_21  and  CA_30
   14  A    between atoms: C_21  and  C_53
   15  A    between atoms: C_22  and  C_31
   16  A    between atoms: C_33  and  C_49
   17  A    between atoms: C_33  and  C_55
   18  A    between atoms: C_39  and  C_53
   19  A    between atoms: C_47  and  C_51
                            x       y       z     vdW  Elec       q    Type
                         _______ _______ _______ _____ _____    ______ ____

>  <TORSDO>
F 19

$$$$
=
 OpenBabel11072412313D

 56 63  0  0  1  0  0  0  0  0999 V2000
  161.3470  212.9730  146.9800 C   0  0  1  0  0  0  0  0  0  0  0  0
  159.9730  212.3860  146.9250 N   0  0  2  0  0  0  0  0  0  0  0  0
  162.4390  212.0600  147.0150 O   0  0  0  0  0  0  0  0  0  0  0  0
  160.7780  212.4720  145.7050 C   0  0  1  0  0  3  0  0  0  0  0  0
  161.9430  212.3760  148.2540 C   0  0  2  0  0  3  0  0  0  0  0  0
  161.5210  211.7140  141.0730 O   0  0  0  0  0  1  0  0  0  0  0  0
  159.2800  213.1060  143.7660 C   0  0  0  0  0  2  0  0  0  0  0  0
  161.5300  214.2080  143.9300 C   0  0  0  0  0  2  0  0  0  0  0  0
  162.1510  213.1720  142.9930 C   0  0  0  0  0  2  0  0  0  0  0  0
  159.8340  212.3520  142.5820 C   0  0  0  0  0  3  0  0  0  0  0  0
  160.3680  213.5940  144.7220 C   0  0  2  0  0  3  0  0  0  0  0  0
  161.1160  212.4230  142.1960 C   0  0  0  0  0  0  0  0  0  0  0  0
  157.4530  214.4260  148.8580 O   0  0  0  0  0  0  0  0  0  0  0  0
  158.7980  214.4340  149.1670 C   0  0  2  0  0  3  0  0  0  0  0  0
  156.8640  214.1700  146.4000 O   0  0  0  0  0  1  0  0  0  0  0  0
  157.3830  211.8520  146.5230 O   0  0  0  0  0  1  0  0  0  0  0  0
  158.1870  213.2960  148.3930 C   0  0  2  0  0  0  0  0  0  0  0  0
  159.0680  213.5220  147.1290 C   0  0  2  0  0  3  0  0  0  0  0  0
  157.6530  213.1540  146.9530 C   0  0  0  0  0  0  0  0  0  0  0  0
  157.7940  214.2430  151.4690 N   0  0  0  0  0  2  0  0  0  0  0  0
  158.9480  214.1470  150.6320 C   0  0  0  0  0  0  0  0  0  0  0  0
  160.0660  213.8210  151.1150 O   0  0  0  0  0  0  0  0  0  0  0  0
  157.5760  213.4220  152.6590 C   0  0  0  0  0  2  0  0  0  0  0  0
  157.3300  213.6270  155.1420 N   0  0  0  0  0  2  0  0  0  0  0  0
  154.6490  214.4210  154.7450 C   0  0  0  0  0  3  0  0  0  0  0  0
  155.1800  214.2010  156.1370 C   0  0  0  0  0  2  0  0  0  0  0  0
  156.6910  214.4370  156.1830 C   0  0  0  0  0  2  0  0  0  0  0  0
  155.4540  214.3560  153.6740 C   0  0  0  0  0  3  0  0  0  0  0  0
  156.9470  214.1790  153.8320 C   0  0  2  0  0  3  0  0  0  0  0  0
  161.3340  211.1080  148.8610 C   0  0  0  0  0  2  0  0  0  0  0  0
  161.7350  209.8890  148.0360 C   0  0  0  0  0  2  0  0  0  0  0  0
  161.9740  208.6790  148.9300 C   0  0  0  0  0  2  0  0  0  0  0  0
  162.3370  207.4480  148.1050 C   0  0  1  0  0  3  0  0  0  0  0  0
  161.6080  205.2210  148.6950 F   0  0  0  0  0  0  0  0  0  0  0  0
  162.5400  206.2060  148.9900 C   0  0  2  0  0  3  0  0  0  0  0  0
  163.5320  207.0980  150.9880 O   0  0  0  0  0  0  0  0  0  0  0  0
  162.5450  206.5120  150.4580 C   0  0  0  0  0  0  0  0  0  0  0  0
  161.4440  206.1320  151.2190 O   0  0  0  0  0  0  0  0  0  0  0  0
  161.5570  205.6110  152.5350 C   0  0  2  0  0  3  0  0  0  0  0  0
  159.6600  204.8530  150.8030 O   0  0  0  0  0  1  0  0  0  0  0  0
  161.5140  203.4850  151.2180 N   0  0  0  0  0  0  0  0  0  0  0  0
  161.7520  202.0830  151.5020 C   0  0  0  0  0  1  0  0  0  0  0  0
  161.1860  204.1190  152.5100 C   0  0  2  0  0  3  0  0  0  0  0  0
  160.1100  203.7650  151.5590 C   0  0  1  0  0  3  0  0  0  0  0  0
  160.6540  206.4190  153.4660 C   0  0  0  0  0  2  0  0  0  0  0  0
  160.6020  210.6700  154.0710 C   0  0  0  0  0  2  0  0  0  0  0  0
  160.9100  208.3980  154.9100 N   0  0  0  0  0  2  0  0  0  0  0  0
  160.2740  210.0300  152.7430 C   0  0  0  0  0  3  0  0  0  0  0  0
  161.1330  207.8610  153.5660 C   0  0  2  0  0  3  0  0  0  0  0  0
  160.4690  208.7180  152.5180 C   0  0  0  0  0  3  0  0  0  0  0  0
  161.4740  209.7440  154.9290 C   0  0  0  0  0  2  0  0  0  0  0  0
  161.3490  207.2240  147.1410 O   0  0  0  0  0  0  0  0  0  0  0  0
  162.0040  206.5650  146.0940 C   0  0  0  0  0  2  0  0  0  0  0  0
  161.1230  205.5110  145.5240 C   0  0  0  0  0  0  0  0  0  0  0  0
  161.4740  204.3040  145.5620 O   0  0  0  0  0  1  0  0  0  0  0  0
  159.9410  205.8710  144.8920 O   0  0  0  0  0  0  0  0  0  0  0  0
  1  3  1  6  0  0  0
  1  5  1  0  0  0  0
  2  1  1  0  0  0  0
  2 18  1  6  0  0  0
  3  5  1  0  0  0  0
  4 11  1  6  0  0  0
  4  2  1  0  0  0  0
  4  1  1  0  0  0  0
  5 30  1  6  0  0  0
  6 12  1  0  0  0  0
  8 11  1  0  0  0  0
  9  8  1  0  0  0  0
 10  7  1  0  0  0  0
 11  7  1  6  0  0  0
 12 10  2  0  0  0  0
 12  9  1  0  0  0  0
 13 14  1  0  0  0  0
 14 21  1  1  0  0  0
 15 19  1  0  0  0  0
 16 19  1  0  0  0  0
 17 13  1  6  0  0  0
 17 14  1  0  0  0  0
 18 19  1  6  0  0  0
 18 17  1  0  0  0  0
 19 17  1  0  0  0  0
 20 23  1  0  0  0  0
 21 22  2  0  0  0  0
 21 20  1  0  0  0  0
 24 27  1  0  0  0  0
 25 26  1  0  0  0  0
 26 27  1  0  0  0  0
 28 29  1  0  0  0  0
 28 25  2  0  0  0  0
 29 23  1  6  0  0  0
 29 24  1  0  0  0  0
 31 30  1  0  0  0  0
 31 32  1  0  0  0  0
 33 32  1  1  0  0  0
 33 35  1  0  0  0  0
 35 34  1  1  0  0  0
 35 37  1  0  0  0  0
 37 36  2  0  0  0  0
 37 38  1  0  0  0  0
 38 39  1  0  0  0  0
 39 45  1  1  0  0  0
 41 42  1  0  0  0  0
 41 44  1  0  0  0  0
 41 43  1  0  0  0  0
 43 39  1  6  0  0  0
 44 40  1  6  0  0  0
 44 43  1  0  0  0  0
 46 51  1  0  0  0  0
 47 51  1  0  0  0  0
 48 46  1  0  0  0  0
 49 45  1  1  0  0  0
 49 47  1  0  0  0  0
 50 48  2  0  0  0  0
 50 49  1  0  0  0  0
 52 33  1  0  0  0  0
 53 52  1  0  0  0  0
 54 55  1  0  0  0  0
 54 53  1  0  0  0  0
 56 54  2  0  0  0  0
M  END
>  <MODEL>
4

>  <REMARK>
 VINA RESULT:      -3.5      1.541      3.322
  Name = 
  19 active torsions:
  status: ('A' for Active; 'I' for Inactive)
    1  A    between atoms: O_1  and  C_31
    2  A    between atoms: O_1  and  C_35
    3  A    between atoms: C_8  and  N_25
    4  A    between atoms: C_8  and  C_44
    5  A    between atoms: C_11  and  C_35
    6  A    between atoms: C_11  and  C_49
    7  A    between atoms: O_14  and  C_21
    8  A    between atoms: O_14  and  C_27
    9  A    between atoms: C_15  and  C_27
   10  A    between atoms: C_15  and  C_35
   11  A    between atoms: C_17  and  C_38
   12  A    between atoms: N_20  and  C_50
   13  A    between atoms: C_21  and  CA_30
   14  A    between atoms: C_21  and  C_53
   15  A    between atoms: C_22  and  C_31
   16  A    between atoms: C_33  and  C_49
   17  A    between atoms: C_33  and  C_55
   18  A    between atoms: C_39  and  C_53
   19  A    between atoms: C_47  and  C_51
                            x       y       z     vdW  Elec       q    Type
                         _______ _______ _______ _____ _____    ______ ____

>  <TORSDO>
F 19

$$$$
=
 OpenBabel11072412313D

 56 63  0  0  1  0  0  0  0  0999 V2000
  160.1630  210.9120  152.8890 C   0  0  1  0  0  0  0  0  0  0  0  0
  159.9330  212.3610  152.6010 N   0  0  2  0  0  0  0  0  0  0  0  0
  161.4830  210.4150  152.6930 O   0  0  0  0  0  0  0  0  0  0  0  0
  160.5440  211.9580  153.8690 C   0  0  1  0  0  3  0  0  0  0  0  0
  160.7000  210.3630  151.5680 C   0  0  2  0  0  3  0  0  0  0  0  0
  161.1450  208.6840  157.2610 O   0  0  0  0  0  1  0  0  0  0  0  0
  160.4170  212.2760  156.3770 C   0  0  0  0  0  2  0  0  0  0  0  0
  158.7010  210.8050  155.2840 C   0  0  0  0  0  2  0  0  0  0  0  0
  159.5280  209.5530  155.5760 C   0  0  0  0  0  2  0  0  0  0  0  0
  160.9990  211.0120  156.9610 C   0  0  0  0  0  3  0  0  0  0  0  0
  159.6120  212.0260  155.1010 C   0  0  2  0  0  3  0  0  0  0  0  0
  160.5630  209.7830  156.6440 C   0  0  0  0  0  0  0  0  0  0  0  0
  156.6490  213.9530  151.6370 O   0  0  0  0  0  0  0  0  0  0  0  0
  157.2940  213.0460  150.8210 C   0  0  2  0  0  3  0  0  0  0  0  0
  156.8910  213.5870  154.1390 O   0  0  0  0  0  1  0  0  0  0  0  0
  159.1050  214.4530  154.0460 O   0  0  0  0  0  1  0  0  0  0  0  0
  158.0460  213.8070  151.8800 C   0  0  2  0  0  0  0  0  0  0  0  0
  158.4780  212.5330  152.6640 C   0  0  2  0  0  3  0  0  0  0  0  0
  158.0830  213.7320  153.4210 C   0  0  0  0  0  0  0  0  0  0  0  0
  158.6370  213.4550  148.7310 N   0  0  0  0  0  2  0  0  0  0  0  0
  157.4190  213.6470  149.4520 C   0  0  0  0  0  0  0  0  0  0  0  0
  156.4690  214.3020  148.9440 O   0  0  0  0  0  0  0  0  0  0  0  0
  158.7190  213.3590  147.2740 C   0  0  0  0  0  2  0  0  0  0  0  0
  160.3660  213.1210  145.4040 N   0  0  0  0  0  2  0  0  0  0  0  0
  162.4490  213.3120  147.3000 C   0  0  0  0  0  3  0  0  0  0  0  0
  162.7580  213.0140  145.8570 C   0  0  0  0  0  2  0  0  0  0  0  0
  161.6750  213.5890  144.9410 C   0  0  0  0  0  2  0  0  0  0  0  0
  161.2020  213.6020  147.7000 C   0  0  0  0  0  3  0  0  0  0  0  0
  160.0800  213.7600  146.6990 C   0  0  2  0  0  3  0  0  0  0  0  0
  161.2940  211.3190  150.5290 C   0  0  0  0  0  2  0  0  0  0  0  0
  162.3540  210.5980  149.7000 C   0  0  0  0  0  2  0  0  0  0  0  0
  161.7120  209.6230  148.7230 C   0  0  0  0  0  2  0  0  0  0  0  0
  162.4150  208.2690  148.7540 C   0  0  1  0  0  3  0  0  0  0  0  0
  160.4160  207.7400  150.0020 F   0  0  0  0  0  0  0  0  0  0  0  0
  161.6550  207.2480  149.6180 C   0  0  2  0  0  3  0  0  0  0  0  0
  163.3620  207.4870  151.2910 O   0  0  0  0  0  0  0  0  0  0  0  0
  162.4340  206.7770  150.8100 C   0  0  0  0  0  0  0  0  0  0  0  0
  162.1140  205.5430  151.3670 O   0  0  0  0  0  0  0  0  0  0  0  0
  161.0170  205.3540  152.2480 C   0  0  2  0  0  3  0  0  0  0  0  0
  160.5110  207.8180  153.1660 O   0  0  0  0  0  1  0  0  0  0  0  0
  160.3330  205.9590  154.5770 N   0  0  0  0  0  0  0  0  0  0  0  0
  160.7670  205.5990  155.9120 C   0  0  0  0  0  1  0  0  0  0  0  0
  161.4720  205.6750  153.6810 C   0  0  2  0  0  3  0  0  0  0  0  0
  161.1960  207.0600  154.1210 C   0  0  1  0  0  3  0  0  0  0  0  0
  160.5100  203.9180  152.1060 C   0  0  0  0  0  2  0  0  0  0  0  0
  160.8130  201.4550  148.6030 C   0  0  0  0  0  2  0  0  0  0  0  0
  160.2710  203.5780  149.6800 N   0  0  0  0  0  2  0  0  0  0  0  0
  161.1420  200.9490  149.9880 C   0  0  0  0  0  3  0  0  0  0  0  0
  161.0840  203.2650  150.8570 C   0  0  2  0  0  3  0  0  0  0  0  0
  161.2180  201.7750  151.0470 C   0  0  0  0  0  3  0  0  0  0  0  0
  160.9430  202.9810  148.5280 C   0  0  0  0  0  2  0  0  0  0  0  0
  162.5800  207.7980  147.4460 O   0  0  0  0  0  0  0  0  0  0  0  0
  161.5520  206.8660  147.2630 C   0  0  0  0  0  2  0  0  0  0  0  0
  162.1060  205.5950  146.7250 C   0  0  0  0  0  0  0  0  0  0  0  0
  163.1680  205.1170  147.1980 O   0  0  0  0  0  1  0  0  0  0  0  0
  161.4790  204.9700  145.6540 O   0  0  0  0  0  0  0  0  0  0  0  0
  1  3  1  6  0  0  0
  1  4  1  0  0  0  0
  2 18  1  1  0  0  0
  2  1  1  0  0  0  0
  2  4  1  0  0  0  0
  4 11  1  1  0  0  0
  5 30  1  6  0  0  0
  5  3  1  0  0  0  0
  5  1  1  0  0  0  0
  7 10  1  0  0  0  0
  8  9  1  0  0  0  0
  9 12  1  0  0  0  0
 11  8  1  1  0  0  0
 11  7  1  0  0  0  0
 12 10  2  0  0  0  0
 12  6  1  0  0  0  0
 14 21  1  6  0  0  0
 14 13  1  0  0  0  0
 14 17  1  0  0  0  0
 17 13  1  1  0  0  0
 17 18  1  0  0  0  0
 17 19  1  0  0  0  0
 18 19  1  1  0  0  0
 19 16  1  0  0  0  0
 19 15  1  0  0  0  0
 20 21  1  0  0  0  0
 22 21  2  0  0  0  0
 23 20  1  0  0  0  0
 24 29  1  0  0  0  0
 25 28  2  0  0  0  0
 26 25  1  0  0  0  0
 27 24  1  0  0  0  0
 27 26  1  0  0  0  0
 29 23  1  1  0  0  0
 29 28  1  0  0  0  0
 31 30  1  0  0  0  0
 32 31  1  0  0  0  0
 33 32  1  6  0  0  0
 33 35  1  0  0  0  0
 35 34  1  1  0  0  0
 35 37  1  0  0  0  0
 37 36  2  0  0  0  0
 37 38  1  0  0  0  0
 38 39  1  0  0  0  0
 39 45  1  1  0  0  0
 41 42  1  0  0  0  0
 43 39  1  6  0  0  0
 43 44  1  0  0  0  0
 43 41  1  0  0  0  0
 44 40  1  6  0  0  0
 44 41  1  0  0  0  0
 46 48  1  0  0  0  0
 47 49  1  0  0  0  0
 48 50  2  0  0  0  0
 49 50  1  0  0  0  0
 49 45  1  1  0  0  0
 51 46  1  0  0  0  0
 51 47  1  0  0  0  0
 52 33  1  0  0  0  0
 53 52  1  0  0  0  0
 54 55  1  0  0  0  0
 54 53  1  0  0  0  0
 56 54  2  0  0  0  0
M  END
>  <MODEL>
5

>  <REMARK>
 VINA RESULT:      -2.9      1.986      6.533
  Name = 
  19 active torsions:
  status: ('A' for Active; 'I' for Inactive)
    1  A    between atoms: O_1  and  C_31
    2  A    between atoms: O_1  and  C_35
    3  A    between atoms: C_8  and  N_25
    4  A    between atoms: C_8  and  C_44
    5  A    between atoms: C_11  and  C_35
    6  A    between atoms: C_11  and  C_49
    7  A    between atoms: O_14  and  C_21
    8  A    between atoms: O_14  and  C_27
    9  A    between atoms: C_15  and  C_27
   10  A    between atoms: C_15  and  C_35
   11  A    between atoms: C_17  and  C_38
   12  A    between atoms: N_20  and  C_50
   13  A    between atoms: C_21  and  CA_30
   14  A    between atoms: C_21  and  C_53
   15  A    between atoms: C_22  and  C_31
   16  A    between atoms: C_33  and  C_49
   17  A    between atoms: C_33  and  C_55
   18  A    between atoms: C_39  and  C_53
   19  A    between atoms: C_47  and  C_51
                            x       y       z     vdW  Elec       q    Type
                         _______ _______ _______ _____ _____    ______ ____

>  <TORSDO>
F 19

$$$$
=
 OpenBabel11072412313D

 56 63  0  0  1  0  0  0  0  0999 V2000
  160.2640  210.8050  152.4360 C   0  0  1  0  0  0  0  0  0  0  0  0
  160.0720  212.2690  152.1980 N   0  0  2  0  0  0  0  0  0  0  0  0
  161.5730  210.2830  152.2310 O   0  0  0  0  0  0  0  0  0  0  0  0
  160.6630  211.8060  153.4540 C   0  0  1  0  0  3  0  0  0  0  0  0
  160.7980  210.2900  151.0990 C   0  0  2  0  0  3  0  0  0  0  0  0
  161.8720  209.2150  157.2500 O   0  0  0  0  0  1  0  0  0  0  0  0
  160.4470  212.4320  155.8980 C   0  0  0  0  0  2  0  0  0  0  0  0
  159.0730  210.5110  155.0440 C   0  0  0  0  0  2  0  0  0  0  0  0
  160.1310  209.5030  155.4900 C   0  0  0  0  0  2  0  0  0  0  0  0
  161.2640  211.4020  156.6380 C   0  0  0  0  0  3  0  0  0  0  0  0
  159.7220  211.8540  154.6820 C   0  0  2  0  0  3  0  0  0  0  0  0
  161.0880  210.0800  156.5000 C   0  0  0  0  0  0  0  0  0  0  0  0
  156.8180  213.8760  151.1590 O   0  0  0  0  0  0  0  0  0  0  0  0
  157.4400  212.9130  150.3920 C   0  0  2  0  0  3  0  0  0  0  0  0
  157.0640  213.6400  153.6770 O   0  0  0  0  0  1  0  0  0  0  0  0
  159.2940  214.4530  153.5300 O   0  0  0  0  0  1  0  0  0  0  0  0
  158.2130  213.7140  151.4050 C   0  0  2  0  0  0  0  0  0  0  0  0
  158.6220  212.4750  152.2550 C   0  0  2  0  0  3  0  0  0  0  0  0
  158.2550  213.7220  152.9480 C   0  0  0  0  0  0  0  0  0  0  0  0
  158.8010  213.2220  148.2950 N   0  0  0  0  0  2  0  0  0  0  0  0
  157.5720  213.4360  148.9920 C   0  0  0  0  0  0  0  0  0  0  0  0
  156.6190  214.0480  148.4370 O   0  0  0  0  0  0  0  0  0  0  0  0
  158.9000  213.0440  146.8470 C   0  0  0  0  0  2  0  0  0  0  0  0
  160.3830  213.2350  144.8390 N   0  0  0  0  0  2  0  0  0  0  0  0
  162.6020  213.4200  146.5750 C   0  0  0  0  0  3  0  0  0  0  0  0
  162.8050  213.3450  145.0850 C   0  0  0  0  0  2  0  0  0  0  0  0
  161.5890  213.9050  144.3440 C   0  0  0  0  0  2  0  0  0  0  0  0
  161.3730  213.5130  147.1070 C   0  0  0  0  0  3  0  0  0  0  0  0
  160.1540  213.6670  146.2270 C   0  0  2  0  0  3  0  0  0  0  0  0
  161.4240  211.2670  150.1000 C   0  0  0  0  0  2  0  0  0  0  0  0
  162.3650  210.5210  149.1570 C   0  0  0  0  0  2  0  0  0  0  0  0
  161.5820  209.6640  148.1710 C   0  0  0  0  0  2  0  0  0  0  0  0
  161.9380  208.1880  148.3210 C   0  0  1  0  0  3  0  0  0  0  0  0
  162.0530  207.2790  150.5570 F   0  0  0  0  0  0  0  0  0  0  0  0
  161.1920  207.5360  149.4990 C   0  0  2  0  0  3  0  0  0  0  0  0
  159.9080  206.2000  147.9720 O   0  0  0  0  0  0  0  0  0  0  0  0
  160.4340  206.3000  149.1170 C   0  0  0  0  0  0  0  0  0  0  0  0
  160.3220  205.2740  150.0500 O   0  0  0  0  0  0  0  0  0  0  0  0
  161.2060  204.1640  150.0880 C   0  0  2  0  0  3  0  0  0  0  0  0
  161.6310  202.8770  147.7780 O   0  0  0  0  0  1  0  0  0  0  0  0
  161.2640  201.6860  149.7590 N   0  0  0  0  0  0  0  0  0  0  0  0
  160.4490  200.5630  150.1830 C   0  0  0  0  0  1  0  0  0  0  0  0
  160.3990  202.8790  149.8430 C   0  0  2  0  0  3  0  0  0  0  0  0
  160.6500  202.2310  148.5380 C   0  0  1  0  0  3  0  0  0  0  0  0
  161.9260  204.1510  151.4360 C   0  0  0  0  0  2  0  0  0  0  0  0
  161.3720  206.6980  154.8480 C   0  0  0  0  0  2  0  0  0  0  0  0
  162.6690  205.9800  152.9090 N   0  0  0  0  0  2  0  0  0  0  0  0
  160.3990  205.6030  154.4810 C   0  0  0  0  0  3  0  0  0  0  0  0
  161.5070  205.3450  152.2830 C   0  0  2  0  0  3  0  0  0  0  0  0
  160.4870  204.9360  153.3160 C   0  0  0  0  0  3  0  0  0  0  0  0
  162.1780  207.1540  153.6250 C   0  0  0  0  0  2  0  0  0  0  0  0
  161.6680  207.5180  147.1230 O   0  0  0  0  0  0  0  0  0  0  0  0
  162.7180  206.6050  146.9720 C   0  0  0  0  0  2  0  0  0  0  0  0
  162.4430  205.6950  145.8280 C   0  0  0  0  0  0  0  0  0  0  0  0
  163.1430  204.6660  145.6550 O   0  0  0  0  0  1  0  0  0  0  0  0
  161.4490  206.0210  144.9140 O   0  0  0  0  0  0  0  0  0  0  0  0
  1  3  1  6  0  0  0
  1  4  1  0  0  0  0
  2 18  1  1  0  0  0
  2  1  1  0  0  0  0
  2  4  1  0  0  0  0
  4 11  1  1  0  0  0
  5 30  1  6  0  0  0
  5  3  1  0  0  0  0
  5  1  1  0  0  0  0
  7 10  1  0  0  0  0
  8  9  1  0  0  0  0
  9 12  1  0  0  0  0
 11  8  1  1  0  0  0
 11  7  1  0  0  0  0
 12 10  2  0  0  0  0
 12  6  1  0  0  0  0
 14 21  1  6  0  0  0
 14 13  1  0  0  0  0
 14 17  1  0  0  0  0
 17 13  1  1  0  0  0
 17 18  1  0  0  0  0
 17 19  1  0  0  0  0
 18 19  1  1  0  0  0
 19 16  1  0  0  0  0
 19 15  1  0  0  0  0
 20 21  1  0  0  0  0
 22 21  2  0  0  0  0
 23 20  1  0  0  0  0
 24 29  1  0  0  0  0
 25 28  2  0  0  0  0
 26 25  1  0  0  0  0
 27 24  1  0  0  0  0
 27 26  1  0  0  0  0
 29 23  1  1  0  0  0
 29 28  1  0  0  0  0
 31 30  1  0  0  0  0
 32 31  1  0  0  0  0
 33 32  1  6  0  0  0
 33 35  1  0  0  0  0
 35 34  1  1  0  0  0
 36 37  2  0  0  0  0
 37 35  1  0  0  0  0
 37 38  1  0  0  0  0
 38 39  1  0  0  0  0
 39 45  1  1  0  0  0
 41 43  1  0  0  0  0
 41 42  1  0  0  0  0
 43 39  1  6  0  0  0
 44 40  1  6  0  0  0
 44 41  1  0  0  0  0
 44 43  1  0  0  0  0
 47 51  1  0  0  0  0
 48 46  1  0  0  0  0
 49 45  1  1  0  0  0
 49 47  1  0  0  0  0
 49 50  1  0  0  0  0
 50 48  2  0  0  0  0
 51 46  1  0  0  0  0
 52 33  1  0  0  0  0
 53 52  1  0  0  0  0
 54 53  1  0  0  0  0
 55 54  1  0  0  0  0
 56 54  2  0  0  0  0
M  END
>  <MODEL>
6

>  <REMARK>
 VINA RESULT:      -2.8      2.091      7.119
  Name = 
  19 active torsions:
  status: ('A' for Active; 'I' for Inactive)
    1  A    between atoms: O_1  and  C_31
    2  A    between atoms: O_1  and  C_35
    3  A    between atoms: C_8  and  N_25
    4  A    between atoms: C_8  and  C_44
    5  A    between atoms: C_11  and  C_35
    6  A    between atoms: C_11  and  C_49
    7  A    between atoms: O_14  and  C_21
    8  A    between atoms: O_14  and  C_27
    9  A    between atoms: C_15  and  C_27
   10  A    between atoms: C_15  and  C_35
   11  A    between atoms: C_17  and  C_38
   12  A    between atoms: N_20  and  C_50
   13  A    between atoms: C_21  and  CA_30
   14  A    between atoms: C_21  and  C_53
   15  A    between atoms: C_22  and  C_31
   16  A    between atoms: C_33  and  C_49
   17  A    between atoms: C_33  and  C_55
   18  A    between atoms: C_39  and  C_53
   19  A    between atoms: C_47  and  C_51
                            x       y       z     vdW  Elec       q    Type
                         _______ _______ _______ _____ _____    ______ ____

>  <TORSDO>
F 19

$$$$
=
 OpenBabel11072412313D

 56 63  0  0  1  0  0  0  0  0999 V2000
  161.9620  212.3280  148.1630 C   0  0  1  0  0  0  0  0  0  0  0  0
  160.5110  212.1190  147.8680 N   0  0  2  0  0  0  0  0  0  0  0  0
  162.8470  211.2600  147.8420 O   0  0  0  0  0  0  0  0  0  0  0  0
  161.4270  212.4930  146.7900 C   0  0  1  0  0  3  0  0  0  0  0  0
  162.3080  211.1710  149.1010 C   0  0  2  0  0  3  0  0  0  0  0  0
  161.2280  213.3290  142.1160 O   0  0  0  0  0  1  0  0  0  0  0  0
  160.0310  214.2220  145.5770 C   0  0  0  0  0  2  0  0  0  0  0  0
  162.5300  214.4530  145.4960 C   0  0  0  0  0  2  0  0  0  0  0  0
  162.5960  213.7050  144.1640 C   0  0  0  0  0  2  0  0  0  0  0  0
  160.1080  213.8350  144.1210 C   0  0  0  0  0  3  0  0  0  0  0  0
  161.3370  213.9680  146.3300 C   0  0  2  0  0  3  0  0  0  0  0  0
  161.2640  213.6550  143.4650 C   0  0  0  0  0  0  0  0  0  0  0  0
  158.4540  213.7870  150.5590 O   0  0  0  0  0  0  0  0  0  0  0  0
  159.7880  213.4800  150.7370 C   0  0  2  0  0  3  0  0  0  0  0  0
  157.7550  214.4460  148.2070 O   0  0  0  0  0  1  0  0  0  0  0  0
  157.8560  212.1640  147.5430 O   0  0  0  0  0  1  0  0  0  0  0  0
  158.9610  212.7700  149.6970 C   0  0  2  0  0  0  0  0  0  0  0  0
  159.8290  213.2540  148.4990 C   0  0  2  0  0  3  0  0  0  0  0  0
  158.3660  213.1940  148.3380 C   0  0  0  0  0  0  0  0  0  0  0  0
  159.6320  213.3690  153.2480 N   0  0  0  0  0  2  0  0  0  0  0  0
  159.9280  212.7090  152.0160 C   0  0  0  0  0  0  0  0  0  0  0  0
  160.2940  211.5020  152.0060 O   0  0  0  0  0  0  0  0  0  0  0  0
  159.0840  212.6970  154.4250 C   0  0  0  0  0  2  0  0  0  0  0  0
  157.7390  213.5870  156.3400 N   0  0  0  0  0  2  0  0  0  0  0  0
  155.4540  212.3610  155.2200 C   0  0  0  0  0  3  0  0  0  0  0  0
  155.3760  213.0340  156.5650 C   0  0  0  0  0  2  0  0  0  0  0  0
  156.4260  214.1410  156.6790 C   0  0  0  0  0  2  0  0  0  0  0  0
  156.5690  212.4220  154.4750 C   0  0  0  0  0  3  0  0  0  0  0  0
  157.7460  213.2680  154.9020 C   0  0  2  0  0  3  0  0  0  0  0  0
  161.4100  209.9320  149.1480 C   0  0  0  0  0  2  0  0  0  0  0  0
  161.7850  208.9700  148.0240 C   0  0  0  0  0  2  0  0  0  0  0  0
  162.1130  207.5880  148.5730 C   0  0  0  0  0  2  0  0  0  0  0  0
  162.0520  206.5300  147.4760 C   0  0  1  0  0  3  0  0  0  0  0  0
  160.0210  206.0010  148.6740 F   0  0  0  0  0  0  0  0  0  0  0  0
  160.8930  205.5420  147.6970 C   0  0  2  0  0  3  0  0  0  0  0  0
  161.2940  203.2460  147.1180 O   0  0  0  0  0  0  0  0  0  0  0  0
  161.3480  204.1460  148.0030 C   0  0  0  0  0  0  0  0  0  0  0  0
  161.8250  203.8680  149.2800 O   0  0  0  0  0  0  0  0  0  0  0  0
  161.0250  203.2760  150.2920 C   0  0  2  0  0  3  0  0  0  0  0  0
  162.2060  200.9940  149.5360 O   0  0  0  0  0  1  0  0  0  0  0  0
  160.0590  200.9760  150.4690 N   0  0  0  0  0  0  0  0  0  0  0  0
  158.7810  200.3610  150.1700 C   0  0  0  0  0  1  0  0  0  0  0  0
  160.1300  202.2030  149.6510 C   0  0  2  0  0  3  0  0  0  0  0  0
  160.8420  200.9790  149.2230 C   0  0  1  0  0  3  0  0  0  0  0  0
  160.2160  204.3710  150.9860 C   0  0  0  0  0  2  0  0  0  0  0  0
  161.5160  207.4860  153.6400 C   0  0  0  0  0  2  0  0  0  0  0  0
  161.0020  205.1420  153.1890 N   0  0  0  0  0  2  0  0  0  0  0  0
  161.0920  207.7520  152.2150 C   0  0  0  0  0  3  0  0  0  0  0  0
  161.1330  205.3230  151.7410 C   0  0  2  0  0  3  0  0  0  0  0  0
  160.8630  206.7530  151.3440 C   0  0  0  0  0  3  0  0  0  0  0  0
  161.9730  206.0330  153.8180 C   0  0  0  0  0  2  0  0  0  0  0  0
  161.9480  207.1570  146.2290 O   0  0  0  0  0  0  0  0  0  0  0  0
  160.9370  206.4620  145.5550 C   0  0  0  0  0  2  0  0  0  0  0  0
  161.5340  205.4470  144.6460 C   0  0  0  0  0  0  0  0  0  0  0  0
  160.8410  204.9300  143.7330 O   0  0  0  0  0  0  0  0  0  0  0  0
  162.8410  205.0260  144.8490 O   0  0  0  0  0  1  0  0  0  0  0  0
  1  3  1  6  0  0  0
  1  5  1  0  0  0  0
  2  1  1  0  0  0  0
  2 18  1  1  0  0  0
  3  5  1  0  0  0  0
  4 11  1  1  0  0  0
  4  2  1  0  0  0  0
  4  1  1  0  0  0  0
  5 30  1  6  0  0  0
  6 12  1  0  0  0  0
  7 11  1  0  0  0  0
  9  8  1  0  0  0  0
 10  7  1  0  0  0  0
 11  8  1  6  0  0  0
 12 10  2  0  0  0  0
 12  9  1  0  0  0  0
 13 14  1  0  0  0  0
 14 21  1  1  0  0  0
 15 19  1  0  0  0  0
 16 19  1  0  0  0  0
 17 13  1  6  0  0  0
 17 14  1  0  0  0  0
 18 19  1  6  0  0  0
 18 17  1  0  0  0  0
 19 17  1  0  0  0  0
 20 23  1  0  0  0  0
 21 20  1  0  0  0  0
 22 21  2  0  0  0  0
 24 27  1  0  0  0  0
 25 26  1  0  0  0  0
 26 27  1  0  0  0  0
 28 29  1  0  0  0  0
 28 25  2  0  0  0  0
 29 23  1  1  0  0  0
 29 24  1  0  0  0  0
 31 32  1  0  0  0  0
 31 30  1  0  0  0  0
 33 35  1  0  0  0  0
 33 32  1  1  0  0  0
 35 37  1  0  0  0  0
 35 34  1  1  0  0  0
 36 37  2  0  0  0  0
 37 38  1  0  0  0  0
 38 39  1  0  0  0  0
 39 45  1  6  0  0  0
 42 41  1  0  0  0  0
 43 39  1  1  0  0  0
 43 41  1  0  0  0  0
 44 40  1  1  0  0  0
 44 43  1  0  0  0  0
 44 41  1  0  0  0  0
 46 51  1  0  0  0  0
 47 51  1  0  0  0  0
 48 46  1  0  0  0  0
 49 45  1  6  0  0  0
 49 47  1  0  0  0  0
 50 49  1  0  0  0  0
 50 48  2  0  0  0  0
 52 33  1  0  0  0  0
 53 52  1  0  0  0  0
 54 56  1  0  0  0  0
 54 53  1  0  0  0  0
 55 54  2  0  0  0  0
M  END
>  <MODEL>
7

>  <REMARK>
 VINA RESULT:      -2.7      1.936      3.841
  Name = 
  19 active torsions:
  status: ('A' for Active; 'I' for Inactive)
    1  A    between atoms: O_1  and  C_31
    2  A    between atoms: O_1  and  C_35
    3  A    between atoms: C_8  and  N_25
    4  A    between atoms: C_8  and  C_44
    5  A    between atoms: C_11  and  C_35
    6  A    between atoms: C_11  and  C_49
    7  A    between atoms: O_14  and  C_21
    8  A    between atoms: O_14  and  C_27
    9  A    between atoms: C_15  and  C_27
   10  A    between atoms: C_15  and  C_35
   11  A    between atoms: C_17  and  C_38
   12  A    between atoms: N_20  and  C_50
   13  A    between atoms: C_21  and  CA_30
   14  A    between atoms: C_21  and  C_53
   15  A    between atoms: C_22  and  C_31
   16  A    between atoms: C_33  and  C_49
   17  A    between atoms: C_33  and  C_55
   18  A    between atoms: C_39  and  C_53
   19  A    between atoms: C_47  and  C_51
                            x       y       z     vdW  Elec       q    Type
                         _______ _______ _______ _____ _____    ______ ____

>  <TORSDO>
F 19

$$$$
=
 OpenBabel11072412313D

 56 63  0  0  1  0  0  0  0  0999 V2000
  160.2140  209.5930  153.8050 C   0  0  1  0  0  0  0  0  0  0  0  0
  161.6230  210.0480  154.0140 N   0  0  2  0  0  0  0  0  0  0  0  0
  159.7360  209.5650  152.4640 O   0  0  0  0  0  0  0  0  0  0  0  0
  161.3570  208.6780  153.5730 C   0  0  1  0  0  3  0  0  0  0  0  0
  159.5570  210.7730  153.0880 C   0  0  2  0  0  3  0  0  0  0  0  0
  160.3420  204.1930  152.3710 O   0  0  0  0  0  1  0  0  0  0  0  0
  162.5790  206.5690  154.2590 C   0  0  0  0  0  2  0  0  0  0  0  0
  160.2150  206.8750  155.0490 C   0  0  0  0  0  2  0  0  0  0  0  0
  159.6730  206.0690  153.8700 C   0  0  0  0  0  2  0  0  0  0  0  0
  162.0410  205.4930  153.3490 C   0  0  0  0  0  3  0  0  0  0  0  0
  161.5160  207.5920  154.6640 C   0  0  2  0  0  3  0  0  0  0  0  0
  160.7330  205.2260  153.2120 C   0  0  0  0  0  0  0  0  0  0  0  0
  161.8170  212.0110  157.2330 O   0  0  0  0  0  0  0  0  0  0  0  0
  160.6220  211.7830  156.5820 C   0  0  2  0  0  3  0  0  0  0  0  0
  163.5540  210.1630  157.0770 O   0  0  0  0  0  1  0  0  0  0  0  0
  164.0450  210.8200  154.8450 O   0  0  0  0  0  1  0  0  0  0  0  0
  161.9340  211.6960  155.8470 C   0  0  2  0  0  0  0  0  0  0  0  0
  161.7610  210.1960  155.4670 C   0  0  2  0  0  3  0  0  0  0  0  0
  163.0950  210.6800  155.8600 C   0  0  0  0  0  0  0  0  0  0  0  0
  158.7680  213.1490  155.5630 N   0  0  0  0  0  2  0  0  0  0  0  0
  159.9240  213.0990  156.4010 C   0  0  0  0  0  0  0  0  0  0  0  0
  160.3420  214.1370  156.9810 O   0  0  0  0  0  0  0  0  0  0  0  0
  157.6450  214.0620  155.7720 C   0  0  0  0  0  2  0  0  0  0  0  0
  155.6740  213.3500  154.4030 N   0  0  0  0  0  2  0  0  0  0  0  0
  157.1330  214.0110  152.0770 C   0  0  0  0  0  3  0  0  0  0  0  0
  155.7820  213.3540  151.9680 C   0  0  0  0  0  2  0  0  0  0  0  0
  154.9210  213.6800  153.1900 C   0  0  0  0  0  2  0  0  0  0  0  0
  157.6260  214.3970  153.2630 C   0  0  0  0  0  3  0  0  0  0  0  0
  156.7940  214.2980  154.5220 C   0  0  2  0  0  3  0  0  0  0  0  0
  160.4270  211.8110  152.3740 C   0  0  0  0  0  2  0  0  0  0  0  0
  160.6340  211.4070  150.9160 C   0  0  0  0  0  2  0  0  0  0  0  0
  162.0570  210.9170  150.6830 C   0  0  0  0  0  2  0  0  0  0  0  0
  162.1580  210.1180  149.3870 C   0  0  1  0  0  3  0  0  0  0  0  0
  162.1490  208.0270  150.5990 F   0  0  0  0  0  0  0  0  0  0  0  0
  161.5670  208.7050  149.5380 C   0  0  2  0  0  3  0  0  0  0  0  0
  160.9050  208.1710  147.2910 O   0  0  0  0  0  0  0  0  0  0  0  0
  161.6390  207.8900  148.2810 C   0  0  0  0  0  0  0  0  0  0  0  0
  162.5270  206.8200  148.2330 O   0  0  0  0  0  0  0  0  0  0  0  0
  162.2810  205.6440  147.4780 C   0  0  2  0  0  3  0  0  0  0  0  0
  163.7010  204.3240  145.6310 O   0  0  0  0  0  1  0  0  0  0  0  0
  161.4780  204.9300  145.2200 N   0  0  0  0  0  0  0  0  0  0  0  0
  160.7320  205.5470  144.1410 C   0  0  0  0  0  1  0  0  0  0  0  0
  162.0550  206.0360  146.0090 C   0  0  2  0  0  3  0  0  0  0  0  0
  162.8910  205.2970  145.0380 C   0  0  1  0  0  3  0  0  0  0  0  0
  161.0780  204.9150  148.0780 C   0  0  0  0  0  2  0  0  0  0  0  0
  160.6840  200.8470  149.3920 C   0  0  0  0  0  2  0  0  0  0  0  0
  160.7290  202.5220  147.6170 N   0  0  0  0  0  2  0  0  0  0  0  0
  160.8840  201.9980  150.3490 C   0  0  0  0  0  3  0  0  0  0  0  0
  161.4450  203.4860  148.4540 C   0  0  2  0  0  3  0  0  0  0  0  0
  161.1860  203.2360  149.9180 C   0  0  0  0  0  3  0  0  0  0  0  0
  161.2080  201.1940  147.9930 C   0  0  0  0  0  2  0  0  0  0  0  0
  161.5280  210.8210  148.3550 O   0  0  0  0  0  0  0  0  0  0  0  0
  162.3100  211.9660  148.1640 C   0  0  0  0  0  2  0  0  0  0  0  0
  161.4620  213.0860  147.6730 C   0  0  0  0  0  0  0  0  0  0  0  0
  161.9820  214.0460  147.0510 O   0  0  0  0  0  0  0  0  0  0  0  0
  160.1040  213.0970  147.9600 O   0  0  0  0  0  1  0  0  0  0  0  0
  1  3  1  6  0  0  0
  1  2  1  0  0  0  0
  2 18  1  1  0  0  0
  3  5  1  0  0  0  0
  4  1  1  0  0  0  0
  4  2  1  0  0  0  0
  4 11  1  1  0  0  0
  5 30  1  6  0  0  0
  5  1  1  0  0  0  0
  6 12  1  0  0  0  0
  9  8  1  0  0  0  0
 10  7  1  0  0  0  0
 11  7  1  6  0  0  0
 11  8  1  0  0  0  0
 12 10  2  0  0  0  0
 12  9  1  0  0  0  0
 14 21  1  6  0  0  0
 14 13  1  0  0  0  0
 16 19  1  0  0  0  0
 17 19  1  0  0  0  0
 17 14  1  0  0  0  0
 17 13  1  1  0  0  0
 18 17  1  0  0  0  0
 18 19  1  6  0  0  0
 19 15  1  0  0  0  0
 20 23  1  0  0  0  0
 20 21  1  0  0  0  0
 21 22  2  0  0  0  0
 24 29  1  0  0  0  0
 25 28  2  0  0  0  0
 26 25  1  0  0  0  0
 26 27  1  0  0  0  0
 27 24  1  0  0  0  0
 28 29  1  0  0  0  0
 29 23  1  1  0  0  0
 31 30  1  0  0  0  0
 32 31  1  0  0  0  0
 33 35  1  0  0  0  0
 33 32  1  1  0  0  0
 35 34  1  1  0  0  0
 36 37  2  0  0  0  0
 37 35  1  0  0  0  0
 38 37  1  0  0  0  0
 39 45  1  1  0  0  0
 39 38  1  0  0  0  0
 41 43  1  0  0  0  0
 42 41  1  0  0  0  0
 43 39  1  1  0  0  0
 44 41  1  0  0  0  0
 44 40  1  1  0  0  0
 44 43  1  0  0  0  0
 46 48  1  0  0  0  0
 47 51  1  0  0  0  0
 47 49  1  0  0  0  0
 49 45  1  6  0  0  0
 49 50  1  0  0  0  0
 50 48  2  0  0  0  0
 51 46  1  0  0  0  0
 52 33  1  0  0  0  0
 53 52  1  0  0  0  0
 54 56  1  0  0  0  0
 54 53  1  0  0  0  0
 55 54  2  0  0  0  0
M  END
>  <MODEL>
8

>  <REMARK>
 VINA RESULT:      -2.5      3.000      7.839
  Name = 
  19 active torsions:
  status: ('A' for Active; 'I' for Inactive)
    1  A    between atoms: O_1  and  C_31
    2  A    between atoms: O_1  and  C_35
    3  A    between atoms: C_8  and  N_25
    4  A    between atoms: C_8  and  C_44
    5  A    between atoms: C_11  and  C_35
    6  A    between atoms: C_11  and  C_49
    7  A    between atoms: O_14  and  C_21
    8  A    between atoms: O_14  and  C_27
    9  A    between atoms: C_15  and  C_27
   10  A    between atoms: C_15  and  C_35
   11  A    between atoms: C_17  and  C_38
   12  A    between atoms: N_20  and  C_50
   13  A    between atoms: C_21  and  CA_30
   14  A    between atoms: C_21  and  C_53
   15  A    between atoms: C_22  and  C_31
   16  A    between atoms: C_33  and  C_49
   17  A    between atoms: C_33  and  C_55
   18  A    between atoms: C_39  and  C_53
   19  A    between atoms: C_47  and  C_51
                            x       y       z     vdW  Elec       q    Type
                         _______ _______ _______ _____ _____    ______ ____

>  <TORSDO>
F 19

$$$$
=
 OpenBabel11072412313D

 56 63  0  0  1  0  0  0  0  0999 V2000
  161.4180  212.5300  147.6780 C   0  0  1  0  0  0  0  0  0  0  0  0
  159.9930  212.1150  147.4910 N   0  0  2  0  0  0  0  0  0  0  0  0
  162.4030  211.5040  147.6240 O   0  0  0  0  0  0  0  0  0  0  0  0
  160.8640  212.2740  146.3260 C   0  0  1  0  0  3  0  0  0  0  0  0
  161.8800  211.7020  148.8760 C   0  0  2  0  0  3  0  0  0  0  0  0
  162.1900  212.2180  141.7620 O   0  0  0  0  0  1  0  0  0  0  0  0
  159.6600  213.2890  144.3440 C   0  0  0  0  0  2  0  0  0  0  0  0
  161.9050  214.2250  144.9680 C   0  0  0  0  0  2  0  0  0  0  0  0
  162.6090  213.3170  143.9600 C   0  0  0  0  0  2  0  0  0  0  0  0
  160.3400  212.7030  143.1320 C   0  0  0  0  0  3  0  0  0  0  0  0
  160.6280  213.5590  145.4970 C   0  0  2  0  0  3  0  0  0  0  0  0
  161.6640  212.7620  142.9270 C   0  0  0  0  0  0  0  0  0  0  0  0
  157.3950  214.0500  149.4300 O   0  0  0  0  0  0  0  0  0  0  0  0
  158.6430  213.7720  149.9480 C   0  0  2  0  0  3  0  0  0  0  0  0
  157.2820  214.4490  146.9230 O   0  0  0  0  0  1  0  0  0  0  0  0
  157.4910  212.1100  146.5460 O   0  0  0  0  0  1  0  0  0  0  0  0
  158.0700  212.9490  148.8240 C   0  0  2  0  0  0  0  0  0  0  0  0
  159.2050  213.3070  147.8200 C   0  0  2  0  0  3  0  0  0  0  0  0
  157.8200  213.2220  147.3260 C   0  0  0  0  0  0  0  0  0  0  0  0
  159.5470  213.2010  152.2290 N   0  0  0  0  0  2  0  0  0  0  0  0
  158.4640  213.1430  151.2990 C   0  0  0  0  0  0  0  0  0  0  0  0
  157.3800  212.5790  151.6110 O   0  0  0  0  0  0  0  0  0  0  0  0
  159.3760  213.2690  153.6800 C   0  0  0  0  0  2  0  0  0  0  0  0
  160.0930  210.8710  153.6250 N   0  0  0  0  0  2  0  0  0  0  0  0
  159.3140  210.6430  156.3300 C   0  0  0  0  0  3  0  0  0  0  0  0
  159.7710  209.4300  155.5640 C   0  0  0  0  0  2  0  0  0  0  0  0
  160.7260  209.8280  154.4370 C   0  0  0  0  0  2  0  0  0  0  0  0
  159.3710  211.8700  155.7890 C   0  0  0  0  0  3  0  0  0  0  0  0
  160.0060  212.0960  154.4360 C   0  0  2  0  0  3  0  0  0  0  0  0
  161.1090  210.4410  149.2760 C   0  0  0  0  0  2  0  0  0  0  0  0
  162.0180  209.2190  149.1790 C   0  0  0  0  0  2  0  0  0  0  0  0
  161.3870  208.1360  148.3130 C   0  0  0  0  0  2  0  0  0  0  0  0
  162.4340  207.4430  147.4470 C   0  0  1  0  0  3  0  0  0  0  0  0
  164.4260  206.4450  148.3820 F   0  0  0  0  0  0  0  0  0  0  0  0
  163.0700  206.2420  148.1680 C   0  0  2  0  0  3  0  0  0  0  0  0
  163.6960  204.4560  146.6900 O   0  0  0  0  0  0  0  0  0  0  0  0
  162.8300  204.9330  147.4760 C   0  0  0  0  0  0  0  0  0  0  0  0
  161.6340  204.2650  147.7160 O   0  0  0  0  0  0  0  0  0  0  0  0
  161.3550  203.5940  148.9350 C   0  0  2  0  0  3  0  0  0  0  0  0
  161.7800  201.6140  150.6880 O   0  0  0  0  0  1  0  0  0  0  0  0
  159.7110  201.8360  149.6170 N   0  0  0  0  0  0  0  0  0  0  0  0
  158.7770  200.9660  148.9280 C   0  0  0  0  0  1  0  0  0  0  0  0
  160.7240  202.2280  148.6170 C   0  0  2  0  0  3  0  0  0  0  0  0
  161.0210  201.1660  149.6020 C   0  0  1  0  0  3  0  0  0  0  0  0
  160.4390  204.4740  149.7860 C   0  0  0  0  0  2  0  0  0  0  0  0
  161.1230  206.1910  153.6610 C   0  0  0  0  0  2  0  0  0  0  0  0
  160.6970  204.2630  152.2260 N   0  0  0  0  0  2  0  0  0  0  0  0
  161.0500  207.0210  152.4020 C   0  0  0  0  0  3  0  0  0  0  0  0
  161.1660  204.9660  151.0290 C   0  0  2  0  0  3  0  0  0  0  0  0
  161.0170  206.4590  151.1800 C   0  0  0  0  0  3  0  0  0  0  0  0
  161.5060  204.7400  153.3440 C   0  0  0  0  0  2  0  0  0  0  0  0
  161.8540  207.0530  146.2350 O   0  0  0  0  0  0  0  0  0  0  0  0
  160.5950  206.5470  146.5800 C   0  0  0  0  0  2  0  0  0  0  0  0
  160.0030  205.8220  145.4240 C   0  0  0  0  0  0  0  0  0  0  0  0
  158.8950  206.1810  144.9530 O   0  0  0  0  0  1  0  0  0  0  0  0
  160.6490  204.7060  144.9090 O   0  0  0  0  0  0  0  0  0  0  0  0
  1  3  1  6  0  0  0
  1  5  1  0  0  0  0
  2  1  1  0  0  0  0
  2 18  1  6  0  0  0
  3  5  1  0  0  0  0
  4 11  1  6  0  0  0
  4  2  1  0  0  0  0
  4  1  1  0  0  0  0
  5 30  1  6  0  0  0
  6 12  1  0  0  0  0
  8 11  1  0  0  0  0
  9  8  1  0  0  0  0
 10  7  1  0  0  0  0
 11  7  1  6  0  0  0
 12 10  2  0  0  0  0
 12  9  1  0  0  0  0
 13 14  1  0  0  0  0
 14 21  1  1  0  0  0
 15 19  1  0  0  0  0
 16 19  1  0  0  0  0
 17 13  1  6  0  0  0
 17 14  1  0  0  0  0
 18 19  1  6  0  0  0
 18 17  1  0  0  0  0
 19 17  1  0  0  0  0
 20 23  1  0  0  0  0
 21 22  2  0  0  0  0
 21 20  1  0  0  0  0
 24 29  1  0  0  0  0
 24 27  1  0  0  0  0
 26 25  1  0  0  0  0
 27 26  1  0  0  0  0
 28 25  2  0  0  0  0
 29 23  1  6  0  0  0
 29 28  1  0  0  0  0
 31 30  1  0  0  0  0
 32 31  1  0  0  0  0
 33 35  1  0  0  0  0
 33 32  1  1  0  0  0
 35 34  1  6  0  0  0
 36 37  2  0  0  0  0
 37 38  1  0  0  0  0
 37 35  1  0  0  0  0
 38 39  1  0  0  0  0
 39 45  1  1  0  0  0
 42 41  1  0  0  0  0
 43 39  1  1  0  0  0
 43 44  1  0  0  0  0
 43 41  1  0  0  0  0
 44 41  1  0  0  0  0
 44 40  1  1  0  0  0
 47 51  1  0  0  0  0
 48 46  1  0  0  0  0
 49 45  1  6  0  0  0
 49 50  1  0  0  0  0
 49 47  1  0  0  0  0
 50 48  2  0  0  0  0
 51 46  1  0  0  0  0
 52 53  1  0  0  0  0
 52 33  1  0  0  0  0
 54 53  1  0  0  0  0
 55 54  1  0  0  0  0
 56 54  2  0  0  0  0
M  END
>  <MODEL>
9

>  <REMARK>
 VINA RESULT:      -2.4      1.840      3.484
  Name = 
  19 active torsions:
  status: ('A' for Active; 'I' for Inactive)
    1  A    between atoms: O_1  and  C_31
    2  A    between atoms: O_1  and  C_35
    3  A    between atoms: C_8  and  N_25
    4  A    between atoms: C_8  and  C_44
    5  A    between atoms: C_11  and  C_35
    6  A    between atoms: C_11  and  C_49
    7  A    between atoms: O_14  and  C_21
    8  A    between atoms: O_14  and  C_27
    9  A    between atoms: C_15  and  C_27
   10  A    between atoms: C_15  and  C_35
   11  A    between atoms: C_17  and  C_38
   12  A    between atoms: N_20  and  C_50
   13  A    between atoms: C_21  and  CA_30
   14  A    between atoms: C_21  and  C_53
   15  A    between atoms: C_22  and  C_31
   16  A    between atoms: C_33  and  C_49
   17  A    between atoms: C_33  and  C_55
   18  A    between atoms: C_39  and  C_53
   19  A    between atoms: C_47  and  C_51
                            x       y       z     vdW  Elec       q    Type
                         _______ _______ _______ _____ _____    ______ ____

>  <TORSDO>
F 19

$$$$
