=
 OpenBabel11072411253D

 35 39  0  0  1  0  0  0  0  0999 V2000
  161.3410  207.7200  149.9980 C   0  0  2  0  0  3  0  0  0  0  0  0
  160.8240  206.8570  153.3950 N   0  0  0  0  0  0  0  0  0  0  0  0
  161.4450  207.6450  152.3530 C   0  0  1  0  0  0  0  0  0  0  0  0
  162.5990  206.9220  150.3390 C   0  0  0  0  0  2  0  0  0  0  0  0
  160.5220  207.9010  151.2180 N   0  0  1  0  0  0  0  0  0  0  0  0
  161.0180  209.0120  152.0680 C   0  0  1  0  0  0  0  0  0  0  0  0
  162.5400  205.7040  152.4100 N   0  0  0  0  0  2  0  0  0  0  0  0
  161.5220  205.7630  153.4190 C   0  0  0  0  0  3  0  0  0  0  0  0
  162.5190  206.8420  151.8010 C   0  0  2  0  0  3  0  0  0  0  0  0
  160.0190  209.5180  152.9010 O   0  0  0  0  0  1  0  0  0  0  0  0
  160.5900  207.0300  149.0070 O   0  0  0  0  0  0  0  0  0  0  0  0
  161.9570  204.3890  146.8230 C   0  0  0  0  0  3  0  0  0  0  0  0
  160.6480  204.5990  149.2550 C   0  0  0  0  0  3  0  0  0  0  0  0
  161.6030  205.6520  147.3030 C   0  0  0  0  0  0  0  0  0  0  0  0
  160.9440  205.7630  148.5300 C   0  0  0  0  0  0  0  0  0  0  0  0
  161.0010  203.3450  148.7380 C   0  0  0  0  0  0  0  0  0  0  0  0
  161.6590  203.2760  147.5460 N   0  0  0  0  0  0  0  0  0  0  0  0
  161.9030  206.7580  146.5780 F   0  0  0  0  0  0  0  0  0  0  0  0
  160.7380  202.0910  149.5260 C   0  0  0  0  0  0  0  0  0  0  0  0
  159.4280  201.6530  149.3230 O   0  0  0  0  0  1  0  0  0  0  0  0
  161.6180  201.0820  149.1250 O   0  0  0  0  0  1  0  0  0  0  0  0
  160.9460  202.3680  151.0020 C   0  0  0  0  0  1  0  0  0  0  0  0
  162.0070  210.0110  151.4500 C   0  0  0  0  0  2  0  0  0  0  0  0
  161.3110  211.3010  151.0360 C   0  0  0  0  0  2  0  0  0  0  0  0
  162.8610  211.9960  147.7300 C   0  0  0  0  0  2  0  0  0  0  0  0
  161.8830  213.1660  147.8650 C   0  0  1  0  0  0  0  0  0  0  0  0
  162.6830  211.1150  148.9520 C   0  0  0  0  0  2  0  0  0  0  0  0
  161.1500  212.9470  149.1820 C   0  0  0  0  0  2  0  0  0  0  0  0
  162.6890  214.4530  147.9380 C   0  0  0  0  0  1  0  0  0  0  0  0
  161.3350  211.4890  149.5260 C   0  0  2  0  0  3  0  0  0  0  0  0
  159.4780  213.1900  146.9910 C   0  0  0  0  0  1  0  0  0  0  0  0
  160.9190  213.2270  146.7460 N   0  0  0  0  0  0  0  0  0  0  0  0
  161.3660  213.3240  145.3790 C   0  0  0  0  0  0  0  0  0  0  0  0
  160.5310  213.3800  144.4380 O   0  0  0  0  0  0  0  0  0  0  0  0
  162.7230  213.3610  145.0780 O   0  0  0  0  0  1  0  0  0  0  0  0
  1 11  1  6  0  0  0
  1  4  1  0  0  0  0
  1  5  1  0  0  0  0
  2  8  2  0  0  0  0
  3  2  1  1  0  0  0
  4  9  1  0  0  0  0
  5  6  1  0  0  0  0
  5  3  1  0  0  0  0
  6  3  1  0  0  0  0
  6 10  1  0  0  0  0
  7  8  1  0  0  0  0
  9  3  1  0  0  0  0
  9  7  1  0  0  0  0
 12 14  2  0  0  0  0
 12 17  1  0  0  0  0
 14 15  1  0  0  0  0
 15 11  1  0  0  0  0
 15 13  2  0  0  0  0
 16 13  1  0  0  0  0
 16 19  1  0  0  0  0
 17 16  2  0  0  0  0
 18 14  1  0  0  0  0
 19 22  1  0  0  0  0
 20 19  1  0  0  0  0
 21 19  1  0  0  0  0
 23  6  1  0  0  0  0
 24 23  1  0  0  0  0
 25 26  1  0  0  0  0
 25 27  1  0  0  0  0
 26 29  1  0  0  0  0
 26 28  1  0  0  0  0
 27 30  1  0  0  0  0
 28 30  1  0  0  0  0
 30 24  1  0  0  0  0
 32 31  1  0  0  0  0
 32 26  1  0  0  0  0
 33 32  1  0  0  0  0
 34 33  2  0  0  0  0
 35 33  1  0  0  0  0
M  END
>  <MODEL>
1

>  <REMARK>
 VINA RESULT:      -7.8      0.000      0.000
  Name = 
  7 active torsions:
  status: ('A' for Active; 'I' for Inactive)
    1  A    between atoms: C_3  and  O_17
    2  A    between atoms: C_4  and  C_21
    3  A    between atoms: C_4  and  C_34
    4  A    between atoms: C_5  and  C_24
    5  A    between atoms: N_7  and  C_10
    6  A    between atoms: O_17  and  C_18
    7  A    between atoms: C_21  and  C_23
                            x       y       z     vdW  Elec       q    Type
                         _______ _______ _______ _____ _____    ______ ____

>  <TORSDO>
F 7

$$$$
=
 OpenBabel11072411253D

 35 39  0  0  1  0  0  0  0  0999 V2000
  161.2750  206.5120  150.9790 C   0  0  2  0  0  3  0  0  0  0  0  0
  160.3770  207.9450  154.0920 N   0  0  0  0  0  0  0  0  0  0  0  0
  161.2090  207.8610  152.9120 C   0  0  1  0  0  0  0  0  0  0  0  0
  162.3230  205.9370  151.9300 C   0  0  0  0  0  2  0  0  0  0  0  0
  160.4310  207.4900  151.7020 N   0  0  1  0  0  0  0  0  0  0  0  0
  161.0820  208.8190  151.8150 C   0  0  1  0  0  0  0  0  0  0  0  0
  161.8890  206.2350  154.2740 N   0  0  0  0  0  2  0  0  0  0  0  0
  160.8410  207.0120  154.8680 C   0  0  0  0  0  3  0  0  0  0  0  0
  162.1360  206.7670  153.1240 C   0  0  2  0  0  3  0  0  0  0  0  0
  160.1520  209.8400  152.0120 O   0  0  0  0  0  1  0  0  0  0  0  0
  160.4660  205.4600  150.4650 O   0  0  0  0  0  0  0  0  0  0  0  0
  161.2760  202.7070  148.1460 C   0  0  0  0  0  3  0  0  0  0  0  0
  160.8840  205.4470  148.0570 C   0  0  0  0  0  3  0  0  0  0  0  0
  160.9710  203.3930  149.3230 C   0  0  0  0  0  0  0  0  0  0  0  0
  160.7710  204.7760  149.2820 C   0  0  0  0  0  0  0  0  0  0  0  0
  161.2090  204.7320  146.8960 C   0  0  0  0  0  0  0  0  0  0  0  0
  161.3800  203.3820  146.9700 N   0  0  0  0  0  0  0  0  0  0  0  0
  160.8690  202.7150  150.4930 F   0  0  0  0  0  0  0  0  0  0  0  0
  161.2840  205.4280  145.5640 C   0  0  0  0  0  0  0  0  0  0  0  0
  160.4360  206.5380  145.5460 O   0  0  0  0  0  1  0  0  0  0  0  0
  162.5920  205.8550  145.3210 O   0  0  0  0  0  1  0  0  0  0  0  0
  160.8660  204.4680  144.4670 C   0  0  0  0  0  1  0  0  0  0  0  0
  162.2870  209.1140  150.9110 C   0  0  0  0  0  2  0  0  0  0  0  0
  162.4480  210.6080  150.6670 C   0  0  0  0  0  2  0  0  0  0  0  0
  162.3500  212.5240  147.4840 C   0  0  0  0  0  2  0  0  0  0  0  0
  161.0440  212.9630  148.1490 C   0  0  1  0  0  0  0  0  0  0  0  0
  163.0010  211.5040  148.3970 C   0  0  0  0  0  2  0  0  0  0  0  0
  160.9600  212.1870  149.4570 C   0  0  0  0  0  2  0  0  0  0  0  0
  161.1380  214.4520  148.4440 C   0  0  0  0  0  1  0  0  0  0  0  0
  161.8980  211.0140  149.3080 C   0  0  2  0  0  3  0  0  0  0  0  0
  160.0080  212.1350  145.9610 C   0  0  0  0  0  1  0  0  0  0  0  0
  159.8600  212.6800  147.3080 N   0  0  0  0  0  0  0  0  0  0  0  0
  158.5250  212.9320  147.7900 C   0  0  0  0  0  0  0  0  0  0  0  0
  157.5280  212.6820  147.0620 O   0  0  0  0  0  0  0  0  0  0  0  0
  158.3160  213.4520  149.0620 O   0  0  0  0  0  1  0  0  0  0  0  0
  1 11  1  1  0  0  0
  1  5  1  0  0  0  0
  1  4  1  0  0  0  0
  2  8  2  0  0  0  0
  3  9  1  0  0  0  0
  3  2  1  1  0  0  0
  4  9  1  0  0  0  0
  5  6  1  0  0  0  0
  5  3  1  0  0  0  0
  6 10  1  0  0  0  0
  6  3  1  0  0  0  0
  7  8  1  0  0  0  0
  9  7  1  0  0  0  0
 12 14  1  0  0  0  0
 13 15  1  0  0  0  0
 14 18  1  0  0  0  0
 15 14  2  0  0  0  0
 15 11  1  0  0  0  0
 16 17  1  0  0  0  0
 16 13  2  0  0  0  0
 17 12  2  0  0  0  0
 19 16  1  0  0  0  0
 20 19  1  0  0  0  0
 21 19  1  0  0  0  0
 22 19  1  0  0  0  0
 23  6  1  0  0  0  0
 24 23  1  0  0  0  0
 25 26  1  0  0  0  0
 25 27  1  0  0  0  0
 26 29  1  0  0  0  0
 26 28  1  0  0  0  0
 27 30  1  0  0  0  0
 30 28  1  0  0  0  0
 30 24  1  0  0  0  0
 31 32  1  0  0  0  0
 32 33  1  0  0  0  0
 32 26  1  0  0  0  0
 33 35  1  0  0  0  0
 34 33  2  0  0  0  0
M  END
>  <MODEL>
2

>  <REMARK>
 VINA RESULT:      -7.6      2.163      2.986
  Name = 
  7 active torsions:
  status: ('A' for Active; 'I' for Inactive)
    1  A    between atoms: C_3  and  O_17
    2  A    between atoms: C_4  and  C_21
    3  A    between atoms: C_4  and  C_34
    4  A    between atoms: C_5  and  C_24
    5  A    between atoms: N_7  and  C_10
    6  A    between atoms: O_17  and  C_18
    7  A    between atoms: C_21  and  C_23
                            x       y       z     vdW  Elec       q    Type
                         _______ _______ _______ _____ _____    ______ ____

>  <TORSDO>
F 7

$$$$
=
 OpenBabel11072411253D

 35 39  0  0  1  0  0  0  0  0999 V2000
  161.2780  206.6190  150.9950 C   0  0  2  0  0  3  0  0  0  0  0  0
  160.3940  208.0450  154.1150 N   0  0  0  0  0  0  0  0  0  0  0  0
  161.2230  207.9620  152.9320 C   0  0  1  0  0  0  0  0  0  0  0  0
  162.3260  206.0360  151.9410 C   0  0  0  0  0  2  0  0  0  0  0  0
  160.4410  207.5980  151.7240 N   0  0  1  0  0  0  0  0  0  0  0  0
  161.0980  208.9240  151.8400 C   0  0  1  0  0  0  0  0  0  0  0  0
  161.8990  206.3280  154.2870 N   0  0  0  0  0  2  0  0  0  0  0  0
  160.8550  207.1080  154.8860 C   0  0  0  0  0  3  0  0  0  0  0  0
  162.1450  206.8620  153.1390 C   0  0  2  0  0  3  0  0  0  0  0  0
  160.1730  209.9490  152.0420 O   0  0  0  0  0  1  0  0  0  0  0  0
  160.4640  205.5730  150.4790 O   0  0  0  0  0  0  0  0  0  0  0  0
  161.3150  202.7870  148.2140 C   0  0  0  0  0  3  0  0  0  0  0  0
  160.8830  205.5190  148.0720 C   0  0  0  0  0  3  0  0  0  0  0  0
  161.0000  203.4920  149.3780 C   0  0  0  0  0  0  0  0  0  0  0  0
  160.7800  204.8700  149.3100 C   0  0  0  0  0  0  0  0  0  0  0  0
  161.2200  204.7870  146.9250 C   0  0  0  0  0  0  0  0  0  0  0  0
  161.4110  203.4410  147.0250 N   0  0  0  0  0  0  0  0  0  0  0  0
  160.9070  202.8350  150.5600 F   0  0  0  0  0  0  0  0  0  0  0  0
  161.2850  205.4580  145.5800 C   0  0  0  0  0  0  0  0  0  0  0  0
  160.4070  206.5440  145.5330 O   0  0  0  0  0  1  0  0  0  0  0  0
  162.5820  205.9160  145.3370 O   0  0  0  0  0  1  0  0  0  0  0  0
  160.9020  204.4650  144.5000 C   0  0  0  0  0  1  0  0  0  0  0  0
  162.3020  209.2170  150.9340 C   0  0  0  0  0  2  0  0  0  0  0  0
  161.8670  209.5030  149.5030 C   0  0  0  0  0  2  0  0  0  0  0  0
  160.9980  213.1120  149.3290 C   0  0  0  0  0  2  0  0  0  0  0  0
  161.0330  212.7310  147.8480 C   0  0  1  0  0  0  0  0  0  0  0  0
  161.3820  211.8780  150.1220 C   0  0  0  0  0  2  0  0  0  0  0  0
  161.4350  211.2630  147.8040 C   0  0  0  0  0  2  0  0  0  0  0  0
  159.6310  212.8930  147.2820 C   0  0  0  0  0  1  0  0  0  0  0  0
  162.0760  210.9640  149.1380 C   0  0  2  0  0  3  0  0  0  0  0  0
  162.9230  214.4530  147.7540 C   0  0  0  0  0  1  0  0  0  0  0  0
  161.9950  213.5490  147.0780 N   0  0  0  0  0  0  0  0  0  0  0  0
  162.0490  213.4810  145.6380 C   0  0  0  0  0  0  0  0  0  0  0  0
  162.8770  214.1820  144.9990 O   0  0  0  0  0  1  0  0  0  0  0  0
  161.1920  212.6430  144.9360 O   0  0  0  0  0  0  0  0  0  0  0  0
  1 11  1  1  0  0  0
  1  5  1  0  0  0  0
  1  4  1  0  0  0  0
  2  8  2  0  0  0  0
  3  9  1  0  0  0  0
  3  2  1  1  0  0  0
  4  9  1  0  0  0  0
  5  6  1  0  0  0  0
  5  3  1  0  0  0  0
  6 10  1  0  0  0  0
  6  3  1  0  0  0  0
  7  8  1  0  0  0  0
  9  7  1  0  0  0  0
 12 14  1  0  0  0  0
 13 15  1  0  0  0  0
 14 18  1  0  0  0  0
 15 14  2  0  0  0  0
 15 11  1  0  0  0  0
 16 17  1  0  0  0  0
 16 13  2  0  0  0  0
 17 12  2  0  0  0  0
 19 16  1  0  0  0  0
 20 19  1  0  0  0  0
 21 19  1  0  0  0  0
 22 19  1  0  0  0  0
 23  6  1  0  0  0  0
 24 23  1  0  0  0  0
 25 27  1  0  0  0  0
 26 25  1  0  0  0  0
 28 26  1  0  0  0  0
 28 30  1  0  0  0  0
 29 26  1  0  0  0  0
 30 24  1  0  0  0  0
 30 27  1  0  0  0  0
 32 31  1  0  0  0  0
 32 26  1  0  0  0  0
 33 32  1  0  0  0  0
 34 33  1  0  0  0  0
 35 33  2  0  0  0  0
M  END
>  <MODEL>
3

>  <REMARK>
 VINA RESULT:      -7.3      1.793      2.900
  Name = 
  7 active torsions:
  status: ('A' for Active; 'I' for Inactive)
    1  A    between atoms: C_3  and  O_17
    2  A    between atoms: C_4  and  C_21
    3  A    between atoms: C_4  and  C_34
    4  A    between atoms: C_5  and  C_24
    5  A    between atoms: N_7  and  C_10
    6  A    between atoms: O_17  and  C_18
    7  A    between atoms: C_21  and  C_23
                            x       y       z     vdW  Elec       q    Type
                         _______ _______ _______ _____ _____    ______ ____

>  <TORSDO>
F 7

$$$$
=
 OpenBabel11072411253D

 35 39  0  0  1  0  0  0  0  0999 V2000
  159.4770  211.5190  152.3600 C   0  0  2  0  0  3  0  0  0  0  0  0
  161.3950  211.3950  155.3360 N   0  0  0  0  0  0  0  0  0  0  0  0
  160.6760  210.7700  154.2470 C   0  0  1  0  0  0  0  0  0  0  0  0
  158.4290  211.1940  153.4240 C   0  0  0  0  0  2  0  0  0  0  0  0
  160.8240  211.5200  152.9740 N   0  0  1  0  0  0  0  0  0  0  0  0
  161.3750  210.1500  153.1240 C   0  0  1  0  0  0  0  0  0  0  0  0
  159.1360  211.4520  155.7050 N   0  0  0  0  0  2  0  0  0  0  0  0
  160.4620  211.7320  156.1740 C   0  0  0  0  0  3  0  0  0  0  0  0
  159.2660  210.8430  154.5750 C   0  0  2  0  0  3  0  0  0  0  0  0
  162.7680  210.1540  153.2040 O   0  0  0  0  0  1  0  0  0  0  0  0
  159.2020  212.7920  151.7890 O   0  0  0  0  0  0  0  0  0  0  0  0
  158.3100  213.6830  148.3220 C   0  0  0  0  0  3  0  0  0  0  0  0
  160.5590  212.9520  149.7630 C   0  0  0  0  0  3  0  0  0  0  0  0
  158.1910  213.4210  149.6880 C   0  0  0  0  0  0  0  0  0  0  0  0
  159.3240  213.0540  150.4200 C   0  0  0  0  0  0  0  0  0  0  0  0
  160.6410  213.2040  148.3870 C   0  0  0  0  0  0  0  0  0  0  0  0
  159.5190  213.5770  147.7080 N   0  0  0  0  0  0  0  0  0  0  0  0
  156.9830  213.5290  150.2950 F   0  0  0  0  0  0  0  0  0  0  0  0
  161.9660  213.1500  147.6770 C   0  0  0  0  0  0  0  0  0  0  0  0
  162.7400  212.0950  148.1670 O   0  0  0  0  0  1  0  0  0  0  0  0
  161.7660  212.9640  146.3060 O   0  0  0  0  0  1  0  0  0  0  0  0
  162.7100  214.4530  147.8940 C   0  0  0  0  0  1  0  0  0  0  0  0
  160.7070  209.0110  152.3400 C   0  0  0  0  0  2  0  0  0  0  0  0
  161.0790  207.6500  152.9100 C   0  0  0  0  0  2  0  0  0  0  0  0
  162.3630  206.7290  149.5460 C   0  0  0  0  0  2  0  0  0  0  0  0
  161.0230  205.9910  149.5780 C   0  0  1  0  0  0  0  0  0  0  0  0
  162.5360  207.4100  150.8900 C   0  0  0  0  0  2  0  0  0  0  0  0
  160.4280  206.2650  150.9520 C   0  0  0  0  0  2  0  0  0  0  0  0
  160.1260  206.5900  148.5050 C   0  0  0  0  0  1  0  0  0  0  0  0
  161.5780  206.7070  151.8250 C   0  0  2  0  0  3  0  0  0  0  0  0
  160.9570  203.5900  150.4590 C   0  0  0  0  0  1  0  0  0  0  0  0
  161.1750  204.5350  149.3660 N   0  0  0  0  0  0  0  0  0  0  0  0
  161.5420  204.0030  148.0770 C   0  0  0  0  0  0  0  0  0  0  0  0
  161.6630  202.7590  147.9140 O   0  0  0  0  0  1  0  0  0  0  0  0
  161.7660  204.8490  146.9980 O   0  0  0  0  0  0  0  0  0  0  0  0
  1 11  1  1  0  0  0
  1  5  1  0  0  0  0
  1  4  1  0  0  0  0
  2  8  2  0  0  0  0
  3  9  1  0  0  0  0
  3  2  1  1  0  0  0
  4  9  1  0  0  0  0
  5  6  1  0  0  0  0
  5  3  1  0  0  0  0
  6 10  1  0  0  0  0
  6  3  1  0  0  0  0
  7  8  1  0  0  0  0
  9  7  1  0  0  0  0
 12 14  1  0  0  0  0
 13 15  1  0  0  0  0
 14 18  1  0  0  0  0
 14 15  2  0  0  0  0
 15 11  1  0  0  0  0
 16 13  2  0  0  0  0
 17 12  2  0  0  0  0
 17 16  1  0  0  0  0
 19 22  1  0  0  0  0
 19 20  1  0  0  0  0
 19 16  1  0  0  0  0
 21 19  1  0  0  0  0
 23 24  1  0  0  0  0
 23  6  1  0  0  0  0
 25 26  1  0  0  0  0
 25 27  1  0  0  0  0
 26 28  1  0  0  0  0
 27 30  1  0  0  0  0
 28 30  1  0  0  0  0
 29 26  1  0  0  0  0
 30 24  1  0  0  0  0
 32 26  1  0  0  0  0
 32 31  1  0  0  0  0
 33 32  1  0  0  0  0
 34 33  1  0  0  0  0
 35 33  2  0  0  0  0
M  END
>  <MODEL>
4

>  <REMARK>
 VINA RESULT:      -7.0      2.968      7.972
  Name = 
  7 active torsions:
  status: ('A' for Active; 'I' for Inactive)
    1  A    between atoms: C_3  and  O_17
    2  A    between atoms: C_4  and  C_21
    3  A    between atoms: C_4  and  C_34
    4  A    between atoms: C_5  and  C_24
    5  A    between atoms: N_7  and  C_10
    6  A    between atoms: O_17  and  C_18
    7  A    between atoms: C_21  and  C_23
                            x       y       z     vdW  Elec       q    Type
                         _______ _______ _______ _____ _____    ______ ____

>  <TORSDO>
F 7

$$$$
=
 OpenBabel11072411253D

 35 39  0  0  1  0  0  0  0  0999 V2000
  159.5900  211.9050  152.8830 C   0  0  2  0  0  3  0  0  0  0  0  0
  159.8530  211.6790  156.4080 N   0  0  0  0  0  0  0  0  0  0  0  0
  159.7780  211.0920  155.0880 C   0  0  1  0  0  0  0  0  0  0  0  0
  158.1800  211.4910  153.3000 C   0  0  0  0  0  2  0  0  0  0  0  0
  160.4770  211.9150  154.0680 N   0  0  1  0  0  0  0  0  0  0  0  0
  160.9610  210.5570  154.4190 C   0  0  1  0  0  0  0  0  0  0  0  0
  157.6930  211.6450  155.6480 N   0  0  0  0  0  2  0  0  0  0  0  0
  158.6160  211.9410  156.7050 C   0  0  0  0  0  3  0  0  0  0  0  0
  158.3810  211.1030  154.7000 C   0  0  2  0  0  3  0  0  0  0  0  0
  162.1430  210.6000  155.1590 O   0  0  0  0  0  1  0  0  0  0  0  0
  159.5540  213.1990  152.2920 O   0  0  0  0  0  0  0  0  0  0  0  0
  158.2040  214.0620  148.9690 C   0  0  0  0  0  3  0  0  0  0  0  0
  160.5760  213.1530  150.0730 C   0  0  0  0  0  3  0  0  0  0  0  0
  158.2830  213.8590  150.3480 C   0  0  0  0  0  0  0  0  0  0  0  0
  159.4790  213.4020  150.9100 C   0  0  0  0  0  0  0  0  0  0  0  0
  160.4580  213.3490  148.6900 C   0  0  0  0  0  0  0  0  0  0  0  0
  159.2830  213.8120  148.1790 N   0  0  0  0  0  0  0  0  0  0  0  0
  157.2040  214.1090  151.1310 F   0  0  0  0  0  0  0  0  0  0  0  0
  161.6400  213.1370  147.7840 C   0  0  0  0  0  0  0  0  0  0  0  0
  161.2180  212.9540  146.4650 O   0  0  0  0  0  1  0  0  0  0  0  0
  162.4880  214.2460  147.8370 O   0  0  0  0  0  1  0  0  0  0  0  0
  162.4080  211.9080  148.2330 C   0  0  0  0  0  1  0  0  0  0  0  0
  160.8120  209.4420  153.3740 C   0  0  0  0  0  2  0  0  0  0  0  0
  160.6100  208.0840  154.0320 C   0  0  0  0  0  2  0  0  0  0  0  0
  162.7450  205.9410  151.8730 C   0  0  0  0  0  2  0  0  0  0  0  0
  161.8010  206.5710  150.8460 C   0  0  1  0  0  0  0  0  0  0  0  0
  162.3220  206.4400  153.2410 C   0  0  0  0  0  2  0  0  0  0  0  0
  160.8390  207.4420  151.6430 C   0  0  0  0  0  2  0  0  0  0  0  0
  162.6270  207.4440  149.9140 C   0  0  0  0  0  1  0  0  0  0  0  0
  160.9080  206.9460  153.0670 C   0  0  2  0  0  3  0  0  0  0  0  0
  160.3420  205.9210  148.8480 C   0  0  0  0  0  1  0  0  0  0  0  0
  161.0530  205.5570  150.0710 N   0  0  0  0  0  0  0  0  0  0  0  0
  161.0010  204.1800  150.4960 C   0  0  0  0  0  0  0  0  0  0  0  0
  160.3620  203.3300  149.8210 O   0  0  0  0  0  0  0  0  0  0  0  0
  161.6550  203.7700  151.6520 O   0  0  0  0  0  1  0  0  0  0  0  0
  1 11  1  1  0  0  0
  1  4  1  0  0  0  0
  1  5  1  0  0  0  0
  2  8  2  0  0  0  0
  3  2  1  1  0  0  0
  4  9  1  0  0  0  0
  5  6  1  0  0  0  0
  5  3  1  0  0  0  0
  6  3  1  0  0  0  0
  6 10  1  0  0  0  0
  7  8  1  0  0  0  0
  9  3  1  0  0  0  0
  9  7  1  0  0  0  0
 12 14  1  0  0  0  0
 13 15  1  0  0  0  0
 14 15  2  0  0  0  0
 14 18  1  0  0  0  0
 15 11  1  0  0  0  0
 16 13  2  0  0  0  0
 17 16  1  0  0  0  0
 17 12  2  0  0  0  0
 19 21  1  0  0  0  0
 19 22  1  0  0  0  0
 19 16  1  0  0  0  0
 20 19  1  0  0  0  0
 23 24  1  0  0  0  0
 23  6  1  0  0  0  0
 25 27  1  0  0  0  0
 26 28  1  0  0  0  0
 26 25  1  0  0  0  0
 28 30  1  0  0  0  0
 29 26  1  0  0  0  0
 30 27  1  0  0  0  0
 30 24  1  0  0  0  0
 31 32  1  0  0  0  0
 32 33  1  0  0  0  0
 32 26  1  0  0  0  0
 33 35  1  0  0  0  0
 34 33  2  0  0  0  0
M  END
>  <MODEL>
5

>  <REMARK>
 VINA RESULT:      -6.9      3.369      8.264
  Name = 
  7 active torsions:
  status: ('A' for Active; 'I' for Inactive)
    1  A    between atoms: C_3  and  O_17
    2  A    between atoms: C_4  and  C_21
    3  A    between atoms: C_4  and  C_34
    4  A    between atoms: C_5  and  C_24
    5  A    between atoms: N_7  and  C_10
    6  A    between atoms: O_17  and  C_18
    7  A    between atoms: C_21  and  C_23
                            x       y       z     vdW  Elec       q    Type
                         _______ _______ _______ _____ _____    ______ ____

>  <TORSDO>
F 7

$$$$
=
 OpenBabel11072411253D

 35 39  0  0  1  0  0  0  0  0999 V2000
  161.1420  204.3050  150.4960 C   0  0  2  0  0  3  0  0  0  0  0  0
  162.7230  207.4160  149.8890 N   0  0  0  0  0  0  0  0  0  0  0  0
  161.7810  206.5730  150.5910 C   0  0  1  0  0  0  0  0  0  0  0  0
  160.0810  205.0750  149.7110 C   0  0  0  0  0  2  0  0  0  0  0  0
  162.2940  205.1910  150.7750 N   0  0  1  0  0  0  0  0  0  0  0  0
  162.0530  206.0790  151.9390 C   0  0  1  0  0  0  0  0  0  0  0  0
  160.8240  207.0980  148.6490 N   0  0  0  0  0  2  0  0  0  0  0  0
  162.1030  207.7300  148.7910 C   0  0  0  0  0  3  0  0  0  0  0  0
  160.6150  206.4400  149.7390 C   0  0  2  0  0  3  0  0  0  0  0  0
  163.2440  206.5210  152.5150 O   0  0  0  0  0  1  0  0  0  0  0  0
  161.5690  203.1760  149.7440 O   0  0  0  0  0  0  0  0  0  0  0  0
  160.8080  201.7150  146.4420 C   0  0  0  0  0  3  0  0  0  0  0  0
  161.5410  204.1630  147.5080 C   0  0  0  0  0  3  0  0  0  0  0  0
  161.0040  201.8300  147.8200 C   0  0  0  0  0  0  0  0  0  0  0  0
  161.3730  203.0640  148.3620 C   0  0  0  0  0  0  0  0  0  0  0  0
  161.3550  204.0110  146.1280 C   0  0  0  0  0  0  0  0  0  0  0  0
  160.9790  202.7960  145.6360 N   0  0  0  0  0  0  0  0  0  0  0  0
  160.8330  200.7480  148.6190 F   0  0  0  0  0  0  0  0  0  0  0  0
  161.4810  205.1910  145.2030 C   0  0  0  0  0  0  0  0  0  0  0  0
  162.7100  205.8280  145.3910 O   0  0  0  0  0  1  0  0  0  0  0  0
  161.3900  204.7680  143.8750 O   0  0  0  0  0  1  0  0  0  0  0  0
  160.3630  206.1760  145.4850 C   0  0  0  0  0  1  0  0  0  0  0  0
  160.8880  205.7380  152.8800 C   0  0  0  0  0  2  0  0  0  0  0  0
  161.1160  206.3010  154.2760 C   0  0  0  0  0  2  0  0  0  0  0  0
  160.5250  209.9000  153.5590 C   0  0  0  0  0  2  0  0  0  0  0  0
  161.0090  209.9490  155.0100 C   0  0  1  0  0  0  0  0  0  0  0  0
  160.4690  208.4400  153.1510 C   0  0  0  0  0  2  0  0  0  0  0  0
  161.2350  208.5010  155.4240 C   0  0  0  0  0  2  0  0  0  0  0  0
  162.3300  210.7020  155.0450 C   0  0  0  0  0  1  0  0  0  0  0  0
  160.4520  207.6590  154.4450 C   0  0  2  0  0  3  0  0  0  0  0  0
  159.7090  210.0110  157.2130 C   0  0  0  0  0  1  0  0  0  0  0  0
  160.0280  210.5920  155.9100 N   0  0  0  0  0  0  0  0  0  0  0  0
  159.3550  211.8100  155.5330 C   0  0  0  0  0  0  0  0  0  0  0  0
  158.5250  212.3470  156.3150 O   0  0  0  0  0  1  0  0  0  0  0  0
  159.6120  212.4120  154.3070 O   0  0  0  0  0  0  0  0  0  0  0  0
  1 11  1  6  0  0  0
  1  5  1  0  0  0  0
  3  2  1  6  0  0  0
  3  5  1  0  0  0  0
  3  6  1  0  0  0  0
  4  9  1  0  0  0  0
  4  1  1  0  0  0  0
  5  6  1  0  0  0  0
  6 10  1  0  0  0  0
  6 23  1  0  0  0  0
  7  8  1  0  0  0  0
  7  9  1  0  0  0  0
  8  2  2  0  0  0  0
  9  3  1  0  0  0  0
 12 14  1  0  0  0  0
 13 15  1  0  0  0  0
 14 15  2  0  0  0  0
 14 18  1  0  0  0  0
 15 11  1  0  0  0  0
 16 13  2  0  0  0  0
 17 16  1  0  0  0  0
 17 12  2  0  0  0  0
 19 20  1  0  0  0  0
 19 22  1  0  0  0  0
 19 16  1  0  0  0  0
 21 19  1  0  0  0  0
 23 24  1  0  0  0  0
 24 30  1  0  0  0  0
 25 26  1  0  0  0  0
 26 29  1  0  0  0  0
 26 28  1  0  0  0  0
 26 32  1  0  0  0  0
 27 25  1  0  0  0  0
 27 30  1  0  0  0  0
 30 28  1  0  0  0  0
 32 31  1  0  0  0  0
 33 32  1  0  0  0  0
 33 34  1  0  0  0  0
 35 33  2  0  0  0  0
M  END
>  <MODEL>
6

>  <REMARK>
 VINA RESULT:      -6.9      3.924      6.124
  Name = 
  7 active torsions:
  status: ('A' for Active; 'I' for Inactive)
    1  A    between atoms: C_3  and  O_17
    2  A    between atoms: C_4  and  C_21
    3  A    between atoms: C_4  and  C_34
    4  A    between atoms: C_5  and  C_24
    5  A    between atoms: N_7  and  C_10
    6  A    between atoms: O_17  and  C_18
    7  A    between atoms: C_21  and  C_23
                            x       y       z     vdW  Elec       q    Type
                         _______ _______ _______ _____ _____    ______ ____

>  <TORSDO>
F 7

$$$$
=
 OpenBabel11072411253D

 35 39  0  0  1  0  0  0  0  0999 V2000
  160.9490  209.4460  152.0540 C   0  0  2  0  0  3  0  0  0  0  0  0
  161.9640  207.2130  154.6090 N   0  0  0  0  0  0  0  0  0  0  0  0
  161.2130  207.5410  153.4180 C   0  0  1  0  0  0  0  0  0  0  0  0
  159.7350  209.4210  152.9810 C   0  0  0  0  0  2  0  0  0  0  0  0
  161.9550  208.4670  152.5240 N   0  0  1  0  0  0  0  0  0  0  0  0
  161.6340  207.0830  152.0960 C   0  0  1  0  0  0  0  0  0  0  0  0
  160.0780  208.4040  155.1300 N   0  0  0  0  0  2  0  0  0  0  0  0
  161.2430  207.6950  155.5760 C   0  0  0  0  0  3  0  0  0  0  0  0
  160.0400  208.2770  153.8470 C   0  0  2  0  0  3  0  0  0  0  0  0
  162.7670  206.2680  152.0730 O   0  0  0  0  0  1  0  0  0  0  0  0
  161.5140  210.7520  152.0380 O   0  0  0  0  0  0  0  0  0  0  0  0
  159.7230  213.7160  150.7640 C   0  0  0  0  0  3  0  0  0  0  0  0
  161.5340  211.8320  149.8460 C   0  0  0  0  0  3  0  0  0  0  0  0
  160.1620  212.7100  151.6280 C   0  0  0  0  0  0  0  0  0  0  0  0
  161.0770  211.7590  151.1700 C   0  0  0  0  0  0  0  0  0  0  0  0
  161.0610  212.8430  148.9980 C   0  0  0  0  0  0  0  0  0  0  0  0
  160.1820  213.7650  149.4850 N   0  0  0  0  0  0  0  0  0  0  0  0
  159.7010  212.6670  152.9030 F   0  0  0  0  0  0  0  0  0  0  0  0
  161.5800  212.9670  147.5920 C   0  0  0  0  0  0  0  0  0  0  0  0
  160.8680  212.1280  146.7330 O   0  0  0  0  0  1  0  0  0  0  0  0
  161.4450  214.2850  147.1480 O   0  0  0  0  0  1  0  0  0  0  0  0
  163.0470  212.5830  147.5580 C   0  0  0  0  0  1  0  0  0  0  0  0
  160.5940  206.8910  150.9830 C   0  0  0  0  0  2  0  0  0  0  0  0
  161.1780  207.2110  149.6140 C   0  0  0  0  0  2  0  0  0  0  0  0
  161.5620  203.9280  147.9150 C   0  0  0  0  0  2  0  0  0  0  0  0
  161.8770  204.9030  146.7780 C   0  0  1  0  0  0  0  0  0  0  0  0
  161.1990  204.7560  149.1320 C   0  0  0  0  0  2  0  0  0  0  0  0
  161.6980  206.2970  147.3620 C   0  0  0  0  0  2  0  0  0  0  0  0
  163.3290  204.7040  146.3700 C   0  0  0  0  0  1  0  0  0  0  0  0
  160.8490  206.1260  148.5990 C   0  0  2  0  0  3  0  0  0  0  0  0
  160.4550  205.8660  144.8810 C   0  0  0  0  0  1  0  0  0  0  0  0
  160.9870  204.7170  145.6120 N   0  0  0  0  0  0  0  0  0  0  0  0
  160.6140  203.4000  145.1600 C   0  0  0  0  0  0  0  0  0  0  0  0
  159.8570  203.2600  144.1620 O   0  0  0  0  0  0  0  0  0  0  0  0
  161.0830  202.2660  145.8130 O   0  0  0  0  0  1  0  0  0  0  0  0
  1 11  1  1  0  0  0
  1  5  1  0  0  0  0
  1  4  1  0  0  0  0
  2  8  2  0  0  0  0
  3  9  1  0  0  0  0
  3  2  1  1  0  0  0
  4  9  1  0  0  0  0
  5  3  1  0  0  0  0
  6  5  1  0  0  0  0
  6  3  1  0  0  0  0
  7  8  1  0  0  0  0
  9  7  1  0  0  0  0
 10  6  1  0  0  0  0
 12 14  1  0  0  0  0
 13 15  1  0  0  0  0
 14 18  1  0  0  0  0
 15 14  2  0  0  0  0
 15 11  1  0  0  0  0
 16 17  1  0  0  0  0
 16 13  2  0  0  0  0
 17 12  2  0  0  0  0
 19 16  1  0  0  0  0
 20 19  1  0  0  0  0
 21 19  1  0  0  0  0
 22 19  1  0  0  0  0
 23  6  1  0  0  0  0
 24 23  1  0  0  0  0
 25 27  1  0  0  0  0
 26 28  1  0  0  0  0
 26 25  1  0  0  0  0
 28 30  1  0  0  0  0
 29 26  1  0  0  0  0
 30 27  1  0  0  0  0
 30 24  1  0  0  0  0
 31 32  1  0  0  0  0
 32 26  1  0  0  0  0
 33 32  1  0  0  0  0
 33 35  1  0  0  0  0
 34 33  2  0  0  0  0
M  END
>  <MODEL>
7

>  <REMARK>
 VINA RESULT:      -6.3      2.563      7.695
  Name = 
  7 active torsions:
  status: ('A' for Active; 'I' for Inactive)
    1  A    between atoms: C_3  and  O_17
    2  A    between atoms: C_4  and  C_21
    3  A    between atoms: C_4  and  C_34
    4  A    between atoms: C_5  and  C_24
    5  A    between atoms: N_7  and  C_10
    6  A    between atoms: O_17  and  C_18
    7  A    between atoms: C_21  and  C_23
                            x       y       z     vdW  Elec       q    Type
                         _______ _______ _______ _____ _____    ______ ____

>  <TORSDO>
F 7

$$$$
=
 OpenBabel11072411253D

 35 39  0  0  1  0  0  0  0  0999 V2000
  161.0220  205.9460  150.9980 C   0  0  2  0  0  3  0  0  0  0  0  0
  162.7170  208.3700  149.0480 N   0  0  0  0  0  0  0  0  0  0  0  0
  161.6780  207.9640  149.9690 C   0  0  1  0  0  0  0  0  0  0  0  0
  160.0850  206.1360  149.8060 C   0  0  0  0  0  2  0  0  0  0  0  0
  162.1420  206.9110  150.9080 N   0  0  1  0  0  0  0  0  0  0  0  0
  161.7630  208.2590  151.3980 C   0  0  1  0  0  0  0  0  0  0  0  0
  160.9920  207.3480  147.9410 N   0  0  0  0  0  2  0  0  0  0  0  0
  162.2520  208.0320  147.8840 C   0  0  0  0  0  3  0  0  0  0  0  0
  160.6320  207.3430  149.1800 C   0  0  2  0  0  3  0  0  0  0  0  0
  162.8760  209.0020  151.7950 O   0  0  0  0  0  1  0  0  0  0  0  0
  161.5260  204.6160  151.0050 O   0  0  0  0  0  0  0  0  0  0  0  0
  160.7600  201.5220  149.1470 C   0  0  0  0  0  3  0  0  0  0  0  0
  161.5380  204.1250  148.6110 C   0  0  0  0  0  3  0  0  0  0  0  0
  160.9480  202.4120  150.2070 C   0  0  0  0  0  0  0  0  0  0  0  0
  161.3390  203.7270  149.9400 C   0  0  0  0  0  0  0  0  0  0  0  0
  161.3600  203.2020  147.5710 C   0  0  0  0  0  0  0  0  0  0  0  0
  160.9610  201.9330  147.8670 N   0  0  0  0  0  0  0  0  0  0  0  0
  160.7460  201.9960  151.4820 F   0  0  0  0  0  0  0  0  0  0  0  0
  161.5200  203.6260  146.1360 C   0  0  0  0  0  0  0  0  0  0  0  0
  161.1150  202.6020  145.2770 O   0  0  0  0  0  1  0  0  0  0  0  0
  160.7430  204.7600  145.8850 O   0  0  0  0  0  1  0  0  0  0  0  0
  162.9750  203.9540  145.8650 C   0  0  0  0  0  1  0  0  0  0  0  0
  160.4800  208.3940  152.2300 C   0  0  0  0  0  2  0  0  0  0  0  0
  160.7870  208.4670  153.7200 C   0  0  0  0  0  2  0  0  0  0  0  0
  159.1800  210.9010  156.0220 C   0  0  0  0  0  2  0  0  0  0  0  0
  158.5940  211.3200  154.6720 C   0  0  1  0  0  0  0  0  0  0  0  0
  160.1500  209.7650  155.7610 C   0  0  0  0  0  2  0  0  0  0  0  0
  159.2350  210.4050  153.6370 C   0  0  0  0  0  2  0  0  0  0  0  0
  157.0940  211.0770  154.7090 C   0  0  0  0  0  1  0  0  0  0  0  0
  160.4770  209.8430  154.2870 C   0  0  2  0  0  3  0  0  0  0  0  0
  159.3400  213.6630  155.3800 C   0  0  0  0  0  1  0  0  0  0  0  0
  158.8770  212.7360  154.3500 N   0  0  0  0  0  0  0  0  0  0  0  0
  158.7050  213.2460  153.0120 C   0  0  0  0  0  0  0  0  0  0  0  0
  158.9540  214.4530  152.7550 O   0  0  0  0  0  1  0  0  0  0  0  0
  158.2650  212.4150  151.9880 O   0  0  0  0  0  0  0  0  0  0  0  0
  1 11  1  6  0  0  0
  3  2  1  6  0  0  0
  3  5  1  0  0  0  0
  3  6  1  0  0  0  0
  4  1  1  0  0  0  0
  5  1  1  0  0  0  0
  5  6  1  0  0  0  0
  6 10  1  0  0  0  0
  6 23  1  0  0  0  0
  7  9  1  0  0  0  0
  8  7  1  0  0  0  0
  8  2  2  0  0  0  0
  9  4  1  0  0  0  0
  9  3  1  0  0  0  0
 12 14  1  0  0  0  0
 13 15  1  0  0  0  0
 14 18  1  0  0  0  0
 15 14  2  0  0  0  0
 15 11  1  0  0  0  0
 16 17  1  0  0  0  0
 16 13  2  0  0  0  0
 17 12  2  0  0  0  0
 19 16  1  0  0  0  0
 20 19  1  0  0  0  0
 21 19  1  0  0  0  0
 22 19  1  0  0  0  0
 23 24  1  0  0  0  0
 24 30  1  0  0  0  0
 26 29  1  0  0  0  0
 26 25  1  0  0  0  0
 27 25  1  0  0  0  0
 28 30  1  0  0  0  0
 28 26  1  0  0  0  0
 30 27  1  0  0  0  0
 32 26  1  0  0  0  0
 32 31  1  0  0  0  0
 33 32  1  0  0  0  0
 34 33  1  0  0  0  0
 35 33  2  0  0  0  0
M  END
>  <MODEL>
8

>  <REMARK>
 VINA RESULT:      -6.1      3.830      5.425
  Name = 
  7 active torsions:
  status: ('A' for Active; 'I' for Inactive)
    1  A    between atoms: C_3  and  O_17
    2  A    between atoms: C_4  and  C_21
    3  A    between atoms: C_4  and  C_34
    4  A    between atoms: C_5  and  C_24
    5  A    between atoms: N_7  and  C_10
    6  A    between atoms: O_17  and  C_18
    7  A    between atoms: C_21  and  C_23
                            x       y       z     vdW  Elec       q    Type
                         _______ _______ _______ _____ _____    ______ ____

>  <TORSDO>
F 7

$$$$
=
 OpenBabel11072411253D

 35 39  0  0  1  0  0  0  0  0999 V2000
  161.2570  205.7060  150.8260 C   0  0  2  0  0  3  0  0  0  0  0  0
  162.5530  207.8290  148.3040 N   0  0  0  0  0  0  0  0  0  0  0  0
  161.6680  207.5490  149.4130 C   0  0  1  0  0  0  0  0  0  0  0  0
  160.1620  205.6730  149.7610 C   0  0  0  0  0  2  0  0  0  0  0  0
  162.3040  206.6750  150.4310 N   0  0  1  0  0  0  0  0  0  0  0  0
  161.9260  208.0740  150.7520 C   0  0  1  0  0  0  0  0  0  0  0  0
  160.7520  206.5920  147.6210 N   0  0  0  0  0  2  0  0  0  0  0  0
  161.9560  207.2940  147.2830 C   0  0  0  0  0  3  0  0  0  0  0  0
  160.5600  206.7780  148.8840 C   0  0  2  0  0  3  0  0  0  0  0  0
  163.0420  208.9030  150.8690 O   0  0  0  0  0  1  0  0  0  0  0  0
  161.8250  204.4100  150.9710 O   0  0  0  0  0  0  0  0  0  0  0  0
  160.3450  201.0880  150.3520 C   0  0  0  0  0  3  0  0  0  0  0  0
  161.3510  203.2150  148.8930 C   0  0  0  0  0  3  0  0  0  0  0  0
  160.8310  202.2100  151.0260 C   0  0  0  0  0  0  0  0  0  0  0  0
  161.3380  203.2870  150.2930 C   0  0  0  0  0  0  0  0  0  0  0  0
  160.8720  202.0670  148.2470 C   0  0  0  0  0  0  0  0  0  0  0  0
  160.3690  201.0430  148.9930 N   0  0  0  0  0  0  0  0  0  0  0  0
  160.8040  202.2490  152.3810 F   0  0  0  0  0  0  0  0  0  0  0  0
  160.8310  201.9940  146.7450 C   0  0  0  0  0  0  0  0  0  0  0  0
  161.4230  200.8110  146.2970 O   0  0  0  0  0  1  0  0  0  0  0  0
  159.5070  202.0320  146.3020 O   0  0  0  0  0  1  0  0  0  0  0  0
  161.5810  203.1760  146.1610 C   0  0  0  0  0  1  0  0  0  0  0  0
  160.7590  208.3040  151.7230 C   0  0  0  0  0  2  0  0  0  0  0  0
  160.5640  209.7850  152.0190 C   0  0  0  0  0  2  0  0  0  0  0  0
  160.0740  209.3500  155.6770 C   0  0  0  0  0  2  0  0  0  0  0  0
  159.5220  210.7600  155.4570 C   0  0  1  0  0  0  0  0  0  0  0  0
  160.5920  208.8540  154.3410 C   0  0  0  0  0  2  0  0  0  0  0  0
  159.7230  211.0610  153.9780 C   0  0  0  0  0  2  0  0  0  0  0  0
  158.0350  210.7440  155.7760 C   0  0  0  0  0  1  0  0  0  0  0  0
  160.7750  210.0920  153.4940 C   0  0  2  0  0  3  0  0  0  0  0  0
  161.2910  211.3900  157.1950 C   0  0  0  0  0  1  0  0  0  0  0  0
  160.2140  211.7720  156.2850 N   0  0  0  0  0  0  0  0  0  0  0  0
  159.8490  213.1650  156.2210 C   0  0  0  0  0  0  0  0  0  0  0  0
  160.4510  214.0140  156.9300 O   0  0  0  0  0  1  0  0  0  0  0  0
  158.8310  213.5940  155.3760 O   0  0  0  0  0  0  0  0  0  0  0  0
  1 11  1  6  0  0  0
  3  2  1  6  0  0  0
  3  5  1  0  0  0  0
  3  6  1  0  0  0  0
  4  1  1  0  0  0  0
  5  6  1  0  0  0  0
  5  1  1  0  0  0  0
  6 10  1  0  0  0  0
  6 23  1  0  0  0  0
  7  9  1  0  0  0  0
  8  7  1  0  0  0  0
  8  2  2  0  0  0  0
  9  3  1  0  0  0  0
  9  4  1  0  0  0  0
 12 14  1  0  0  0  0
 13 15  1  0  0  0  0
 14 18  1  0  0  0  0
 15 11  1  0  0  0  0
 15 14  2  0  0  0  0
 16 13  2  0  0  0  0
 16 17  1  0  0  0  0
 17 12  2  0  0  0  0
 19 16  1  0  0  0  0
 20 19  1  0  0  0  0
 21 19  1  0  0  0  0
 22 19  1  0  0  0  0
 23 24  1  0  0  0  0
 24 30  1  0  0  0  0
 26 25  1  0  0  0  0
 26 29  1  0  0  0  0
 26 32  1  0  0  0  0
 27 25  1  0  0  0  0
 28 26  1  0  0  0  0
 30 28  1  0  0  0  0
 30 27  1  0  0  0  0
 32 31  1  0  0  0  0
 33 32  1  0  0  0  0
 33 34  1  0  0  0  0
 35 33  2  0  0  0  0
M  END
>  <MODEL>
9

>  <REMARK>
 VINA RESULT:      -6.0      3.892      6.080
  Name = 
  7 active torsions:
  status: ('A' for Active; 'I' for Inactive)
    1  A    between atoms: C_3  and  O_17
    2  A    between atoms: C_4  and  C_21
    3  A    between atoms: C_4  and  C_34
    4  A    between atoms: C_5  and  C_24
    5  A    between atoms: N_7  and  C_10
    6  A    between atoms: O_17  and  C_18
    7  A    between atoms: C_21  and  C_23
                            x       y       z     vdW  Elec       q    Type
                         _______ _______ _______ _____ _____    ______ ____

>  <TORSDO>
F 7

$$$$
