=
 OpenBabel11072411363D

 25 26  0  0  1  0  0  0  0  0999 V2000
  159.9380  206.0250  148.0900 O   0  0  0  0  0  1  0  0  0  0  0  0
  161.1020  205.8600  148.8450 C   0  0  1  0  0  3  0  0  0  0  0  0
  161.2790  208.5440  152.5350 C   0  0  0  0  0  0  0  0  0  0  0  0
  162.7070  208.0600  148.3450 O   0  0  0  0  0  1  0  0  0  0  0  0
  161.0070  206.3510  153.5570 C   0  0  0  0  0  3  0  0  0  0  0  0
  161.2000  207.1260  152.4080 C   0  0  0  0  0  0  0  0  0  0  0  0
  160.8620  206.9430  154.8110 C   0  0  0  0  0  3  0  0  0  0  0  0
  162.3610  207.9290  149.6910 C   0  0  1  0  0  3  0  0  0  0  0  0
  161.2930  206.4240  151.2010 O   0  0  0  0  0  0  0  0  0  0  0  0
  161.9880  209.2680  150.2160 C   0  0  0  0  0  3  0  0  0  0  0  0
  160.9090  208.3290  154.9330 C   0  0  0  0  0  3  0  0  0  0  0  0
  161.5340  209.5090  151.4460 C   0  0  0  0  0  3  0  0  0  0  0  0
  161.1160  209.1190  153.8010 C   0  0  0  0  0  3  0  0  0  0  0  0
  161.1810  206.9820  149.9000 C   0  0  2  0  0  3  0  0  0  0  0  0
  161.0970  204.4640  149.4880 C   0  0  1  0  0  3  0  0  0  0  0  0
  160.2060  204.3990  150.5650 O   0  0  0  0  0  1  0  0  0  0  0  0
  160.8010  203.3490  148.4640 C   0  0  2  0  0  3  0  0  0  0  0  0
  161.2810  200.8790  148.3080 C   0  0  0  0  0  1  0  0  0  0  0  0
  161.0840  201.9460  150.4210 O   0  0  0  0  0  1  0  0  0  0  0  0
  159.2390  201.6370  149.1550 F   0  0  0  0  0  0  0  0  0  0  0  0
  160.5840  201.9570  149.1170 C   0  0  1  0  0  0  0  0  0  0  0  0
  161.2110  203.3380  145.9620 C   0  0  0  0  0  1  0  0  0  0  0  0
  161.8570  203.3530  147.3370 C   0  0  1  0  0  3  0  0  0  0  0  0
  162.7040  204.5340  147.4320 N   0  0  0  0  0  2  0  0  0  0  0  0
  163.1160  204.8740  146.0810 C   0  0  0  0  0  1  0  0  0  0  0  0
  2  1  1  1  0  0  0
  2 15  1  0  0  0  0
  3 13  1  0  0  0  0
  5  7  2  0  0  0  0
  6  3  2  0  0  0  0
  6  5  1  0  0  0  0
  7 11  1  0  0  0  0
  8  4  1  6  0  0  0
  8 14  1  0  0  0  0
  8 10  1  0  0  0  0
  9  6  1  0  0  0  0
 10 12  2  0  0  0  0
 12  3  1  0  0  0  0
 13 11  2  0  0  0  0
 14  2  1  6  0  0  0
 14  9  1  0  0  0  0
 15 16  1  1  0  0  0
 17 23  1  6  0  0  0
 17 21  1  0  0  0  0
 17 15  1  0  0  0  0
 21 18  1  6  0  0  0
 21 20  1  0  0  0  0
 21 19  1  0  0  0  0
 23 22  1  6  0  0  0
 23 24  1  0  0  0  0
 25 24  1  0  0  0  0
M  END
>  <MODEL>
1

>  <REMARK>
 VINA RESULT:      -8.3      0.000      0.000
  Name = 
  6 active torsions:
  status: ('A' for Active; 'I' for Inactive)
    1  A    between atoms: N_1  and  C_21
    2  A    between atoms: C_9  and  C_10
    3  A    between atoms: C_9  and  C_25
    4  A    between atoms: C_10  and  C_23
    5  A    between atoms: C_21  and  C_23
    6  A    between atoms: C_23  and  C_24
                            x       y       z     vdW  Elec       q    Type
                         _______ _______ _______ _____ _____    ______ ____

>  <TORSDO>
F 6

$$$$
=
 OpenBabel11072411363D

 25 26  0  0  1  0  0  0  0  0999 V2000
  162.0410  208.3600  148.6370 O   0  0  0  0  0  1  0  0  0  0  0  0
  161.2860  207.4300  149.3570 C   0  0  1  0  0  3  0  0  0  0  0  0
  161.2980  203.0560  148.0460 C   0  0  0  0  0  0  0  0  0  0  0  0
  160.6440  207.2400  146.6700 O   0  0  0  0  0  1  0  0  0  0  0  0
  160.6120  202.8510  150.3740 C   0  0  0  0  0  3  0  0  0  0  0  0
  160.9200  203.6660  149.2780 C   0  0  0  0  0  0  0  0  0  0  0  0
  160.6980  201.4620  150.2860 C   0  0  0  0  0  3  0  0  0  0  0  0
  160.6550  206.0040  147.3200 C   0  0  1  0  0  3  0  0  0  0  0  0
  160.8370  205.0460  149.4950 O   0  0  0  0  0  0  0  0  0  0  0  0
  161.3440  205.0180  146.4480 C   0  0  0  0  0  3  0  0  0  0  0  0
  161.0960  200.8660  149.0940 C   0  0  0  0  0  3  0  0  0  0  0  0
  161.6020  203.7520  146.7790 C   0  0  0  0  0  3  0  0  0  0  0  0
  161.3930  201.6600  147.9850 C   0  0  0  0  0  3  0  0  0  0  0  0
  161.3820  206.0570  148.6610 C   0  0  2  0  0  3  0  0  0  0  0  0
  161.7910  207.3780  150.8070 C   0  0  1  0  0  3  0  0  0  0  0  0
  163.0780  207.9150  150.9210 O   0  0  0  0  0  1  0  0  0  0  0  0
  160.8210  208.0650  151.7910 C   0  0  2  0  0  3  0  0  0  0  0  0
  159.9700  210.2600  152.6900 C   0  0  0  0  0  1  0  0  0  0  0  0
  162.2780  209.7130  152.8130 O   0  0  0  0  0  1  0  0  0  0  0  0
  161.3570  210.2100  150.8110 F   0  0  0  0  0  0  0  0  0  0  0  0
  161.1390  209.5680  152.0170 C   0  0  1  0  0  0  0  0  0  0  0  0
  161.1950  205.8220  152.9100 C   0  0  0  0  0  1  0  0  0  0  0  0
  160.7040  207.2480  153.0950 C   0  0  1  0  0  3  0  0  0  0  0  0
  161.4810  207.8660  154.1610 N   0  0  0  0  0  2  0  0  0  0  0  0
  160.7120  207.7260  155.3860 C   0  0  0  0  0  1  0  0  0  0  0  0
  2  1  1  6  0  0  0
  2 15  1  0  0  0  0
  3  6  1  0  0  0  0
  6  9  1  0  0  0  0
  6  5  2  0  0  0  0
  7  5  1  0  0  0  0
  8  4  1  6  0  0  0
  8 14  1  0  0  0  0
 10 12  2  0  0  0  0
 10  8  1  0  0  0  0
 11  7  2  0  0  0  0
 12  3  1  0  0  0  0
 13  3  2  0  0  0  0
 13 11  1  0  0  0  0
 14  2  1  1  0  0  0
 14  9  1  0  0  0  0
 15 16  1  6  0  0  0
 17 15  1  6  0  0  0
 17 21  1  0  0  0  0
 17 23  1  0  0  0  0
 20 21  1  0  0  0  0
 21 18  1  1  0  0  0
 21 19  1  0  0  0  0
 23 22  1  6  0  0  0
 23 24  1  0  0  0  0
 24 25  1  0  0  0  0
M  END
>  <MODEL>
2

>  <REMARK>
 VINA RESULT:      -8.2      2.737      6.644
  Name = 
  6 active torsions:
  status: ('A' for Active; 'I' for Inactive)
    1  A    between atoms: N_1  and  C_21
    2  A    between atoms: C_9  and  C_10
    3  A    between atoms: C_9  and  C_25
    4  A    between atoms: C_10  and  C_23
    5  A    between atoms: C_21  and  C_23
    6  A    between atoms: C_23  and  C_24
                            x       y       z     vdW  Elec       q    Type
                         _______ _______ _______ _____ _____    ______ ____

>  <TORSDO>
F 6

$$$$
=
 OpenBabel11072411363D

 25 26  0  0  1  0  0  0  0  0999 V2000
  162.5140  207.7860  149.2330 O   0  0  0  0  0  1  0  0  0  0  0  0
  162.2620  206.6120  149.9480 C   0  0  1  0  0  3  0  0  0  0  0  0
  160.8230  208.3850  153.9020 C   0  0  0  0  0  0  0  0  0  0  0  0
  161.5870  204.5850  151.7100 O   0  0  0  0  0  1  0  0  0  0  0  0
  160.1120  210.1000  152.3270 C   0  0  0  0  0  3  0  0  0  0  0  0
  160.6710  208.8380  152.5590 C   0  0  0  0  0  0  0  0  0  0  0  0
  159.7330  210.9270  153.3840 C   0  0  0  0  0  3  0  0  0  0  0  0
  161.1900  205.8490  152.1500 C   0  0  1  0  0  3  0  0  0  0  0  0
  161.0490  208.1150  151.4220 O   0  0  0  0  0  0  0  0  0  0  0  0
  161.5120  205.9690  153.5960 C   0  0  0  0  0  3  0  0  0  0  0  0
  159.9090  210.4980  154.6970 C   0  0  0  0  0  3  0  0  0  0  0  0
  161.3370  207.0670  154.3300 C   0  0  0  0  0  3  0  0  0  0  0  0
  160.4500  209.2370  154.9490 C   0  0  0  0  0  3  0  0  0  0  0  0
  161.8970  206.9760  151.4010 C   0  0  2  0  0  3  0  0  0  0  0  0
  161.1420  205.8240  149.2520 C   0  0  1  0  0  3  0  0  0  0  0  0
  160.2050  206.6790  148.6610 O   0  0  0  0  0  1  0  0  0  0  0  0
  161.6880  204.8140  148.2210 C   0  0  2  0  0  3  0  0  0  0  0  0
  163.1560  204.7950  146.1730 C   0  0  0  0  0  1  0  0  0  0  0  0
  160.8370  205.2770  145.9990 O   0  0  0  0  0  1  0  0  0  0  0  0
  162.2210  206.7940  146.9390 F   0  0  0  0  0  0  0  0  0  0  0  0
  161.9500  205.4420  146.8260 C   0  0  1  0  0  0  0  0  0  0  0  0
  161.5060  202.3960  147.4830 C   0  0  0  0  0  1  0  0  0  0  0  0
  160.8040  203.5490  148.1820 C   0  0  1  0  0  3  0  0  0  0  0  0
  160.4560  203.1230  149.5310 N   0  0  0  0  0  2  0  0  0  0  0  0
  160.1050  201.7150  149.4570 C   0  0  0  0  0  1  0  0  0  0  0  0
  2  1  1  6  0  0  0
  3 12  1  0  0  0  0
  3 13  1  0  0  0  0
  5  6  1  0  0  0  0
  5  7  2  0  0  0  0
  6  3  2  0  0  0  0
  7 11  1  0  0  0  0
  8  4  1  6  0  0  0
  8 10  1  0  0  0  0
  9  6  1  0  0  0  0
 10 12  2  0  0  0  0
 11 13  2  0  0  0  0
 14  2  1  6  0  0  0
 14  9  1  0  0  0  0
 14  8  1  0  0  0  0
 15 16  1  6  0  0  0
 15  2  1  0  0  0  0
 17 23  1  6  0  0  0
 17 15  1  0  0  0  0
 19 21  1  0  0  0  0
 21 18  1  6  0  0  0
 21 20  1  0  0  0  0
 21 17  1  0  0  0  0
 23 22  1  1  0  0  0
 23 24  1  0  0  0  0
 25 24  1  0  0  0  0
M  END
>  <MODEL>
3

>  <REMARK>
 VINA RESULT:      -7.8      1.954      3.556
  Name = 
  6 active torsions:
  status: ('A' for Active; 'I' for Inactive)
    1  A    between atoms: N_1  and  C_21
    2  A    between atoms: C_9  and  C_10
    3  A    between atoms: C_9  and  C_25
    4  A    between atoms: C_10  and  C_23
    5  A    between atoms: C_21  and  C_23
    6  A    between atoms: C_23  and  C_24
                            x       y       z     vdW  Elec       q    Type
                         _______ _______ _______ _____ _____    ______ ____

>  <TORSDO>
F 6

$$$$
=
 OpenBabel11072411363D

 25 26  0  0  1  0  0  0  0  0999 V2000
  162.7720  208.7680  151.0400 O   0  0  0  0  0  1  0  0  0  0  0  0
  161.6020  208.0050  151.0700 C   0  0  1  0  0  3  0  0  0  0  0  0
  161.4330  204.2870  148.4250 C   0  0  0  0  0  0  0  0  0  0  0  0
  161.3900  208.7390  148.4080 O   0  0  0  0  0  1  0  0  0  0  0  0
  160.3620  203.4730  150.4550 C   0  0  0  0  0  3  0  0  0  0  0  0
  160.9160  204.5350  149.7300 C   0  0  0  0  0  0  0  0  0  0  0  0
  160.3360  202.1800  149.9330 C   0  0  0  0  0  3  0  0  0  0  0  0
  161.1840  207.3750  148.6180 C   0  0  1  0  0  3  0  0  0  0  0  0
  160.9230  205.7790  150.3710 O   0  0  0  0  0  0  0  0  0  0  0  0
  161.9140  206.6190  147.5680 C   0  0  0  0  0  3  0  0  0  0  0  0
  160.8670  201.9300  148.6720 C   0  0  0  0  0  3  0  0  0  0  0  0
  162.0000  205.2900  147.5010 C   0  0  0  0  0  3  0  0  0  0  0  0
  161.4100  202.9780  147.9270 C   0  0  0  0  0  3  0  0  0  0  0  0
  161.6850  206.9130  149.9850 C   0  0  2  0  0  3  0  0  0  0  0  0
  161.4190  207.4090  152.4740 C   0  0  1  0  0  3  0  0  0  0  0  0
  162.3070  206.3510  152.7010 O   0  0  0  0  0  1  0  0  0  0  0  0
  161.5420  208.4750  153.5840 C   0  0  2  0  0  3  0  0  0  0  0  0
  160.3190  206.6430  154.8100 C   0  0  0  0  0  1  0  0  0  0  0  0
  161.7730  208.1190  155.9710 O   0  0  0  0  0  1  0  0  0  0  0  0
  159.7920  208.8860  155.2020 F   0  0  0  0  0  0  0  0  0  0  0  0
  160.8610  208.0560  154.9150 C   0  0  1  0  0  0  0  0  0  0  0  0
  159.5830  209.9330  152.9020 C   0  0  0  0  0  1  0  0  0  0  0  0
  161.0930  209.8560  153.0600 C   0  0  1  0  0  3  0  0  0  0  0  0
  161.5130  210.9130  153.9700 N   0  0  0  0  0  2  0  0  0  0  0  0
  160.3880  211.8190  154.1200 C   0  0  0  0  0  1  0  0  0  0  0  0
  2  1  1  1  0  0  0
  2 15  1  0  0  0  0
  3  6  1  0  0  0  0
  6  9  1  0  0  0  0
  6  5  2  0  0  0  0
  7  5  1  0  0  0  0
  8  4  1  6  0  0  0
  8 14  1  0  0  0  0
 10  8  1  0  0  0  0
 11  7  2  0  0  0  0
 12 10  2  0  0  0  0
 12  3  1  0  0  0  0
 13  3  2  0  0  0  0
 13 11  1  0  0  0  0
 14  9  1  0  0  0  0
 14  2  1  1  0  0  0
 15 16  1  1  0  0  0
 17 15  1  6  0  0  0
 17 21  1  0  0  0  0
 21 18  1  6  0  0  0
 21 20  1  0  0  0  0
 21 19  1  0  0  0  0
 23 22  1  1  0  0  0
 23 17  1  0  0  0  0
 23 24  1  0  0  0  0
 24 25  1  0  0  0  0
M  END
>  <MODEL>
4

>  <REMARK>
 VINA RESULT:      -7.8      3.127      6.692
  Name = 
  6 active torsions:
  status: ('A' for Active; 'I' for Inactive)
    1  A    between atoms: N_1  and  C_21
    2  A    between atoms: C_9  and  C_10
    3  A    between atoms: C_9  and  C_25
    4  A    between atoms: C_10  and  C_23
    5  A    between atoms: C_21  and  C_23
    6  A    between atoms: C_23  and  C_24
                            x       y       z     vdW  Elec       q    Type
                         _______ _______ _______ _____ _____    ______ ____

>  <TORSDO>
F 6

$$$$
=
 OpenBabel11072411363D

 25 26  0  0  1  0  0  0  0  0999 V2000
  163.0550  207.7810  150.4760 O   0  0  0  0  0  1  0  0  0  0  0  0
  161.7680  207.2400  150.5280 C   0  0  1  0  0  3  0  0  0  0  0  0
  161.2290  203.3240  148.2410 C   0  0  0  0  0  0  0  0  0  0  0  0
  160.9470  207.7570  147.9340 O   0  0  0  0  0  1  0  0  0  0  0  0
  160.6660  202.6310  150.5070 C   0  0  0  0  0  3  0  0  0  0  0  0
  160.9940  203.6540  149.6080 C   0  0  0  0  0  0  0  0  0  0  0  0
  160.5960  201.3020  150.0930 C   0  0  0  0  0  3  0  0  0  0  0  0
  160.8640  206.4060  148.2760 C   0  0  1  0  0  3  0  0  0  0  0  0
  161.0730  204.9430  150.1460 O   0  0  0  0  0  0  0  0  0  0  0  0
  161.3890  205.5990  147.1440 C   0  0  0  0  0  3  0  0  0  0  0  0
  160.8550  200.9750  148.7650 C   0  0  0  0  0  3  0  0  0  0  0  0
  161.5280  204.2730  147.1490 C   0  0  0  0  0  3  0  0  0  0  0  0
  161.1680  201.9810  147.8500 C   0  0  0  0  0  3  0  0  0  0  0  0
  161.6730  206.0710  149.5270 C   0  0  2  0  0  3  0  0  0  0  0  0
  161.4620  206.7940  151.9650 C   0  0  1  0  0  3  0  0  0  0  0  0
  162.6140  206.3400  152.6170 O   0  0  0  0  0  1  0  0  0  0  0  0
  160.7670  207.9000  152.7870 C   0  0  2  0  0  3  0  0  0  0  0  0
  159.9250  210.2740  152.7160 C   0  0  0  0  0  1  0  0  0  0  0  0
  162.2510  209.8080  152.5950 O   0  0  0  0  0  1  0  0  0  0  0  0
  160.9240  209.3170  150.8340 F   0  0  0  0  0  0  0  0  0  0  0  0
  160.9970  209.3250  152.2150 C   0  0  1  0  0  0  0  0  0  0  0  0
  160.9000  209.0670  155.0330 C   0  0  0  0  0  1  0  0  0  0  0  0
  161.1180  207.7630  154.2850 C   0  0  1  0  0  3  0  0  0  0  0  0
  160.3020  206.7320  154.9120 N   0  0  0  0  0  2  0  0  0  0  0  0
  159.8160  207.2780  156.1670 C   0  0  0  0  0  1  0  0  0  0  0  0
  2  1  1  1  0  0  0
  2 15  1  0  0  0  0
  3  6  1  0  0  0  0
  6  9  1  0  0  0  0
  6  5  2  0  0  0  0
  7  5  1  0  0  0  0
  8  4  1  6  0  0  0
  8 14  1  0  0  0  0
 10 12  2  0  0  0  0
 10  8  1  0  0  0  0
 11  7  2  0  0  0  0
 12  3  1  0  0  0  0
 13  3  2  0  0  0  0
 13 11  1  0  0  0  0
 14  9  1  0  0  0  0
 14  2  1  1  0  0  0
 15 16  1  1  0  0  0
 17 15  1  6  0  0  0
 17 23  1  0  0  0  0
 20 21  1  0  0  0  0
 21 19  1  0  0  0  0
 21 18  1  1  0  0  0
 21 17  1  0  0  0  0
 23 24  1  0  0  0  0
 23 22  1  1  0  0  0
 24 25  1  0  0  0  0
M  END
>  <MODEL>
5

>  <REMARK>
 VINA RESULT:      -7.7      2.696      6.836
  Name = 
  6 active torsions:
  status: ('A' for Active; 'I' for Inactive)
    1  A    between atoms: N_1  and  C_21
    2  A    between atoms: C_9  and  C_10
    3  A    between atoms: C_9  and  C_25
    4  A    between atoms: C_10  and  C_23
    5  A    between atoms: C_21  and  C_23
    6  A    between atoms: C_23  and  C_24
                            x       y       z     vdW  Elec       q    Type
                         _______ _______ _______ _____ _____    ______ ____

>  <TORSDO>
F 6

$$$$
=
 OpenBabel11072411363D

 25 26  0  0  1  0  0  0  0  0999 V2000
  161.4670  208.0750  148.4230 O   0  0  0  0  0  1  0  0  0  0  0  0
  161.6250  207.2930  149.5700 C   0  0  1  0  0  3  0  0  0  0  0  0
  160.5320  209.0160  153.6550 C   0  0  0  0  0  0  0  0  0  0  0  0
  162.3450  209.9640  149.7000 O   0  0  0  0  0  1  0  0  0  0  0  0
  161.0080  206.6990  154.2310 C   0  0  0  0  0  3  0  0  0  0  0  0
  160.9880  207.7200  153.2740 C   0  0  0  0  0  0  0  0  0  0  0  0
  160.5630  206.9210  155.5330 C   0  0  0  0  0  3  0  0  0  0  0  0
  161.9720  209.4360  150.9370 C   0  0  1  0  0  3  0  0  0  0  0  0
  161.4200  207.3690  151.9900 O   0  0  0  0  0  0  0  0  0  0  0  0
  161.0970  210.4200  151.6260 C   0  0  0  0  0  3  0  0  0  0  0  0
  160.0900  208.1780  155.8990 C   0  0  0  0  0  3  0  0  0  0  0  0
  160.4960  210.2200  152.7990 C   0  0  0  0  0  3  0  0  0  0  0  0
  160.0770  209.2140  154.9640 C   0  0  0  0  0  3  0  0  0  0  0  0
  161.2090  208.1200  150.8040 C   0  0  2  0  0  3  0  0  0  0  0  0
  160.7920  206.0100  149.4300 C   0  0  1  0  0  3  0  0  0  0  0  0
  159.7110  206.1930  148.5610 O   0  0  0  0  0  1  0  0  0  0  0  0
  161.6470  204.8010  148.9930 C   0  0  2  0  0  3  0  0  0  0  0  0
  162.7440  205.2440  146.7680 C   0  0  0  0  0  1  0  0  0  0  0  0
  161.6800  203.1650  147.2030 O   0  0  0  0  0  1  0  0  0  0  0  0
  160.4230  205.0210  146.9190 F   0  0  0  0  0  0  0  0  0  0  0  0
  161.5980  204.5350  147.4640 C   0  0  1  0  0  0  0  0  0  0  0  0
  161.1400  203.9300  151.3190 C   0  0  0  0  0  1  0  0  0  0  0  0
  161.3150  203.5640  149.8540 C   0  0  1  0  0  3  0  0  0  0  0  0
  160.0880  202.9290  149.3910 N   0  0  0  0  0  2  0  0  0  0  0  0
  160.1770  201.5220  149.7410 C   0  0  0  0  0  1  0  0  0  0  0  0
  2  1  1  6  0  0  0
  3 13  1  0  0  0  0
  5  7  2  0  0  0  0
  6  3  2  0  0  0  0
  6  5  1  0  0  0  0
  7 11  1  0  0  0  0
  8  4  1  6  0  0  0
  8 10  1  0  0  0  0
  9  6  1  0  0  0  0
 10 12  2  0  0  0  0
 12  3  1  0  0  0  0
 13 11  2  0  0  0  0
 14  2  1  6  0  0  0
 14  8  1  0  0  0  0
 14  9  1  0  0  0  0
 15 16  1  6  0  0  0
 15  2  1  0  0  0  0
 17 15  1  6  0  0  0
 17 23  1  0  0  0  0
 19 21  1  0  0  0  0
 20 21  1  0  0  0  0
 21 18  1  6  0  0  0
 21 17  1  0  0  0  0
 23 22  1  1  0  0  0
 24 25  1  0  0  0  0
 24 23  1  0  0  0  0
M  END
>  <MODEL>
6

>  <REMARK>
 VINA RESULT:      -7.4      1.740      2.814
  Name = 
  6 active torsions:
  status: ('A' for Active; 'I' for Inactive)
    1  A    between atoms: N_1  and  C_21
    2  A    between atoms: C_9  and  C_10
    3  A    between atoms: C_9  and  C_25
    4  A    between atoms: C_10  and  C_23
    5  A    between atoms: C_21  and  C_23
    6  A    between atoms: C_23  and  C_24
                            x       y       z     vdW  Elec       q    Type
                         _______ _______ _______ _____ _____    ______ ____

>  <TORSDO>
F 6

$$$$
=
 OpenBabel11072411363D

 25 26  0  0  1  0  0  0  0  0999 V2000
  160.8320  207.3050  149.4760 O   0  0  0  0  0  1  0  0  0  0  0  0
  160.5350  206.6510  150.6760 C   0  0  1  0  0  3  0  0  0  0  0  0
  160.9480  202.3490  149.2050 C   0  0  0  0  0  0  0  0  0  0  0  0
  161.6310  205.0670  152.6650 O   0  0  0  0  0  1  0  0  0  0  0  0
  161.2400  203.5890  147.1300 C   0  0  0  0  0  3  0  0  0  0  0  0
  161.0840  203.5920  148.5210 C   0  0  0  0  0  0  0  0  0  0  0  0
  161.2350  202.3970  146.4060 C   0  0  0  0  0  3  0  0  0  0  0  0
  161.5680  204.4260  151.4260 C   0  0  1  0  0  3  0  0  0  0  0  0
  161.0650  204.8490  149.1340 O   0  0  0  0  0  0  0  0  0  0  0  0
  161.0820  203.0370  151.6360 C   0  0  0  0  0  3  0  0  0  0  0  0
  161.0730  201.1840  147.0690 C   0  0  0  0  0  3  0  0  0  0  0  0
  160.8310  202.1590  150.6650 C   0  0  0  0  0  3  0  0  0  0  0  0
  160.9310  201.1650  148.4570 C   0  0  0  0  0  3  0  0  0  0  0  0
  160.6220  205.1280  150.4540 C   0  0  2  0  0  3  0  0  0  0  0  0
  161.5020  207.1310  151.7690 C   0  0  1  0  0  3  0  0  0  0  0  0
  162.7750  207.3900  151.2490 O   0  0  0  0  0  1  0  0  0  0  0  0
  160.9620  208.3590  152.5310 C   0  0  2  0  0  3  0  0  0  0  0  0
  160.4890  210.8150  152.2220 C   0  0  0  0  0  1  0  0  0  0  0  0
  162.7040  210.0450  152.5990 O   0  0  0  0  0  1  0  0  0  0  0  0
  161.7060  209.6330  150.6150 F   0  0  0  0  0  0  0  0  0  0  0  0
  161.4980  209.7080  151.9810 C   0  0  1  0  0  0  0  0  0  0  0  0
  160.5720  209.3450  154.8340 C   0  0  0  0  0  1  0  0  0  0  0  0
  161.1600  208.1820  154.0520 C   0  0  1  0  0  3  0  0  0  0  0  0
  160.5270  206.9530  154.5130 N   0  0  0  0  0  2  0  0  0  0  0  0
  160.0800  207.1880  155.8750 C   0  0  0  0  0  1  0  0  0  0  0  0
  2  1  1  6  0  0  0
  2 15  1  0  0  0  0
  3 12  1  0  0  0  0
  5  6  2  0  0  0  0
  6  9  1  0  0  0  0
  6  3  1  0  0  0  0
  7 11  2  0  0  0  0
  7  5  1  0  0  0  0
  8 10  1  0  0  0  0
  8  4  1  1  0  0  0
  9 14  1  0  0  0  0
 11 13  1  0  0  0  0
 12 10  2  0  0  0  0
 13  3  2  0  0  0  0
 14  2  1  1  0  0  0
 14  8  1  0  0  0  0
 15 16  1  6  0  0  0
 17 15  1  6  0  0  0
 17 23  1  0  0  0  0
 20 21  1  0  0  0  0
 21 18  1  1  0  0  0
 21 17  1  0  0  0  0
 21 19  1  0  0  0  0
 23 24  1  0  0  0  0
 23 22  1  1  0  0  0
 24 25  1  0  0  0  0
M  END
>  <MODEL>
7

>  <REMARK>
 VINA RESULT:      -7.4      2.772      7.315
  Name = 
  6 active torsions:
  status: ('A' for Active; 'I' for Inactive)
    1  A    between atoms: N_1  and  C_21
    2  A    between atoms: C_9  and  C_10
    3  A    between atoms: C_9  and  C_25
    4  A    between atoms: C_10  and  C_23
    5  A    between atoms: C_21  and  C_23
    6  A    between atoms: C_23  and  C_24
                            x       y       z     vdW  Elec       q    Type
                         _______ _______ _______ _____ _____    ______ ____

>  <TORSDO>
F 6

$$$$
=
 OpenBabel11072411363D

 25 26  0  0  1  0  0  0  0  0999 V2000
  160.1370  207.8670  154.6990 O   0  0  0  0  0  1  0  0  0  0  0  0
  161.1220  208.1730  153.7550 C   0  0  1  0  0  3  0  0  0  0  0  0
  161.2610  205.7980  149.8580 C   0  0  0  0  0  0  0  0  0  0  0  0
  161.3800  205.4690  154.2970 O   0  0  0  0  0  1  0  0  0  0  0  0
  162.2930  207.8950  149.1720 C   0  0  0  0  0  3  0  0  0  0  0  0
  161.7660  207.0900  150.1890 C   0  0  0  0  0  0  0  0  0  0  0  0
  162.3040  207.4660  147.8460 C   0  0  0  0  0  3  0  0  0  0  0  0
  161.5600  205.7770  152.9470 C   0  0  1  0  0  3  0  0  0  0  0  0
  161.7720  207.6410  151.4750 O   0  0  0  0  0  0  0  0  0  0  0  0
  160.8310  204.7730  152.1310 C   0  0  0  0  0  3  0  0  0  0  0  0
  161.7850  206.2170  147.5160 C   0  0  0  0  0  3  0  0  0  0  0  0
  160.7240  204.7980  150.8030 C   0  0  0  0  0  3  0  0  0  0  0  0
  161.2690  205.3940  148.5170 C   0  0  0  0  0  3  0  0  0  0  0  0
  161.0340  207.1660  152.5910 C   0  0  2  0  0  3  0  0  0  0  0  0
  160.9380  209.6220  153.2790 C   0  0  1  0  0  3  0  0  0  0  0  0
  160.3570  209.6730  152.0070 O   0  0  0  0  0  1  0  0  0  0  0  0
  160.1310  210.4710  154.2850 C   0  0  2  0  0  3  0  0  0  0  0  0
  158.5610  212.4070  154.6550 C   0  0  0  0  0  1  0  0  0  0  0  0
  160.0680  212.4020  152.8190 O   0  0  0  0  0  1  0  0  0  0  0  0
  158.2940  211.0040  152.8060 F   0  0  0  0  0  0  0  0  0  0  0  0
  159.2690  211.5700  153.6070 C   0  0  1  0  0  0  0  0  0  0  0  0
  160.7050  210.3850  156.7520 C   0  0  0  0  0  1  0  0  0  0  0  0
  161.0510  211.0000  155.4060 C   0  0  1  0  0  3  0  0  0  0  0  0
  162.4460  210.7020  155.1110 N   0  0  0  0  0  2  0  0  0  0  0  0
  163.1630  210.7180  156.3740 C   0  0  0  0  0  1  0  0  0  0  0  0
  2  1  1  1  0  0  0
  3  6  1  0  0  0  0
  3 12  1  0  0  0  0
  5  6  2  0  0  0  0
  6  9  1  0  0  0  0
  7  5  1  0  0  0  0
  8  4  1  1  0  0  0
  9 14  1  0  0  0  0
 10  8  1  0  0  0  0
 11  7  2  0  0  0  0
 11 13  1  0  0  0  0
 12 10  2  0  0  0  0
 13  3  2  0  0  0  0
 14  8  1  0  0  0  0
 14  2  1  1  0  0  0
 15 16  1  6  0  0  0
 15  2  1  0  0  0  0
 17 15  1  6  0  0  0
 17 23  1  0  0  0  0
 19 21  1  0  0  0  0
 20 21  1  0  0  0  0
 21 17  1  0  0  0  0
 21 18  1  1  0  0  0
 23 22  1  1  0  0  0
 24 23  1  0  0  0  0
 24 25  1  0  0  0  0
M  END
>  <MODEL>
8

>  <REMARK>
 VINA RESULT:      -7.2      3.759      7.967
  Name = 
  6 active torsions:
  status: ('A' for Active; 'I' for Inactive)
    1  A    between atoms: N_1  and  C_21
    2  A    between atoms: C_9  and  C_10
    3  A    between atoms: C_9  and  C_25
    4  A    between atoms: C_10  and  C_23
    5  A    between atoms: C_21  and  C_23
    6  A    between atoms: C_23  and  C_24
                            x       y       z     vdW  Elec       q    Type
                         _______ _______ _______ _____ _____    ______ ____

>  <TORSDO>
F 6

$$$$
=
 OpenBabel11072411363D

 25 26  0  0  1  0  0  0  0  0999 V2000
  159.7060  206.2390  148.4360 O   0  0  0  0  0  1  0  0  0  0  0  0
  161.0420  206.3590  148.8280 C   0  0  1  0  0  3  0  0  0  0  0  0
  161.2610  208.5660  152.8190 C   0  0  0  0  0  0  0  0  0  0  0  0
  162.6360  208.6100  148.5840 O   0  0  0  0  0  1  0  0  0  0  0  0
  161.0080  206.2620  153.5660 C   0  0  0  0  0  3  0  0  0  0  0  0
  161.1840  207.1740  152.5190 C   0  0  0  0  0  0  0  0  0  0  0  0
  160.8780  206.6940  154.8850 C   0  0  0  0  0  3  0  0  0  0  0  0
  162.3070  208.3120  149.9080 C   0  0  1  0  0  3  0  0  0  0  0  0
  161.2620  206.6280  151.2330 O   0  0  0  0  0  0  0  0  0  0  0  0
  161.9390  209.5750  150.6000 C   0  0  0  0  0  3  0  0  0  0  0  0
  160.9230  208.0540  155.1770 C   0  0  0  0  0  3  0  0  0  0  0  0
  161.5000  209.6600  151.8550 C   0  0  0  0  0  3  0  0  0  0  0  0
  161.1130  208.9790  154.1500 C   0  0  0  0  0  3  0  0  0  0  0  0
  161.1330  207.3420  150.0130 C   0  0  2  0  0  3  0  0  0  0  0  0
  161.5930  204.9710  149.1880 C   0  0  1  0  0  3  0  0  0  0  0  0
  160.7140  204.2710  150.0210 O   0  0  0  0  0  1  0  0  0  0  0  0
  161.9430  204.1370  147.9370 C   0  0  2  0  0  3  0  0  0  0  0  0
  163.4460  204.3750  145.9280 C   0  0  0  0  0  1  0  0  0  0  0  0
  161.1970  205.1380  145.8590 O   0  0  0  0  0  1  0  0  0  0  0  0
  162.7170  206.2660  147.0920 F   0  0  0  0  0  0  0  0  0  0  0  0
  162.3030  205.0050  146.7010 C   0  0  1  0  0  0  0  0  0  0  0  0
  161.1330  202.2920  146.3990 C   0  0  0  0  0  1  0  0  0  0  0  0
  160.8470  203.0840  147.6640 C   0  0  1  0  0  3  0  0  0  0  0  0
  160.7420  202.1500  148.7770 N   0  0  0  0  0  2  0  0  0  0  0  0
  161.3310  200.8970  148.3390 C   0  0  0  0  0  1  0  0  0  0  0  0
  2  1  1  1  0  0  0
  2 15  1  0  0  0  0
  3 13  1  0  0  0  0
  5  7  2  0  0  0  0
  6  3  2  0  0  0  0
  6  5  1  0  0  0  0
  7 11  1  0  0  0  0
  8  4  1  6  0  0  0
  8 14  1  0  0  0  0
  8 10  1  0  0  0  0
  9  6  1  0  0  0  0
 10 12  2  0  0  0  0
 12  3  1  0  0  0  0
 13 11  2  0  0  0  0
 14  2  1  6  0  0  0
 14  9  1  0  0  0  0
 15 16  1  6  0  0  0
 17 23  1  6  0  0  0
 17 15  1  0  0  0  0
 19 21  1  0  0  0  0
 21 18  1  6  0  0  0
 21 20  1  0  0  0  0
 21 17  1  0  0  0  0
 23 22  1  6  0  0  0
 23 24  1  0  0  0  0
 25 24  1  0  0  0  0
M  END
>  <MODEL>
9

>  <REMARK>
 VINA RESULT:      -7.1      1.602      2.473
  Name = 
  6 active torsions:
  status: ('A' for Active; 'I' for Inactive)
    1  A    between atoms: N_1  and  C_21
    2  A    between atoms: C_9  and  C_10
    3  A    between atoms: C_9  and  C_25
    4  A    between atoms: C_10  and  C_23
    5  A    between atoms: C_21  and  C_23
    6  A    between atoms: C_23  and  C_24
                            x       y       z     vdW  Elec       q    Type
                         _______ _______ _______ _____ _____    ______ ____

>  <TORSDO>
F 6

$$$$
