=
 OpenBabel11072413143D

 34 39  0  0  1  0  0  0  0  0999 V2000
  160.7930  210.8910  150.9260 C   0  0  0  0  0  0  0  0  0  0  0  0
  159.6170  213.2120  151.1100 C   0  0  2  0  0  3  0  0  0  0  0  0
  161.4290  213.6440  149.4850 C   0  0  0  0  0  0  0  0  0  0  0  0
  161.1120  209.5260  151.4420 C   0  0  0  0  0  0  0  0  0  0  0  0
  159.2270  211.6040  153.8450 C   0  0  0  0  0  2  0  0  0  0  0  0
  161.8340  204.5220  151.7650 C   0  0  0  0  0  0  0  0  0  0  0  0
  162.0430  211.9400  147.8070 N   0  0  0  0  0  2  0  0  0  0  0  0
  161.4120  210.3160  153.8790 C   0  0  2  0  0  3  0  0  0  0  0  0
  160.0860  211.9070  151.8110 C   0  0  1  0  0  3  0  0  0  0  0  0
  160.2960  211.1610  155.9850 C   0  0  0  0  0  1  0  0  0  0  0  0
  159.0360  211.2750  152.4950 O   0  0  0  0  0  0  0  0  0  0  0  0
  159.2380  209.2990  154.7910 C   0  0  0  0  0  1  0  0  0  0  0  0
  161.6080  207.9160  153.2110 C   0  0  0  0  0  3  0  0  0  0  0  0
  161.3520  207.1490  150.9300 C   0  0  0  0  0  0  0  0  0  0  0  0
  161.3440  206.1080  149.9970 C   0  0  0  0  0  3  0  0  0  0  0  0
  162.1260  210.7460  148.6110 C   0  0  0  0  0  2  0  0  0  0  0  0
  161.3700  209.2430  152.8120 C   0  0  0  0  0  0  0  0  0  0  0  0
  161.6000  206.8750  152.2870 C   0  0  0  0  0  0  0  0  0  0  0  0
  162.4580  210.0670  154.7760 O   0  0  0  0  0  1  0  0  0  0  0  0
  160.7300  213.9820  150.6450 O   0  0  0  0  0  0  0  0  0  0  0  0
  162.3650  214.4200  149.0480 N   0  0  0  0  0  2  0  0  0  0  0  0
  161.0540  212.3930  148.7540 C   0  0  1  0  0  3  0  0  0  0  0  0
  161.8410  205.5620  152.7010 C   0  0  0  0  0  3  0  0  0  0  0  0
  161.1950  211.2310  149.6930 C   0  0  0  0  0  0  0  0  0  0  0  0
  162.0660  203.2500  152.1650 F   0  0  0  0  0  0  0  0  0  0  0  0
  161.5850  204.7960  150.4150 C   0  0  0  0  0  3  0  0  0  0  0  0
  160.0580  210.5700  154.6040 C   0  0  0  0  0  0  0  0  0  0  0  0
  161.1080  208.4590  150.5240 C   0  0  0  0  0  3  0  0  0  0  0  0
  159.2060  214.4530  153.0820 O   0  0  0  0  0  0  0  0  0  0  0  0
  158.7750  214.0720  152.0040 C   0  0  0  0  0  0  0  0  0  0  0  0
  157.3970  214.4500  151.5720 C   0  0  0  0  0  2  0  0  0  0  0  0
  156.7090  214.4260  149.2000 C   0  0  0  0  0  2  0  0  0  0  0  0
  155.5340  213.9600  150.0310 C   0  0  0  0  0  2  0  0  0  0  0  0
  156.9420  213.5670  150.4260 C   0  0  0  0  0  3  0  0  0  0  0  0
  1  4  1  0  0  0  0
  2  9  1  0  0  0  0
  2 30  1  1  0  0  0
  3 20  1  0  0  0  0
  4 17  1  0  0  0  0
  5 27  1  0  0  0  0
  6 25  1  0  0  0  0
  6 23  1  0  0  0  0
  7 16  1  0  0  0  0
  8 27  1  0  0  0  0
  8 19  1  1  0  0  0
  9  1  1  6  0  0  0
  9 11  1  0  0  0  0
 11  5  1  0  0  0  0
 14 18  1  0  0  0  0
 15 26  1  0  0  0  0
 15 14  2  0  0  0  0
 16 24  1  0  0  0  0
 17 13  2  0  0  0  0
 17  8  1  0  0  0  0
 18 23  2  0  0  0  0
 18 13  1  0  0  0  0
 20  2  1  0  0  0  0
 21  3  2  0  0  0  0
 22  7  1  6  0  0  0
 22  3  1  0  0  0  0
 22 24  1  0  0  0  0
 24  1  2  0  0  0  0
 26  6  2  0  0  0  0
 27 12  1  0  0  0  0
 27 10  1  0  0  0  0
 28 14  1  0  0  0  0
 28  4  2  0  0  0  0
 30 29  2  0  0  0  0
 31 30  1  0  0  0  0
 32 33  1  0  0  0  0
 32 34  1  0  0  0  0
 33 34  1  0  0  0  0
 34 31  1  0  0  0  0
M  END
>  <MODEL>
1

>  <REMARK>
 VINA RESULT:      -4.8      0.000      0.000
  Name = 
  3 active torsions:
  status: ('A' for Active; 'I' for Inactive)
    1  A    between atoms: C_3  and  C_4
    2  A    between atoms: C_4  and  C_7
    3  A    between atoms: C_7  and  C_33
                            x       y       z     vdW  Elec       q    Type
                         _______ _______ _______ _____ _____    ______ ____

>  <TORSDO>
F 3

$$$$
=
 OpenBabel11072413143D

 34 39  0  0  1  0  0  0  0  0999 V2000
  160.3830  210.6680  151.6460 C   0  0  0  0  0  0  0  0  0  0  0  0
  159.0900  212.8870  152.1000 C   0  0  2  0  0  3  0  0  0  0  0  0
  160.8200  213.5840  150.4780 C   0  0  0  0  0  0  0  0  0  0  0  0
  160.7930  209.2790  152.0110 C   0  0  0  0  0  0  0  0  0  0  0  0
  158.8780  210.9920  154.6650 C   0  0  0  0  0  2  0  0  0  0  0  0
  161.7940  204.3180  151.7990 C   0  0  0  0  0  0  0  0  0  0  0  0
  161.4700  212.0960  148.6180 N   0  0  0  0  0  2  0  0  0  0  0  0
  161.1300  209.8350  154.5060 C   0  0  2  0  0  3  0  0  0  0  0  0
  159.6520  211.5480  152.6500 C   0  0  1  0  0  3  0  0  0  0  0  0
  160.0410  210.3980  156.7180 C   0  0  0  0  0  1  0  0  0  0  0  0
  158.6600  210.7910  153.2940 O   0  0  0  0  0  0  0  0  0  0  0  0
  159.0460  208.6080  155.3690 C   0  0  0  0  0  1  0  0  0  0  0  0
  161.4340  207.5300  153.5910 C   0  0  0  0  0  3  0  0  0  0  0  0
  161.1430  206.9830  151.2510 C   0  0  0  0  0  0  0  0  0  0  0  0
  161.1610  206.0430  150.2170 C   0  0  0  0  0  3  0  0  0  0  0  0
  161.6440  210.8340  149.2930 C   0  0  0  0  0  2  0  0  0  0  0  0
  161.1100  208.8740  153.3370 C   0  0  0  0  0  0  0  0  0  0  0  0
  161.4510  206.5880  152.5660 C   0  0  0  0  0  0  0  0  0  0  0  0
  162.2170  209.5570  155.3440 O   0  0  0  0  0  1  0  0  0  0  0  0
  160.1430  213.7630  151.6860 O   0  0  0  0  0  0  0  0  0  0  0  0
  161.6980  214.4530  150.0970 N   0  0  0  0  0  2  0  0  0  0  0  0
  160.4900  212.3940  149.6330 C   0  0  1  0  0  3  0  0  0  0  0  0
  161.7760  205.2560  152.8360 C   0  0  0  0  0  3  0  0  0  0  0  0
  160.7240  211.1530  150.4440 C   0  0  0  0  0  0  0  0  0  0  0  0
  162.1090  203.0260  152.0600 F   0  0  0  0  0  0  0  0  0  0  0  0
  161.4870  204.7110  150.4920 C   0  0  0  0  0  3  0  0  0  0  0  0
  159.7890  209.9360  155.2910 C   0  0  0  0  0  0  0  0  0  0  0  0
  160.8160  208.3120  150.9880 C   0  0  0  0  0  3  0  0  0  0  0  0
  157.0650  213.8600  152.8440 O   0  0  0  0  0  0  0  0  0  0  0  0
  158.2330  213.6030  153.1000 C   0  0  0  0  0  0  0  0  0  0  0  0
  158.8200  214.0120  154.4100 C   0  0  0  0  0  2  0  0  0  0  0  0
  158.2740  214.4530  156.7780 C   0  0  0  0  0  2  0  0  0  0  0  0
  157.4090  213.3050  156.3070 C   0  0  0  0  0  2  0  0  0  0  0  0
  157.7260  214.4490  155.3660 C   0  0  0  0  0  3  0  0  0  0  0  0
  1  4  1  0  0  0  0
  2  9  1  0  0  0  0
  2 30  1  1  0  0  0
  3 20  1  0  0  0  0
  4 17  1  0  0  0  0
  5 27  1  0  0  0  0
  6 25  1  0  0  0  0
  6 23  1  0  0  0  0
  7 16  1  0  0  0  0
  8 27  1  0  0  0  0
  8 19  1  1  0  0  0
  9  1  1  6  0  0  0
  9 11  1  0  0  0  0
 11  5  1  0  0  0  0
 14 18  1  0  0  0  0
 15 26  1  0  0  0  0
 15 14  2  0  0  0  0
 16 24  1  0  0  0  0
 17 13  2  0  0  0  0
 17  8  1  0  0  0  0
 18 23  2  0  0  0  0
 18 13  1  0  0  0  0
 20  2  1  0  0  0  0
 21  3  2  0  0  0  0
 22  7  1  6  0  0  0
 22 24  1  0  0  0  0
 22  3  1  0  0  0  0
 24  1  2  0  0  0  0
 26  6  2  0  0  0  0
 27 12  1  0  0  0  0
 27 10  1  0  0  0  0
 28 14  1  0  0  0  0
 28  4  2  0  0  0  0
 29 30  2  0  0  0  0
 30 31  1  0  0  0  0
 31 34  1  0  0  0  0
 33 32  1  0  0  0  0
 34 33  1  0  0  0  0
 34 32  1  0  0  0  0
M  END
>  <MODEL>
2

>  <REMARK>
 VINA RESULT:      -3.4      1.456      2.209
  Name = 
  3 active torsions:
  status: ('A' for Active; 'I' for Inactive)
    1  A    between atoms: C_3  and  C_4
    2  A    between atoms: C_4  and  C_7
    3  A    between atoms: C_7  and  C_33
                            x       y       z     vdW  Elec       q    Type
                         _______ _______ _______ _____ _____    ______ ____

>  <TORSDO>
F 3

$$$$
=
 OpenBabel11072413143D

 34 40  0  0  1  0  0  0  0  0999 V2000
  161.2190  208.1610  150.8980 C   0  0  0  0  0  0  0  0  0  0  0  0
  160.6320  210.5930  151.6360 C   0  0  2  0  0  3  0  0  0  0  0  0
  162.3080  210.9510  149.8550 C   0  0  0  0  0  0  0  0  0  0  0  0
  161.2720  206.6860  151.1290 C   0  0  0  0  0  0  0  0  0  0  0  0
  160.1820  208.6010  154.0940 C   0  0  0  0  0  2  0  0  0  0  0  0
  160.8600  201.6750  150.5110 C   0  0  0  0  0  0  0  0  0  0  0  0
  162.3320  209.5160  147.8460 N   0  0  0  0  0  2  0  0  0  0  0  0
  162.0050  206.9110  153.5910 C   0  0  2  0  0  3  0  0  0  0  0  0
  160.8630  209.1100  152.0340 C   0  0  1  0  0  3  0  0  0  0  0  0
  161.3460  207.5420  155.9500 C   0  0  0  0  0  1  0  0  0  0  0  0
  159.7760  208.5860  152.7520 O   0  0  0  0  0  0  0  0  0  0  0  0
  159.7680  206.2040  154.6340 C   0  0  0  0  0  1  0  0  0  0  0  0
  161.5740  204.6980  152.5150 C   0  0  0  0  0  3  0  0  0  0  0  0
  160.9050  204.4560  150.2010 C   0  0  0  0  0  0  0  0  0  0  0  0
  160.5590  203.6400  149.1210 C   0  0  0  0  0  3  0  0  0  0  0  0
  162.2260  208.1970  148.4210 C   0  0  2  0  0  3  0  0  0  0  0  0
  161.6040  206.0970  152.3810 C   0  0  0  0  0  0  0  0  0  0  0  0
  161.2290  203.8790  151.4430 C   0  0  0  0  0  0  0  0  0  0  0  0
  163.0570  206.2830  154.2710 O   0  0  0  0  0  1  0  0  0  0  0  0
  161.8350  211.1940  151.1450 O   0  0  0  0  0  0  0  0  0  0  0  0
  163.3440  211.5890  149.4180 N   0  0  0  0  0  2  0  0  0  0  0  0
  161.5810  209.9690  148.9900 C   0  0  1  0  0  0  0  0  0  0  0  0
  161.2060  202.4900  151.5940 C   0  0  0  0  0  3  0  0  0  0  0  0
  161.5530  208.6440  149.6930 C   0  0  0  0  0  0  0  0  0  0  0  0
  160.8380  200.3290  150.6560 F   0  0  0  0  0  0  0  0  0  0  0  0
  160.5370  202.2500  149.2760 C   0  0  0  0  0  3  0  0  0  0  0  0
  160.8310  207.2920  154.5410 C   0  0  0  0  0  0  0  0  0  0  0  0
  160.9250  205.8420  150.0580 C   0  0  0  0  0  3  0  0  0  0  0  0
  160.8600  211.7850  153.6670 O   0  0  0  0  0  0  0  0  0  0  0  0
  160.1110  211.4180  152.7740 C   0  0  0  0  0  0  0  0  0  0  0  0
  158.6630  211.7780  152.8150 C   0  0  0  0  0  2  0  0  0  0  0  0
  157.0240  211.4530  154.6340 C   0  0  0  0  0  2  0  0  0  0  0  0
  156.9100  212.8830  154.1550 C   0  0  0  0  0  2  0  0  0  0  0  0
  158.2660  212.2120  154.2140 C   0  0  0  0  0  3  0  0  0  0  0  0
  1  4  1  0  0  0  0
  2  9  1  0  0  0  0
  2 30  1  1  0  0  0
  3 20  1  0  0  0  0
  4 17  1  0  0  0  0
  5 27  1  0  0  0  0
  6 25  1  0  0  0  0
  6 23  1  0  0  0  0
  8 19  1  1  0  0  0
  8 27  1  0  0  0  0
  9  1  1  6  0  0  0
  9 11  1  0  0  0  0
 11  5  1  0  0  0  0
 14 18  1  0  0  0  0
 15 26  1  0  0  0  0
 15 14  2  0  0  0  0
 16  7  1  1  0  0  0
 16 22  1  0  0  0  0
 16 24  1  0  0  0  0
 17 13  2  0  0  0  0
 17  8  1  0  0  0  0
 18 23  2  0  0  0  0
 18 13  1  0  0  0  0
 20  2  1  0  0  0  0
 21  3  2  0  0  0  0
 22  7  1  6  0  0  0
 22 24  1  0  0  0  0
 22  3  1  0  0  0  0
 24  1  2  0  0  0  0
 26  6  2  0  0  0  0
 27 12  1  0  0  0  0
 27 10  1  0  0  0  0
 28 14  1  0  0  0  0
 28  4  2  0  0  0  0
 30 31  1  0  0  0  0
 30 29  2  0  0  0  0
 31 34  1  0  0  0  0
 33 34  1  0  0  0  0
 33 32  1  0  0  0  0
 34 32  1  0  0  0  0
M  END
>  <MODEL>
3

>  <REMARK>
 VINA RESULT:      -2.6      2.281      3.287
  Name = 
  3 active torsions:
  status: ('A' for Active; 'I' for Inactive)
    1  A    between atoms: C_3  and  C_4
    2  A    between atoms: C_4  and  C_7
    3  A    between atoms: C_7  and  C_33
                            x       y       z     vdW  Elec       q    Type
                         _______ _______ _______ _____ _____    ______ ____

>  <TORSDO>
F 3

$$$$
=
 OpenBabel11072413143D

 34 39  0  0  1  0  0  0  0  0999 V2000
  161.3700  206.9950  151.7350 C   0  0  0  0  0  0  0  0  0  0  0  0
  162.1030  209.4940  151.8830 C   0  0  2  0  0  3  0  0  0  0  0  0
  160.5150  209.2770  153.7650 C   0  0  0  0  0  0  0  0  0  0  0  0
  161.2060  205.7070  150.9960 C   0  0  0  0  0  0  0  0  0  0  0  0
  162.3300  208.4990  148.8540 C   0  0  0  0  0  2  0  0  0  0  0  0
  161.2830  200.7950  149.7610 C   0  0  0  0  0  0  0  0  0  0  0  0
  160.4560  207.2180  155.1270 N   0  0  0  0  0  2  0  0  0  0  0  0
  160.4100  206.8420  148.8210 C   0  0  2  0  0  3  0  0  0  0  0  0
  161.7550  208.2680  150.9940 C   0  0  1  0  0  3  0  0  0  0  0  0
  161.0340  208.2430  146.8110 C   0  0  0  0  0  1  0  0  0  0  0  0
  162.7780  207.9800  150.0780 O   0  0  0  0  0  0  0  0  0  0  0  0
  162.5560  206.4380  147.4720 C   0  0  0  0  0  1  0  0  0  0  0  0
  160.7190  204.3700  149.0110 C   0  0  0  0  0  3  0  0  0  0  0  0
  161.4450  203.2760  151.0450 C   0  0  0  0  0  0  0  0  0  0  0  0
  161.7680  202.1080  151.7410 C   0  0  0  0  0  3  0  0  0  0  0  0
  160.4500  206.1910  154.1140 C   0  0  0  0  0  2  0  0  0  0  0  0
  160.7920  205.6260  149.6370 C   0  0  0  0  0  0  0  0  0  0  0  0
  161.0410  203.2030  149.6990 C   0  0  0  0  0  0  0  0  0  0  0  0
  159.2940  206.5580  148.0230 O   0  0  0  0  0  1  0  0  0  0  0  0
  160.9620  209.9420  152.6220 O   0  0  0  0  0  0  0  0  0  0  0  0
  159.5420  209.7700  154.4570 N   0  0  0  0  0  2  0  0  0  0  0  0
  161.1990  208.0120  154.1800 C   0  0  1  0  0  3  0  0  0  0  0  0
  160.9600  201.9620  149.0610 C   0  0  0  0  0  3  0  0  0  0  0  0
  161.1110  207.0290  153.0500 C   0  0  0  0  0  0  0  0  0  0  0  0
  161.2060  199.5920  149.1440 F   0  0  0  0  0  0  0  0  0  0  0  0
  161.6870  200.8680  151.0990 C   0  0  0  0  0  3  0  0  0  0  0  0
  161.5760  207.4750  148.0060 C   0  0  0  0  0  0  0  0  0  0  0  0
  161.5280  204.5160  151.6740 C   0  0  0  0  0  3  0  0  0  0  0  0
  163.8360  210.9070  151.1120 O   0  0  0  0  0  0  0  0  0  0  0  0
  162.6430  210.6430  151.0870 C   0  0  0  0  0  0  0  0  0  0  0  0
  161.7100  211.4730  150.2700 C   0  0  0  0  0  2  0  0  0  0  0  0
  161.8350  213.1820  148.4910 C   0  0  0  0  0  2  0  0  0  0  0  0
  161.2620  211.9200  147.8850 C   0  0  0  0  0  2  0  0  0  0  0  0
  162.3450  211.8270  148.9380 C   0  0  0  0  0  3  0  0  0  0  0  0
  1 24  2  0  0  0  0
  2 30  1  6  0  0  0
  2 20  1  0  0  0  0
  3 22  1  0  0  0  0
  3 21  2  0  0  0  0
  4 28  1  0  0  0  0
  4  1  1  0  0  0  0
  5 11  1  0  0  0  0
  6 26  1  0  0  0  0
  8 19  1  6  0  0  0
  8 17  1  0  0  0  0
  9 11  1  1  0  0  0
  9  1  1  0  0  0  0
  9  2  1  0  0  0  0
 10 27  1  0  0  0  0
 12 27  1  0  0  0  0
 13 17  1  0  0  0  0
 13 18  2  0  0  0  0
 14 28  2  0  0  0  0
 14 15  1  0  0  0  0
 16  7  1  0  0  0  0
 17  4  2  0  0  0  0
 18 14  1  0  0  0  0
 20  3  1  0  0  0  0
 22 24  1  6  0  0  0
 22  7  1  0  0  0  0
 23 18  1  0  0  0  0
 23  6  2  0  0  0  0
 24 16  1  0  0  0  0
 25  6  1  0  0  0  0
 26 15  2  0  0  0  0
 27  8  1  0  0  0  0
 27  5  1  0  0  0  0
 30 29  2  0  0  0  0
 31 30  1  0  0  0  0
 32 34  1  0  0  0  0
 33 32  1  0  0  0  0
 33 34  1  0  0  0  0
 34 31  1  0  0  0  0
M  END
>  <MODEL>
4

>  <REMARK>
 VINA RESULT:      -2.3      3.383      5.960
  Name = 
  3 active torsions:
  status: ('A' for Active; 'I' for Inactive)
    1  A    between atoms: C_3  and  C_4
    2  A    between atoms: C_4  and  C_7
    3  A    between atoms: C_7  and  C_33
                            x       y       z     vdW  Elec       q    Type
                         _______ _______ _______ _____ _____    ______ ____

>  <TORSDO>
F 3

$$$$
=
 OpenBabel11072413143D

 34 40  0  0  1  0  0  0  0  0999 V2000
  161.2460  208.1570  150.8210 C   0  0  0  0  0  0  0  0  0  0  0  0
  160.6410  210.5760  151.5880 C   0  0  2  0  0  3  0  0  0  0  0  0
  162.2840  210.9690  149.7820 C   0  0  0  0  0  0  0  0  0  0  0  0
  161.3210  206.6810  151.0380 C   0  0  0  0  0  0  0  0  0  0  0  0
  160.2560  208.5590  154.0360 C   0  0  0  0  0  2  0  0  0  0  0  0
  160.9610  201.6710  150.3850 C   0  0  0  0  0  0  0  0  0  0  0  0
  162.2920  209.5500  147.7620 N   0  0  0  0  0  2  0  0  0  0  0  0
  162.0920  206.8950  153.4900 C   0  0  2  0  0  3  0  0  0  0  0  0
  160.8970  209.0920  151.9700 C   0  0  1  0  0  3  0  0  0  0  0  0
  161.4640  207.4990  155.8640 C   0  0  0  0  0  1  0  0  0  0  0  0
  159.8290  208.5490  152.7010 O   0  0  0  0  0  0  0  0  0  0  0  0
  159.8810  206.1520  154.5630 C   0  0  0  0  0  1  0  0  0  0  0  0
  161.6710  204.6850  152.4030 C   0  0  0  0  0  3  0  0  0  0  0  0
  160.9660  204.4540  150.0980 C   0  0  0  0  0  0  0  0  0  0  0  0
  160.6120  203.6430  149.0170 C   0  0  0  0  0  3  0  0  0  0  0  0
  162.2110  208.2260  148.3270 C   0  0  2  0  0  3  0  0  0  0  0  0
  161.6810  206.0860  152.2790 C   0  0  0  0  0  0  0  0  0  0  0  0
  161.3180  203.8710  151.3290 C   0  0  0  0  0  0  0  0  0  0  0  0
  163.1630  206.2750  154.1470 O   0  0  0  0  0  1  0  0  0  0  0  0
  161.8280  211.1960  151.0830 O   0  0  0  0  0  0  0  0  0  0  0  0
  163.3040  211.6230  149.3340 N   0  0  0  0  0  2  0  0  0  0  0  0
  161.5540  209.9850  148.9220 C   0  0  1  0  0  0  0  0  0  0  0  0
  161.3140  202.4800  151.4690 C   0  0  0  0  0  3  0  0  0  0  0  0
  161.5540  208.6540  149.6140 C   0  0  0  0  0  0  0  0  0  0  0  0
  160.9570  200.3230  150.5190 F   0  0  0  0  0  0  0  0  0  0  0  0
  160.6100  202.2510  149.1610 C   0  0  0  0  0  3  0  0  0  0  0  0
  160.9290  207.2540  154.4610 C   0  0  0  0  0  0  0  0  0  0  0  0
  160.9660  205.8410  149.9660 C   0  0  0  0  0  3  0  0  0  0  0  0
  159.0790  212.0040  152.6450 O   0  0  0  0  0  0  0  0  0  0  0  0
  160.1290  211.3850  152.7410 C   0  0  0  0  0  0  0  0  0  0  0  0
  160.9170  211.4390  154.0070 C   0  0  0  0  0  2  0  0  0  0  0  0
  160.7590  211.8950  156.4290 C   0  0  0  0  0  2  0  0  0  0  0  0
  159.4850  211.2010  156.0020 C   0  0  0  0  0  2  0  0  0  0  0  0
  160.1510  212.1960  155.0750 C   0  0  0  0  0  3  0  0  0  0  0  0
  1  4  1  0  0  0  0
  2  9  1  0  0  0  0
  2 30  1  1  0  0  0
  3 20  1  0  0  0  0
  4 17  1  0  0  0  0
  5 27  1  0  0  0  0
  6 25  1  0  0  0  0
  6 23  1  0  0  0  0
  8 19  1  1  0  0  0
  8 27  1  0  0  0  0
  9  1  1  6  0  0  0
  9 11  1  0  0  0  0
 11  5  1  0  0  0  0
 14 18  1  0  0  0  0
 15 26  1  0  0  0  0
 15 14  2  0  0  0  0
 16  7  1  1  0  0  0
 16 22  1  0  0  0  0
 16 24  1  0  0  0  0
 17 13  2  0  0  0  0
 17  8  1  0  0  0  0
 18 23  2  0  0  0  0
 18 13  1  0  0  0  0
 20  2  1  0  0  0  0
 21  3  2  0  0  0  0
 22  7  1  6  0  0  0
 22 24  1  0  0  0  0
 22  3  1  0  0  0  0
 24  1  2  0  0  0  0
 26  6  2  0  0  0  0
 27 12  1  0  0  0  0
 27 10  1  0  0  0  0
 28 14  1  0  0  0  0
 28  4  2  0  0  0  0
 29 30  2  0  0  0  0
 30 31  1  0  0  0  0
 31 34  1  0  0  0  0
 33 32  1  0  0  0  0
 34 33  1  0  0  0  0
 34 32  1  0  0  0  0
M  END
>  <MODEL>
5

>  <REMARK>
 VINA RESULT:      -2.2      2.474      3.740
  Name = 
  3 active torsions:
  status: ('A' for Active; 'I' for Inactive)
    1  A    between atoms: C_3  and  C_4
    2  A    between atoms: C_4  and  C_7
    3  A    between atoms: C_7  and  C_33
                            x       y       z     vdW  Elec       q    Type
                         _______ _______ _______ _____ _____    ______ ____

>  <TORSDO>
F 3

$$$$
