=
 OpenBabel11072411193D

 28 31  0  0  1  0  0  0  0  0999 V2000
  161.0580  210.0640  151.1110 C   0  0  0  0  0  2  0  0  0  0  0  0
  162.4400  207.4030  147.6250 C   0  0  0  0  0  2  0  0  0  0  0  0
  160.3750  208.4380  153.0860 C   0  0  2  0  0  3  0  0  0  0  0  0
  162.4000  208.9200  149.4730 N   0  0  0  0  0  0  0  0  0  0  0  0
  159.3800  210.6950  152.7670 C   0  0  0  0  0  1  0  0  0  0  0  0
  162.1150  207.7230  149.0540 C   0  0  0  0  0  0  0  0  0  0  0  0
  160.5770  207.0990  150.9780 C   0  0  0  0  0  2  0  0  0  0  0  0
  160.7290  204.2020  151.5170 C   0  0  0  0  0  2  0  0  0  0  0  0
  162.2170  209.3200  150.7770 O   0  0  0  0  0  0  0  0  0  0  0  0
  161.7330  205.1810  147.8890 C   0  0  0  0  0  2  0  0  0  0  0  0
  161.5370  209.6320  154.7240 C   0  0  0  0  0  0  0  0  0  0  0  0
  162.0320  209.9120  155.8480 O   0  0  0  0  0  0  0  0  0  0  0  0
  161.6410  206.6150  149.9930 C   0  0  1  0  0  3  0  0  0  0  0  0
  161.2230  204.0680  150.0810 C   0  0  2  0  0  3  0  0  0  0  0  0
  160.7150  208.5020  154.4990 N   0  0  0  0  0  0  0  0  0  0  0  0
  159.8310  207.9760  155.5280 C   0  0  0  0  0  1  0  0  0  0  0  0
  161.1880  207.3220  152.3670 C   0  0  2  0  0  3  0  0  0  0  0  0
  161.7180  210.4640  153.5170 C   0  0  0  0  0  2  0  0  0  0  0  0
  161.5410  206.3850  147.0970 N   0  0  0  0  0  2  0  0  0  0  0  0
  161.8230  204.8160  152.3700 C   0  0  0  0  0  2  0  0  0  0  0  0
  162.2950  206.1720  154.3200 C   0  0  0  0  0  1  0  0  0  0  0  0
  161.3040  206.0000  153.1820 C   0  0  1  0  0  3  0  0  0  0  0  0
  160.6550  209.8900  152.5770 C   0  0  2  0  0  0  0  0  0  0  0  0
  161.0850  205.3690  149.2600 C   0  0  2  0  0  3  0  0  0  0  0  0
  159.3730  202.5630  149.8570 O   0  0  0  0  0  0  0  0  0  0  0  0
  160.4980  202.9360  149.4220 C   0  0  0  0  0  0  0  0  0  0  0  0
  161.2560  200.8920  148.2840 C   0  0  0  0  0  1  0  0  0  0  0  0
  161.0840  202.3000  148.3280 O   0  0  0  0  0  0  0  0  0  0  0  0
  1 23  1  0  0  0  0
  2  6  1  0  0  0  0
  3 15  1  1  0  0  0
  4  9  1  0  0  0  0
  6  4  2  0  0  0  0
  6 13  1  0  0  0  0
  8 20  1  0  0  0  0
  9  1  1  0  0  0  0
 11 12  2  0  0  0  0
 13  7  1  1  0  0  0
 14 26  1  6  0  0  0
 14  8  1  0  0  0  0
 15 11  1  0  0  0  0
 15 16  1  0  0  0  0
 17  7  1  6  0  0  0
 17  3  1  0  0  0  0
 17 22  1  0  0  0  0
 18 11  1  0  0  0  0
 19  2  1  0  0  0  0
 19 10  1  0  0  0  0
 20 22  1  0  0  0  0
 22 21  1  1  0  0  0
 23  5  1  1  0  0  0
 23  3  1  0  0  0  0
 23 18  1  0  0  0  0
 24 10  1  6  0  0  0
 24 13  1  0  0  0  0
 24 14  1  0  0  0  0
 26 25  2  0  0  0  0
 27 28  1  0  0  0  0
 28 26  1  0  0  0  0
M  END
>  <MODEL>
1

>  <REMARK>
 VINA RESULT:      -7.0      0.000      0.000
  Name = 
  2 active torsions:
  status: ('A' for Active; 'I' for Inactive)
    1  A    between atoms: O_9  and  C_18
    2  A    between atoms: C_17  and  C_18
                            x       y       z     vdW  Elec       q    Type
                         _______ _______ _______ _____ _____    ______ ____

>  <TORSDO>
F 2

$$$$
=
 OpenBabel11072411193D

 28 31  0  0  1  0  0  0  0  0999 V2000
  160.3210  202.3590  150.7370 C   0  0  0  0  0  2  0  0  0  0  0  0
  162.0170  206.1090  152.7870 C   0  0  0  0  0  2  0  0  0  0  0  0
  160.3970  202.8160  148.1290 C   0  0  2  0  0  3  0  0  0  0  0  0
  161.7410  203.8950  151.9270 N   0  0  0  0  0  0  0  0  0  0  0  0
  158.7400  201.3070  149.2050 C   0  0  0  0  0  1  0  0  0  0  0  0
  161.7820  205.1640  151.6460 C   0  0  0  0  0  0  0  0  0  0  0  0
  160.7420  204.9860  149.3340 C   0  0  0  0  0  2  0  0  0  0  0  0
  161.8210  207.0790  147.5580 C   0  0  0  0  0  2  0  0  0  0  0  0
  161.6020  202.9210  150.9650 O   0  0  0  0  0  0  0  0  0  0  0  0
  162.0480  207.9570  151.3410 C   0  0  0  0  0  2  0  0  0  0  0  0
  161.3320  200.7410  147.6010 C   0  0  0  0  0  0  0  0  0  0  0  0
  161.8490  199.8250  146.9090 O   0  0  0  0  0  0  0  0  0  0  0  0
  161.7780  205.6890  150.2120 C   0  0  1  0  0  3  0  0  0  0  0  0
  162.1590  207.8410  148.8350 C   0  0  2  0  0  3  0  0  0  0  0  0
  160.8670  201.9600  147.0510 N   0  0  0  0  0  0  0  0  0  0  0  0
  160.3100  202.0360  145.7090 C   0  0  0  0  0  1  0  0  0  0  0  0
  161.4180  203.9550  148.4210 C   0  0  2  0  0  3  0  0  0  0  0  0
  161.1100  200.6430  149.0580 C   0  0  0  0  0  2  0  0  0  0  0  0
  161.4100  207.4080  152.5260 N   0  0  0  0  0  2  0  0  0  0  0  0
  162.7720  205.9080  147.4040 C   0  0  0  0  0  2  0  0  0  0  0  0
  163.0420  203.6730  146.5110 C   0  0  0  0  0  1  0  0  0  0  0  0
  162.0210  204.6060  147.1410 C   0  0  1  0  0  3  0  0  0  0  0  0
  160.1660  201.8200  149.3130 C   0  0  2  0  0  0  0  0  0  0  0  0
  161.5400  207.2160  150.1040 C   0  0  2  0  0  3  0  0  0  0  0  0
  161.0860  209.6280  147.6550 O   0  0  0  0  0  0  0  0  0  0  0  0
  161.7350  209.2680  148.6760 C   0  0  0  0  0  0  0  0  0  0  0  0
  162.0500  211.5890  149.4270 C   0  0  0  0  0  1  0  0  0  0  0  0
  162.0710  210.1900  149.6670 O   0  0  0  0  0  0  0  0  0  0  0  0
  1  9  1  0  0  0  0
  3 15  1  6  0  0  0
  3 17  1  0  0  0  0
  3 23  1  0  0  0  0
  6  4  2  0  0  0  0
  6  2  1  0  0  0  0
  8 14  1  0  0  0  0
  9  4  1  0  0  0  0
 10 19  1  0  0  0  0
 11 18  1  0  0  0  0
 12 11  2  0  0  0  0
 13  7  1  6  0  0  0
 13  6  1  0  0  0  0
 14 26  1  6  0  0  0
 14 24  1  0  0  0  0
 15 11  1  0  0  0  0
 16 15  1  0  0  0  0
 17  7  1  6  0  0  0
 18 23  1  0  0  0  0
 19  2  1  0  0  0  0
 20  8  1  0  0  0  0
 22 21  1  1  0  0  0
 22 20  1  0  0  0  0
 22 17  1  0  0  0  0
 23  5  1  6  0  0  0
 23  1  1  0  0  0  0
 24 13  1  0  0  0  0
 24 10  1  1  0  0  0
 25 26  2  0  0  0  0
 26 28  1  0  0  0  0
 27 28  1  0  0  0  0
M  END
>  <MODEL>
2

>  <REMARK>
 VINA RESULT:      -6.9      2.568      7.590
  Name = 
  2 active torsions:
  status: ('A' for Active; 'I' for Inactive)
    1  A    between atoms: O_9  and  C_18
    2  A    between atoms: C_17  and  C_18
                            x       y       z     vdW  Elec       q    Type
                         _______ _______ _______ _____ _____    ______ ____

>  <TORSDO>
F 2

$$$$
=
 OpenBabel11072411193D

 28 31  0  0  1  0  0  0  0  0999 V2000
  162.2490  205.7290  146.1730 C   0  0  0  0  0  2  0  0  0  0  0  0
  161.2570  209.0190  149.2290 C   0  0  0  0  0  2  0  0  0  0  0  0
  162.0490  203.4180  147.4500 C   0  0  2  0  0  3  0  0  0  0  0  0
  161.1520  207.4910  147.3930 N   0  0  0  0  0  0  0  0  0  0  0  0
  163.5490  203.7770  145.5000 C   0  0  0  0  0  1  0  0  0  0  0  0
  161.2710  207.6230  148.6810 C   0  0  0  0  0  0  0  0  0  0  0  0
  162.1040  205.2660  149.1410 C   0  0  0  0  0  2  0  0  0  0  0  0
  161.2060  204.3600  151.8010 C   0  0  0  0  0  2  0  0  0  0  0  0
  161.0810  206.2650  146.7710 O   0  0  0  0  0  0  0  0  0  0  0  0
  161.3840  208.2290  151.4350 C   0  0  0  0  0  2  0  0  0  0  0  0
  160.7930  202.3840  145.7730 C   0  0  0  0  0  0  0  0  0  0  0  0
  160.1020  201.5060  145.1920 O   0  0  0  0  0  0  0  0  0  0  0  0
  161.2450  206.4310  149.6360 C   0  0  1  0  0  3  0  0  0  0  0  0
  161.0740  205.8400  152.1440 C   0  0  2  0  0  3  0  0  0  0  0  0
  161.3840  202.1890  147.0440 N   0  0  0  0  0  0  0  0  0  0  0  0
  161.8470  200.8820  147.4850 C   0  0  0  0  0  1  0  0  0  0  0  0
  161.2240  204.1620  148.5410 C   0  0  2  0  0  3  0  0  0  0  0  0
  161.1050  203.7040  145.1870 C   0  0  0  0  0  2  0  0  0  0  0  0
  162.0220  209.1050  150.4660 N   0  0  0  0  0  2  0  0  0  0  0  0
  160.0900  203.9610  150.8550 C   0  0  0  0  0  2  0  0  0  0  0  0
  159.4410  202.4580  149.0710 C   0  0  0  0  0  1  0  0  0  0  0  0
  160.6270  203.2240  149.6320 C   0  0  1  0  0  3  0  0  0  0  0  0
  162.2220  204.2010  146.1070 C   0  0  2  0  0  0  0  0  0  0  0  0
  161.6890  206.7750  151.0790 C   0  0  2  0  0  3  0  0  0  0  0  0
  162.9320  205.9800  153.6500 O   0  0  0  0  0  0  0  0  0  0  0  0
  161.6840  206.0830  153.4900 C   0  0  0  0  0  0  0  0  0  0  0  0
  160.7220  207.7570  155.0140 C   0  0  0  0  0  1  0  0  0  0  0  0
  160.8540  206.4190  154.5600 O   0  0  0  0  0  0  0  0  0  0  0  0
  1  9  1  0  0  0  0
  2 19  1  0  0  0  0
  3 15  1  6  0  0  0
  3 17  1  0  0  0  0
  4  6  2  0  0  0  0
  6  2  1  0  0  0  0
  6 13  1  0  0  0  0
  8 14  1  0  0  0  0
  9  4  1  0  0  0  0
 11 15  1  0  0  0  0
 12 11  2  0  0  0  0
 13  7  1  6  0  0  0
 13 24  1  0  0  0  0
 14 26  1  1  0  0  0
 15 16  1  0  0  0  0
 17  7  1  1  0  0  0
 17 22  1  0  0  0  0
 18 11  1  0  0  0  0
 18 23  1  0  0  0  0
 19 10  1  0  0  0  0
 20  8  1  0  0  0  0
 22 21  1  6  0  0  0
 22 20  1  0  0  0  0
 23  5  1  6  0  0  0
 23  1  1  0  0  0  0
 23  3  1  0  0  0  0
 24 10  1  1  0  0  0
 24 14  1  0  0  0  0
 26 25  2  0  0  0  0
 26 28  1  0  0  0  0
 28 27  1  0  0  0  0
M  END
>  <MODEL>
3

>  <REMARK>
 VINA RESULT:      -6.3      2.269      7.001
  Name = 
  2 active torsions:
  status: ('A' for Active; 'I' for Inactive)
    1  A    between atoms: O_9  and  C_18
    2  A    between atoms: C_17  and  C_18
                            x       y       z     vdW  Elec       q    Type
                         _______ _______ _______ _____ _____    ______ ____

>  <TORSDO>
F 2

$$$$
=
 OpenBabel11072411193D

 28 31  0  0  1  0  0  0  0  0999 V2000
  159.9860  211.8300  152.2390 C   0  0  0  0  0  2  0  0  0  0  0  0
  162.3180  209.2650  149.2190 C   0  0  0  0  0  2  0  0  0  0  0  0
  159.4370  210.2650  154.3040 C   0  0  2  0  0  3  0  0  0  0  0  0
  161.7300  210.8850  150.8760 N   0  0  0  0  0  0  0  0  0  0  0  0
  158.0250  212.2030  153.6430 C   0  0  0  0  0  1  0  0  0  0  0  0
  161.7630  209.6230  150.5650 C   0  0  0  0  0  0  0  0  0  0  0  0
  160.1750  208.8320  152.3850 C   0  0  0  0  0  2  0  0  0  0  0  0
  160.8820  206.1020  153.2510 C   0  0  0  0  0  2  0  0  0  0  0  0
  161.3100  211.3410  152.1040 O   0  0  0  0  0  0  0  0  0  0  0  0
  162.0800  206.9710  149.6530 C   0  0  0  0  0  2  0  0  0  0  0  0
  160.1090  211.8260  155.9080 C   0  0  0  0  0  0  0  0  0  0  0  0
  160.3930  212.3040  157.0370 O   0  0  0  0  0  0  0  0  0  0  0  0
  161.4290  208.5200  151.5680 C   0  0  1  0  0  3  0  0  0  0  0  0
  161.5620  205.9610  151.8930 C   0  0  2  0  0  3  0  0  0  0  0  0
  159.5830  210.5240  155.7280 N   0  0  0  0  0  0  0  0  0  0  0  0
  158.7160  209.9010  156.7160 C   0  0  0  0  0  1  0  0  0  0  0  0
  160.5520  209.3050  153.7950 C   0  0  2  0  0  3  0  0  0  0  0  0
  160.2500  212.5710  154.6400 C   0  0  0  0  0  2  0  0  0  0  0  0
  161.7300  208.0290  148.7200 N   0  0  0  0  0  2  0  0  0  0  0  0
  161.7070  207.0180  154.1340 C   0  0  0  0  0  2  0  0  0  0  0  0
  161.6370  208.6050  155.9620 C   0  0  0  0  0  1  0  0  0  0  0  0
  160.8510  208.1180  154.7570 C   0  0  1  0  0  3  0  0  0  0  0  0
  159.4570  211.6940  153.6680 C   0  0  2  0  0  0  0  0  0  0  0  0
  161.2470  207.1230  150.9250 C   0  0  2  0  0  3  0  0  0  0  0  0
  161.3760  203.5730  151.9360 O   0  0  0  0  0  0  0  0  0  0  0  0
  161.1820  204.6430  151.2940 C   0  0  0  0  0  0  0  0  0  0  0  0
  160.8320  203.5300  149.1280 C   0  0  0  0  0  1  0  0  0  0  0  0
  160.6180  204.6150  150.0180 O   0  0  0  0  0  0  0  0  0  0  0  0
  1 23  1  0  0  0  0
  2  6  1  0  0  0  0
  3 15  1  1  0  0  0
  4  9  1  0  0  0  0
  6  4  2  0  0  0  0
  6 13  1  0  0  0  0
  8 20  1  0  0  0  0
  9  1  1  0  0  0  0
 11 12  2  0  0  0  0
 13  7  1  6  0  0  0
 14 26  1  6  0  0  0
 14  8  1  0  0  0  0
 15 11  1  0  0  0  0
 15 16  1  0  0  0  0
 17  7  1  6  0  0  0
 17  3  1  0  0  0  0
 17 22  1  0  0  0  0
 18 11  1  0  0  0  0
 19  2  1  0  0  0  0
 19 10  1  0  0  0  0
 20 22  1  0  0  0  0
 22 21  1  1  0  0  0
 23  5  1  6  0  0  0
 23  3  1  0  0  0  0
 23 18  1  0  0  0  0
 24 10  1  6  0  0  0
 24 13  1  0  0  0  0
 24 14  1  0  0  0  0
 26 25  2  0  0  0  0
 27 28  1  0  0  0  0
 28 26  1  0  0  0  0
M  END
>  <MODEL>
4

>  <REMARK>
 VINA RESULT:      -5.8      1.859      2.618
  Name = 
  2 active torsions:
  status: ('A' for Active; 'I' for Inactive)
    1  A    between atoms: O_9  and  C_18
    2  A    between atoms: C_17  and  C_18
                            x       y       z     vdW  Elec       q    Type
                         _______ _______ _______ _____ _____    ______ ____

>  <TORSDO>
F 2

$$$$
=
 OpenBabel11072411193D

 28 31  0  0  1  0  0  0  0  0999 V2000
  161.5110  208.2400  154.7270 C   0  0  0  0  0  2  0  0  0  0  0  0
  161.6250  207.1300  150.2670 C   0  0  0  0  0  2  0  0  0  0  0  0
  161.1020  210.8540  154.8510 C   0  0  2  0  0  3  0  0  0  0  0  0
  160.9570  207.3800  152.5480 N   0  0  0  0  0  0  0  0  0  0  0  0
  162.3140  209.5750  156.6060 C   0  0  0  0  0  1  0  0  0  0  0  0
  161.3000  207.9880  151.4530 C   0  0  0  0  0  0  0  0  0  0  0  0
  161.7570  210.2550  152.5080 C   0  0  0  0  0  2  0  0  0  0  0  0
  161.1450  212.4190  150.5990 C   0  0  0  0  0  2  0  0  0  0  0  0
  160.5680  208.0500  153.6860 O   0  0  0  0  0  0  0  0  0  0  0  0
  161.9560  209.0130  148.9060 C   0  0  0  0  0  2  0  0  0  0  0  0
  159.4300  210.7070  156.4770 C   0  0  0  0  0  0  0  0  0  0  0  0
  158.5090  211.0720  157.2540 O   0  0  0  0  0  0  0  0  0  0  0  0
  161.2120  209.5050  151.2920 C   0  0  1  0  0  3  0  0  0  0  0  0
  161.3380  211.3700  149.5100 C   0  0  2  0  0  3  0  0  0  0  0  0
  160.1710  211.6090  155.6760 N   0  0  0  0  0  0  0  0  0  0  0  0
  160.4550  212.9680  156.1090 C   0  0  0  0  0  1  0  0  0  0  0  0
  160.6090  210.7850  153.3760 C   0  0  2  0  0  3  0  0  0  0  0  0
  159.8780  209.3060  156.3340 C   0  0  0  0  0  2  0  0  0  0  0  0
  162.5800  207.7900  149.3860 N   0  0  0  0  0  2  0  0  0  0  0  0
  159.8390  212.1570  151.3250 C   0  0  0  0  0  2  0  0  0  0  0  0
  158.6560  212.3800  153.4260 C   0  0  0  0  0  1  0  0  0  0  0  0
  160.0340  212.1290  152.8380 C   0  0  1  0  0  3  0  0  0  0  0  0
  161.1980  209.4720  155.5780 C   0  0  2  0  0  0  0  0  0  0  0  0
  161.9340  210.0450  150.0330 C   0  0  2  0  0  3  0  0  0  0  0  0
  163.4050  212.2090  148.6350 O   0  0  0  0  0  0  0  0  0  0  0  0
  162.1870  211.9500  148.4220 C   0  0  0  0  0  0  0  0  0  0  0  0
  160.2510  212.5790  147.0410 C   0  0  0  0  0  1  0  0  0  0  0  0
  161.6140  212.2040  147.1760 O   0  0  0  0  0  0  0  0  0  0  0  0
  1 23  1  0  0  0  0
  2  6  1  0  0  0  0
  3 23  1  0  0  0  0
  3 15  1  1  0  0  0
  4  9  1  0  0  0  0
  6  4  2  0  0  0  0
  8 20  1  0  0  0  0
  9  1  1  0  0  0  0
 10 19  1  0  0  0  0
 11 12  2  0  0  0  0
 13  6  1  0  0  0  0
 13  7  1  1  0  0  0
 14 26  1  6  0  0  0
 14 24  1  0  0  0  0
 14  8  1  0  0  0  0
 15 16  1  0  0  0  0
 15 11  1  0  0  0  0
 17  7  1  6  0  0  0
 17  3  1  0  0  0  0
 18 11  1  0  0  0  0
 19  2  1  0  0  0  0
 20 22  1  0  0  0  0
 22 17  1  0  0  0  0
 22 21  1  1  0  0  0
 23 18  1  0  0  0  0
 23  5  1  1  0  0  0
 24 10  1  6  0  0  0
 24 13  1  0  0  0  0
 26 25  2  0  0  0  0
 27 28  1  0  0  0  0
 28 26  1  0  0  0  0
M  END
>  <MODEL>
5

>  <REMARK>
 VINA RESULT:      -5.3      3.195      5.878
  Name = 
  2 active torsions:
  status: ('A' for Active; 'I' for Inactive)
    1  A    between atoms: O_9  and  C_18
    2  A    between atoms: C_17  and  C_18
                            x       y       z     vdW  Elec       q    Type
                         _______ _______ _______ _____ _____    ______ ____

>  <TORSDO>
F 2

$$$$
=
 OpenBabel11072411193D

 28 31  0  0  1  0  0  0  0  0999 V2000
  160.9490  203.8170  150.8580 C   0  0  0  0  0  2  0  0  0  0  0  0
  161.6270  206.1880  154.7380 C   0  0  0  0  0  2  0  0  0  0  0  0
  160.7290  205.5950  148.9070 C   0  0  2  0  0  3  0  0  0  0  0  0
  161.9420  204.8000  152.8180 N   0  0  0  0  0  0  0  0  0  0  0  0
  159.6420  203.3600  148.8480 C   0  0  0  0  0  1  0  0  0  0  0  0
  161.6010  205.9760  153.2540 C   0  0  0  0  0  0  0  0  0  0  0  0
  160.5140  206.7830  151.1030 C   0  0  0  0  0  2  0  0  0  0  0  0
  160.8380  209.7020  150.8200 C   0  0  0  0  0  2  0  0  0  0  0  0
  162.0270  204.4960  151.4780 O   0  0  0  0  0  0  0  0  0  0  0  0
  161.0380  208.4470  154.4970 C   0  0  0  0  0  2  0  0  0  0  0  0
  162.1840  204.4720  147.4640 C   0  0  0  0  0  0  0  0  0  0  0  0
  162.8960  204.2510  146.4500 O   0  0  0  0  0  0  0  0  0  0  0  0
  161.3580  207.1610  152.3210 C   0  0  1  0  0  3  0  0  0  0  0  0
  161.0220  209.7220  152.3330 C   0  0  2  0  0  3  0  0  0  0  0  0
  161.3570  205.6140  147.5950 N   0  0  0  0  0  0  0  0  0  0  0  0
  160.7200  206.2390  146.4460 C   0  0  0  0  0  1  0  0  0  0  0  0
  161.3980  206.6310  149.8590 C   0  0  2  0  0  3  0  0  0  0  0  0
  162.0890  203.5560  148.6180 C   0  0  0  0  0  2  0  0  0  0  0  0
  160.6580  207.2000  155.1410 N   0  0  0  0  0  2  0  0  0  0  0  0
  162.0720  209.1070  150.1700 C   0  0  0  0  0  2  0  0  0  0  0  0
  162.9130  207.8680  148.2670 C   0  0  0  0  0  1  0  0  0  0  0  0
  161.7100  207.9990  149.1850 C   0  0  1  0  0  3  0  0  0  0  0  0
  160.8660  204.1030  149.3570 C   0  0  2  0  0  0  0  0  0  0  0  0
  160.6870  208.3750  153.0110 C   0  0  2  0  0  3  0  0  0  0  0  0
  158.9950  210.9780  152.5580 O   0  0  0  0  0  0  0  0  0  0  0  0
  160.1990  210.8320  152.9080 C   0  0  0  0  0  0  0  0  0  0  0  0
  160.1270  212.0670  155.0340 C   0  0  0  0  0  1  0  0  0  0  0  0
  160.7830  211.7030  153.8290 O   0  0  0  0  0  0  0  0  0  0  0  0
  1  9  1  0  0  0  0
  2 19  1  0  0  0  0
  3 15  1  6  0  0  0
  3 23  1  0  0  0  0
  3 17  1  0  0  0  0
  4  6  2  0  0  0  0
  6  2  1  0  0  0  0
  8 14  1  0  0  0  0
  9  4  1  0  0  0  0
 10 19  1  0  0  0  0
 11 15  1  0  0  0  0
 11 18  1  0  0  0  0
 12 11  2  0  0  0  0
 13  7  1  6  0  0  0
 13 24  1  0  0  0  0
 13  6  1  0  0  0  0
 14 26  1  1  0  0  0
 14 24  1  0  0  0  0
 16 15  1  0  0  0  0
 17  7  1  1  0  0  0
 18 23  1  0  0  0  0
 20  8  1  0  0  0  0
 22 21  1  6  0  0  0
 22 17  1  0  0  0  0
 22 20  1  0  0  0  0
 23  5  1  6  0  0  0
 23  1  1  0  0  0  0
 24 10  1  1  0  0  0
 25 26  2  0  0  0  0
 26 28  1  0  0  0  0
 28 27  1  0  0  0  0
M  END
>  <MODEL>
6

>  <REMARK>
 VINA RESULT:      -4.5      1.857      7.247
  Name = 
  2 active torsions:
  status: ('A' for Active; 'I' for Inactive)
    1  A    between atoms: O_9  and  C_18
    2  A    between atoms: C_17  and  C_18
                            x       y       z     vdW  Elec       q    Type
                         _______ _______ _______ _____ _____    ______ ____

>  <TORSDO>
F 2

$$$$
=
 OpenBabel11072411193D

 28 31  0  0  1  0  0  0  0  0999 V2000
  161.7460  209.3550  149.7360 C   0  0  0  0  0  2  0  0  0  0  0  0
  162.5390  205.8720  146.8400 C   0  0  0  0  0  2  0  0  0  0  0  0
  160.9770  208.2780  152.0300 C   0  0  2  0  0  3  0  0  0  0  0  0
  162.8180  207.7220  148.3290 N   0  0  0  0  0  0  0  0  0  0  0  0
  160.2740  210.5420  151.2790 C   0  0  0  0  0  1  0  0  0  0  0  0
  162.3510  206.5190  148.1800 C   0  0  0  0  0  0  0  0  0  0  0  0
  160.8670  206.5240  150.2440 C   0  0  0  0  0  2  0  0  0  0  0  0
  160.6660  203.8060  151.3720 C   0  0  0  0  0  2  0  0  0  0  0  0
  162.7720  208.4000  149.5260 O   0  0  0  0  0  0  0  0  0  0  0  0
  161.5610  203.8740  147.5870 C   0  0  0  0  0  2  0  0  0  0  0  0
  162.3890  209.6000  153.3410 C   0  0  0  0  0  0  0  0  0  0  0  0
  162.9860  210.0270  154.3640 O   0  0  0  0  0  0  0  0  0  0  0  0
  161.7930  205.7030  149.3460 C   0  0  1  0  0  3  0  0  0  0  0  0
  161.0460  203.3140  149.9800 C   0  0  2  0  0  3  0  0  0  0  0  0
  161.4110  208.5770  153.3860 N   0  0  0  0  0  0  0  0  0  0  0  0
  160.5320  208.4030  154.5320 C   0  0  0  0  0  1  0  0  0  0  0  0
  161.5890  206.9340  151.5340 C   0  0  2  0  0  3  0  0  0  0  0  0
  162.6030  210.1350  151.9810 C   0  0  0  0  0  2  0  0  0  0  0  0
  161.4810  204.9080  146.5680 N   0  0  0  0  0  2  0  0  0  0  0  0
  161.8830  204.4170  152.0400 C   0  0  0  0  0  2  0  0  0  0  0  0
  162.6520  206.0570  153.6460 C   0  0  0  0  0  1  0  0  0  0  0  0
  161.5780  205.8020  152.6030 C   0  0  1  0  0  3  0  0  0  0  0  0
  161.4170  209.5410  151.2180 C   0  0  2  0  0  0  0  0  0  0  0  0
  161.0310  204.4270  148.9100 C   0  0  2  0  0  3  0  0  0  0  0  0
  158.8930  202.3820  149.4940 O   0  0  0  0  0  0  0  0  0  0  0  0
  160.1360  202.1880  149.5980 C   0  0  0  0  0  0  0  0  0  0  0  0
  161.6780  200.7100  148.3780 C   0  0  0  0  0  1  0  0  0  0  0  0
  160.6800  200.9250  149.3640 O   0  0  0  0  0  0  0  0  0  0  0  0
  1 23  1  0  0  0  0
  2  6  1  0  0  0  0
  3 15  1  1  0  0  0
  4  9  1  0  0  0  0
  6  4  2  0  0  0  0
  6 13  1  0  0  0  0
  8 20  1  0  0  0  0
  9  1  1  0  0  0  0
 11 15  1  0  0  0  0
 11 12  2  0  0  0  0
 13  7  1  6  0  0  0
 14 26  1  6  0  0  0
 14  8  1  0  0  0  0
 15 16  1  0  0  0  0
 17  7  1  6  0  0  0
 17  3  1  0  0  0  0
 17 22  1  0  0  0  0
 18 11  1  0  0  0  0
 19  2  1  0  0  0  0
 19 10  1  0  0  0  0
 20 22  1  0  0  0  0
 22 21  1  1  0  0  0
 23  5  1  1  0  0  0
 23 18  1  0  0  0  0
 23  3  1  0  0  0  0
 24 10  1  6  0  0  0
 24 13  1  0  0  0  0
 24 14  1  0  0  0  0
 25 26  2  0  0  0  0
 27 28  1  0  0  0  0
 28 26  1  0  0  0  0
M  END
>  <MODEL>
7

>  <REMARK>
 VINA RESULT:      -4.4      1.205      1.314
  Name = 
  2 active torsions:
  status: ('A' for Active; 'I' for Inactive)
    1  A    between atoms: O_9  and  C_18
    2  A    between atoms: C_17  and  C_18
                            x       y       z     vdW  Elec       q    Type
                         _______ _______ _______ _____ _____    ______ ____

>  <TORSDO>
F 2

$$$$
=
 OpenBabel11072411193D

 28 31  0  0  1  0  0  0  0  0999 V2000
  158.9020  213.2840  151.9080 C   0  0  0  0  0  2  0  0  0  0  0  0
  162.0630  211.0060  149.4670 C   0  0  0  0  0  2  0  0  0  0  0  0
  158.3350  211.7800  154.0130 C   0  0  2  0  0  3  0  0  0  0  0  0
  160.9650  212.5920  150.8790 N   0  0  0  0  0  0  0  0  0  0  0  0
  156.7210  213.3770  153.0000 C   0  0  0  0  0  1  0  0  0  0  0  0
  161.2610  211.3410  150.6890 C   0  0  0  0  0  0  0  0  0  0  0  0
  159.5860  210.3880  152.3460 C   0  0  0  0  0  2  0  0  0  0  0  0
  160.6220  207.8970  153.5380 C   0  0  0  0  0  2  0  0  0  0  0  0
  160.2950  213.0410  151.9950 O   0  0  0  0  0  0  0  0  0  0  0  0
  162.1660  208.7400  150.0690 C   0  0  0  0  0  2  0  0  0  0  0  0
  158.4830  213.5370  155.5460 C   0  0  0  0  0  0  0  0  0  0  0  0
  158.5100  214.1310  156.6560 O   0  0  0  0  0  0  0  0  0  0  0  0
  160.9810  210.2610  151.7340 C   0  0  1  0  0  3  0  0  0  0  0  0
  161.5080  207.7980  152.3010 C   0  0  2  0  0  3  0  0  0  0  0  0
  158.2230  212.1510  155.4150 N   0  0  0  0  0  0  0  0  0  0  0  0
  157.3420  211.4440  156.3310 C   0  0  0  0  0  1  0  0  0  0  0  0
  159.6640  211.0120  153.7450 C   0  0  2  0  0  3  0  0  0  0  0  0
  158.6770  214.2130  154.2470 C   0  0  0  0  0  2  0  0  0  0  0  0
  161.7780  209.6530  149.0060 N   0  0  0  0  0  2  0  0  0  0  0  0
  161.1360  209.0040  154.4380 C   0  0  0  0  0  2  0  0  0  0  0  0
  160.5230  210.6650  156.0910 C   0  0  0  0  0  1  0  0  0  0  0  0
  160.0200  209.9640  154.8400 C   0  0  1  0  0  3  0  0  0  0  0  0
  158.2000  213.1440  153.2610 C   0  0  2  0  0  0  0  0  0  0  0  0
  161.1410  208.8170  151.2000 C   0  0  2  0  0  3  0  0  0  0  0  0
  161.0790  206.1750  150.5930 O   0  0  0  0  0  0  0  0  0  0  0  0
  161.4560  206.3960  151.7770 C   0  0  0  0  0  0  0  0  0  0  0  0
  161.0050  204.1950  152.7780 C   0  0  0  0  0  1  0  0  0  0  0  0
  161.8230  205.3440  152.6160 O   0  0  0  0  0  0  0  0  0  0  0  0
  1  9  1  0  0  0  0
  1 23  1  0  0  0  0
  2  6  1  0  0  0  0
  3 15  1  1  0  0  0
  4  9  1  0  0  0  0
  6  4  2  0  0  0  0
  6 13  1  0  0  0  0
  8 20  1  0  0  0  0
 11 12  2  0  0  0  0
 13  7  1  6  0  0  0
 14 26  1  6  0  0  0
 14  8  1  0  0  0  0
 15 11  1  0  0  0  0
 15 16  1  0  0  0  0
 17  7  1  6  0  0  0
 17  3  1  0  0  0  0
 17 22  1  0  0  0  0
 18 11  1  0  0  0  0
 19  2  1  0  0  0  0
 19 10  1  0  0  0  0
 20 22  1  0  0  0  0
 22 21  1  1  0  0  0
 23  5  1  6  0  0  0
 23  3  1  0  0  0  0
 23 18  1  0  0  0  0
 24 10  1  6  0  0  0
 24 13  1  0  0  0  0
 24 14  1  0  0  0  0
 25 26  2  0  0  0  0
 26 28  1  0  0  0  0
 28 27  1  0  0  0  0
M  END
>  <MODEL>
8

>  <REMARK>
 VINA RESULT:      -4.4      2.831      4.423
  Name = 
  2 active torsions:
  status: ('A' for Active; 'I' for Inactive)
    1  A    between atoms: O_9  and  C_18
    2  A    between atoms: C_17  and  C_18
                            x       y       z     vdW  Elec       q    Type
                         _______ _______ _______ _____ _____    ______ ____

>  <TORSDO>
F 2

$$$$
