=
 OpenBabel11072409473D

 49 55  0  0  1  0  0  0  0  0999 V2000
  163.1980  206.8370  151.2620 F   0  0  0  0  0  0  0  0  0  0  0  0
  160.2910  212.5100  150.2340 C   0  0  1  0  0  3  0  0  0  0  0  0
  161.0440  210.3910  151.4630 C   0  0  0  0  0  0  0  0  0  0  0  0
  160.0290  211.6010  149.0340 C   0  0  0  0  0  2  0  0  0  0  0  0
  161.4730  209.7480  152.6280 C   0  0  0  0  0  3  0  0  0  0  0  0
  160.2390  211.6640  151.5180 C   0  0  1  0  0  3  0  0  0  0  0  0
  162.1900  208.5540  152.5500 C   0  0  0  0  0  3  0  0  0  0  0  0
  161.3180  209.8170  150.2050 C   0  0  0  0  0  0  0  0  0  0  0  0
  160.9060  210.4690  149.0310 O   0  0  0  0  0  0  0  0  0  0  0  0
  162.0360  208.6090  150.1250 C   0  0  0  0  0  0  0  0  0  0  0  0
  162.4760  207.9870  151.3070 C   0  0  0  0  0  0  0  0  0  0  0  0
  158.4680  213.9720  152.8460 C   0  0  0  0  0  2  0  0  0  0  0  0
  155.8030  214.4510  155.3080 C   0  0  0  0  0  1  0  0  0  0  0  0
  159.8550  213.7620  152.8160 O   0  0  0  0  0  0  0  0  0  0  0  0
  158.5350  212.0710  156.2250 C   0  0  0  0  0  0  0  0  0  0  0  0
  160.3460  210.8270  154.8270 C   0  0  1  0  0  3  0  0  0  0  0  0
  158.0180  214.4070  154.2390 C   0  0  0  0  0  2  0  0  0  0  0  0
  157.4100  212.9020  156.0860 O   0  0  0  0  0  0  0  0  0  0  0  0
  159.3770  211.5740  153.9380 C   0  0  2  0  0  3  0  0  0  0  0  0
  160.1320  212.3740  152.8760 C   0  0  1  0  0  3  0  0  0  0  0  0
  159.7200  212.1500  155.2970 C   0  0  1  0  0  3  0  0  0  0  0  0
  156.9270  213.5210  154.8870 C   0  0  1  0  0  0  0  0  0  0  0  0
  158.6050  211.3380  157.2480 O   0  0  0  0  0  0  0  0  0  0  0  0
  155.5490  211.3550  154.7210 C   0  0  0  0  0  1  0  0  0  0  0  0
  156.3400  212.4220  153.9760 C   0  0  0  0  0  2  0  0  0  0  0  0
  159.6840  209.6500  155.3710 N   0  0  0  0  0  2  0  0  0  0  0  0
  160.7290  208.7510  155.8270 C   0  0  0  0  0  3  0  0  0  0  0  0
  160.3070  207.3230  155.5580 C   0  0  0  0  0  2  0  0  0  0  0  0
  160.1910  207.8930  156.9540 C   0  0  0  0  0  2  0  0  0  0  0  0
  162.3300  208.0140  148.8030 C   0  0  0  0  0  0  0  0  0  0  0  0
  162.8200  208.7510  147.9080 O   0  0  0  0  0  0  0  0  0  0  0  0
  162.0290  206.5990  148.4930 C   0  0  0  0  0  0  0  0  0  0  0  0
  161.4540  200.7330  149.6980 O   0  0  0  0  0  1  0  0  0  0  0  0
  161.4010  203.9570  147.8350 C   0  0  0  0  0  0  0  0  0  0  0  0
  160.4970  202.0080  149.1380 P   0  0  2  0  0  0  0  0  0  0  0  0
  161.8820  204.8000  146.8390 C   0  0  0  0  0  3  0  0  0  0  0  0
  160.7470  203.4490  150.0200 O   0  0  0  0  0  0  0  0  0  0  0  0
  159.0320  201.6360  149.0750 O   0  0  0  0  0  0  0  0  0  0  0  0
  161.5340  205.7290  149.4840 C   0  0  0  0  0  3  0  0  0  0  0  0
  161.0500  202.6240  147.6450 O   0  0  0  0  0  0  0  0  0  0  0  0
  162.1920  206.1230  147.1740 C   0  0  0  0  0  3  0  0  0  0  0  0
  161.2310  204.4120  149.1410 C   0  0  0  0  0  0  0  0  0  0  0  0
  161.5510  213.3650  150.0360 C   0  0  0  0  0  2  0  0  0  0  0  0
  161.4050  214.4420  148.9680 C   0  0  0  0  0  2  0  0  0  0  0  0
  162.2990  214.1570  147.7710 C   0  0  0  0  0  2  0  0  0  0  0  0
  161.1200  212.1220  146.1130 O   0  0  0  0  0  1  0  0  0  0  0  0
  162.1060  214.4080  144.9120 O   0  0  0  0  0  0  0  0  0  0  0  0
  159.9670  214.4500  146.4120 O   0  0  0  0  0  1  0  0  0  0  0  0
  161.3210  213.7930  146.2790 P   0  0  0  0  0  0  0  0  0  0  0  0
  1 11  1  0  0  0  0
  2 43  1  6  0  0  0
  2  6  1  0  0  0  0
  3  5  1  0  0  0  0
  4  2  1  0  0  0  0
  6  3  1  1  0  0  0
  6 20  1  0  0  0  0
  7  5  2  0  0  0  0
  8  3  2  0  0  0  0
  9  4  1  0  0  0  0
  9  8  1  0  0  0  0
 10  8  1  0  0  0  0
 10 11  2  0  0  0  0
 11  7  1  0  0  0  0
 12 17  1  0  0  0  0
 14 12  1  0  0  0  0
 14 20  1  0  0  0  0
 15 23  2  0  0  0  0
 16 21  1  0  0  0  0
 16 26  1  1  0  0  0
 17 22  1  0  0  0  0
 18 15  1  0  0  0  0
 19 16  1  0  0  0  0
 19 21  1  0  0  0  0
 20 19  1  0  0  0  0
 21 15  1  0  0  0  0
 22 13  1  0  0  0  0
 22 18  1  0  0  0  0
 25 24  1  0  0  0  0
 25 22  1  0  0  0  0
 26 27  1  0  0  0  0
 27 29  1  0  0  0  0
 28 27  1  0  0  0  0
 28 29  1  0  0  0  0
 30 10  1  0  0  0  0
 31 30  2  0  0  0  0
 32 30  1  0  0  0  0
 32 39  1  0  0  0  0
 34 42  1  0  0  0  0
 35 33  1  0  0  0  0
 35 37  1  0  0  0  0
 36 41  1  0  0  0  0
 36 34  2  0  0  0  0
 38 35  2  0  0  0  0
 40 34  1  0  0  0  0
 40 35  1  0  0  0  0
 41 32  2  0  0  0  0
 42 39  2  0  0  0  0
 42 37  1  0  0  0  0
 44 43  1  0  0  0  0
 45 44  1  0  0  0  0
 46 49  1  0  0  0  0
 47 49  2  0  0  0  0
 49 48  1  0  0  0  0
 49 45  1  0  0  0  0
M  END
>  <MODEL>
1

>  <REMARK>
 VINA RESULT:      -3.2      0.000      0.000
  Name = 
  10 active torsions:
  status: ('A' for Active; 'I' for Inactive)
    1  A    between atoms: C_1  and  C_9
    2  A    between atoms: C_1  and  C_36
    3  A    between atoms: C_10  and  C_38
    4  A    between atoms: C_11  and  C_16
    5  A    between atoms: C_12  and  N_47
    6  A    between atoms: C_16  and  C_42
    7  A    between atoms: C_18  and  N_47
    8  A    between atoms: C_19  and  C_33
    9  A    between atoms: C_36  and  C_37
   10  A    between atoms: C_37  and  P_43
                            x       y       z     vdW  Elec       q    Type
                         _______ _______ _______ _____ _____    ______ ____

>  <TORSDO>
F 10

$$$$
=
 OpenBabel11072409473D

 49 55  0  0  1  0  0  0  0  0999 V2000
  162.0700  213.2520  147.7530 F   0  0  0  0  0  0  0  0  0  0  0  0
  161.0970  208.6670  152.1940 C   0  0  1  0  0  3  0  0  0  0  0  0
  161.5710  209.7300  149.9100 C   0  0  0  0  0  0  0  0  0  0  0  0
  160.0290  209.7470  152.3630 C   0  0  0  0  0  2  0  0  0  0  0  0
  162.2420  209.7280  148.6830 C   0  0  0  0  0  3  0  0  0  0  0  0
  161.3580  208.4590  150.6920 C   0  0  1  0  0  3  0  0  0  0  0  0
  162.3990  210.9130  147.9660 C   0  0  0  0  0  3  0  0  0  0  0  0
  161.0320  210.9320  150.4110 C   0  0  0  0  0  0  0  0  0  0  0  0
  160.3740  210.9410  151.6530 O   0  0  0  0  0  0  0  0  0  0  0  0
  161.1840  212.1270  149.6850 C   0  0  0  0  0  0  0  0  0  0  0  0
  161.8780  212.1100  148.4620 C   0  0  0  0  0  0  0  0  0  0  0  0
  162.3770  205.7090  151.9680 C   0  0  0  0  0  2  0  0  0  0  0  0
  161.6770  202.1170  151.9160 C   0  0  0  0  0  1  0  0  0  0  0  0
  163.0300  206.6710  151.1810 O   0  0  0  0  0  0  0  0  0  0  0  0
  161.6320  203.8890  148.6250 C   0  0  0  0  0  0  0  0  0  0  0  0
  161.4500  206.4020  147.9670 C   0  0  1  0  0  3  0  0  0  0  0  0
  162.7360  204.2990  151.5030 C   0  0  0  0  0  2  0  0  0  0  0  0
  161.5840  203.0330  149.7390 O   0  0  0  0  0  0  0  0  0  0  0  0
  161.2740  206.2060  149.4560 C   0  0  2  0  0  3  0  0  0  0  0  0
  162.1260  207.2100  150.2330 C   0  0  1  0  0  3  0  0  0  0  0  0
  162.2060  205.2810  148.6990 C   0  0  1  0  0  3  0  0  0  0  0  0
  161.5320  203.4040  151.1220 C   0  0  1  0  0  0  0  0  0  0  0  0
  161.3140  203.4150  147.5010 O   0  0  0  0  0  0  0  0  0  0  0  0
  159.8070  204.1110  152.8940 C   0  0  0  0  0  1  0  0  0  0  0  0
  160.1420  204.0060  151.4120 C   0  0  0  0  0  2  0  0  0  0  0  0
  160.2530  205.9380  147.2800 N   0  0  0  0  0  2  0  0  0  0  0  0
  160.3020  206.4810  145.9350 C   0  0  0  0  0  3  0  0  0  0  0  0
  159.5830  205.5400  144.9930 C   0  0  0  0  0  2  0  0  0  0  0  0
  161.0940  205.5440  145.0470 C   0  0  0  0  0  2  0  0  0  0  0  0
  160.6240  213.3880  150.2180 C   0  0  0  0  0  0  0  0  0  0  0  0
  161.2730  214.4530  150.0460 O   0  0  0  0  0  0  0  0  0  0  0  0
  159.3540  213.4270  150.9770 C   0  0  0  0  0  0  0  0  0  0  0  0
  155.5570  211.8750  155.3760 O   0  0  0  0  0  0  0  0  0  0  0  0
  156.9410  213.5900  152.3760 C   0  0  0  0  0  0  0  0  0  0  0  0
  156.3020  213.2700  154.7850 P   0  0  2  0  0  0  0  0  0  0  0  0
  156.9430  213.8500  151.0090 C   0  0  0  0  0  3  0  0  0  0  0  0
  157.9490  213.0200  154.4060 O   0  0  0  0  0  0  0  0  0  0  0  0
  156.1120  214.4530  155.7080 O   0  0  0  0  0  1  0  0  0  0  0  0
  159.3300  213.1740  152.3620 C   0  0  0  0  0  3  0  0  0  0  0  0
  155.8150  213.6370  153.1900 O   0  0  0  0  0  0  0  0  0  0  0  0
  158.1560  213.7690  150.3140 C   0  0  0  0  0  3  0  0  0  0  0  0
  158.1170  213.2540  153.0450 C   0  0  0  0  0  0  0  0  0  0  0  0
  162.3310  208.9440  153.0640 C   0  0  0  0  0  2  0  0  0  0  0  0
  162.0070  209.2170  154.5280 C   0  0  0  0  0  2  0  0  0  0  0  0
  161.7890  210.7000  154.7770 C   0  0  0  0  0  2  0  0  0  0  0  0
  160.6710  212.4540  156.7680 O   0  0  0  0  0  0  0  0  0  0  0  0
  163.1280  211.2820  157.2570 O   0  0  0  0  0  1  0  0  0  0  0  0
  160.9170  209.8900  157.2170 O   0  0  0  0  0  1  0  0  0  0  0  0
  161.6050  211.0590  156.5530 P   0  0  0  0  0  0  0  0  0  0  0  0
  1 11  1  0  0  0  0
  2  4  1  0  0  0  0
  2 43  1  1  0  0  0
  3  8  1  0  0  0  0
  5  3  2  0  0  0  0
  6  3  1  1  0  0  0
  6  2  1  0  0  0  0
  7 11  2  0  0  0  0
  7  5  1  0  0  0  0
  8  9  1  0  0  0  0
  9  4  1  0  0  0  0
 10 30  1  0  0  0  0
 10  8  2  0  0  0  0
 11 10  1  0  0  0  0
 14 12  1  0  0  0  0
 15 21  1  0  0  0  0
 15 18  1  0  0  0  0
 16 26  1  6  0  0  0
 16 21  1  0  0  0  0
 16 19  1  0  0  0  0
 17 12  1  0  0  0  0
 18 22  1  0  0  0  0
 19 20  1  0  0  0  0
 20  6  1  0  0  0  0
 20 14  1  0  0  0  0
 21 19  1  0  0  0  0
 22 25  1  0  0  0  0
 22 17  1  0  0  0  0
 22 13  1  0  0  0  0
 23 15  2  0  0  0  0
 25 24  1  0  0  0  0
 27 26  1  0  0  0  0
 28 29  1  0  0  0  0
 28 27  1  0  0  0  0
 29 27  1  0  0  0  0
 30 32  1  0  0  0  0
 31 30  2  0  0  0  0
 32 39  1  0  0  0  0
 34 42  1  0  0  0  0
 34 40  1  0  0  0  0
 35 33  2  0  0  0  0
 35 38  1  0  0  0  0
 36 34  2  0  0  0  0
 37 35  1  0  0  0  0
 39 42  2  0  0  0  0
 40 35  1  0  0  0  0
 41 32  2  0  0  0  0
 41 36  1  0  0  0  0
 42 37  1  0  0  0  0
 43 44  1  0  0  0  0
 44 45  1  0  0  0  0
 45 49  1  0  0  0  0
 49 46  2  0  0  0  0
 49 48  1  0  0  0  0
 49 47  1  0  0  0  0
M  END
>  <MODEL>
2

>  <REMARK>
 VINA RESULT:      -2.1      3.506      9.408
  Name = 
  10 active torsions:
  status: ('A' for Active; 'I' for Inactive)
    1  A    between atoms: C_1  and  C_9
    2  A    between atoms: C_1  and  C_36
    3  A    between atoms: C_10  and  C_38
    4  A    between atoms: C_11  and  C_16
    5  A    between atoms: C_12  and  N_47
    6  A    between atoms: C_16  and  C_42
    7  A    between atoms: C_18  and  N_47
    8  A    between atoms: C_19  and  C_33
    9  A    between atoms: C_36  and  C_37
   10  A    between atoms: C_37  and  P_43
                            x       y       z     vdW  Elec       q    Type
                         _______ _______ _______ _____ _____    ______ ____

>  <TORSDO>
F 10

$$$$
=
 OpenBabel11072409473D

 49 55  0  0  1  0  0  0  0  0999 V2000
  161.0470  211.6490  147.0440 F   0  0  0  0  0  0  0  0  0  0  0  0
  160.7040  211.1510  153.4730 C   0  0  1  0  0  3  0  0  0  0  0  0
  160.6120  212.2150  151.1430 C   0  0  0  0  0  0  0  0  0  0  0  0
  161.9770  210.4540  152.9950 C   0  0  0  0  0  2  0  0  0  0  0  0
  160.0280  213.1020  150.2330 C   0  0  0  0  0  3  0  0  0  0  0  0
  160.4880  212.4210  152.6310 C   0  0  1  0  0  3  0  0  0  0  0  0
  160.1850  212.9060  148.8610 C   0  0  0  0  0  3  0  0  0  0  0  0
  161.3810  211.1330  150.6700 C   0  0  0  0  0  0  0  0  0  0  0  0
  161.9530  210.2280  151.5810 O   0  0  0  0  0  0  0  0  0  0  0  0
  161.5450  210.9370  149.2870 C   0  0  0  0  0  0  0  0  0  0  0  0
  160.9350  211.8280  148.3860 C   0  0  0  0  0  0  0  0  0  0  0  0
  157.4320  213.2000  152.0970 C   0  0  0  0  0  2  0  0  0  0  0  0
  154.1470  213.0950  153.7070 C   0  0  0  0  0  1  0  0  0  0  0  0
  158.6010  213.9760  152.1270 O   0  0  0  0  0  0  0  0  0  0  0  0
  157.0320  214.1630  155.8320 C   0  0  0  0  0  0  0  0  0  0  0  0
  159.6110  213.9160  155.5730 C   0  0  1  0  0  3  0  0  0  0  0  0
  156.2920  213.9120  152.8220 C   0  0  0  0  0  2  0  0  0  0  0  0
  155.8190  213.7810  155.2300 O   0  0  0  0  0  0  0  0  0  0  0  0
  158.8720  213.1720  154.4840 C   0  0  2  0  0  3  0  0  0  0  0  0
  159.4840  213.4770  153.1160 C   0  0  1  0  0  3  0  0  0  0  0  0
  158.2750  214.4530  155.0320 C   0  0  1  0  0  3  0  0  0  0  0  0
  155.6420  213.1110  153.9760 C   0  0  1  0  0  0  0  0  0  0  0  0
  157.0260  214.4060  157.0680 O   0  0  0  0  0  0  0  0  0  0  0  0
  155.2840  210.8130  155.0750 C   0  0  0  0  0  1  0  0  0  0  0  0
  156.1300  211.6560  154.1280 C   0  0  0  0  0  2  0  0  0  0  0  0
  159.4740  213.1870  156.8270 N   0  0  0  0  0  2  0  0  0  0  0  0
  160.8150  212.8320  157.2550 C   0  0  0  0  0  3  0  0  0  0  0  0
  161.5690  212.2390  156.0840 C   0  0  0  0  0  2  0  0  0  0  0  0
  160.9900  211.3310  157.1470 C   0  0  0  0  0  2  0  0  0  0  0  0
  162.3440  209.7940  148.7940 C   0  0  0  0  0  0  0  0  0  0  0  0
  163.3730  210.0320  148.1100 O   0  0  0  0  0  0  0  0  0  0  0  0
  161.9490  208.3910  149.0470 C   0  0  0  0  0  0  0  0  0  0  0  0
  162.5090  202.8850  151.4040 O   0  0  0  0  0  0  0  0  0  0  0  0
  161.1080  205.7660  149.5070 C   0  0  0  0  0  0  0  0  0  0  0  0
  161.3970  204.1560  151.4140 P   0  0  2  0  0  0  0  0  0  0  0  0
  160.7510  206.3850  148.3140 C   0  0  0  0  0  3  0  0  0  0  0  0
  162.1490  205.6800  151.5980 O   0  0  0  0  0  0  0  0  0  0  0  0
  160.3010  203.9460  152.4350 O   0  0  0  0  0  1  0  0  0  0  0  0
  162.2940  207.7460  150.2510 C   0  0  0  0  0  3  0  0  0  0  0  0
  160.7570  204.4680  149.8630 O   0  0  0  0  0  0  0  0  0  0  0  0
  161.1730  207.7020  148.0910 C   0  0  0  0  0  3  0  0  0  0  0  0
  161.8710  206.4350  150.4630 C   0  0  0  0  0  0  0  0  0  0  0  0
  159.5180  210.1800  153.5510 C   0  0  0  0  0  2  0  0  0  0  0  0
  159.1120  209.8130  154.9730 C   0  0  0  0  0  2  0  0  0  0  0  0
  158.9160  208.3130  155.1210 C   0  0  0  0  0  2  0  0  0  0  0  0
  160.0480  206.7390  157.2490 O   0  0  0  0  0  1  0  0  0  0  0  0
  161.6230  208.6580  156.0310 O   0  0  0  0  0  1  0  0  0  0  0  0
  160.8910  206.4800  154.7880 O   0  0  0  0  0  0  0  0  0  0  0  0
  160.4080  207.5060  155.7850 P   0  0  0  0  0  0  0  0  0  0  0  0
  1 11  1  0  0  0  0
  2 43  1  6  0  0  0
  4  2  1  0  0  0  0
  5  3  2  0  0  0  0
  6  3  1  6  0  0  0
  6 20  1  0  0  0  0
  6  2  1  0  0  0  0
  7  5  1  0  0  0  0
  8  3  1  0  0  0  0
  8  9  1  0  0  0  0
  9  4  1  0  0  0  0
 10  8  2  0  0  0  0
 11  7  2  0  0  0  0
 11 10  1  0  0  0  0
 12 14  1  0  0  0  0
 12 17  1  0  0  0  0
 13 22  1  0  0  0  0
 14 20  1  0  0  0  0
 15 23  2  0  0  0  0
 16 26  1  1  0  0  0
 17 22  1  0  0  0  0
 18 15  1  0  0  0  0
 19 21  1  0  0  0  0
 19 16  1  0  0  0  0
 20 19  1  0  0  0  0
 21 16  1  0  0  0  0
 21 15  1  0  0  0  0
 22 25  1  0  0  0  0
 22 18  1  0  0  0  0
 25 24  1  0  0  0  0
 26 27  1  0  0  0  0
 28 29  1  0  0  0  0
 28 27  1  0  0  0  0
 29 27  1  0  0  0  0
 30 32  1  0  0  0  0
 30 10  1  0  0  0  0
 31 30  2  0  0  0  0
 32 39  1  0  0  0  0
 33 35  2  0  0  0  0
 34 40  1  0  0  0  0
 34 42  1  0  0  0  0
 35 37  1  0  0  0  0
 35 38  1  0  0  0  0
 36 34  2  0  0  0  0
 39 42  2  0  0  0  0
 40 35  1  0  0  0  0
 41 36  1  0  0  0  0
 41 32  2  0  0  0  0
 42 37  1  0  0  0  0
 43 44  1  0  0  0  0
 44 45  1  0  0  0  0
 45 49  1  0  0  0  0
 48 49  2  0  0  0  0
 49 47  1  0  0  0  0
 49 46  1  0  0  0  0
M  END
>  <MODEL>
3

>  <REMARK>
 VINA RESULT:      -1.6      2.858      4.901
  Name = 
  10 active torsions:
  status: ('A' for Active; 'I' for Inactive)
    1  A    between atoms: C_1  and  C_9
    2  A    between atoms: C_1  and  C_36
    3  A    between atoms: C_10  and  C_38
    4  A    between atoms: C_11  and  C_16
    5  A    between atoms: C_12  and  N_47
    6  A    between atoms: C_16  and  C_42
    7  A    between atoms: C_18  and  N_47
    8  A    between atoms: C_19  and  C_33
    9  A    between atoms: C_36  and  C_37
   10  A    between atoms: C_37  and  P_43
                            x       y       z     vdW  Elec       q    Type
                         _______ _______ _______ _____ _____    ______ ____

>  <TORSDO>
F 10

$$$$
=
 OpenBabel11072409473D

 49 55  0  0  1  0  0  0  0  0999 V2000
  161.5770  203.3000  153.5670 F   0  0  0  0  0  0  0  0  0  0  0  0
  160.9510  208.4720  149.7530 C   0  0  1  0  0  3  0  0  0  0  0  0
  161.0560  207.0760  151.9000 C   0  0  0  0  0  0  0  0  0  0  0  0
  160.1200  207.3300  149.1700 C   0  0  0  0  0  2  0  0  0  0  0  0
  161.4280  206.9310  153.2400 C   0  0  0  0  0  3  0  0  0  0  0  0
  160.8360  208.4350  151.2870 C   0  0  1  0  0  3  0  0  0  0  0  0
  161.5950  205.6610  153.7900 C   0  0  0  0  0  3  0  0  0  0  0  0
  160.8260  205.9320  151.1100 C   0  0  0  0  0  0  0  0  0  0  0  0
  160.4700  206.0730  149.7580 O   0  0  0  0  0  0  0  0  0  0  0  0
  160.9870  204.6490  151.6650 C   0  0  0  0  0  0  0  0  0  0  0  0
  161.3810  204.5230  153.0100 C   0  0  0  0  0  0  0  0  0  0  0  0
  160.4090  211.6050  151.2270 C   0  0  0  0  0  2  0  0  0  0  0  0
  158.6950  214.2780  153.0460 C   0  0  0  0  0  1  0  0  0  0  0  0
  161.5680  210.8220  151.3420 O   0  0  0  0  0  0  0  0  0  0  0  0
  160.4100  211.6710  155.1050 C   0  0  0  0  0  0  0  0  0  0  0  0
  161.2720  209.2730  154.5690 C   0  0  1  0  0  3  0  0  0  0  0  0
  160.4540  212.7810  152.2000 C   0  0  0  0  0  2  0  0  0  0  0  0
  159.6940  212.7400  154.5370 O   0  0  0  0  0  0  0  0  0  0  0  0
  160.5130  209.8620  153.4020 C   0  0  2  0  0  3  0  0  0  0  0  0
  161.2890  209.6580  152.1000 C   0  0  1  0  0  3  0  0  0  0  0  0
  161.3190  210.7860  154.2930 C   0  0  1  0  0  3  0  0  0  0  0  0
  159.2590  212.8740  153.1790 C   0  0  1  0  0  0  0  0  0  0  0  0
  160.3930  211.5490  156.3590 O   0  0  0  0  0  0  0  0  0  0  0  0
  157.0130  211.9050  153.9760 C   0  0  0  0  0  1  0  0  0  0  0  0
  158.1210  211.8620  152.9310 C   0  0  0  0  0  2  0  0  0  0  0  0
  160.3280  208.9070  155.6160 N   0  0  0  0  0  2  0  0  0  0  0  0
  160.4690  207.4780  155.8290 C   0  0  0  0  0  3  0  0  0  0  0  0
  159.1120  206.8880  156.1470 C   0  0  0  0  0  2  0  0  0  0  0  0
  160.1010  207.1500  157.2610 C   0  0  0  0  0  2  0  0  0  0  0  0
  160.7540  203.4510  150.8310 C   0  0  0  0  0  0  0  0  0  0  0  0
  160.4050  202.3830  151.3980 O   0  0  0  0  0  0  0  0  0  0  0  0
  160.9580  203.4610  149.3650 C   0  0  0  0  0  0  0  0  0  0  0  0
  160.9190  205.8590  143.8490 O   0  0  0  0  0  0  0  0  0  0  0  0
  161.4110  203.4090  146.6080 C   0  0  0  0  0  0  0  0  0  0  0  0
  162.0270  205.1590  144.9140 P   0  0  2  0  0  0  0  0  0  0  0  0
  161.0930  202.2210  147.2580 C   0  0  0  0  0  3  0  0  0  0  0  0
  161.8260  205.7070  146.5200 O   0  0  0  0  0  0  0  0  0  0  0  0
  163.4540  205.3230  144.4410 O   0  0  0  0  0  1  0  0  0  0  0  0
  161.2870  204.6510  148.6870 C   0  0  0  0  0  3  0  0  0  0  0  0
  161.6610  203.5250  145.2450 O   0  0  0  0  0  0  0  0  0  0  0  0
  160.8700  202.2530  148.6400 C   0  0  0  0  0  3  0  0  0  0  0  0
  161.5050  204.6090  147.3110 C   0  0  0  0  0  0  0  0  0  0  0  0
  162.3750  208.4910  149.1800 C   0  0  0  0  0  2  0  0  0  0  0  0
  162.6640  209.6870  148.2810 C   0  0  0  0  0  2  0  0  0  0  0  0
  161.5130  210.6800  148.2960 C   0  0  0  0  0  2  0  0  0  0  0  0
  163.7240  212.5110  148.0940 O   0  0  0  0  0  1  0  0  0  0  0  0
  161.2230  213.5110  148.7160 O   0  0  0  0  0  1  0  0  0  0  0  0
  161.7770  212.5530  146.3490 O   0  0  0  0  0  0  0  0  0  0  0  0
  162.0630  212.3490  147.8180 P   0  0  0  0  0  0  0  0  0  0  0  0
  2 43  1  1  0  0  0
  2  6  1  0  0  0  0
  3  5  1  0  0  0  0
  4  2  1  0  0  0  0
  4  9  1  0  0  0  0
  5  7  2  0  0  0  0
  6  3  1  1  0  0  0
  6 20  1  0  0  0  0
  8 10  1  0  0  0  0
  8  3  2  0  0  0  0
  9  8  1  0  0  0  0
 10 11  2  0  0  0  0
 11  1  1  0  0  0  0
 11  7  1  0  0  0  0
 12 14  1  0  0  0  0
 12 17  1  0  0  0  0
 13 22  1  0  0  0  0
 14 20  1  0  0  0  0
 15 23  2  0  0  0  0
 16 26  1  1  0  0  0
 17 22  1  0  0  0  0
 18 15  1  0  0  0  0
 19 21  1  0  0  0  0
 19 16  1  0  0  0  0
 20 19  1  0  0  0  0
 21 16  1  0  0  0  0
 21 15  1  0  0  0  0
 22 18  1  0  0  0  0
 25 22  1  0  0  0  0
 25 24  1  0  0  0  0
 26 27  1  0  0  0  0
 27 28  1  0  0  0  0
 27 29  1  0  0  0  0
 28 29  1  0  0  0  0
 30 31  2  0  0  0  0
 30 10  1  0  0  0  0
 32 30  1  0  0  0  0
 33 35  2  0  0  0  0
 34 36  2  0  0  0  0
 34 42  1  0  0  0  0
 35 40  1  0  0  0  0
 35 37  1  0  0  0  0
 36 41  1  0  0  0  0
 37 42  1  0  0  0  0
 38 35  1  0  0  0  0
 39 32  1  0  0  0  0
 40 34  1  0  0  0  0
 41 32  2  0  0  0  0
 42 39  2  0  0  0  0
 44 45  1  0  0  0  0
 44 43  1  0  0  0  0
 48 49  2  0  0  0  0
 49 46  1  0  0  0  0
 49 45  1  0  0  0  0
 49 47  1  0  0  0  0
M  END
>  <MODEL>
4

>  <REMARK>
 VINA RESULT:      -1.4      2.256      3.737
  Name = 
  10 active torsions:
  status: ('A' for Active; 'I' for Inactive)
    1  A    between atoms: C_1  and  C_9
    2  A    between atoms: C_1  and  C_36
    3  A    between atoms: C_10  and  C_38
    4  A    between atoms: C_11  and  C_16
    5  A    between atoms: C_12  and  N_47
    6  A    between atoms: C_16  and  C_42
    7  A    between atoms: C_18  and  N_47
    8  A    between atoms: C_19  and  C_33
    9  A    between atoms: C_36  and  C_37
   10  A    between atoms: C_37  and  P_43
                            x       y       z     vdW  Elec       q    Type
                         _______ _______ _______ _____ _____    ______ ____

>  <TORSDO>
F 10

$$$$
=
 OpenBabel11072409473D

 49 55  0  0  1  0  0  0  0  0999 V2000
  161.2440  211.8180  146.7730 F   0  0  0  0  0  0  0  0  0  0  0  0
  161.0570  210.8240  153.1510 C   0  0  1  0  0  3  0  0  0  0  0  0
  160.9410  212.0720  150.9150 C   0  0  0  0  0  0  0  0  0  0  0  0
  162.2920  210.1260  152.5820 C   0  0  0  0  0  2  0  0  0  0  0  0
  160.3640  213.0480  150.0950 C   0  0  0  0  0  3  0  0  0  0  0  0
  160.8630  212.1630  152.4180 C   0  0  1  0  0  3  0  0  0  0  0  0
  160.4770  212.9560  148.7080 C   0  0  0  0  0  3  0  0  0  0  0  0
  161.6570  211.0060  150.3370 C   0  0  0  0  0  0  0  0  0  0  0  0
  162.2210  210.0140  151.1570 O   0  0  0  0  0  0  0  0  0  0  0  0
  161.7770  210.9150  148.9380 C   0  0  0  0  0  0  0  0  0  0  0  0
  161.1740  211.8940  148.1280 C   0  0  0  0  0  0  0  0  0  0  0  0
  157.8390  213.1160  152.0020 C   0  0  0  0  0  2  0  0  0  0  0  0
  154.5690  212.9990  153.6410 C   0  0  0  0  0  1  0  0  0  0  0  0
  159.0400  213.8370  152.0880 O   0  0  0  0  0  0  0  0  0  0  0  0
  157.5180  213.7400  155.8160 C   0  0  0  0  0  0  0  0  0  0  0  0
  160.0820  213.4110  155.4990 C   0  0  1  0  0  3  0  0  0  0  0  0
  156.7380  213.8050  152.8060 C   0  0  0  0  0  2  0  0  0  0  0  0
  156.2840  213.4670  155.1990 O   0  0  0  0  0  0  0  0  0  0  0  0
  159.3000  212.8040  154.3560 C   0  0  2  0  0  3  0  0  0  0  0  0
  159.9110  213.2100  153.0140 C   0  0  1  0  0  3  0  0  0  0  0  0
  158.7650  214.0520  155.0290 C   0  0  1  0  0  3  0  0  0  0  0  0
  156.0650  212.9270  153.8900 C   0  0  1  0  0  0  0  0  0  0  0  0
  157.5360  213.8660  157.0700 O   0  0  0  0  0  0  0  0  0  0  0  0
  156.0140  210.6680  155.1180 C   0  0  0  0  0  1  0  0  0  0  0  0
  156.4920  211.4440  153.8980 C   0  0  0  0  0  2  0  0  0  0  0  0
  159.9260  212.5740  156.6810 N   0  0  0  0  0  2  0  0  0  0  0  0
  160.1030  211.1990  156.2490 C   0  0  0  0  0  3  0  0  0  0  0  0
  159.4580  210.2760  157.2590 C   0  0  0  0  0  2  0  0  0  0  0  0
  160.9590  210.4660  157.2610 C   0  0  0  0  0  2  0  0  0  0  0  0
  162.5220  209.7890  148.3340 C   0  0  0  0  0  0  0  0  0  0  0  0
  163.6160  210.0310  147.7610 O   0  0  0  0  0  0  0  0  0  0  0  0
  162.0020  208.4040  148.3490 C   0  0  0  0  0  0  0  0  0  0  0  0
  160.6060  203.0530  145.9810 O   0  0  0  0  0  0  0  0  0  0  0  0
  161.0390  205.7840  148.4750 C   0  0  0  0  0  0  0  0  0  0  0  0
  161.5710  203.6730  147.2200 P   0  0  2  0  0  0  0  0  0  0  0  0
  160.5200  206.7320  149.3510 C   0  0  0  0  0  3  0  0  0  0  0  0
  162.4330  205.0690  146.7410 O   0  0  0  0  0  0  0  0  0  0  0  0
  162.4870  202.6230  147.8080 O   0  0  0  0  0  1  0  0  0  0  0  0
  162.5160  207.4260  147.4760 C   0  0  0  0  0  3  0  0  0  0  0  0
  160.6510  204.4490  148.4310 O   0  0  0  0  0  0  0  0  0  0  0  0
  161.0080  208.0420  149.2850 C   0  0  0  0  0  3  0  0  0  0  0  0
  162.0220  206.1250  147.5480 C   0  0  0  0  0  0  0  0  0  0  0  0
  159.8400  209.8900  153.1880 C   0  0  0  0  0  2  0  0  0  0  0  0
  160.1240  208.5290  153.8120 C   0  0  0  0  0  2  0  0  0  0  0  0
  160.2130  207.4430  152.7520 C   0  0  0  0  0  2  0  0  0  0  0  0
  162.8130  206.3930  152.1030 O   0  0  0  0  0  0  0  0  0  0  0  0
  160.8690  204.6550  153.0230 O   0  0  0  0  0  1  0  0  0  0  0  0
  161.9630  206.4500  154.5750 O   0  0  0  0  0  1  0  0  0  0  0  0
  161.5000  206.2200  153.1550 P   0  0  0  0  0  0  0  0  0  0  0  0
  1 11  1  0  0  0  0
  2 43  1  6  0  0  0
  4  2  1  0  0  0  0
  5  3  2  0  0  0  0
  6  3  1  6  0  0  0
  6 20  1  0  0  0  0
  6  2  1  0  0  0  0
  7  5  1  0  0  0  0
  8  3  1  0  0  0  0
  8  9  1  0  0  0  0
  9  4  1  0  0  0  0
 10  8  2  0  0  0  0
 11  7  2  0  0  0  0
 11 10  1  0  0  0  0
 12 14  1  0  0  0  0
 12 17  1  0  0  0  0
 13 22  1  0  0  0  0
 14 20  1  0  0  0  0
 15 23  2  0  0  0  0
 16 26  1  1  0  0  0
 17 22  1  0  0  0  0
 18 15  1  0  0  0  0
 19 21  1  0  0  0  0
 19 16  1  0  0  0  0
 20 19  1  0  0  0  0
 21 16  1  0  0  0  0
 21 15  1  0  0  0  0
 22 25  1  0  0  0  0
 22 18  1  0  0  0  0
 25 24  1  0  0  0  0
 27 26  1  0  0  0  0
 27 28  1  0  0  0  0
 27 29  1  0  0  0  0
 28 29  1  0  0  0  0
 30 32  1  0  0  0  0
 30 10  1  0  0  0  0
 31 30  2  0  0  0  0
 32 41  1  0  0  0  0
 33 35  2  0  0  0  0
 34 36  1  0  0  0  0
 35 38  1  0  0  0  0
 35 40  1  0  0  0  0
 37 35  1  0  0  0  0
 37 42  1  0  0  0  0
 39 42  1  0  0  0  0
 39 32  2  0  0  0  0
 40 34  1  0  0  0  0
 41 36  2  0  0  0  0
 42 34  2  0  0  0  0
 43 44  1  0  0  0  0
 45 49  1  0  0  0  0
 45 44  1  0  0  0  0
 46 49  2  0  0  0  0
 47 49  1  0  0  0  0
 49 48  1  0  0  0  0
M  END
>  <MODEL>
5

>  <REMARK>
 VINA RESULT:      -1.2      2.730      4.536
  Name = 
  10 active torsions:
  status: ('A' for Active; 'I' for Inactive)
    1  A    between atoms: C_1  and  C_9
    2  A    between atoms: C_1  and  C_36
    3  A    between atoms: C_10  and  C_38
    4  A    between atoms: C_11  and  C_16
    5  A    between atoms: C_12  and  N_47
    6  A    between atoms: C_16  and  C_42
    7  A    between atoms: C_18  and  N_47
    8  A    between atoms: C_19  and  C_33
    9  A    between atoms: C_36  and  C_37
   10  A    between atoms: C_37  and  P_43
                            x       y       z     vdW  Elec       q    Type
                         _______ _______ _______ _____ _____    ______ ____

>  <TORSDO>
F 10

$$$$
=
 OpenBabel11072409473D

 49 55  0  0  1  0  0  0  0  0999 V2000
  162.5100  211.4930  148.2240 F   0  0  0  0  0  0  0  0  0  0  0  0
  160.9780  206.5430  152.0780 C   0  0  1  0  0  3  0  0  0  0  0  0
  161.6030  207.8130  149.9410 C   0  0  0  0  0  0  0  0  0  0  0  0
  160.0270  207.7040  152.3690 C   0  0  0  0  0  2  0  0  0  0  0  0
  162.2930  207.8850  148.7260 C   0  0  0  0  0  3  0  0  0  0  0  0
  161.2430  206.4880  150.5630 C   0  0  1  0  0  3  0  0  0  0  0  0
  162.5870  209.1230  148.1570 C   0  0  0  0  0  3  0  0  0  0  0  0
  161.1850  208.9970  150.5790 C   0  0  0  0  0  0  0  0  0  0  0  0
  160.5080  208.9300  151.8090 O   0  0  0  0  0  0  0  0  0  0  0  0
  161.4750  210.2470  150.0030 C   0  0  0  0  0  0  0  0  0  0  0  0
  162.1860  210.3010  148.7900 C   0  0  0  0  0  0  0  0  0  0  0  0
  161.4680  203.3790  151.2800 C   0  0  0  0  0  2  0  0  0  0  0  0
  160.2240  200.1130  150.1970 C   0  0  0  0  0  1  0  0  0  0  0  0
  162.4360  204.3210  150.8990 O   0  0  0  0  0  0  0  0  0  0  0  0
  161.2490  202.5000  147.5090 C   0  0  0  0  0  0  0  0  0  0  0  0
  161.6400  205.0750  147.4790 C   0  0  1  0  0  3  0  0  0  0  0  0
  161.6910  202.0540  150.5540 C   0  0  0  0  0  2  0  0  0  0  0  0
  160.7990  201.4610  148.3420 O   0  0  0  0  0  0  0  0  0  0  0  0
  161.0870  204.6140  148.8090 C   0  0  2  0  0  3  0  0  0  0  0  0
  161.8830  205.2280  149.9620 C   0  0  1  0  0  3  0  0  0  0  0  0
  162.0080  203.6900  148.0380 C   0  0  1  0  0  3  0  0  0  0  0  0
  160.4830  201.5370  149.7380 C   0  0  1  0  0  0  0  0  0  0  0  0
  161.1330  202.3510  146.2630 O   0  0  0  0  0  0  0  0  0  0  0  0
  157.9390  201.6420  149.3690 C   0  0  0  0  0  1  0  0  0  0  0  0
  159.1810  202.3500  149.8970 C   0  0  0  0  0  2  0  0  0  0  0  0
  160.5800  205.0310  146.4810 N   0  0  0  0  0  2  0  0  0  0  0  0
  160.9720  205.9300  145.4110 C   0  0  0  0  0  3  0  0  0  0  0  0
  161.3900  205.1150  144.2070 C   0  0  0  0  0  2  0  0  0  0  0  0
  162.4420  205.7280  145.1040 C   0  0  0  0  0  2  0  0  0  0  0  0
  161.0420  211.4890  150.6800 C   0  0  0  0  0  0  0  0  0  0  0  0
  161.2550  212.5900  150.1090 O   0  0  0  0  0  0  0  0  0  0  0  0
  160.4070  211.4750  152.0170 C   0  0  0  0  0  0  0  0  0  0  0  0
  156.5010  213.2290  156.2420 O   0  0  0  0  0  1  0  0  0  0  0  0
  159.2400  211.3550  154.5530 C   0  0  0  0  0  0  0  0  0  0  0  0
  156.9290  211.8130  155.4260 P   0  0  2  0  0  0  0  0  0  0  0  0
  160.5800  211.0120  154.4150 C   0  0  0  0  0  3  0  0  0  0  0  0
  157.1630  212.0680  153.7530 O   0  0  0  0  0  0  0  0  0  0  0  0
  155.9550  210.6860  155.6900 O   0  0  0  0  0  0  0  0  0  0  0  0
  159.0500  211.8130  152.1790 C   0  0  0  0  0  3  0  0  0  0  0  0
  158.5360  211.3390  155.7520 O   0  0  0  0  0  0  0  0  0  0  0  0
  161.1590  211.0710  153.1410 C   0  0  0  0  0  3  0  0  0  0  0  0
  158.4830  211.7530  153.4510 C   0  0  0  0  0  0  0  0  0  0  0  0
  162.2180  206.5820  152.9810 C   0  0  0  0  0  2  0  0  0  0  0  0
  161.9010  206.5060  154.4700 C   0  0  0  0  0  2  0  0  0  0  0  0
  161.4250  207.8480  155.0010 C   0  0  0  0  0  2  0  0  0  0  0  0
  158.7070  207.2550  155.7420 O   0  0  0  0  0  0  0  0  0  0  0  0
  160.1310  209.0740  157.2600 O   0  0  0  0  0  1  0  0  0  0  0  0
  160.7060  206.5260  157.2610 O   0  0  0  0  0  1  0  0  0  0  0  0
  160.2320  207.6430  156.3620 P   0  0  0  0  0  0  0  0  0  0  0  0
  1 11  1  0  0  0  0
  2  4  1  0  0  0  0
  2 43  1  1  0  0  0
  3  8  1  0  0  0  0
  5  3  2  0  0  0  0
  6  3  1  1  0  0  0
  6  2  1  0  0  0  0
  7  5  1  0  0  0  0
  7 11  2  0  0  0  0
  8  9  1  0  0  0  0
  9  4  1  0  0  0  0
 10  8  2  0  0  0  0
 10 30  1  0  0  0  0
 11 10  1  0  0  0  0
 14 12  1  0  0  0  0
 15 21  1  0  0  0  0
 15 18  1  0  0  0  0
 16 26  1  6  0  0  0
 16 21  1  0  0  0  0
 16 19  1  0  0  0  0
 17 12  1  0  0  0  0
 18 22  1  0  0  0  0
 19 20  1  0  0  0  0
 20  6  1  0  0  0  0
 20 14  1  0  0  0  0
 21 19  1  0  0  0  0
 22 25  1  0  0  0  0
 22 13  1  0  0  0  0
 22 17  1  0  0  0  0
 23 15  2  0  0  0  0
 24 25  1  0  0  0  0
 27 26  1  0  0  0  0
 28 29  1  0  0  0  0
 28 27  1  0  0  0  0
 29 27  1  0  0  0  0
 30 32  1  0  0  0  0
 31 30  2  0  0  0  0
 32 39  2  0  0  0  0
 32 41  1  0  0  0  0
 34 40  1  0  0  0  0
 35 38  2  0  0  0  0
 35 40  1  0  0  0  0
 35 33  1  0  0  0  0
 36 34  1  0  0  0  0
 37 35  1  0  0  0  0
 39 42  1  0  0  0  0
 41 36  2  0  0  0  0
 42 37  1  0  0  0  0
 42 34  2  0  0  0  0
 43 44  1  0  0  0  0
 44 45  1  0  0  0  0
 45 49  1  0  0  0  0
 46 49  2  0  0  0  0
 49 47  1  0  0  0  0
 49 48  1  0  0  0  0
M  END
>  <MODEL>
6

>  <REMARK>
 VINA RESULT:      -1.2      3.405      9.935
  Name = 
  10 active torsions:
  status: ('A' for Active; 'I' for Inactive)
    1  A    between atoms: C_1  and  C_9
    2  A    between atoms: C_1  and  C_36
    3  A    between atoms: C_10  and  C_38
    4  A    between atoms: C_11  and  C_16
    5  A    between atoms: C_12  and  N_47
    6  A    between atoms: C_16  and  C_42
    7  A    between atoms: C_18  and  N_47
    8  A    between atoms: C_19  and  C_33
    9  A    between atoms: C_36  and  C_37
   10  A    between atoms: C_37  and  P_43
                            x       y       z     vdW  Elec       q    Type
                         _______ _______ _______ _____ _____    ______ ____

>  <TORSDO>
F 10

$$$$
=
 OpenBabel11072409473D

 49 55  0  0  1  0  0  0  0  0999 V2000
  159.8200  214.3220  147.7880 F   0  0  0  0  0  0  0  0  0  0  0  0
  161.2420  210.5740  152.8500 C   0  0  1  0  0  3  0  0  0  0  0  0
  160.5590  212.6630  151.5310 C   0  0  0  0  0  0  0  0  0  0  0  0
  162.3030  210.3620  151.7690 C   0  0  0  0  0  2  0  0  0  0  0  0
  159.7860  213.8210  151.4020 C   0  0  0  0  0  3  0  0  0  0  0  0
  160.8590  212.0640  152.8810 C   0  0  1  0  0  3  0  0  0  0  0  0
  159.5490  214.3720  150.1440 C   0  0  0  0  0  3  0  0  0  0  0  0
  161.1190  212.0640  150.3850 C   0  0  0  0  0  0  0  0  0  0  0  0
  161.8800  210.8890  150.5080 O   0  0  0  0  0  0  0  0  0  0  0  0
  160.8860  212.6230  149.1150 C   0  0  0  0  0  0  0  0  0  0  0  0
  160.0910  213.7770  149.0020 C   0  0  0  0  0  0  0  0  0  0  0  0
  158.3860  214.0240  153.4020 C   0  0  0  0  0  2  0  0  0  0  0  0
  154.8780  213.9640  154.4430 C   0  0  0  0  0  1  0  0  0  0  0  0
  159.6620  213.9590  153.9810 O   0  0  0  0  0  0  0  0  0  0  0  0
  157.2400  211.7850  156.3530 C   0  0  0  0  0  0  0  0  0  0  0  0
  159.6310  210.8880  155.8430 C   0  0  1  0  0  3  0  0  0  0  0  0
  157.3200  214.2580  154.4700 C   0  0  0  0  0  2  0  0  0  0  0  0
  156.1840  212.5090  155.7710 O   0  0  0  0  0  0  0  0  0  0  0  0
  159.0510  211.6250  154.6570 C   0  0  2  0  0  3  0  0  0  0  0  0
  160.0750  212.6070  154.0850 C   0  0  1  0  0  3  0  0  0  0  0  0
  158.6860  212.0830  156.0550 C   0  0  1  0  0  3  0  0  0  0  0  0
  156.1900  213.2020  154.5170 C   0  0  1  0  0  0  0  0  0  0  0  0
  156.9580  210.9560  157.2600 O   0  0  0  0  0  0  0  0  0  0  0  0
  155.4200  210.8920  153.6870 C   0  0  0  0  0  1  0  0  0  0  0  0
  156.2150  212.1550  153.3840 C   0  0  0  0  0  2  0  0  0  0  0  0
  158.9670  209.5980  155.9730 N   0  0  0  0  0  2  0  0  0  0  0  0
  159.7770  208.7960  156.8720 C   0  0  0  0  0  3  0  0  0  0  0  0
  160.9300  208.1960  156.0980 C   0  0  0  0  0  2  0  0  0  0  0  0
  159.7230  207.3480  156.4330 C   0  0  0  0  0  2  0  0  0  0  0  0
  161.4680  211.9860  147.9130 C   0  0  0  0  0  0  0  0  0  0  0  0
  162.1110  210.9140  148.0530 O   0  0  0  0  0  0  0  0  0  0  0  0
  161.3510  212.5920  146.5680 C   0  0  0  0  0  0  0  0  0  0  0  0
  159.9930  212.6960  140.7090 O   0  0  0  0  0  0  0  0  0  0  0  0
  161.1250  213.8260  144.0710 C   0  0  0  0  0  0  0  0  0  0  0  0
  159.5730  213.5270  142.1180 P   0  0  2  0  0  0  0  0  0  0  0  0
  162.1180  214.2570  144.9440 C   0  0  0  0  0  3  0  0  0  0  0  0
  159.3210  212.4790  143.4440 O   0  0  0  0  0  0  0  0  0  0  0  0
  158.3960  214.4530  141.9040 O   0  0  0  0  0  1  0  0  0  0  0  0
  160.3490  212.1760  145.6700 C   0  0  0  0  0  3  0  0  0  0  0  0
  160.9020  214.3510  142.8030 O   0  0  0  0  0  0  0  0  0  0  0  0
  162.2240  213.6370  146.1950 C   0  0  0  0  0  3  0  0  0  0  0  0
  160.2530  212.7980  144.4250 C   0  0  0  0  0  0  0  0  0  0  0  0
  160.0830  209.5780  152.7130 C   0  0  0  0  0  2  0  0  0  0  0  0
  160.5050  208.1180  152.8230 C   0  0  0  0  0  2  0  0  0  0  0  0
  160.4510  207.4240  151.4710 C   0  0  0  0  0  2  0  0  0  0  0  0
  163.1180  206.3440  151.4470 O   0  0  0  0  0  1  0  0  0  0  0  0
  161.1290  205.0050  150.0710 O   0  0  0  0  0  0  0  0  0  0  0  0
  161.1750  205.1050  152.6810 O   0  0  0  0  0  1  0  0  0  0  0  0
  161.4800  205.9230  151.4490 P   0  0  0  0  0  0  0  0  0  0  0  0
  1 11  1  0  0  0  0
  2 43  1  6  0  0  0
  2  6  1  0  0  0  0
  4  2  1  0  0  0  0
  5  3  1  0  0  0  0
  6  3  1  6  0  0  0
  6 20  1  0  0  0  0
  7  5  2  0  0  0  0
  8  9  1  0  0  0  0
  8  3  2  0  0  0  0
  9  4  1  0  0  0  0
 10  8  1  0  0  0  0
 11 10  2  0  0  0  0
 11  7  1  0  0  0  0
 12 14  1  0  0  0  0
 12 17  1  0  0  0  0
 13 22  1  0  0  0  0
 14 20  1  0  0  0  0
 15 23  2  0  0  0  0
 16 26  1  6  0  0  0
 16 21  1  0  0  0  0
 17 22  1  0  0  0  0
 18 15  1  0  0  0  0
 19 16  1  0  0  0  0
 19 21  1  0  0  0  0
 20 19  1  0  0  0  0
 21 15  1  0  0  0  0
 22 18  1  0  0  0  0
 25 24  1  0  0  0  0
 25 22  1  0  0  0  0
 26 27  1  0  0  0  0
 28 29  1  0  0  0  0
 28 27  1  0  0  0  0
 29 27  1  0  0  0  0
 30 31  2  0  0  0  0
 30 10  1  0  0  0  0
 32 30  1  0  0  0  0
 33 35  2  0  0  0  0
 34 42  2  0  0  0  0
 34 36  1  0  0  0  0
 35 40  1  0  0  0  0
 35 37  1  0  0  0  0
 36 41  2  0  0  0  0
 37 42  1  0  0  0  0
 38 35  1  0  0  0  0
 39 32  2  0  0  0  0
 40 34  1  0  0  0  0
 41 32  1  0  0  0  0
 42 39  1  0  0  0  0
 43 44  1  0  0  0  0
 45 44  1  0  0  0  0
 46 49  1  0  0  0  0
 47 49  2  0  0  0  0
 49 45  1  0  0  0  0
 49 48  1  0  0  0  0
M  END
>  <MODEL>
7

>  <REMARK>
 VINA RESULT:      -1.0      2.779      6.707
  Name = 
  10 active torsions:
  status: ('A' for Active; 'I' for Inactive)
    1  A    between atoms: C_1  and  C_9
    2  A    between atoms: C_1  and  C_36
    3  A    between atoms: C_10  and  C_38
    4  A    between atoms: C_11  and  C_16
    5  A    between atoms: C_12  and  N_47
    6  A    between atoms: C_16  and  C_42
    7  A    between atoms: C_18  and  N_47
    8  A    between atoms: C_19  and  C_33
    9  A    between atoms: C_36  and  C_37
   10  A    between atoms: C_37  and  P_43
                            x       y       z     vdW  Elec       q    Type
                         _______ _______ _______ _____ _____    ______ ____

>  <TORSDO>
F 10

$$$$
