=
 OpenBabel11072413523D

 67 74  0  0  1  0  0  0  0  0999 V2000
  161.3190  211.5990  150.8110 C   0  0  0  0  0  3  0  0  0  0  0  0
  160.5750  212.2260  149.9550 N   0  0  0  0  0  0  0  0  0  0  0  0
  159.7600  208.2090  153.5900 C   0  0  0  0  0  2  0  0  0  0  0  0
  157.5960  210.9690  153.5660 C   0  0  0  0  0  1  0  0  0  0  0  0
  161.8410  211.2110  155.0320 C   0  0  1  0  0  3  0  0  0  0  0  0
  159.4520  210.7250  155.1110 O   0  0  0  0  0  0  0  0  0  0  0  0
  159.1030  210.8180  153.7470 C   0  0  1  0  0  0  0  0  0  0  0  0
  160.1360  208.3400  155.9920 O   0  0  0  0  0  1  0  0  0  0  0  0
  162.1910  210.8360  156.3350 O   0  0  0  0  0  1  0  0  0  0  0  0
  159.8610  209.6940  151.4510 C   0  0  0  0  0  2  0  0  0  0  0  0
  162.4570  209.5370  151.7530 C   0  0  2  0  0  3  0  0  0  0  0  0
  159.6680  209.6120  152.9620 C   0  0  2  0  0  3  0  0  0  0  0  0
  162.1130  208.7460  154.6520 C   0  0  0  0  0  2  0  0  0  0  0  0
  159.9620  212.0710  153.5490 C   0  0  2  0  0  3  0  0  0  0  0  0
  163.5800  209.3720  150.9380 O   0  0  0  0  0  1  0  0  0  0  0  0
  161.2580  210.1060  150.9290 C   0  0  2  0  0  0  0  0  0  0  0  0
  161.3370  209.5830  149.6340 O   0  0  0  0  0  1  0  0  0  0  0  0
  162.8810  210.3440  152.9950 C   0  0  0  0  0  2  0  0  0  0  0  0
  160.7460  208.0490  154.7720 C   0  0  2  0  0  3  0  0  0  0  0  0
  161.9660  210.0870  154.0930 N   0  0  2  0  0  0  0  0  0  0  0  0
  160.3920  211.7700  154.9890 C   0  0  2  0  0  0  0  0  0  0  0  0
  161.1940  212.9430  156.9420 O   0  0  0  0  0  1  0  0  0  0  0  0
  160.1290  212.8550  156.0430 C   0  0  0  0  0  2  0  0  0  0  0  0
  159.1470  213.3590  153.3670 C   0  0  0  0  0  2  0  0  0  0  0  0
  157.0940  213.8770  154.7410 C   0  0  0  0  0  0  0  0  0  0  0  0
  158.5110  213.7290  154.6200 N   0  0  0  0  0  2  0  0  0  0  0  0
  156.3750  213.9370  153.7050 O   0  0  0  0  0  0  0  0  0  0  0  0
  157.5060  214.2490  157.1140 N   0  0  0  0  0  1  0  0  0  0  0  0
  156.4760  214.0600  156.1010 C   0  0  2  0  0  3  0  0  0  0  0  0
  153.9260  211.7290  157.2520 C   0  0  0  0  0  3  0  0  0  0  0  0
  155.6210  212.9380  156.4800 N   0  0  0  0  0  0  0  0  0  0  0  0
  155.8480  211.6600  156.1380 C   0  0  0  0  0  3  0  0  0  0  0  0
  154.8120  210.8770  156.6100 C   0  0  0  0  0  3  0  0  0  0  0  0
  154.4510  213.0030  157.1470 C   0  0  0  0  0  3  0  0  0  0  0  0
  160.2340  214.4530  150.8220 C   0  0  0  0  0  2  0  0  0  0  0  0
  160.5500  213.6530  149.8060 C   0  0  0  0  0  0  0  0  0  0  0  0
  160.8600  214.2320  148.5710 O   0  0  0  0  0  0  0  0  0  0  0  0
  162.7030  213.1040  147.5210 C   0  0  2  0  0  3  0  0  0  0  0  0
  161.2390  213.4620  147.4350 C   0  0  2  0  0  3  0  0  0  0  0  0
  163.3290  213.3140  146.2710 O   0  0  0  0  0  0  0  0  0  0  0  0
  162.8540  211.7100  147.9170 N   0  0  0  0  0  1  0  0  0  0  0  0
  161.1620  214.2780  146.1810 C   0  0  0  0  0  2  0  0  0  0  0  0
  162.3440  213.7840  145.3800 C   0  0  2  0  0  3  0  0  0  0  0  0
  161.9290  212.6520  144.4490 C   0  0  0  0  0  2  0  0  0  0  0  0
  160.5580  212.9180  143.8480 C   0  0  0  0  0  2  0  0  0  0  0  0
  160.1680  211.7710  143.0460 N   0  0  0  0  0  2  0  0  0  0  0  0
  158.5290  213.0130  141.7020 N   0  0  0  0  0  0  0  0  0  0  0  0
  159.7930  213.5930  141.6580 O   0  0  0  0  0  0  0  0  0  0  0  0
  159.7590  212.2380  141.7270 C   0  0  1  0  0  0  0  0  0  0  0  0
  157.9490  212.0050  139.3070 O   0  0  0  0  0  0  0  0  0  0  0  0
  157.8220  213.2600  140.1240 S   0  0  0  0  0  0  0  0  0  0  0  0
  158.4800  214.4040  139.3990 O   0  0  0  0  0  0  0  0  0  0  0  0
  156.0910  213.6500  140.3220 C   0  0  0  0  0  2  0  0  0  0  0  0
  153.5980  211.6010  138.2330 C   0  0  0  0  0  2  0  0  0  0  0  0
  154.4890  211.9530  139.4200 C   0  0  0  0  0  2  0  0  0  0  0  0
  155.2920  213.2140  139.1030 C   0  0  0  0  0  3  0  0  0  0  0  0
  154.3520  214.3400  138.6820 C   0  0  0  0  0  2  0  0  0  0  0  0
  152.6770  212.7050  137.9590 N   0  0  0  0  0  2  0  0  0  0  0  0
  153.4560  213.8660  137.5350 C   0  0  0  0  0  2  0  0  0  0  0  0
  159.8430  210.4140  140.1830 O   0  0  0  0  0  0  0  0  0  0  0  0
  160.3110  211.5410  140.5050 C   0  0  0  0  0  0  0  0  0  0  0  0
  163.5290  213.1830  138.1940 C   0  0  0  0  0  3  0  0  0  0  0  0
  162.2090  213.3200  137.7570 C   0  0  0  0  0  3  0  0  0  0  0  0
  161.4240  212.1180  139.7220 C   0  0  0  0  0  0  0  0  0  0  0  0
  163.8020  212.5220  139.3940 C   0  0  0  0  0  3  0  0  0  0  0  0
  162.7530  211.9940  140.1560 C   0  0  0  0  0  3  0  0  0  0  0  0
  161.1610  212.7920  138.5190 C   0  0  0  0  0  3  0  0  0  0  0  0
  1 16  1  0  0  0  0
  2  1  2  0  0  0  0
  3 19  1  0  0  0  0
  5  9  1  1  0  0  0
  7  4  1  6  0  0  0
  7  6  1  0  0  0  0
 11 15  1  6  0  0  0
 11 18  1  0  0  0  0
 12 10  1  6  0  0  0
 12  3  1  0  0  0  0
 12  7  1  0  0  0  0
 13 19  1  0  0  0  0
 14 24  1  1  0  0  0
 14  7  1  0  0  0  0
 14 21  1  0  0  0  0
 16 17  1  6  0  0  0
 16 10  1  0  0  0  0
 16 11  1  0  0  0  0
 19  8  1  1  0  0  0
 20 18  1  1  0  0  0
 20 13  1  0  0  0  0
 20  5  1  0  0  0  0
 21  5  1  0  0  0  0
 21  6  1  0  0  0  0
 21 23  1  1  0  0  0
 23 22  1  0  0  0  0
 24 26  1  0  0  0  0
 25 29  1  0  0  0  0
 26 25  1  0  0  0  0
 27 25  2  0  0  0  0
 29 31  1  0  0  0  0
 29 28  1  1  0  0  0
 31 34  1  0  0  0  0
 32 31  1  0  0  0  0
 32 33  2  0  0  0  0
 33 30  1  0  0  0  0
 34 30  2  0  0  0  0
 36  2  1  0  0  0  0
 36 35  2  0  0  0  0
 37 36  1  0  0  0  0
 38 41  1  6  0  0  0
 39 38  1  0  0  0  0
 39 37  1  1  0  0  0
 40 38  1  0  0  0  0
 42 39  1  0  0  0  0
 43 44  1  6  0  0  0
 43 42  1  0  0  0  0
 43 40  1  0  0  0  0
 45 44  1  0  0  0  0
 46 45  1  0  0  0  0
 47 49  1  0  0  0  0
 48 47  1  0  0  0  0
 48 49  1  0  0  0  0
 49 61  1  6  0  0  0
 49 46  1  0  0  0  0
 50 51  2  0  0  0  0
 51 53  1  0  0  0  0
 51 47  1  0  0  0  0
 52 51  2  0  0  0  0
 54 55  1  0  0  0  0
 56 55  1  0  0  0  0
 56 53  1  0  0  0  0
 57 56  1  0  0  0  0
 58 54  1  0  0  0  0
 59 58  1  0  0  0  0
 59 57  1  0  0  0  0
 60 61  2  0  0  0  0
 62 65  1  0  0  0  0
 63 62  2  0  0  0  0
 63 67  1  0  0  0  0
 64 66  1  0  0  0  0
 64 61  1  0  0  0  0
 65 66  2  0  0  0  0
 67 64  2  0  0  0  0
M  END
>  <MODEL>
1

>  <REMARK>
 VINA RESULT:       1.1      0.000      0.000
  Name = 
  18 active torsions:
  status: ('A' for Active; 'I' for Inactive)
    1  A    between atoms: C_3  and  C_30
    2  A    between atoms: C_3  and  S_31
    3  A    between atoms: N_5  and  C_53
    4  A    between atoms: C_10  and  C_53
    5  A    between atoms: C_13  and  O_60
    6  A    between atoms: N_16  and  S_31
    7  A    between atoms: C_17  and  C_55
    8  A    between atoms: N_21  and  C_32
    9  A    between atoms: C_25  and  C_42
   10  A    between atoms: C_25  and  N_46
   11  A    between atoms: C_32  and  O_60
   12  A    between atoms: C_39  and  C_48
   13  A    between atoms: C_40  and  C_54
   14  A    between atoms: C_42  and  C_52
   15  A    between atoms: C_44  and  N_46
   16  A    between atoms: C_44  and  C_54
   17  A    between atoms: C_48  and  N_63
   18  A    between atoms: C_51  and  C_65
                            x       y       z     vdW  Elec       q    Type
                         _______ _______ _______ _____ _____    ______ ____

>  <TORSDO>
F 18

$$$$
=
 OpenBabel11072413523D

 67 74  0  0  1  0  0  0  0  0999 V2000
  161.2440  209.8010  153.1070 C   0  0  0  0  0  3  0  0  0  0  0  0
  161.1580  209.0830  152.0320 N   0  0  0  0  0  0  0  0  0  0  0  0
  157.9830  210.2610  156.3930 C   0  0  0  0  0  2  0  0  0  0  0  0
  156.6720  210.7730  153.1810 C   0  0  0  0  0  1  0  0  0  0  0  0
  159.8650  213.3950  154.9580 C   0  0  1  0  0  3  0  0  0  0  0  0
  157.6170  212.5420  154.5480 O   0  0  0  0  0  0  0  0  0  0  0  0
  157.8970  211.3130  153.9130 C   0  0  1  0  0  0  0  0  0  0  0  0
  157.3440  212.4800  157.1650 O   0  0  0  0  0  1  0  0  0  0  0  0
  159.5520  214.4520  155.8210 O   0  0  0  0  0  1  0  0  0  0  0  0
  159.2810  209.0990  154.4550 C   0  0  0  0  0  2  0  0  0  0  0  0
  161.4150  210.0650  155.6240 C   0  0  2  0  0  3  0  0  0  0  0  0
  158.4640  210.2970  154.9310 C   0  0  2  0  0  3  0  0  0  0  0  0
  159.7350  212.1000  157.1030 C   0  0  0  0  0  2  0  0  0  0  0  0
  159.0070  211.9350  153.0600 C   0  0  2  0  0  3  0  0  0  0  0  0
  162.7120  209.6340  155.9190 O   0  0  0  0  0  1  0  0  0  0  0  0
  160.8210  209.2470  154.4340 C   0  0  2  0  0  0  0  0  0  0  0  0
  161.3180  207.9420  154.5160 O   0  0  0  0  0  1  0  0  0  0  0  0
  161.4460  211.5960  155.4570 C   0  0  0  0  0  2  0  0  0  0  0  0
  158.3280  211.4970  157.2590 C   0  0  2  0  0  3  0  0  0  0  0  0
  160.1260  212.1510  155.6960 N   0  0  2  0  0  0  0  0  0  0  0  0
  158.7230  213.1640  153.9310 C   0  0  2  0  0  0  0  0  0  0  0  0
  156.9680  214.3400  152.7580 O   0  0  0  0  0  1  0  0  0  0  0  0
  158.2850  214.4480  153.2120 C   0  0  0  0  0  2  0  0  0  0  0  0
  158.6380  212.0850  151.5770 C   0  0  0  0  0  2  0  0  0  0  0  0
  159.9250  213.0000  149.6090 C   0  0  0  0  0  0  0  0  0  0  0  0
  159.8440  212.1700  150.7700 N   0  0  0  0  0  2  0  0  0  0  0  0
  158.8740  213.4880  149.1060 O   0  0  0  0  0  0  0  0  0  0  0  0
  161.8670  214.4530  149.3690 N   0  0  0  0  0  1  0  0  0  0  0  0
  161.2530  213.2070  148.9300 C   0  0  2  0  0  3  0  0  0  0  0  0
  161.4220  213.6830  145.3230 C   0  0  0  0  0  3  0  0  0  0  0  0
  161.1400  213.2050  147.4740 N   0  0  0  0  0  0  0  0  0  0  0  0
  160.4770  212.2780  146.7650 C   0  0  0  0  0  3  0  0  0  0  0  0
  160.6280  212.5500  145.4180 C   0  0  0  0  0  3  0  0  0  0  0  0
  161.7310  214.0610  146.6160 C   0  0  0  0  0  3  0  0  0  0  0  0
  162.3310  210.5860  150.5510 C   0  0  0  0  0  2  0  0  0  0  0  0
  161.5090  209.5520  150.7220 C   0  0  0  0  0  0  0  0  0  0  0  0
  160.9830  208.9220  149.5900 O   0  0  0  0  0  0  0  0  0  0  0  0
  162.9790  207.6680  149.1200 C   0  0  2  0  0  3  0  0  0  0  0  0
  161.4690  207.6710  149.1120 C   0  0  2  0  0  3  0  0  0  0  0  0
  163.4700  207.1250  147.9110 O   0  0  0  0  0  0  0  0  0  0  0  0
  163.4710  206.8850  150.2450 N   0  0  0  0  0  1  0  0  0  0  0  0
  161.1370  207.4830  147.6630 C   0  0  0  0  0  2  0  0  0  0  0  0
  162.3560  206.7720  147.1240 C   0  0  2  0  0  3  0  0  0  0  0  0
  162.1650  205.2610  147.1750 C   0  0  0  0  0  2  0  0  0  0  0  0
  161.3650  204.7740  145.9770 C   0  0  0  0  0  2  0  0  0  0  0  0
  161.6680  203.3720  145.7510 N   0  0  0  0  0  2  0  0  0  0  0  0
  161.4900  202.5780  148.0690 N   0  0  0  0  0  0  0  0  0  0  0  0
  160.3980  203.3540  147.6940 O   0  0  0  0  0  0  0  0  0  0  0  0
  160.9360  202.5700  146.7250 C   0  0  1  0  0  0  0  0  0  0  0  0
  161.4420  200.0120  148.7790 O   0  0  0  0  0  0  0  0  0  0  0  0
  160.8720  201.3530  149.1500 S   0  0  0  0  0  0  0  0  0  0  0  0
  159.3690  201.2910  149.1100 O   0  0  0  0  0  0  0  0  0  0  0  0
  161.3680  201.7510  150.8180 C   0  0  0  0  0  2  0  0  0  0  0  0
  160.5090  204.6680  153.1690 C   0  0  0  0  0  2  0  0  0  0  0  0
  161.0690  203.3120  152.7490 C   0  0  0  0  0  2  0  0  0  0  0  0
  160.7120  203.0400  151.2890 C   0  0  0  0  0  3  0  0  0  0  0  0
  161.1790  204.1980  150.4120 C   0  0  0  0  0  2  0  0  0  0  0  0
  161.0780  205.7220  152.3280 N   0  0  0  0  0  2  0  0  0  0  0  0
  160.6230  205.5160  150.9540 C   0  0  0  0  0  2  0  0  0  0  0  0
  158.7710  201.6910  146.2170 O   0  0  0  0  0  0  0  0  0  0  0  0
  160.0160  201.4810  146.2270 C   0  0  0  0  0  0  0  0  0  0  0  0
  161.5600  197.6670  145.0150 C   0  0  0  0  0  3  0  0  0  0  0  0
  162.2480  198.4360  145.9570 C   0  0  0  0  0  3  0  0  0  0  0  0
  160.5330  200.1580  145.8160 C   0  0  0  0  0  0  0  0  0  0  0  0
  160.3590  198.1340  144.4750 C   0  0  0  0  0  3  0  0  0  0  0  0
  159.8460  199.3740  144.8760 C   0  0  0  0  0  3  0  0  0  0  0  0
  161.7350  199.6750  146.3580 C   0  0  0  0  0  3  0  0  0  0  0  0
  1 16  1  0  0  0  0
  2  1  2  0  0  0  0
  3 19  1  0  0  0  0
  5 20  1  0  0  0  0
  5  9  1  1  0  0  0
  7  4  1  6  0  0  0
  7  6  1  0  0  0  0
  7 12  1  0  0  0  0
 11 15  1  6  0  0  0
 12 10  1  6  0  0  0
 12  3  1  0  0  0  0
 13 19  1  0  0  0  0
 14 24  1  6  0  0  0
 14  7  1  0  0  0  0
 14 21  1  0  0  0  0
 16 10  1  0  0  0  0
 16 17  1  1  0  0  0
 16 11  1  0  0  0  0
 18 11  1  0  0  0  0
 19  8  1  6  0  0  0
 20 18  1  1  0  0  0
 20 13  1  0  0  0  0
 21 23  1  6  0  0  0
 21  6  1  0  0  0  0
 21  5  1  0  0  0  0
 22 23  1  0  0  0  0
 25 26  1  0  0  0  0
 26 24  1  0  0  0  0
 27 25  2  0  0  0  0
 29 28  1  1  0  0  0
 29 25  1  0  0  0  0
 30 33  1  0  0  0  0
 30 34  2  0  0  0  0
 31 29  1  0  0  0  0
 32 31  1  0  0  0  0
 33 32  2  0  0  0  0
 34 31  1  0  0  0  0
 35 36  2  0  0  0  0
 36  2  1  0  0  0  0
 37 36  1  0  0  0  0
 38 41  1  1  0  0  0
 39 38  1  0  0  0  0
 39 37  1  6  0  0  0
 40 38  1  0  0  0  0
 42 39  1  0  0  0  0
 43 44  1  1  0  0  0
 43 42  1  0  0  0  0
 43 40  1  0  0  0  0
 45 44  1  0  0  0  0
 46 45  1  0  0  0  0
 47 51  1  0  0  0  0
 48 47  1  0  0  0  0
 49 46  1  6  0  0  0
 49 48  1  0  0  0  0
 49 47  1  0  0  0  0
 50 51  2  0  0  0  0
 51 53  1  0  0  0  0
 52 51  2  0  0  0  0
 53 56  1  0  0  0  0
 55 54  1  0  0  0  0
 56 55  1  0  0  0  0
 57 59  1  0  0  0  0
 57 56  1  0  0  0  0
 58 54  1  0  0  0  0
 59 58  1  0  0  0  0
 60 61  2  0  0  0  0
 61 49  1  0  0  0  0
 62 63  1  0  0  0  0
 63 67  2  0  0  0  0
 64 61  1  0  0  0  0
 64 67  1  0  0  0  0
 65 66  1  0  0  0  0
 65 62  2  0  0  0  0
 66 64  2  0  0  0  0
M  END
>  <MODEL>
2

>  <REMARK>
 VINA RESULT:       1.6      5.825     10.051
  Name = 
  18 active torsions:
  status: ('A' for Active; 'I' for Inactive)
    1  A    between atoms: C_3  and  C_30
    2  A    between atoms: C_3  and  S_31
    3  A    between atoms: N_5  and  C_53
    4  A    between atoms: C_10  and  C_53
    5  A    between atoms: C_13  and  O_60
    6  A    between atoms: N_16  and  S_31
    7  A    between atoms: C_17  and  C_55
    8  A    between atoms: N_21  and  C_32
    9  A    between atoms: C_25  and  C_42
   10  A    between atoms: C_25  and  N_46
   11  A    between atoms: C_32  and  O_60
   12  A    between atoms: C_39  and  C_48
   13  A    between atoms: C_40  and  C_54
   14  A    between atoms: C_42  and  C_52
   15  A    between atoms: C_44  and  N_46
   16  A    between atoms: C_44  and  C_54
   17  A    between atoms: C_48  and  N_63
   18  A    between atoms: C_51  and  C_65
                            x       y       z     vdW  Elec       q    Type
                         _______ _______ _______ _____ _____    ______ ____

>  <TORSDO>
F 18

$$$$
=
 OpenBabel11072413523D

 67 74  0  0  1  0  0  0  0  0999 V2000
  159.7500  212.6040  152.0410 C   0  0  0  0  0  3  0  0  0  0  0  0
  159.7620  212.2450  150.7960 N   0  0  0  0  0  0  0  0  0  0  0  0
  157.3220  212.9360  155.9960 C   0  0  0  0  0  2  0  0  0  0  0  0
  160.7620  212.6230  156.6050 C   0  0  0  0  0  1  0  0  0  0  0  0
  158.3510  209.4360  154.5410 C   0  0  1  0  0  3  0  0  0  0  0  0
  159.2530  210.7340  156.4000 O   0  0  0  0  0  0  0  0  0  0  0  0
  159.7780  211.8570  155.7260 C   0  0  1  0  0  0  0  0  0  0  0  0
  156.7690  210.9240  157.2520 O   0  0  0  0  0  1  0  0  0  0  0  0
  157.6080  208.4930  155.2620 O   0  0  0  0  0  1  0  0  0  0  0  0
  158.8790  213.7430  154.0680 C   0  0  0  0  0  2  0  0  0  0  0  0
  157.2680  212.3810  152.5180 C   0  0  2  0  0  3  0  0  0  0  0  0
  158.6330  212.7580  155.2080 C   0  0  2  0  0  3  0  0  0  0  0  0
  156.2670  210.7890  154.8870 C   0  0  0  0  0  2  0  0  0  0  0  0
  160.3630  210.9910  154.6070 C   0  0  2  0  0  3  0  0  0  0  0  0
  156.6710  212.5360  151.2630 O   0  0  0  0  0  1  0  0  0  0  0  0
  158.5450  213.2720  152.6330 C   0  0  2  0  0  0  0  0  0  0  0  0
  158.3210  214.4450  151.9040 O   0  0  0  0  0  1  0  0  0  0  0  0
  157.4590  210.8730  152.7740 C   0  0  0  0  0  2  0  0  0  0  0  0
  156.4280  211.6790  156.1310 C   0  0  2  0  0  3  0  0  0  0  0  0
  157.5450  210.6170  154.2010 N   0  0  2  0  0  0  0  0  0  0  0  0
  159.6100  209.8750  155.3380 C   0  0  2  0  0  0  0  0  0  0  0  0
  160.3930  208.6290  157.2550 O   0  0  0  0  0  1  0  0  0  0  0  0
  160.4390  208.6930  155.8600 C   0  0  0  0  0  2  0  0  0  0  0  0
  161.8940  210.8810  154.6450 C   0  0  0  0  0  2  0  0  0  0  0  0
  161.6690  209.1910  152.7840 C   0  0  0  0  0  0  0  0  0  0  0  0
  162.3250  209.6750  153.9590 N   0  0  0  0  0  2  0  0  0  0  0  0
  160.5430  209.6560  152.4530 O   0  0  0  0  0  0  0  0  0  0  0  0
  162.0810  208.2550  150.5720 N   0  0  0  0  0  1  0  0  0  0  0  0
  162.2790  208.0590  152.0010 C   0  0  2  0  0  3  0  0  0  0  0  0
  161.0820  204.6380  152.3630 C   0  0  0  0  0  3  0  0  0  0  0  0
  161.7430  206.7590  152.3940 N   0  0  0  0  0  0  0  0  0  0  0  0
  161.4340  206.4140  153.6540 C   0  0  0  0  0  3  0  0  0  0  0  0
  161.0130  205.0970  153.6700 C   0  0  0  0  0  3  0  0  0  0  0  0
  161.5480  205.6900  151.5960 C   0  0  0  0  0  3  0  0  0  0  0  0
  160.9880  210.3110  150.0320 C   0  0  0  0  0  2  0  0  0  0  0  0
  160.8870  211.6340  150.1470 C   0  0  0  0  0  0  0  0  0  0  0  0
  161.9090  212.4300  149.6210 O   0  0  0  0  0  0  0  0  0  0  0  0
  163.5920  213.0170  148.0090 C   0  0  2  0  0  3  0  0  0  0  0  0
  162.1920  212.4950  148.2270 C   0  0  2  0  0  3  0  0  0  0  0  0
  163.5940  213.9880  146.9820 O   0  0  0  0  0  0  0  0  0  0  0  0
  164.4830  211.9220  147.6510 N   0  0  0  0  0  1  0  0  0  0  0  0
  161.3370  213.5230  147.5510 C   0  0  0  0  0  2  0  0  0  0  0  0
  162.2690  214.1170  146.5210 C   0  0  2  0  0  3  0  0  0  0  0  0
  162.1300  213.3920  145.1880 C   0  0  0  0  0  2  0  0  0  0  0  0
  160.6670  213.2540  144.7940 C   0  0  0  0  0  2  0  0  0  0  0  0
  160.5550  212.2430  143.7580 N   0  0  0  0  0  2  0  0  0  0  0  0
  158.8720  212.9720  142.1240 N   0  0  0  0  0  0  0  0  0  0  0  0
  159.5680  214.0430  142.6750 O   0  0  0  0  0  0  0  0  0  0  0  0
  160.2780  212.9010  142.4870 C   0  0  1  0  0  0  0  0  0  0  0  0
  159.5190  214.4480  140.0050 O   0  0  0  0  0  0  0  0  0  0  0  0
  158.5390  213.4050  140.4650 S   0  0  0  0  0  0  0  0  0  0  0  0
  157.1350  213.9250  140.3030 O   0  0  0  0  0  0  0  0  0  0  0  0
  158.7160  211.9530  139.4420 C   0  0  0  0  0  2  0  0  0  0  0  0
  155.8250  211.1960  137.0250 C   0  0  0  0  0  2  0  0  0  0  0  0
  157.1300  211.8180  137.5120 C   0  0  0  0  0  2  0  0  0  0  0  0
  157.3600  211.4460  138.9760 C   0  0  0  0  0  3  0  0  0  0  0  0
  157.2970  209.9300  139.1460 C   0  0  0  0  0  2  0  0  0  0  0  0
  155.8930  209.7390  137.1480 N   0  0  0  0  0  2  0  0  0  0  0  0
  155.9860  209.3970  138.5660 C   0  0  0  0  0  2  0  0  0  0  0  0
  162.0940  214.0710  141.4620 O   0  0  0  0  0  0  0  0  0  0  0  0
  161.3910  213.0230  141.4730 C   0  0  0  0  0  0  0  0  0  0  0  0
  162.0430  209.9980  138.5020 C   0  0  0  0  0  3  0  0  0  0  0  0
  161.9950  211.3460  138.1340 C   0  0  0  0  0  3  0  0  0  0  0  0
  161.6310  211.9760  140.4570 C   0  0  0  0  0  0  0  0  0  0  0  0
  161.8910  209.6350  139.8430 C   0  0  0  0  0  3  0  0  0  0  0  0
  161.6880  210.6200  140.8170 C   0  0  0  0  0  3  0  0  0  0  0  0
  161.7940  212.3300  139.1080 C   0  0  0  0  0  3  0  0  0  0  0  0
  1 16  1  0  0  0  0
  2  1  2  0  0  0  0
  3 19  1  0  0  0  0
  5  9  1  1  0  0  0
  5 21  1  0  0  0  0
  7  6  1  0  0  0  0
  7  4  1  1  0  0  0
 11 15  1  6  0  0  0
 11 16  1  0  0  0  0
 11 18  1  0  0  0  0
 12 10  1  1  0  0  0
 12  7  1  0  0  0  0
 12  3  1  0  0  0  0
 13 19  1  0  0  0  0
 14 24  1  1  0  0  0
 14 21  1  0  0  0  0
 14  7  1  0  0  0  0
 16 17  1  6  0  0  0
 16 10  1  0  0  0  0
 19  8  1  1  0  0  0
 20 18  1  6  0  0  0
 20  5  1  0  0  0  0
 20 13  1  0  0  0  0
 21 23  1  1  0  0  0
 21  6  1  0  0  0  0
 23 22  1  0  0  0  0
 25 26  1  0  0  0  0
 26 24  1  0  0  0  0
 27 25  2  0  0  0  0
 29 28  1  6  0  0  0
 29 31  1  0  0  0  0
 29 25  1  0  0  0  0
 30 33  1  0  0  0  0
 31 32  1  0  0  0  0
 32 33  2  0  0  0  0
 34 30  2  0  0  0  0
 34 31  1  0  0  0  0
 35 36  2  0  0  0  0
 36  2  1  0  0  0  0
 37 36  1  0  0  0  0
 38 41  1  6  0  0  0
 38 39  1  0  0  0  0
 39 37  1  1  0  0  0
 40 38  1  0  0  0  0
 42 39  1  0  0  0  0
 43 44  1  6  0  0  0
 43 40  1  0  0  0  0
 43 42  1  0  0  0  0
 45 44  1  0  0  0  0
 46 45  1  0  0  0  0
 47 49  1  0  0  0  0
 47 48  1  0  0  0  0
 49 61  1  6  0  0  0
 49 48  1  0  0  0  0
 49 46  1  0  0  0  0
 50 51  2  0  0  0  0
 51 47  1  0  0  0  0
 52 51  2  0  0  0  0
 53 51  1  0  0  0  0
 54 58  1  0  0  0  0
 54 55  1  0  0  0  0
 55 56  1  0  0  0  0
 56 57  1  0  0  0  0
 56 53  1  0  0  0  0
 58 59  1  0  0  0  0
 59 57  1  0  0  0  0
 60 61  2  0  0  0  0
 62 65  1  0  0  0  0
 63 62  2  0  0  0  0
 63 67  1  0  0  0  0
 64 66  1  0  0  0  0
 64 61  1  0  0  0  0
 65 66  2  0  0  0  0
 67 64  2  0  0  0  0
M  END
>  <MODEL>
3

>  <REMARK>
 VINA RESULT:       2.0      2.105      4.780
  Name = 
  18 active torsions:
  status: ('A' for Active; 'I' for Inactive)
    1  A    between atoms: C_3  and  C_30
    2  A    between atoms: C_3  and  S_31
    3  A    between atoms: N_5  and  C_53
    4  A    between atoms: C_10  and  C_53
    5  A    between atoms: C_13  and  O_60
    6  A    between atoms: N_16  and  S_31
    7  A    between atoms: C_17  and  C_55
    8  A    between atoms: N_21  and  C_32
    9  A    between atoms: C_25  and  C_42
   10  A    between atoms: C_25  and  N_46
   11  A    between atoms: C_32  and  O_60
   12  A    between atoms: C_39  and  C_48
   13  A    between atoms: C_40  and  C_54
   14  A    between atoms: C_42  and  C_52
   15  A    between atoms: C_44  and  N_46
   16  A    between atoms: C_44  and  C_54
   17  A    between atoms: C_48  and  N_63
   18  A    between atoms: C_51  and  C_65
                            x       y       z     vdW  Elec       q    Type
                         _______ _______ _______ _____ _____    ______ ____

>  <TORSDO>
F 18

$$$$
