=
 OpenBabel11072413483D

 29 32  0  0  1  0  0  0  0  0999 V2000
  161.6320  209.1100  151.7900 C   0  0  0  0  0  0  0  0  0  0  0  0
  161.5600  210.2460  151.2450 O   0  0  0  0  0  0  0  0  0  0  0  0
  161.0100  205.0970  153.0520 N   0  0  0  0  0  1  0  0  0  0  0  0
  161.3580  206.4340  152.7080 C   0  0  0  0  0  0  0  0  0  0  0  0
  161.0520  208.8940  153.0860 N   0  0  0  0  0  0  0  0  0  0  0  0
  160.4450  207.3190  154.7090 O   0  0  0  0  0  0  0  0  0  0  0  0
  161.9650  206.6650  151.5810 N   0  0  0  0  0  0  0  0  0  0  0  0
  160.9360  207.5490  153.5710 C   0  0  0  0  0  0  0  0  0  0  0  0
  162.4130  207.9890  151.1340 C   0  0  1  0  0  3  0  0  0  0  0  0
  158.2130  211.0830  153.9260 C   0  0  0  0  0  3  0  0  0  0  0  0
  158.1910  211.6970  155.1110 C   0  0  0  0  0  0  0  0  0  0  0  0
  160.4680  209.9830  153.8190 C   0  0  2  0  0  3  0  0  0  0  0  0
  160.5970  211.5040  155.8030 C   0  0  0  0  0  0  0  0  0  0  0  0
  161.6190  211.8280  156.6690 O   0  0  0  0  0  0  0  0  0  0  0  0
  159.4450  210.8250  153.1210 C   0  0  0  0  0  2  0  0  0  0  0  0
  162.7010  210.9090  156.5820 C   0  0  0  0  0  3  0  0  0  0  0  0
  162.2880  209.8540  155.5420 C   0  0  0  0  0  3  0  0  0  0  0  0
  161.0070  210.3790  154.9820 C   0  0  0  0  0  0  0  0  0  0  0  0
  156.9540  212.0100  155.6570 O   0  0  0  0  0  1  0  0  0  0  0  0
  159.3960  212.0840  155.8720 C   0  0  0  0  0  2  0  0  0  0  0  0
  162.3820  208.0400  149.6380 C   0  0  0  0  0  3  0  0  0  0  0  0
  161.5940  207.2270  148.9470 C   0  0  0  0  0  3  0  0  0  0  0  0
  161.5560  207.2930  147.5540 O   0  0  0  0  0  0  0  0  0  0  0  0
  160.1510  206.3010  145.8480 C   0  0  0  0  0  1  0  0  0  0  0  0
  162.5950  205.8290  145.9040 C   0  0  0  0  0  2  0  0  0  0  0  0
  161.1540  204.9230  147.6450 C   0  0  0  0  0  2  0  0  0  0  0  0
  161.3640  206.1290  146.7500 C   0  0  0  0  0  0  0  0  0  0  0  0
  161.8710  203.7790  146.9650 C   0  0  0  0  0  2  0  0  0  0  0  0
  163.0340  204.4150  146.2430 C   0  0  0  0  0  2  0  0  0  0  0  0
  1  5  1  0  0  0  0
  2  1  2  0  0  0  0
  4  3  1  0  0  0  0
  4  8  1  0  0  0  0
  5  8  1  0  0  0  0
  7  4  2  0  0  0  0
  8  6  2  0  0  0  0
  9 21  1  6  0  0  0
  9  7  1  0  0  0  0
  9  1  1  0  0  0  0
 10 11  2  0  0  0  0
 11 19  1  0  0  0  0
 11 20  1  0  0  0  0
 12  5  1  6  0  0  0
 12 18  1  0  0  0  0
 13 20  1  0  0  0  0
 13 14  1  0  0  0  0
 15 12  1  0  0  0  0
 15 10  1  0  0  0  0
 16 14  1  0  0  0  0
 17 16  2  0  0  0  0
 18 17  1  0  0  0  0
 18 13  2  0  0  0  0
 22 21  2  0  0  0  0
 23 22  1  0  0  0  0
 24 27  1  0  0  0  0
 25 29  1  0  0  0  0
 25 27  1  0  0  0  0
 27 23  1  0  0  0  0
 27 26  1  0  0  0  0
 28 26  1  0  0  0  0
 29 28  1  0  0  0  0
M  END
>  <MODEL>
1

>  <REMARK>
 VINA RESULT:      -7.8      0.000      0.000
  Name = 
  4 active torsions:
  status: ('A' for Active; 'I' for Inactive)
    1  A    between atoms: C_7  and  N_10
    2  A    between atoms: C_12  and  C_29
    3  A    between atoms: C_13  and  O_18
    4  A    between atoms: O_18  and  C_20
                            x       y       z     vdW  Elec       q    Type
                         _______ _______ _______ _____ _____    ______ ____

>  <TORSDO>
F 4

$$$$
=
 OpenBabel11072413483D

 29 32  0  0  1  0  0  0  0  0999 V2000
  160.9800  208.9300  151.4720 C   0  0  0  0  0  0  0  0  0  0  0  0
  160.2280  208.3440  152.2990 O   0  0  0  0  0  0  0  0  0  0  0  0
  162.5960  211.2290  148.2800 N   0  0  0  0  0  1  0  0  0  0  0  0
  162.2050  210.4440  149.4020 C   0  0  0  0  0  0  0  0  0  0  0  0
  161.4630  208.2290  150.3150 N   0  0  0  0  0  0  0  0  0  0  0  0
  162.5590  208.4000  148.2520 O   0  0  0  0  0  0  0  0  0  0  0  0
  161.8440  211.0380  150.5010 N   0  0  0  0  0  0  0  0  0  0  0  0
  162.1090  208.9810  149.2780 C   0  0  0  0  0  0  0  0  0  0  0  0
  161.4630  210.3420  151.7360 C   0  0  1  0  0  3  0  0  0  0  0  0
  160.9350  205.2850  148.1690 C   0  0  0  0  0  3  0  0  0  0  0  0
  161.1420  204.0660  148.6710 C   0  0  0  0  0  0  0  0  0  0  0  0
  161.1770  206.8330  150.1300 C   0  0  2  0  0  3  0  0  0  0  0  0
  161.0970  204.5420  151.1360 C   0  0  0  0  0  0  0  0  0  0  0  0
  161.0900  204.0920  152.4390 O   0  0  0  0  0  0  0  0  0  0  0  0
  160.3710  206.4390  148.9320 C   0  0  0  0  0  2  0  0  0  0  0  0
  161.4910  205.1040  153.3540 C   0  0  0  0  0  3  0  0  0  0  0  0
  161.8200  206.3450  152.5070 C   0  0  0  0  0  3  0  0  0  0  0  0
  161.4030  205.9620  151.1250 C   0  0  0  0  0  0  0  0  0  0  0  0
  161.5150  203.0560  147.7950 O   0  0  0  0  0  1  0  0  0  0  0  0
  160.9800  203.7120  150.0960 C   0  0  0  0  0  2  0  0  0  0  0  0
  160.4740  211.1780  152.4860 C   0  0  0  0  0  3  0  0  0  0  0  0
  160.6340  211.4220  153.7790 C   0  0  0  0  0  3  0  0  0  0  0  0
  159.7180  212.2180  154.4680 O   0  0  0  0  0  0  0  0  0  0  0  0
  159.0490  210.2780  155.7560 C   0  0  0  0  0  1  0  0  0  0  0  0
  158.2740  212.5540  156.4040 C   0  0  0  0  0  2  0  0  0  0  0  0
  157.4180  211.5240  154.3710 C   0  0  0  0  0  2  0  0  0  0  0  0
  158.6560  211.6530  155.2360 C   0  0  0  0  0  0  0  0  0  0  0  0
  156.2510  211.8600  155.2720 C   0  0  0  0  0  2  0  0  0  0  0  0
  156.7940  212.8630  156.2620 C   0  0  0  0  0  2  0  0  0  0  0  0
  1  9  1  0  0  0  0
  1  2  2  0  0  0  0
  3  4  1  0  0  0  0
  4  7  2  0  0  0  0
  5  1  1  0  0  0  0
  6  8  2  0  0  0  0
  7  9  1  0  0  0  0
  8  4  1  0  0  0  0
  8  5  1  0  0  0  0
  9 21  1  6  0  0  0
 10 11  2  0  0  0  0
 10 15  1  0  0  0  0
 11 20  1  0  0  0  0
 12 15  1  1  0  0  0
 12  5  1  0  0  0  0
 12 18  1  0  0  0  0
 13 14  1  0  0  0  0
 14 16  1  0  0  0  0
 17 16  2  0  0  0  0
 18 13  2  0  0  0  0
 18 17  1  0  0  0  0
 19 11  1  0  0  0  0
 20 13  1  0  0  0  0
 21 22  2  0  0  0  0
 22 23  1  0  0  0  0
 23 27  1  0  0  0  0
 26 27  1  0  0  0  0
 26 28  1  0  0  0  0
 27 24  1  0  0  0  0
 27 25  1  0  0  0  0
 28 29  1  0  0  0  0
 29 25  1  0  0  0  0
M  END
>  <MODEL>
2

>  <REMARK>
 VINA RESULT:      -7.1      2.284      8.269
  Name = 
  4 active torsions:
  status: ('A' for Active; 'I' for Inactive)
    1  A    between atoms: C_7  and  N_10
    2  A    between atoms: C_12  and  C_29
    3  A    between atoms: C_13  and  O_18
    4  A    between atoms: O_18  and  C_20
                            x       y       z     vdW  Elec       q    Type
                         _______ _______ _______ _____ _____    ______ ____

>  <TORSDO>
F 4

$$$$
=
 OpenBabel11072413483D

 29 32  0  0  1  0  0  0  0  0999 V2000
  161.0940  207.4030  151.7940 C   0  0  0  0  0  0  0  0  0  0  0  0
  160.4450  206.4670  152.3370 O   0  0  0  0  0  0  0  0  0  0  0  0
  162.3190  210.9620  149.8170 N   0  0  0  0  0  1  0  0  0  0  0  0
  162.0640  209.7440  150.5070 C   0  0  0  0  0  0  0  0  0  0  0  0
  161.4770  207.3080  150.4130 N   0  0  0  0  0  0  0  0  0  0  0  0
  162.3550  208.4300  148.5550 O   0  0  0  0  0  0  0  0  0  0  0  0
  161.8000  209.7760  151.7800 N   0  0  0  0  0  0  0  0  0  0  0  0
  161.9950  208.4770  149.7630 C   0  0  0  0  0  0  0  0  0  0  0  0
  161.5630  208.5890  152.6110 C   0  0  1  0  0  3  0  0  0  0  0  0
  161.0070  205.5250  147.2260 C   0  0  0  0  0  3  0  0  0  0  0  0
  161.2260  204.2090  147.1770 C   0  0  0  0  0  0  0  0  0  0  0  0
  161.2110  206.1140  149.6580 C   0  0  2  0  0  3  0  0  0  0  0  0
  161.1530  203.6120  149.6140 C   0  0  0  0  0  0  0  0  0  0  0  0
  161.1410  202.6580  150.6100 O   0  0  0  0  0  0  0  0  0  0  0  0
  160.4210  206.2490  148.3940 C   0  0  0  0  0  2  0  0  0  0  0  0
  161.5200  203.1990  151.8690 C   0  0  0  0  0  3  0  0  0  0  0  0
  161.8390  204.6830  151.6220 C   0  0  0  0  0  3  0  0  0  0  0  0
  161.4400  204.9090  150.2010 C   0  0  0  0  0  0  0  0  0  0  0  0
  161.6210  203.6610  145.9630 O   0  0  0  0  0  1  0  0  0  0  0  0
  161.0560  203.2910  148.3220 C   0  0  0  0  0  2  0  0  0  0  0  0
  160.6330  208.9480  153.7270 C   0  0  0  0  0  3  0  0  0  0  0  0
  160.8700  210.0010  154.4970 C   0  0  0  0  0  3  0  0  0  0  0  0
  159.9880  210.3410  155.5240 O   0  0  0  0  0  0  0  0  0  0  0  0
  159.3580  212.3730  156.6810 C   0  0  0  0  0  1  0  0  0  0  0  0
  159.4490  212.3120  154.1940 C   0  0  0  0  0  2  0  0  0  0  0  0
  157.7050  211.0810  155.3650 C   0  0  0  0  0  2  0  0  0  0  0  0
  159.1600  211.5010  155.4510 C   0  0  0  0  0  0  0  0  0  0  0  0
  157.0520  212.0560  154.4120 C   0  0  0  0  0  2  0  0  0  0  0  0
  158.1400  212.4400  153.4360 C   0  0  0  0  0  2  0  0  0  0  0  0
  1  2  2  0  0  0  0
  1  9  1  0  0  0  0
  3  4  1  0  0  0  0
  4  7  2  0  0  0  0
  5  1  1  0  0  0  0
  6  8  2  0  0  0  0
  7  9  1  0  0  0  0
  8  5  1  0  0  0  0
  8  4  1  0  0  0  0
  9 21  1  1  0  0  0
 10 15  1  0  0  0  0
 11 10  2  0  0  0  0
 11 20  1  0  0  0  0
 12 15  1  1  0  0  0
 12 18  1  0  0  0  0
 12  5  1  0  0  0  0
 13 18  2  0  0  0  0
 13 14  1  0  0  0  0
 14 16  1  0  0  0  0
 17 16  2  0  0  0  0
 18 17  1  0  0  0  0
 19 11  1  0  0  0  0
 20 13  1  0  0  0  0
 21 22  2  0  0  0  0
 22 23  1  0  0  0  0
 25 27  1  0  0  0  0
 26 27  1  0  0  0  0
 27 23  1  0  0  0  0
 27 24  1  0  0  0  0
 28 26  1  0  0  0  0
 29 25  1  0  0  0  0
 29 28  1  0  0  0  0
M  END
>  <MODEL>
3

>  <REMARK>
 VINA RESULT:      -6.9      2.164      8.496
  Name = 
  4 active torsions:
  status: ('A' for Active; 'I' for Inactive)
    1  A    between atoms: C_7  and  N_10
    2  A    between atoms: C_12  and  C_29
    3  A    between atoms: C_13  and  O_18
    4  A    between atoms: O_18  and  C_20
                            x       y       z     vdW  Elec       q    Type
                         _______ _______ _______ _____ _____    ______ ____

>  <TORSDO>
F 4

$$$$
=
 OpenBabel11072413483D

 29 32  0  0  1  0  0  0  0  0999 V2000
  161.0890  208.9210  151.7350 C   0  0  0  0  0  0  0  0  0  0  0  0
  160.4550  208.2880  152.6240 O   0  0  0  0  0  0  0  0  0  0  0  0
  162.2630  211.1600  148.3160 N   0  0  0  0  0  1  0  0  0  0  0  0
  162.0200  210.4280  149.5130 C   0  0  0  0  0  0  0  0  0  0  0  0
  161.7010  208.2130  150.6450 N   0  0  0  0  0  0  0  0  0  0  0  0
  162.7570  208.3850  148.5620 O   0  0  0  0  0  0  0  0  0  0  0  0
  161.5490  211.0480  150.5540 N   0  0  0  0  0  0  0  0  0  0  0  0
  162.2010  208.9680  149.5320 C   0  0  0  0  0  0  0  0  0  0  0  0
  161.2980  210.4170  151.8550 C   0  0  1  0  0  3  0  0  0  0  0  0
  161.6820  204.9190  152.2880 C   0  0  0  0  0  3  0  0  0  0  0  0
  161.1870  203.8660  151.6330 C   0  0  0  0  0  0  0  0  0  0  0  0
  161.6830  206.7770  150.6000 C   0  0  2  0  0  3  0  0  0  0  0  0
  161.2060  204.7110  149.2690 C   0  0  0  0  0  0  0  0  0  0  0  0
  161.0450  204.4840  147.9180 O   0  0  0  0  0  0  0  0  0  0  0  0
  162.4450  206.0370  151.6540 C   0  0  0  0  0  2  0  0  0  0  0  0
  160.8290  205.6910  147.1980 C   0  0  0  0  0  3  0  0  0  0  0  0
  160.8250  206.8210  148.2410 C   0  0  0  0  0  3  0  0  0  0  0  0
  161.2190  206.1430  149.5120 C   0  0  0  0  0  0  0  0  0  0  0  0
  160.6480  202.8290  152.3830 O   0  0  0  0  0  1  0  0  0  0  0  0
  161.1930  203.7200  150.1630 C   0  0  0  0  0  2  0  0  0  0  0  0
  160.1650  211.1220  152.5340 C   0  0  0  0  0  3  0  0  0  0  0  0
  160.3100  211.6220  153.7540 C   0  0  0  0  0  3  0  0  0  0  0  0
  159.2570  212.2950  154.3730 O   0  0  0  0  0  0  0  0  0  0  0  0
  158.9910  210.3270  155.7610 C   0  0  0  0  0  1  0  0  0  0  0  0
  158.0930  212.5280  156.5030 C   0  0  0  0  0  2  0  0  0  0  0  0
  157.0510  211.3710  154.6300 C   0  0  0  0  0  2  0  0  0  0  0  0
  158.3860  211.6430  155.2960 C   0  0  0  0  0  0  0  0  0  0  0  0
  156.0050  211.6090  155.6950 C   0  0  0  0  0  2  0  0  0  0  0  0
  156.5850  212.6830  156.5850 C   0  0  0  0  0  2  0  0  0  0  0  0
  1  9  1  0  0  0  0
  1  2  2  0  0  0  0
  3  4  1  0  0  0  0
  4  8  1  0  0  0  0
  4  7  2  0  0  0  0
  5  1  1  0  0  0  0
  6  8  2  0  0  0  0
  7  9  1  0  0  0  0
  8  5  1  0  0  0  0
  9 21  1  6  0  0  0
 11 10  2  0  0  0  0
 11 19  1  0  0  0  0
 12  5  1  6  0  0  0
 12 15  1  0  0  0  0
 13 18  2  0  0  0  0
 13 20  1  0  0  0  0
 14 13  1  0  0  0  0
 15 10  1  0  0  0  0
 16 14  1  0  0  0  0
 16 17  2  0  0  0  0
 17 18  1  0  0  0  0
 18 12  1  0  0  0  0
 20 11  1  0  0  0  0
 21 22  2  0  0  0  0
 22 23  1  0  0  0  0
 23 27  1  0  0  0  0
 25 29  1  0  0  0  0
 26 27  1  0  0  0  0
 26 28  1  0  0  0  0
 27 24  1  0  0  0  0
 27 25  1  0  0  0  0
 28 29  1  0  0  0  0
M  END
>  <MODEL>
4

>  <REMARK>
 VINA RESULT:      -6.8      2.293      8.502
  Name = 
  4 active torsions:
  status: ('A' for Active; 'I' for Inactive)
    1  A    between atoms: C_7  and  N_10
    2  A    between atoms: C_12  and  C_29
    3  A    between atoms: C_13  and  O_18
    4  A    between atoms: O_18  and  C_20
                            x       y       z     vdW  Elec       q    Type
                         _______ _______ _______ _____ _____    ______ ____

>  <TORSDO>
F 4

$$$$
=
 OpenBabel11072413483D

 29 32  0  0  1  0  0  0  0  0999 V2000
  161.1060  207.4280  151.6620 C   0  0  0  0  0  0  0  0  0  0  0  0
  160.4560  206.5000  152.2190 O   0  0  0  0  0  0  0  0  0  0  0  0
  162.3310  210.9530  149.6240 N   0  0  0  0  0  1  0  0  0  0  0  0
  162.0760  209.7480  150.3370 C   0  0  0  0  0  0  0  0  0  0  0  0
  161.4990  207.3070  150.2860 N   0  0  0  0  0  0  0  0  0  0  0  0
  162.3870  208.3970  148.4130 O   0  0  0  0  0  0  0  0  0  0  0  0
  161.8020  209.8040  151.6070 N   0  0  0  0  0  0  0  0  0  0  0  0
  162.0180  208.4660  149.6170 C   0  0  0  0  0  0  0  0  0  0  0  0
  161.5640  208.6330  152.4590 C   0  0  1  0  0  3  0  0  0  0  0  0
  161.0450  205.4630  147.1330 C   0  0  0  0  0  3  0  0  0  0  0  0
  161.2750  204.1490  147.1070 C   0  0  0  0  0  0  0  0  0  0  0  0
  161.2440  206.0980  149.5530 C   0  0  2  0  0  3  0  0  0  0  0  0
  161.2090  203.5950  149.5550 C   0  0  0  0  0  0  0  0  0  0  0  0
  161.2050  202.6600  150.5680 O   0  0  0  0  0  0  0  0  0  0  0  0
  160.4520  206.2030  148.2870 C   0  0  0  0  0  2  0  0  0  0  0  0
  161.5800  203.2270  151.8160 C   0  0  0  0  0  3  0  0  0  0  0  0
  161.8860  204.7090  151.5430 C   0  0  0  0  0  3  0  0  0  0  0  0
  161.4850  204.9050  150.1180 C   0  0  0  0  0  0  0  0  0  0  0  0
  161.6750  203.5820  145.9030 O   0  0  0  0  0  1  0  0  0  0  0  0
  161.1140  203.2500  148.2680 C   0  0  0  0  0  2  0  0  0  0  0  0
  160.6230  209.0090  153.5610 C   0  0  0  0  0  3  0  0  0  0  0  0
  160.3850  210.2820  153.8460 C   0  0  0  0  0  3  0  0  0  0  0  0
  159.4930  210.6260  154.8610 O   0  0  0  0  0  0  0  0  0  0  0  0
  158.3670  211.9760  153.1940 C   0  0  0  0  0  1  0  0  0  0  0  0
  157.1140  211.0780  155.1490 C   0  0  0  0  0  2  0  0  0  0  0  0
  158.7690  212.8340  155.4820 C   0  0  0  0  0  2  0  0  0  0  0  0
  158.4640  211.5950  154.6630 C   0  0  0  0  0  0  0  0  0  0  0  0
  157.4350  213.3200  156.0030 C   0  0  0  0  0  2  0  0  0  0  0  0
  156.6010  212.0730  156.1760 C   0  0  0  0  0  2  0  0  0  0  0  0
  1  2  2  0  0  0  0
  1  9  1  0  0  0  0
  3  4  1  0  0  0  0
  4  7  2  0  0  0  0
  5  1  1  0  0  0  0
  6  8  2  0  0  0  0
  7  9  1  0  0  0  0
  8  5  1  0  0  0  0
  8  4  1  0  0  0  0
  9 21  1  1  0  0  0
 10 15  1  0  0  0  0
 11 10  2  0  0  0  0
 11 20  1  0  0  0  0
 12 15  1  1  0  0  0
 12 18  1  0  0  0  0
 12  5  1  0  0  0  0
 13 18  2  0  0  0  0
 13 14  1  0  0  0  0
 14 16  1  0  0  0  0
 17 16  2  0  0  0  0
 18 17  1  0  0  0  0
 19 11  1  0  0  0  0
 20 13  1  0  0  0  0
 21 22  2  0  0  0  0
 22 23  1  0  0  0  0
 24 27  1  0  0  0  0
 25 29  1  0  0  0  0
 26 28  1  0  0  0  0
 27 23  1  0  0  0  0
 27 25  1  0  0  0  0
 27 26  1  0  0  0  0
 28 29  1  0  0  0  0
M  END
>  <MODEL>
5

>  <REMARK>
 VINA RESULT:      -6.7      2.227      8.656
  Name = 
  4 active torsions:
  status: ('A' for Active; 'I' for Inactive)
    1  A    between atoms: C_7  and  N_10
    2  A    between atoms: C_12  and  C_29
    3  A    between atoms: C_13  and  O_18
    4  A    between atoms: O_18  and  C_20
                            x       y       z     vdW  Elec       q    Type
                         _______ _______ _______ _____ _____    ______ ____

>  <TORSDO>
F 4

$$$$
=
 OpenBabel11072413483D

 29 32  0  0  1  0  0  0  0  0999 V2000
  161.1040  207.0890  152.9400 C   0  0  0  0  0  0  0  0  0  0  0  0
  160.4560  206.1460  153.4740 O   0  0  0  0  0  0  0  0  0  0  0  0
  162.3290  210.5780  150.8400 N   0  0  0  0  0  1  0  0  0  0  0  0
  162.0700  209.3970  151.5930 C   0  0  0  0  0  0  0  0  0  0  0  0
  161.6710  206.9220  151.6300 N   0  0  0  0  0  0  0  0  0  0  0  0
  162.7060  207.9700  149.8100 O   0  0  0  0  0  0  0  0  0  0  0  0
  161.6390  209.5030  152.8160 N   0  0  0  0  0  0  0  0  0  0  0  0
  162.1880  208.0770  150.9550 C   0  0  0  0  0  0  0  0  0  0  0  0
  161.3780  208.3660  153.7070 C   0  0  1  0  0  3  0  0  0  0  0  0
  161.5280  203.2430  151.6360 C   0  0  0  0  0  3  0  0  0  0  0  0
  160.9820  202.6100  150.5950 C   0  0  0  0  0  0  0  0  0  0  0  0
  161.5910  205.6580  150.9520 C   0  0  2  0  0  3  0  0  0  0  0  0
  161.0140  204.4190  148.8550 C   0  0  0  0  0  0  0  0  0  0  0  0
  160.8310  204.8230  147.5490 O   0  0  0  0  0  0  0  0  0  0  0  0
  162.3310  204.5000  151.5450 C   0  0  0  0  0  2  0  0  0  0  0  0
  160.6590  206.2310  147.4470 C   0  0  0  0  0  3  0  0  0  0  0  0
  160.7140  206.7770  148.8840 C   0  0  0  0  0  3  0  0  0  0  0  0
  161.0910  205.5910  149.7090 C   0  0  0  0  0  0  0  0  0  0  0  0
  160.4060  201.3670  150.8200 O   0  0  0  0  0  1  0  0  0  0  0  0
  160.9670  203.1340  149.2140 C   0  0  0  0  0  2  0  0  0  0  0  0
  160.2860  208.7310  154.6630 C   0  0  0  0  0  3  0  0  0  0  0  0
  160.0550  209.9980  154.9790 C   0  0  0  0  0  3  0  0  0  0  0  0
  159.0230  210.3330  155.8560 O   0  0  0  0  0  0  0  0  0  0  0  0
  157.5910  211.8830  157.0450 C   0  0  0  0  0  1  0  0  0  0  0  0
  159.2350  212.7120  155.3680 C   0  0  0  0  0  2  0  0  0  0  0  0
  157.2870  211.4540  154.6250 C   0  0  0  0  0  2  0  0  0  0  0  0
  158.3070  211.5620  155.7420 C   0  0  0  0  0  0  0  0  0  0  0  0
  157.2820  212.8030  153.9420 C   0  0  0  0  0  2  0  0  0  0  0  0
  158.6910  213.3250  154.0900 C   0  0  0  0  0  2  0  0  0  0  0  0
  1  2  2  0  0  0  0
  1  9  1  0  0  0  0
  3  4  1  0  0  0  0
  4  7  2  0  0  0  0
  5  1  1  0  0  0  0
  6  8  2  0  0  0  0
  7  9  1  0  0  0  0
  8  4  1  0  0  0  0
  8  5  1  0  0  0  0
  9 21  1  6  0  0  0
 11 19  1  0  0  0  0
 11 10  2  0  0  0  0
 12 15  1  6  0  0  0
 12  5  1  0  0  0  0
 13 20  1  0  0  0  0
 13 18  2  0  0  0  0
 14 13  1  0  0  0  0
 15 10  1  0  0  0  0
 16 14  1  0  0  0  0
 16 17  2  0  0  0  0
 17 18  1  0  0  0  0
 18 12  1  0  0  0  0
 20 11  1  0  0  0  0
 21 22  2  0  0  0  0
 22 23  1  0  0  0  0
 25 27  1  0  0  0  0
 26 27  1  0  0  0  0
 27 23  1  0  0  0  0
 27 24  1  0  0  0  0
 28 29  1  0  0  0  0
 28 26  1  0  0  0  0
 29 25  1  0  0  0  0
M  END
>  <MODEL>
6

>  <REMARK>
 VINA RESULT:      -6.7      2.260      8.587
  Name = 
  4 active torsions:
  status: ('A' for Active; 'I' for Inactive)
    1  A    between atoms: C_7  and  N_10
    2  A    between atoms: C_12  and  C_29
    3  A    between atoms: C_13  and  O_18
    4  A    between atoms: O_18  and  C_20
                            x       y       z     vdW  Elec       q    Type
                         _______ _______ _______ _____ _____    ______ ____

>  <TORSDO>
F 4

$$$$
=
 OpenBabel11072413483D

 29 32  0  0  1  0  0  0  0  0999 V2000
  160.3370  210.7190  153.6900 C   0  0  0  0  0  0  0  0  0  0  0  0
  159.8520  211.5790  152.9030 O   0  0  0  0  0  0  0  0  0  0  0  0
  161.3610  207.1670  155.7910 N   0  0  0  0  0  1  0  0  0  0  0  0
  161.1350  208.4280  155.1700 C   0  0  0  0  0  0  0  0  0  0  0  0
  159.7430  210.5060  154.9800 N   0  0  0  0  0  0  0  0  0  0  0  0
  159.6720  209.1530  156.8900 O   0  0  0  0  0  0  0  0  0  0  0  0
  161.7240  208.6990  154.0430 N   0  0  0  0  0  0  0  0  0  0  0  0
  160.1600  209.3680  155.7480 C   0  0  0  0  0  0  0  0  0  0  0  0
  161.6070  209.9750  153.3290 C   0  0  1  0  0  3  0  0  0  0  0  0
  156.1700  211.0460  155.6830 C   0  0  0  0  0  3  0  0  0  0  0  0
  155.8130  211.9730  156.5760 C   0  0  0  0  0  0  0  0  0  0  0  0
  158.6520  211.3250  155.4300 C   0  0  2  0  0  3  0  0  0  0  0  0
  157.9160  213.3370  156.7250 C   0  0  0  0  0  0  0  0  0  0  0  0
  158.5850  214.4530  157.1810 O   0  0  0  0  0  0  0  0  0  0  0  0
  157.3290  211.1620  154.7480 C   0  0  0  0  0  2  0  0  0  0  0  0
  159.9950  214.2750  157.1540 C   0  0  0  0  0  3  0  0  0  0  0  0
  160.2400  212.8470  156.6390 C   0  0  0  0  0  3  0  0  0  0  0  0
  158.8830  212.3660  156.2450 C   0  0  0  0  0  0  0  0  0  0  0  0
  154.6170  211.7930  157.2570 O   0  0  0  0  0  1  0  0  0  0  0  0
  156.5970  213.1890  156.8730 C   0  0  0  0  0  2  0  0  0  0  0  0
  161.7560  209.7320  151.8590 C   0  0  0  0  0  3  0  0  0  0  0  0
  161.2700  208.6320  151.3000 C   0  0  0  0  0  3  0  0  0  0  0  0
  161.3950  208.4210  149.9270 O   0  0  0  0  0  0  0  0  0  0  0  0
  162.7320  207.2500  148.2810 C   0  0  0  0  0  1  0  0  0  0  0  0
  162.1990  206.1840  150.4670 C   0  0  0  0  0  2  0  0  0  0  0  0
  160.4310  206.5130  148.8250 C   0  0  0  0  0  2  0  0  0  0  0  0
  161.6950  207.1350  149.3870 C   0  0  0  0  0  0  0  0  0  0  0  0
  160.5150  205.0410  149.1580 C   0  0  0  0  0  2  0  0  0  0  0  0
  161.2830  204.9730  150.4570 C   0  0  0  0  0  2  0  0  0  0  0  0
  1  5  1  0  0  0  0
  2  1  2  0  0  0  0
  4  8  1  0  0  0  0
  4  3  1  0  0  0  0
  5 12  1  0  0  0  0
  5  8  1  0  0  0  0
  7  4  2  0  0  0  0
  8  6  2  0  0  0  0
  9 21  1  6  0  0  0
  9  1  1  0  0  0  0
  9  7  1  0  0  0  0
 10 11  2  0  0  0  0
 11 20  1  0  0  0  0
 11 19  1  0  0  0  0
 12 15  1  6  0  0  0
 12 18  1  0  0  0  0
 13 20  1  0  0  0  0
 13 14  1  0  0  0  0
 15 10  1  0  0  0  0
 16 14  1  0  0  0  0
 17 16  2  0  0  0  0
 18 17  1  0  0  0  0
 18 13  2  0  0  0  0
 22 21  2  0  0  0  0
 23 22  1  0  0  0  0
 24 27  1  0  0  0  0
 26 28  1  0  0  0  0
 26 27  1  0  0  0  0
 27 23  1  0  0  0  0
 27 25  1  0  0  0  0
 28 29  1  0  0  0  0
 29 25  1  0  0  0  0
M  END
>  <MODEL>
7

>  <REMARK>
 VINA RESULT:      -6.3      2.224      3.221
  Name = 
  4 active torsions:
  status: ('A' for Active; 'I' for Inactive)
    1  A    between atoms: C_7  and  N_10
    2  A    between atoms: C_12  and  C_29
    3  A    between atoms: C_13  and  O_18
    4  A    between atoms: O_18  and  C_20
                            x       y       z     vdW  Elec       q    Type
                         _______ _______ _______ _____ _____    ______ ____

>  <TORSDO>
F 4

$$$$
=
 OpenBabel11072413483D

 29 32  0  0  1  0  0  0  0  0999 V2000
  160.1110  211.0880  153.0830 C   0  0  0  0  0  0  0  0  0  0  0  0
  159.3580  210.8930  152.0890 O   0  0  0  0  0  0  0  0  0  0  0  0
  162.2190  210.8430  156.7680 N   0  0  0  0  0  1  0  0  0  0  0  0
  161.6090  211.0480  155.4980 C   0  0  0  0  0  0  0  0  0  0  0  0
  159.6750  211.9270  154.1650 N   0  0  0  0  0  0  0  0  0  0  0  0
  160.1000  212.6690  156.3450 O   0  0  0  0  0  0  0  0  0  0  0  0
  162.0330  210.3720  154.4710 N   0  0  0  0  0  0  0  0  0  0  0  0
  160.4420  211.9360  155.3770 C   0  0  0  0  0  0  0  0  0  0  0  0
  161.5180  210.5240  153.1050 C   0  0  1  0  0  3  0  0  0  0  0  0
  157.3110  214.1650  152.4460 C   0  0  0  0  0  3  0  0  0  0  0  0
  156.0100  214.0830  152.7330 C   0  0  0  0  0  0  0  0  0  0  0  0
  158.4240  212.6280  154.0910 C   0  0  2  0  0  3  0  0  0  0  0  0
  156.0690  212.8400  154.9130 C   0  0  0  0  0  0  0  0  0  0  0  0
  155.4210  212.3580  156.0310 O   0  0  0  0  0  0  0  0  0  0  0  0
  158.4160  213.9730  153.4340 C   0  0  0  0  0  2  0  0  0  0  0  0
  156.1570  211.3210  156.6660 C   0  0  0  0  0  3  0  0  0  0  0  0
  157.4220  211.1070  155.8170 C   0  0  0  0  0  3  0  0  0  0  0  0
  157.3720  212.2070  154.8080 C   0  0  0  0  0  0  0  0  0  0  0  0
  155.1030  214.4500  151.7470 O   0  0  0  0  0  1  0  0  0  0  0  0
  155.4680  213.6480  154.0360 C   0  0  0  0  0  2  0  0  0  0  0  0
  161.6470  209.2190  152.3830 C   0  0  0  0  0  3  0  0  0  0  0  0
  162.3290  209.1360  151.2490 C   0  0  0  0  0  3  0  0  0  0  0  0
  162.4620  207.9130  150.5910 O   0  0  0  0  0  0  0  0  0  0  0  0
  161.7100  209.0230  148.5740 C   0  0  0  0  0  1  0  0  0  0  0  0
  162.8330  206.8040  148.4510 C   0  0  0  0  0  2  0  0  0  0  0  0
  160.5970  206.9710  149.3990 C   0  0  0  0  0  2  0  0  0  0  0  0
  161.9230  207.6970  149.2870 C   0  0  0  0  0  0  0  0  0  0  0  0
  160.5600  206.0010  148.2400 C   0  0  0  0  0  2  0  0  0  0  0  0
  162.0010  205.6160  148.0030 C   0  0  0  0  0  2  0  0  0  0  0  0
  1  9  1  0  0  0  0
  1  5  1  0  0  0  0
  2  1  2  0  0  0  0
  4  3  1  0  0  0  0
  5  8  1  0  0  0  0
  7  4  2  0  0  0  0
  8  4  1  0  0  0  0
  8  6  2  0  0  0  0
  9 21  1  1  0  0  0
  9  7  1  0  0  0  0
 10 11  2  0  0  0  0
 10 15  1  0  0  0  0
 11 20  1  0  0  0  0
 12 15  1  1  0  0  0
 12  5  1  0  0  0  0
 12 18  1  0  0  0  0
 13 14  1  0  0  0  0
 14 16  1  0  0  0  0
 17 16  2  0  0  0  0
 18 13  2  0  0  0  0
 18 17  1  0  0  0  0
 19 11  1  0  0  0  0
 20 13  1  0  0  0  0
 22 21  2  0  0  0  0
 23 22  1  0  0  0  0
 24 27  1  0  0  0  0
 25 27  1  0  0  0  0
 27 26  1  0  0  0  0
 27 23  1  0  0  0  0
 28 26  1  0  0  0  0
 29 28  1  0  0  0  0
 29 25  1  0  0  0  0
M  END
>  <MODEL>
8

>  <REMARK>
 VINA RESULT:      -6.1      2.339      4.233
  Name = 
  4 active torsions:
  status: ('A' for Active; 'I' for Inactive)
    1  A    between atoms: C_7  and  N_10
    2  A    between atoms: C_12  and  C_29
    3  A    between atoms: C_13  and  O_18
    4  A    between atoms: O_18  and  C_20
                            x       y       z     vdW  Elec       q    Type
                         _______ _______ _______ _____ _____    ______ ____

>  <TORSDO>
F 4

$$$$
=
 OpenBabel11072413483D

 29 32  0  0  1  0  0  0  0  0999 V2000
  160.4520  210.4870  153.1750 C   0  0  0  0  0  0  0  0  0  0  0  0
  159.9740  210.0660  152.0850 O   0  0  0  0  0  0  0  0  0  0  0  0
  161.2830  211.3220  157.2610 N   0  0  0  0  0  1  0  0  0  0  0  0
  161.1420  211.1180  155.8590 C   0  0  0  0  0  0  0  0  0  0  0  0
  160.0390  211.7590  153.6990 N   0  0  0  0  0  0  0  0  0  0  0  0
  160.0770  213.2120  155.5350 O   0  0  0  0  0  0  0  0  0  0  0  0
  161.5820  210.0160  155.3280 N   0  0  0  0  0  0  0  0  0  0  0  0
  160.4080  212.0990  155.0430 C   0  0  0  0  0  0  0  0  0  0  0  0
  161.5340  209.7070  153.8940 C   0  0  1  0  0  3  0  0  0  0  0  0
  159.1440  213.6250  150.6550 C   0  0  0  0  0  3  0  0  0  0  0  0
  157.8610  213.9010  150.4120 C   0  0  0  0  0  0  0  0  0  0  0  0
  159.1560  212.6100  152.9510 C   0  0  2  0  0  3  0  0  0  0  0  0
  156.8510  213.5490  152.6840 C   0  0  0  0  0  0  0  0  0  0  0  0
  155.7720  213.6390  153.5380 O   0  0  0  0  0  0  0  0  0  0  0  0
  159.7710  213.5990  152.0110 C   0  0  0  0  0  2  0  0  0  0  0  0
  155.9140  212.7840  154.6650 C   0  0  0  0  0  3  0  0  0  0  0  0
  157.2470  212.0400  154.4780 C   0  0  0  0  0  3  0  0  0  0  0  0
  157.8570  212.6860  153.2770 C   0  0  0  0  0  0  0  0  0  0  0  0
  157.4660  214.0490  149.0890 O   0  0  0  0  0  1  0  0  0  0  0  0
  156.8350  214.0810  151.4590 C   0  0  0  0  0  2  0  0  0  0  0  0
  161.4190  208.2260  153.7130 C   0  0  0  0  0  3  0  0  0  0  0  0
  160.8380  207.7160  152.6360 C   0  0  0  0  0  3  0  0  0  0  0  0
  160.7520  206.3340  152.4650 O   0  0  0  0  0  0  0  0  0  0  0  0
  162.9190  206.1300  151.4020 C   0  0  0  0  0  1  0  0  0  0  0  0
  161.4340  204.1450  151.6360 C   0  0  0  0  0  2  0  0  0  0  0  0
  160.8260  205.9290  150.0950 C   0  0  0  0  0  2  0  0  0  0  0  0
  161.4750  205.6560  151.4380 C   0  0  0  0  0  0  0  0  0  0  0  0
  160.9190  204.6330  149.3220 C   0  0  0  0  0  2  0  0  0  0  0  0
  160.8520  203.5450  150.3680 C   0  0  0  0  0  2  0  0  0  0  0  0
  1  5  1  0  0  0  0
  1  9  1  0  0  0  0
  2  1  2  0  0  0  0
  4  3  1  0  0  0  0
  5  8  1  0  0  0  0
  7  4  2  0  0  0  0
  8  6  2  0  0  0  0
  8  4  1  0  0  0  0
  9 21  1  1  0  0  0
  9  7  1  0  0  0  0
 10 15  1  0  0  0  0
 11 10  2  0  0  0  0
 11 20  1  0  0  0  0
 12 15  1  1  0  0  0
 12 18  1  0  0  0  0
 12  5  1  0  0  0  0
 13 18  2  0  0  0  0
 13 14  1  0  0  0  0
 14 16  1  0  0  0  0
 17 16  2  0  0  0  0
 18 17  1  0  0  0  0
 19 11  1  0  0  0  0
 20 13  1  0  0  0  0
 22 21  2  0  0  0  0
 23 22  1  0  0  0  0
 24 27  1  0  0  0  0
 26 27  1  0  0  0  0
 27 25  1  0  0  0  0
 27 23  1  0  0  0  0
 28 26  1  0  0  0  0
 28 29  1  0  0  0  0
 29 25  1  0  0  0  0
M  END
>  <MODEL>
9

>  <REMARK>
 VINA RESULT:      -6.0      2.725      4.960
  Name = 
  4 active torsions:
  status: ('A' for Active; 'I' for Inactive)
    1  A    between atoms: C_7  and  N_10
    2  A    between atoms: C_12  and  C_29
    3  A    between atoms: C_13  and  O_18
    4  A    between atoms: O_18  and  C_20
                            x       y       z     vdW  Elec       q    Type
                         _______ _______ _______ _____ _____    ______ ____

>  <TORSDO>
F 4

$$$$
