=
 OpenBabel11072411153D

 28 31  0  0  1  0  0  0  0  0999 V2000
  161.0640  203.6660  148.0340 C   0  0  0  0  0  0  0  0  0  0  0  0
  161.3380  204.9340  148.0240 C   0  0  0  0  0  0  0  0  0  0  0  0
  161.6540  203.6300  145.5790 C   0  0  0  0  0  2  0  0  0  0  0  0
  161.5960  206.4780  146.3270 O   0  0  0  0  0  0  0  0  0  0  0  0
  162.4800  205.6900  144.0400 O   0  0  0  0  0  1  0  0  0  0  0  0
  160.5590  204.5510  145.0160 C   0  0  2  0  0  3  0  0  0  0  0  0
  161.6600  206.1440  147.6860 C   0  0  0  0  0  0  0  0  0  0  0  0
  161.0800  205.6430  144.0770 C   0  0  1  0  0  3  0  0  0  0  0  0
  160.5420  206.0300  145.4560 C   0  0  2  0  0  3  0  0  0  0  0  0
  161.1860  202.9550  146.7960 N   0  0  0  0  0  2  0  0  0  0  0  0
  161.6390  201.9640  151.8220 C   0  0  0  0  0  2  0  0  0  0  0  0
  160.6370  203.1080  151.7840 C   0  0  1  0  0  3  0  0  0  0  0  0
  161.1190  201.6050  149.4260 C   0  0  0  0  0  0  0  0  0  0  0  0
  160.8570  203.9530  152.8700 O   0  0  0  0  0  1  0  0  0  0  0  0
  161.4790  201.1140  150.6870 O   0  0  0  0  0  0  0  0  0  0  0  0
  161.1600  200.8330  148.4320 O   0  0  0  0  0  0  0  0  0  0  0  0
  160.5590  203.0000  149.2740 C   0  0  1  0  0  3  0  0  0  0  0  0
  160.8500  203.8800  150.4910 C   0  0  0  0  0  2  0  0  0  0  0  0
  163.2030  207.7990  148.3510 O   0  0  0  0  0  0  0  0  0  0  0  0
  162.2050  207.0950  148.6640 C   0  0  0  0  0  0  0  0  0  0  0  0
  161.6060  207.2210  149.9640 N   0  0  0  0  0  2  0  0  0  0  0  0
  161.4030  207.7860  152.3490 C   0  0  0  0  0  2  0  0  0  0  0  0
  161.6550  209.5240  150.7560 C   0  0  0  0  0  0  0  0  0  0  0  0
  160.9110  209.0980  152.9650 C   0  0  1  0  0  3  0  0  0  0  0  0
  161.9400  210.1210  149.7310 O   0  0  0  0  0  0  0  0  0  0  0  0
  161.7950  209.4960  153.9670 O   0  0  0  0  0  1  0  0  0  0  0  0
  162.0600  208.1240  151.0200 C   0  0  2  0  0  3  0  0  0  0  0  0
  160.8960  210.1480  151.8620 C   0  0  0  0  0  2  0  0  0  0  0  0
  2  1  2  0  0  0  0
  3 10  1  0  0  0  0
  4  7  1  0  0  0  0
  6  9  1  0  0  0  0
  6  3  1  1  0  0  0
  7  2  2  0  0  0  0
  7 20  1  0  0  0  0
  8  5  1  1  0  0  0
  8  6  1  0  0  0  0
  8  9  1  0  0  0  0
  9  4  1  1  0  0  0
 10  1  1  0  0  0  0
 12 11  1  0  0  0  0
 12 14  1  1  0  0  0
 13 15  1  0  0  0  0
 15 11  1  0  0  0  0
 16 13  2  0  0  0  0
 17  1  1  6  0  0  0
 17 13  1  0  0  0  0
 17 18  1  0  0  0  0
 18 12  1  0  0  0  0
 19 20  2  0  0  0  0
 20 21  1  0  0  0  0
 22 24  1  0  0  0  0
 23 27  1  0  0  0  0
 23 28  1  0  0  0  0
 24 26  1  1  0  0  0
 25 23  2  0  0  0  0
 27 21  1  6  0  0  0
 27 22  1  0  0  0  0
 28 24  1  0  0  0  0
M  END
>  <MODEL>
1

>  <REMARK>
 VINA RESULT:      -8.3      0.000      0.000
  Name = 
  3 active torsions:
  status: ('A' for Active; 'I' for Inactive)
    1  A    between atoms: C_4  and  C_26
    2  A    between atoms: C_6  and  C_18
    3  A    between atoms: N_7  and  C_24
                            x       y       z     vdW  Elec       q    Type
                         _______ _______ _______ _____ _____    ______ ____

>  <TORSDO>
F 3

$$$$
=
 OpenBabel11072411153D

 28 31  0  0  1  0  0  0  0  0999 V2000
  159.7870  210.7700  153.8210 C   0  0  0  0  0  0  0  0  0  0  0  0
  160.3380  209.6350  153.5220 C   0  0  0  0  0  0  0  0  0  0  0  0
  160.7390  210.4960  156.1440 C   0  0  0  0  0  2  0  0  0  0  0  0
  161.2060  207.9180  154.7980 O   0  0  0  0  0  0  0  0  0  0  0  0
  162.2430  208.4630  157.0920 O   0  0  0  0  0  1  0  0  0  0  0  0
  159.9840  209.2390  156.6070 C   0  0  2  0  0  3  0  0  0  0  0  0
  160.9740  208.5060  153.5470 C   0  0  0  0  0  0  0  0  0  0  0  0
  160.8810  208.1580  157.2190 C   0  0  1  0  0  3  0  0  0  0  0  0
  160.2310  207.9130  155.8560 C   0  0  2  0  0  3  0  0  0  0  0  0
  159.9420  211.2450  155.1640 N   0  0  0  0  0  2  0  0  0  0  0  0
  158.1410  214.2870  152.2410 C   0  0  0  0  0  2  0  0  0  0  0  0
  158.9680  213.4740  151.2570 C   0  0  1  0  0  3  0  0  0  0  0  0
  157.7600  212.1690  153.4670 C   0  0  0  0  0  0  0  0  0  0  0  0
  159.7920  214.3280  150.5260 O   0  0  0  0  0  1  0  0  0  0  0  0
  157.3310  213.4330  153.0470 O   0  0  0  0  0  0  0  0  0  0  0  0
  157.0730  211.5380  154.3140 O   0  0  0  0  0  0  0  0  0  0  0  0
  158.9540  211.5060  152.8210 C   0  0  1  0  0  3  0  0  0  0  0  0
  159.8250  212.5000  152.0510 C   0  0  0  0  0  2  0  0  0  0  0  0
  162.3230  208.6270  151.6160 O   0  0  0  0  0  0  0  0  0  0  0  0
  161.5570  207.9250  152.3300 C   0  0  0  0  0  0  0  0  0  0  0  0
  161.2570  206.5700  151.9590 N   0  0  0  0  0  2  0  0  0  0  0  0
  161.0690  206.3710  149.5140 C   0  0  0  0  0  2  0  0  0  0  0  0
  161.4840  204.4310  150.8140 C   0  0  0  0  0  0  0  0  0  0  0  0
  160.6780  205.1360  148.7010 C   0  0  1  0  0  3  0  0  0  0  0  0
  161.8310  203.7070  151.7320 O   0  0  0  0  0  0  0  0  0  0  0  0
  161.5770  204.9740  147.6470 O   0  0  0  0  0  1  0  0  0  0  0  0
  161.7690  205.8840  150.7730 C   0  0  2  0  0  3  0  0  0  0  0  0
  160.7640  203.9280  149.6240 C   0  0  0  0  0  2  0  0  0  0  0  0
  1 10  1  0  0  0  0
  2  7  2  0  0  0  0
  2  1  2  0  0  0  0
  6  3  1  6  0  0  0
  6  8  1  0  0  0  0
  7  4  1  0  0  0  0
  8  5  1  6  0  0  0
  9  4  1  6  0  0  0
  9  6  1  0  0  0  0
  9  8  1  0  0  0  0
 10  3  1  0  0  0  0
 11 15  1  0  0  0  0
 12 14  1  1  0  0  0
 12 18  1  0  0  0  0
 12 11  1  0  0  0  0
 13 16  2  0  0  0  0
 15 13  1  0  0  0  0
 17 13  1  0  0  0  0
 17  1  1  1  0  0  0
 18 17  1  0  0  0  0
 19 20  2  0  0  0  0
 20  7  1  0  0  0  0
 21 20  1  0  0  0  0
 22 27  1  0  0  0  0
 23 25  2  0  0  0  0
 24 26  1  6  0  0  0
 24 22  1  0  0  0  0
 24 28  1  0  0  0  0
 27 23  1  0  0  0  0
 27 21  1  1  0  0  0
 28 23  1  0  0  0  0
M  END
>  <MODEL>
2

>  <REMARK>
 VINA RESULT:      -7.9      3.299      9.390
  Name = 
  3 active torsions:
  status: ('A' for Active; 'I' for Inactive)
    1  A    between atoms: C_4  and  C_26
    2  A    between atoms: C_6  and  C_18
    3  A    between atoms: N_7  and  C_24
                            x       y       z     vdW  Elec       q    Type
                         _______ _______ _______ _____ _____    ______ ____

>  <TORSDO>
F 3

$$$$
=
 OpenBabel11072411153D

 28 31  0  0  1  0  0  0  0  0999 V2000
  161.3490  207.2460  151.7550 C   0  0  0  0  0  0  0  0  0  0  0  0
  161.6320  208.3760  151.1860 C   0  0  0  0  0  0  0  0  0  0  0  0
  160.3210  208.5770  153.6400 C   0  0  0  0  0  2  0  0  0  0  0  0
  161.7080  210.5540  151.9520 O   0  0  0  0  0  0  0  0  0  0  0  0
  160.1400  211.2630  153.8690 O   0  0  0  0  0  1  0  0  0  0  0  0
  161.5640  209.3080  154.1740 C   0  0  2  0  0  3  0  0  0  0  0  0
  161.7830  209.6320  150.8990 C   0  0  0  0  0  0  0  0  0  0  0  0
  161.3700  210.8150  154.3690 C   0  0  1  0  0  3  0  0  0  0  0  0
  162.2830  210.3130  153.2490 C   0  0  2  0  0  3  0  0  0  0  0  0
  160.6980  207.2960  153.0320 N   0  0  0  0  0  2  0  0  0  0  0  0
  160.5030  203.5920  149.8830 C   0  0  0  0  0  2  0  0  0  0  0  0
  161.4490  204.4990  149.1100 C   0  0  1  0  0  3  0  0  0  0  0  0
  161.2610  204.7660  151.9280 C   0  0  0  0  0  0  0  0  0  0  0  0
  161.0890  204.5060  147.7640 O   0  0  0  0  0  1  0  0  0  0  0  0
  160.8080  203.6130  151.2760 O   0  0  0  0  0  0  0  0  0  0  0  0
  161.3490  204.7650  153.1850 O   0  0  0  0  0  0  0  0  0  0  0  0
  161.7660  205.9500  151.1380 C   0  0  1  0  0  3  0  0  0  0  0  0
  161.3220  205.9060  149.6750 C   0  0  0  0  0  2  0  0  0  0  0  0
  162.0360  209.2480  148.5860 O   0  0  0  0  0  0  0  0  0  0  0  0
  161.8900  210.0940  149.5080 C   0  0  0  0  0  0  0  0  0  0  0  0
  161.8260  211.4970  149.2050 N   0  0  0  0  0  2  0  0  0  0  0  0
  163.0260  213.1260  147.8050 C   0  0  0  0  0  2  0  0  0  0  0  0
  160.6950  212.8150  147.4960 C   0  0  0  0  0  0  0  0  0  0  0  0
  162.4520  214.3510  147.0890 C   0  0  1  0  0  3  0  0  0  0  0  0
  159.5840  212.3090  147.5040 O   0  0  0  0  0  0  0  0  0  0  0  0
  162.9160  214.3760  145.7750 O   0  0  0  0  0  1  0  0  0  0  0  0
  161.9260  212.0780  147.8660 C   0  0  2  0  0  3  0  0  0  0  0  0
  160.9360  214.2150  147.0850 C   0  0  0  0  0  2  0  0  0  0  0  0
  1 10  1  0  0  0  0
  2  1  2  0  0  0  0
  6  3  1  6  0  0  0
  6  8  1  0  0  0  0
  7  2  2  0  0  0  0
  7  4  1  0  0  0  0
  8  5  1  6  0  0  0
  9  4  1  6  0  0  0
  9  6  1  0  0  0  0
  9  8  1  0  0  0  0
 10  3  1  0  0  0  0
 11 15  1  0  0  0  0
 12 14  1  6  0  0  0
 12 18  1  0  0  0  0
 12 11  1  0  0  0  0
 13 16  2  0  0  0  0
 15 13  1  0  0  0  0
 17  1  1  1  0  0  0
 17 13  1  0  0  0  0
 18 17  1  0  0  0  0
 19 20  2  0  0  0  0
 20  7  1  0  0  0  0
 21 20  1  0  0  0  0
 22 27  1  0  0  0  0
 23 25  2  0  0  0  0
 23 27  1  0  0  0  0
 24 26  1  6  0  0  0
 24 22  1  0  0  0  0
 27 21  1  1  0  0  0
 28 24  1  0  0  0  0
 28 23  1  0  0  0  0
M  END
>  <MODEL>
3

>  <REMARK>
 VINA RESULT:      -7.4      3.070      6.523
  Name = 
  3 active torsions:
  status: ('A' for Active; 'I' for Inactive)
    1  A    between atoms: C_4  and  C_26
    2  A    between atoms: C_6  and  C_18
    3  A    between atoms: N_7  and  C_24
                            x       y       z     vdW  Elec       q    Type
                         _______ _______ _______ _____ _____    ______ ____

>  <TORSDO>
F 3

$$$$
=
 OpenBabel11072411153D

 28 31  0  0  1  0  0  0  0  0999 V2000
  159.6430  211.1880  154.6770 C   0  0  0  0  0  0  0  0  0  0  0  0
  160.2150  210.9290  153.5420 C   0  0  0  0  0  0  0  0  0  0  0  0
  157.9450  212.5430  153.3880 C   0  0  0  0  0  2  0  0  0  0  0  0
  160.0530  211.8760  151.4420 O   0  0  0  0  0  0  0  0  0  0  0  0
  157.8270  212.9510  150.7200 O   0  0  0  0  0  1  0  0  0  0  0  0
  158.8470  213.6510  152.8200 C   0  0  2  0  0  3  0  0  0  0  0  0
  160.5480  210.8760  152.2900 C   0  0  0  0  0  0  0  0  0  0  0  0
  158.6680  213.8980  151.3190 C   0  0  1  0  0  3  0  0  0  0  0  0
  159.9620  213.2590  151.8270 C   0  0  2  0  0  3  0  0  0  0  0  0
  158.4870  212.0350  154.6540 N   0  0  0  0  0  2  0  0  0  0  0  0
  162.3480  208.8390  156.8540 C   0  0  0  0  0  2  0  0  0  0  0  0
  162.3940  210.3260  157.1750 C   0  0  1  0  0  3  0  0  0  0  0  0
  160.0060  209.2040  156.1320 C   0  0  0  0  0  0  0  0  0  0  0  0
  163.7220  210.7410  157.2600 O   0  0  0  0  0  1  0  0  0  0  0  0
  161.0000  208.3980  156.7000 O   0  0  0  0  0  0  0  0  0  0  0  0
  158.8830  208.6980  155.8680 O   0  0  0  0  0  0  0  0  0  0  0  0
  160.2230  210.6880  155.9610 C   0  0  1  0  0  3  0  0  0  0  0  0
  161.7010  211.0740  156.0470 C   0  0  0  0  0  2  0  0  0  0  0  0
  162.3300  209.9560  151.0490 O   0  0  0  0  0  0  0  0  0  0  0  0
  161.3010  209.7380  151.7440 C   0  0  0  0  0  0  0  0  0  0  0  0
  160.8690  208.3930  152.0030 N   0  0  0  0  0  2  0  0  0  0  0  0
  160.8180  206.6310  150.2860 C   0  0  0  0  0  2  0  0  0  0  0  0
  161.4640  206.0830  152.5010 C   0  0  0  0  0  0  0  0  0  0  0  0
  160.6520  205.1240  150.4930 C   0  0  1  0  0  3  0  0  0  0  0  0
  161.8770  206.1870  153.6440 O   0  0  0  0  0  0  0  0  0  0  0  0
  161.6100  204.4480  149.7370 O   0  0  0  0  0  1  0  0  0  0  0  0
  161.5290  207.1840  151.5110 C   0  0  2  0  0  3  0  0  0  0  0  0
  160.8800  204.8330  151.9690 C   0  0  0  0  0  2  0  0  0  0  0  0
  2  1  2  0  0  0  0
  3 10  1  0  0  0  0
  4  7  1  0  0  0  0
  6  3  1  6  0  0  0
  7  2  2  0  0  0  0
  8  5  1  6  0  0  0
  8  9  1  0  0  0  0
  8  6  1  0  0  0  0
  9  4  1  6  0  0  0
  9  6  1  0  0  0  0
 10  1  1  0  0  0  0
 11 12  1  0  0  0  0
 12 14  1  6  0  0  0
 13 15  1  0  0  0  0
 15 11  1  0  0  0  0
 16 13  2  0  0  0  0
 17  1  1  6  0  0  0
 17 18  1  0  0  0  0
 17 13  1  0  0  0  0
 18 12  1  0  0  0  0
 19 20  2  0  0  0  0
 20 21  1  0  0  0  0
 20  7  1  0  0  0  0
 22 24  1  0  0  0  0
 22 27  1  0  0  0  0
 23 25  2  0  0  0  0
 24 26  1  6  0  0  0
 24 28  1  0  0  0  0
 27 21  1  1  0  0  0
 27 23  1  0  0  0  0
 28 23  1  0  0  0  0
M  END
>  <MODEL>
4

>  <REMARK>
 VINA RESULT:      -6.9      3.578      8.410
  Name = 
  3 active torsions:
  status: ('A' for Active; 'I' for Inactive)
    1  A    between atoms: C_4  and  C_26
    2  A    between atoms: C_6  and  C_18
    3  A    between atoms: N_7  and  C_24
                            x       y       z     vdW  Elec       q    Type
                         _______ _______ _______ _____ _____    ______ ____

>  <TORSDO>
F 3

$$$$
=
 OpenBabel11072411153D

 28 31  0  0  1  0  0  0  0  0999 V2000
  160.9870  211.0590  151.7470 C   0  0  0  0  0  0  0  0  0  0  0  0
  161.4790  210.3270  150.7950 C   0  0  0  0  0  0  0  0  0  0  0  0
  160.0780  212.5870  149.9530 C   0  0  0  0  0  2  0  0  0  0  0  0
  161.8580  210.7060  148.5490 O   0  0  0  0  0  0  0  0  0  0  0  0
  160.3150  212.3280  147.2750 O   0  0  0  0  0  1  0  0  0  0  0  0
  161.3890  213.0900  149.3260 C   0  0  2  0  0  3  0  0  0  0  0  0
  161.8450  209.8400  149.6510 C   0  0  0  0  0  0  0  0  0  0  0  0
  161.4270  213.0020  147.7970 C   0  0  1  0  0  3  0  0  0  0  0  0
  162.3110  212.0690  148.6260 C   0  0  2  0  0  3  0  0  0  0  0  0
  160.2800  212.2460  151.3660 N   0  0  0  0  0  2  0  0  0  0  0  0
  159.8230  209.3410  155.3890 C   0  0  0  0  0  2  0  0  0  0  0  0
  161.1400  208.8220  154.8330 C   0  0  1  0  0  3  0  0  0  0  0  0
  160.2450  211.4100  154.0950 C   0  0  0  0  0  0  0  0  0  0  0  0
  161.1840  207.4350  154.9620 O   0  0  0  0  0  1  0  0  0  0  0  0
  159.7220  210.7530  155.2140 O   0  0  0  0  0  0  0  0  0  0  0  0
  159.9750  212.6280  153.9170 O   0  0  0  0  0  0  0  0  0  0  0  0
  161.2260  210.7150  153.1820 C   0  0  1  0  0  3  0  0  0  0  0  0
  161.2110  209.1960  153.3600 C   0  0  0  0  0  2  0  0  0  0  0  0
  162.6610  208.0020  148.4180 O   0  0  0  0  0  0  0  0  0  0  0  0
  162.1040  208.4040  149.4750 C   0  0  0  0  0  0  0  0  0  0  0  0
  161.7280  207.4700  150.5000 N   0  0  0  0  0  2  0  0  0  0  0  0
  160.7700  205.3390  149.7290 C   0  0  0  0  0  2  0  0  0  0  0  0
  161.9420  205.4130  151.7890 C   0  0  0  0  0  0  0  0  0  0  0  0
  160.3590  204.1330  150.5770 C   0  0  1  0  0  3  0  0  0  0  0  0
  162.7030  205.7680  152.6750 O   0  0  0  0  0  0  0  0  0  0  0  0
  160.8660  202.9700  149.9990 O   0  0  0  0  0  1  0  0  0  0  0  0
  161.9280  206.0220  150.4390 C   0  0  2  0  0  3  0  0  0  0  0  0
  160.9680  204.3130  151.9610 C   0  0  0  0  0  2  0  0  0  0  0  0
  2  1  2  0  0  0  0
  3 10  1  0  0  0  0
  4  7  1  0  0  0  0
  6  3  1  1  0  0  0
  7  2  2  0  0  0  0
  8  5  1  1  0  0  0
  8  9  1  0  0  0  0
  8  6  1  0  0  0  0
  9  4  1  1  0  0  0
  9  6  1  0  0  0  0
 10  1  1  0  0  0  0
 12 14  1  6  0  0  0
 12 11  1  0  0  0  0
 13 15  1  0  0  0  0
 15 11  1  0  0  0  0
 16 13  2  0  0  0  0
 17  1  1  6  0  0  0
 17 18  1  0  0  0  0
 17 13  1  0  0  0  0
 18 12  1  0  0  0  0
 19 20  2  0  0  0  0
 20  7  1  0  0  0  0
 20 21  1  0  0  0  0
 22 27  1  0  0  0  0
 22 24  1  0  0  0  0
 23 28  1  0  0  0  0
 23 25  2  0  0  0  0
 24 26  1  6  0  0  0
 24 28  1  0  0  0  0
 27 21  1  1  0  0  0
 27 23  1  0  0  0  0
M  END
>  <MODEL>
5

>  <REMARK>
 VINA RESULT:      -6.7      2.875      7.228
  Name = 
  3 active torsions:
  status: ('A' for Active; 'I' for Inactive)
    1  A    between atoms: C_4  and  C_26
    2  A    between atoms: C_6  and  C_18
    3  A    between atoms: N_7  and  C_24
                            x       y       z     vdW  Elec       q    Type
                         _______ _______ _______ _____ _____    ______ ____

>  <TORSDO>
F 3

$$$$
=
 OpenBabel11072411153D

 28 31  0  0  1  0  0  0  0  0999 V2000
  161.2560  208.0850  152.7560 C   0  0  0  0  0  0  0  0  0  0  0  0
  161.0490  209.3530  152.5790 C   0  0  0  0  0  0  0  0  0  0  0  0
  160.5140  208.4090  155.1490 C   0  0  0  0  0  2  0  0  0  0  0  0
  160.7690  211.1240  154.0340 O   0  0  0  0  0  0  0  0  0  0  0  0
  159.7050  210.6950  156.3390 O   0  0  0  0  0  1  0  0  0  0  0  0
  161.6200  209.3490  155.6570 C   0  0  2  0  0  3  0  0  0  0  0  0
  160.7710  210.6100  152.7300 C   0  0  0  0  0  0  0  0  0  0  0  0
  161.1000  210.5820  156.4040 C   0  0  1  0  0  3  0  0  0  0  0  0
  161.7420  210.7530  155.0260 C   0  0  2  0  0  3  0  0  0  0  0  0
  161.0210  207.5550  154.0670 N   0  0  0  0  0  2  0  0  0  0  0  0
  160.7990  205.7780  149.2860 C   0  0  0  0  0  2  0  0  0  0  0  0
  161.7830  206.9310  149.1590 C   0  0  1  0  0  3  0  0  0  0  0  0
  161.2630  205.8240  151.7180 C   0  0  0  0  0  0  0  0  0  0  0  0
  161.5800  207.5830  147.9440 O   0  0  0  0  0  1  0  0  0  0  0  0
  160.9420  205.1280  150.5470 O   0  0  0  0  0  0  0  0  0  0  0  0
  161.2070  205.2230  152.8240 O   0  0  0  0  0  0  0  0  0  0  0  0
  161.8000  207.2340  151.6540 C   0  0  1  0  0  3  0  0  0  0  0  0
  161.5280  207.8990  150.3030 C   0  0  0  0  0  2  0  0  0  0  0  0
  159.2450  212.0650  151.6730 O   0  0  0  0  0  0  0  0  0  0  0  0
  160.3380  211.4420  151.5980 C   0  0  0  0  0  0  0  0  0  0  0  0
  161.1540  211.5450  150.4210 N   0  0  0  0  0  2  0  0  0  0  0  0
  161.6280  211.8630  148.0280 C   0  0  0  0  0  2  0  0  0  0  0  0
  161.2140  213.7550  149.3960 C   0  0  0  0  0  0  0  0  0  0  0  0
  162.1970  213.1060  147.3410 C   0  0  1  0  0  3  0  0  0  0  0  0
  160.8200  214.4530  150.3170 O   0  0  0  0  0  0  0  0  0  0  0  0
  161.4350  213.3970  146.2090 O   0  0  0  0  0  1  0  0  0  0  0  0
  160.8290  212.3340  149.2330 C   0  0  2  0  0  3  0  0  0  0  0  0
  162.0970  214.2640  148.3240 C   0  0  0  0  0  2  0  0  0  0  0  0
  1 10  1  0  0  0  0
  2  7  2  0  0  0  0
  2  1  2  0  0  0  0
  6  3  1  6  0  0  0
  6  8  1  0  0  0  0
  7  4  1  0  0  0  0
  8  5  1  6  0  0  0
  9  4  1  6  0  0  0
  9  6  1  0  0  0  0
  9  8  1  0  0  0  0
 10  3  1  0  0  0  0
 11 15  1  0  0  0  0
 12 14  1  6  0  0  0
 12 11  1  0  0  0  0
 12 18  1  0  0  0  0
 13 16  2  0  0  0  0
 15 13  1  0  0  0  0
 17 13  1  0  0  0  0
 17  1  1  1  0  0  0
 18 17  1  0  0  0  0
 20 19  2  0  0  0  0
 20  7  1  0  0  0  0
 21 20  1  0  0  0  0
 22 27  1  0  0  0  0
 23 25  2  0  0  0  0
 24 26  1  6  0  0  0
 24 22  1  0  0  0  0
 24 28  1  0  0  0  0
 27 23  1  0  0  0  0
 27 21  1  1  0  0  0
 28 23  1  0  0  0  0
M  END
>  <MODEL>
6

>  <REMARK>
 VINA RESULT:      -6.6      3.399      7.474
  Name = 
  3 active torsions:
  status: ('A' for Active; 'I' for Inactive)
    1  A    between atoms: C_4  and  C_26
    2  A    between atoms: C_6  and  C_18
    3  A    between atoms: N_7  and  C_24
                            x       y       z     vdW  Elec       q    Type
                         _______ _______ _______ _____ _____    ______ ____

>  <TORSDO>
F 3

$$$$
=
 OpenBabel11072411153D

 28 31  0  0  1  0  0  0  0  0999 V2000
  161.3350  206.3350  151.5940 C   0  0  0  0  0  0  0  0  0  0  0  0
  161.6320  207.1090  150.5970 C   0  0  0  0  0  0  0  0  0  0  0  0
  160.4560  208.3840  152.7810 C   0  0  0  0  0  2  0  0  0  0  0  0
  161.8320  209.4000  150.3820 O   0  0  0  0  0  0  0  0  0  0  0  0
  160.3920  210.9280  151.8740 O   0  0  0  0  0  1  0  0  0  0  0  0
  161.7520  209.1990  152.9250 C   0  0  2  0  0  3  0  0  0  0  0  0
  161.8170  208.1210  149.8080 C   0  0  0  0  0  0  0  0  0  0  0  0
  161.6270  210.6590  152.4790 C   0  0  1  0  0  3  0  0  0  0  0  0
  162.4620  209.6870  151.6430 C   0  0  2  0  0  3  0  0  0  0  0  0
  160.7510  206.9470  152.7510 N   0  0  0  0  0  2  0  0  0  0  0  0
  160.2760  202.2990  151.1870 C   0  0  0  0  0  2  0  0  0  0  0  0
  161.3500  202.7760  150.2200 C   0  0  1  0  0  3  0  0  0  0  0  0
  161.0060  204.1270  152.6910 C   0  0  0  0  0  0  0  0  0  0  0  0
  161.0810  202.2810  148.9460 O   0  0  0  0  0  1  0  0  0  0  0  0
  160.4910  202.8410  152.4880 O   0  0  0  0  0  0  0  0  0  0  0  0
  161.0120  204.6090  153.8550 O   0  0  0  0  0  0  0  0  0  0  0  0
  161.6690  204.8780  151.5610 C   0  0  1  0  0  3  0  0  0  0  0  0
  161.3180  204.2960  150.1910 C   0  0  0  0  0  2  0  0  0  0  0  0
  161.7670  208.9740  147.6090 O   0  0  0  0  0  0  0  0  0  0  0  0
  161.8710  207.9580  148.3480 C   0  0  0  0  0  0  0  0  0  0  0  0
  162.0440  206.6540  147.7720 N   0  0  0  0  0  2  0  0  0  0  0  0
  160.7140  206.2380  145.7440 C   0  0  0  0  0  2  0  0  0  0  0  0
  162.7400  205.0520  146.0740 C   0  0  0  0  0  0  0  0  0  0  0  0
  160.7000  204.9800  144.8730 C   0  0  1  0  0  3  0  0  0  0  0  0
  163.8550  204.7530  146.4730 O   0  0  0  0  0  0  0  0  0  0  0  0
  160.7960  205.3480  143.5310 O   0  0  0  0  0  1  0  0  0  0  0  0
  162.1070  206.3640  146.3400 C   0  0  2  0  0  3  0  0  0  0  0  0
  161.9130  204.1420  145.2520 C   0  0  0  0  0  2  0  0  0  0  0  0
  1 10  1  0  0  0  0
  2  1  2  0  0  0  0
  6  3  1  6  0  0  0
  7  4  1  0  0  0  0
  7  2  2  0  0  0  0
  8  5  1  6  0  0  0
  8  6  1  0  0  0  0
  9  4  1  6  0  0  0
  9  8  1  0  0  0  0
  9  6  1  0  0  0  0
 10  3  1  0  0  0  0
 11 15  1  0  0  0  0
 12 14  1  6  0  0  0
 12 11  1  0  0  0  0
 13 16  2  0  0  0  0
 15 13  1  0  0  0  0
 17  1  1  6  0  0  0
 17 13  1  0  0  0  0
 18 12  1  0  0  0  0
 18 17  1  0  0  0  0
 19 20  2  0  0  0  0
 20  7  1  0  0  0  0
 21 20  1  0  0  0  0
 22 27  1  0  0  0  0
 23 27  1  0  0  0  0
 23 25  2  0  0  0  0
 24 26  1  6  0  0  0
 24 28  1  0  0  0  0
 24 22  1  0  0  0  0
 27 21  1  1  0  0  0
 28 23  1  0  0  0  0
M  END
>  <MODEL>
7

>  <REMARK>
 VINA RESULT:      -6.6      1.717      6.219
  Name = 
  3 active torsions:
  status: ('A' for Active; 'I' for Inactive)
    1  A    between atoms: C_4  and  C_26
    2  A    between atoms: C_6  and  C_18
    3  A    between atoms: N_7  and  C_24
                            x       y       z     vdW  Elec       q    Type
                         _______ _______ _______ _____ _____    ______ ____

>  <TORSDO>
F 3

$$$$
=
 OpenBabel11072411153D

 28 31  0  0  1  0  0  0  0  0999 V2000
  160.0760  212.1320  152.0680 C   0  0  0  0  0  0  0  0  0  0  0  0
  160.8300  211.4200  151.2910 C   0  0  0  0  0  0  0  0  0  0  0  0
  159.2690  213.3350  149.9990 C   0  0  0  0  0  2  0  0  0  0  0  0
  161.5300  211.6730  149.1050 O   0  0  0  0  0  0  0  0  0  0  0  0
  160.0030  212.9040  147.4360 O   0  0  0  0  0  1  0  0  0  0  0  0
  160.5760  214.0000  149.5360 C   0  0  2  0  0  3  0  0  0  0  0  0
  161.4590  210.9100  150.2780 C   0  0  0  0  0  0  0  0  0  0  0  0
  160.8920  213.7960  148.0510 C   0  0  1  0  0  3  0  0  0  0  0  0
  161.7500  213.0950  149.1060 C   0  0  2  0  0  3  0  0  0  0  0  0
  159.2720  213.1490  151.4550 N   0  0  0  0  0  2  0  0  0  0  0  0
  159.7870  209.7720  155.5210 C   0  0  0  0  0  2  0  0  0  0  0  0
  161.0980  210.5300  155.3760 C   0  0  1  0  0  3  0  0  0  0  0  0
  158.7690  211.5250  154.0960 C   0  0  0  0  0  0  0  0  0  0  0  0
  162.1590  209.6870  155.7000 O   0  0  0  0  0  1  0  0  0  0  0  0
  158.6840  210.5910  155.1360 O   0  0  0  0  0  0  0  0  0  0  0  0
  157.7190  212.0930  153.6940 O   0  0  0  0  0  0  0  0  0  0  0  0
  160.1120  211.9510  153.5520 C   0  0  1  0  0  3  0  0  0  0  0  0
  161.2280  210.9750  153.9270 C   0  0  0  0  0  2  0  0  0  0  0  0
  162.6410  209.1360  151.2880 O   0  0  0  0  0  0  0  0  0  0  0  0
  161.9610  209.5290  150.3020 C   0  0  0  0  0  0  0  0  0  0  0  0
  161.6760  208.6360  149.2130 N   0  0  0  0  0  2  0  0  0  0  0  0
  162.1290  206.7690  147.6760 C   0  0  0  0  0  2  0  0  0  0  0  0
  161.1900  206.3240  149.8070 C   0  0  0  0  0  0  0  0  0  0  0  0
  161.4560  205.3950  147.6450 C   0  0  1  0  0  3  0  0  0  0  0  0
  160.8760  206.4420  150.9810 O   0  0  0  0  0  0  0  0  0  0  0  0
  162.4340  204.4060  147.5480 O   0  0  0  0  0  1  0  0  0  0  0  0
  162.1230  207.2470  149.1200 C   0  0  2  0  0  3  0  0  0  0  0  0
  160.6960  205.2230  148.9520 C   0  0  0  0  0  2  0  0  0  0  0  0
  2  1  2  0  0  0  0
  3 10  1  0  0  0  0
  4  7  1  0  0  0  0
  6  3  1  6  0  0  0
  7 20  1  0  0  0  0
  7  2  2  0  0  0  0
  8  5  1  6  0  0  0
  8  9  1  0  0  0  0
  8  6  1  0  0  0  0
  9  4  1  6  0  0  0
  9  6  1  0  0  0  0
 10  1  1  0  0  0  0
 12 11  1  0  0  0  0
 12 14  1  6  0  0  0
 13 15  1  0  0  0  0
 15 11  1  0  0  0  0
 16 13  2  0  0  0  0
 17  1  1  6  0  0  0
 17 18  1  0  0  0  0
 17 13  1  0  0  0  0
 18 12  1  0  0  0  0
 20 19  2  0  0  0  0
 21 20  1  0  0  0  0
 22 27  1  0  0  0  0
 23 25  2  0  0  0  0
 24 26  1  1  0  0  0
 24 22  1  0  0  0  0
 24 28  1  0  0  0  0
 27 21  1  6  0  0  0
 27 23  1  0  0  0  0
 28 23  1  0  0  0  0
M  END
>  <MODEL>
8

>  <REMARK>
 VINA RESULT:      -6.5      3.022      7.929
  Name = 
  3 active torsions:
  status: ('A' for Active; 'I' for Inactive)
    1  A    between atoms: C_4  and  C_26
    2  A    between atoms: C_6  and  C_18
    3  A    between atoms: N_7  and  C_24
                            x       y       z     vdW  Elec       q    Type
                         _______ _______ _______ _____ _____    ______ ____

>  <TORSDO>
F 3

$$$$
=
 OpenBabel11072411153D

 28 31  0  0  1  0  0  0  0  0999 V2000
  161.5510  209.5700  151.5040 C   0  0  0  0  0  0  0  0  0  0  0  0
  161.7740  209.1100  150.3120 C   0  0  0  0  0  0  0  0  0  0  0  0
  160.7780  211.7130  150.4120 C   0  0  0  0  0  2  0  0  0  0  0  0
  161.9700  210.1160  148.2430 O   0  0  0  0  0  0  0  0  0  0  0  0
  160.6580  212.2820  147.7750 O   0  0  0  0  0  1  0  0  0  0  0  0
  162.0860  212.1740  149.7470 C   0  0  2  0  0  3  0  0  0  0  0  0
  161.9030  208.9590  149.0310 C   0  0  0  0  0  0  0  0  0  0  0  0
  161.9350  212.5700  148.2750 C   0  0  1  0  0  3  0  0  0  0  0  0
  162.6970  211.2940  148.6360 C   0  0  2  0  0  3  0  0  0  0  0  0
  161.0620  210.9140  151.6100 N   0  0  0  0  0  2  0  0  0  0  0  0
  160.4550  207.0890  154.7000 C   0  0  0  0  0  2  0  0  0  0  0  0
  161.5110  206.5050  153.7740 C   0  0  1  0  0  3  0  0  0  0  0  0
  161.2300  209.3220  153.9580 C   0  0  0  0  0  0  0  0  0  0  0  0
  161.2100  205.1700  153.5110 O   0  0  0  0  0  1  0  0  0  0  0  0
  160.7010  208.4740  154.9380 O   0  0  0  0  0  0  0  0  0  0  0  0
  161.2640  210.5630  154.1740 O   0  0  0  0  0  0  0  0  0  0  0  0
  161.8740  208.7550  152.7150 C   0  0  1  0  0  3  0  0  0  0  0  0
  161.4890  207.2950  152.4740 C   0  0  0  0  0  2  0  0  0  0  0  0
  162.8850  207.1460  147.8860 O   0  0  0  0  0  0  0  0  0  0  0  0
  161.8440  207.6310  148.4040 C   0  0  0  0  0  0  0  0  0  0  0  0
  160.6110  206.8940  148.3860 N   0  0  0  0  0  2  0  0  0  0  0  0
  161.2130  204.5140  148.5470 C   0  0  0  0  0  2  0  0  0  0  0  0
  160.9640  205.5120  146.4100 C   0  0  0  0  0  0  0  0  0  0  0  0
  161.9470  203.6590  147.5120 C   0  0  1  0  0  3  0  0  0  0  0  0
  160.6160  206.2740  145.5230 O   0  0  0  0  0  0  0  0  0  0  0  0
  161.2700  202.4520  147.3470 O   0  0  0  0  0  1  0  0  0  0  0  0
  160.4260  205.5710  147.7890 C   0  0  2  0  0  3  0  0  0  0  0  0
  161.9410  204.4230  146.1950 C   0  0  0  0  0  2  0  0  0  0  0  0
  1 10  1  0  0  0  0
  2  1  2  0  0  0  0
  3 10  1  0  0  0  0
  4  7  1  0  0  0  0
  6  3  1  6  0  0  0
  7  2  2  0  0  0  0
  8  5  1  6  0  0  0
  8  9  1  0  0  0  0
  8  6  1  0  0  0  0
  9  4  1  6  0  0  0
  9  6  1  0  0  0  0
 11 15  1  0  0  0  0
 12 14  1  6  0  0  0
 12 11  1  0  0  0  0
 13 16  2  0  0  0  0
 13 15  1  0  0  0  0
 17  1  1  6  0  0  0
 17 13  1  0  0  0  0
 18 17  1  0  0  0  0
 18 12  1  0  0  0  0
 19 20  2  0  0  0  0
 20  7  1  0  0  0  0
 21 20  1  0  0  0  0
 23 27  1  0  0  0  0
 24 26  1  6  0  0  0
 24 22  1  0  0  0  0
 25 23  2  0  0  0  0
 27 21  1  1  0  0  0
 27 22  1  0  0  0  0
 28 23  1  0  0  0  0
 28 24  1  0  0  0  0
M  END
>  <MODEL>
9

>  <REMARK>
 VINA RESULT:      -6.4      2.054      6.714
  Name = 
  3 active torsions:
  status: ('A' for Active; 'I' for Inactive)
    1  A    between atoms: C_4  and  C_26
    2  A    between atoms: C_6  and  C_18
    3  A    between atoms: N_7  and  C_24
                            x       y       z     vdW  Elec       q    Type
                         _______ _______ _______ _____ _____    ______ ____

>  <TORSDO>
F 3

$$$$
