=
 OpenBabel11072413313D

 36 39  0  0  1  0  0  0  0  0999 V2000
  160.8630  206.5770  151.9610 C   0  0  0  0  0  2  0  0  0  0  0  0
  162.4830  207.6340  150.3240 C   0  0  0  0  0  2  0  0  0  0  0  0
  162.5510  209.7090  151.6120 C   0  0  0  0  0  2  0  0  0  0  0  0
  160.6000  208.8420  152.8510 N   0  0  0  0  0  0  0  0  0  0  0  0
  161.0490  207.1490  150.5570 C   0  0  1  0  0  3  0  0  0  0  0  0
  161.2430  207.5650  153.0610 C   0  0  0  0  0  2  0  0  0  0  0  0
  161.1610  209.8050  152.2040 C   0  0  0  0  0  3  0  0  0  0  0  0
  162.6050  209.1000  150.2750 N   0  0  0  0  0  0  0  0  0  0  0  0
  161.2320  204.8080  149.6130 N   0  0  0  0  0  2  0  0  0  0  0  0
  159.8600  206.4250  148.6300 O   0  0  0  0  0  0  0  0  0  0  0  0
  160.6800  206.1260  149.5370 C   0  0  0  0  0  0  0  0  0  0  0  0
  161.0140  203.7970  148.5850 C   0  0  1  0  0  3  0  0  0  0  0  0
  162.6760  205.2300  147.5310 O   0  0  0  0  0  0  0  0  0  0  0  0
  161.7200  205.2860  145.3540 C   0  0  2  0  0  3  0  0  0  0  0  0
  162.7050  204.7750  144.5080 O   0  0  0  0  0  1  0  0  0  0  0  0
  162.3710  206.0840  146.4550 C   0  0  0  0  0  2  0  0  0  0  0  0
  161.8980  204.0640  147.3640 C   0  0  2  0  0  3  0  0  0  0  0  0
  161.0760  204.1650  146.0990 C   0  0  0  0  0  2  0  0  0  0  0  0
  161.3350  202.4240  149.1530 C   0  0  0  0  0  3  0  0  0  0  0  0
  160.9080  201.3600  148.1610 C   0  0  0  0  0  2  0  0  0  0  0  0
  160.0470  201.6530  149.3730 C   0  0  0  0  0  2  0  0  0  0  0  0
  161.6530  209.7170  149.3510 C   0  0  0  0  0  2  0  0  0  0  0  0
  161.7370  211.2290  149.4440 C   0  0  0  0  0  2  0  0  0  0  0  0
  161.9480  211.8240  148.0610 C   0  0  2  0  0  3  0  0  0  0  0  0
  163.4090  212.1870  147.8470 C   0  0  0  0  0  1  0  0  0  0  0  0
  160.5680  213.3640  146.6760 C   0  0  0  0  0  0  0  0  0  0  0  0
  160.3240  213.9030  149.2420 S   0  0  0  0  0  0  0  0  0  0  0  0
  158.9600  214.4210  148.1470 C   0  0  1  0  0  3  0  0  0  0  0  0
  161.0550  213.0180  147.8680 C   0  0  0  0  0  0  0  0  0  0  0  0
  159.4910  214.3960  146.7190 C   0  0  0  0  0  2  0  0  0  0  0  0
  162.0590  213.3210  144.8290 O   0  0  0  0  0  1  0  0  0  0  0  0
  160.9600  212.6780  145.3990 C   0  0  2  0  0  3  0  0  0  0  0  0
  159.8020  212.6790  144.4200 C   0  0  0  0  0  1  0  0  0  0  0  0
  157.7920  213.4550  148.2750 C   0  0  0  0  0  2  0  0  0  0  0  0
  157.0010  213.4060  146.9820 C   0  0  0  0  0  2  0  0  0  0  0  0
  156.0810  214.4530  146.9600 O   0  0  0  0  0  1  0  0  0  0  0  0
  1  6  1  0  0  0  0
  2  5  1  0  0  0  0
  3  7  1  0  0  0  0
  4  6  1  0  0  0  0
  5 11  1  6  0  0  0
  5  1  1  0  0  0  0
  7  4  2  0  0  0  0
  8  2  1  0  0  0  0
  8  3  1  0  0  0  0
 10 11  2  0  0  0  0
 11  9  1  0  0  0  0
 12 19  1  0  0  0  0
 12  9  1  1  0  0  0
 14 15  1  6  0  0  0
 14 18  1  0  0  0  0
 14 16  1  0  0  0  0
 16 13  1  0  0  0  0
 17 13  1  0  0  0  0
 17 12  1  1  0  0  0
 18 17  1  0  0  0  0
 19 21  1  0  0  0  0
 20 19  1  0  0  0  0
 20 21  1  0  0  0  0
 22 23  1  0  0  0  0
 22  8  1  0  0  0  0
 24 25  1  1  0  0  0
 24 23  1  0  0  0  0
 26 30  1  0  0  0  0
 26 29  2  0  0  0  0
 28 34  1  6  0  0  0
 28 27  1  0  0  0  0
 29 24  1  0  0  0  0
 29 27  1  0  0  0  0
 30 28  1  0  0  0  0
 31 32  1  0  0  0  0
 32 33  1  6  0  0  0
 32 26  1  0  0  0  0
 35 34  1  0  0  0  0
 36 35  1  0  0  0  0
M  END
>  <MODEL>
1

>  <REMARK>
 VINA RESULT:      -6.7      0.000      0.000
  Name = 
  11 active torsions:
  status: ('A' for Active; 'I' for Inactive)
    1  A    between atoms: C_1  and  C_5
    2  A    between atoms: C_1  and  N_16
    3  A    between atoms: C_1  and  C_31
    4  A    between atoms: C_3  and  C_9
    5  A    between atoms: C_3  and  C_36
    6  A    between atoms: C_6  and  C_19
    7  A    between atoms: C_7  and  C_29
    8  A    between atoms: C_9  and  C_28
    9  A    between atoms: C_13  and  C_30
   10  A    between atoms: C_27  and  C_29
   11  A    between atoms: N_34  and  C_36
                            x       y       z     vdW  Elec       q    Type
                         _______ _______ _______ _____ _____    ______ ____

>  <TORSDO>
F 11

$$$$
=
 OpenBabel11072413313D

 36 39  0  0  1  0  0  0  0  0999 V2000
  159.8190  212.4180  154.4730 C   0  0  0  0  0  2  0  0  0  0  0  0
  159.4890  210.5560  152.7860 C   0  0  0  0  0  2  0  0  0  0  0  0
  161.0920  209.1200  153.9420 C   0  0  0  0  0  2  0  0  0  0  0  0
  161.7590  211.1260  155.2160 N   0  0  0  0  0  0  0  0  0  0  0  0
  160.0600  211.9550  153.0370 C   0  0  1  0  0  3  0  0  0  0  0  0
  160.3830  211.4520  155.5120 C   0  0  0  0  0  2  0  0  0  0  0  0
  162.0950  210.0980  154.5150 C   0  0  0  0  0  3  0  0  0  0  0  0
  160.5220  209.5190  152.6450 N   0  0  0  0  0  0  0  0  0  0  0  0
  159.5850  212.7190  150.6710 N   0  0  0  0  0  2  0  0  0  0  0  0
  158.8350  213.9280  152.5250 O   0  0  0  0  0  0  0  0  0  0  0  0
  159.4650  212.9330  152.0800 C   0  0  0  0  0  0  0  0  0  0  0  0
  159.1380  213.6920  149.6800 C   0  0  1  0  0  3  0  0  0  0  0  0
  159.7420  213.0080  147.4230 O   0  0  0  0  0  0  0  0  0  0  0  0
  162.0550  212.6140  147.8130 C   0  0  2  0  0  3  0  0  0  0  0  0
  162.7250  213.4690  146.9370 O   0  0  0  0  0  1  0  0  0  0  0  0
  160.7940  212.1130  147.1550 C   0  0  0  0  0  2  0  0  0  0  0  0
  160.1400  213.7930  148.5270 C   0  0  2  0  0  3  0  0  0  0  0  0
  161.5320  213.3990  148.9680 C   0  0  0  0  0  2  0  0  0  0  0  0
  157.7820  213.2720  149.1380 C   0  0  0  0  0  3  0  0  0  0  0  0
  157.1320  214.4530  148.4460 C   0  0  0  0  0  2  0  0  0  0  0  0
  156.6910  214.0580  149.8400 C   0  0  0  0  0  2  0  0  0  0  0  0
  161.5580  209.8780  151.6770 C   0  0  0  0  0  2  0  0  0  0  0  0
  162.4430  208.6790  151.3870 C   0  0  0  0  0  2  0  0  0  0  0  0
  162.2270  208.2070  149.9590 C   0  0  2  0  0  3  0  0  0  0  0  0
  161.6050  209.3070  149.1150 C   0  0  0  0  0  1  0  0  0  0  0  0
  161.3630  206.1190  148.9160 C   0  0  0  0  0  0  0  0  0  0  0  0
  160.5590  206.3470  151.4130 S   0  0  0  0  0  0  0  0  0  0  0  0
  160.6170  204.6670  150.7040 C   0  0  1  0  0  3  0  0  0  0  0  0
  161.3810  206.9640  149.9470 C   0  0  0  0  0  0  0  0  0  0  0  0
  160.6900  204.8160  149.1900 C   0  0  0  0  0  2  0  0  0  0  0  0
  161.2300  207.0350  146.7280 O   0  0  0  0  0  1  0  0  0  0  0  0
  162.0810  206.3860  147.6240 C   0  0  2  0  0  3  0  0  0  0  0  0
  162.5730  205.0880  147.0130 C   0  0  0  0  0  1  0  0  0  0  0  0
  161.8500  203.9300  151.2060 C   0  0  0  0  0  2  0  0  0  0  0  0
  161.4760  202.5450  151.6960 C   0  0  0  0  0  2  0  0  0  0  0  0
  161.2900  201.7000  150.6030 O   0  0  0  0  0  1  0  0  0  0  0  0
  1  6  1  0  0  0  0
  2  5  1  0  0  0  0
  3  7  1  0  0  0  0
  4  6  1  0  0  0  0
  5 11  1  6  0  0  0
  5  1  1  0  0  0  0
  7  4  2  0  0  0  0
  8  2  1  0  0  0  0
  8  3  1  0  0  0  0
  9 11  1  0  0  0  0
 11 10  2  0  0  0  0
 12  9  1  1  0  0  0
 13 17  1  0  0  0  0
 14 15  1  6  0  0  0
 14 18  1  0  0  0  0
 16 13  1  0  0  0  0
 16 14  1  0  0  0  0
 17 18  1  0  0  0  0
 17 12  1  1  0  0  0
 19 12  1  0  0  0  0
 19 21  1  0  0  0  0
 20 19  1  0  0  0  0
 20 21  1  0  0  0  0
 22  8  1  0  0  0  0
 23 22  1  0  0  0  0
 24 25  1  6  0  0  0
 24 23  1  0  0  0  0
 26 30  1  0  0  0  0
 26 29  2  0  0  0  0
 28 34  1  1  0  0  0
 28 27  1  0  0  0  0
 29 24  1  0  0  0  0
 29 27  1  0  0  0  0
 30 28  1  0  0  0  0
 31 32  1  0  0  0  0
 32 33  1  6  0  0  0
 32 26  1  0  0  0  0
 34 35  1  0  0  0  0
 36 35  1  0  0  0  0
M  END
>  <MODEL>
2

>  <REMARK>
 VINA RESULT:      -6.3      2.794      8.208
  Name = 
  11 active torsions:
  status: ('A' for Active; 'I' for Inactive)
    1  A    between atoms: C_1  and  C_5
    2  A    between atoms: C_1  and  N_16
    3  A    between atoms: C_1  and  C_31
    4  A    between atoms: C_3  and  C_9
    5  A    between atoms: C_3  and  C_36
    6  A    between atoms: C_6  and  C_19
    7  A    between atoms: C_7  and  C_29
    8  A    between atoms: C_9  and  C_28
    9  A    between atoms: C_13  and  C_30
   10  A    between atoms: C_27  and  C_29
   11  A    between atoms: N_34  and  C_36
                            x       y       z     vdW  Elec       q    Type
                         _______ _______ _______ _____ _____    ______ ____

>  <TORSDO>
F 11

$$$$
=
 OpenBabel11072413313D

 36 39  0  0  1  0  0  0  0  0999 V2000
  161.5510  211.2920  150.5770 C   0  0  0  0  0  2  0  0  0  0  0  0
  162.1130  209.1480  151.8060 C   0  0  0  0  0  2  0  0  0  0  0  0
  162.7250  208.0250  149.7240 C   0  0  0  0  0  2  0  0  0  0  0  0
  161.6720  209.9250  148.5510 N   0  0  0  0  0  0  0  0  0  0  0  0
  160.9990  210.0970  151.3520 C   0  0  1  0  0  3  0  0  0  0  0  0
  162.3850  210.8820  149.3660 C   0  0  0  0  0  2  0  0  0  0  0  0
  161.8030  208.6510  148.6990 C   0  0  0  0  0  3  0  0  0  0  0  0
  162.1370  207.8770  151.0640 N   0  0  0  0  0  0  0  0  0  0  0  0
  160.6640  210.2710  153.8550 N   0  0  0  0  0  2  0  0  0  0  0  0
  159.1790  211.2600  152.3450 O   0  0  0  0  0  0  0  0  0  0  0  0
  160.2170  210.5710  152.5300 C   0  0  0  0  0  0  0  0  0  0  0  0
  159.8870  210.5940  155.0470 C   0  0  1  0  0  3  0  0  0  0  0  0
  161.2180  209.5200  156.7800 O   0  0  0  0  0  0  0  0  0  0  0  0
  160.8180  207.2640  156.1420 C   0  0  2  0  0  3  0  0  0  0  0  0
  160.2320  206.6670  157.2590 O   0  0  0  0  0  1  0  0  0  0  0  0
  161.8430  208.2730  156.5950 C   0  0  0  0  0  2  0  0  0  0  0  0
  159.9910  209.4720  156.0840 C   0  0  2  0  0  3  0  0  0  0  0  0
  159.8080  208.1130  155.4470 C   0  0  0  0  0  2  0  0  0  0  0  0
  160.4040  211.8910  155.6490 C   0  0  0  0  0  3  0  0  0  0  0  0
  159.4970  212.3100  156.7880 C   0  0  0  0  0  2  0  0  0  0  0  0
  159.3800  212.9900  155.4390 C   0  0  0  0  0  2  0  0  0  0  0  0
  160.8310  207.2210  151.0220 C   0  0  0  0  0  2  0  0  0  0  0  0
  160.6740  206.4490  149.7250 C   0  0  0  0  0  2  0  0  0  0  0  0
  160.7010  204.9550  150.0020 C   0  0  2  0  0  3  0  0  0  0  0  0
  161.4260  204.6610  151.3060 C   0  0  0  0  0  1  0  0  0  0  0  0
  161.1060  202.9330  148.6080 C   0  0  0  0  0  0  0  0  0  0  0  0
  162.1980  205.0740  147.5330 S   0  0  0  0  0  0  0  0  0  0  0  0
  161.7990  203.6890  146.4140 C   0  0  1  0  0  3  0  0  0  0  0  0
  161.3320  204.2240  148.8490 C   0  0  0  0  0  0  0  0  0  0  0  0
  161.5880  202.4540  147.2800 C   0  0  0  0  0  2  0  0  0  0  0  0
  161.1390  201.1220  150.1440 O   0  0  0  0  0  1  0  0  0  0  0  0
  160.3060  202.0550  149.5260 C   0  0  2  0  0  3  0  0  0  0  0  0
  159.2160  201.3350  148.7550 C   0  0  0  0  0  1  0  0  0  0  0  0
  160.5250  203.9940  145.6400 C   0  0  0  0  0  2  0  0  0  0  0  0
  160.5380  205.4280  145.1450 C   0  0  0  0  0  2  0  0  0  0  0  0
  161.3280  205.5170  144.0000 O   0  0  0  0  0  1  0  0  0  0  0  0
  1  5  1  0  0  0  0
  3  8  1  0  0  0  0
  4  7  2  0  0  0  0
  4  6  1  0  0  0  0
  5  2  1  0  0  0  0
  5 11  1  1  0  0  0
  6  1  1  0  0  0  0
  7  3  1  0  0  0  0
  8  2  1  0  0  0  0
 10 11  2  0  0  0  0
 11  9  1  0  0  0  0
 12  9  1  6  0  0  0
 12 19  1  0  0  0  0
 14 16  1  0  0  0  0
 14 15  1  1  0  0  0
 16 13  1  0  0  0  0
 17 12  1  6  0  0  0
 17 13  1  0  0  0  0
 18 17  1  0  0  0  0
 18 14  1  0  0  0  0
 19 20  1  0  0  0  0
 21 19  1  0  0  0  0
 21 20  1  0  0  0  0
 22  8  1  0  0  0  0
 23 24  1  0  0  0  0
 23 22  1  0  0  0  0
 24 25  1  1  0  0  0
 26 29  2  0  0  0  0
 26 32  1  0  0  0  0
 27 29  1  0  0  0  0
 28 34  1  1  0  0  0
 28 30  1  0  0  0  0
 28 27  1  0  0  0  0
 29 24  1  0  0  0  0
 30 26  1  0  0  0  0
 32 33  1  6  0  0  0
 32 31  1  0  0  0  0
 35 34  1  0  0  0  0
 36 35  1  0  0  0  0
M  END
>  <MODEL>
3

>  <REMARK>
 VINA RESULT:      -6.1      3.643      9.115
  Name = 
  11 active torsions:
  status: ('A' for Active; 'I' for Inactive)
    1  A    between atoms: C_1  and  C_5
    2  A    between atoms: C_1  and  N_16
    3  A    between atoms: C_1  and  C_31
    4  A    between atoms: C_3  and  C_9
    5  A    between atoms: C_3  and  C_36
    6  A    between atoms: C_6  and  C_19
    7  A    between atoms: C_7  and  C_29
    8  A    between atoms: C_9  and  C_28
    9  A    between atoms: C_13  and  C_30
   10  A    between atoms: C_27  and  C_29
   11  A    between atoms: N_34  and  C_36
                            x       y       z     vdW  Elec       q    Type
                         _______ _______ _______ _____ _____    ______ ____

>  <TORSDO>
F 11

$$$$
=
 OpenBabel11072413313D

 36 39  0  0  1  0  0  0  0  0999 V2000
  159.7040  212.5510  154.6000 C   0  0  0  0  0  2  0  0  0  0  0  0
  159.2530  210.6490  152.9870 C   0  0  0  0  0  2  0  0  0  0  0  0
  160.9290  209.2350  154.0660 C   0  0  0  0  0  2  0  0  0  0  0  0
  161.6880  211.2690  155.2400 N   0  0  0  0  0  0  0  0  0  0  0  0
  159.8440  212.0510  153.1630 C   0  0  1  0  0  3  0  0  0  0  0  0
  160.3360  211.6100  155.6210 C   0  0  0  0  0  2  0  0  0  0  0  0
  161.9720  210.2230  154.5430 C   0  0  0  0  0  3  0  0  0  0  0  0
  160.2720  209.6040  152.8020 N   0  0  0  0  0  0  0  0  0  0  0  0
  159.2830  212.8040  150.8120 N   0  0  0  0  0  2  0  0  0  0  0  0
  158.5270  213.9730  152.6890 O   0  0  0  0  0  0  0  0  0  0  0  0
  159.1870  213.0070  152.2250 C   0  0  0  0  0  0  0  0  0  0  0  0
  158.7730  213.7610  149.8370 C   0  0  1  0  0  3  0  0  0  0  0  0
  159.6980  212.9280  147.7440 O   0  0  0  0  0  0  0  0  0  0  0  0
  161.9940  213.3070  148.2330 C   0  0  2  0  0  3  0  0  0  0  0  0
  162.4440  214.1680  147.2300 O   0  0  0  0  0  1  0  0  0  0  0  0
  160.9790  212.3540  147.6540 C   0  0  0  0  0  2  0  0  0  0  0  0
  159.7770  213.9650  148.6990 C   0  0  2  0  0  3  0  0  0  0  0  0
  161.1910  214.0790  149.2240 C   0  0  0  0  0  2  0  0  0  0  0  0
  157.4590  213.2500  149.2680 C   0  0  0  0  0  3  0  0  0  0  0  0
  156.7770  214.3670  148.5050 C   0  0  0  0  0  2  0  0  0  0  0  0
  156.3060  214.0070  149.8990 C   0  0  0  0  0  2  0  0  0  0  0  0
  161.2400  209.9340  151.7560 C   0  0  0  0  0  2  0  0  0  0  0  0
  162.0690  208.7130  151.4050 C   0  0  0  0  0  2  0  0  0  0  0  0
  161.1580  207.5460  151.0610 C   0  0  2  0  0  3  0  0  0  0  0  0
  161.0270  206.5970  152.2420 C   0  0  0  0  0  1  0  0  0  0  0  0
  161.5220  205.5190  149.6640 C   0  0  0  0  0  0  0  0  0  0  0  0
  162.2410  207.7060  148.3860 S   0  0  0  0  0  0  0  0  0  0  0  0
  161.7990  206.2530  147.3730 C   0  0  1  0  0  3  0  0  0  0  0  0
  161.6670  206.8320  149.8400 C   0  0  0  0  0  0  0  0  0  0  0  0
  161.8360  205.0360  148.2880 C   0  0  0  0  0  2  0  0  0  0  0  0
  161.9770  204.1230  151.5310 O   0  0  0  0  0  1  0  0  0  0  0  0
  160.9550  204.6080  150.7150 C   0  0  2  0  0  3  0  0  0  0  0  0
  160.2210  203.4480  150.0700 C   0  0  0  0  0  1  0  0  0  0  0  0
  160.3990  206.4220  146.8010 C   0  0  0  0  0  2  0  0  0  0  0  0
  160.4000  206.1440  145.3100 C   0  0  0  0  0  2  0  0  0  0  0  0
  161.6670  205.7150  144.9180 O   0  0  0  0  0  1  0  0  0  0  0  0
  1  6  1  0  0  0  0
  2  5  1  0  0  0  0
  3  7  1  0  0  0  0
  4  6  1  0  0  0  0
  5 11  1  6  0  0  0
  5  1  1  0  0  0  0
  7  4  2  0  0  0  0
  8  2  1  0  0  0  0
  8  3  1  0  0  0  0
  9 11  1  0  0  0  0
 11 10  2  0  0  0  0
 12  9  1  1  0  0  0
 13 17  1  0  0  0  0
 14 15  1  6  0  0  0
 14 18  1  0  0  0  0
 16 13  1  0  0  0  0
 16 14  1  0  0  0  0
 17 18  1  0  0  0  0
 17 12  1  1  0  0  0
 19 12  1  0  0  0  0
 19 21  1  0  0  0  0
 20 19  1  0  0  0  0
 20 21  1  0  0  0  0
 22  8  1  0  0  0  0
 23 22  1  0  0  0  0
 24 23  1  0  0  0  0
 24 25  1  1  0  0  0
 26 29  2  0  0  0  0
 26 32  1  0  0  0  0
 27 29  1  0  0  0  0
 28 34  1  1  0  0  0
 28 30  1  0  0  0  0
 28 27  1  0  0  0  0
 29 24  1  0  0  0  0
 30 26  1  0  0  0  0
 32 33  1  6  0  0  0
 32 31  1  0  0  0  0
 35 34  1  0  0  0  0
 36 35  1  0  0  0  0
M  END
>  <MODEL>
4

>  <REMARK>
 VINA RESULT:      -6.0      2.705      8.260
  Name = 
  11 active torsions:
  status: ('A' for Active; 'I' for Inactive)
    1  A    between atoms: C_1  and  C_5
    2  A    between atoms: C_1  and  N_16
    3  A    between atoms: C_1  and  C_31
    4  A    between atoms: C_3  and  C_9
    5  A    between atoms: C_3  and  C_36
    6  A    between atoms: C_6  and  C_19
    7  A    between atoms: C_7  and  C_29
    8  A    between atoms: C_9  and  C_28
    9  A    between atoms: C_13  and  C_30
   10  A    between atoms: C_27  and  C_29
   11  A    between atoms: N_34  and  C_36
                            x       y       z     vdW  Elec       q    Type
                         _______ _______ _______ _____ _____    ______ ____

>  <TORSDO>
F 11

$$$$
=
 OpenBabel11072413313D

 36 39  0  0  1  0  0  0  0  0999 V2000
  161.4370  207.6710  154.0380 C   0  0  0  0  0  2  0  0  0  0  0  0
  161.9240  209.9750  153.1010 C   0  0  0  0  0  2  0  0  0  0  0  0
  160.6000  211.0510  154.8500 C   0  0  0  0  0  2  0  0  0  0  0  0
  159.7370  208.8010  155.3880 N   0  0  0  0  0  0  0  0  0  0  0  0
  161.1810  208.6510  152.8940 C   0  0  1  0  0  3  0  0  0  0  0  0
  161.0700  208.2440  155.4050 C   0  0  0  0  0  2  0  0  0  0  0  0
  159.5060  210.0440  155.1360 C   0  0  0  0  0  3  0  0  0  0  0  0
  161.0360  211.0960  153.4450 N   0  0  0  0  0  0  0  0  0  0  0  0
  161.0890  206.7400  151.2370 N   0  0  0  0  0  2  0  0  0  0  0  0
  162.3300  208.6750  150.8120 O   0  0  0  0  0  0  0  0  0  0  0  0
  161.5810  208.0340  151.5960 C   0  0  0  0  0  0  0  0  0  0  0  0
  161.5340  206.0250  150.0460 C   0  0  1  0  0  3  0  0  0  0  0  0
  161.1540  203.6860  149.4860 O   0  0  0  0  0  0  0  0  0  0  0  0
  160.8520  202.8700  151.7000 C   0  0  2  0  0  3  0  0  0  0  0  0
  161.8420  201.9000  151.8700 O   0  0  0  0  0  1  0  0  0  0  0  0
  160.3590  202.8350  150.2750 C   0  0  0  0  0  2  0  0  0  0  0  0
  161.8270  204.5570  150.3700 C   0  0  2  0  0  3  0  0  0  0  0  0
  161.4660  204.2250  151.8010 C   0  0  0  0  0  2  0  0  0  0  0  0
  160.4550  206.1030  148.9780 C   0  0  0  0  0  3  0  0  0  0  0  0
  161.0390  205.6860  147.6440 C   0  0  0  0  0  2  0  0  0  0  0  0
  160.8320  207.1540  147.9530 C   0  0  0  0  0  2  0  0  0  0  0  0
  159.9070  211.2290  152.5240 C   0  0  0  0  0  2  0  0  0  0  0  0
  160.3970  211.6600  151.1540 C   0  0  0  0  0  2  0  0  0  0  0  0
  160.3710  213.1760  151.0450 C   0  0  2  0  0  3  0  0  0  0  0  0
  159.2910  213.7630  151.9400 C   0  0  0  0  0  1  0  0  0  0  0  0
  160.9680  213.1610  148.6290 C   0  0  0  0  0  0  0  0  0  0  0  0
  158.7090  214.4470  149.0500 S   0  0  0  0  0  0  0  0  0  0  0  0
  158.9780  213.7540  147.3840 C   0  0  1  0  0  3  0  0  0  0  0  0
  160.1780  213.5900  149.6130 C   0  0  0  0  0  0  0  0  0  0  0  0
  160.4650  213.4480  147.2540 C   0  0  0  0  0  2  0  0  0  0  0  0
  163.3010  212.9200  148.2510 O   0  0  0  0  0  1  0  0  0  0  0  0
  162.1960  212.3300  148.8670 C   0  0  2  0  0  3  0  0  0  0  0  0
  161.9980  210.9260  148.3270 C   0  0  0  0  0  1  0  0  0  0  0  0
  158.1760  212.4730  147.2150 C   0  0  0  0  0  2  0  0  0  0  0  0
  156.8660  212.7580  146.5050 C   0  0  0  0  0  2  0  0  0  0  0  0
  156.9210  214.0210  145.9190 O   0  0  0  0  0  1  0  0  0  0  0  0
  1  6  1  0  0  0  0
  2  8  1  0  0  0  0
  3  7  1  0  0  0  0
  4  6  1  0  0  0  0
  5 11  1  6  0  0  0
  5  2  1  0  0  0  0
  5  1  1  0  0  0  0
  7  4  2  0  0  0  0
  8  3  1  0  0  0  0
  9 11  1  0  0  0  0
 10 11  2  0  0  0  0
 12  9  1  1  0  0  0
 13 16  1  0  0  0  0
 13 17  1  0  0  0  0
 14 18  1  0  0  0  0
 14 15  1  6  0  0  0
 16 14  1  0  0  0  0
 17 12  1  6  0  0  0
 17 18  1  0  0  0  0
 19 12  1  0  0  0  0
 20 21  1  0  0  0  0
 20 19  1  0  0  0  0
 21 19  1  0  0  0  0
 22  8  1  0  0  0  0
 23 22  1  0  0  0  0
 24 23  1  0  0  0  0
 24 25  1  1  0  0  0
 26 32  1  0  0  0  0
 26 29  2  0  0  0  0
 27 29  1  0  0  0  0
 28 34  1  1  0  0  0
 28 27  1  0  0  0  0
 29 24  1  0  0  0  0
 30 28  1  0  0  0  0
 30 26  1  0  0  0  0
 31 32  1  0  0  0  0
 32 33  1  6  0  0  0
 35 34  1  0  0  0  0
 36 35  1  0  0  0  0
M  END
>  <MODEL>
5

>  <REMARK>
 VINA RESULT:      -5.8      2.328      3.792
  Name = 
  11 active torsions:
  status: ('A' for Active; 'I' for Inactive)
    1  A    between atoms: C_1  and  C_5
    2  A    between atoms: C_1  and  N_16
    3  A    between atoms: C_1  and  C_31
    4  A    between atoms: C_3  and  C_9
    5  A    between atoms: C_3  and  C_36
    6  A    between atoms: C_6  and  C_19
    7  A    between atoms: C_7  and  C_29
    8  A    between atoms: C_9  and  C_28
    9  A    between atoms: C_13  and  C_30
   10  A    between atoms: C_27  and  C_29
   11  A    between atoms: N_34  and  C_36
                            x       y       z     vdW  Elec       q    Type
                         _______ _______ _______ _____ _____    ______ ____

>  <TORSDO>
F 11

$$$$
=
 OpenBabel11072413313D

 36 39  0  0  1  0  0  0  0  0999 V2000
  160.8550  207.0680  152.5030 C   0  0  0  0  0  2  0  0  0  0  0  0
  162.5860  207.9710  150.8880 C   0  0  0  0  0  2  0  0  0  0  0  0
  162.5060  210.1850  151.9180 C   0  0  0  0  0  2  0  0  0  0  0  0
  160.4750  209.4130  153.0900 N   0  0  0  0  0  0  0  0  0  0  0  0
  161.1470  207.4750  151.0600 C   0  0  1  0  0  3  0  0  0  0  0  0
  161.1220  208.1900  153.5040 C   0  0  0  0  0  2  0  0  0  0  0  0
  161.0690  210.3090  152.3790 C   0  0  0  0  0  3  0  0  0  0  0  0
  162.6840  209.4230  150.6720 N   0  0  0  0  0  0  0  0  0  0  0  0
  161.9640  205.4930  149.7150 N   0  0  0  0  0  2  0  0  0  0  0  0
  159.7050  206.0870  149.7780 O   0  0  0  0  0  0  0  0  0  0  0  0
  160.8850  206.3280  150.1440 C   0  0  0  0  0  0  0  0  0  0  0  0
  161.8030  204.4330  148.7270 C   0  0  1  0  0  3  0  0  0  0  0  0
  160.5980  203.3340  150.5350 O   0  0  0  0  0  0  0  0  0  0  0  0
  160.4600  201.1680  149.5610 C   0  0  2  0  0  3  0  0  0  0  0  0
  159.0940  200.8920  149.4770 O   0  0  0  0  0  1  0  0  0  0  0  0
  160.7320  201.9620  150.8140 C   0  0  0  0  0  2  0  0  0  0  0  0
  160.6760  203.4780  149.1330 C   0  0  2  0  0  3  0  0  0  0  0  0
  160.8380  202.1240  148.4800 C   0  0  0  0  0  2  0  0  0  0  0  0
  161.4830  205.0490  147.3740 C   0  0  0  0  0  3  0  0  0  0  0  0
  161.6960  204.0130  146.2890 C   0  0  0  0  0  2  0  0  0  0  0  0
  162.7390  205.0870  146.5250 C   0  0  0  0  0  2  0  0  0  0  0  0
  161.8010  209.8980  149.6070 C   0  0  0  0  0  2  0  0  0  0  0  0
  161.8520  211.4130  149.5210 C   0  0  0  0  0  2  0  0  0  0  0  0
  161.7360  211.8560  148.0720 C   0  0  2  0  0  3  0  0  0  0  0  0
  163.1030  212.2050  147.5030 C   0  0  0  0  0  1  0  0  0  0  0  0
  160.0110  213.2050  146.8890 C   0  0  0  0  0  0  0  0  0  0  0  0
  160.3830  214.0680  149.3490 S   0  0  0  0  0  0  0  0  0  0  0  0
  158.7770  214.4400  148.5670 C   0  0  1  0  0  3  0  0  0  0  0  0
  160.7850  213.0150  147.9580 C   0  0  0  0  0  0  0  0  0  0  0  0
  158.9450  214.2330  147.0680 C   0  0  0  0  0  2  0  0  0  0  0  0
  161.0950  212.8580  144.8050 O   0  0  0  0  0  1  0  0  0  0  0  0
  160.1020  212.3620  145.6500 C   0  0  2  0  0  3  0  0  0  0  0  0
  158.7720  212.3450  144.9220 C   0  0  0  0  0  1  0  0  0  0  0  0
  157.7070  213.4980  149.0980 C   0  0  0  0  0  2  0  0  0  0  0  0
  156.9310  214.1580  150.2210 C   0  0  0  0  0  2  0  0  0  0  0  0
  155.5800  214.2120  149.8840 O   0  0  0  0  0  1  0  0  0  0  0  0
  1  6  1  0  0  0  0
  2  5  1  0  0  0  0
  3  7  1  0  0  0  0
  4  6  1  0  0  0  0
  5 11  1  6  0  0  0
  5  1  1  0  0  0  0
  7  4  2  0  0  0  0
  8  2  1  0  0  0  0
  8  3  1  0  0  0  0
  9 11  1  0  0  0  0
 10 11  2  0  0  0  0
 12  9  1  1  0  0  0
 13 16  1  0  0  0  0
 14 15  1  6  0  0  0
 14 16  1  0  0  0  0
 17 12  1  1  0  0  0
 17 13  1  0  0  0  0
 18 17  1  0  0  0  0
 18 14  1  0  0  0  0
 19 12  1  0  0  0  0
 20 21  1  0  0  0  0
 20 19  1  0  0  0  0
 21 19  1  0  0  0  0
 22  8  1  0  0  0  0
 23 22  1  0  0  0  0
 24 25  1  1  0  0  0
 24 23  1  0  0  0  0
 26 30  1  0  0  0  0
 26 29  2  0  0  0  0
 28 34  1  1  0  0  0
 28 27  1  0  0  0  0
 29 24  1  0  0  0  0
 29 27  1  0  0  0  0
 30 28  1  0  0  0  0
 31 32  1  0  0  0  0
 32 33  1  6  0  0  0
 32 26  1  0  0  0  0
 34 35  1  0  0  0  0
 36 35  1  0  0  0  0
M  END
>  <MODEL>
6

>  <REMARK>
 VINA RESULT:      -5.5      1.545      2.586
  Name = 
  11 active torsions:
  status: ('A' for Active; 'I' for Inactive)
    1  A    between atoms: C_1  and  C_5
    2  A    between atoms: C_1  and  N_16
    3  A    between atoms: C_1  and  C_31
    4  A    between atoms: C_3  and  C_9
    5  A    between atoms: C_3  and  C_36
    6  A    between atoms: C_6  and  C_19
    7  A    between atoms: C_7  and  C_29
    8  A    between atoms: C_9  and  C_28
    9  A    between atoms: C_13  and  C_30
   10  A    between atoms: C_27  and  C_29
   11  A    between atoms: N_34  and  C_36
                            x       y       z     vdW  Elec       q    Type
                         _______ _______ _______ _____ _____    ______ ____

>  <TORSDO>
F 11

$$$$
=
 OpenBabel11072413313D

 36 39  0  0  1  0  0  0  0  0999 V2000
  161.6050  209.1190  155.8640 C   0  0  0  0  0  2  0  0  0  0  0  0
  161.2660  210.3160  153.6560 C   0  0  0  0  0  2  0  0  0  0  0  0
  160.4840  212.3370  154.7830 C   0  0  0  0  0  2  0  0  0  0  0  0
  160.3250  210.9670  156.8300 N   0  0  0  0  0  0  0  0  0  0  0  0
  160.7690  209.2060  154.5880 C   0  0  1  0  0  3  0  0  0  0  0  0
  161.6540  210.4360  156.6340 C   0  0  0  0  0  2  0  0  0  0  0  0
  159.7840  211.8070  156.0160 C   0  0  0  0  0  3  0  0  0  0  0  0
  160.3650  211.4770  153.5960 N   0  0  0  0  0  0  0  0  0  0  0  0
  160.9330  207.8500  152.4570 N   0  0  0  0  0  2  0  0  0  0  0  0
  160.6910  206.8300  154.5460 O   0  0  0  0  0  0  0  0  0  0  0  0
  160.7830  207.8940  153.8790 C   0  0  0  0  0  0  0  0  0  0  0  0
  160.8330  206.6150  151.6870 C   0  0  1  0  0  3  0  0  0  0  0  0
  162.3230  207.9500  150.2990 O   0  0  0  0  0  0  0  0  0  0  0  0
  161.3190  207.4720  148.1960 C   0  0  2  0  0  3  0  0  0  0  0  0
  162.3310  206.8920  147.4310 O   0  0  0  0  0  1  0  0  0  0  0  0
  161.9120  208.5350  149.0860 C   0  0  0  0  0  2  0  0  0  0  0  0
  161.6600  206.7080  150.4020 C   0  0  2  0  0  3  0  0  0  0  0  0
  160.8050  206.4730  149.1770 C   0  0  0  0  0  2  0  0  0  0  0  0
  161.3320  205.4530  152.5290 C   0  0  0  0  0  3  0  0  0  0  0  0
  162.0130  204.4400  151.6310 C   0  0  0  0  0  2  0  0  0  0  0  0
  160.6040  204.1850  152.1260 C   0  0  0  0  0  2  0  0  0  0  0  0
  158.9760  211.1040  153.3250 C   0  0  0  0  0  2  0  0  0  0  0  0
  158.5080  211.7350  152.0260 C   0  0  0  0  0  2  0  0  0  0  0  0
  158.7800  213.2300  152.0470 C   0  0  2  0  0  3  0  0  0  0  0  0
  158.0090  213.9040  153.1710 C   0  0  0  0  0  1  0  0  0  0  0  0
  159.3480  213.9970  149.7480 C   0  0  0  0  0  0  0  0  0  0  0  0
  156.7550  214.1250  150.1880 S   0  0  0  0  0  0  0  0  0  0  0  0
  157.3020  213.9910  148.4530 C   0  0  1  0  0  3  0  0  0  0  0  0
  158.4430  213.8380  150.7130 C   0  0  0  0  0  0  0  0  0  0  0  0
  158.7820  214.3530  148.4150 C   0  0  0  0  0  2  0  0  0  0  0  0
  161.5670  214.4460  149.0300 O   0  0  0  0  0  1  0  0  0  0  0  0
  160.8090  213.7060  149.9380 C   0  0  2  0  0  3  0  0  0  0  0  0
  161.0840  212.2270  149.7480 C   0  0  0  0  0  1  0  0  0  0  0  0
  157.1110  212.5670  147.9530 C   0  0  0  0  0  2  0  0  0  0  0  0
  157.2410  212.5140  146.4430 C   0  0  0  0  0  2  0  0  0  0  0  0
  158.5900  212.4600  146.0950 O   0  0  0  0  0  1  0  0  0  0  0  0
  1  6  1  0  0  0  0
  2  5  1  0  0  0  0
  3  7  1  0  0  0  0
  5 11  1  6  0  0  0
  5  1  1  0  0  0  0
  6  4  1  0  0  0  0
  7  4  2  0  0  0  0
  8  2  1  0  0  0  0
  8  3  1  0  0  0  0
  9 11  1  0  0  0  0
 11 10  2  0  0  0  0
 12  9  1  1  0  0  0
 12 19  1  0  0  0  0
 13 17  1  0  0  0  0
 14 15  1  6  0  0  0
 14 16  1  0  0  0  0
 14 18  1  0  0  0  0
 16 13  1  0  0  0  0
 17 12  1  1  0  0  0
 18 17  1  0  0  0  0
 20 21  1  0  0  0  0
 20 19  1  0  0  0  0
 21 19  1  0  0  0  0
 22  8  1  0  0  0  0
 23 24  1  0  0  0  0
 23 22  1  0  0  0  0
 24 25  1  1  0  0  0
 26 32  1  0  0  0  0
 26 29  2  0  0  0  0
 27 29  1  0  0  0  0
 28 34  1  1  0  0  0
 28 27  1  0  0  0  0
 29 24  1  0  0  0  0
 30 28  1  0  0  0  0
 30 26  1  0  0  0  0
 31 32  1  0  0  0  0
 32 33  1  6  0  0  0
 35 34  1  0  0  0  0
 36 35  1  0  0  0  0
M  END
>  <MODEL>
7

>  <REMARK>
 VINA RESULT:      -5.5      2.854      4.301
  Name = 
  11 active torsions:
  status: ('A' for Active; 'I' for Inactive)
    1  A    between atoms: C_1  and  C_5
    2  A    between atoms: C_1  and  N_16
    3  A    between atoms: C_1  and  C_31
    4  A    between atoms: C_3  and  C_9
    5  A    between atoms: C_3  and  C_36
    6  A    between atoms: C_6  and  C_19
    7  A    between atoms: C_7  and  C_29
    8  A    between atoms: C_9  and  C_28
    9  A    between atoms: C_13  and  C_30
   10  A    between atoms: C_27  and  C_29
   11  A    between atoms: N_34  and  C_36
                            x       y       z     vdW  Elec       q    Type
                         _______ _______ _______ _____ _____    ______ ____

>  <TORSDO>
F 11

$$$$
=
 OpenBabel11072413313D

 36 39  0  0  1  0  0  0  0  0999 V2000
  161.1370  207.3800  153.9700 C   0  0  0  0  0  2  0  0  0  0  0  0
  162.0410  209.6680  153.3630 C   0  0  0  0  0  2  0  0  0  0  0  0
  160.8000  210.7260  155.1830 C   0  0  0  0  0  2  0  0  0  0  0  0
  159.5590  208.6020  155.3860 N   0  0  0  0  0  0  0  0  0  0  0  0
  161.1110  208.5210  152.9550 C   0  0  1  0  0  3  0  0  0  0  0  0
  160.7820  207.8330  155.3840 C   0  0  0  0  0  2  0  0  0  0  0  0
  159.5450  209.8870  155.2900 C   0  0  0  0  0  3  0  0  0  0  0  0
  161.3230  210.8700  153.8160 N   0  0  0  0  0  0  0  0  0  0  0  0
  161.1010  206.6920  151.2060 N   0  0  0  0  0  2  0  0  0  0  0  0
  162.1180  208.7600  150.8140 O   0  0  0  0  0  0  0  0  0  0  0  0
  161.4870  208.0100  151.6050 C   0  0  0  0  0  0  0  0  0  0  0  0
  161.5380  206.0830  149.9540 C   0  0  1  0  0  3  0  0  0  0  0  0
  160.6580  203.8510  149.5380 O   0  0  0  0  0  0  0  0  0  0  0  0
  161.0860  202.9300  151.6890 C   0  0  2  0  0  3  0  0  0  0  0  0
  161.9240  201.8380  151.4590 O   0  0  0  0  0  1  0  0  0  0  0  0
  160.1010  203.0520  150.5540 C   0  0  0  0  0  2  0  0  0  0  0  0
  161.7240  204.5720  150.1200 C   0  0  2  0  0  3  0  0  0  0  0  0
  161.8750  204.1910  151.5750 C   0  0  0  0  0  2  0  0  0  0  0  0
  160.5020  206.3510  148.8740 C   0  0  0  0  0  3  0  0  0  0  0  0
  161.0200  205.8400  147.5450 C   0  0  0  0  0  2  0  0  0  0  0  0
  161.0700  207.3220  147.8570 C   0  0  0  0  0  2  0  0  0  0  0  0
  160.2890  211.3010  152.8750 C   0  0  0  0  0  2  0  0  0  0  0  0
  159.8700  212.7290  153.1740 C   0  0  0  0  0  2  0  0  0  0  0  0
  159.1660  213.3280  151.9680 C   0  0  2  0  0  3  0  0  0  0  0  0
  160.0600  214.3390  151.2680 C   0  0  0  0  0  1  0  0  0  0  0  0
  156.8240  214.0630  151.5540 C   0  0  0  0  0  0  0  0  0  0  0  0
  157.4730  214.3140  154.0940 S   0  0  0  0  0  0  0  0  0  0  0  0
  155.7000  214.1510  153.6970 C   0  0  1  0  0  3  0  0  0  0  0  0
  157.8610  213.9480  152.3840 C   0  0  0  0  0  0  0  0  0  0  0  0
  155.5400  214.4430  152.2110 C   0  0  0  0  0  2  0  0  0  0  0  0
  157.8940  214.4500  149.4690 O   0  0  0  0  0  1  0  0  0  0  0  0
  156.8960  213.7040  150.0980 C   0  0  2  0  0  3  0  0  0  0  0  0
  155.5630  213.9610  149.4230 C   0  0  0  0  0  1  0  0  0  0  0  0
  155.2260  212.7370  153.9950 C   0  0  0  0  0  2  0  0  0  0  0  0
  156.0350  212.1350  155.1280 C   0  0  0  0  0  2  0  0  0  0  0  0
  155.4100  212.4110  156.3430 O   0  0  0  0  0  1  0  0  0  0  0  0
  1  6  1  0  0  0  0
  2  8  1  0  0  0  0
  3  7  1  0  0  0  0
  5 11  1  6  0  0  0
  5  2  1  0  0  0  0
  5  1  1  0  0  0  0
  6  4  1  0  0  0  0
  7  4  2  0  0  0  0
  8  3  1  0  0  0  0
  9 11  1  0  0  0  0
 10 11  2  0  0  0  0
 12  9  1  1  0  0  0
 13 17  1  0  0  0  0
 13 16  1  0  0  0  0
 14 15  1  6  0  0  0
 16 14  1  0  0  0  0
 17 12  1  1  0  0  0
 17 18  1  0  0  0  0
 18 14  1  0  0  0  0
 19 12  1  0  0  0  0
 20 21  1  0  0  0  0
 20 19  1  0  0  0  0
 21 19  1  0  0  0  0
 22 23  1  0  0  0  0
 22  8  1  0  0  0  0
 24 25  1  1  0  0  0
 24 29  1  0  0  0  0
 24 23  1  0  0  0  0
 26 30  1  0  0  0  0
 26 29  2  0  0  0  0
 28 34  1  6  0  0  0
 28 27  1  0  0  0  0
 29 27  1  0  0  0  0
 30 28  1  0  0  0  0
 31 32  1  0  0  0  0
 32 33  1  6  0  0  0
 32 26  1  0  0  0  0
 34 35  1  0  0  0  0
 35 36  1  0  0  0  0
M  END
>  <MODEL>
8

>  <REMARK>
 VINA RESULT:      -5.3      3.667      5.223
  Name = 
  11 active torsions:
  status: ('A' for Active; 'I' for Inactive)
    1  A    between atoms: C_1  and  C_5
    2  A    between atoms: C_1  and  N_16
    3  A    between atoms: C_1  and  C_31
    4  A    between atoms: C_3  and  C_9
    5  A    between atoms: C_3  and  C_36
    6  A    between atoms: C_6  and  C_19
    7  A    between atoms: C_7  and  C_29
    8  A    between atoms: C_9  and  C_28
    9  A    between atoms: C_13  and  C_30
   10  A    between atoms: C_27  and  C_29
   11  A    between atoms: N_34  and  C_36
                            x       y       z     vdW  Elec       q    Type
                         _______ _______ _______ _____ _____    ______ ____

>  <TORSDO>
F 11

$$$$
=
 OpenBabel11072413313D

 36 39  0  0  1  0  0  0  0  0999 V2000
  161.9840  210.9650  150.9500 C   0  0  0  0  0  2  0  0  0  0  0  0
  162.5150  208.5160  151.3260 C   0  0  0  0  0  2  0  0  0  0  0  0
  162.5880  208.0820  148.9230 C   0  0  0  0  0  2  0  0  0  0  0  0
  161.5600  210.3080  148.6310 N   0  0  0  0  0  0  0  0  0  0  0  0
  161.4540  209.6150  151.4300 C   0  0  1  0  0  3  0  0  0  0  0  0
  162.5200  210.9190  149.5210 C   0  0  0  0  0  2  0  0  0  0  0  0
  161.5680  209.0480  148.3580 C   0  0  0  0  0  3  0  0  0  0  0  0
  162.2510  207.5470  150.2510 N   0  0  0  0  0  0  0  0  0  0  0  0
  161.2890  210.8880  153.6110 N   0  0  0  0  0  2  0  0  0  0  0  0
  160.2520  208.8140  153.3190 O   0  0  0  0  0  0  0  0  0  0  0  0
  160.9680  209.7300  152.8360 C   0  0  0  0  0  0  0  0  0  0  0  0
  160.9540  211.0130  155.0260 C   0  0  1  0  0  3  0  0  0  0  0  0
  158.5210  210.9310  155.0850 O   0  0  0  0  0  0  0  0  0  0  0  0
  158.1010  212.8960  153.8120 C   0  0  2  0  0  3  0  0  0  0  0  0
  157.3550  213.7230  154.6520 O   0  0  0  0  0  1  0  0  0  0  0  0
  157.7170  211.4580  154.0570 C   0  0  0  0  0  2  0  0  0  0  0  0
  159.6420  211.7810  155.2080 C   0  0  2  0  0  3  0  0  0  0  0  0
  159.5320  212.9280  154.2290 C   0  0  0  0  0  2  0  0  0  0  0  0
  160.8200  209.6280  155.6360 C   0  0  0  0  0  3  0  0  0  0  0  0
  160.6580  209.7560  157.1370 C   0  0  0  0  0  2  0  0  0  0  0  0
  161.9990  209.3620  156.5530 C   0  0  0  0  0  2  0  0  0  0  0  0
  160.8930  207.0060  150.2970 C   0  0  0  0  0  2  0  0  0  0  0  0
  160.6700  206.0510  149.1380 C   0  0  0  0  0  2  0  0  0  0  0  0
  160.7480  204.6140  149.6250 C   0  0  2  0  0  3  0  0  0  0  0  0
  161.6080  204.5150  150.8760 C   0  0  0  0  0  1  0  0  0  0  0  0
  160.8690  202.4610  148.3820 C   0  0  0  0  0  0  0  0  0  0  0  0
  162.2390  204.3500  147.1620 S   0  0  0  0  0  0  0  0  0  0  0  0
  161.6500  202.9550  146.1440 C   0  0  1  0  0  3  0  0  0  0  0  0
  161.2700  203.7230  148.5320 C   0  0  0  0  0  0  0  0  0  0  0  0
  161.2760  201.8250  147.0950 C   0  0  0  0  0  2  0  0  0  0  0  0
  160.6620  200.7790  150.0470 O   0  0  0  0  0  1  0  0  0  0  0  0
  159.9600  201.7680  149.3570 C   0  0  2  0  0  3  0  0  0  0  0  0
  158.7800  201.1480  148.6330 C   0  0  0  0  0  1  0  0  0  0  0  0
  160.4270  203.3740  145.3420 C   0  0  0  0  0  2  0  0  0  0  0  0
  160.7420  204.5910  144.4940 C   0  0  0  0  0  2  0  0  0  0  0  0
  160.0600  205.6970  144.9980 O   0  0  0  0  0  1  0  0  0  0  0  0
  1  5  1  0  0  0  0
  2  5  1  0  0  0  0
  3  8  1  0  0  0  0
  4  6  1  0  0  0  0
  5 11  1  1  0  0  0
  6  1  1  0  0  0  0
  7  4  2  0  0  0  0
  7  3  1  0  0  0  0
  8 22  1  0  0  0  0
  8  2  1  0  0  0  0
 11 10  2  0  0  0  0
 11  9  1  0  0  0  0
 12  9  1  6  0  0  0
 12 19  1  0  0  0  0
 13 17  1  0  0  0  0
 14 16  1  0  0  0  0
 14 18  1  0  0  0  0
 14 15  1  1  0  0  0
 16 13  1  0  0  0  0
 17 12  1  6  0  0  0
 18 17  1  0  0  0  0
 19 21  1  0  0  0  0
 19 20  1  0  0  0  0
 21 20  1  0  0  0  0
 23 24  1  0  0  0  0
 23 22  1  0  0  0  0
 24 25  1  1  0  0  0
 26 29  2  0  0  0  0
 26 32  1  0  0  0  0
 27 29  1  0  0  0  0
 28 34  1  1  0  0  0
 28 30  1  0  0  0  0
 28 27  1  0  0  0  0
 29 24  1  0  0  0  0
 30 26  1  0  0  0  0
 32 33  1  6  0  0  0
 32 31  1  0  0  0  0
 35 36  1  0  0  0  0
 35 34  1  0  0  0  0
M  END
>  <MODEL>
9

>  <REMARK>
 VINA RESULT:      -5.3      3.811      9.227
  Name = 
  11 active torsions:
  status: ('A' for Active; 'I' for Inactive)
    1  A    between atoms: C_1  and  C_5
    2  A    between atoms: C_1  and  N_16
    3  A    between atoms: C_1  and  C_31
    4  A    between atoms: C_3  and  C_9
    5  A    between atoms: C_3  and  C_36
    6  A    between atoms: C_6  and  C_19
    7  A    between atoms: C_7  and  C_29
    8  A    between atoms: C_9  and  C_28
    9  A    between atoms: C_13  and  C_30
   10  A    between atoms: C_27  and  C_29
   11  A    between atoms: N_34  and  C_36
                            x       y       z     vdW  Elec       q    Type
                         _______ _______ _______ _____ _____    ______ ____

>  <TORSDO>
F 11

$$$$
