=
 OpenBabel11072414553D

 47 51  0  0  1  0  0  0  0  0999 V2000
  161.6870  209.8460  154.4680 C   0  0  0  0  0  2  0  0  0  0  0  0
  162.4960  210.3940  156.6500 O   0  0  0  0  0  1  0  0  0  0  0  0
  161.6750  210.8530  155.6160 C   0  0  2  0  0  3  0  0  0  0  0  0
  160.0980  212.1790  157.2270 C   0  0  0  0  0  2  0  0  0  0  0  0
  159.8040  212.5920  155.7860 C   0  0  1  0  0  3  0  0  0  0  0  0
  160.2450  211.1570  156.1120 C   0  0  1  0  0  0  0  0  0  0  0  0
  159.4420  209.1310  157.1210 O   0  0  0  0  0  1  0  0  0  0  0  0
  159.1820  210.0540  156.1080 C   0  0  0  0  0  2  0  0  0  0  0  0
  157.5460  211.5590  155.7100 C   0  0  0  0  0  1  0  0  0  0  0  0
  158.3020  212.8580  155.4640 C   0  0  2  0  0  0  0  0  0  0  0  0
  155.8550  213.6340  153.7770 O   0  0  0  0  0  0  0  0  0  0  0  0
  157.3120  214.3110  149.5200 C   0  0  1  0  0  3  0  0  0  0  0  0
  157.0020  213.4860  153.2800 C   0  0  0  0  0  0  0  0  0  0  0  0
  158.8590  214.2560  149.6540 C   0  0  0  0  0  2  0  0  0  0  0  0
  156.8630  213.1570  148.8730 O   0  0  0  0  0  1  0  0  0  0  0  0
  159.2850  213.0710  153.0820 C   0  0  0  0  0  2  0  0  0  0  0  0
  156.6410  214.4530  150.9080 C   0  0  1  0  0  3  0  0  0  0  0  0
  158.7450  213.7140  151.8150 C   0  0  1  0  0  3  0  0  0  0  0  0
  159.2930  213.2900  150.6000 O   0  0  0  0  0  0  0  0  0  0  0  0
  155.2630  214.2460  150.8090 O   0  0  0  0  0  1  0  0  0  0  0  0
  157.2680  213.4210  151.8290 C   0  0  1  0  0  3  0  0  0  0  0  0
  158.1960  213.2580  154.0450 N   0  0  0  0  0  0  0  0  0  0  0  0
  156.4560  213.4060  156.9760 O   0  0  0  0  0  1  0  0  0  0  0  0
  157.5960  213.9100  156.3450 C   0  0  0  0  0  2  0  0  0  0  0  0
  161.9430  210.4960  153.1880 N   0  0  0  0  0  2  0  0  0  0  0  0
  161.0740  210.6670  151.0450 O   0  0  0  0  0  1  0  0  0  0  0  0
  161.2070  209.8030  152.1330 C   0  0  1  0  0  3  0  0  0  0  0  0
  161.2270  207.2890  152.2780 C   0  0  0  0  0  2  0  0  0  0  0  0
  162.7360  207.1250  149.7760 C   0  0  0  0  0  2  0  0  0  0  0  0
  161.9390  206.0220  151.8210 C   0  0  2  0  0  3  0  0  0  0  0  0
  162.0100  206.0000  150.3550 N   0  0  0  0  0  0  0  0  0  0  0  0
  162.0360  208.4210  150.1790 C   0  0  0  0  0  2  0  0  0  0  0  0
  161.0120  205.3500  149.5420 C   0  0  0  0  0  0  0  0  0  0  0  0
  161.9410  208.5230  151.7100 C   0  0  1  0  0  3  0  0  0  0  0  0
  161.2990  204.7750  152.4120 C   0  0  0  0  0  1  0  0  0  0  0  0
  159.8250  205.2630  149.9570 O   0  0  0  0  0  0  0  0  0  0  0  0
  160.4110  205.1530  147.2190 O   0  0  0  0  0  0  0  0  0  0  0  0
  161.3520  204.7820  148.1820 C   0  0  1  0  0  0  0  0  0  0  0  0
  161.4750  205.8200  146.5990 C   0  0  1  0  0  3  0  0  0  0  0  0
  162.4210  205.4340  147.5580 O   0  0  0  0  0  0  0  0  0  0  0  0
  161.2310  206.0850  144.4180 C   0  0  0  0  0  1  0  0  0  0  0  0
  161.7680  205.2190  145.3700 O   0  0  0  0  0  0  0  0  0  0  0  0
  161.5560  203.2670  148.2090 C   0  0  0  0  0  2  0  0  0  0  0  0
  161.3110  202.7670  149.4900 O   0  0  0  0  0  0  0  0  0  0  0  0
  161.1220  201.0490  148.0060 O   0  0  0  0  0  1  0  0  0  0  0  0
  160.7730  201.4970  149.2790 C   0  0  0  0  0  3  0  0  0  0  0  0
  159.3830  201.5550  149.3860 O   0  0  0  0  0  1  0  0  0  0  0  0
  1  3  1  0  0  0  0
  3  6  1  0  0  0  0
  3  2  1  1  0  0  0
  5 10  1  1  0  0  0
  5  6  1  0  0  0  0
  5  4  1  0  0  0  0
  6  8  1  6  0  0  0
  6  4  1  0  0  0  0
  8  7  1  0  0  0  0
 10  9  1  1  0  0  0
 10 24  1  0  0  0  0
 12 15  1  1  0  0  0
 12 14  1  0  0  0  0
 12 17  1  0  0  0  0
 13 11  2  0  0  0  0
 13 22  1  0  0  0  0
 14 19  1  0  0  0  0
 16 22  1  0  0  0  0
 17 20  1  6  0  0  0
 17 21  1  0  0  0  0
 18 21  1  0  0  0  0
 18 16  1  1  0  0  0
 19 18  1  0  0  0  0
 21 13  1  1  0  0  0
 22 10  1  0  0  0  0
 24 23  1  0  0  0  0
 25  1  1  0  0  0  0
 27 26  1  6  0  0  0
 27 25  1  0  0  0  0
 29 32  1  0  0  0  0
 29 31  1  0  0  0  0
 30 28  1  0  0  0  0
 30 35  1  6  0  0  0
 31 30  1  0  0  0  0
 32 34  1  0  0  0  0
 33 36  2  0  0  0  0
 33 31  1  0  0  0  0
 34 27  1  6  0  0  0
 34 28  1  0  0  0  0
 37 38  1  0  0  0  0
 38 43  1  1  0  0  0
 38 33  1  0  0  0  0
 39 42  1  6  0  0  0
 39 37  1  0  0  0  0
 39 40  1  0  0  0  0
 40 38  1  0  0  0  0
 41 42  1  0  0  0  0
 43 44  1  0  0  0  0
 45 46  1  0  0  0  0
 46 47  1  0  0  0  0
 46 44  1  0  0  0  0
M  END
>  <MODEL>
1

>  <REMARK>
 VINA RESULT:      -6.2      0.000      0.000
  Name = 
  14 active torsions:
  status: ('A' for Active; 'I' for Inactive)
    1  A    between atoms: N_14  and  C_25
    2  A    between atoms: N_14  and  C_41
    3  A    between atoms: C_16  and  C_45
    4  A    between atoms: O_18  and  C_28
    5  A    between atoms: O_18  and  C_36
    6  A    between atoms: C_19  and  C_24
    7  A    between atoms: C_19  and  C_36
    8  A    between atoms: C_22  and  O_34
    9  A    between atoms: C_25  and  C_31
   10  A    between atoms: C_35  and  C_45
   11  A    between atoms: C_38  and  C_47
   12  A    between atoms: C_40  and  C_41
   13  A    between atoms: C_40  and  C_47
   14  A    between atoms: N_43  and  C_45
                            x       y       z     vdW  Elec       q    Type
                         _______ _______ _______ _____ _____    ______ ____

>  <TORSDO>
F 14

$$$$
=
 OpenBabel11072414553D

 47 51  0  0  1  0  0  0  0  0999 V2000
  161.5720  212.8340  148.5550 C   0  0  0  0  0  2  0  0  0  0  0  0
  163.5680  213.1410  147.2730 O   0  0  0  0  0  1  0  0  0  0  0  0
  162.2350  212.7290  147.1830 C   0  0  2  0  0  3  0  0  0  0  0  0
  162.2820  214.3740  145.1490 C   0  0  0  0  0  2  0  0  0  0  0  0
  161.7730  213.0110  144.6810 C   0  0  1  0  0  3  0  0  0  0  0  0
  161.4640  213.5140  146.1000 C   0  0  1  0  0  0  0  0  0  0  0  0
  159.4400  213.2540  147.3650 O   0  0  0  0  0  1  0  0  0  0  0  0
  160.0560  214.0400  146.3910 C   0  0  0  0  0  2  0  0  0  0  0  0
  159.4780  212.2320  144.1380 C   0  0  0  0  0  1  0  0  0  0  0  0
  160.6430  213.0570  143.6080 C   0  0  2  0  0  0  0  0  0  0  0  0
  162.9380  213.9580  141.7740 O   0  0  0  0  0  0  0  0  0  0  0  0
  163.0030  211.1310  138.2090 C   0  0  1  0  0  3  0  0  0  0  0  0
  162.1640  213.0110  141.4760 C   0  0  0  0  0  0  0  0  0  0  0  0
  161.9880  210.0240  138.6070 C   0  0  0  0  0  2  0  0  0  0  0  0
  162.4500  211.9240  137.2000 O   0  0  0  0  0  1  0  0  0  0  0  0
  160.4460  211.4420  141.5980 C   0  0  0  0  0  2  0  0  0  0  0  0
  163.3860  211.9970  139.4350 C   0  0  1  0  0  3  0  0  0  0  0  0
  161.4130  211.0940  140.4780 C   0  0  1  0  0  3  0  0  0  0  0  0
  160.8690  210.5350  139.3160 O   0  0  0  0  0  0  0  0  0  0  0  0
  164.0880  213.1340  139.0300 O   0  0  0  0  0  1  0  0  0  0  0  0
  162.0990  212.3910  140.1380 C   0  0  1  0  0  3  0  0  0  0  0  0
  161.1670  212.4680  142.3570 N   0  0  0  0  0  0  0  0  0  0  0  0
  158.6610  214.4210  143.1570 O   0  0  0  0  0  1  0  0  0  0  0  0
  160.0490  214.4490  143.3070 C   0  0  0  0  0  2  0  0  0  0  0  0
  162.4100  212.2590  149.6000 N   0  0  0  0  0  2  0  0  0  0  0  0
  160.3810  211.1490  149.7720 O   0  0  0  0  0  1  0  0  0  0  0  0
  161.6860  211.1800  150.2670 C   0  0  1  0  0  3  0  0  0  0  0  0
  161.9860  208.8300  151.1220 C   0  0  0  0  0  2  0  0  0  0  0  0
  162.6950  207.9100  148.4360 C   0  0  0  0  0  2  0  0  0  0  0  0
  162.6470  207.4840  150.8540 C   0  0  2  0  0  3  0  0  0  0  0  0
  162.2830  207.0160  149.5110 N   0  0  0  0  0  0  0  0  0  0  0  0
  162.0260  209.2680  148.6420 C   0  0  0  0  0  2  0  0  0  0  0  0
  161.1560  206.1490  149.2740 C   0  0  0  0  0  0  0  0  0  0  0  0
  162.3790  209.8320  150.0270 C   0  0  1  0  0  3  0  0  0  0  0  0
  162.3320  206.4770  151.9500 C   0  0  0  0  0  1  0  0  0  0  0  0
  160.1580  206.1930  150.0440 O   0  0  0  0  0  0  0  0  0  0  0  0
  160.2060  205.5900  147.1330 O   0  0  0  0  0  0  0  0  0  0  0  0
  161.1300  205.1930  148.1020 C   0  0  1  0  0  0  0  0  0  0  0  0
  161.3180  205.7270  146.2920 C   0  0  1  0  0  3  0  0  0  0  0  0
  162.2410  205.3130  147.2610 O   0  0  0  0  0  0  0  0  0  0  0  0
  161.5490  205.5140  144.1040 C   0  0  0  0  0  1  0  0  0  0  0  0
  161.2570  204.7870  145.2570 O   0  0  0  0  0  0  0  0  0  0  0  0
  160.9020  203.7420  148.5280 C   0  0  0  0  0  2  0  0  0  0  0  0
  161.7070  203.4260  149.6250 O   0  0  0  0  0  0  0  0  0  0  0  0
  159.6890  202.3920  149.8400 O   0  0  0  0  0  1  0  0  0  0  0  0
  160.8600  202.7520  150.5050 C   0  0  0  0  0  3  0  0  0  0  0  0
  160.5480  203.5820  151.5810 O   0  0  0  0  0  1  0  0  0  0  0  0
  1 25  1  0  0  0  0
  3  2  1  1  0  0  0
  3  1  1  0  0  0  0
  4  6  1  0  0  0  0
  5 10  1  6  0  0  0
  5  4  1  0  0  0  0
  5  6  1  0  0  0  0
  6  8  1  1  0  0  0
  6  3  1  0  0  0  0
  8  7  1  0  0  0  0
 10  9  1  1  0  0  0
 12 15  1  6  0  0  0
 12 14  1  0  0  0  0
 12 17  1  0  0  0  0
 13 11  2  0  0  0  0
 13 22  1  0  0  0  0
 14 19  1  0  0  0  0
 16 22  1  0  0  0  0
 17 20  1  6  0  0  0
 17 21  1  0  0  0  0
 18 16  1  1  0  0  0
 19 18  1  0  0  0  0
 21 18  1  0  0  0  0
 21 13  1  1  0  0  0
 22 10  1  0  0  0  0
 23 24  1  0  0  0  0
 24 10  1  0  0  0  0
 25 27  1  0  0  0  0
 27 26  1  6  0  0  0
 29 32  1  0  0  0  0
 29 31  1  0  0  0  0
 30 28  1  0  0  0  0
 30 35  1  1  0  0  0
 31 30  1  0  0  0  0
 32 34  1  0  0  0  0
 33 31  1  0  0  0  0
 33 36  2  0  0  0  0
 34 27  1  1  0  0  0
 34 28  1  0  0  0  0
 37 38  1  0  0  0  0
 38 43  1  1  0  0  0
 38 33  1  0  0  0  0
 39 42  1  6  0  0  0
 39 37  1  0  0  0  0
 39 40  1  0  0  0  0
 40 38  1  0  0  0  0
 41 42  1  0  0  0  0
 43 44  1  0  0  0  0
 44 46  1  0  0  0  0
 45 46  1  0  0  0  0
 46 47  1  0  0  0  0
M  END
>  <MODEL>
2

>  <REMARK>
 VINA RESULT:      -4.9      5.109      8.671
  Name = 
  14 active torsions:
  status: ('A' for Active; 'I' for Inactive)
    1  A    between atoms: N_14  and  C_25
    2  A    between atoms: N_14  and  C_41
    3  A    between atoms: C_16  and  C_45
    4  A    between atoms: O_18  and  C_28
    5  A    between atoms: O_18  and  C_36
    6  A    between atoms: C_19  and  C_24
    7  A    between atoms: C_19  and  C_36
    8  A    between atoms: C_22  and  O_34
    9  A    between atoms: C_25  and  C_31
   10  A    between atoms: C_35  and  C_45
   11  A    between atoms: C_38  and  C_47
   12  A    between atoms: C_40  and  C_41
   13  A    between atoms: C_40  and  C_47
   14  A    between atoms: N_43  and  C_45
                            x       y       z     vdW  Elec       q    Type
                         _______ _______ _______ _____ _____    ______ ____

>  <TORSDO>
F 14

$$$$
=
 OpenBabel11072414553D

 47 51  0  0  1  0  0  0  0  0999 V2000
  161.7710  211.3880  149.4120 C   0  0  0  0  0  2  0  0  0  0  0  0
  162.4520  209.3530  148.3550 O   0  0  0  0  0  1  0  0  0  0  0  0
  162.5040  210.0560  149.5620 C   0  0  2  0  0  3  0  0  0  0  0  0
  160.4610  208.9550  150.7690 C   0  0  0  0  0  2  0  0  0  0  0  0
  161.4070  207.8580  150.2820 C   0  0  1  0  0  3  0  0  0  0  0  0
  161.9580  209.2180  150.7380 C   0  0  1  0  0  0  0  0  0  0  0  0
  161.9970  210.2790  152.8920 O   0  0  0  0  0  1  0  0  0  0  0  0
  162.6230  209.3050  152.1150 C   0  0  0  0  0  2  0  0  0  0  0  0
  162.9890  206.6170  151.7400 C   0  0  0  0  0  1  0  0  0  0  0  0
  161.5520  206.6340  151.2360 C   0  0  2  0  0  0  0  0  0  0  0  0
  161.0400  203.7510  152.1670 O   0  0  0  0  0  0  0  0  0  0  0  0
  160.5860  201.1890  148.4340 C   0  0  1  0  0  3  0  0  0  0  0  0
  161.1570  204.0600  150.9520 C   0  0  0  0  0  0  0  0  0  0  0  0
  160.5420  202.2320  147.2820 C   0  0  0  0  0  2  0  0  0  0  0  0
  161.8070  200.5110  148.3970 O   0  0  0  0  0  1  0  0  0  0  0  0
  161.4540  205.3160  149.0130 C   0  0  0  0  0  2  0  0  0  0  0  0
  160.3830  201.8740  149.8080 C   0  0  1  0  0  3  0  0  0  0  0  0
  160.9340  203.9270  148.6790 C   0  0  1  0  0  3  0  0  0  0  0  0
  161.4120  203.3320  147.5060 O   0  0  0  0  0  0  0  0  0  0  0  0
  160.6750  200.9840  150.8440 O   0  0  0  0  0  1  0  0  0  0  0  0
  161.3100  203.0760  149.8630 C   0  0  1  0  0  3  0  0  0  0  0  0
  161.2610  205.4070  150.4630 N   0  0  0  0  0  0  0  0  0  0  0  0
  161.4310  206.6130  153.6810 O   0  0  0  0  0  1  0  0  0  0  0  0
  160.6770  206.6560  152.5070 C   0  0  0  0  0  2  0  0  0  0  0  0
  161.6630  211.7850  148.0130 N   0  0  0  0  0  2  0  0  0  0  0  0
  160.4930  213.5080  149.0310 O   0  0  0  0  0  1  0  0  0  0  0  0
  160.5770  212.7500  147.8620 C   0  0  1  0  0  3  0  0  0  0  0  0
  162.1500  213.2930  145.9720 C   0  0  0  0  0  2  0  0  0  0  0  0
  159.9470  214.4520  144.4320 C   0  0  0  0  0  2  0  0  0  0  0  0
  162.3670  214.1770  144.7490 C   0  0  2  0  0  3  0  0  0  0  0  0
  161.2200  214.0520  143.8420 N   0  0  0  0  0  0  0  0  0  0  0  0
  159.6670  213.5680  145.6450 C   0  0  0  0  0  2  0  0  0  0  0  0
  161.1920  213.1050  142.7560 C   0  0  0  0  0  0  0  0  0  0  0  0
  160.8240  213.6610  146.6520 C   0  0  1  0  0  3  0  0  0  0  0  0
  163.7010  213.8850  144.0780 C   0  0  0  0  0  1  0  0  0  0  0  0
  161.8380  212.0260  142.8490 O   0  0  0  0  0  0  0  0  0  0  0  0
  159.4210  212.3740  141.2970 O   0  0  0  0  0  0  0  0  0  0  0  0
  160.3840  213.3650  141.5040 C   0  0  1  0  0  0  0  0  0  0  0  0
  158.4880  213.4070  141.4550 C   0  0  1  0  0  3  0  0  0  0  0  0
  159.4550  214.4020  141.6470 O   0  0  0  0  0  0  0  0  0  0  0  0
  156.6910  214.3810  140.6130 C   0  0  0  0  0  1  0  0  0  0  0  0
  157.8070  213.6270  140.2520 O   0  0  0  0  0  0  0  0  0  0  0  0
  161.2590  213.5600  140.2660 C   0  0  0  0  0  2  0  0  0  0  0  0
  161.2540  212.4030  139.4820 O   0  0  0  0  0  0  0  0  0  0  0  0
  163.1370  213.3470  138.6140 O   0  0  0  0  0  1  0  0  0  0  0  0
  162.5950  212.1860  139.1620 C   0  0  0  0  0  3  0  0  0  0  0  0
  162.6920  211.1460  138.2380 O   0  0  0  0  0  1  0  0  0  0  0  0
  1  3  1  0  0  0  0
  3  2  1  6  0  0  0
  3  6  1  0  0  0  0
  5  6  1  0  0  0  0
  5  4  1  0  0  0  0
  5 10  1  1  0  0  0
  6  4  1  0  0  0  0
  6  8  1  1  0  0  0
  8  7  1  0  0  0  0
 10  9  1  1  0  0  0
 10 24  1  0  0  0  0
 12 15  1  1  0  0  0
 12 17  1  0  0  0  0
 13 11  2  0  0  0  0
 14 19  1  0  0  0  0
 14 12  1  0  0  0  0
 16 22  1  0  0  0  0
 17 21  1  0  0  0  0
 17 20  1  1  0  0  0
 18 16  1  1  0  0  0
 18 21  1  0  0  0  0
 19 18  1  0  0  0  0
 21 13  1  1  0  0  0
 22 13  1  0  0  0  0
 22 10  1  0  0  0  0
 24 23  1  0  0  0  0
 25  1  1  0  0  0  0
 27 25  1  0  0  0  0
 27 26  1  1  0  0  0
 28 34  1  0  0  0  0
 29 32  1  0  0  0  0
 30 35  1  6  0  0  0
 30 28  1  0  0  0  0
 31 29  1  0  0  0  0
 31 30  1  0  0  0  0
 32 34  1  0  0  0  0
 33 36  2  0  0  0  0
 33 31  1  0  0  0  0
 34 27  1  1  0  0  0
 37 39  1  0  0  0  0
 37 38  1  0  0  0  0
 38 43  1  6  0  0  0
 38 40  1  0  0  0  0
 38 33  1  0  0  0  0
 39 42  1  6  0  0  0
 39 40  1  0  0  0  0
 42 41  1  0  0  0  0
 44 43  1  0  0  0  0
 45 46  1  0  0  0  0
 46 44  1  0  0  0  0
 47 46  1  0  0  0  0
M  END
>  <MODEL>
3

>  <REMARK>
 VINA RESULT:      -4.7      5.346     10.219
  Name = 
  14 active torsions:
  status: ('A' for Active; 'I' for Inactive)
    1  A    between atoms: N_14  and  C_25
    2  A    between atoms: N_14  and  C_41
    3  A    between atoms: C_16  and  C_45
    4  A    between atoms: O_18  and  C_28
    5  A    between atoms: O_18  and  C_36
    6  A    between atoms: C_19  and  C_24
    7  A    between atoms: C_19  and  C_36
    8  A    between atoms: C_22  and  O_34
    9  A    between atoms: C_25  and  C_31
   10  A    between atoms: C_35  and  C_45
   11  A    between atoms: C_38  and  C_47
   12  A    between atoms: C_40  and  C_41
   13  A    between atoms: C_40  and  C_47
   14  A    between atoms: N_43  and  C_45
                            x       y       z     vdW  Elec       q    Type
                         _______ _______ _______ _____ _____    ______ ____

>  <TORSDO>
F 14

$$$$
=
 OpenBabel11072414553D

 47 51  0  0  1  0  0  0  0  0999 V2000
  161.1220  206.9960  154.1720 C   0  0  0  0  0  2  0  0  0  0  0  0
  159.8540  208.5760  152.9010 O   0  0  0  0  0  1  0  0  0  0  0  0
  161.1590  208.1890  153.2190 C   0  0  2  0  0  3  0  0  0  0  0  0
  162.7410  206.5780  151.8980 C   0  0  0  0  0  2  0  0  0  0  0  0
  161.4290  206.7320  151.1310 C   0  0  1  0  0  3  0  0  0  0  0  0
  161.9950  207.9010  151.9530 C   0  0  1  0  0  0  0  0  0  0  0  0
  161.8470  210.1750  151.1980 O   0  0  0  0  0  1  0  0  0  0  0  0
  162.6730  209.0520  151.2040 C   0  0  0  0  0  2  0  0  0  0  0  0
  160.5460  207.7740  149.0560 C   0  0  0  0  0  1  0  0  0  0  0  0
  161.5680  206.7730  149.5790 C   0  0  2  0  0  0  0  0  0  0  0  0
  160.7960  204.1780  151.0300 O   0  0  0  0  0  0  0  0  0  0  0  0
  160.5640  200.8940  147.8880 C   0  0  1  0  0  3  0  0  0  0  0  0
  161.0510  204.2150  149.7980 C   0  0  0  0  0  0  0  0  0  0  0  0
  160.6980  201.6680  146.5460 C   0  0  0  0  0  2  0  0  0  0  0  0
  161.7400  200.1800  148.1290 O   0  0  0  0  0  1  0  0  0  0  0  0
  161.6140  205.0140  147.6840 C   0  0  0  0  0  2  0  0  0  0  0  0
  160.2670  201.8640  149.0580 C   0  0  1  0  0  3  0  0  0  0  0  0
  161.0490  203.6060  147.5920 C   0  0  1  0  0  3  0  0  0  0  0  0
  161.6040  202.7570  146.6300 O   0  0  0  0  0  0  0  0  0  0  0  0
  160.4010  201.2070  150.2830 O   0  0  0  0  0  1  0  0  0  0  0  0
  161.2530  203.0150  148.9620 C   0  0  1  0  0  3  0  0  0  0  0  0
  161.2830  205.4210  149.0520 N   0  0  0  0  0  0  0  0  0  0  0  0
  162.7920  208.2530  148.0610 O   0  0  0  0  0  1  0  0  0  0  0  0
  162.9270  207.2580  149.0310 C   0  0  0  0  0  2  0  0  0  0  0  0
  159.9780  207.0660  155.0740 N   0  0  0  0  0  2  0  0  0  0  0  0
  161.8210  207.5230  156.4050 O   0  0  0  0  0  1  0  0  0  0  0  0
  160.4260  207.4950  156.3960 C   0  0  1  0  0  3  0  0  0  0  0  0
  160.9830  209.9300  156.7140 C   0  0  0  0  0  2  0  0  0  0  0  0
  158.2220  210.6750  156.0930 C   0  0  0  0  0  2  0  0  0  0  0  0
  160.4080  211.3090  157.0140 C   0  0  2  0  0  3  0  0  0  0  0  0
  159.3370  211.6140  156.0580 N   0  0  0  0  0  0  0  0  0  0  0  0
  158.7440  209.2780  155.7610 C   0  0  0  0  0  2  0  0  0  0  0  0
  159.5770  212.3330  154.8320 C   0  0  0  0  0  0  0  0  0  0  0  0
  159.8630  208.8810  156.7370 C   0  0  1  0  0  3  0  0  0  0  0  0
  161.4960  212.3710  157.0600 C   0  0  0  0  0  1  0  0  0  0  0  0
  160.7020  212.2530  154.2690 O   0  0  0  0  0  0  0  0  0  0  0  0
  157.2610  212.5190  154.1970 O   0  0  0  0  0  0  0  0  0  0  0  0
  158.4960  213.1720  154.1870 C   0  0  1  0  0  0  0  0  0  0  0  0
  156.8350  213.5790  155.0080 C   0  0  1  0  0  3  0  0  0  0  0  0
  158.0700  214.2400  154.9840 O   0  0  0  0  0  0  0  0  0  0  0  0
  154.7920  214.3940  155.2170 C   0  0  0  0  0  1  0  0  0  0  0  0
  155.8720  214.3400  154.3370 O   0  0  0  0  0  0  0  0  0  0  0  0
  158.8700  213.6360  152.7790 C   0  0  0  0  0  2  0  0  0  0  0  0
  158.3260  212.7740  151.8230 O   0  0  0  0  0  0  0  0  0  0  0  0
  157.4040  213.0160  149.7550 O   0  0  0  0  0  1  0  0  0  0  0  0
  158.3830  213.4890  150.6270 C   0  0  0  0  0  3  0  0  0  0  0  0
  159.6400  213.3280  150.0460 O   0  0  0  0  0  1  0  0  0  0  0  0
  1 25  1  0  0  0  0
  3  2  1  6  0  0  0
  3  1  1  0  0  0  0
  4  6  1  0  0  0  0
  5 10  1  6  0  0  0
  5  4  1  0  0  0  0
  5  6  1  0  0  0  0
  6  8  1  6  0  0  0
  6  3  1  0  0  0  0
  7  8  1  0  0  0  0
 10  9  1  6  0  0  0
 12 15  1  1  0  0  0
 12 17  1  0  0  0  0
 13 11  2  0  0  0  0
 14 19  1  0  0  0  0
 14 12  1  0  0  0  0
 16 22  1  0  0  0  0
 17 20  1  1  0  0  0
 18 16  1  1  0  0  0
 18 21  1  0  0  0  0
 19 18  1  0  0  0  0
 21 17  1  0  0  0  0
 21 13  1  1  0  0  0
 22 10  1  0  0  0  0
 22 13  1  0  0  0  0
 23 24  1  0  0  0  0
 24 10  1  0  0  0  0
 25 27  1  0  0  0  0
 27 26  1  6  0  0  0
 28 34  1  0  0  0  0
 28 30  1  0  0  0  0
 30 35  1  6  0  0  0
 31 29  1  0  0  0  0
 31 30  1  0  0  0  0
 32 29  1  0  0  0  0
 32 34  1  0  0  0  0
 33 31  1  0  0  0  0
 34 27  1  6  0  0  0
 36 33  2  0  0  0  0
 37 39  1  0  0  0  0
 38 43  1  6  0  0  0
 38 37  1  0  0  0  0
 38 33  1  0  0  0  0
 38 40  1  0  0  0  0
 39 42  1  6  0  0  0
 40 39  1  0  0  0  0
 42 41  1  0  0  0  0
 44 43  1  0  0  0  0
 45 46  1  0  0  0  0
 46 44  1  0  0  0  0
 47 46  1  0  0  0  0
M  END
>  <MODEL>
4

>  <REMARK>
 VINA RESULT:      -4.7      1.840     10.022
  Name = 
  14 active torsions:
  status: ('A' for Active; 'I' for Inactive)
    1  A    between atoms: N_14  and  C_25
    2  A    between atoms: N_14  and  C_41
    3  A    between atoms: C_16  and  C_45
    4  A    between atoms: O_18  and  C_28
    5  A    between atoms: O_18  and  C_36
    6  A    between atoms: C_19  and  C_24
    7  A    between atoms: C_19  and  C_36
    8  A    between atoms: C_22  and  O_34
    9  A    between atoms: C_25  and  C_31
   10  A    between atoms: C_35  and  C_45
   11  A    between atoms: C_38  and  C_47
   12  A    between atoms: C_40  and  C_41
   13  A    between atoms: C_40  and  C_47
   14  A    between atoms: N_43  and  C_45
                            x       y       z     vdW  Elec       q    Type
                         _______ _______ _______ _____ _____    ______ ____

>  <TORSDO>
F 14

$$$$
=
 OpenBabel11072414553D

 47 51  0  0  1  0  0  0  0  0999 V2000
  159.1210  208.8650  154.9810 C   0  0  0  0  0  2  0  0  0  0  0  0
  159.0680  209.8250  157.1700 O   0  0  0  0  0  1  0  0  0  0  0  0
  159.7780  209.8280  155.9670 C   0  0  2  0  0  3  0  0  0  0  0  0
  160.4740  211.3810  153.9790 C   0  0  0  0  0  2  0  0  0  0  0  0
  158.9680  211.5000  154.2050 C   0  0  1  0  0  3  0  0  0  0  0  0
  159.9170  211.2530  155.3880 C   0  0  1  0  0  0  0  0  0  0  0  0
  161.4150  212.1780  157.0200 O   0  0  0  0  0  1  0  0  0  0  0  0
  160.2390  212.4290  156.3150 C   0  0  0  0  0  2  0  0  0  0  0  0
  156.9080  212.8730  154.4060 C   0  0  0  0  0  1  0  0  0  0  0  0
  158.3760  212.9280  154.0040 C   0  0  2  0  0  0  0  0  0  0  0  0
  156.2560  213.7480  151.9380 O   0  0  0  0  0  0  0  0  0  0  0  0
  158.3820  214.2380  147.9460 C   0  0  1  0  0  3  0  0  0  0  0  0
  157.4580  213.5400  151.6300 C   0  0  0  0  0  0  0  0  0  0  0  0
  159.8860  214.1260  148.3210 C   0  0  0  0  0  2  0  0  0  0  0  0
  157.9890  213.0830  147.2640 O   0  0  0  0  0  1  0  0  0  0  0  0
  159.7240  213.0290  151.8000 C   0  0  0  0  0  2  0  0  0  0  0  0
  157.5110  214.4480  149.2090 C   0  0  1  0  0  3  0  0  0  0  0  0
  159.4150  213.6550  150.4500 C   0  0  1  0  0  3  0  0  0  0  0  0
  160.1260  213.1730  149.3450 O   0  0  0  0  0  0  0  0  0  0  0  0
  156.1580  214.2930  148.9000 O   0  0  0  0  0  1  0  0  0  0  0  0
  157.9420  213.4210  150.2400 C   0  0  1  0  0  3  0  0  0  0  0  0
  158.5090  213.2890  152.5760 N   0  0  0  0  0  0  0  0  0  0  0  0
  158.2650  214.2820  156.0410 O   0  0  0  0  0  1  0  0  0  0  0  0
  158.9920  214.0450  154.8720 C   0  0  0  0  0  2  0  0  0  0  0  0
  159.8470  207.6030  154.9000 N   0  0  0  0  0  2  0  0  0  0  0  0
  161.8890  207.5890  155.9980 O   0  0  0  0  0  1  0  0  0  0  0  0
  161.2770  207.8700  154.7750 C   0  0  1  0  0  3  0  0  0  0  0  0
  160.9210  205.9020  153.2440 C   0  0  0  0  0  2  0  0  0  0  0  0
  162.8460  207.0000  151.3330 C   0  0  0  0  0  2  0  0  0  0  0  0
  161.5260  205.0810  152.1120 C   0  0  2  0  0  3  0  0  0  0  0  0
  161.8740  205.9670  150.9940 N   0  0  0  0  0  0  0  0  0  0  0  0
  162.2680  207.8740  152.4440 C   0  0  0  0  0  2  0  0  0  0  0  0
  160.9720  206.2210  149.8990 C   0  0  0  0  0  0  0  0  0  0  0  0
  161.8940  207.0130  153.6610 C   0  0  1  0  0  3  0  0  0  0  0  0
  160.6170  203.9300  151.7080 C   0  0  0  0  0  1  0  0  0  0  0  0
  159.7260  206.1700  150.0890 O   0  0  0  0  0  0  0  0  0  0  0  0
  162.1520  205.4970  147.9290 O   0  0  0  0  0  0  0  0  0  0  0  0
  161.4850  206.5730  148.5210 C   0  0  1  0  0  0  0  0  0  0  0  0
  161.1370  205.5450  146.9640 C   0  0  1  0  0  3  0  0  0  0  0  0
  160.4780  206.6330  147.5500 O   0  0  0  0  0  0  0  0  0  0  0  0
  160.9460  205.1750  144.7940 C   0  0  0  0  0  1  0  0  0  0  0  0
  161.6690  205.9180  145.7260 O   0  0  0  0  0  0  0  0  0  0  0  0
  162.3480  207.8350  148.5150 C   0  0  0  0  0  2  0  0  0  0  0  0
  161.5410  208.9730  148.4460 O   0  0  0  0  0  0  0  0  0  0  0  0
  161.6530  210.3110  150.2870 O   0  0  0  0  0  1  0  0  0  0  0  0
  162.2780  209.9700  149.0880 C   0  0  0  0  0  3  0  0  0  0  0  0
  162.3560  211.0940  148.2680 O   0  0  0  0  0  1  0  0  0  0  0  0
  1  3  1  0  0  0  0
  3  2  1  1  0  0  0
  4  5  1  0  0  0  0
  4  6  1  0  0  0  0
  5 10  1  1  0  0  0
  5  6  1  0  0  0  0
  6  3  1  0  0  0  0
  6  8  1  1  0  0  0
  8  7  1  0  0  0  0
 10  9  1  1  0  0  0
 10 24  1  0  0  0  0
 12 15  1  1  0  0  0
 12 14  1  0  0  0  0
 12 17  1  0  0  0  0
 13 11  2  0  0  0  0
 13 22  1  0  0  0  0
 14 19  1  0  0  0  0
 16 22  1  0  0  0  0
 17 20  1  6  0  0  0
 17 21  1  0  0  0  0
 18 16  1  1  0  0  0
 19 18  1  0  0  0  0
 21 18  1  0  0  0  0
 21 13  1  1  0  0  0
 22 10  1  0  0  0  0
 24 23  1  0  0  0  0
 25  1  1  0  0  0  0
 27 25  1  0  0  0  0
 27 26  1  1  0  0  0
 28 34  1  0  0  0  0
 29 32  1  0  0  0  0
 30 35  1  6  0  0  0
 30 28  1  0  0  0  0
 31 29  1  0  0  0  0
 31 30  1  0  0  0  0
 32 34  1  0  0  0  0
 33 36  2  0  0  0  0
 33 31  1  0  0  0  0
 34 27  1  1  0  0  0
 37 38  1  0  0  0  0
 38 43  1  1  0  0  0
 38 33  1  0  0  0  0
 39 42  1  6  0  0  0
 39 40  1  0  0  0  0
 39 37  1  0  0  0  0
 40 38  1  0  0  0  0
 41 42  1  0  0  0  0
 44 43  1  0  0  0  0
 44 46  1  0  0  0  0
 46 45  1  0  0  0  0
 47 46  1  0  0  0  0
M  END
>  <MODEL>
5

>  <REMARK>
 VINA RESULT:      -4.2      1.860      3.383
  Name = 
  14 active torsions:
  status: ('A' for Active; 'I' for Inactive)
    1  A    between atoms: N_14  and  C_25
    2  A    between atoms: N_14  and  C_41
    3  A    between atoms: C_16  and  C_45
    4  A    between atoms: O_18  and  C_28
    5  A    between atoms: O_18  and  C_36
    6  A    between atoms: C_19  and  C_24
    7  A    between atoms: C_19  and  C_36
    8  A    between atoms: C_22  and  O_34
    9  A    between atoms: C_25  and  C_31
   10  A    between atoms: C_35  and  C_45
   11  A    between atoms: C_38  and  C_47
   12  A    between atoms: C_40  and  C_41
   13  A    between atoms: C_40  and  C_47
   14  A    between atoms: N_43  and  C_45
                            x       y       z     vdW  Elec       q    Type
                         _______ _______ _______ _____ _____    ______ ____

>  <TORSDO>
F 14

$$$$
=
 OpenBabel11072414553D

 47 51  0  0  1  0  0  0  0  0999 V2000
  161.9560  206.2310  153.3680 C   0  0  0  0  0  2  0  0  0  0  0  0
  163.0160  207.4210  151.5850 O   0  0  0  0  0  1  0  0  0  0  0  0
  161.8330  207.3410  152.3260 C   0  0  2  0  0  3  0  0  0  0  0  0
  160.0020  208.9210  153.3230 C   0  0  0  0  0  2  0  0  0  0  0  0
  161.0020  208.5580  154.4200 C   0  0  1  0  0  3  0  0  0  0  0  0
  161.4610  208.6990  152.9600 C   0  0  1  0  0  0  0  0  0  0  0  0
  162.1480  210.1570  151.1800 O   0  0  0  0  0  1  0  0  0  0  0  0
  162.2230  209.9660  152.5600 C   0  0  0  0  0  2  0  0  0  0  0  0
  161.3360  209.1000  156.8210 C   0  0  0  0  0  1  0  0  0  0  0  0
  161.3340  209.7050  155.4220 C   0  0  2  0  0  0  0  0  0  0  0  0
  158.3600  209.6350  156.1900 O   0  0  0  0  0  0  0  0  0  0  0  0
  156.5400  213.5990  154.8960 C   0  0  1  0  0  3  0  0  0  0  0  0
  158.8770  210.6000  155.5690 C   0  0  0  0  0  0  0  0  0  0  0  0
  157.7750  214.4430  154.4710 C   0  0  0  0  0  2  0  0  0  0  0  0
  155.8190  213.2300  153.7570 O   0  0  0  0  0  1  0  0  0  0  0  0
  160.4450  211.9530  154.5030 C   0  0  0  0  0  2  0  0  0  0  0  0
  156.9740  212.3470  155.6960 C   0  0  1  0  0  3  0  0  0  0  0  0
  159.1670  212.7280  154.7800 C   0  0  1  0  0  3  0  0  0  0  0  0
  158.7710  213.6670  153.8220 O   0  0  0  0  0  0  0  0  0  0  0  0
  155.8990  211.4700  155.8520 O   0  0  0  0  0  1  0  0  0  0  0  0
  158.0990  211.6770  154.9260 C   0  0  1  0  0  3  0  0  0  0  0  0
  160.2830  210.7390  155.3080 N   0  0  0  0  0  0  0  0  0  0  0  0
  163.3470  210.5990  156.4900 O   0  0  0  0  0  1  0  0  0  0  0  0
  162.7190  210.3650  155.2640 C   0  0  0  0  0  2  0  0  0  0  0  0
  161.0340  205.1350  153.0940 N   0  0  0  0  0  2  0  0  0  0  0  0
  161.1980  203.0450  152.1020 O   0  0  0  0  0  1  0  0  0  0  0  0
  161.4860  204.3990  151.9170 C   0  0  1  0  0  3  0  0  0  0  0  0
  161.4510  206.2310  150.1890 C   0  0  0  0  0  2  0  0  0  0  0  0
  160.1850  204.4300  148.2600 C   0  0  0  0  0  2  0  0  0  0  0  0
  160.7840  206.7220  148.9100 C   0  0  2  0  0  3  0  0  0  0  0  0
  160.8520  205.6720  147.8860 N   0  0  0  0  0  0  0  0  0  0  0  0
  160.8450  203.8790  149.5230 C   0  0  0  0  0  2  0  0  0  0  0  0
  161.9210  205.6010  146.9220 C   0  0  0  0  0  0  0  0  0  0  0  0
  160.7950  204.9220  150.6500 C   0  0  1  0  0  3  0  0  0  0  0  0
  161.3650  208.0510  148.4510 C   0  0  0  0  0  1  0  0  0  0  0  0
  163.0640  206.0420  147.2200 O   0  0  0  0  0  0  0  0  0  0  0  0
  160.5960  205.5250  144.9130 O   0  0  0  0  0  0  0  0  0  0  0  0
  161.7110  204.9840  145.5570 C   0  0  1  0  0  0  0  0  0  0  0  0
  161.5110  205.9870  143.9590 C   0  0  1  0  0  3  0  0  0  0  0  0
  162.6270  205.4310  144.5970 O   0  0  0  0  0  0  0  0  0  0  0  0
  161.8390  206.2080  141.7840 C   0  0  0  0  0  1  0  0  0  0  0  0
  161.2930  205.3460  142.7340 O   0  0  0  0  0  0  0  0  0  0  0  0
  161.6440  203.4580  145.6020 C   0  0  0  0  0  2  0  0  0  0  0  0
  160.5300  203.0000  144.8930 O   0  0  0  0  0  0  0  0  0  0  0  0
  160.9690  201.6270  146.6570 O   0  0  0  0  0  1  0  0  0  0  0  0
  160.0990  201.8750  145.5970 C   0  0  0  0  0  3  0  0  0  0  0  0
  160.0770  200.7710  144.7450 O   0  0  0  0  0  1  0  0  0  0  0  0
  3  2  1  1  0  0  0
  3  6  1  0  0  0  0
  3  1  1  0  0  0  0
  4  5  1  0  0  0  0
  5 10  1  1  0  0  0
  6  8  1  6  0  0  0
  6  4  1  0  0  0  0
  6  5  1  0  0  0  0
  7  8  1  0  0  0  0
 10  9  1  1  0  0  0
 12 15  1  6  0  0  0
 12 17  1  0  0  0  0
 13 11  2  0  0  0  0
 14 12  1  0  0  0  0
 16 22  1  0  0  0  0
 17 20  1  6  0  0  0
 18 16  1  6  0  0  0
 18 21  1  0  0  0  0
 19 14  1  0  0  0  0
 19 18  1  0  0  0  0
 21 13  1  1  0  0  0
 21 17  1  0  0  0  0
 22 10  1  0  0  0  0
 22 13  1  0  0  0  0
 24 10  1  0  0  0  0
 24 23  1  0  0  0  0
 25  1  1  0  0  0  0
 27 26  1  1  0  0  0
 27 25  1  0  0  0  0
 28 34  1  0  0  0  0
 29 32  1  0  0  0  0
 30 35  1  6  0  0  0
 30 28  1  0  0  0  0
 31 29  1  0  0  0  0
 31 30  1  0  0  0  0
 32 34  1  0  0  0  0
 33 36  2  0  0  0  0
 33 31  1  0  0  0  0
 34 27  1  1  0  0  0
 37 38  1  0  0  0  0
 38 43  1  1  0  0  0
 38 33  1  0  0  0  0
 39 42  1  6  0  0  0
 39 40  1  0  0  0  0
 39 37  1  0  0  0  0
 40 38  1  0  0  0  0
 41 42  1  0  0  0  0
 44 46  1  0  0  0  0
 44 43  1  0  0  0  0
 46 45  1  0  0  0  0
 47 46  1  0  0  0  0
M  END
>  <MODEL>
6

>  <REMARK>
 VINA RESULT:      -3.8      2.307      4.454
  Name = 
  14 active torsions:
  status: ('A' for Active; 'I' for Inactive)
    1  A    between atoms: N_14  and  C_25
    2  A    between atoms: N_14  and  C_41
    3  A    between atoms: C_16  and  C_45
    4  A    between atoms: O_18  and  C_28
    5  A    between atoms: O_18  and  C_36
    6  A    between atoms: C_19  and  C_24
    7  A    between atoms: C_19  and  C_36
    8  A    between atoms: C_22  and  O_34
    9  A    between atoms: C_25  and  C_31
   10  A    between atoms: C_35  and  C_45
   11  A    between atoms: C_38  and  C_47
   12  A    between atoms: C_40  and  C_41
   13  A    between atoms: C_40  and  C_47
   14  A    between atoms: N_43  and  C_45
                            x       y       z     vdW  Elec       q    Type
                         _______ _______ _______ _____ _____    ______ ____

>  <TORSDO>
F 14

$$$$
=
 OpenBabel11072414553D

 47 51  0  0  1  0  0  0  0  0999 V2000
  162.3210  210.5860  148.2120 C   0  0  0  0  0  2  0  0  0  0  0  0
  161.9850  210.2230  150.5510 O   0  0  0  0  0  1  0  0  0  0  0  0
  161.6130  209.7630  149.2850 C   0  0  2  0  0  3  0  0  0  0  0  0
  160.8930  207.3010  149.8000 C   0  0  0  0  0  2  0  0  0  0  0  0
  160.7830  207.5510  148.2970 C   0  0  1  0  0  3  0  0  0  0  0  0
  161.8720  208.2490  149.1270 C   0  0  1  0  0  0  0  0  0  0  0  0
  163.5540  206.7970  150.0380 O   0  0  0  0  0  1  0  0  0  0  0  0
  163.3070  207.7240  149.0260 C   0  0  0  0  0  2  0  0  0  0  0  0
  160.1630  206.2590  146.2690 C   0  0  0  0  0  1  0  0  0  0  0  0
  161.1870  206.3480  147.3920 C   0  0  2  0  0  0  0  0  0  0  0  0
  161.5330  203.3990  146.6030 O   0  0  0  0  0  0  0  0  0  0  0  0
  160.8840  200.9140  150.3590 C   0  0  1  0  0  3  0  0  0  0  0  0
  161.2020  203.7560  147.7650 C   0  0  0  0  0  0  0  0  0  0  0  0
  160.8110  201.9790  151.4890 C   0  0  0  0  0  2  0  0  0  0  0  0
  159.6100  200.3850  150.1400 O   0  0  0  0  0  1  0  0  0  0  0  0
  160.6580  205.0950  149.5910 C   0  0  0  0  0  2  0  0  0  0  0  0
  161.4510  201.5290  149.0560 C   0  0  1  0  0  3  0  0  0  0  0  0
  160.9260  203.6650  150.0340 C   0  0  1  0  0  3  0  0  0  0  0  0
  160.1460  203.1650  151.0820 O   0  0  0  0  0  0  0  0  0  0  0  0
  161.2780  200.6500  147.9860 O   0  0  0  0  0  1  0  0  0  0  0  0
  160.7080  202.8290  148.8010 C   0  0  1  0  0  3  0  0  0  0  0  0
  161.1600  205.1190  148.2150 N   0  0  0  0  0  0  0  0  0  0  0  0
  162.4950  206.0980  145.3380 O   0  0  0  0  0  1  0  0  0  0  0  0
  162.5540  206.4600  146.6850 C   0  0  0  0  0  2  0  0  0  0  0  0
  161.3690  211.2870  147.3580 N   0  0  0  0  0  2  0  0  0  0  0  0
  162.3700  212.9720  148.5980 O   0  0  0  0  0  1  0  0  0  0  0  0
  161.2830  212.6860  147.7700 C   0  0  1  0  0  3  0  0  0  0  0  0
  162.5810  213.4300  145.7450 C   0  0  0  0  0  2  0  0  0  0  0  0
  160.1050  214.2560  144.4220 C   0  0  0  0  0  2  0  0  0  0  0  0
  162.5580  214.3260  144.5120 C   0  0  2  0  0  3  0  0  0  0  0  0
  161.3610  214.0340  143.7150 N   0  0  0  0  0  0  0  0  0  0  0  0
  160.0650  213.3500  145.6510 C   0  0  0  0  0  2  0  0  0  0  0  0
  161.3670  213.0840  142.6310 C   0  0  0  0  0  0  0  0  0  0  0  0
  161.2860  213.6140  146.5480 C   0  0  1  0  0  3  0  0  0  0  0  0
  163.8520  214.2200  143.7190 C   0  0  0  0  0  1  0  0  0  0  0  0
  162.1640  212.1070  142.6570 O   0  0  0  0  0  0  0  0  0  0  0  0
  159.2910  212.4070  141.6150 O   0  0  0  0  0  0  0  0  0  0  0  0
  160.4170  213.2180  141.4610 C   0  0  1  0  0  0  0  0  0  0  0  0
  158.5690  213.6070  141.6330 C   0  0  1  0  0  3  0  0  0  0  0  0
  159.6980  214.4180  141.4620 O   0  0  0  0  0  0  0  0  0  0  0  0
  156.6550  214.4520  140.9190 C   0  0  0  0  0  1  0  0  0  0  0  0
  157.7460  213.6890  140.5040 O   0  0  0  0  0  0  0  0  0  0  0  0
  161.1000  212.9730  140.1150 C   0  0  0  0  0  2  0  0  0  0  0  0
  160.8040  211.6900  139.6470 O   0  0  0  0  0  0  0  0  0  0  0  0
  163.0750  211.8350  139.5380 O   0  0  0  0  0  1  0  0  0  0  0  0
  161.9380  211.3030  138.9320 C   0  0  0  0  0  3  0  0  0  0  0  0
  161.8460  211.7730  137.6220 O   0  0  0  0  0  1  0  0  0  0  0  0
  1  3  1  0  0  0  0
  3  2  1  1  0  0  0
  5 10  1  6  0  0  0
  5  6  1  0  0  0  0
  5  4  1  0  0  0  0
  6  8  1  6  0  0  0
  6  3  1  0  0  0  0
  6  4  1  0  0  0  0
  8  7  1  0  0  0  0
 10  9  1  6  0  0  0
 10 22  1  0  0  0  0
 11 13  2  0  0  0  0
 12 15  1  6  0  0  0
 12 14  1  0  0  0  0
 13 22  1  0  0  0  0
 17 20  1  6  0  0  0
 17 12  1  0  0  0  0
 18 16  1  6  0  0  0
 18 19  1  0  0  0  0
 19 14  1  0  0  0  0
 21 13  1  6  0  0  0
 21 17  1  0  0  0  0
 21 18  1  0  0  0  0
 22 16  1  0  0  0  0
 23 24  1  0  0  0  0
 24 10  1  0  0  0  0
 25 27  1  0  0  0  0
 25  1  1  0  0  0  0
 27 26  1  1  0  0  0
 28 34  1  0  0  0  0
 29 32  1  0  0  0  0
 30 35  1  6  0  0  0
 30 28  1  0  0  0  0
 31 29  1  0  0  0  0
 31 30  1  0  0  0  0
 32 34  1  0  0  0  0
 33 36  2  0  0  0  0
 33 31  1  0  0  0  0
 34 27  1  1  0  0  0
 37 39  1  0  0  0  0
 38 43  1  6  0  0  0
 38 40  1  0  0  0  0
 38 37  1  0  0  0  0
 38 33  1  0  0  0  0
 39 42  1  6  0  0  0
 40 39  1  0  0  0  0
 42 41  1  0  0  0  0
 44 43  1  0  0  0  0
 46 45  1  0  0  0  0
 46 44  1  0  0  0  0
 47 46  1  0  0  0  0
M  END
>  <MODEL>
7

>  <REMARK>
 VINA RESULT:      -3.7      5.273     10.831
  Name = 
  14 active torsions:
  status: ('A' for Active; 'I' for Inactive)
    1  A    between atoms: N_14  and  C_25
    2  A    between atoms: N_14  and  C_41
    3  A    between atoms: C_16  and  C_45
    4  A    between atoms: O_18  and  C_28
    5  A    between atoms: O_18  and  C_36
    6  A    between atoms: C_19  and  C_24
    7  A    between atoms: C_19  and  C_36
    8  A    between atoms: C_22  and  O_34
    9  A    between atoms: C_25  and  C_31
   10  A    between atoms: C_35  and  C_45
   11  A    between atoms: C_38  and  C_47
   12  A    between atoms: C_40  and  C_41
   13  A    between atoms: C_40  and  C_47
   14  A    between atoms: N_43  and  C_45
                            x       y       z     vdW  Elec       q    Type
                         _______ _______ _______ _____ _____    ______ ____

>  <TORSDO>
F 14

$$$$
=
 OpenBabel11072414553D

 47 51  0  0  1  0  0  0  0  0999 V2000
  160.5860  208.0940  154.9110 C   0  0  0  0  0  2  0  0  0  0  0  0
  161.7250  208.7470  156.9090 O   0  0  0  0  0  1  0  0  0  0  0  0
  161.3200  209.2080  155.6540 C   0  0  2  0  0  3  0  0  0  0  0  0
  161.2090  211.8220  155.6640 C   0  0  0  0  0  2  0  0  0  0  0  0
  160.4490  211.2930  154.4490 C   0  0  1  0  0  3  0  0  0  0  0  0
  160.4740  210.4950  155.7620 C   0  0  1  0  0  0  0  0  0  0  0  0
  158.6510  209.2470  156.7030 O   0  0  0  0  0  1  0  0  0  0  0  0
  159.2240  210.5180  156.6470 C   0  0  0  0  0  2  0  0  0  0  0  0
  157.9910  211.1060  154.1470 C   0  0  0  0  0  1  0  0  0  0  0  0
  159.1570  212.0830  154.0780 C   0  0  2  0  0  0  0  0  0  0  0  0
  157.1510  213.4980  152.2310 O   0  0  0  0  0  0  0  0  0  0  0  0
  159.2340  214.1740  148.2430 C   0  0  1  0  0  3  0  0  0  0  0  0
  158.2960  213.1450  151.8450 C   0  0  0  0  0  0  0  0  0  0  0  0
  160.7080  213.7760  148.5320 C   0  0  0  0  0  2  0  0  0  0  0  0
  158.6410  213.1980  147.4370 O   0  0  0  0  0  1  0  0  0  0  0  0
  160.4510  212.2630  151.8460 C   0  0  0  0  0  2  0  0  0  0  0  0
  158.4390  214.3490  149.5600 C   0  0  1  0  0  3  0  0  0  0  0  0
  160.2170  213.1050  150.6020 C   0  0  1  0  0  3  0  0  0  0  0  0
  160.8130  212.6680  149.4140 O   0  0  0  0  0  0  0  0  0  0  0  0
  157.0720  214.4530  149.2960 O   0  0  0  0  0  1  0  0  0  0  0  0
  158.7210  213.1380  150.4310 C   0  0  1  0  0  3  0  0  0  0  0  0
  159.3130  212.6060  152.7030 N   0  0  0  0  0  0  0  0  0  0  0  0
  157.4440  213.1720  155.4440 O   0  0  0  0  0  1  0  0  0  0  0  0
  158.7740  213.2400  155.0240 C   0  0  0  0  0  2  0  0  0  0  0  0
  161.4970  207.3070  154.0890 N   0  0  0  0  0  2  0  0  0  0  0  0
  160.7720  208.1880  152.0700 O   0  0  0  0  0  1  0  0  0  0  0  0
  160.8620  207.0060  152.8080 C   0  0  1  0  0  3  0  0  0  0  0  0
  161.1910  204.5440  152.3960 C   0  0  0  0  0  2  0  0  0  0  0  0
  162.3410  205.1060  149.7640 C   0  0  0  0  0  2  0  0  0  0  0  0
  161.9730  203.5100  151.5940 C   0  0  2  0  0  3  0  0  0  0  0  0
  161.8380  203.7950  150.1610 N   0  0  0  0  0  0  0  0  0  0  0  0
  161.5610  206.1810  150.5180 C   0  0  0  0  0  2  0  0  0  0  0  0
  160.8180  203.1880  149.3440 C   0  0  0  0  0  0  0  0  0  0  0  0
  161.6710  205.9560  152.0340 C   0  0  1  0  0  3  0  0  0  0  0  0
  161.5690  202.0910  151.9670 C   0  0  0  0  0  1  0  0  0  0  0  0
  159.7180  202.8520  149.8610 O   0  0  0  0  0  0  0  0  0  0  0  0
  161.8790  201.8830  147.6210 O   0  0  0  0  0  0  0  0  0  0  0  0
  161.0250  202.9620  147.8630 C   0  0  1  0  0  0  0  0  0  0  0  0
  160.7720  201.2920  146.9980 C   0  0  1  0  0  3  0  0  0  0  0  0
  159.9210  202.3810  147.2280 O   0  0  0  0  0  0  0  0  0  0  0  0
  160.2980  200.0110  145.2610 C   0  0  0  0  0  1  0  0  0  0  0  0
  161.0100  201.1520  145.6270 O   0  0  0  0  0  0  0  0  0  0  0  0
  161.4960  204.2200  147.1330 C   0  0  0  0  0  2  0  0  0  0  0  0
  160.6170  205.2790  147.3760 O   0  0  0  0  0  0  0  0  0  0  0  0
  161.7750  205.7520  145.4720 O   0  0  0  0  0  1  0  0  0  0  0  0
  161.0480  206.3000  146.5280 C   0  0  0  0  0  3  0  0  0  0  0  0
  161.8560  207.1870  147.2380 O   0  0  0  0  0  1  0  0  0  0  0  0
  1  3  1  0  0  0  0
  3  6  1  0  0  0  0
  3  2  1  1  0  0  0
  4  6  1  0  0  0  0
  5 10  1  1  0  0  0
  5  4  1  0  0  0  0
  5  6  1  0  0  0  0
  6  8  1  1  0  0  0
  8  7  1  0  0  0  0
 10  9  1  6  0  0  0
 10 24  1  0  0  0  0
 12 15  1  6  0  0  0
 12 14  1  0  0  0  0
 12 17  1  0  0  0  0
 13 11  2  0  0  0  0
 13 22  1  0  0  0  0
 14 19  1  0  0  0  0
 16 22  1  0  0  0  0
 17 20  1  6  0  0  0
 17 21  1  0  0  0  0
 18 16  1  1  0  0  0
 19 18  1  0  0  0  0
 21 18  1  0  0  0  0
 21 13  1  1  0  0  0
 22 10  1  0  0  0  0
 24 23  1  0  0  0  0
 25  1  1  0  0  0  0
 27 26  1  6  0  0  0
 27 25  1  0  0  0  0
 29 31  1  0  0  0  0
 29 32  1  0  0  0  0
 30 35  1  6  0  0  0
 30 28  1  0  0  0  0
 31 30  1  0  0  0  0
 32 34  1  0  0  0  0
 33 36  2  0  0  0  0
 33 31  1  0  0  0  0
 34 28  1  0  0  0  0
 34 27  1  1  0  0  0
 37 38  1  0  0  0  0
 38 43  1  6  0  0  0
 38 33  1  0  0  0  0
 39 42  1  6  0  0  0
 39 40  1  0  0  0  0
 39 37  1  0  0  0  0
 40 38  1  0  0  0  0
 41 42  1  0  0  0  0
 43 44  1  0  0  0  0
 45 46  1  0  0  0  0
 46 47  1  0  0  0  0
 46 44  1  0  0  0  0
M  END
>  <MODEL>
8

>  <REMARK>
 VINA RESULT:      -3.6      1.746      2.885
  Name = 
  14 active torsions:
  status: ('A' for Active; 'I' for Inactive)
    1  A    between atoms: N_14  and  C_25
    2  A    between atoms: N_14  and  C_41
    3  A    between atoms: C_16  and  C_45
    4  A    between atoms: O_18  and  C_28
    5  A    between atoms: O_18  and  C_36
    6  A    between atoms: C_19  and  C_24
    7  A    between atoms: C_19  and  C_36
    8  A    between atoms: C_22  and  O_34
    9  A    between atoms: C_25  and  C_31
   10  A    between atoms: C_35  and  C_45
   11  A    between atoms: C_38  and  C_47
   12  A    between atoms: C_40  and  C_41
   13  A    between atoms: C_40  and  C_47
   14  A    between atoms: N_43  and  C_45
                            x       y       z     vdW  Elec       q    Type
                         _______ _______ _______ _____ _____    ______ ____

>  <TORSDO>
F 14

$$$$
=
 OpenBabel11072414553D

 47 51  0  0  1  0  0  0  0  0999 V2000
  159.8150  212.0680  150.9440 C   0  0  0  0  0  2  0  0  0  0  0  0
  157.9130  213.0430  149.8700 O   0  0  0  0  0  1  0  0  0  0  0  0
  158.3480  212.4740  151.0710 C   0  0  2  0  0  3  0  0  0  0  0  0
  156.6710  213.8480  152.5340 C   0  0  0  0  0  2  0  0  0  0  0  0
  157.2860  212.7390  153.3850 C   0  0  1  0  0  3  0  0  0  0  0  0
  158.1030  213.4120  152.2720 C   0  0  1  0  0  0  0  0  0  0  0  0
  160.2110  214.4350  151.7480 O   0  0  0  0  0  1  0  0  0  0  0  0
  159.1690  214.4360  152.6740 C   0  0  0  0  0  2  0  0  0  0  0  0
  158.3660  214.4280  154.8510 C   0  0  0  0  0  1  0  0  0  0  0  0
  157.5800  213.1240  154.8670 C   0  0  2  0  0  0  0  0  0  0  0  0
  160.3850  213.1750  156.1200 O   0  0  0  0  0  0  0  0  0  0  0  0
  161.4330  208.8940  157.2530 C   0  0  1  0  0  3  0  0  0  0  0  0
  159.7460  212.1060  155.9310 C   0  0  0  0  0  0  0  0  0  0  0  0
  160.1030  208.1230  157.0240 C   0  0  0  0  0  2  0  0  0  0  0  0
  162.3470  208.5460  156.2560 O   0  0  0  0  0  1  0  0  0  0  0  0
  158.0580  210.6230  155.3210 C   0  0  0  0  0  2  0  0  0  0  0  0
  161.1920  210.4240  157.2610 C   0  0  1  0  0  3  0  0  0  0  0  0
  159.0930  209.9290  156.1910 C   0  0  1  0  0  3  0  0  0  0  0  0
  159.3850  208.5940  155.8940 O   0  0  0  0  0  0  0  0  0  0  0  0
  162.4070  211.1100  157.2100 O   0  0  0  0  0  1  0  0  0  0  0  0
  160.3410  210.7600  156.0490 C   0  0  1  0  0  3  0  0  0  0  0  0
  158.3850  212.0430  155.4760 N   0  0  0  0  0  0  0  0  0  0  0  0
  156.6670  213.4770  157.1100 O   0  0  0  0  0  1  0  0  0  0  0  0
  156.3480  213.4040  155.7530 C   0  0  0  0  0  2  0  0  0  0  0  0
  160.1050  210.8600  151.7060 N   0  0  0  0  0  2  0  0  0  0  0  0
  161.6550  211.0660  153.4190 O   0  0  0  0  0  1  0  0  0  0  0  0
  161.5250  210.8290  152.0500 C   0  0  1  0  0  3  0  0  0  0  0  0
  161.3900  208.3370  152.3880 C   0  0  0  0  0  2  0  0  0  0  0  0
  162.7140  207.8850  149.8180 C   0  0  0  0  0  2  0  0  0  0  0  0
  161.9850  206.9930  151.9870 C   0  0  2  0  0  3  0  0  0  0  0  0
  161.9560  206.8590  150.5260 N   0  0  0  0  0  0  0  0  0  0  0  0
  162.1290  209.2530  150.1610 C   0  0  0  0  0  2  0  0  0  0  0  0
  160.8660  206.2230  149.8290 C   0  0  0  0  0  0  0  0  0  0  0  0
  162.1430  209.4730  151.6820 C   0  0  1  0  0  3  0  0  0  0  0  0
  161.3050  205.8410  152.7120 C   0  0  0  0  0  1  0  0  0  0  0  0
  159.7060  206.2510  150.3220 O   0  0  0  0  0  0  0  0  0  0  0  0
  160.2900  206.1030  147.4940 O   0  0  0  0  0  0  0  0  0  0  0  0
  161.0760  205.5350  148.4990 C   0  0  1  0  0  0  0  0  0  0  0  0
  161.5080  206.4430  146.8900 C   0  0  1  0  0  3  0  0  0  0  0  0
  162.2950  205.8580  147.8910 O   0  0  0  0  0  0  0  0  0  0  0  0
  160.6750  206.2580  144.8510 C   0  0  0  0  0  1  0  0  0  0  0  0
  161.6610  205.7400  145.6900 O   0  0  0  0  0  0  0  0  0  0  0  0
  160.8720  204.0220  148.5770 C   0  0  0  0  0  2  0  0  0  0  0  0
  160.5940  203.6380  149.8920 O   0  0  0  0  0  0  0  0  0  0  0  0
  161.3820  201.7890  150.9640 O   0  0  0  0  0  1  0  0  0  0  0  0
  160.6440  202.2440  149.8720 C   0  0  0  0  0  3  0  0  0  0  0  0
  161.2490  201.8150  148.6910 O   0  0  0  0  0  1  0  0  0  0  0  0
  1  3  1  0  0  0  0
  1 25  1  0  0  0  0
  3  2  1  6  0  0  0
  3  6  1  0  0  0  0
  4  5  1  0  0  0  0
  5 10  1  1  0  0  0
  6  4  1  0  0  0  0
  6  8  1  1  0  0  0
  6  5  1  0  0  0  0
  7  8  1  0  0  0  0
 10  9  1  6  0  0  0
 10 22  1  0  0  0  0
 10 24  1  0  0  0  0
 12 15  1  6  0  0  0
 12 17  1  0  0  0  0
 13 11  2  0  0  0  0
 14 12  1  0  0  0  0
 16 22  1  0  0  0  0
 17 20  1  6  0  0  0
 18 16  1  6  0  0  0
 19 18  1  0  0  0  0
 19 14  1  0  0  0  0
 21 13  1  1  0  0  0
 21 18  1  0  0  0  0
 21 17  1  0  0  0  0
 22 13  1  0  0  0  0
 24 23  1  0  0  0  0
 25 27  1  0  0  0  0
 27 26  1  1  0  0  0
 29 32  1  0  0  0  0
 29 31  1  0  0  0  0
 30 28  1  0  0  0  0
 30 35  1  1  0  0  0
 31 30  1  0  0  0  0
 32 34  1  0  0  0  0
 33 36  2  0  0  0  0
 33 31  1  0  0  0  0
 34 27  1  6  0  0  0
 34 28  1  0  0  0  0
 37 38  1  0  0  0  0
 38 43  1  1  0  0  0
 38 33  1  0  0  0  0
 39 42  1  6  0  0  0
 39 37  1  0  0  0  0
 39 40  1  0  0  0  0
 40 38  1  0  0  0  0
 41 42  1  0  0  0  0
 43 44  1  0  0  0  0
 46 44  1  0  0  0  0
 46 45  1  0  0  0  0
 47 46  1  0  0  0  0
M  END
>  <MODEL>
9

>  <REMARK>
 VINA RESULT:      -3.6      1.446      4.628
  Name = 
  14 active torsions:
  status: ('A' for Active; 'I' for Inactive)
    1  A    between atoms: N_14  and  C_25
    2  A    between atoms: N_14  and  C_41
    3  A    between atoms: C_16  and  C_45
    4  A    between atoms: O_18  and  C_28
    5  A    between atoms: O_18  and  C_36
    6  A    between atoms: C_19  and  C_24
    7  A    between atoms: C_19  and  C_36
    8  A    between atoms: C_22  and  O_34
    9  A    between atoms: C_25  and  C_31
   10  A    between atoms: C_35  and  C_45
   11  A    between atoms: C_38  and  C_47
   12  A    between atoms: C_40  and  C_41
   13  A    between atoms: C_40  and  C_47
   14  A    between atoms: N_43  and  C_45
                            x       y       z     vdW  Elec       q    Type
                         _______ _______ _______ _____ _____    ______ ____

>  <TORSDO>
F 14

$$$$
