=
 OpenBabel11072413433D

 44 49  0  0  1  0  0  0  0  0999 V2000
  161.5030  208.5890  150.6650 C   0  0  0  0  0  2  0  0  0  0  0  0
  162.0770  209.4010  151.8140 C   0  0  0  0  0  2  0  0  0  0  0  0
  161.6170  210.8390  151.6980 C   0  0  0  0  0  2  0  0  0  0  0  0
  160.2890  211.0200  152.4250 C   0  0  1  0  0  3  0  0  0  0  0  0
  160.4670  211.8190  153.6910 C   0  0  2  0  0  3  0  0  0  0  0  0
  158.9160  213.0230  156.3310 O   0  0  0  0  0  0  0  0  0  0  0  0
  159.2190  211.7550  151.6140 C   0  0  1  0  0  3  0  0  0  0  0  0
  159.1860  214.2380  152.9840 S   0  0  0  0  0  0  0  0  0  0  0  0
  158.3120  212.5630  155.1260 C   0  0  1  0  0  3  0  0  0  0  0  0
  160.7560  210.9150  154.8610 C   0  0  0  0  0  3  0  0  0  0  0  0
  158.4050  212.5920  152.6030 C   0  0  2  0  0  3  0  0  0  0  0  0
  160.6970  211.3600  156.1230 C   0  0  0  0  0  0  0  0  0  0  0  0
  159.7690  212.5650  150.6130 O   0  0  0  0  0  1  0  0  0  0  0  0
  159.1760  212.6240  153.8480 C   0  0  2  0  0  0  0  0  0  0  0  0
  160.3120  212.7900  156.4020 C   0  0  0  0  0  2  0  0  0  0  0  0
  162.1130  209.6340  156.9050 O   0  0  0  0  0  1  0  0  0  0  0  0
  161.0400  210.4540  157.2570 C   0  0  0  0  0  2  0  0  0  0  0  0
  157.7760  211.2820  155.3080 O   0  0  0  0  0  0  0  0  0  0  0  0
  155.7680  211.6590  157.1880 O   0  0  0  0  0  1  0  0  0  0  0  0
  156.1100  211.5050  155.5380 P   0  0  0  0  0  0  0  0  0  0  0  0
  155.6460  212.7470  154.8080 O   0  0  0  0  0  0  0  0  0  0  0  0
  155.2850  210.1630  154.9250 O   0  0  0  0  0  1  0  0  0  0  0  0
  161.7170  207.0800  150.8410 C   0  0  1  0  0  3  0  0  0  0  0  0
  162.5640  206.7280  152.0690 C   0  0  0  0  0  2  0  0  0  0  0  0
  161.7640  206.2440  153.2410 C   0  0  0  0  0  0  0  0  0  0  0  0
  161.3240  205.1030  153.2460 O   0  0  0  0  0  0  0  0  0  0  0  0
  160.1820  207.8810  154.3060 C   0  0  0  0  0  2  0  0  0  0  0  0
  161.5300  207.1850  154.3920 C   0  0  0  0  0  3  0  0  0  0  0  0
  160.3620  206.6940  155.2270 C   0  0  0  0  0  2  0  0  0  0  0  0
  160.4350  206.2500  150.7440 C   0  0  0  0  0  2  0  0  0  0  0  0
  160.4520  203.8410  150.3730 C   0  0  0  0  0  3  0  0  0  0  0  0
  161.4950  201.6650  150.1740 O   0  0  0  0  0  0  0  0  0  0  0  0
  160.1680  201.4510  150.2730 O   0  0  0  0  0  0  0  0  0  0  0  0
  160.6230  202.5610  149.6060 C   0  0  0  0  0  0  0  0  0  0  0  0
  162.1040  204.4830  147.9250 C   0  0  0  0  0  2  0  0  0  0  0  0
  161.6960  203.1050  147.3760 C   0  0  1  0  0  3  0  0  0  0  0  0
  160.6130  205.0670  149.8470 C   0  0  0  0  0  0  0  0  0  0  0  0
  160.9080  205.3080  148.3890 C   0  0  0  0  0  2  0  0  0  0  0  0
  160.4990  202.4700  148.0920 C   0  0  0  0  0  2  0  0  0  0  0  0
  161.3930  203.1880  145.8870 C   0  0  0  0  0  2  0  0  0  0  0  0
  162.1570  204.3290  145.2280 C   0  0  0  0  0  2  0  0  0  0  0  0
  160.0320  205.6230  145.0290 O   0  0  0  0  0  1  0  0  0  0  0  0
  161.2390  205.2250  144.4700 C   0  0  0  0  0  0  0  0  0  0  0  0
  161.5630  205.6290  143.3230 O   0  0  0  0  0  0  0  0  0  0  0  0
  1  2  1  0  0  0  0
  3  2  1  0  0  0  0
  4  3  1  6  0  0  0
  4  5  1  0  0  0  0
  5 14  1  0  0  0  0
  5 10  1  1  0  0  0
  6 15  1  0  0  0  0
  7 13  1  6  0  0  0
  7  4  1  0  0  0  0
  7 11  1  0  0  0  0
  9 18  1  1  0  0  0
  9  6  1  0  0  0  0
 10 12  2  0  0  0  0
 11  8  1  6  0  0  0
 11 14  1  0  0  0  0
 12 15  1  0  0  0  0
 12 17  1  0  0  0  0
 14  8  1  1  0  0  0
 14  9  1  0  0  0  0
 16 17  1  0  0  0  0
 18 20  1  0  0  0  0
 20 19  1  0  0  0  0
 21 20  2  0  0  0  0
 22 20  1  0  0  0  0
 23  1  1  1  0  0  0
 23 24  1  0  0  0  0
 24 25  1  0  0  0  0
 25 26  2  0  0  0  0
 25 28  1  0  0  0  0
 27 28  1  0  0  0  0
 27 29  1  0  0  0  0
 28 29  1  0  0  0  0
 30 23  1  0  0  0  0
 32 33  1  0  0  0  0
 34 32  1  0  0  0  0
 34 33  1  0  0  0  0
 34 31  1  0  0  0  0
 35 38  1  0  0  0  0
 36 40  1  6  0  0  0
 36 35  1  0  0  0  0
 36 39  1  0  0  0  0
 37 31  2  0  0  0  0
 37 30  1  0  0  0  0
 38 37  1  0  0  0  0
 39 34  1  0  0  0  0
 41 40  1  0  0  0  0
 43 42  1  0  0  0  0
 43 41  1  0  0  0  0
 44 43  2  0  0  0  0
M  END
>  <MODEL>
1

>  <REMARK>
 VINA RESULT:      -6.8      0.000      0.000
  Name = 
  15 active torsions:
  status: ('A' for Active; 'I' for Inactive)
    1  A    between atoms: O_2  and  C_23
    2  A    between atoms: O_2  and  P_30
    3  A    between atoms: C_3  and  C_4
    4  A    between atoms: C_3  and  C_33
    5  A    between atoms: C_4  and  C_21
    6  A    between atoms: C_5  and  C_15
    7  A    between atoms: C_5  and  C_28
    8  A    between atoms: C_9  and  C_35
    9  A    between atoms: C_13  and  C_18
   10  A    between atoms: C_15  and  C_35
   11  A    between atoms: C_18  and  C_38
   12  A    between atoms: C_27  and  C_43
   13  A    between atoms: C_28  and  C_38
   14  A    between atoms: C_28  and  C_42
   15  A    between atoms: C_34  and  C_42
                            x       y       z     vdW  Elec       q    Type
                         _______ _______ _______ _____ _____    ______ ____

>  <TORSDO>
F 15

$$$$
=
 OpenBabel11072413433D

 44 49  0  0  1  0  0  0  0  0999 V2000
  162.4180  209.2430  150.7250 C   0  0  0  0  0  2  0  0  0  0  0  0
  161.3290  210.2940  150.8590 C   0  0  0  0  0  2  0  0  0  0  0  0
  161.4530  210.9850  152.2010 C   0  0  0  0  0  2  0  0  0  0  0  0
  160.0860  211.0670  152.8710 C   0  0  1  0  0  3  0  0  0  0  0  0
  160.2180  211.3770  154.3410 C   0  0  2  0  0  3  0  0  0  0  0  0
  158.5460  211.8120  157.1410 O   0  0  0  0  0  0  0  0  0  0  0  0
  159.1650  212.1480  152.2970 C   0  0  1  0  0  3  0  0  0  0  0  0
  159.2300  214.0250  154.4220 S   0  0  0  0  0  0  0  0  0  0  0  0
  158.0170  211.8500  155.8190 C   0  0  1  0  0  3  0  0  0  0  0  0
  160.3160  210.1100  155.1500 C   0  0  0  0  0  3  0  0  0  0  0  0
  158.3430  212.6990  153.4650 C   0  0  2  0  0  3  0  0  0  0  0  0
  160.1820  210.1180  156.4830 C   0  0  0  0  0  0  0  0  0  0  0  0
  159.8750  213.1740  151.6620 O   0  0  0  0  0  1  0  0  0  0  0  0
  158.9960  212.2290  154.6880 C   0  0  2  0  0  0  0  0  0  0  0  0
  159.9040  211.4090  157.2060 C   0  0  0  0  0  2  0  0  0  0  0  0
  159.9480  207.7640  156.4810 O   0  0  0  0  0  1  0  0  0  0  0  0
  160.3360  208.8540  157.2610 C   0  0  0  0  0  2  0  0  0  0  0  0
  157.3530  210.6510  155.5260 O   0  0  0  0  0  0  0  0  0  0  0  0
  154.7880  209.6420  155.1860 O   0  0  0  0  0  1  0  0  0  0  0  0
  155.6960  211.0110  155.5950 P   0  0  0  0  0  0  0  0  0  0  0  0
  155.3200  211.4680  156.9870 O   0  0  0  0  0  1  0  0  0  0  0  0
  155.3560  212.2480  154.4950 O   0  0  0  0  0  0  0  0  0  0  0  0
  161.9310  207.9720  150.0190 C   0  0  1  0  0  3  0  0  0  0  0  0
  160.7640  207.2870  150.7410 C   0  0  0  0  0  2  0  0  0  0  0  0
  161.0750  206.8800  152.1500 C   0  0  0  0  0  0  0  0  0  0  0  0
  160.6930  207.5750  153.0810 O   0  0  0  0  0  0  0  0  0  0  0  0
  161.1190  204.6440  153.2970 C   0  0  0  0  0  2  0  0  0  0  0  0
  161.8500  205.6100  152.3790 C   0  0  0  0  0  3  0  0  0  0  0  0
  161.0890  204.4330  151.7980 C   0  0  0  0  0  2  0  0  0  0  0  0
  161.6840  208.1440  148.5180 C   0  0  0  0  0  2  0  0  0  0  0  0
  161.3590  206.8190  146.4980 C   0  0  0  0  0  3  0  0  0  0  0  0
  160.0770  205.4750  144.9450 O   0  0  0  0  0  0  0  0  0  0  0  0
  161.2180  205.8150  144.3130 O   0  0  0  0  0  0  0  0  0  0  0  0
  161.2430  205.5760  145.6640 C   0  0  0  0  0  0  0  0  0  0  0  0
  160.8390  204.5220  148.3920 C   0  0  0  0  0  2  0  0  0  0  0  0
  161.1570  203.5770  147.2200 C   0  0  1  0  0  3  0  0  0  0  0  0
  161.6250  206.8260  147.8160 C   0  0  0  0  0  0  0  0  0  0  0  0
  161.9190  205.5760  148.6060 C   0  0  0  0  0  2  0  0  0  0  0  0
  161.8800  204.2480  146.0480 C   0  0  0  0  0  2  0  0  0  0  0  0
  161.9810  202.3900  147.6950 C   0  0  0  0  0  2  0  0  0  0  0  0
  161.1050  201.1690  147.9420 C   0  0  0  0  0  2  0  0  0  0  0  0
  161.2070  201.1490  150.4360 O   0  0  0  0  0  1  0  0  0  0  0  0
  160.4460  201.2390  149.2770 C   0  0  0  0  0  0  0  0  0  0  0  0
  159.2000  201.3910  149.3550 O   0  0  0  0  0  0  0  0  0  0  0  0
  1  2  1  0  0  0  0
  2  3  1  0  0  0  0
  4  3  1  6  0  0  0
  4  5  1  0  0  0  0
  5 14  1  0  0  0  0
  5 10  1  1  0  0  0
  6 15  1  0  0  0  0
  7 13  1  1  0  0  0
  7  4  1  0  0  0  0
  7 11  1  0  0  0  0
  9 18  1  6  0  0  0
  9  6  1  0  0  0  0
 10 12  2  0  0  0  0
 11  8  1  1  0  0  0
 11 14  1  0  0  0  0
 12 15  1  0  0  0  0
 12 17  1  0  0  0  0
 14  8  1  1  0  0  0
 14  9  1  0  0  0  0
 16 17  1  0  0  0  0
 18 20  1  0  0  0  0
 19 20  1  0  0  0  0
 20 21  1  0  0  0  0
 22 20  2  0  0  0  0
 23 30  1  6  0  0  0
 23  1  1  0  0  0  0
 23 24  1  0  0  0  0
 24 25  1  0  0  0  0
 25 28  1  0  0  0  0
 25 26  2  0  0  0  0
 28 27  1  0  0  0  0
 29 28  1  0  0  0  0
 29 27  1  0  0  0  0
 31 37  2  0  0  0  0
 32 34  1  0  0  0  0
 33 32  1  0  0  0  0
 33 34  1  0  0  0  0
 34 39  1  0  0  0  0
 34 31  1  0  0  0  0
 35 38  1  0  0  0  0
 36 40  1  1  0  0  0
 36 35  1  0  0  0  0
 37 30  1  0  0  0  0
 37 38  1  0  0  0  0
 39 36  1  0  0  0  0
 40 41  1  0  0  0  0
 41 43  1  0  0  0  0
 43 44  2  0  0  0  0
 43 42  1  0  0  0  0
M  END
>  <MODEL>
2

>  <REMARK>
 VINA RESULT:      -6.4      1.345      3.223
  Name = 
  15 active torsions:
  status: ('A' for Active; 'I' for Inactive)
    1  A    between atoms: O_2  and  C_23
    2  A    between atoms: O_2  and  P_30
    3  A    between atoms: C_3  and  C_4
    4  A    between atoms: C_3  and  C_33
    5  A    between atoms: C_4  and  C_21
    6  A    between atoms: C_5  and  C_15
    7  A    between atoms: C_5  and  C_28
    8  A    between atoms: C_9  and  C_35
    9  A    between atoms: C_13  and  C_18
   10  A    between atoms: C_15  and  C_35
   11  A    between atoms: C_18  and  C_38
   12  A    between atoms: C_27  and  C_43
   13  A    between atoms: C_28  and  C_38
   14  A    between atoms: C_28  and  C_42
   15  A    between atoms: C_34  and  C_42
                            x       y       z     vdW  Elec       q    Type
                         _______ _______ _______ _____ _____    ______ ____

>  <TORSDO>
F 15

$$$$
=
 OpenBabel11072413433D

 44 49  0  0  1  0  0  0  0  0999 V2000
  162.3430  208.9770  150.0770 C   0  0  0  0  0  2  0  0  0  0  0  0
  161.4390  210.1060  150.5460 C   0  0  0  0  0  2  0  0  0  0  0  0
  161.6130  210.3090  152.0360 C   0  0  0  0  0  2  0  0  0  0  0  0
  160.2550  210.5350  152.6910 C   0  0  1  0  0  3  0  0  0  0  0  0
  160.4100  210.9650  154.1280 C   0  0  2  0  0  3  0  0  0  0  0  0
  158.7730  211.7480  156.8730 O   0  0  0  0  0  0  0  0  0  0  0  0
  159.4020  211.6160  152.0210 C   0  0  1  0  0  3  0  0  0  0  0  0
  159.5870  213.6650  153.9720 S   0  0  0  0  0  0  0  0  0  0  0  0
  158.2450  211.7010  155.5510 C   0  0  1  0  0  3  0  0  0  0  0  0
  160.4300  209.7710  155.0460 C   0  0  0  0  0  3  0  0  0  0  0  0
  158.6180  212.3180  153.1320 C   0  0  2  0  0  3  0  0  0  0  0  0
  160.3000  209.9040  156.3730 C   0  0  0  0  0  0  0  0  0  0  0  0
  160.1730  212.5350  151.3000 O   0  0  0  0  0  1  0  0  0  0  0  0
  159.2430  211.9180  154.3940 C   0  0  2  0  0  0  0  0  0  0  0  0
  160.1040  211.2690  156.9790 C   0  0  0  0  0  2  0  0  0  0  0  0
  161.3160  207.8030  156.7600 O   0  0  0  0  0  1  0  0  0  0  0  0
  160.3780  208.7070  157.2600 C   0  0  0  0  0  2  0  0  0  0  0  0
  157.5070  210.5250  155.3640 O   0  0  0  0  0  0  0  0  0  0  0  0
  155.5000  211.4050  157.0680 O   0  0  0  0  0  1  0  0  0  0  0  0
  155.8760  210.9780  155.4740 P   0  0  0  0  0  0  0  0  0  0  0  0
  155.5990  212.1500  154.5590 O   0  0  0  0  0  0  0  0  0  0  0  0
  154.9100  209.6710  155.0100 O   0  0  0  0  0  1  0  0  0  0  0  0
  161.7040  208.1260  148.9730 C   0  0  1  0  0  3  0  0  0  0  0  0
  162.6940  207.1760  148.2900 C   0  0  0  0  0  2  0  0  0  0  0  0
  162.1200  206.4410  147.1160 C   0  0  0  0  0  0  0  0  0  0  0  0
  161.1380  206.8890  146.5400 O   0  0  0  0  0  0  0  0  0  0  0  0
  161.8010  204.0090  146.5690 C   0  0  0  0  0  2  0  0  0  0  0  0
  162.7820  205.1650  146.6700 C   0  0  0  0  0  3  0  0  0  0  0  0
  162.2320  204.7460  145.3200 C   0  0  0  0  0  2  0  0  0  0  0  0
  160.4040  207.4330  149.3900 C   0  0  0  0  0  2  0  0  0  0  0  0
  160.9880  206.6250  151.6150 C   0  0  0  0  0  3  0  0  0  0  0  0
  162.4990  205.8070  153.3190 O   0  0  0  0  0  0  0  0  0  0  0  0
  161.3560  206.1450  153.9460 O   0  0  0  0  0  0  0  0  0  0  0  0
  161.2980  205.6150  152.6820 C   0  0  0  0  0  0  0  0  0  0  0  0
  161.7050  204.0450  150.2160 C   0  0  0  0  0  2  0  0  0  0  0  0
  161.5640  203.3480  151.5800 C   0  0  1  0  0  3  0  0  0  0  0  0
  160.6620  206.3150  150.3480 C   0  0  0  0  0  0  0  0  0  0  0  0
  160.4910  204.8980  149.8630 C   0  0  0  0  0  2  0  0  0  0  0  0
  160.8160  204.1720  152.6340 C   0  0  0  0  0  2  0  0  0  0  0  0
  160.8750  202.0010  151.4270 C   0  0  0  0  0  2  0  0  0  0  0  0
  161.4800  201.1940  150.2870 C   0  0  0  0  0  2  0  0  0  0  0  0
  161.1130  200.8710  147.8400 O   0  0  0  0  0  0  0  0  0  0  0  0
  160.6020  201.2180  149.0840 C   0  0  0  0  0  0  0  0  0  0  0  0
  159.3920  201.5430  149.1960 O   0  0  0  0  0  1  0  0  0  0  0  0
  1  2  1  0  0  0  0
  2  3  1  0  0  0  0
  4  3  1  6  0  0  0
  4  5  1  0  0  0  0
  5 14  1  0  0  0  0
  5 10  1  1  0  0  0
  6 15  1  0  0  0  0
  7 13  1  1  0  0  0
  7  4  1  0  0  0  0
  7 11  1  0  0  0  0
  9 18  1  6  0  0  0
  9  6  1  0  0  0  0
 10 12  2  0  0  0  0
 11  8  1  6  0  0  0
 11 14  1  0  0  0  0
 12 15  1  0  0  0  0
 12 17  1  0  0  0  0
 14  8  1  1  0  0  0
 14  9  1  0  0  0  0
 16 17  1  0  0  0  0
 18 20  1  0  0  0  0
 20 19  1  0  0  0  0
 21 20  2  0  0  0  0
 22 20  1  0  0  0  0
 23 24  1  1  0  0  0
 23 30  1  0  0  0  0
 23  1  1  0  0  0  0
 25 24  1  0  0  0  0
 26 25  2  0  0  0  0
 27 28  1  0  0  0  0
 28 25  1  0  0  0  0
 29 27  1  0  0  0  0
 29 28  1  0  0  0  0
 30 37  1  0  0  0  0
 31 34  1  0  0  0  0
 32 33  1  0  0  0  0
 34 32  1  0  0  0  0
 34 33  1  0  0  0  0
 35 36  1  0  0  0  0
 36 40  1  6  0  0  0
 36 39  1  0  0  0  0
 37 31  2  0  0  0  0
 38 35  1  0  0  0  0
 38 37  1  0  0  0  0
 39 34  1  0  0  0  0
 41 40  1  0  0  0  0
 42 43  2  0  0  0  0
 43 44  1  0  0  0  0
 43 41  1  0  0  0  0
M  END
>  <MODEL>
3

>  <REMARK>
 VINA RESULT:      -6.0      1.405      4.053
  Name = 
  15 active torsions:
  status: ('A' for Active; 'I' for Inactive)
    1  A    between atoms: O_2  and  C_23
    2  A    between atoms: O_2  and  P_30
    3  A    between atoms: C_3  and  C_4
    4  A    between atoms: C_3  and  C_33
    5  A    between atoms: C_4  and  C_21
    6  A    between atoms: C_5  and  C_15
    7  A    between atoms: C_5  and  C_28
    8  A    between atoms: C_9  and  C_35
    9  A    between atoms: C_13  and  C_18
   10  A    between atoms: C_15  and  C_35
   11  A    between atoms: C_18  and  C_38
   12  A    between atoms: C_27  and  C_43
   13  A    between atoms: C_28  and  C_38
   14  A    between atoms: C_28  and  C_42
   15  A    between atoms: C_34  and  C_42
                            x       y       z     vdW  Elec       q    Type
                         _______ _______ _______ _____ _____    ______ ____

>  <TORSDO>
F 15

$$$$
=
 OpenBabel11072413433D

 44 49  0  0  1  0  0  0  0  0999 V2000
  162.1800  208.0010  150.1340 C   0  0  0  0  0  2  0  0  0  0  0  0
  161.3240  208.2060  151.3730 C   0  0  0  0  0  2  0  0  0  0  0  0
  161.3930  209.6560  151.8020 C   0  0  0  0  0  2  0  0  0  0  0  0
  160.1190  210.0380  152.5490 C   0  0  1  0  0  3  0  0  0  0  0  0
  160.4090  210.3460  153.9970 C   0  0  2  0  0  3  0  0  0  0  0  0
  159.0510  211.1840  156.8740 O   0  0  0  0  0  0  0  0  0  0  0  0
  159.4060  211.2730  151.9930 C   0  0  1  0  0  3  0  0  0  0  0  0
  159.9970  213.1430  154.0420 S   0  0  0  0  0  0  0  0  0  0  0  0
  158.4550  211.3010  155.5850 C   0  0  1  0  0  3  0  0  0  0  0  0
  160.2960  209.1060  154.8430 C   0  0  0  0  0  3  0  0  0  0  0  0
  158.7940  212.0100  153.1870 C   0  0  2  0  0  3  0  0  0  0  0  0
  160.2550  209.1710  156.1810 C   0  0  0  0  0  0  0  0  0  0  0  0
  160.2690  212.1130  151.2800 O   0  0  0  0  0  1  0  0  0  0  0  0
  159.4150  211.4420  154.3850 C   0  0  2  0  0  0  0  0  0  0  0  0
  160.2970  210.5080  156.8730 C   0  0  0  0  0  2  0  0  0  0  0  0
  159.4250  206.9620  156.3360 O   0  0  0  0  0  1  0  0  0  0  0  0
  160.1950  207.9210  156.9930 C   0  0  0  0  0  2  0  0  0  0  0  0
  157.5400  210.2610  155.3760 O   0  0  0  0  0  0  0  0  0  0  0  0
  155.7710  212.2080  154.4880 O   0  0  0  0  0  0  0  0  0  0  0  0
  156.0030  210.9460  155.5910 P   0  0  0  0  0  0  0  0  0  0  0  0
  154.9320  209.8960  155.3900 O   0  0  0  0  0  1  0  0  0  0  0  0
  155.8890  211.5590  157.1630 O   0  0  0  0  0  1  0  0  0  0  0  0
  161.4020  207.3630  148.9760 C   0  0  1  0  0  3  0  0  0  0  0  0
  162.2860  206.5390  148.0330 C   0  0  0  0  0  2  0  0  0  0  0  0
  161.7310  206.3980  146.6470 C   0  0  0  0  0  0  0  0  0  0  0  0
  160.6410  206.8840  146.3780 O   0  0  0  0  0  0  0  0  0  0  0  0
  162.0120  204.2640  145.3500 C   0  0  0  0  0  2  0  0  0  0  0  0
  162.5440  205.6630  145.6170 C   0  0  0  0  0  3  0  0  0  0  0  0
  161.6930  205.3910  144.3900 C   0  0  0  0  0  2  0  0  0  0  0  0
  160.1360  206.6170  149.4080 C   0  0  0  0  0  2  0  0  0  0  0  0
  160.7130  204.8030  150.9310 C   0  0  0  0  0  3  0  0  0  0  0  0
  162.2250  203.2610  152.0250 O   0  0  0  0  0  0  0  0  0  0  0  0
  161.0630  203.2120  152.7060 O   0  0  0  0  0  0  0  0  0  0  0  0
  161.0390  203.3970  151.3460 C   0  0  0  0  0  0  0  0  0  0  0  0
  161.5260  203.3040  148.4360 C   0  0  0  0  0  2  0  0  0  0  0  0
  161.3870  202.0080  149.2540 C   0  0  1  0  0  3  0  0  0  0  0  0
  160.4140  205.1720  149.6730 C   0  0  0  0  0  0  0  0  0  0  0  0
  160.2930  204.1950  148.5330 C   0  0  0  0  0  2  0  0  0  0  0  0
  160.6010  202.1690  150.5600 C   0  0  0  0  0  2  0  0  0  0  0  0
  160.7410  200.9120  148.4210 C   0  0  0  0  0  2  0  0  0  0  0  0
  161.7500  200.2580  147.4860 C   0  0  0  0  0  2  0  0  0  0  0  0
  160.4740  200.9690  145.4620 O   0  0  0  0  0  0  0  0  0  0  0  0
  161.1440  199.9690  146.1560 C   0  0  0  0  0  0  0  0  0  0  0  0
  161.2480  198.8200  145.6550 O   0  0  0  0  0  1  0  0  0  0  0  0
  1  2  1  0  0  0  0
  2  3  1  0  0  0  0
  4  3  1  6  0  0  0
  4  5  1  0  0  0  0
  5 14  1  0  0  0  0
  5 10  1  1  0  0  0
  7 13  1  1  0  0  0
  7  4  1  0  0  0  0
  7 11  1  0  0  0  0
  9 18  1  6  0  0  0
  9  6  1  0  0  0  0
 10 12  2  0  0  0  0
 11  8  1  6  0  0  0
 11 14  1  0  0  0  0
 12 15  1  0  0  0  0
 12 17  1  0  0  0  0
 14  8  1  1  0  0  0
 14  9  1  0  0  0  0
 15  6  1  0  0  0  0
 16 17  1  0  0  0  0
 18 20  1  0  0  0  0
 19 20  2  0  0  0  0
 20 22  1  0  0  0  0
 21 20  1  0  0  0  0
 23 24  1  1  0  0  0
 23 30  1  0  0  0  0
 23  1  1  0  0  0  0
 25 24  1  0  0  0  0
 26 25  2  0  0  0  0
 27 28  1  0  0  0  0
 28 25  1  0  0  0  0
 29 27  1  0  0  0  0
 29 28  1  0  0  0  0
 30 37  1  0  0  0  0
 31 34  1  0  0  0  0
 32 33  1  0  0  0  0
 34 32  1  0  0  0  0
 34 33  1  0  0  0  0
 35 38  1  0  0  0  0
 35 36  1  0  0  0  0
 36 40  1  6  0  0  0
 36 39  1  0  0  0  0
 37 31  2  0  0  0  0
 38 37  1  0  0  0  0
 39 34  1  0  0  0  0
 41 40  1  0  0  0  0
 42 43  2  0  0  0  0
 43 41  1  0  0  0  0
 44 43  1  0  0  0  0
M  END
>  <MODEL>
4

>  <REMARK>
 VINA RESULT:      -5.9      1.862      3.903
  Name = 
  15 active torsions:
  status: ('A' for Active; 'I' for Inactive)
    1  A    between atoms: O_2  and  C_23
    2  A    between atoms: O_2  and  P_30
    3  A    between atoms: C_3  and  C_4
    4  A    between atoms: C_3  and  C_33
    5  A    between atoms: C_4  and  C_21
    6  A    between atoms: C_5  and  C_15
    7  A    between atoms: C_5  and  C_28
    8  A    between atoms: C_9  and  C_35
    9  A    between atoms: C_13  and  C_18
   10  A    between atoms: C_15  and  C_35
   11  A    between atoms: C_18  and  C_38
   12  A    between atoms: C_27  and  C_43
   13  A    between atoms: C_28  and  C_38
   14  A    between atoms: C_28  and  C_42
   15  A    between atoms: C_34  and  C_42
                            x       y       z     vdW  Elec       q    Type
                         _______ _______ _______ _____ _____    ______ ____

>  <TORSDO>
F 15

$$$$
=
 OpenBabel11072413433D

 44 49  0  0  1  0  0  0  0  0999 V2000
  162.2710  210.4760  150.4670 C   0  0  0  0  0  2  0  0  0  0  0  0
  161.2720  210.4440  151.6120 C   0  0  0  0  0  2  0  0  0  0  0  0
  160.7230  211.8360  151.8450 C   0  0  0  0  0  2  0  0  0  0  0  0
  159.4930  211.7650  152.7430 C   0  0  1  0  0  3  0  0  0  0  0  0
  159.8850  211.6660  154.1950 C   0  0  2  0  0  3  0  0  0  0  0  0
  158.7270  211.3700  157.2610 O   0  0  0  0  0  0  0  0  0  0  0  0
  158.5660  212.9800  152.6420 C   0  0  1  0  0  3  0  0  0  0  0  0
  159.1050  214.2150  155.1360 S   0  0  0  0  0  0  0  0  0  0  0  0
  157.9920  211.7720  156.1090 C   0  0  1  0  0  3  0  0  0  0  0  0
  160.0270  210.2270  154.6160 C   0  0  0  0  0  3  0  0  0  0  0  0
  157.9850  213.2150  154.0380 C   0  0  2  0  0  3  0  0  0  0  0  0
  160.1150  209.8790  155.9070 C   0  0  0  0  0  0  0  0  0  0  0  0
  159.2300  214.1230  152.1800 O   0  0  0  0  0  1  0  0  0  0  0  0
  158.7970  212.4200  154.9620 C   0  0  2  0  0  0  0  0  0  0  0  0
  160.0470  210.9350  156.9790 C   0  0  0  0  0  2  0  0  0  0  0  0
  161.4970  207.9670  155.7430 O   0  0  0  0  0  1  0  0  0  0  0  0
  160.3080  208.4500  156.2890 C   0  0  0  0  0  2  0  0  0  0  0  0
  157.2100  210.7110  155.6360 O   0  0  0  0  0  0  0  0  0  0  0  0
  155.4720  212.5600  156.7630 O   0  0  0  0  0  1  0  0  0  0  0  0
  155.6050  211.2590  155.6880 P   0  0  0  0  0  0  0  0  0  0  0  0
  155.1580  211.6950  154.3100 O   0  0  0  0  0  0  0  0  0  0  0  0
  154.6110  210.0000  156.2210 O   0  0  0  0  0  1  0  0  0  0  0  0
  161.6630  210.0150  149.1370 C   0  0  1  0  0  3  0  0  0  0  0  0
  161.2930  211.1750  148.2050 C   0  0  0  0  0  2  0  0  0  0  0  0
  162.2480  212.3290  148.2630 C   0  0  0  0  0  0  0  0  0  0  0  0
  163.4110  212.1740  147.9170 O   0  0  0  0  0  0  0  0  0  0  0  0
  161.0560  214.4520  147.6390 C   0  0  0  0  0  2  0  0  0  0  0  0
  161.7400  213.6620  148.7430 C   0  0  0  0  0  3  0  0  0  0  0  0
  160.2260  213.6960  148.6540 C   0  0  0  0  0  2  0  0  0  0  0  0
  162.4600  208.9150  148.4310 C   0  0  0  0  0  2  0  0  0  0  0  0
  161.8550  207.2790  150.1330 C   0  0  0  0  0  3  0  0  0  0  0  0
  162.2620  205.4050  151.6100 O   0  0  0  0  0  0  0  0  0  0  0  0
  161.1130  205.9780  152.0200 O   0  0  0  0  0  0  0  0  0  0  0  0
  161.4130  205.9520  150.6810 C   0  0  0  0  0  0  0  0  0  0  0  0
  162.2940  205.2270  147.9590 C   0  0  0  0  0  2  0  0  0  0  0  0
  161.4300  204.2640  148.7900 C   0  0  1  0  0  3  0  0  0  0  0  0
  161.9840  207.5540  148.8230 C   0  0  0  0  0  0  0  0  0  0  0  0
  161.6210  206.5760  147.7350 C   0  0  0  0  0  2  0  0  0  0  0  0
  160.5970  204.9460  149.8810 C   0  0  0  0  0  2  0  0  0  0  0  0
  160.5040  203.4600  147.8910 C   0  0  0  0  0  2  0  0  0  0  0  0
  161.2170  202.2540  147.2960 C   0  0  0  0  0  2  0  0  0  0  0  0
  160.3870  201.1500  149.3750 O   0  0  0  0  0  1  0  0  0  0  0  0
  161.0870  201.0600  148.1780 C   0  0  0  0  0  0  0  0  0  0  0  0
  161.6030  199.9650  147.8340 O   0  0  0  0  0  0  0  0  0  0  0  0
  1  2  1  0  0  0  0
  2  3  1  0  0  0  0
  4  3  1  6  0  0  0
  4  5  1  0  0  0  0
  5 10  1  1  0  0  0
  5 14  1  0  0  0  0
  7 13  1  1  0  0  0
  7  4  1  0  0  0  0
  7 11  1  0  0  0  0
  9 18  1  6  0  0  0
  9  6  1  0  0  0  0
 10 12  2  0  0  0  0
 11 14  1  0  0  0  0
 11  8  1  1  0  0  0
 12 17  1  0  0  0  0
 12 15  1  0  0  0  0
 14  8  1  1  0  0  0
 14  9  1  0  0  0  0
 15  6  1  0  0  0  0
 16 17  1  0  0  0  0
 18 20  1  0  0  0  0
 20 22  1  0  0  0  0
 20 19  1  0  0  0  0
 21 20  2  0  0  0  0
 23 24  1  6  0  0  0
 23  1  1  0  0  0  0
 24 25  1  0  0  0  0
 25 28  1  0  0  0  0
 26 25  2  0  0  0  0
 27 29  1  0  0  0  0
 27 28  1  0  0  0  0
 29 28  1  0  0  0  0
 30 37  1  0  0  0  0
 30 23  1  0  0  0  0
 31 34  1  0  0  0  0
 32 33  1  0  0  0  0
 34 32  1  0  0  0  0
 34 33  1  0  0  0  0
 35 36  1  0  0  0  0
 36 40  1  6  0  0  0
 36 39  1  0  0  0  0
 37 31  2  0  0  0  0
 38 35  1  0  0  0  0
 38 37  1  0  0  0  0
 39 34  1  0  0  0  0
 41 40  1  0  0  0  0
 41 43  1  0  0  0  0
 43 42  1  0  0  0  0
 44 43  2  0  0  0  0
M  END
>  <MODEL>
5

>  <REMARK>
 VINA RESULT:      -5.4      2.122      4.126
  Name = 
  15 active torsions:
  status: ('A' for Active; 'I' for Inactive)
    1  A    between atoms: O_2  and  C_23
    2  A    between atoms: O_2  and  P_30
    3  A    between atoms: C_3  and  C_4
    4  A    between atoms: C_3  and  C_33
    5  A    between atoms: C_4  and  C_21
    6  A    between atoms: C_5  and  C_15
    7  A    between atoms: C_5  and  C_28
    8  A    between atoms: C_9  and  C_35
    9  A    between atoms: C_13  and  C_18
   10  A    between atoms: C_15  and  C_35
   11  A    between atoms: C_18  and  C_38
   12  A    between atoms: C_27  and  C_43
   13  A    between atoms: C_28  and  C_38
   14  A    between atoms: C_28  and  C_42
   15  A    between atoms: C_34  and  C_42
                            x       y       z     vdW  Elec       q    Type
                         _______ _______ _______ _____ _____    ______ ____

>  <TORSDO>
F 15

$$$$
=
 OpenBabel11072413433D

 44 49  0  0  1  0  0  0  0  0999 V2000
  162.3790  209.1100  150.5880 C   0  0  0  0  0  2  0  0  0  0  0  0
  161.1830  209.1990  151.5220 C   0  0  0  0  0  2  0  0  0  0  0  0
  161.1280  210.5780  152.1440 C   0  0  0  0  0  2  0  0  0  0  0  0
  159.8090  210.7600  152.8870 C   0  0  1  0  0  3  0  0  0  0  0  0
  160.0410  210.9900  154.3590 C   0  0  2  0  0  3  0  0  0  0  0  0
  158.5550  211.4550  157.2570 O   0  0  0  0  0  0  0  0  0  0  0  0
  158.9700  211.9480  152.4060 C   0  0  1  0  0  3  0  0  0  0  0  0
  159.3190  213.7130  154.5980 S   0  0  0  0  0  0  0  0  0  0  0  0
  157.9690  211.6020  155.9670 C   0  0  1  0  0  3  0  0  0  0  0  0
  160.0540  209.6850  155.1110 C   0  0  0  0  0  3  0  0  0  0  0  0
  158.2630  212.5220  153.6350 C   0  0  2  0  0  3  0  0  0  0  0  0
  159.9860  209.6450  156.4480 C   0  0  0  0  0  0  0  0  0  0  0  0
  159.7450  212.9290  151.7750 O   0  0  0  0  0  1  0  0  0  0  0  0
  158.9250  211.9380  154.8030 C   0  0  2  0  0  0  0  0  0  0  0  0
  159.8690  210.9230  157.2360 C   0  0  0  0  0  2  0  0  0  0  0  0
  160.3920  207.3210  156.2730 O   0  0  0  0  0  1  0  0  0  0  0  0
  160.0540  208.3390  157.1660 C   0  0  0  0  0  2  0  0  0  0  0  0
  157.1790  210.4860  155.6620 O   0  0  0  0  0  0  0  0  0  0  0  0
  155.3240  211.9450  157.1250 O   0  0  0  0  0  1  0  0  0  0  0  0
  155.5710  211.0260  155.7260 P   0  0  0  0  0  0  0  0  0  0  0  0
  155.2550  211.8650  154.5080 O   0  0  0  0  0  0  0  0  0  0  0  0
  154.5420  209.6850  155.7580 O   0  0  0  0  0  1  0  0  0  0  0  0
  162.0600  209.6010  149.1700 C   0  0  1  0  0  3  0  0  0  0  0  0
  162.3310  211.0960  148.9710 C   0  0  0  0  0  2  0  0  0  0  0  0
  161.2860  211.8010  148.1600 C   0  0  0  0  0  0  0  0  0  0  0  0
  160.6700  211.1890  147.2980 O   0  0  0  0  0  0  0  0  0  0  0  0
  162.2590  214.1150  148.2800 C   0  0  0  0  0  2  0  0  0  0  0  0
  161.0160  213.2550  148.4390 C   0  0  0  0  0  3  0  0  0  0  0  0
  161.2260  214.0670  147.1750 C   0  0  0  0  0  2  0  0  0  0  0  0
  162.6580  208.7340  148.0580 C   0  0  0  0  0  2  0  0  0  0  0  0
  162.4150  206.4940  147.1280 C   0  0  0  0  0  3  0  0  0  0  0  0
  161.2230  204.7020  146.0200 O   0  0  0  0  0  0  0  0  0  0  0  0
  162.5250  204.3560  146.0240 O   0  0  0  0  0  0  0  0  0  0  0  0
  162.0100  205.0480  147.0900 C   0  0  0  0  0  0  0  0  0  0  0  0
  160.3300  206.0990  149.2790 C   0  0  0  0  0  2  0  0  0  0  0  0
  160.5290  204.5850  149.0940 C   0  0  1  0  0  3  0  0  0  0  0  0
  162.2240  207.3090  148.1800 C   0  0  0  0  0  0  0  0  0  0  0  0
  161.6440  206.8420  149.4910 C   0  0  0  0  0  2  0  0  0  0  0  0
  161.8080  204.2040  148.3400 C   0  0  0  0  0  2  0  0  0  0  0  0
  160.5170  203.8730  150.4390 C   0  0  0  0  0  2  0  0  0  0  0  0
  161.2970  202.5660  150.3810 C   0  0  0  0  0  2  0  0  0  0  0  0
  161.3330  200.5940  148.8520 O   0  0  0  0  0  0  0  0  0  0  0  0
  160.6010  201.5600  149.5300 C   0  0  0  0  0  0  0  0  0  0  0  0
  159.3470  201.5790  149.4340 O   0  0  0  0  0  1  0  0  0  0  0  0
  1  2  1  0  0  0  0
  2  3  1  0  0  0  0
  4  3  1  6  0  0  0
  4  5  1  0  0  0  0
  5 14  1  0  0  0  0
  5 10  1  1  0  0  0
  7 13  1  1  0  0  0
  7  4  1  0  0  0  0
  7 11  1  0  0  0  0
  9 18  1  6  0  0  0
  9  6  1  0  0  0  0
 10 12  2  0  0  0  0
 11  8  1  1  0  0  0
 11 14  1  0  0  0  0
 12 17  1  0  0  0  0
 12 15  1  0  0  0  0
 14  8  1  1  0  0  0
 14  9  1  0  0  0  0
 15  6  1  0  0  0  0
 16 17  1  0  0  0  0
 18 20  1  0  0  0  0
 20 22  1  0  0  0  0
 20 19  1  0  0  0  0
 21 20  2  0  0  0  0
 23 30  1  6  0  0  0
 23  1  1  0  0  0  0
 24 23  1  0  0  0  0
 25 28  1  0  0  0  0
 25 24  1  0  0  0  0
 26 25  2  0  0  0  0
 27 28  1  0  0  0  0
 29 27  1  0  0  0  0
 29 28  1  0  0  0  0
 30 37  1  0  0  0  0
 31 37  2  0  0  0  0
 32 33  1  0  0  0  0
 32 34  1  0  0  0  0
 33 34  1  0  0  0  0
 34 31  1  0  0  0  0
 34 39  1  0  0  0  0
 35 38  1  0  0  0  0
 36 35  1  0  0  0  0
 36 40  1  1  0  0  0
 37 38  1  0  0  0  0
 39 36  1  0  0  0  0
 41 40  1  0  0  0  0
 42 43  2  0  0  0  0
 43 41  1  0  0  0  0
 44 43  1  0  0  0  0
M  END
>  <MODEL>
6

>  <REMARK>
 VINA RESULT:      -5.0      2.075      4.327
  Name = 
  15 active torsions:
  status: ('A' for Active; 'I' for Inactive)
    1  A    between atoms: O_2  and  C_23
    2  A    between atoms: O_2  and  P_30
    3  A    between atoms: C_3  and  C_4
    4  A    between atoms: C_3  and  C_33
    5  A    between atoms: C_4  and  C_21
    6  A    between atoms: C_5  and  C_15
    7  A    between atoms: C_5  and  C_28
    8  A    between atoms: C_9  and  C_35
    9  A    between atoms: C_13  and  C_18
   10  A    between atoms: C_15  and  C_35
   11  A    between atoms: C_18  and  C_38
   12  A    between atoms: C_27  and  C_43
   13  A    between atoms: C_28  and  C_38
   14  A    between atoms: C_28  and  C_42
   15  A    between atoms: C_34  and  C_42
                            x       y       z     vdW  Elec       q    Type
                         _______ _______ _______ _____ _____    ______ ____

>  <TORSDO>
F 15

$$$$
=
 OpenBabel11072413433D

 44 49  0  0  1  0  0  0  0  0999 V2000
  161.2250  204.8590  153.4020 C   0  0  0  0  0  2  0  0  0  0  0  0
  161.6240  206.3250  153.4580 C   0  0  0  0  0  2  0  0  0  0  0  0
  160.7150  207.0610  154.4200 C   0  0  0  0  0  2  0  0  0  0  0  0
  160.2490  208.3710  153.7940 C   0  0  1  0  0  3  0  0  0  0  0  0
  160.4890  209.5330  154.7240 C   0  0  2  0  0  3  0  0  0  0  0  0
  160.1000  212.7790  155.1000 O   0  0  0  0  0  0  0  0  0  0  0  0
  160.9540  208.7320  152.4840 C   0  0  1  0  0  3  0  0  0  0  0  0
  162.5820  210.8750  153.3770 S   0  0  0  0  0  0  0  0  0  0  0  0
  160.0280  212.0490  153.8790 C   0  0  1  0  0  3  0  0  0  0  0  0
  159.2950  209.7660  155.6130 C   0  0  0  0  0  3  0  0  0  0  0  0
  161.0900  210.2560  152.4550 C   0  0  2  0  0  3  0  0  0  0  0  0
  159.1660  210.8860  156.3360 C   0  0  0  0  0  0  0  0  0  0  0  0
  162.2070  208.1190  152.3640 O   0  0  0  0  0  1  0  0  0  0  0  0
  160.8120  210.7210  153.8150 C   0  0  2  0  0  0  0  0  0  0  0  0
  160.2170  211.9620  156.2530 C   0  0  0  0  0  2  0  0  0  0  0  0
  157.3860  212.2930  157.0040 O   0  0  0  0  0  1  0  0  0  0  0  0
  157.9980  211.0630  157.2460 C   0  0  0  0  0  2  0  0  0  0  0  0
  158.6920  211.8610  153.5020 O   0  0  0  0  0  0  0  0  0  0  0  0
  159.7060  214.0660  152.1530 O   0  0  0  0  0  1  0  0  0  0  0  0
  158.3170  213.1510  152.4660 P   0  0  0  0  0  0  0  0  0  0  0  0
  157.7550  212.6260  151.1630 O   0  0  0  0  0  0  0  0  0  0  0  0
  157.1630  214.1380  153.2100 O   0  0  0  0  0  1  0  0  0  0  0  0
  160.9140  204.3850  151.9780 C   0  0  1  0  0  3  0  0  0  0  0  0
  160.3640  202.9550  151.9220 C   0  0  0  0  0  2  0  0  0  0  0  0
  161.2270  202.0010  151.1520 C   0  0  0  0  0  0  0  0  0  0  0  0
  162.4400  202.0150  151.3110 O   0  0  0  0  0  0  0  0  0  0  0  0
  159.9920  201.7320  148.9800 C   0  0  0  0  0  2  0  0  0  0  0  0
  160.5680  201.0370  150.2020 C   0  0  0  0  0  3  0  0  0  0  0  0
  161.3220  201.0160  148.8870 C   0  0  0  0  0  2  0  0  0  0  0  0
  160.0840  205.3740  151.1550 C   0  0  0  0  0  2  0  0  0  0  0  0
  161.1760  207.1390  149.8770 C   0  0  0  0  0  3  0  0  0  0  0  0
  161.2880  208.8670  148.1850 O   0  0  0  0  0  0  0  0  0  0  0  0
  162.3700  209.0260  148.9720 O   0  0  0  0  0  0  0  0  0  0  0  0
  161.9020  207.7610  148.7180 C   0  0  0  0  0  0  0  0  0  0  0  0
  160.7970  205.3090  147.5020 C   0  0  0  0  0  2  0  0  0  0  0  0
  161.9120  206.1020  146.8020 C   0  0  1  0  0  3  0  0  0  0  0  0
  160.8290  205.8420  149.9460 C   0  0  0  0  0  0  0  0  0  0  0  0
  161.2000  204.8310  148.8930 C   0  0  0  0  0  2  0  0  0  0  0  0
  162.7590  206.9660  147.7440 C   0  0  0  0  0  2  0  0  0  0  0  0
  162.8310  205.1690  146.0270 C   0  0  0  0  0  2  0  0  0  0  0  0
  162.0780  203.9510  145.5120 C   0  0  0  0  0  2  0  0  0  0  0  0
  161.2530  205.4320  143.6810 O   0  0  0  0  0  0  0  0  0  0  0  0
  161.0440  204.3390  144.5110 C   0  0  0  0  0  0  0  0  0  0  0  0
  159.9830  203.6690  144.4120 O   0  0  0  0  0  1  0  0  0  0  0  0
  1  2  1  0  0  0  0
  2  3  1  0  0  0  0
  4  3  1  1  0  0  0
  4  5  1  0  0  0  0
  5 10  1  6  0  0  0
  6 15  1  0  0  0  0
  7 13  1  1  0  0  0
  7  4  1  0  0  0  0
  9 18  1  1  0  0  0
  9  6  1  0  0  0  0
 10 12  2  0  0  0  0
 11  7  1  0  0  0  0
 11  8  1  1  0  0  0
 11 14  1  0  0  0  0
 12 17  1  0  0  0  0
 14  8  1  1  0  0  0
 14  9  1  0  0  0  0
 14  5  1  0  0  0  0
 15 12  1  0  0  0  0
 16 17  1  0  0  0  0
 19 20  1  0  0  0  0
 20 22  1  0  0  0  0
 20 18  1  0  0  0  0
 21 20  2  0  0  0  0
 23 30  1  1  0  0  0
 23  1  1  0  0  0  0
 24 23  1  0  0  0  0
 25 26  2  0  0  0  0
 25 24  1  0  0  0  0
 27 28  1  0  0  0  0
 28 25  1  0  0  0  0
 29 27  1  0  0  0  0
 29 28  1  0  0  0  0
 31 37  2  0  0  0  0
 32 34  1  0  0  0  0
 32 33  1  0  0  0  0
 34 33  1  0  0  0  0
 34 31  1  0  0  0  0
 35 38  1  0  0  0  0
 36 40  1  1  0  0  0
 36 35  1  0  0  0  0
 36 39  1  0  0  0  0
 37 30  1  0  0  0  0
 38 37  1  0  0  0  0
 39 34  1  0  0  0  0
 41 40  1  0  0  0  0
 42 43  2  0  0  0  0
 43 41  1  0  0  0  0
 44 43  1  0  0  0  0
M  END
>  <MODEL>
7

>  <REMARK>
 VINA RESULT:      -4.9      2.084      4.257
  Name = 
  15 active torsions:
  status: ('A' for Active; 'I' for Inactive)
    1  A    between atoms: O_2  and  C_23
    2  A    between atoms: O_2  and  P_30
    3  A    between atoms: C_3  and  C_4
    4  A    between atoms: C_3  and  C_33
    5  A    between atoms: C_4  and  C_21
    6  A    between atoms: C_5  and  C_15
    7  A    between atoms: C_5  and  C_28
    8  A    between atoms: C_9  and  C_35
    9  A    between atoms: C_13  and  C_18
   10  A    between atoms: C_15  and  C_35
   11  A    between atoms: C_18  and  C_38
   12  A    between atoms: C_27  and  C_43
   13  A    between atoms: C_28  and  C_38
   14  A    between atoms: C_28  and  C_42
   15  A    between atoms: C_34  and  C_42
                            x       y       z     vdW  Elec       q    Type
                         _______ _______ _______ _____ _____    ______ ____

>  <TORSDO>
F 15

$$$$
=
 OpenBabel11072413433D

 44 49  0  0  1  0  0  0  0  0999 V2000
  162.4730  207.3070  149.3660 C   0  0  0  0  0  2  0  0  0  0  0  0
  161.8660  208.3460  150.2940 C   0  0  0  0  0  2  0  0  0  0  0  0
  161.7280  207.7640  151.6850 C   0  0  0  0  0  2  0  0  0  0  0  0
  161.0410  208.7690  152.6030 C   0  0  1  0  0  3  0  0  0  0  0  0
  161.3700  208.4970  154.0490 C   0  0  2  0  0  3  0  0  0  0  0  0
  160.8030  209.4610  157.1440 O   0  0  0  0  0  0  0  0  0  0  0  0
  161.4350  210.2270  152.3510 C   0  0  1  0  0  3  0  0  0  0  0  0
  163.0310  210.7060  154.6460 S   0  0  0  0  0  0  0  0  0  0  0  0
  160.5450  210.2090  155.9590 C   0  0  1  0  0  3  0  0  0  0  0  0
  160.3650  207.5560  154.6600 C   0  0  0  0  0  3  0  0  0  0  0  0
  161.4380  210.9290  153.7110 C   0  0  2  0  0  3  0  0  0  0  0  0
  160.2950  207.3680  155.9850 C   0  0  0  0  0  0  0  0  0  0  0  0
  162.6830  210.3440  151.7280 O   0  0  0  0  0  1  0  0  0  0  0  0
  161.4040  209.8710  154.7220 C   0  0  2  0  0  0  0  0  0  0  0  0
  161.2170  208.1260  156.9040 C   0  0  0  0  0  2  0  0  0  0  0  0
  158.1430  206.4020  155.8140 O   0  0  0  0  0  1  0  0  0  0  0  0
  159.3250  206.3890  156.5560 C   0  0  0  0  0  2  0  0  0  0  0  0
  159.1800  210.1700  155.6470 O   0  0  0  0  0  0  0  0  0  0  0  0
  157.0230  211.5780  156.6840 O   0  0  0  0  0  1  0  0  0  0  0  0
  158.5750  211.7100  156.0210 P   0  0  0  0  0  0  0  0  0  0  0  0
  159.4890  212.4020  157.0080 O   0  0  0  0  0  1  0  0  0  0  0  0
  158.4930  212.6280  154.6040 O   0  0  0  0  0  0  0  0  0  0  0  0
  161.5120  206.8750  148.2510 C   0  0  1  0  0  3  0  0  0  0  0  0
  162.1980  206.0840  147.1320 C   0  0  0  0  0  2  0  0  0  0  0  0
  161.4330  206.0650  145.8430 C   0  0  0  0  0  0  0  0  0  0  0  0
  160.4590  206.7930  145.7040 O   0  0  0  0  0  0  0  0  0  0  0  0
  162.6680  203.9520  145.2740 C   0  0  0  0  0  2  0  0  0  0  0  0
  161.8940  205.1470  144.7430 C   0  0  0  0  0  3  0  0  0  0  0  0
  161.2140  203.7980  144.8820 C   0  0  0  0  0  2  0  0  0  0  0  0
  160.2300  206.2050  148.7540 C   0  0  0  0  0  2  0  0  0  0  0  0
  160.6200  204.5970  150.5440 C   0  0  0  0  0  3  0  0  0  0  0  0
  161.9910  203.2360  152.0030 O   0  0  0  0  0  0  0  0  0  0  0  0
  160.7490  203.2340  152.5260 O   0  0  0  0  0  0  0  0  0  0  0  0
  160.9050  203.2590  151.1630 C   0  0  0  0  0  0  0  0  0  0  0  0
  161.7800  202.8420  148.3740 C   0  0  0  0  0  2  0  0  0  0  0  0
  161.5490  201.6470  149.3150 C   0  0  1  0  0  3  0  0  0  0  0  0
  160.4880  204.8090  149.2230 C   0  0  0  0  0  0  0  0  0  0  0  0
  160.5330  203.7030  148.2010 C   0  0  0  0  0  2  0  0  0  0  0  0
  160.5920  201.9360  150.4780 C   0  0  0  0  0  2  0  0  0  0  0  0
  161.0340  200.4440  148.5390 C   0  0  0  0  0  2  0  0  0  0  0  0
  161.9500  200.1030  147.3720 C   0  0  0  0  0  2  0  0  0  0  0  0
  161.2300  198.6050  145.5100 O   0  0  0  0  0  0  0  0  0  0  0  0
  161.1680  199.8460  146.1300 C   0  0  0  0  0  0  0  0  0  0  0  0
  160.4410  200.7530  145.6470 O   0  0  0  0  0  1  0  0  0  0  0  0
  1  2  1  0  0  0  0
  2  3  1  0  0  0  0
  4  3  1  6  0  0  0
  4  5  1  0  0  0  0
  5 10  1  1  0  0  0
  5 14  1  0  0  0  0
  7 13  1  1  0  0  0
  7  4  1  0  0  0  0
  7 11  1  0  0  0  0
  9 18  1  6  0  0  0
  9  6  1  0  0  0  0
 10 12  2  0  0  0  0
 11  8  1  1  0  0  0
 11 14  1  0  0  0  0
 12 17  1  0  0  0  0
 12 15  1  0  0  0  0
 14  8  1  1  0  0  0
 14  9  1  0  0  0  0
 15  6  1  0  0  0  0
 16 17  1  0  0  0  0
 18 20  1  0  0  0  0
 20 19  1  0  0  0  0
 20 21  1  0  0  0  0
 22 20  2  0  0  0  0
 23 24  1  6  0  0  0
 23 30  1  0  0  0  0
 23  1  1  0  0  0  0
 25 24  1  0  0  0  0
 26 25  2  0  0  0  0
 28 29  1  0  0  0  0
 28 27  1  0  0  0  0
 28 25  1  0  0  0  0
 29 27  1  0  0  0  0
 30 37  1  0  0  0  0
 31 34  1  0  0  0  0
 32 33  1  0  0  0  0
 34 32  1  0  0  0  0
 34 33  1  0  0  0  0
 35 36  1  0  0  0  0
 36 40  1  6  0  0  0
 36 39  1  0  0  0  0
 37 31  2  0  0  0  0
 38 35  1  0  0  0  0
 38 37  1  0  0  0  0
 39 34  1  0  0  0  0
 41 40  1  0  0  0  0
 42 43  2  0  0  0  0
 43 41  1  0  0  0  0
 44 43  1  0  0  0  0
M  END
>  <MODEL>
8

>  <REMARK>
 VINA RESULT:      -4.9      2.200      4.627
  Name = 
  15 active torsions:
  status: ('A' for Active; 'I' for Inactive)
    1  A    between atoms: O_2  and  C_23
    2  A    between atoms: O_2  and  P_30
    3  A    between atoms: C_3  and  C_4
    4  A    between atoms: C_3  and  C_33
    5  A    between atoms: C_4  and  C_21
    6  A    between atoms: C_5  and  C_15
    7  A    between atoms: C_5  and  C_28
    8  A    between atoms: C_9  and  C_35
    9  A    between atoms: C_13  and  C_18
   10  A    between atoms: C_15  and  C_35
   11  A    between atoms: C_18  and  C_38
   12  A    between atoms: C_27  and  C_43
   13  A    between atoms: C_28  and  C_38
   14  A    between atoms: C_28  and  C_42
   15  A    between atoms: C_34  and  C_42
                            x       y       z     vdW  Elec       q    Type
                         _______ _______ _______ _____ _____    ______ ____

>  <TORSDO>
F 15

$$$$
=
 OpenBabel11072413433D

 44 49  0  0  1  0  0  0  0  0999 V2000
  161.3590  205.2590  153.0920 C   0  0  0  0  0  2  0  0  0  0  0  0
  160.7520  205.0040  151.7220 C   0  0  0  0  0  2  0  0  0  0  0  0
  160.8050  203.5230  151.4130 C   0  0  0  0  0  2  0  0  0  0  0  0
  160.3790  203.2790  149.9690 C   0  0  1  0  0  3  0  0  0  0  0  0
  161.4820  203.6420  149.0080 C   0  0  2  0  0  3  0  0  0  0  0  0
  162.2930  203.8470  145.8250 O   0  0  0  0  0  0  0  0  0  0  0  0
  160.0120  201.8250  149.6550 C   0  0  1  0  0  3  0  0  0  0  0  0
  162.2550  201.0830  148.0870 S   0  0  0  0  0  0  0  0  0  0  0  0
  161.2030  203.1170  146.3800 C   0  0  1  0  0  3  0  0  0  0  0  0
  161.3730  205.0840  148.5850 C   0  0  0  0  0  3  0  0  0  0  0  0
  160.4600  201.5530  148.2170 C   0  0  2  0  0  3  0  0  0  0  0  0
  162.0750  205.5670  147.5510 C   0  0  0  0  0  0  0  0  0  0  0  0
  160.6090  200.9200  150.5410 O   0  0  0  0  0  1  0  0  0  0  0  0
  161.3500  202.6550  147.8460 C   0  0  2  0  0  0  0  0  0  0  0  0
  162.9810  204.6570  146.7640 C   0  0  0  0  0  2  0  0  0  0  0  0
  161.2480  207.6980  148.1560 O   0  0  0  0  0  1  0  0  0  0  0  0
  161.9850  207.0110  147.1910 C   0  0  0  0  0  2  0  0  0  0  0  0
  160.0030  203.8150  146.1920 O   0  0  0  0  0  0  0  0  0  0  0  0
  157.9230  203.9530  144.3580 O   0  0  0  0  0  1  0  0  0  0  0  0
  159.5430  203.5210  144.5860 P   0  0  0  0  0  0  0  0  0  0  0  0
  160.4160  204.3170  143.6400 O   0  0  0  0  0  0  0  0  0  0  0  0
  159.7270  201.8730  144.2550 O   0  0  0  0  0  1  0  0  0  0  0  0
  161.2920  206.7350  153.5040 C   0  0  1  0  0  3  0  0  0  0  0  0
  160.8460  207.6610  152.3670 C   0  0  0  0  0  2  0  0  0  0  0  0
  161.9770  208.3570  151.6690 C   0  0  0  0  0  0  0  0  0  0  0  0
  162.6990  207.7280  150.9090 O   0  0  0  0  0  0  0  0  0  0  0  0
  161.5790  210.6930  150.8330 C   0  0  0  0  0  2  0  0  0  0  0  0
  162.1860  209.8250  151.9220 C   0  0  0  0  0  3  0  0  0  0  0  0
  160.8480  210.5040  152.1450 C   0  0  0  0  0  2  0  0  0  0  0  0
  160.5340  206.9880  154.8100 C   0  0  0  0  0  2  0  0  0  0  0  0
  161.8670  208.9260  155.4500 C   0  0  0  0  0  3  0  0  0  0  0  0
  162.9260  210.4300  157.0230 O   0  0  0  0  0  0  0  0  0  0  0  0
  163.4500  210.7040  155.8120 O   0  0  0  0  0  0  0  0  0  0  0  0
  162.1330  210.3320  155.9060 C   0  0  0  0  0  0  0  0  0  0  0  0
  159.3150  209.9530  156.7000 C   0  0  0  0  0  2  0  0  0  0  0  0
  159.9360  211.3590  156.6420 C   0  0  1  0  0  3  0  0  0  0  0  0
  160.6410  208.4160  155.2390 C   0  0  0  0  0  0  0  0  0  0  0  0
  159.3780  209.2280  155.3610 C   0  0  0  0  0  2  0  0  0  0  0  0
  161.1480  211.4750  155.7110 C   0  0  0  0  0  2  0  0  0  0  0  0
  158.8960  212.3900  156.2300 C   0  0  0  0  0  2  0  0  0  0  0  0
  159.2300  213.0040  154.8770 C   0  0  0  0  0  2  0  0  0  0  0  0
  158.2450  212.9810  152.5840 O   0  0  0  0  0  0  0  0  0  0  0  0
  158.0560  212.9580  153.9600 C   0  0  0  0  0  0  0  0  0  0  0  0
  156.8920  212.8860  154.4330 O   0  0  0  0  0  1  0  0  0  0  0  0
  1 23  1  0  0  0  0
  2  1  1  0  0  0  0
  3  2  1  0  0  0  0
  4  3  1  1  0  0  0
  5 10  1  6  0  0  0
  5  4  1  0  0  0  0
  6  9  1  0  0  0  0
  6 15  1  0  0  0  0
  7  4  1  0  0  0  0
  7 13  1  1  0  0  0
  9 18  1  1  0  0  0
  9 14  1  0  0  0  0
 11  8  1  1  0  0  0
 11  7  1  0  0  0  0
 12 10  2  0  0  0  0
 14  8  1  6  0  0  0
 14 11  1  0  0  0  0
 14  5  1  0  0  0  0
 15 12  1  0  0  0  0
 17 12  1  0  0  0  0
 17 16  1  0  0  0  0
 19 20  1  0  0  0  0
 20 18  1  0  0  0  0
 21 20  2  0  0  0  0
 22 20  1  0  0  0  0
 23 24  1  6  0  0  0
 23 30  1  0  0  0  0
 25 28  1  0  0  0  0
 25 24  1  0  0  0  0
 26 25  2  0  0  0  0
 27 28  1  0  0  0  0
 27 29  1  0  0  0  0
 28 29  1  0  0  0  0
 30 37  1  0  0  0  0
 31 34  1  0  0  0  0
 33 34  1  0  0  0  0
 33 32  1  0  0  0  0
 34 32  1  0  0  0  0
 36 40  1  6  0  0  0
 36 35  1  0  0  0  0
 37 38  1  0  0  0  0
 37 31  2  0  0  0  0
 38 35  1  0  0  0  0
 39 34  1  0  0  0  0
 39 36  1  0  0  0  0
 41 40  1  0  0  0  0
 42 43  2  0  0  0  0
 43 44  1  0  0  0  0
 43 41  1  0  0  0  0
M  END
>  <MODEL>
9

>  <REMARK>
 VINA RESULT:      -4.9      3.479     10.418
  Name = 
  15 active torsions:
  status: ('A' for Active; 'I' for Inactive)
    1  A    between atoms: O_2  and  C_23
    2  A    between atoms: O_2  and  P_30
    3  A    between atoms: C_3  and  C_4
    4  A    between atoms: C_3  and  C_33
    5  A    between atoms: C_4  and  C_21
    6  A    between atoms: C_5  and  C_15
    7  A    between atoms: C_5  and  C_28
    8  A    between atoms: C_9  and  C_35
    9  A    between atoms: C_13  and  C_18
   10  A    between atoms: C_15  and  C_35
   11  A    between atoms: C_18  and  C_38
   12  A    between atoms: C_27  and  C_43
   13  A    between atoms: C_28  and  C_38
   14  A    between atoms: C_28  and  C_42
   15  A    between atoms: C_34  and  C_42
                            x       y       z     vdW  Elec       q    Type
                         _______ _______ _______ _____ _____    ______ ____

>  <TORSDO>
F 15

$$$$
