=
 OpenBabel11072412353D

 51 58  0  0  1  0  0  0  0  0999 V2000
  161.3900  208.4010  152.3020 C   0  0  0  0  0  2  0  0  0  0  0  0
  161.4280  211.0070  151.1910 O   0  0  0  0  0  0  0  0  0  0  0  0
  161.8520  209.9310  150.3500 C   0  0  1  0  0  3  0  0  0  0  0  0
  161.0620  210.8500  152.5310 C   0  0  0  0  0  0  0  0  0  0  0  0
  161.2360  208.5970  150.7920 C   0  0  1  0  0  3  0  0  0  0  0  0
  160.6760  209.5070  153.0640 C   0  0  0  0  0  2  0  0  0  0  0  0
  160.9610  211.8650  153.2670 O   0  0  0  0  0  0  0  0  0  0  0  0
  161.3040  205.9120  147.5310 C   0  0  1  0  0  3  0  0  0  0  0  0
  160.3150  206.0380  148.5510 O   0  0  0  0  0  0  0  0  0  0  0  0
  162.2860  207.9260  148.6160 C   0  0  0  0  0  2  0  0  0  0  0  0
  160.8690  206.2010  149.8500 C   0  0  2  0  0  3  0  0  0  0  0  0
  161.8030  207.4270  149.9710 C   0  0  2  0  0  3  0  0  0  0  0  0
  162.5880  206.7280  147.7410 C   0  0  0  0  0  2  0  0  0  0  0  0
  161.5770  204.4830  147.1590 C   0  0  0  0  0  0  0  0  0  0  0  0
  160.7030  203.4520  147.6360 N   0  0  0  0  0  2  0  0  0  0  0  0
  162.5810  204.1970  146.4580 O   0  0  0  0  0  0  0  0  0  0  0  0
  160.3890  201.2600  145.2780 N   0  0  0  0  0  2  0  0  0  0  0  0
  160.9550  202.0450  147.5350 C   0  0  2  0  0  3  0  0  0  0  0  0
  161.0890  199.1710  145.6180 C   0  0  0  0  0  3  0  0  0  0  0  0
  160.7160  200.0190  144.7010 N   0  0  0  0  0  0  0  0  0  0  0  0
  161.7730  201.3710  148.3440 C   0  0  0  0  0  3  0  0  0  0  0  0
  160.4290  201.1160  146.5580 C   0  0  2  0  0  3  0  0  0  0  0  0
  161.8410  199.9640  147.8770 C   0  0  0  0  0  3  0  0  0  0  0  0
  160.9600  199.8540  146.8920 C   0  0  2  0  0  3  0  0  0  0  0  0
  161.3340  204.8260  151.8680 C   0  0  0  0  0  2  0  0  0  0  0  0
  160.4740  204.0010  150.9330 C   0  0  0  0  0  2  0  0  0  0  0  0
  161.5330  204.9290  150.3670 C   0  0  0  0  0  3  0  0  0  0  0  0
  161.4400  210.2320  148.9040 C   0  0  0  0  0  2  0  0  0  0  0  0
  161.3380  214.4530  148.0490 C   0  0  0  0  0  2  0  0  0  0  0  0
  163.7490  211.7560  148.4310 O   0  0  0  0  0  0  0  0  0  0  0  0
  161.3720  211.7240  148.5540 C   0  0  2  0  0  3  0  0  0  0  0  0
  162.7110  212.3950  148.3800 C   0  0  0  0  0  0  0  0  0  0  0  0
  160.4730  214.0350  149.2530 C   0  0  2  0  0  3  0  0  0  0  0  0
  160.4700  212.5190  149.5180 C   0  0  1  0  0  3  0  0  0  0  0  0
  159.2290  213.1950  148.9160 C   0  0  2  0  0  3  0  0  0  0  0  0
  162.7530  213.8830  148.1500 C   0  0  1  0  0  3  0  0  0  0  0  0
  158.0890  214.0710  145.3660 C   0  0  0  0  0  2  0  0  0  0  0  0
  157.7550  213.5720  146.7720 C   0  0  0  0  0  2  0  0  0  0  0  0
  159.7590  212.3040  145.2710 N   0  0  0  0  0  0  0  0  0  0  0  0
  159.8770  212.3440  146.7010 C   0  0  0  0  0  3  0  0  0  0  0  0
  158.9520  212.9560  147.4490 C   0  0  0  0  0  0  0  0  0  0  0  0
  158.8430  213.0190  143.1970 N   0  0  0  0  0  2  0  0  0  0  0  0
  158.9140  213.0520  144.6250 C   0  0  0  0  0  0  0  0  0  0  0  0
  160.4490  210.9390  142.9050 O   0  0  0  0  0  0  0  0  0  0  0  0
  159.8760  212.1010  142.1410 S   0  0  0  0  0  0  0  0  0  0  0  0
  159.0550  211.5850  140.9940 O   0  0  0  0  0  0  0  0  0  0  0  0
  161.2320  213.0620  141.4960 C   0  0  0  0  0  2  0  0  0  0  0  0
  162.2010  212.1820  140.8690 N   0  0  0  0  0  1  0  0  0  0  0  0
  163.4570  214.1870  146.9550 O   0  0  0  0  0  0  0  0  0  0  0  0
  163.0120  213.7250  145.7490 C   0  0  0  0  0  0  0  0  0  0  0  0
  162.6200  213.3220  144.6830 C   0  0  0  0  0  3  0  0  0  0  0  0
  1  6  1  0  0  0  0
  2  4  1  0  0  0  0
  3 28  1  6  0  0  0
  3  5  1  0  0  0  0
  3  2  1  0  0  0  0
  4  6  1  0  0  0  0
  4  7  2  0  0  0  0
  5  1  1  1  0  0  0
  8 14  1  1  0  0  0
  8 13  1  0  0  0  0
  8  9  1  0  0  0  0
  9 11  1  0  0  0  0
 11 12  1  0  0  0  0
 11 27  1  6  0  0  0
 12 10  1  6  0  0  0
 12  5  1  0  0  0  0
 13 10  1  0  0  0  0
 14 15  1  0  0  0  0
 16 14  2  0  0  0  0
 18 15  1  6  0  0  0
 18 21  1  0  0  0  0
 20 17  1  0  0  0  0
 20 19  2  0  0  0  0
 22 17  1  6  0  0  0
 22 24  1  0  0  0  0
 22 18  1  0  0  0  0
 23 21  2  0  0  0  0
 24 19  1  6  0  0  0
 24 23  1  0  0  0  0
 26 25  1  0  0  0  0
 27 26  1  0  0  0  0
 27 25  1  0  0  0  0
 29 36  1  0  0  0  0
 31 28  1  1  0  0  0
 31 34  1  0  0  0  0
 32 30  2  0  0  0  0
 32 31  1  0  0  0  0
 33 29  1  6  0  0  0
 33 34  1  0  0  0  0
 35 33  1  0  0  0  0
 35 34  1  0  0  0  0
 36 32  1  0  0  0  0
 37 38  1  0  0  0  0
 38 41  1  0  0  0  0
 39 40  1  0  0  0  0
 40 41  2  0  0  0  0
 41 35  1  0  0  0  0
 42 43  1  0  0  0  0
 43 39  2  0  0  0  0
 43 37  1  0  0  0  0
 45 44  2  0  0  0  0
 45 42  1  0  0  0  0
 46 45  2  0  0  0  0
 47 45  1  0  0  0  0
 48 47  1  0  0  0  0
 49 36  1  0  0  0  0
 50 49  1  0  0  0  0
 51 50  3  0  0  0  0
M  END
>  <MODEL>
1

>  <REMARK>
 VINA RESULT:      -5.7      0.000      0.000
  Name = 
  11 active torsions:
  status: ('A' for Active; 'I' for Inactive)
    1  A    between atoms: C_3  and  C_4
    2  A    between atoms: C_7  and  O_51
    3  A    between atoms: C_9  and  N_20
    4  A    between atoms: C_14  and  C_47
    5  A    between atoms: C_16  and  S_19
    6  A    between atoms: S_19  and  N_44
    7  A    between atoms: C_24  and  C_47
    8  A    between atoms: C_32  and  C_43
    9  A    between atoms: C_33  and  C_38
   10  A    between atoms: C_35  and  C_36
   11  A    between atoms: C_42  and  O_51
                            x       y       z     vdW  Elec       q    Type
                         _______ _______ _______ _____ _____    ______ ____

>  <TORSDO>
F 11

$$$$
=
 OpenBabel11072412353D

 51 58  0  0  1  0  0  0  0  0999 V2000
  161.4600  211.0530  150.4910 C   0  0  0  0  0  2  0  0  0  0  0  0
  159.9910  210.7340  152.8930 O   0  0  0  0  0  0  0  0  0  0  0  0
  160.4580  209.5460  152.2490 C   0  0  1  0  0  3  0  0  0  0  0  0
  160.1640  212.0200  152.3730 C   0  0  0  0  0  0  0  0  0  0  0  0
  161.6890  209.8260  151.3780 C   0  0  1  0  0  3  0  0  0  0  0  0
  161.2100  212.2910  151.3400 C   0  0  0  0  0  2  0  0  0  0  0  0
  159.5020  212.9750  152.8550 O   0  0  0  0  0  0  0  0  0  0  0  0
  161.0850  206.7210  148.5790 C   0  0  1  0  0  3  0  0  0  0  0  0
  160.3960  206.9490  149.8070 O   0  0  0  0  0  0  0  0  0  0  0  0
  162.1680  208.9020  149.0970 C   0  0  0  0  0  2  0  0  0  0  0  0
  161.2620  207.3110  150.8740 C   0  0  2  0  0  3  0  0  0  0  0  0
  162.1010  208.5760  150.5830 C   0  0  2  0  0  3  0  0  0  0  0  0
  162.3140  207.6060  148.3270 C   0  0  0  0  0  2  0  0  0  0  0  0
  161.3540  205.2660  148.3240 C   0  0  0  0  0  0  0  0  0  0  0  0
  160.4720  204.2800  148.8760 N   0  0  0  0  0  2  0  0  0  0  0  0
  162.3610  204.9200  147.6550 O   0  0  0  0  0  0  0  0  0  0  0  0
  160.7700  202.0110  146.5900 N   0  0  0  0  0  2  0  0  0  0  0  0
  160.7180  202.8680  148.8910 C   0  0  2  0  0  3  0  0  0  0  0  0
  161.3170  199.9300  147.1710 C   0  0  0  0  0  3  0  0  0  0  0  0
  161.2200  200.7480  146.1620 N   0  0  0  0  0  0  0  0  0  0  0  0
  161.2760  202.2160  149.9110 C   0  0  0  0  0  3  0  0  0  0  0  0
  160.4600  201.9110  147.8370 C   0  0  2  0  0  3  0  0  0  0  0  0
  161.4440  200.7930  149.5230 C   0  0  0  0  0  3  0  0  0  0  0  0
  160.8600  200.6560  148.3410 C   0  0  2  0  0  3  0  0  0  0  0  0
  162.0620  206.0370  152.8540 C   0  0  0  0  0  2  0  0  0  0  0  0
  161.2560  205.0900  151.9870 C   0  0  0  0  0  2  0  0  0  0  0  0
  162.1320  206.1480  151.3420 C   0  0  0  0  0  3  0  0  0  0  0  0
  160.8110  208.5030  153.3160 C   0  0  0  0  0  2  0  0  0  0  0  0
  161.6520  210.0200  157.2590 C   0  0  0  0  0  2  0  0  0  0  0  0
  163.2210  209.7770  153.9860 O   0  0  0  0  0  0  0  0  0  0  0  0
  161.0650  209.0770  154.7160 C   0  0  2  0  0  3  0  0  0  0  0  0
  162.4320  209.6830  154.9120 C   0  0  0  0  0  0  0  0  0  0  0  0
  161.0840  208.5890  157.2450 C   0  0  2  0  0  3  0  0  0  0  0  0
  160.7330  208.0740  155.8380 C   0  0  1  0  0  3  0  0  0  0  0  0
  159.6120  208.4640  156.8130 C   0  0  2  0  0  3  0  0  0  0  0  0
  162.8200  210.1690  156.2840 C   0  0  1  0  0  3  0  0  0  0  0  0
  159.2290  212.1890  156.0060 C   0  0  0  0  0  2  0  0  0  0  0  0
  159.4100  211.0760  157.0380 C   0  0  0  0  0  2  0  0  0  0  0  0
  157.2610  210.9830  155.2340 N   0  0  0  0  0  0  0  0  0  0  0  0
  157.8390  209.7520  155.6970 C   0  0  0  0  0  3  0  0  0  0  0  0
  158.8760  209.7560  156.5420 C   0  0  0  0  0  0  0  0  0  0  0  0
  157.2720  213.3350  154.8960 N   0  0  0  0  0  2  0  0  0  0  0  0
  157.8520  212.1290  155.4000 C   0  0  0  0  0  0  0  0  0  0  0  0
  155.1440  212.1110  153.9150 O   0  0  0  0  0  0  0  0  0  0  0  0
  155.8170  213.4550  153.9510 S   0  0  0  0  0  0  0  0  0  0  0  0
  154.9010  214.4520  154.6030 O   0  0  0  0  0  0  0  0  0  0  0  0
  156.1250  213.9660  152.2700 C   0  0  0  0  0  2  0  0  0  0  0  0
  157.4880  214.4480  152.1480 N   0  0  0  0  0  1  0  0  0  0  0  0
  163.2120  211.5330  156.2410 O   0  0  0  0  0  0  0  0  0  0  0  0
  164.4440  211.9170  156.6890 C   0  0  0  0  0  0  0  0  0  0  0  0
  165.5310  212.2510  157.0860 C   0  0  0  0  0  3  0  0  0  0  0  0
  1  6  1  0  0  0  0
  3  2  1  0  0  0  0
  3 28  1  1  0  0  0
  4  7  2  0  0  0  0
  4  2  1  0  0  0  0
  5  1  1  6  0  0  0
  5  3  1  0  0  0  0
  6  4  1  0  0  0  0
  8 14  1  1  0  0  0
  8  9  1  0  0  0  0
  9 11  1  0  0  0  0
 11 27  1  6  0  0  0
 12 10  1  6  0  0  0
 12 11  1  0  0  0  0
 12  5  1  0  0  0  0
 13  8  1  0  0  0  0
 13 10  1  0  0  0  0
 14 15  1  0  0  0  0
 16 14  2  0  0  0  0
 18 15  1  6  0  0  0
 18 21  1  0  0  0  0
 20 17  1  0  0  0  0
 20 19  2  0  0  0  0
 22 17  1  6  0  0  0
 22 24  1  0  0  0  0
 22 18  1  0  0  0  0
 23 21  2  0  0  0  0
 24 19  1  6  0  0  0
 24 23  1  0  0  0  0
 26 25  1  0  0  0  0
 27 26  1  0  0  0  0
 27 25  1  0  0  0  0
 30 32  2  0  0  0  0
 31 28  1  6  0  0  0
 31 32  1  0  0  0  0
 31 34  1  0  0  0  0
 32 36  1  0  0  0  0
 33 29  1  6  0  0  0
 34 35  1  0  0  0  0
 34 33  1  0  0  0  0
 35 33  1  0  0  0  0
 36 29  1  0  0  0  0
 37 38  1  0  0  0  0
 39 43  2  0  0  0  0
 39 40  1  0  0  0  0
 40 41  2  0  0  0  0
 41 35  1  0  0  0  0
 41 38  1  0  0  0  0
 42 43  1  0  0  0  0
 43 37  1  0  0  0  0
 44 45  2  0  0  0  0
 45 46  2  0  0  0  0
 45 42  1  0  0  0  0
 47 45  1  0  0  0  0
 48 47  1  0  0  0  0
 49 36  1  0  0  0  0
 49 50  1  0  0  0  0
 50 51  3  0  0  0  0
M  END
>  <MODEL>
2

>  <REMARK>
 VINA RESULT:      -5.1      4.646      7.202
  Name = 
  11 active torsions:
  status: ('A' for Active; 'I' for Inactive)
    1  A    between atoms: C_3  and  C_4
    2  A    between atoms: C_7  and  O_51
    3  A    between atoms: C_9  and  N_20
    4  A    between atoms: C_14  and  C_47
    5  A    between atoms: C_16  and  S_19
    6  A    between atoms: S_19  and  N_44
    7  A    between atoms: C_24  and  C_47
    8  A    between atoms: C_32  and  C_43
    9  A    between atoms: C_33  and  C_38
   10  A    between atoms: C_35  and  C_36
   11  A    between atoms: C_42  and  O_51
                            x       y       z     vdW  Elec       q    Type
                         _______ _______ _______ _____ _____    ______ ____

>  <TORSDO>
F 11

$$$$
=
 OpenBabel11072412353D

 51 58  0  0  1  0  0  0  0  0999 V2000
  162.3240  212.6770  144.1600 C   0  0  0  0  0  2  0  0  0  0  0  0
  161.1820  212.2900  141.5950 O   0  0  0  0  0  0  0  0  0  0  0  0
  160.3240  212.1190  142.7260 C   0  0  1  0  0  3  0  0  0  0  0  0
  162.5480  212.5710  141.6910 C   0  0  0  0  0  0  0  0  0  0  0  0
  160.8280  212.9120  143.9380 C   0  0  1  0  0  3  0  0  0  0  0  0
  163.1250  213.1340  142.9500 C   0  0  0  0  0  2  0  0  0  0  0  0
  163.2780  212.4430  140.6740 O   0  0  0  0  0  0  0  0  0  0  0  0
  157.9710  213.8350  146.9110 C   0  0  1  0  0  3  0  0  0  0  0  0
  159.2360  214.4530  146.6800 O   0  0  0  0  0  0  0  0  0  0  0  0
  158.5020  212.5940  144.8190 C   0  0  0  0  0  2  0  0  0  0  0  0
  160.2720  213.5190  146.4060 C   0  0  2  0  0  3  0  0  0  0  0  0
  159.9790  212.6150  145.1860 C   0  0  2  0  0  3  0  0  0  0  0  0
  157.6890  212.5640  146.0960 C   0  0  0  0  0  2  0  0  0  0  0  0
  157.6630  213.6700  148.3710 C   0  0  0  0  0  0  0  0  0  0  0  0
  158.4900  214.3220  149.3430 N   0  0  0  0  0  2  0  0  0  0  0  0
  156.7030  212.9430  148.7330 O   0  0  0  0  0  0  0  0  0  0  0  0
  156.1240  214.2550  151.5470 N   0  0  0  0  0  2  0  0  0  0  0  0
  158.4430  214.0890  150.7560 C   0  0  2  0  0  3  0  0  0  0  0  0
  156.5940  213.6780  153.6480 C   0  0  0  0  0  3  0  0  0  0  0  0
  155.6210  213.8590  152.8000 N   0  0  0  0  0  0  0  0  0  0  0  0
  159.3900  213.4470  151.4420 C   0  0  0  0  0  3  0  0  0  0  0  0
  157.3910  214.4520  151.6810 C   0  0  2  0  0  3  0  0  0  0  0  0
  158.9480  213.3290  152.8540 C   0  0  0  0  0  3  0  0  0  0  0  0
  157.8210  214.0200  152.9520 C   0  0  2  0  0  3  0  0  0  0  0  0
  162.1790  212.6230  147.7260 C   0  0  0  0  0  2  0  0  0  0  0  0
  161.4180  213.5920  148.6080 C   0  0  0  0  0  2  0  0  0  0  0  0
  160.6660  212.7040  147.6340 C   0  0  0  0  0  3  0  0  0  0  0  0
  158.9100  212.5860  142.3580 C   0  0  0  0  0  2  0  0  0  0  0  0
  158.2810  213.5310  138.2030 C   0  0  0  0  0  2  0  0  0  0  0  0
  160.4770  214.4450  140.9560 O   0  0  0  0  0  0  0  0  0  0  0  0
  158.6960  212.8680  140.8660 C   0  0  2  0  0  3  0  0  0  0  0  0
  159.5950  213.9310  140.2870 C   0  0  0  0  0  0  0  0  0  0  0  0
  156.9940  213.5310  139.0490 C   0  0  2  0  0  3  0  0  0  0  0  0
  157.2180  213.1380  140.5190 C   0  0  1  0  0  3  0  0  0  0  0  0
  156.5360  212.1520  139.5580 C   0  0  2  0  0  3  0  0  0  0  0  0
  159.3840  214.3620  138.8590 C   0  0  1  0  0  3  0  0  0  0  0  0
  158.0430  209.6850  137.0450 C   0  0  0  0  0  2  0  0  0  0  0  0
  156.8810  210.1030  137.9470 C   0  0  0  0  0  2  0  0  0  0  0  0
  159.4550  209.7950  139.0240 N   0  0  0  0  0  0  0  0  0  0  0  0
  158.5700  210.7710  139.5960 C   0  0  0  0  0  3  0  0  0  0  0  0
  157.3430  210.9600  139.0990 C   0  0  0  0  0  0  0  0  0  0  0  0
  160.1380  208.2990  137.3080 N   0  0  0  0  0  2  0  0  0  0  0  0
  159.2200  209.2400  137.8720 C   0  0  0  0  0  0  0  0  0  0  0  0
  161.9850  206.4250  137.5690 O   0  0  0  0  0  0  0  0  0  0  0  0
  161.6740  207.8380  137.9800 S   0  0  0  0  0  0  0  0  0  0  0  0
  162.7310  208.7570  137.4370 O   0  0  0  0  0  0  0  0  0  0  0  0
  161.7000  207.9140  139.7610 C   0  0  0  0  0  2  0  0  0  0  0  0
  162.5400  206.8530  140.2850 N   0  0  0  0  0  1  0  0  0  0  0  0
  160.5800  214.2160  138.1080 O   0  0  0  0  0  0  0  0  0  0  0  0
  161.0400  212.9750  137.7690 C   0  0  0  0  0  0  0  0  0  0  0  0
  161.4440  211.8820  137.4640 C   0  0  0  0  0  3  0  0  0  0  0  0
  2  4  1  0  0  0  0
  2  3  1  0  0  0  0
  3 28  1  6  0  0  0
  3  5  1  0  0  0  0
  4  6  1  0  0  0  0
  5  1  1  1  0  0  0
  5 12  1  0  0  0  0
  6  1  1  0  0  0  0
  7  4  2  0  0  0  0
  8 14  1  1  0  0  0
  9  8  1  0  0  0  0
 10 13  1  0  0  0  0
 11  9  1  0  0  0  0
 11 27  1  1  0  0  0
 12 10  1  6  0  0  0
 12 11  1  0  0  0  0
 13  8  1  0  0  0  0
 14 16  2  0  0  0  0
 14 15  1  0  0  0  0
 17 20  1  0  0  0  0
 18 15  1  6  0  0  0
 18 21  1  0  0  0  0
 18 22  1  0  0  0  0
 20 19  2  0  0  0  0
 21 23  2  0  0  0  0
 22 17  1  6  0  0  0
 22 24  1  0  0  0  0
 24 23  1  6  0  0  0
 24 19  1  0  0  0  0
 25 26  1  0  0  0  0
 27 25  1  0  0  0  0
 27 26  1  0  0  0  0
 29 36  1  0  0  0  0
 31 28  1  1  0  0  0
 32 31  1  0  0  0  0
 32 30  2  0  0  0  0
 33 29  1  6  0  0  0
 33 35  1  0  0  0  0
 33 34  1  0  0  0  0
 34 31  1  0  0  0  0
 35 34  1  0  0  0  0
 36 32  1  0  0  0  0
 37 43  1  0  0  0  0
 37 38  1  0  0  0  0
 38 41  1  0  0  0  0
 39 40  1  0  0  0  0
 41 35  1  0  0  0  0
 41 40  2  0  0  0  0
 42 43  1  0  0  0  0
 42 45  1  0  0  0  0
 43 39  2  0  0  0  0
 44 45  2  0  0  0  0
 45 47  1  0  0  0  0
 46 45  2  0  0  0  0
 47 48  1  0  0  0  0
 49 36  1  0  0  0  0
 50 49  1  0  0  0  0
 51 50  3  0  0  0  0
M  END
>  <MODEL>
3

>  <REMARK>
 VINA RESULT:      -4.9      6.036     10.037
  Name = 
  11 active torsions:
  status: ('A' for Active; 'I' for Inactive)
    1  A    between atoms: C_3  and  C_4
    2  A    between atoms: C_7  and  O_51
    3  A    between atoms: C_9  and  N_20
    4  A    between atoms: C_14  and  C_47
    5  A    between atoms: C_16  and  S_19
    6  A    between atoms: S_19  and  N_44
    7  A    between atoms: C_24  and  C_47
    8  A    between atoms: C_32  and  C_43
    9  A    between atoms: C_33  and  C_38
   10  A    between atoms: C_35  and  C_36
   11  A    between atoms: C_42  and  O_51
                            x       y       z     vdW  Elec       q    Type
                         _______ _______ _______ _____ _____    ______ ____

>  <TORSDO>
F 11

$$$$
=
 OpenBabel11072412353D

 51 58  0  0  1  0  0  0  0  0999 V2000
  161.3700  201.9930  148.9350 C   0  0  0  0  0  2  0  0  0  0  0  0
  160.9410  204.1610  150.7080 O   0  0  0  0  0  0  0  0  0  0  0  0
  161.2830  204.4790  149.3570 C   0  0  1  0  0  3  0  0  0  0  0  0
  160.8700  202.8570  151.2070 C   0  0  0  0  0  0  0  0  0  0  0  0
  160.8970  203.3460  148.3980 C   0  0  1  0  0  3  0  0  0  0  0  0
  160.7250  201.6930  150.2800 C   0  0  0  0  0  2  0  0  0  0  0  0
  160.8260  202.6730  152.4510 O   0  0  0  0  0  0  0  0  0  0  0  0
  161.2950  205.6890  144.9050 C   0  0  1  0  0  3  0  0  0  0  0  0
  160.1070  205.1310  145.4630 O   0  0  0  0  0  0  0  0  0  0  0  0
  162.3540  204.8140  146.9820 C   0  0  0  0  0  2  0  0  0  0  0  0
  160.2760  203.7920  145.9120 C   0  0  2  0  0  3  0  0  0  0  0  0
  161.3910  203.6350  146.9710 C   0  0  2  0  0  3  0  0  0  0  0  0
  162.6130  205.2370  145.5510 C   0  0  0  0  0  2  0  0  0  0  0  0
  161.3250  205.6120  143.4060 C   0  0  0  0  0  0  0  0  0  0  0  0
  162.0820  206.5780  142.6670 N   0  0  0  0  0  2  0  0  0  0  0  0
  160.6670  204.7220  142.8090 O   0  0  0  0  0  0  0  0  0  0  0  0
  161.6150  209.1120  140.7110 N   0  0  0  0  0  2  0  0  0  0  0  0
  162.0340  206.7520  141.2450 C   0  0  2  0  0  3  0  0  0  0  0  0
  161.7960  208.8470  138.5050 C   0  0  0  0  0  3  0  0  0  0  0  0
  161.7380  209.7360  139.4560 N   0  0  0  0  0  0  0  0  0  0  0  0
  162.5740  205.9040  140.3690 C   0  0  0  0  0  3  0  0  0  0  0  0
  161.4530  207.8510  140.5030 C   0  0  2  0  0  3  0  0  0  0  0  0
  162.3970  206.4630  139.0050 C   0  0  0  0  0  3  0  0  0  0  0  0
  161.6500  207.5500  139.1400 C   0  0  2  0  0  3  0  0  0  0  0  0
  160.3240  201.3860  145.2860 C   0  0  0  0  0  2  0  0  0  0  0  0
  159.1530  202.0280  144.5710 C   0  0  0  0  0  2  0  0  0  0  0  0
  160.4430  202.8050  144.7610 C   0  0  0  0  0  3  0  0  0  0  0  0
  160.5610  205.7680  148.9460 C   0  0  0  0  0  2  0  0  0  0  0  0
  162.6450  209.3850  150.0120 C   0  0  0  0  0  2  0  0  0  0  0  0
  160.7670  207.9800  147.2300 O   0  0  0  0  0  0  0  0  0  0  0  0
  161.2680  207.0620  149.3700 C   0  0  2  0  0  3  0  0  0  0  0  0
  161.3260  208.1290  148.3050 C   0  0  0  0  0  0  0  0  0  0  0  0
  163.4320  208.0950  150.3110 C   0  0  2  0  0  3  0  0  0  0  0  0
  162.6600  206.8060  149.9800 C   0  0  1  0  0  3  0  0  0  0  0  0
  162.8660  207.2210  151.4440 C   0  0  2  0  0  3  0  0  0  0  0  0
  162.0990  209.3910  148.5840 C   0  0  1  0  0  3  0  0  0  0  0  0
  160.4060  207.5970  154.3550 C   0  0  0  0  0  2  0  0  0  0  0  0
  160.8300  206.8830  153.0720 C   0  0  0  0  0  2  0  0  0  0  0  0
  160.4770  209.6670  153.0780 N   0  0  0  0  0  0  0  0  0  0  0  0
  161.4580  209.0890  152.2030 C   0  0  0  0  0  3  0  0  0  0  0  0
  161.6690  207.7680  152.1860 C   0  0  0  0  0  0  0  0  0  0  0  0
  158.9900  209.6080  154.9310 N   0  0  0  0  0  2  0  0  0  0  0  0
  159.9370  208.9950  154.0520 C   0  0  0  0  0  0  0  0  0  0  0  0
  157.9250  211.6010  153.5590 O   0  0  0  0  0  0  0  0  0  0  0  0
  158.5010  211.2770  154.9090 S   0  0  0  0  0  0  0  0  0  0  0  0
  157.4490  211.4830  155.9620 O   0  0  0  0  0  0  0  0  0  0  0  0
  159.8550  212.3960  155.2170 C   0  0  0  0  0  2  0  0  0  0  0  0
  160.8060  211.7770  156.1220 N   0  0  0  0  0  1  0  0  0  0  0  0
  161.2740  210.5340  148.4110 O   0  0  0  0  0  0  0  0  0  0  0  0
  161.8270  211.7730  148.2530 C   0  0  0  0  0  0  0  0  0  0  0  0
  162.3150  212.8660  148.1180 C   0  0  0  0  0  3  0  0  0  0  0  0
  1  6  1  0  0  0  0
  2  4  1  0  0  0  0
  3 28  1  6  0  0  0
  3  2  1  0  0  0  0
  4  7  2  0  0  0  0
  5  1  1  1  0  0  0
  5  3  1  0  0  0  0
  6  4  1  0  0  0  0
  8 14  1  6  0  0  0
  8  9  1  0  0  0  0
  8 13  1  0  0  0  0
  9 11  1  0  0  0  0
 11 27  1  6  0  0  0
 11 12  1  0  0  0  0
 12 10  1  1  0  0  0
 12  5  1  0  0  0  0
 13 10  1  0  0  0  0
 15 14  1  0  0  0  0
 16 14  2  0  0  0  0
 18 15  1  1  0  0  0
 19 20  2  0  0  0  0
 20 17  1  0  0  0  0
 21 18  1  0  0  0  0
 22 17  1  1  0  0  0
 22 18  1  0  0  0  0
 23 24  1  0  0  0  0
 23 21  2  0  0  0  0
 24 19  1  6  0  0  0
 24 22  1  0  0  0  0
 26 27  1  0  0  0  0
 26 25  1  0  0  0  0
 27 25  1  0  0  0  0
 30 32  2  0  0  0  0
 31 28  1  6  0  0  0
 31 34  1  0  0  0  0
 32 36  1  0  0  0  0
 32 31  1  0  0  0  0
 33 29  1  6  0  0  0
 33 35  1  0  0  0  0
 34 33  1  0  0  0  0
 34 35  1  0  0  0  0
 35 41  1  0  0  0  0
 36 29  1  0  0  0  0
 38 37  1  0  0  0  0
 39 43  2  0  0  0  0
 40 39  1  0  0  0  0
 41 40  2  0  0  0  0
 41 38  1  0  0  0  0
 43 37  1  0  0  0  0
 43 42  1  0  0  0  0
 44 45  2  0  0  0  0
 45 42  1  0  0  0  0
 45 47  1  0  0  0  0
 45 46  2  0  0  0  0
 47 48  1  0  0  0  0
 49 36  1  0  0  0  0
 50 49  1  0  0  0  0
 51 50  3  0  0  0  0
M  END
>  <MODEL>
4

>  <REMARK>
 VINA RESULT:      -3.9      4.265      8.169
  Name = 
  11 active torsions:
  status: ('A' for Active; 'I' for Inactive)
    1  A    between atoms: C_3  and  C_4
    2  A    between atoms: C_7  and  O_51
    3  A    between atoms: C_9  and  N_20
    4  A    between atoms: C_14  and  C_47
    5  A    between atoms: C_16  and  S_19
    6  A    between atoms: S_19  and  N_44
    7  A    between atoms: C_24  and  C_47
    8  A    between atoms: C_32  and  C_43
    9  A    between atoms: C_33  and  C_38
   10  A    between atoms: C_35  and  C_36
   11  A    between atoms: C_42  and  O_51
                            x       y       z     vdW  Elec       q    Type
                         _______ _______ _______ _____ _____    ______ ____

>  <TORSDO>
F 11

$$$$
=
 OpenBabel11072412353D

 51 58  0  0  1  0  0  0  0  0999 V2000
  161.7620  208.5370  152.3720 C   0  0  0  0  0  2  0  0  0  0  0  0
  161.0820  211.1140  151.4120 O   0  0  0  0  0  0  0  0  0  0  0  0
  161.5010  210.1470  150.4470 C   0  0  1  0  0  3  0  0  0  0  0  0
  161.0520  210.8770  152.7900 C   0  0  0  0  0  0  0  0  0  0  0  0
  161.2500  208.7160  150.9400 C   0  0  1  0  0  3  0  0  0  0  0  0
  161.0420  209.4810  153.3230 C   0  0  0  0  0  2  0  0  0  0  0  0
  160.9300  211.8480  153.5810 O   0  0  0  0  0  0  0  0  0  0  0  0
  161.3860  206.5840  147.2960 C   0  0  1  0  0  3  0  0  0  0  0  0
  160.3670  206.5620  148.2940 O   0  0  0  0  0  0  0  0  0  0  0  0
  162.3580  208.3830  148.7160 C   0  0  0  0  0  2  0  0  0  0  0  0
  160.8840  206.5070  149.6180 C   0  0  2  0  0  3  0  0  0  0  0  0
  161.8280  207.6830  149.9590 C   0  0  2  0  0  3  0  0  0  0  0  0
  162.6730  207.3350  147.6700 C   0  0  0  0  0  2  0  0  0  0  0  0
  161.6530  205.2290  146.7080 C   0  0  0  0  0  0  0  0  0  0  0  0
  160.5550  204.3520  146.4330 N   0  0  0  0  0  2  0  0  0  0  0  0
  162.8360  204.8610  146.4880 O   0  0  0  0  0  0  0  0  0  0  0  0
  161.3690  201.6580  148.0270 N   0  0  0  0  0  2  0  0  0  0  0  0
  160.6710  202.9700  146.0720 C   0  0  2  0  0  3  0  0  0  0  0  0
  161.2380  199.6860  146.9940 C   0  0  0  0  0  3  0  0  0  0  0  0
  161.3600  200.2570  148.1600 N   0  0  0  0  0  0  0  0  0  0  0  0
  160.0720  202.4190  145.0160 C   0  0  0  0  0  3  0  0  0  0  0  0
  161.3970  201.9280  146.7670 C   0  0  2  0  0  3  0  0  0  0  0  0
  160.3580  200.9620  145.0210 C   0  0  0  0  0  3  0  0  0  0  0  0
  161.2160  200.7530  146.0100 C   0  0  2  0  0  3  0  0  0  0  0  0
  161.1430  204.7490  151.3570 C   0  0  0  0  0  2  0  0  0  0  0  0
  160.4230  204.1310  150.1750 C   0  0  0  0  0  2  0  0  0  0  0  0
  161.5160  205.1580  149.9440 C   0  0  0  0  0  3  0  0  0  0  0  0
  160.7360  210.3800  149.1380 C   0  0  0  0  0  2  0  0  0  0  0  0
  160.7010  214.4530  147.7370 C   0  0  0  0  0  2  0  0  0  0  0  0
  160.1470  211.0820  146.4850 O   0  0  0  0  0  0  0  0  0  0  0  0
  160.6830  211.8420  148.6780 C   0  0  2  0  0  3  0  0  0  0  0  0
  160.4000  212.0320  147.2090 C   0  0  0  0  0  0  0  0  0  0  0  0
  161.9420  214.0870  148.5720 C   0  0  2  0  0  3  0  0  0  0  0  0
  161.9210  212.6480  149.1160 C   0  0  1  0  0  3  0  0  0  0  0  0
  161.6830  213.8300  150.0670 C   0  0  2  0  0  3  0  0  0  0  0  0
  160.4420  213.4250  146.6360 C   0  0  1  0  0  3  0  0  0  0  0  0
  157.8660  213.5170  150.0460 C   0  0  0  0  0  2  0  0  0  0  0  0
  159.1310  214.2410  149.5870 C   0  0  0  0  0  2  0  0  0  0  0  0
  158.6410  213.8720  152.3260 N   0  0  0  0  0  0  0  0  0  0  0  0
  159.9970  213.8990  151.8560 C   0  0  0  0  0  3  0  0  0  0  0  0
  160.2710  214.0530  150.5560 C   0  0  0  0  0  0  0  0  0  0  0  0
  156.2920  213.6830  152.0150 N   0  0  0  0  0  2  0  0  0  0  0  0
  157.6310  213.7440  151.5170 C   0  0  0  0  0  0  0  0  0  0  0  0
  156.8300  214.4530  154.4860 O   0  0  0  0  0  0  0  0  0  0  0  0
  155.8210  213.6740  153.6890 S   0  0  0  0  0  0  0  0  0  0  0  0
  154.4760  214.3300  153.8130 O   0  0  0  0  0  0  0  0  0  0  0  0
  155.7280  212.0290  154.3710 C   0  0  0  0  0  2  0  0  0  0  0  0
  156.8450  211.8080  155.2710 N   0  0  0  0  0  1  0  0  0  0  0  0
  159.2170  213.7400  145.9910 O   0  0  0  0  0  0  0  0  0  0  0  0
  158.0510  213.1480  146.3870 C   0  0  0  0  0  0  0  0  0  0  0  0
  157.0250  212.6240  146.7390 C   0  0  0  0  0  3  0  0  0  0  0  0
  1  6  1  0  0  0  0
  2  4  1  0  0  0  0
  3 28  1  6  0  0  0
  3  5  1  0  0  0  0
  3  2  1  0  0  0  0
  4  6  1  0  0  0  0
  4  7  2  0  0  0  0
  5  1  1  1  0  0  0
  8 14  1  1  0  0  0
  8 13  1  0  0  0  0
  8  9  1  0  0  0  0
  9 11  1  0  0  0  0
 11 27  1  6  0  0  0
 11 12  1  0  0  0  0
 12 10  1  6  0  0  0
 12  5  1  0  0  0  0
 13 10  1  0  0  0  0
 15 14  1  0  0  0  0
 16 14  2  0  0  0  0
 17 20  1  0  0  0  0
 18 15  1  1  0  0  0
 18 22  1  0  0  0  0
 19 20  2  0  0  0  0
 21 23  2  0  0  0  0
 21 18  1  0  0  0  0
 22 17  1  1  0  0  0
 24 23  1  1  0  0  0
 24 22  1  0  0  0  0
 24 19  1  0  0  0  0
 26 25  1  0  0  0  0
 27 26  1  0  0  0  0
 27 25  1  0  0  0  0
 30 32  2  0  0  0  0
 31 34  1  0  0  0  0
 31 28  1  6  0  0  0
 32 31  1  0  0  0  0
 33 29  1  6  0  0  0
 33 34  1  0  0  0  0
 33 35  1  0  0  0  0
 34 35  1  0  0  0  0
 35 41  1  0  0  0  0
 36 32  1  0  0  0  0
 36 29  1  0  0  0  0
 37 43  1  0  0  0  0
 38 37  1  0  0  0  0
 38 41  1  0  0  0  0
 40 39  1  0  0  0  0
 41 40  2  0  0  0  0
 42 45  1  0  0  0  0
 43 42  1  0  0  0  0
 43 39  2  0  0  0  0
 45 46  2  0  0  0  0
 45 47  1  0  0  0  0
 45 44  2  0  0  0  0
 47 48  1  0  0  0  0
 49 50  1  0  0  0  0
 49 36  1  0  0  0  0
 50 51  3  0  0  0  0
M  END
>  <MODEL>
5

>  <REMARK>
 VINA RESULT:      -3.1      3.366      5.221
  Name = 
  11 active torsions:
  status: ('A' for Active; 'I' for Inactive)
    1  A    between atoms: C_3  and  C_4
    2  A    between atoms: C_7  and  O_51
    3  A    between atoms: C_9  and  N_20
    4  A    between atoms: C_14  and  C_47
    5  A    between atoms: C_16  and  S_19
    6  A    between atoms: S_19  and  N_44
    7  A    between atoms: C_24  and  C_47
    8  A    between atoms: C_32  and  C_43
    9  A    between atoms: C_33  and  C_38
   10  A    between atoms: C_35  and  C_36
   11  A    between atoms: C_42  and  O_51
                            x       y       z     vdW  Elec       q    Type
                         _______ _______ _______ _____ _____    ______ ____

>  <TORSDO>
F 11

$$$$
=
 OpenBabel11072412353D

 51 58  0  0  1  0  0  0  0  0999 V2000
  158.6620  214.4500  154.1380 C   0  0  0  0  0  2  0  0  0  0  0  0
  158.2500  211.7410  154.8580 O   0  0  0  0  0  0  0  0  0  0  0  0
  158.0190  212.0970  153.4930 C   0  0  1  0  0  3  0  0  0  0  0  0
  158.6020  212.6580  155.8530 C   0  0  0  0  0  0  0  0  0  0  0  0
  158.8220  213.3420  153.0940 C   0  0  1  0  0  3  0  0  0  0  0  0
  159.1780  213.9900  155.4940 C   0  0  0  0  0  2  0  0  0  0  0  0
  158.5270  212.3160  157.0610 O   0  0  0  0  0  0  0  0  0  0  0  0
  157.5210  212.7540  149.1180 C   0  0  1  0  0  3  0  0  0  0  0  0
  158.6990  212.2500  149.7450 O   0  0  0  0  0  0  0  0  0  0  0  0
  156.9820  213.5720  151.4070 C   0  0  0  0  0  2  0  0  0  0  0  0
  159.3590  213.2170  150.5520 C   0  0  2  0  0  3  0  0  0  0  0  0
  158.4640  213.7990  151.6700 C   0  0  2  0  0  3  0  0  0  0  0  0
  156.7170  213.7800  149.9310 C   0  0  0  0  0  2  0  0  0  0  0  0
  157.7580  213.1900  147.7010 C   0  0  0  0  0  0  0  0  0  0  0  0
  158.7610  212.5310  146.9200 N   0  0  0  0  0  2  0  0  0  0  0  0
  157.0970  214.1460  147.2190 O   0  0  0  0  0  0  0  0  0  0  0  0
  161.6700  213.2770  145.7180 N   0  0  0  0  0  2  0  0  0  0  0  0
  159.2340  212.9710  145.6410 C   0  0  2  0  0  3  0  0  0  0  0  0
  161.8710  213.7750  143.5540 C   0  0  0  0  0  3  0  0  0  0  0  0
  162.5400  213.4590  144.6270 N   0  0  0  0  0  0  0  0  0  0  0  0
  158.5690  212.8020  144.4980 C   0  0  0  0  0  3  0  0  0  0  0  0
  160.4890  213.6240  145.3350 C   0  0  2  0  0  3  0  0  0  0  0  0
  159.4110  213.3090  143.3860 C   0  0  0  0  0  3  0  0  0  0  0  0
  160.4770  213.8650  143.9460 C   0  0  2  0  0  3  0  0  0  0  0  0
  161.4780  214.4470  150.1330 C   0  0  0  0  0  2  0  0  0  0  0  0
  161.1120  213.7070  148.8620 C   0  0  0  0  0  2  0  0  0  0  0  0
  160.0220  214.3140  149.7260 C   0  0  0  0  0  3  0  0  0  0  0  0
  158.4160  210.9210  152.5920 C   0  0  0  0  0  2  0  0  0  0  0  0
  161.9940  208.9380  153.9410 C   0  0  0  0  0  2  0  0  0  0  0  0
  158.5900  209.5790  155.0520 O   0  0  0  0  0  0  0  0  0  0  0  0
  159.6880  210.1820  153.0260 C   0  0  2  0  0  3  0  0  0  0  0  0
  159.6200  209.5580  154.3980 C   0  0  0  0  0  0  0  0  0  0  0  0
  162.2310  210.3590  153.3970 C   0  0  2  0  0  3  0  0  0  0  0  0
  160.9580  211.0400  152.8660 C   0  0  1  0  0  3  0  0  0  0  0  0
  162.0230  210.5320  151.8820 C   0  0  2  0  0  3  0  0  0  0  0  0
  160.8580  208.9100  154.9620 C   0  0  1  0  0  3  0  0  0  0  0  0
  162.4870  207.8710  149.1660 C   0  0  0  0  0  2  0  0  0  0  0  0
  161.9180  209.2210  149.6060 C   0  0  0  0  0  2  0  0  0  0  0  0
  161.3150  206.9000  151.0650 N   0  0  0  0  0  0  0  0  0  0  0  0
  161.3990  208.1570  151.7540 C   0  0  0  0  0  3  0  0  0  0  0  0
  161.7020  209.2810  151.0970 C   0  0  0  0  0  0  0  0  0  0  0  0
  161.7030  205.4710  149.2060 N   0  0  0  0  0  2  0  0  0  0  0  0
  161.7650  206.7440  149.8550 C   0  0  0  0  0  0  0  0  0  0  0  0
  162.1020  203.5580  150.9870 O   0  0  0  0  0  0  0  0  0  0  0  0
  161.1390  203.9860  149.9150 S   0  0  0  0  0  0  0  0  0  0  0  0
  159.7890  204.2280  150.5270 O   0  0  0  0  0  0  0  0  0  0  0  0
  161.0080  202.6610  148.7280 C   0  0  0  0  0  2  0  0  0  0  0  0
  160.0240  201.6950  149.1800 N   0  0  0  0  0  1  0  0  0  0  0  0
  160.5970  207.5620  155.3250 O   0  0  0  0  0  0  0  0  0  0  0  0
  160.7590  206.5540  154.4160 C   0  0  0  0  0  0  0  0  0  0  0  0
  160.9060  205.6680  153.6140 C   0  0  0  0  0  3  0  0  0  0  0  0
  1  6  1  0  0  0  0
  2  4  1  0  0  0  0
  3 28  1  6  0  0  0
  3  2  1  0  0  0  0
  4  7  2  0  0  0  0
  5  3  1  0  0  0  0
  5  1  1  1  0  0  0
  6  4  1  0  0  0  0
  8 14  1  6  0  0  0
  8  9  1  0  0  0  0
  8 13  1  0  0  0  0
  9 11  1  0  0  0  0
 11 27  1  6  0  0  0
 11 12  1  0  0  0  0
 12 10  1  6  0  0  0
 12  5  1  0  0  0  0
 13 10  1  0  0  0  0
 15 14  1  0  0  0  0
 16 14  2  0  0  0  0
 18 15  1  6  0  0  0
 19 24  1  0  0  0  0
 19 20  2  0  0  0  0
 20 17  1  0  0  0  0
 21 18  1  0  0  0  0
 22 18  1  0  0  0  0
 22 17  1  6  0  0  0
 23 21  2  0  0  0  0
 24 23  1  6  0  0  0
 24 22  1  0  0  0  0
 26 27  1  0  0  0  0
 26 25  1  0  0  0  0
 27 25  1  0  0  0  0
 29 36  1  0  0  0  0
 31 28  1  1  0  0  0
 31 32  1  0  0  0  0
 32 36  1  0  0  0  0
 32 30  2  0  0  0  0
 33 29  1  6  0  0  0
 34 31  1  0  0  0  0
 34 33  1  0  0  0  0
 35 34  1  0  0  0  0
 35 33  1  0  0  0  0
 36 49  1  0  0  0  0
 37 38  1  0  0  0  0
 37 43  1  0  0  0  0
 38 41  1  0  0  0  0
 39 40  1  0  0  0  0
 41 40  2  0  0  0  0
 41 35  1  0  0  0  0
 42 43  1  0  0  0  0
 42 45  1  0  0  0  0
 43 39  2  0  0  0  0
 45 46  2  0  0  0  0
 45 44  2  0  0  0  0
 47 48  1  0  0  0  0
 47 45  1  0  0  0  0
 50 49  1  0  0  0  0
 51 50  3  0  0  0  0
M  END
>  <MODEL>
6

>  <REMARK>
 VINA RESULT:      -3.0      3.245      9.420
  Name = 
  11 active torsions:
  status: ('A' for Active; 'I' for Inactive)
    1  A    between atoms: C_3  and  C_4
    2  A    between atoms: C_7  and  O_51
    3  A    between atoms: C_9  and  N_20
    4  A    between atoms: C_14  and  C_47
    5  A    between atoms: C_16  and  S_19
    6  A    between atoms: S_19  and  N_44
    7  A    between atoms: C_24  and  C_47
    8  A    between atoms: C_32  and  C_43
    9  A    between atoms: C_33  and  C_38
   10  A    between atoms: C_35  and  C_36
   11  A    between atoms: C_42  and  O_51
                            x       y       z     vdW  Elec       q    Type
                         _______ _______ _______ _____ _____    ______ ____

>  <TORSDO>
F 11

$$$$
