=
 OpenBabel11072409583D

 54 60  0  0  1  0  0  0  0  0999 V2000
  162.7420  204.5800  150.4280 O   0  0  0  0  0  0  0  0  0  0  0  0
  162.4150  205.7560  150.4980 C   0  0  0  0  0  0  0  0  0  0  0  0
  161.0950  210.1470  155.2520 N   0  0  0  0  0  2  0  0  0  0  0  0
  160.6290  211.3980  150.8770 C   0  0  1  0  0  3  0  0  0  0  0  0
  160.0090  211.0950  155.4390 C   0  0  0  0  0  2  0  0  0  0  0  0
  162.3980  211.6680  148.4260 C   0  0  0  0  0  2  0  0  0  0  0  0
  163.4120  209.0570  147.6980 O   0  0  0  0  0  0  0  0  0  0  0  0
  160.5100  212.6160  149.9230 C   0  0  2  0  0  3  0  0  0  0  0  0
  161.8990  210.5930  150.6230 C   0  0  0  0  0  2  0  0  0  0  0  0
  161.7480  208.8150  153.3250 C   0  0  0  0  0  2  0  0  0  0  0  0
  162.8110  209.1590  148.8010 C   0  0  0  0  0  0  0  0  0  0  0  0
  160.7110  207.3610  151.5430 C   0  0  0  0  0  2  0  0  0  0  0  0
  160.1780  210.6590  153.0820 C   0  0  2  0  0  0  0  0  0  0  0  0
  161.4170  210.2030  153.8320 C   0  0  1  0  0  3  0  0  0  0  0  0
  161.7940  212.9150  149.1140 C   0  0  2  0  0  3  0  0  0  0  0  0
  159.2220  211.1370  154.1490 C   0  0  0  0  0  2  0  0  0  0  0  0
  160.4580  208.2290  152.7780 C   0  0  2  0  0  3  0  0  0  0  0  0
  161.9950  210.3690  149.1280 C   0  0  2  0  0  3  0  0  0  0  0  0
  162.7310  206.6390  149.3090 C   0  0  2  0  0  3  0  0  0  0  0  0
  159.5740  209.4100  152.4060 C   0  0  0  0  0  2  0  0  0  0  0  0
  162.7380  208.0450  149.6950 N   0  0  0  0  0  2  0  0  0  0  0  0
  161.7780  206.2820  151.7820 C   0  0  1  0  0  3  0  0  0  0  0  0
  160.5100  211.7620  152.2360 O   0  0  0  0  0  0  0  0  0  0  0  0
  161.2680  205.9360  145.8610 C   0  0  0  0  0  3  0  0  0  0  0  0
  159.4580  206.1880  147.4490 C   0  0  0  0  0  3  0  0  0  0  0  0
  159.0020  205.7590  145.1490 F   0  0  0  0  0  0  0  0  0  0  0  0
  162.1950  206.1490  146.8850 C   0  0  0  0  0  3  0  0  0  0  0  0
  161.7560  206.3770  148.1980 C   0  0  0  0  0  0  0  0  0  0  0  0
  159.9010  205.9560  146.1430 C   0  0  0  0  0  0  0  0  0  0  0  0
  160.3860  206.3990  148.4740 C   0  0  0  0  0  3  0  0  0  0  0  0
  161.2270  205.1890  152.6500 C   0  0  0  0  0  0  0  0  0  0  0  0
  160.2260  202.8880  152.8310 C   0  0  0  0  0  1  0  0  0  0  0  0
  160.7290  203.9980  152.0410 N   0  0  0  0  0  2  0  0  0  0  0  0
  161.2200  205.3180  153.9030 O   0  0  0  0  0  0  0  0  0  0  0  0
  162.5000  214.4530  147.4360 O   0  0  0  0  0  0  0  0  0  0  0  0
  161.5400  213.9810  148.1020 C   0  0  0  0  0  0  0  0  0  0  0  0
  160.2460  214.4520  147.9040 O   0  0  0  0  0  0  0  0  0  0  0  0
  159.5260  214.0690  146.8430 O   0  0  0  0  0  0  0  0  0  0  0  0
  160.4760  213.7200  145.8810 C   0  0  0  0  0  2  0  0  0  0  0  0
  159.8850  213.8800  144.4900 C   0  0  0  0  0  2  0  0  0  0  0  0
  160.6640  213.0780  143.5080 C   0  0  0  0  0  0  0  0  0  0  0  0
  161.1150  211.6310  142.0340 C   0  0  0  0  0  3  0  0  0  0  0  0
  160.1610  212.0950  142.8040 O   0  0  0  0  0  0  0  0  0  0  0  0
  162.2500  212.3800  142.2890 C   0  0  0  0  0  3  0  0  0  0  0  0
  161.9600  213.3040  143.2270 N   0  0  0  0  0  0  0  0  0  0  0  0
  160.0580  213.7830  150.6050 O   0  0  0  0  0  0  0  0  0  0  0  0
  158.7080  214.0830  150.8380 C   0  0  0  0  0  0  0  0  0  0  0  0
  157.9320  214.2670  149.7770 C   0  0  0  0  0  2  0  0  0  0  0  0
  158.4100  214.4530  154.6510 C   0  0  0  0  0  3  0  0  0  0  0  0
  157.1130  214.2310  154.8380 C   0  0  0  0  0  3  0  0  0  0  0  0
  156.8540  213.9490  152.3810 N   0  0  0  0  0  0  0  0  0  0  0  0
  156.1770  213.9880  153.6850 C   0  0  0  0  0  3  0  0  0  0  0  0
  158.1230  214.1750  152.2020 C   0  0  0  0  0  0  0  0  0  0  0  0
  158.9550  214.4450  153.3340 N   0  0  0  0  0  0  0  0  0  0  0  0
  1  2  2  0  0  0  0
  2 22  1  0  0  0  0
  3  5  1  0  0  0  0
  4  9  1  1  0  0  0
  4 23  1  0  0  0  0
  6 15  1  0  0  0  0
  7 11  2  0  0  0  0
  8 46  1  1  0  0  0
  8  4  1  0  0  0  0
 11 18  1  0  0  0  0
 11 21  1  0  0  0  0
 12 22  1  0  0  0  0
 13 20  1  6  0  0  0
 13 14  1  0  0  0  0
 13 16  1  0  0  0  0
 14 10  1  6  0  0  0
 14  3  1  0  0  0  0
 15 36  1  6  0  0  0
 15  8  1  0  0  0  0
 16  5  1  0  0  0  0
 17 12  1  6  0  0  0
 17 10  1  0  0  0  0
 18  6  1  6  0  0  0
 18  9  1  0  0  0  0
 19 28  1  6  0  0  0
 19 21  1  0  0  0  0
 19  2  1  0  0  0  0
 20 17  1  0  0  0  0
 22 31  1  6  0  0  0
 23 13  1  0  0  0  0
 24 29  2  0  0  0  0
 24 27  1  0  0  0  0
 25 30  2  0  0  0  0
 26 29  1  0  0  0  0
 27 28  2  0  0  0  0
 28 30  1  0  0  0  0
 29 25  1  0  0  0  0
 31 34  2  0  0  0  0
 33 31  1  0  0  0  0
 33 32  1  0  0  0  0
 35 36  2  0  0  0  0
 37 36  1  0  0  0  0
 38 37  1  0  0  0  0
 39 38  1  0  0  0  0
 40 39  1  0  0  0  0
 41 40  1  0  0  0  0
 42 44  2  0  0  0  0
 42 43  1  0  0  0  0
 43 41  1  0  0  0  0
 44 45  1  0  0  0  0
 45 41  2  0  0  0  0
 46 47  1  0  0  0  0
 47 53  1  0  0  0  0
 48 47  2  0  0  0  0
 49 50  1  0  0  0  0
 51 52  1  0  0  0  0
 52 50  2  0  0  0  0
 53 51  2  0  0  0  0
 53 54  1  0  0  0  0
 54 49  2  0  0  0  0
M  END
>  <MODEL>
1

>  <REMARK>
 VINA RESULT:      -1.0      0.000      0.000
  Name = 
  11 active torsions:
  status: ('A' for Active; 'I' for Inactive)
    1  A    between atoms: C_2  and  C_40
    2  A    between atoms: O_5  and  C_12
    3  A    between atoms: O_5  and  O_25
    4  A    between atoms: C_6  and  C_51
    5  A    between atoms: C_12  and  C_34
    6  A    between atoms: C_18  and  O_25
    7  A    between atoms: C_18  and  C_40
    8  A    between atoms: C_19  and  O_35
    9  A    between atoms: C_19  and  C_43
   10  A    between atoms: C_21  and  O_35
   11  A    between atoms: C_36  and  C_48
                            x       y       z     vdW  Elec       q    Type
                         _______ _______ _______ _____ _____    ______ ____

>  <TORSDO>
F 11

$$$$
=
 OpenBabel11072409583D

 54 60  0  0  1  0  0  0  0  0999 V2000
  162.0340  202.4240  148.2860 O   0  0  0  0  0  0  0  0  0  0  0  0
  161.9360  203.5610  148.7260 C   0  0  0  0  0  0  0  0  0  0  0  0
  162.0650  206.4970  154.6420 N   0  0  0  0  0  2  0  0  0  0  0  0
  161.2590  209.0290  150.9190 C   0  0  1  0  0  3  0  0  0  0  0  0
  161.2020  207.4840  155.2670 C   0  0  0  0  0  2  0  0  0  0  0  0
  162.7090  209.7670  148.3580 C   0  0  0  0  0  2  0  0  0  0  0  0
  163.1320  207.3730  146.7860 O   0  0  0  0  0  0  0  0  0  0  0  0
  161.2370  210.4780  150.3650 C   0  0  2  0  0  3  0  0  0  0  0  0
  162.3190  208.1710  150.2370 C   0  0  0  0  0  2  0  0  0  0  0  0
  162.2080  205.7140  152.3440 C   0  0  0  0  0  2  0  0  0  0  0  0
  162.7110  207.2260  147.9640 C   0  0  0  0  0  0  0  0  0  0  0  0
  160.7010  205.0020  150.4510 C   0  0  0  0  0  2  0  0  0  0  0  0
  160.9770  207.7420  152.8880 C   0  0  2  0  0  0  0  0  0  0  0  0
  162.2020  206.9230  153.2560 C   0  0  1  0  0  3  0  0  0  0  0  0
  162.4360  210.8250  149.4520 C   0  0  2  0  0  3  0  0  0  0  0  0
  160.2720  208.0100  154.1960 C   0  0  0  0  0  2  0  0  0  0  0  0
  160.7730  205.4940  151.8980 C   0  0  2  0  0  3  0  0  0  0  0  0
  162.1760  208.3850  148.7450 C   0  0  2  0  0  3  0  0  0  0  0  0
  162.2460  204.7040  147.7830 C   0  0  2  0  0  3  0  0  0  0  0  0
  160.0750  206.8400  152.0200 C   0  0  0  0  0  2  0  0  0  0  0  0
  162.5570  205.9200  148.5240 N   0  0  0  0  0  2  0  0  0  0  0  0
  161.5790  203.7670  150.1970 C   0  0  1  0  0  3  0  0  0  0  0  0
  161.3880  208.9900  152.3250 O   0  0  0  0  0  0  0  0  0  0  0  0
  159.8700  204.3170  144.8280 C   0  0  0  0  0  3  0  0  0  0  0  0
  159.1680  206.2110  146.1620 C   0  0  0  0  0  3  0  0  0  0  0  0
  157.9760  205.6110  144.1880 F   0  0  0  0  0  0  0  0  0  0  0  0
  160.9240  204.0850  145.7150 C   0  0  0  0  0  3  0  0  0  0  0  0
  161.1020  204.9130  146.8330 C   0  0  0  0  0  0  0  0  0  0  0  0
  158.9930  205.3800  145.0520 C   0  0  0  0  0  0  0  0  0  0  0  0
  160.2230  205.9780  147.0500 C   0  0  0  0  0  3  0  0  0  0  0  0
  160.9590  202.5520  150.8230 C   0  0  0  0  0  0  0  0  0  0  0  0
  159.4470  200.5540  150.5980 C   0  0  0  0  0  1  0  0  0  0  0  0
  160.0430  201.7650  150.0620 N   0  0  0  0  0  2  0  0  0  0  0  0
  161.2590  202.2240  152.0010 O   0  0  0  0  0  0  0  0  0  0  0  0
  163.2480  212.8130  148.4170 O   0  0  0  0  0  0  0  0  0  0  0  0
  162.2470  212.1660  148.8250 C   0  0  0  0  0  0  0  0  0  0  0  0
  160.9670  212.6960  148.7000 O   0  0  0  0  0  0  0  0  0  0  0  0
  160.5780  213.3060  147.5730 O   0  0  0  0  0  0  0  0  0  0  0  0
  160.1700  212.2660  146.7340 C   0  0  0  0  0  2  0  0  0  0  0  0
  159.8810  212.8080  145.3440 C   0  0  0  0  0  2  0  0  0  0  0  0
  161.1410  212.8890  144.5550 C   0  0  0  0  0  0  0  0  0  0  0  0
  163.1680  213.2510  144.0780 C   0  0  0  0  0  3  0  0  0  0  0  0
  162.2720  213.3430  145.0310 O   0  0  0  0  0  0  0  0  0  0  0  0
  162.5360  212.7090  142.9720 C   0  0  0  0  0  3  0  0  0  0  0  0
  161.2440  212.4760  143.2790 N   0  0  0  0  0  0  0  0  0  0  0  0
  161.0950  211.4430  151.4040 O   0  0  0  0  0  0  0  0  0  0  0  0
  159.8670  211.8170  151.9660 C   0  0  0  0  0  0  0  0  0  0  0  0
  158.9790  212.3910  151.1640 C   0  0  0  0  0  2  0  0  0  0  0  0
  157.8250  211.1640  155.1560 C   0  0  0  0  0  3  0  0  0  0  0  0
  158.7640  211.2450  156.0930 C   0  0  0  0  0  3  0  0  0  0  0  0
  160.4440  211.6660  154.3080 N   0  0  0  0  0  0  0  0  0  0  0  0
  160.2110  211.4740  155.7460 C   0  0  0  0  0  3  0  0  0  0  0  0
  159.5230  211.5770  153.3930 C   0  0  0  0  0  0  0  0  0  0  0  0
  158.1710  211.3130  153.7810 N   0  0  0  0  0  0  0  0  0  0  0  0
  1  2  2  0  0  0  0
  2 22  1  0  0  0  0
  3  5  1  0  0  0  0
  4  9  1  6  0  0  0
  4 23  1  0  0  0  0
  6 15  1  0  0  0  0
  7 11  2  0  0  0  0
  8  4  1  0  0  0  0
  8 46  1  1  0  0  0
 11 21  1  0  0  0  0
 11 18  1  0  0  0  0
 13 20  1  6  0  0  0
 13 14  1  0  0  0  0
 13 16  1  0  0  0  0
 14 10  1  6  0  0  0
 14  3  1  0  0  0  0
 15 36  1  6  0  0  0
 15  8  1  0  0  0  0
 16  5  1  0  0  0  0
 17 12  1  6  0  0  0
 17 20  1  0  0  0  0
 17 10  1  0  0  0  0
 18  6  1  6  0  0  0
 18  9  1  0  0  0  0
 19 28  1  6  0  0  0
 19 21  1  0  0  0  0
 19  2  1  0  0  0  0
 22 12  1  0  0  0  0
 22 31  1  6  0  0  0
 23 13  1  0  0  0  0
 24 29  2  0  0  0  0
 24 27  1  0  0  0  0
 25 30  2  0  0  0  0
 26 29  1  0  0  0  0
 27 28  2  0  0  0  0
 28 30  1  0  0  0  0
 29 25  1  0  0  0  0
 31 34  2  0  0  0  0
 33 32  1  0  0  0  0
 33 31  1  0  0  0  0
 35 36  2  0  0  0  0
 37 36  1  0  0  0  0
 38 37  1  0  0  0  0
 39 38  1  0  0  0  0
 40 39  1  0  0  0  0
 41 43  1  0  0  0  0
 41 40  1  0  0  0  0
 42 43  1  0  0  0  0
 44 45  1  0  0  0  0
 44 42  2  0  0  0  0
 45 41  2  0  0  0  0
 46 47  1  0  0  0  0
 47 53  1  0  0  0  0
 48 47  2  0  0  0  0
 49 50  1  0  0  0  0
 51 52  1  0  0  0  0
 52 50  2  0  0  0  0
 53 54  1  0  0  0  0
 53 51  2  0  0  0  0
 54 49  2  0  0  0  0
M  END
>  <MODEL>
2

>  <REMARK>
 VINA RESULT:       0.9      1.947      2.755
  Name = 
  11 active torsions:
  status: ('A' for Active; 'I' for Inactive)
    1  A    between atoms: C_2  and  C_40
    2  A    between atoms: O_5  and  C_12
    3  A    between atoms: O_5  and  O_25
    4  A    between atoms: C_6  and  C_51
    5  A    between atoms: C_12  and  C_34
    6  A    between atoms: C_18  and  O_25
    7  A    between atoms: C_18  and  C_40
    8  A    between atoms: C_19  and  O_35
    9  A    between atoms: C_19  and  C_43
   10  A    between atoms: C_21  and  O_35
   11  A    between atoms: C_36  and  C_48
                            x       y       z     vdW  Elec       q    Type
                         _______ _______ _______ _____ _____    ______ ____

>  <TORSDO>
F 11

$$$$
=
 OpenBabel11072409583D

 54 60  0  0  1  0  0  0  0  0999 V2000
  161.5030  214.3020  148.3890 O   0  0  0  0  0  0  0  0  0  0  0  0
  161.4080  213.1860  148.8800 C   0  0  0  0  0  0  0  0  0  0  0  0
  163.4120  207.0620  147.4230 N   0  0  0  0  0  2  0  0  0  0  0  0
  160.7990  207.7280  151.1180 C   0  0  1  0  0  3  0  0  0  0  0  0
  162.7230  205.7830  147.4020 C   0  0  0  0  0  2  0  0  0  0  0  0
  160.9720  209.2520  153.7360 C   0  0  0  0  0  2  0  0  0  0  0  0
  161.1100  212.0880  153.1740 O   0  0  0  0  0  0  0  0  0  0  0  0
  160.3270  207.0960  152.4550 C   0  0  2  0  0  3  0  0  0  0  0  0
  161.6220  208.9920  151.3400 C   0  0  0  0  0  2  0  0  0  0  0  0
  162.7510  209.2270  148.3140 C   0  0  0  0  0  2  0  0  0  0  0  0
  161.2220  211.2970  152.1990 C   0  0  0  0  0  0  0  0  0  0  0  0
  160.7490  210.7610  148.3710 C   0  0  0  0  0  2  0  0  0  0  0  0
  161.5320  207.2100  148.9260 C   0  0  2  0  0  0  0  0  0  0  0  0
  162.9150  207.7500  148.6080 C   0  0  1  0  0  3  0  0  0  0  0  0
  160.9920  207.7050  153.7120 C   0  0  2  0  0  3  0  0  0  0  0  0
  161.3730  205.9890  148.0520 C   0  0  0  0  0  2  0  0  0  0  0  0
  161.3120  209.4280  147.8720 C   0  0  2  0  0  3  0  0  0  0  0  0
  160.8640  209.8510  152.3310 C   0  0  2  0  0  3  0  0  0  0  0  0
  161.1310  213.0980  150.3660 C   0  0  2  0  0  3  0  0  0  0  0  0
  160.5160  208.2770  148.4680 C   0  0  0  0  0  2  0  0  0  0  0  0
  161.5130  211.7930  150.8900 N   0  0  0  0  0  2  0  0  0  0  0  0
  161.6380  211.9580  148.0010 C   0  0  1  0  0  3  0  0  0  0  0  0
  161.4800  206.8050  150.2950 O   0  0  0  0  0  0  0  0  0  0  0  0
  157.9290  214.2260  152.0980 C   0  0  0  0  0  3  0  0  0  0  0  0
  157.3710  213.3100  149.9280 C   0  0  0  0  0  3  0  0  0  0  0  0
  155.6620  214.1210  151.3770 F   0  0  0  0  0  0  0  0  0  0  0  0
  159.2830  213.9800  151.8530 C   0  0  0  0  0  3  0  0  0  0  0  0
  159.6860  213.4020  150.6400 C   0  0  0  0  0  0  0  0  0  0  0  0
  156.9740  213.8910  151.1360 C   0  0  0  0  0  0  0  0  0  0  0  0
  158.7260  213.0650  149.6820 C   0  0  0  0  0  3  0  0  0  0  0  0
  161.5210  212.2600  146.5360 C   0  0  0  0  0  0  0  0  0  0  0  0
  160.0770  212.4040  144.4810 C   0  0  0  0  0  1  0  0  0  0  0  0
  160.2620  212.0850  145.8850 N   0  0  0  0  0  2  0  0  0  0  0  0
  162.5200  212.6780  145.8930 O   0  0  0  0  0  0  0  0  0  0  0  0
  160.3900  205.9320  155.1860 O   0  0  0  0  0  0  0  0  0  0  0  0
  160.3580  207.1690  154.9510 C   0  0  0  0  0  0  0  0  0  0  0  0
  159.7320  208.0380  155.8390 O   0  0  0  0  0  0  0  0  0  0  0  0
  160.4260  208.6670  156.7970 O   0  0  0  0  0  0  0  0  0  0  0  0
  159.5630  209.6630  157.2590 C   0  0  0  0  0  2  0  0  0  0  0  0
  159.7340  210.9220  156.4250 C   0  0  0  0  0  2  0  0  0  0  0  0
  158.4050  211.5120  156.1120 C   0  0  0  0  0  0  0  0  0  0  0  0
  156.4100  212.1660  156.3650 C   0  0  0  0  0  3  0  0  0  0  0  0
  157.4120  211.5690  156.9640 O   0  0  0  0  0  0  0  0  0  0  0  0
  156.8300  212.4880  155.0860 C   0  0  0  0  0  3  0  0  0  0  0  0
  158.1020  212.0730  154.9270 N   0  0  0  0  0  0  0  0  0  0  0  0
  160.4590  205.6780  152.4480 O   0  0  0  0  0  0  0  0  0  0  0  0
  161.5490  204.9930  151.8930 C   0  0  0  0  0  0  0  0  0  0  0  0
  162.7570  205.5060  152.0900 C   0  0  0  0  0  2  0  0  0  0  0  0
  160.8290  202.5320  149.0310 C   0  0  0  0  0  3  0  0  0  0  0  0
  160.9780  201.3620  149.6440 C   0  0  0  0  0  3  0  0  0  0  0  0
  161.5430  202.5820  151.7360 N   0  0  0  0  0  0  0  0  0  0  0  0
  161.3970  201.2720  151.0860 C   0  0  0  0  0  2  0  0  0  0  0  0
  161.4040  203.7250  151.1290 C   0  0  0  0  0  0  0  0  0  0  0  0
  161.0480  203.7470  149.7440 N   0  0  0  0  0  2  0  0  0  0  0  0
  1  2  2  0  0  0  0
  2 19  1  0  0  0  0
  3 14  1  0  0  0  0
  4  9  1  1  0  0  0
  4  8  1  0  0  0  0
  5  3  1  0  0  0  0
  5 16  1  0  0  0  0
  8 46  1  6  0  0  0
  8 15  1  0  0  0  0
 11 18  1  0  0  0  0
 11  7  2  0  0  0  0
 13 16  1  6  0  0  0
 13 23  1  0  0  0  0
 14 10  1  6  0  0  0
 14 13  1  0  0  0  0
 15  6  1  0  0  0  0
 15 36  1  1  0  0  0
 17 10  1  1  0  0  0
 17 12  1  0  0  0  0
 17 20  1  0  0  0  0
 18  9  1  6  0  0  0
 18  6  1  0  0  0  0
 19 28  1  6  0  0  0
 19 21  1  0  0  0  0
 20 13  1  0  0  0  0
 21 11  1  0  0  0  0
 22 31  1  6  0  0  0
 22 12  1  0  0  0  0
 22  2  1  0  0  0  0
 23  4  1  0  0  0  0
 25 29  1  0  0  0  0
 27 24  1  0  0  0  0
 28 27  2  0  0  0  0
 29 26  1  0  0  0  0
 29 24  2  0  0  0  0
 30 25  2  0  0  0  0
 30 28  1  0  0  0  0
 32 33  1  0  0  0  0
 33 31  1  0  0  0  0
 34 31  2  0  0  0  0
 36 35  2  0  0  0  0
 36 37  1  0  0  0  0
 37 38  1  0  0  0  0
 38 39  1  0  0  0  0
 40 39  1  0  0  0  0
 41 40  1  0  0  0  0
 41 43  1  0  0  0  0
 42 43  1  0  0  0  0
 44 42  2  0  0  0  0
 45 44  1  0  0  0  0
 45 41  2  0  0  0  0
 47 48  2  0  0  0  0
 47 46  1  0  0  0  0
 49 50  2  0  0  0  0
 49 54  1  0  0  0  0
 50 52  1  0  0  0  0
 52 51  1  0  0  0  0
 53 51  2  0  0  0  0
 53 47  1  0  0  0  0
 54 53  1  0  0  0  0
M  END
>  <MODEL>
3

>  <REMARK>
 VINA RESULT:       1.6      2.603      9.574
  Name = 
  11 active torsions:
  status: ('A' for Active; 'I' for Inactive)
    1  A    between atoms: C_2  and  C_40
    2  A    between atoms: O_5  and  C_12
    3  A    between atoms: O_5  and  O_25
    4  A    between atoms: C_6  and  C_51
    5  A    between atoms: C_12  and  C_34
    6  A    between atoms: C_18  and  O_25
    7  A    between atoms: C_18  and  C_40
    8  A    between atoms: C_19  and  O_35
    9  A    between atoms: C_19  and  C_43
   10  A    between atoms: C_21  and  O_35
   11  A    between atoms: C_36  and  C_48
                            x       y       z     vdW  Elec       q    Type
                         _______ _______ _______ _____ _____    ______ ____

>  <TORSDO>
F 11

$$$$
