=
 OpenBabel11072410253D

 51 56  0  0  1  0  0  0  0  0999 V2000
  160.6240  206.8680  153.3950 C   0  0  0  0  0  0  0  0  0  0  0  0
  160.6120  209.1410  154.1890 C   0  0  0  0  0  0  0  0  0  0  0  0
  160.6470  210.5540  154.1130 N   0  0  0  0  0  0  0  0  0  0  0  0
  160.2850  206.8990  157.1280 N   0  0  0  0  0  1  0  0  0  0  0  0
  160.5510  210.9780  155.3390 C   0  0  0  0  0  0  0  0  0  0  0  0
  160.4900  206.4250  154.7280 C   0  0  0  0  0  3  0  0  0  0  0  0
  160.4440  209.8890  156.3760 C   0  0  0  0  0  2  0  0  0  0  0  0
  160.4150  207.3480  155.7830 C   0  0  0  0  0  0  0  0  0  0  0  0
  160.4840  208.7060  155.4790 C   0  0  0  0  0  0  0  0  0  0  0  0
  160.7010  208.2520  153.1210 C   0  0  0  0  0  3  0  0  0  0  0  0
  161.3830  205.5970  149.8330 C   0  0  1  0  0  3  0  0  0  0  0  0
  160.9740  202.1030  148.8140 N   0  0  0  0  0  2  0  0  0  0  0  0
  160.2360  202.1860  150.0150 C   0  0  0  0  0  0  0  0  0  0  0  0
  161.6990  203.3490  148.6360 C   0  0  0  0  0  2  0  0  0  0  0  0
  160.7500  205.8430  152.3070 C   0  0  2  0  0  3  0  0  0  0  0  0
  160.4190  203.4700  150.7200 C   0  0  2  0  0  3  0  0  0  0  0  0
  159.4520  201.2770  150.3950 O   0  0  0  0  0  0  0  0  0  0  0  0
  161.6030  204.0900  149.9800 C   0  0  2  0  0  3  0  0  0  0  0  0
  160.7110  203.2870  152.2090 C   0  0  0  0  0  2  0  0  0  0  0  0
  161.2920  204.5340  152.8840 C   0  0  0  0  0  2  0  0  0  0  0  0
  161.6530  206.3180  151.1590 C   0  0  0  0  0  2  0  0  0  0  0  0
  162.2460  206.1160  148.8490 O   0  0  0  0  0  0  0  0  0  0  0  0
  160.0230  206.5530  147.8910 C   0  0  0  0  0  1  0  0  0  0  0  0
  161.5220  206.8640  147.8840 C   0  0  0  0  0  0  0  0  0  0  0  0
  161.7140  208.3600  148.0990 C   0  0  0  0  0  1  0  0  0  0  0  0
  162.0820  206.5430  146.5000 C   0  0  0  0  0  2  0  0  0  0  0  0
  162.8470  205.2190  146.4450 C   0  0  0  0  0  2  0  0  0  0  0  0
  162.3730  204.3420  145.2970 C   0  0  0  0  0  2  0  0  0  0  0  0
  161.0380  204.8380  144.7720 C   0  0  0  0  0  2  0  0  0  0  0  0
  160.1120  203.6620  144.5520 C   0  0  0  0  0  2  0  0  0  0  0  0
  160.6430  202.4580  145.2970 C   0  0  0  0  0  1  0  0  0  0  0  0
  160.5480  212.3330  155.6700 O   0  0  0  0  0  0  0  0  0  0  0  0
  156.6660  211.9040  157.2560 C   0  0  2  0  0  3  0  0  0  0  0  0
  158.5620  212.6690  154.2850 C   0  0  1  0  0  3  0  0  0  0  0  0
  158.6360  213.2410  156.6670 O   0  0  0  0  0  0  0  0  0  0  0  0
  159.4020  213.1590  155.4800 C   0  0  1  0  0  3  0  0  0  0  0  0
  157.1690  212.2170  154.7170 C   0  0  0  0  0  2  0  0  0  0  0  0
  158.1800  211.9480  157.0220 C   0  0  2  0  0  3  0  0  0  0  0  0
  157.2570  211.3250  155.9630 C   0  0  1  0  0  3  0  0  0  0  0  0
  156.6230  214.4490  157.2610 N   0  0  0  0  0  1  0  0  0  0  0  0
  155.9330  213.2140  157.0990 C   0  0  0  0  0  0  0  0  0  0  0  0
  154.6870  213.2180  156.9210 O   0  0  0  0  0  0  0  0  0  0  0  0
  158.4910  213.7130  153.1750 C   0  0  0  0  0  2  0  0  0  0  0  0
  159.4860  213.4410  152.0570 C   0  0  0  0  0  2  0  0  0  0  0  0
  158.7510  212.8440  150.8730 C   0  0  0  0  0  2  0  0  0  0  0  0
  158.4340  213.9120  149.8390 C   0  0  0  0  0  2  0  0  0  0  0  0
  159.6080  214.1420  148.9060 C   0  0  0  0  0  2  0  0  0  0  0  0
  160.5840  213.0770  149.0530 N   0  0  0  0  0  2  0  0  0  0  0  0
  160.8110  212.8410  146.4270 S   0  0  0  0  0  0  0  0  0  0  0  0
  161.3480  212.5950  147.9470 C   0  0  0  0  0  0  0  0  0  0  0  0
  162.5870  211.9250  148.1550 N   0  0  0  0  0  1  0  0  0  0  0  0
  1  6  1  0  0  0  0
  2  9  2  0  0  0  0
  3  2  1  0  0  0  0
  3  5  2  0  0  0  0
  5 32  1  0  0  0  0
  5  7  1  0  0  0  0
  6  8  2  0  0  0  0
  8  4  1  0  0  0  0
  9  8  1  0  0  0  0
  9  7  1  0  0  0  0
 10  1  2  0  0  0  0
 10  2  1  0  0  0  0
 11 22  1  6  0  0  0
 11 18  1  0  0  0  0
 11 21  1  0  0  0  0
 12 13  1  0  0  0  0
 13 17  2  0  0  0  0
 13 16  1  0  0  0  0
 14 12  1  0  0  0  0
 15 20  1  0  0  0  0
 15  1  1  1  0  0  0
 16 19  1  1  0  0  0
 18 14  1  6  0  0  0
 18 16  1  0  0  0  0
 19 20  1  0  0  0  0
 21 15  1  0  0  0  0
 24 23  1  0  0  0  0
 24 25  1  0  0  0  0
 24 22  1  0  0  0  0
 26 24  1  0  0  0  0
 27 26  1  0  0  0  0
 28 27  1  0  0  0  0
 29 28  1  0  0  0  0
 30 29  1  0  0  0  0
 30 31  1  0  0  0  0
 33 41  1  6  0  0  0
 34 43  1  6  0  0  0
 34 37  1  0  0  0  0
 34 36  1  0  0  0  0
 36 32  1  1  0  0  0
 36 35  1  0  0  0  0
 38 35  1  6  0  0  0
 38 33  1  0  0  0  0
 39 37  1  6  0  0  0
 39 38  1  0  0  0  0
 39 33  1  0  0  0  0
 41 40  1  0  0  0  0
 42 41  2  0  0  0  0
 44 43  1  0  0  0  0
 45 44  1  0  0  0  0
 46 45  1  0  0  0  0
 47 48  1  0  0  0  0
 47 46  1  0  0  0  0
 49 50  2  0  0  0  0
 50 51  1  0  0  0  0
 50 48  1  0  0  0  0
M  END
>  <MODEL>
1

>  <REMARK>
 VINA RESULT:      -6.7      0.000      0.000
  Name = 
  18 active torsions:
  status: ('A' for Active; 'I' for Inactive)
    1  A    between atoms: C_1  and  N_5
    2  A    between atoms: C_1  and  C_23
    3  A    between atoms: C_2  and  C_25
    4  A    between atoms: C_4  and  C_24
    5  A    between atoms: N_5  and  C_14
    6  A    between atoms: C_8  and  C_20
    7  A    between atoms: C_8  and  C_39
    8  A    between atoms: C_9  and  O_15
    9  A    between atoms: C_10  and  C_36
   10  A    between atoms: O_13  and  C_18
   11  A    between atoms: O_13  and  C_32
   12  A    between atoms: O_15  and  C_21
   13  A    between atoms: C_21  and  C_28
   14  A    between atoms: C_23  and  C_49
   15  A    between atoms: C_28  and  C_33
   16  A    between atoms: C_33  and  C_42
   17  A    between atoms: C_36  and  C_42
   18  A    between atoms: C_39  and  C_49
                            x       y       z     vdW  Elec       q    Type
                         _______ _______ _______ _____ _____    ______ ____

>  <TORSDO>
F 18

$$$$
=
 OpenBabel11072410253D

 51 56  0  0  1  0  0  0  0  0999 V2000
  159.8570  213.0980  149.3940 C   0  0  0  0  0  0  0  0  0  0  0  0
  159.9550  213.4600  147.0150 C   0  0  0  0  0  0  0  0  0  0  0  0
  159.5100  213.8620  145.7340 N   0  0  0  0  0  0  0  0  0  0  0  0
  163.1940  211.9980  148.0850 N   0  0  0  0  0  1  0  0  0  0  0  0
  160.4920  213.6070  144.9200 C   0  0  0  0  0  0  0  0  0  0  0  0
  161.1720  212.5860  149.3480 C   0  0  0  0  0  3  0  0  0  0  0  0
  161.7080  212.9980  145.5710 C   0  0  0  0  0  2  0  0  0  0  0  0
  161.8700  212.5190  148.1310 C   0  0  0  0  0  0  0  0  0  0  0  0
  161.2280  212.9620  146.9760 C   0  0  0  0  0  0  0  0  0  0  0  0
  159.2320  213.5290  148.2030 C   0  0  0  0  0  3  0  0  0  0  0  0
  159.3530  212.2920  153.1310 C   0  0  1  0  0  3  0  0  0  0  0  0
  156.3470  213.2270  155.0040 N   0  0  0  0  0  2  0  0  0  0  0  0
  155.9490  213.3530  153.6550 C   0  0  0  0  0  0  0  0  0  0  0  0
  157.7790  212.9820  155.0370 C   0  0  0  0  0  2  0  0  0  0  0  0
  159.1350  213.1030  150.7080 C   0  0  2  0  0  3  0  0  0  0  0  0
  157.0710  213.2120  152.7050 C   0  0  2  0  0  3  0  0  0  0  0  0
  154.7480  213.4990  153.3120 O   0  0  0  0  0  0  0  0  0  0  0  0
  158.2930  213.2810  153.6200 C   0  0  2  0  0  3  0  0  0  0  0  0
  157.0880  214.3170  151.6480 C   0  0  0  0  0  2  0  0  0  0  0  0
  158.4230  214.4430  150.9060 C   0  0  0  0  0  2  0  0  0  0  0  0
  160.0750  212.8340  151.8930 C   0  0  0  0  0  2  0  0  0  0  0  0
  160.3020  212.0630  154.1480 O   0  0  0  0  0  0  0  0  0  0  0  0
  161.9540  210.3520  154.7740 C   0  0  0  0  0  1  0  0  0  0  0  0
  160.5260  210.6730  154.3270 C   0  0  0  0  0  0  0  0  0  0  0  0
  159.5510  210.0930  155.3440 C   0  0  0  0  0  1  0  0  0  0  0  0
  160.2550  209.9640  153.0020 C   0  0  0  0  0  2  0  0  0  0  0  0
  161.4990  209.3130  152.3940 C   0  0  0  0  0  2  0  0  0  0  0  0
  161.1350  208.2730  151.3470 C   0  0  0  0  0  2  0  0  0  0  0  0
  162.1470  207.1420  151.3530 C   0  0  0  0  0  2  0  0  0  0  0  0
  161.4630  205.8520  151.7520 C   0  0  0  0  0  2  0  0  0  0  0  0
  161.3650  205.7820  153.2590 C   0  0  0  0  0  1  0  0  0  0  0  0
  160.4270  213.8720  143.5520 O   0  0  0  0  0  0  0  0  0  0  0  0
  162.4240  211.7150  140.5300 C   0  0  2  0  0  3  0  0  0  0  0  0
  159.4690  213.6290  141.3170 C   0  0  1  0  0  3  0  0  0  0  0  0
  160.8240  211.8860  142.3810 O   0  0  0  0  0  0  0  0  0  0  0  0
  159.9000  212.9310  142.6200 C   0  0  1  0  0  3  0  0  0  0  0  0
  160.2840  213.1480  140.1170 C   0  0  0  0  0  2  0  0  0  0  0  0
  162.0090  212.4250  141.8240 C   0  0  2  0  0  3  0  0  0  0  0  0
  161.7780  213.1070  140.4670 C   0  0  1  0  0  3  0  0  0  0  0  0
  161.9140  209.2290  140.3560 N   0  0  0  0  0  1  0  0  0  0  0  0
  161.5400  210.5760  140.0870 C   0  0  0  0  0  0  0  0  0  0  0  0
  160.5180  210.8090  139.3900 O   0  0  0  0  0  0  0  0  0  0  0  0
  157.9710  213.4890  141.0650 C   0  0  0  0  0  2  0  0  0  0  0  0
  157.6580  212.4770  139.9740 C   0  0  0  0  0  2  0  0  0  0  0  0
  156.4610  212.9600  139.1770 C   0  0  0  0  0  2  0  0  0  0  0  0
  156.2870  212.1370  137.9110 C   0  0  0  0  0  2  0  0  0  0  0  0
  154.8830  211.5700  137.8110 C   0  0  0  0  0  2  0  0  0  0  0  0
  154.7710  210.3590  138.6040 N   0  0  0  0  0  2  0  0  0  0  0  0
  153.0180  211.5300  140.2030 S   0  0  0  0  0  0  0  0  0  0  0  0
  153.7810  210.2110  139.6230 C   0  0  0  0  0  0  0  0  0  0  0  0
  153.4330  208.9230  140.1180 N   0  0  0  0  0  1  0  0  0  0  0  0
  2 10  1  0  0  0  0
  3  2  1  0  0  0  0
  4  8  1  0  0  0  0
  5  7  1  0  0  0  0
  5  3  2  0  0  0  0
  6  1  1  0  0  0  0
  7  9  1  0  0  0  0
  8  6  2  0  0  0  0
  9  2  2  0  0  0  0
  9  8  1  0  0  0  0
 10  1  2  0  0  0  0
 11 18  1  0  0  0  0
 11 22  1  1  0  0  0
 12 14  1  0  0  0  0
 13 12  1  0  0  0  0
 15  1  1  6  0  0  0
 15 20  1  0  0  0  0
 15 21  1  0  0  0  0
 16 19  1  6  0  0  0
 16 18  1  0  0  0  0
 16 13  1  0  0  0  0
 17 13  2  0  0  0  0
 18 14  1  1  0  0  0
 20 19  1  0  0  0  0
 21 11  1  0  0  0  0
 22 24  1  0  0  0  0
 24 23  1  0  0  0  0
 24 25  1  0  0  0  0
 26 24  1  0  0  0  0
 27 26  1  0  0  0  0
 28 29  1  0  0  0  0
 28 27  1  0  0  0  0
 29 30  1  0  0  0  0
 30 31  1  0  0  0  0
 32  5  1  0  0  0  0
 33 41  1  6  0  0  0
 33 38  1  0  0  0  0
 34 43  1  6  0  0  0
 34 36  1  0  0  0  0
 35 36  1  0  0  0  0
 36 32  1  1  0  0  0
 37 34  1  0  0  0  0
 38 35  1  6  0  0  0
 39 37  1  6  0  0  0
 39 33  1  0  0  0  0
 39 38  1  0  0  0  0
 41 40  1  0  0  0  0
 42 41  2  0  0  0  0
 44 43  1  0  0  0  0
 45 44  1  0  0  0  0
 46 45  1  0  0  0  0
 47 46  1  0  0  0  0
 47 48  1  0  0  0  0
 48 50  1  0  0  0  0
 50 51  1  0  0  0  0
 50 49  2  0  0  0  0
M  END
>  <MODEL>
2

>  <REMARK>
 VINA RESULT:      -6.0      5.931     11.549
  Name = 
  18 active torsions:
  status: ('A' for Active; 'I' for Inactive)
    1  A    between atoms: C_1  and  N_5
    2  A    between atoms: C_1  and  C_23
    3  A    between atoms: C_2  and  C_25
    4  A    between atoms: C_4  and  C_24
    5  A    between atoms: N_5  and  C_14
    6  A    between atoms: C_8  and  C_20
    7  A    between atoms: C_8  and  C_39
    8  A    between atoms: C_9  and  O_15
    9  A    between atoms: C_10  and  C_36
   10  A    between atoms: O_13  and  C_18
   11  A    between atoms: O_13  and  C_32
   12  A    between atoms: O_15  and  C_21
   13  A    between atoms: C_21  and  C_28
   14  A    between atoms: C_23  and  C_49
   15  A    between atoms: C_28  and  C_33
   16  A    between atoms: C_33  and  C_42
   17  A    between atoms: C_36  and  C_42
   18  A    between atoms: C_39  and  C_49
                            x       y       z     vdW  Elec       q    Type
                         _______ _______ _______ _____ _____    ______ ____

>  <TORSDO>
F 18

$$$$
=
 OpenBabel11072410253D

 51 56  0  0  1  0  0  0  0  0999 V2000
  160.7990  206.4030  152.6470 C   0  0  0  0  0  0  0  0  0  0  0  0
  160.8340  208.7230  153.2910 C   0  0  0  0  0  0  0  0  0  0  0  0
  160.8480  210.1280  153.1220 N   0  0  0  0  0  0  0  0  0  0  0  0
  160.7860  206.6750  156.3860 N   0  0  0  0  0  1  0  0  0  0  0  0
  160.8540  210.6310  154.3220 C   0  0  0  0  0  0  0  0  0  0  0  0
  160.7860  206.0470  154.0120 C   0  0  0  0  0  3  0  0  0  0  0  0
  160.8480  209.6110  155.4320 C   0  0  0  0  0  2  0  0  0  0  0  0
  160.7940  207.0360  155.0080 C   0  0  0  0  0  0  0  0  0  0  0  0
  160.8230  208.3720  154.6130 C   0  0  0  0  0  0  0  0  0  0  0  0
  160.8380  207.7660  152.2790 C   0  0  0  0  0  3  0  0  0  0  0  0
  160.4490  204.8760  149.1230 C   0  0  1  0  0  3  0  0  0  0  0  0
  160.9910  201.3240  148.4060 N   0  0  0  0  0  2  0  0  0  0  0  0
  160.8350  201.3590  149.8100 C   0  0  0  0  0  0  0  0  0  0  0  0
  161.0590  202.6920  147.9200 C   0  0  0  0  0  2  0  0  0  0  0  0
  160.8410  205.3100  151.6200 C   0  0  2  0  0  3  0  0  0  0  0  0
  160.7990  202.7300  150.3540 C   0  0  2  0  0  3  0  0  0  0  0  0
  160.6750  200.3200  150.5010 O   0  0  0  0  0  0  0  0  0  0  0  0
  161.2530  203.5740  149.1640 C   0  0  2  0  0  3  0  0  0  0  0  0
  161.7190  202.9080  151.5620 C   0  0  0  0  0  2  0  0  0  0  0  0
  162.0150  204.3720  151.9050 C   0  0  0  0  0  2  0  0  0  0  0  0
  160.9480  205.8580  150.1890 C   0  0  0  0  0  2  0  0  0  0  0  0
  160.5740  205.4780  147.8550 O   0  0  0  0  0  0  0  0  0  0  0  0
  162.8870  205.9150  148.5680 C   0  0  0  0  0  1  0  0  0  0  0  0
  161.6360  206.4190  147.8450 C   0  0  0  0  0  0  0  0  0  0  0  0
  162.0130  206.7970  146.4180 C   0  0  0  0  0  1  0  0  0  0  0  0
  161.1570  207.6990  148.5270 C   0  0  0  0  0  2  0  0  0  0  0  0
  162.1060  208.8830  148.3330 C   0  0  0  0  0  2  0  0  0  0  0  0
  161.9530  209.9130  149.4420 C   0  0  0  0  0  2  0  0  0  0  0  0
  162.5600  211.2380  149.0180 C   0  0  0  0  0  2  0  0  0  0  0  0
  161.4900  212.1090  148.3960 C   0  0  0  0  0  2  0  0  0  0  0  0
  162.0260  212.7350  147.1280 C   0  0  0  0  0  1  0  0  0  0  0  0
  160.8670  212.0040  154.5630 O   0  0  0  0  0  0  0  0  0  0  0  0
  157.3470  212.1180  156.8810 C   0  0  2  0  0  3  0  0  0  0  0  0
  158.6590  212.1040  153.5210 C   0  0  1  0  0  3  0  0  0  0  0  0
  159.1740  213.1980  155.6520 O   0  0  0  0  0  0  0  0  0  0  0  0
  159.7060  212.8150  154.3980 C   0  0  1  0  0  3  0  0  0  0  0  0
  157.3690  211.8230  154.2900 C   0  0  0  0  0  2  0  0  0  0  0  0
  158.7910  212.0400  156.3730 C   0  0  2  0  0  3  0  0  0  0  0  0
  157.6870  211.2350  155.6720 C   0  0  1  0  0  3  0  0  0  0  0  0
  155.1860  213.3680  156.3870 N   0  0  0  0  0  1  0  0  0  0  0  0
  156.5990  213.3880  156.5590 C   0  0  0  0  0  0  0  0  0  0  0  0
  157.2350  214.4530  156.3450 O   0  0  0  0  0  0  0  0  0  0  0  0
  158.3830  212.8710  152.2310 C   0  0  0  0  0  2  0  0  0  0  0  0
  159.3150  214.0600  152.0530 C   0  0  0  0  0  2  0  0  0  0  0  0
  159.3690  214.4320  150.5830 C   0  0  0  0  0  2  0  0  0  0  0  0
  158.3870  213.5960  149.7780 C   0  0  0  0  0  2  0  0  0  0  0  0
  158.3950  213.9940  148.3140 C   0  0  0  0  0  2  0  0  0  0  0  0
  157.3900  213.2410  147.5830 N   0  0  0  0  0  2  0  0  0  0  0  0
  158.5810  213.0720  145.2260 S   0  0  0  0  0  0  0  0  0  0  0  0
  157.2710  213.3240  146.1630 C   0  0  0  0  0  0  0  0  0  0  0  0
  156.0130  213.5970  145.5530 N   0  0  0  0  0  1  0  0  0  0  0  0
  1  6  1  0  0  0  0
  2  9  2  0  0  0  0
  3  2  1  0  0  0  0
  3  5  2  0  0  0  0
  5 32  1  0  0  0  0
  5  7  1  0  0  0  0
  6  8  2  0  0  0  0
  8  4  1  0  0  0  0
  9  8  1  0  0  0  0
  9  7  1  0  0  0  0
 10  1  2  0  0  0  0
 10  2  1  0  0  0  0
 11 22  1  6  0  0  0
 11 18  1  0  0  0  0
 11 21  1  0  0  0  0
 12 13  1  0  0  0  0
 13 16  1  0  0  0  0
 13 17  2  0  0  0  0
 14 12  1  0  0  0  0
 15 20  1  0  0  0  0
 15  1  1  1  0  0  0
 16 19  1  1  0  0  0
 18 14  1  6  0  0  0
 18 16  1  0  0  0  0
 19 20  1  0  0  0  0
 21 15  1  0  0  0  0
 24 22  1  0  0  0  0
 24 26  1  0  0  0  0
 24 23  1  0  0  0  0
 25 24  1  0  0  0  0
 27 26  1  0  0  0  0
 27 28  1  0  0  0  0
 29 28  1  0  0  0  0
 30 29  1  0  0  0  0
 31 30  1  0  0  0  0
 33 41  1  6  0  0  0
 34 43  1  6  0  0  0
 34 37  1  0  0  0  0
 34 36  1  0  0  0  0
 36 32  1  1  0  0  0
 36 35  1  0  0  0  0
 38 35  1  6  0  0  0
 38 33  1  0  0  0  0
 39 37  1  6  0  0  0
 39 38  1  0  0  0  0
 39 33  1  0  0  0  0
 40 41  1  0  0  0  0
 42 41  2  0  0  0  0
 44 43  1  0  0  0  0
 45 44  1  0  0  0  0
 46 45  1  0  0  0  0
 47 46  1  0  0  0  0
 48 47  1  0  0  0  0
 49 50  2  0  0  0  0
 50 48  1  0  0  0  0
 51 50  1  0  0  0  0
M  END
>  <MODEL>
3

>  <REMARK>
 VINA RESULT:      -5.0      1.663      3.116
  Name = 
  18 active torsions:
  status: ('A' for Active; 'I' for Inactive)
    1  A    between atoms: C_1  and  N_5
    2  A    between atoms: C_1  and  C_23
    3  A    between atoms: C_2  and  C_25
    4  A    between atoms: C_4  and  C_24
    5  A    between atoms: N_5  and  C_14
    6  A    between atoms: C_8  and  C_20
    7  A    between atoms: C_8  and  C_39
    8  A    between atoms: C_9  and  O_15
    9  A    between atoms: C_10  and  C_36
   10  A    between atoms: O_13  and  C_18
   11  A    between atoms: O_13  and  C_32
   12  A    between atoms: O_15  and  C_21
   13  A    between atoms: C_21  and  C_28
   14  A    between atoms: C_23  and  C_49
   15  A    between atoms: C_28  and  C_33
   16  A    between atoms: C_33  and  C_42
   17  A    between atoms: C_36  and  C_42
   18  A    between atoms: C_39  and  C_49
                            x       y       z     vdW  Elec       q    Type
                         _______ _______ _______ _____ _____    ______ ____

>  <TORSDO>
F 18

$$$$
=
 OpenBabel11072410253D

 51 56  0  0  1  0  0  0  0  0999 V2000
  160.1120  213.0400  148.7660 C   0  0  0  0  0  0  0  0  0  0  0  0
  160.3420  213.2320  146.3770 C   0  0  0  0  0  0  0  0  0  0  0  0
  159.9650  213.5320  145.0460 N   0  0  0  0  0  0  0  0  0  0  0  0
  163.5370  211.9210  147.7320 N   0  0  0  0  0  1  0  0  0  0  0  0
  160.9970  213.2400  144.3100 C   0  0  0  0  0  0  0  0  0  0  0  0
  161.4350  212.5550  148.8320 C   0  0  0  0  0  3  0  0  0  0  0  0
  162.1830  212.7060  145.0710 C   0  0  0  0  0  2  0  0  0  0  0  0
  162.2040  212.4150  147.6650 C   0  0  0  0  0  0  0  0  0  0  0  0
  161.6230  212.7600  146.4460 C   0  0  0  0  0  0  0  0  0  0  0  0
  159.5490  213.3710  147.5130 C   0  0  0  0  0  3  0  0  0  0  0  0
  159.4130  212.5080  152.5210 C   0  0  1  0  0  3  0  0  0  0  0  0
  156.2800  213.4920  154.1440 N   0  0  0  0  0  2  0  0  0  0  0  0
  155.9570  213.5010  152.7680 C   0  0  0  0  0  0  0  0  0  0  0  0
  157.7130  213.2940  154.2760 C   0  0  0  0  0  2  0  0  0  0  0  0
  159.3140  213.1240  150.0330 C   0  0  2  0  0  3  0  0  0  0  0  0
  157.1350  213.3230  151.8970 C   0  0  2  0  0  3  0  0  0  0  0  0
  154.7740  213.5840  152.3490 O   0  0  0  0  0  0  0  0  0  0  0  0
  158.3000  213.4990  152.8700 C   0  0  2  0  0  3  0  0  0  0  0  0
  157.1850  214.3430  150.7590 C   0  0  0  0  0  2  0  0  0  0  0  0
  158.5570  214.4520  150.0850 C   0  0  0  0  0  2  0  0  0  0  0  0
  160.1910  212.9760  151.2860 C   0  0  0  0  0  2  0  0  0  0  0  0
  160.3070  212.3880  153.6040 O   0  0  0  0  0  0  0  0  0  0  0  0
  161.7690  210.7740  154.7460 C   0  0  0  0  0  1  0  0  0  0  0  0
  160.4720  211.0280  153.9740 C   0  0  0  0  0  0  0  0  0  0  0  0
  159.2970  210.5480  154.8160 C   0  0  0  0  0  1  0  0  0  0  0  0
  160.4810  210.1780  152.7060 C   0  0  0  0  0  2  0  0  0  0  0  0
  161.8090  209.4600  152.4630 C   0  0  0  0  0  2  0  0  0  0  0  0
  161.6090  207.9710  152.2230 C   0  0  0  0  0  2  0  0  0  0  0  0
  160.8040  207.7460  150.9560 C   0  0  0  0  0  2  0  0  0  0  0  0
  161.4690  206.6760  150.1170 C   0  0  0  0  0  2  0  0  0  0  0  0
  161.2830  207.0010  148.6520 C   0  0  0  0  0  1  0  0  0  0  0  0
  161.0060  213.4050  142.9250 O   0  0  0  0  0  0  0  0  0  0  0  0
  163.1490  214.4530  139.4490 C   0  0  2  0  0  3  0  0  0  0  0  0
  160.9350  212.0140  140.9170 C   0  0  1  0  0  3  0  0  0  0  0  0
  162.9230  213.2780  141.5900 O   0  0  0  0  0  0  0  0  0  0  0  0
  161.7890  212.5790  142.0670 C   0  0  1  0  0  3  0  0  0  0  0  0
  161.4180  212.5060  139.5540 C   0  0  0  0  0  2  0  0  0  0  0  0
  162.5010  214.4000  140.8370 C   0  0  2  0  0  3  0  0  0  0  0  0
  161.6840  214.0170  139.5940 C   0  0  1  0  0  3  0  0  0  0  0  0
  165.5010  213.6330  138.9260 N   0  0  0  0  0  1  0  0  0  0  0  0
  164.1220  213.3450  139.1300 C   0  0  0  0  0  0  0  0  0  0  0  0
  163.6990  212.1730  138.9450 O   0  0  0  0  0  0  0  0  0  0  0  0
  160.8540  210.4910  140.9630 C   0  0  0  0  0  2  0  0  0  0  0  0
  161.7500  209.8310  139.9270 C   0  0  0  0  0  2  0  0  0  0  0  0
  161.3130  208.3900  139.7390 C   0  0  0  0  0  2  0  0  0  0  0  0
  160.4800  208.2400  138.4760 C   0  0  0  0  0  2  0  0  0  0  0  0
  159.9130  209.5730  138.0270 C   0  0  0  0  0  2  0  0  0  0  0  0
  158.6240  209.3820  137.3860 N   0  0  0  0  0  2  0  0  0  0  0  0
  157.4940  211.7730  137.3050 S   0  0  0  0  0  0  0  0  0  0  0  0
  157.4940  210.1930  137.7070 C   0  0  0  0  0  0  0  0  0  0  0  0
  156.3540  209.6320  138.3490 N   0  0  0  0  0  1  0  0  0  0  0  0
  1  6  1  0  0  0  0
  2  9  2  0  0  0  0
  2 10  1  0  0  0  0
  3  2  1  0  0  0  0
  5  3  2  0  0  0  0
  5  7  1  0  0  0  0
  7  9  1  0  0  0  0
  8  4  1  0  0  0  0
  8  6  2  0  0  0  0
  9  8  1  0  0  0  0
 10  1  2  0  0  0  0
 11 18  1  0  0  0  0
 11 22  1  1  0  0  0
 12 14  1  0  0  0  0
 13 12  1  0  0  0  0
 15  1  1  6  0  0  0
 15 20  1  0  0  0  0
 15 21  1  0  0  0  0
 16 19  1  6  0  0  0
 16 13  1  0  0  0  0
 16 18  1  0  0  0  0
 17 13  2  0  0  0  0
 18 14  1  1  0  0  0
 20 19  1  0  0  0  0
 21 11  1  0  0  0  0
 22 24  1  0  0  0  0
 24 23  1  0  0  0  0
 24 25  1  0  0  0  0
 26 24  1  0  0  0  0
 27 26  1  0  0  0  0
 28 27  1  0  0  0  0
 29 28  1  0  0  0  0
 30 29  1  0  0  0  0
 31 30  1  0  0  0  0
 32  5  1  0  0  0  0
 33 41  1  1  0  0  0
 33 39  1  0  0  0  0
 33 38  1  0  0  0  0
 34 43  1  6  0  0  0
 34 36  1  0  0  0  0
 35 36  1  0  0  0  0
 36 32  1  6  0  0  0
 37 34  1  0  0  0  0
 38 35  1  1  0  0  0
 39 37  1  1  0  0  0
 39 38  1  0  0  0  0
 40 41  1  0  0  0  0
 42 41  2  0  0  0  0
 44 43  1  0  0  0  0
 45 44  1  0  0  0  0
 46 45  1  0  0  0  0
 47 46  1  0  0  0  0
 48 50  1  0  0  0  0
 48 47  1  0  0  0  0
 49 50  2  0  0  0  0
 50 51  1  0  0  0  0
M  END
>  <MODEL>
4

>  <REMARK>
 VINA RESULT:      -4.8      5.806     11.931
  Name = 
  18 active torsions:
  status: ('A' for Active; 'I' for Inactive)
    1  A    between atoms: C_1  and  N_5
    2  A    between atoms: C_1  and  C_23
    3  A    between atoms: C_2  and  C_25
    4  A    between atoms: C_4  and  C_24
    5  A    between atoms: N_5  and  C_14
    6  A    between atoms: C_8  and  C_20
    7  A    between atoms: C_8  and  C_39
    8  A    between atoms: C_9  and  O_15
    9  A    between atoms: C_10  and  C_36
   10  A    between atoms: O_13  and  C_18
   11  A    between atoms: O_13  and  C_32
   12  A    between atoms: O_15  and  C_21
   13  A    between atoms: C_21  and  C_28
   14  A    between atoms: C_23  and  C_49
   15  A    between atoms: C_28  and  C_33
   16  A    between atoms: C_33  and  C_42
   17  A    between atoms: C_36  and  C_42
   18  A    between atoms: C_39  and  C_49
                            x       y       z     vdW  Elec       q    Type
                         _______ _______ _______ _____ _____    ______ ____

>  <TORSDO>
F 18

$$$$
=
 OpenBabel11072410253D

 51 56  0  0  1  0  0  0  0  0999 V2000
  159.3370  212.9560  149.4590 C   0  0  0  0  0  0  0  0  0  0  0  0
  158.8930  213.0990  147.0970 C   0  0  0  0  0  0  0  0  0  0  0  0
  158.1280  213.2520  145.9160 N   0  0  0  0  0  0  0  0  0  0  0  0
  162.5420  212.5940  147.5490 N   0  0  0  0  0  1  0  0  0  0  0  0
  158.9740  213.1690  144.9310 C   0  0  0  0  0  0  0  0  0  0  0  0
  160.7070  212.7830  149.1690 C   0  0  0  0  0  3  0  0  0  0  0  0
  160.4060  212.9470  145.3480 C   0  0  0  0  0  2  0  0  0  0  0  0
  161.1600  212.7730  147.8400 C   0  0  0  0  0  0  0  0  0  0  0  0
  160.2220  212.9300  146.8210 C   0  0  0  0  0  0  0  0  0  0  0  0
  158.4100  213.1020  148.4030 C   0  0  0  0  0  3  0  0  0  0  0  0
  159.6310  212.0730  153.2020 C   0  0  1  0  0  3  0  0  0  0  0  0
  157.0310  212.8480  155.6630 N   0  0  0  0  0  2  0  0  0  0  0  0
  156.3630  212.9760  154.4250 C   0  0  0  0  0  0  0  0  0  0  0  0
  158.4480  212.6650  155.4010 C   0  0  0  0  0  2  0  0  0  0  0  0
  158.8950  212.9100  150.8920 C   0  0  2  0  0  3  0  0  0  0  0  0
  157.2740  212.8990  153.2650 C   0  0  2  0  0  3  0  0  0  0  0  0
  155.1130  213.0740  154.3350 O   0  0  0  0  0  0  0  0  0  0  0  0
  158.6520  213.0080  153.9170 C   0  0  2  0  0  3  0  0  0  0  0  0
  157.0330  214.0180  152.2530 C   0  0  0  0  0  2  0  0  0  0  0  0
  158.1850  214.2140  151.2600 C   0  0  0  0  0  2  0  0  0  0  0  0
  160.0650  212.6660  151.8560 C   0  0  0  0  0  2  0  0  0  0  0  0
  160.7740  211.8720  154.0010 O   0  0  0  0  0  0  0  0  0  0  0  0
  162.7580  210.4320  154.2020 C   0  0  0  0  0  1  0  0  0  0  0  0
  161.2750  210.5530  153.8450 C   0  0  0  0  0  0  0  0  0  0  0  0
  160.4820  209.5670  154.6940 C   0  0  0  0  0  1  0  0  0  0  0  0
  161.0840  210.1320  152.3890 C   0  0  0  0  0  2  0  0  0  0  0  0
  162.2570  209.3240  151.8310 C   0  0  0  0  0  2  0  0  0  0  0  0
  161.8070  207.9710  151.3010 C   0  0  0  0  0  2  0  0  0  0  0  0
  161.8720  207.9510  149.7850 C   0  0  0  0  0  2  0  0  0  0  0  0
  160.6490  207.2510  149.2340 C   0  0  0  0  0  2  0  0  0  0  0  0
  160.3760  206.0050  150.0460 C   0  0  0  0  0  1  0  0  0  0  0  0
  158.5890  213.2770  143.5950 O   0  0  0  0  0  0  0  0  0  0  0  0
  158.0210  214.1330  139.5070 C   0  0  2  0  0  3  0  0  0  0  0  0
  159.5330  211.8480  141.8520 C   0  0  1  0  0  3  0  0  0  0  0  0
  159.2930  214.2730  141.5990 O   0  0  0  0  0  0  0  0  0  0  0  0
  159.5310  213.2320  142.5270 C   0  0  1  0  0  3  0  0  0  0  0  0
  159.0930  211.9260  140.3920 C   0  0  0  0  0  2  0  0  0  0  0  0
  158.0020  214.1170  141.0390 C   0  0  2  0  0  3  0  0  0  0  0  0
  157.8410  212.8050  140.2560 C   0  0  1  0  0  3  0  0  0  0  0  0
  159.5090  214.2790  137.4480 N   0  0  0  0  0  1  0  0  0  0  0  0
  159.3720  214.3310  138.8640 C   0  0  0  0  0  0  0  0  0  0  0  0
  160.3990  214.4430  139.5830 O   0  0  0  0  0  0  0  0  0  0  0  0
  160.8820  211.1490  141.9910 C   0  0  0  0  0  2  0  0  0  0  0  0
  161.9940  211.8840  141.2570 C   0  0  0  0  0  2  0  0  0  0  0  0
  162.7610  210.8940  140.4010 C   0  0  0  0  0  2  0  0  0  0  0  0
  163.2860  211.5640  139.1410 C   0  0  0  0  0  2  0  0  0  0  0  0
  162.1500  212.0050  138.2360 C   0  0  0  0  0  2  0  0  0  0  0  0
  161.8810  210.9890  137.2340 N   0  0  0  0  0  2  0  0  0  0  0  0
  161.9670  208.3550  137.4690 S   0  0  0  0  0  0  0  0  0  0  0  0
  161.1850  209.7830  137.5500 C   0  0  0  0  0  0  0  0  0  0  0  0
  159.8220  209.8160  137.9620 N   0  0  0  0  0  1  0  0  0  0  0  0
  2 10  1  0  0  0  0
  3  2  1  0  0  0  0
  4  8  1  0  0  0  0
  5  7  1  0  0  0  0
  5  3  2  0  0  0  0
  6  1  1  0  0  0  0
  7  9  1  0  0  0  0
  8  6  2  0  0  0  0
  9  2  2  0  0  0  0
  9  8  1  0  0  0  0
 10  1  2  0  0  0  0
 11 18  1  0  0  0  0
 11 22  1  1  0  0  0
 13 12  1  0  0  0  0
 14 12  1  0  0  0  0
 15  1  1  6  0  0  0
 15 20  1  0  0  0  0
 15 21  1  0  0  0  0
 16 19  1  6  0  0  0
 16 18  1  0  0  0  0
 16 13  1  0  0  0  0
 17 13  2  0  0  0  0
 18 14  1  1  0  0  0
 20 19  1  0  0  0  0
 21 11  1  0  0  0  0
 24 22  1  0  0  0  0
 24 23  1  0  0  0  0
 24 25  1  0  0  0  0
 26 24  1  0  0  0  0
 27 26  1  0  0  0  0
 28 27  1  0  0  0  0
 29 28  1  0  0  0  0
 30 29  1  0  0  0  0
 30 31  1  0  0  0  0
 32  5  1  0  0  0  0
 33 41  1  1  0  0  0
 33 39  1  0  0  0  0
 33 38  1  0  0  0  0
 34 43  1  6  0  0  0
 34 36  1  0  0  0  0
 35 36  1  0  0  0  0
 36 32  1  1  0  0  0
 37 34  1  0  0  0  0
 38 35  1  1  0  0  0
 39 37  1  1  0  0  0
 39 38  1  0  0  0  0
 40 41  1  0  0  0  0
 41 42  2  0  0  0  0
 44 43  1  0  0  0  0
 45 44  1  0  0  0  0
 46 45  1  0  0  0  0
 47 46  1  0  0  0  0
 48 50  1  0  0  0  0
 48 47  1  0  0  0  0
 49 50  2  0  0  0  0
 50 51  1  0  0  0  0
M  END
>  <MODEL>
5

>  <REMARK>
 VINA RESULT:      -4.7      5.931     11.347
  Name = 
  18 active torsions:
  status: ('A' for Active; 'I' for Inactive)
    1  A    between atoms: C_1  and  N_5
    2  A    between atoms: C_1  and  C_23
    3  A    between atoms: C_2  and  C_25
    4  A    between atoms: C_4  and  C_24
    5  A    between atoms: N_5  and  C_14
    6  A    between atoms: C_8  and  C_20
    7  A    between atoms: C_8  and  C_39
    8  A    between atoms: C_9  and  O_15
    9  A    between atoms: C_10  and  C_36
   10  A    between atoms: O_13  and  C_18
   11  A    between atoms: O_13  and  C_32
   12  A    between atoms: O_15  and  C_21
   13  A    between atoms: C_21  and  C_28
   14  A    between atoms: C_23  and  C_49
   15  A    between atoms: C_28  and  C_33
   16  A    between atoms: C_33  and  C_42
   17  A    between atoms: C_36  and  C_42
   18  A    between atoms: C_39  and  C_49
                            x       y       z     vdW  Elec       q    Type
                         _______ _______ _______ _____ _____    ______ ____

>  <TORSDO>
F 18

$$$$
=
 OpenBabel11072410253D

 51 56  0  0  1  0  0  0  0  0999 V2000
  160.9070  210.5030  151.2350 C   0  0  0  0  0  0  0  0  0  0  0  0
  161.3950  208.5930  149.8530 C   0  0  0  0  0  0  0  0  0  0  0  0
  161.3700  207.2420  149.4320 N   0  0  0  0  0  0  0  0  0  0  0  0
  163.0090  211.5600  148.3160 N   0  0  0  0  0  1  0  0  0  0  0  0
  162.0710  207.1980  148.3370 C   0  0  0  0  0  0  0  0  0  0  0  0
  161.6490  211.3080  150.3450 C   0  0  0  0  0  3  0  0  0  0  0  0
  162.6470  208.5220  147.9040 C   0  0  0  0  0  2  0  0  0  0  0  0
  162.2570  210.7470  149.2110 C   0  0  0  0  0  0  0  0  0  0  0  0
  162.1140  209.3770  148.9940 C   0  0  0  0  0  0  0  0  0  0  0  0
  160.7900  209.1160  150.9930 C   0  0  0  0  0  3  0  0  0  0  0  0
  160.4410  211.0760  155.0200 C   0  0  1  0  0  3  0  0  0  0  0  0
  158.0270  213.4540  156.4130 N   0  0  0  0  0  2  0  0  0  0  0  0
  157.5950  213.2860  155.0790 C   0  0  0  0  0  0  0  0  0  0  0  0
  159.3060  212.7810  156.5660 C   0  0  0  0  0  2  0  0  0  0  0  0
  160.3190  211.1400  152.4590 C   0  0  2  0  0  3  0  0  0  0  0  0
  158.5430  212.5100  154.2560 C   0  0  2  0  0  3  0  0  0  0  0  0
  156.4800  213.7010  154.6700 O   0  0  0  0  0  0  0  0  0  0  0  0
  159.7860  212.4540  155.1430 C   0  0  2  0  0  3  0  0  0  0  0  0
  158.8340  213.1740  152.9100 C   0  0  0  0  0  2  0  0  0  0  0  0
  160.0840  212.6310  152.2090 C   0  0  0  0  0  2  0  0  0  0  0  0
  161.2070  210.9540  153.6980 C   0  0  0  0  0  2  0  0  0  0  0  0
  161.3390  210.8740  156.0870 O   0  0  0  0  0  0  0  0  0  0  0  0
  162.7030  209.1940  157.2560 C   0  0  0  0  0  1  0  0  0  0  0  0
  161.5050  209.4890  156.3510 C   0  0  0  0  0  0  0  0  0  0  0  0
  160.2520  208.9030  156.9890 C   0  0  0  0  0  1  0  0  0  0  0  0
  161.7030  208.7620  155.0220 C   0  0  0  0  0  2  0  0  0  0  0  0
  161.1520  207.3350  155.0210 C   0  0  0  0  0  2  0  0  0  0  0  0
  160.8800  206.8390  153.6100 C   0  0  0  0  0  2  0  0  0  0  0  0
  161.1480  205.3470  153.5150 C   0  0  0  0  0  2  0  0  0  0  0  0
  161.5440  204.9930  152.0980 C   0  0  0  0  0  2  0  0  0  0  0  0
  161.3120  203.5170  151.8670 C   0  0  0  0  0  1  0  0  0  0  0  0
  162.2740  206.0190  147.6190 O   0  0  0  0  0  0  0  0  0  0  0  0
  161.5840  201.9070  148.2380 C   0  0  2  0  0  3  0  0  0  0  0  0
  161.5180  204.5680  145.8040 C   0  0  1  0  0  3  0  0  0  0  0  0
  160.8430  204.2430  148.1370 O   0  0  0  0  0  0  0  0  0  0  0  0
  161.1920  205.2100  147.1660 C   0  0  1  0  0  3  0  0  0  0  0  0
  161.5660  203.0440  145.8910 C   0  0  0  0  0  2  0  0  0  0  0  0
  161.9490  203.3900  148.3690 C   0  0  2  0  0  3  0  0  0  0  0  0
  162.3730  202.6030  147.1200 C   0  0  1  0  0  3  0  0  0  0  0  0
  159.1680  201.5520  148.9530 N   0  0  0  0  0  1  0  0  0  0  0  0
  160.1410  201.6060  147.9160 C   0  0  0  0  0  0  0  0  0  0  0  0
  159.8120  201.3040  146.7390 O   0  0  0  0  0  0  0  0  0  0  0  0
  160.5600  205.0330  144.7120 C   0  0  0  0  0  2  0  0  0  0  0  0
  161.1070  206.2150  143.9260 C   0  0  0  0  0  2  0  0  0  0  0  0
  161.8720  205.6990  142.7220 C   0  0  0  0  0  2  0  0  0  0  0  0
  161.6460  206.5940  141.5140 C   0  0  0  0  0  2  0  0  0  0  0  0
  162.5970  206.2460  140.3840 C   0  0  0  0  0  2  0  0  0  0  0  0
  162.1850  206.9060  139.1580 N   0  0  0  0  0  2  0  0  0  0  0  0
  160.2420  208.4490  138.2370 S   0  0  0  0  0  0  0  0  0  0  0  0
  161.5570  208.1890  139.1650 C   0  0  0  0  0  0  0  0  0  0  0  0
  162.0490  209.2350  139.9960 N   0  0  0  0  0  1  0  0  0  0  0  0
  2 10  2  0  0  0  0
  3  2  1  0  0  0  0
  4  8  1  0  0  0  0
  5  3  2  0  0  0  0
  6  1  2  0  0  0  0
  7  5  1  0  0  0  0
  7  9  1  0  0  0  0
  8  6  1  0  0  0  0
  9  8  2  0  0  0  0
  9  2  1  0  0  0  0
 10  1  1  0  0  0  0
 11 18  1  0  0  0  0
 11 22  1  1  0  0  0
 12 14  1  0  0  0  0
 13 12  1  0  0  0  0
 15  1  1  6  0  0  0
 15 21  1  0  0  0  0
 16 19  1  6  0  0  0
 16 13  1  0  0  0  0
 16 18  1  0  0  0  0
 17 13  2  0  0  0  0
 18 14  1  1  0  0  0
 20 15  1  0  0  0  0
 20 19  1  0  0  0  0
 21 11  1  0  0  0  0
 22 24  1  0  0  0  0
 24 25  1  0  0  0  0
 24 23  1  0  0  0  0
 26 24  1  0  0  0  0
 27 26  1  0  0  0  0
 28 27  1  0  0  0  0
 29 28  1  0  0  0  0
 30 29  1  0  0  0  0
 31 30  1  0  0  0  0
 32  5  1  0  0  0  0
 33 41  1  6  0  0  0
 33 38  1  0  0  0  0
 34 43  1  6  0  0  0
 34 37  1  0  0  0  0
 34 36  1  0  0  0  0
 36 32  1  1  0  0  0
 36 35  1  0  0  0  0
 38 35  1  6  0  0  0
 39 37  1  6  0  0  0
 39 33  1  0  0  0  0
 39 38  1  0  0  0  0
 41 40  1  0  0  0  0
 42 41  2  0  0  0  0
 44 43  1  0  0  0  0
 45 44  1  0  0  0  0
 46 45  1  0  0  0  0
 47 46  1  0  0  0  0
 48 50  1  0  0  0  0
 48 47  1  0  0  0  0
 49 50  2  0  0  0  0
 50 51  1  0  0  0  0
M  END
>  <MODEL>
6

>  <REMARK>
 VINA RESULT:      -4.1      3.132     10.388
  Name = 
  18 active torsions:
  status: ('A' for Active; 'I' for Inactive)
    1  A    between atoms: C_1  and  N_5
    2  A    between atoms: C_1  and  C_23
    3  A    between atoms: C_2  and  C_25
    4  A    between atoms: C_4  and  C_24
    5  A    between atoms: N_5  and  C_14
    6  A    between atoms: C_8  and  C_20
    7  A    between atoms: C_8  and  C_39
    8  A    between atoms: C_9  and  O_15
    9  A    between atoms: C_10  and  C_36
   10  A    between atoms: O_13  and  C_18
   11  A    between atoms: O_13  and  C_32
   12  A    between atoms: O_15  and  C_21
   13  A    between atoms: C_21  and  C_28
   14  A    between atoms: C_23  and  C_49
   15  A    between atoms: C_28  and  C_33
   16  A    between atoms: C_33  and  C_42
   17  A    between atoms: C_36  and  C_42
   18  A    between atoms: C_39  and  C_49
                            x       y       z     vdW  Elec       q    Type
                         _______ _______ _______ _____ _____    ______ ____

>  <TORSDO>
F 18

$$$$
