=
 OpenBabel11072410483D

 38 39  0  0  1  0  0  0  0  0999 V2000
  161.0950  207.4410  151.7610 C   0  0  0  0  0  0  0  0  0  0  0  0
  160.6800  208.3850  153.9530 C   0  0  0  0  0  0  0  0  0  0  0  0
  160.4440  209.9180  152.1540 C   0  0  2  0  0  3  0  0  0  0  0  0
  161.1750  207.6110  150.2750 C   0  0  0  0  0  1  0  0  0  0  0  0
  160.7440  208.5250  152.5800 C   0  0  0  0  0  0  0  0  0  0  0  0
  161.3000  206.0680  153.7710 C   0  0  0  0  0  3  0  0  0  0  0  0
  161.7260  210.5950  151.6830 C   0  0  0  0  0  1  0  0  0  0  0  0
  161.3860  206.2010  152.3720 C   0  0  0  0  0  0  0  0  0  0  0  0
  159.8950  210.5500  153.4500 C   0  0  1  0  0  3  0  0  0  0  0  0
  160.3060  209.6490  154.6340 C   0  0  2  0  0  3  0  0  0  0  0  0
  160.9470  207.1630  154.5710 C   0  0  0  0  0  3  0  0  0  0  0  0
  161.2560  210.5820  156.7510 O   0  0  0  0  0  1  0  0  0  0  0  0
  162.6180  210.2530  154.9350 O   0  0  0  0  0  0  0  0  0  0  0  0
  161.4640  210.1830  155.4360 C   0  0  0  0  0  0  0  0  0  0  0  0
  161.8100  205.0210  151.5610 C   0  0  0  0  0  2  0  0  0  0  0  0
  160.7380  203.9440  151.5580 C   0  0  0  0  0  2  0  0  0  0  0  0
  160.6870  201.9400  150.2680 O   0  0  0  0  0  0  0  0  0  0  0  0
  160.8080  203.1980  150.2710 C   0  0  0  0  0  0  0  0  0  0  0  0
  161.1300  203.8930  149.0680 N   0  0  0  0  0  2  0  0  0  0  0  0
  161.3060  203.2420  147.8900 O   0  0  0  0  0  0  0  0  0  0  0  0
  161.9110  204.1850  147.0460 C   0  0  2  0  0  3  0  0  0  0  0  0
  161.3000  205.5620  147.2570 C   0  0  0  0  0  2  0  0  0  0  0  0
  162.2980  206.5360  147.1900 O   0  0  0  0  0  1  0  0  0  0  0  0
  160.8860  204.6380  144.7760 C   0  0  0  0  0  1  0  0  0  0  0  0
  161.8120  203.7440  145.5860 C   0  0  0  0  0  2  0  0  0  0  0  0
  160.0790  212.0590  153.6290 C   0  0  0  0  0  2  0  0  0  0  0  0
  158.7440  212.7660  153.4380 C   0  0  2  0  0  3  0  0  0  0  0  0
  157.6350  211.8970  154.0190 C   0  0  0  0  0  1  0  0  0  0  0  0
  157.3310  213.8210  151.7890 O   0  0  0  0  0  1  0  0  0  0  0  0
  158.4800  213.0390  151.9530 C   0  0  1  0  0  3  0  0  0  0  0  0
  159.6710  213.7150  151.2630 C   0  0  0  0  0  2  0  0  0  0  0  0
  159.7040  213.4430  149.7600 C   0  0  0  0  0  2  0  0  0  0  0  0
  161.1180  213.5110  149.2060 C   0  0  0  0  0  2  0  0  0  0  0  0
  161.3480  212.3930  148.2050 C   0  0  0  0  0  2  0  0  0  0  0  0
  162.2040  212.9130  147.0620 C   0  0  0  0  0  2  0  0  0  0  0  0
  161.3480  213.2070  145.8430 C   0  0  0  0  0  2  0  0  0  0  0  0
  159.7050  211.9750  144.6390 O   0  0  0  0  0  1  0  0  0  0  0  0
  160.0730  212.3890  145.9200 C   0  0  0  0  0  2  0  0  0  0  0  0
  1  8  2  0  0  0  0
  1  5  1  0  0  0  0
  2 11  1  0  0  0  0
  2 10  1  0  0  0  0
  3  7  1  1  0  0  0
  3  5  1  0  0  0  0
  3  9  1  0  0  0  0
  4  1  1  0  0  0  0
  5  2  2  0  0  0  0
  6 11  2  0  0  0  0
  8  6  1  0  0  0  0
  9 26  1  1  0  0  0
  9 10  1  0  0  0  0
 10 14  1  6  0  0  0
 13 14  2  0  0  0  0
 14 12  1  0  0  0  0
 15  8  1  0  0  0  0
 16 15  1  0  0  0  0
 17 18  2  0  0  0  0
 18 16  1  0  0  0  0
 19 18  1  0  0  0  0
 20 19  1  0  0  0  0
 21 25  1  6  0  0  0
 21 22  1  0  0  0  0
 21 20  1  0  0  0  0
 23 22  1  0  0  0  0
 24 25  1  0  0  0  0
 27 26  1  0  0  0  0
 27 28  1  6  0  0  0
 30 29  1  1  0  0  0
 30 27  1  0  0  0  0
 31 30  1  0  0  0  0
 32 31  1  0  0  0  0
 33 32  1  0  0  0  0
 34 33  1  0  0  0  0
 35 34  1  0  0  0  0
 36 38  1  0  0  0  0
 36 35  1  0  0  0  0
 37 38  1  0  0  0  0
M  END
>  <MODEL>
1

>  <REMARK>
 VINA RESULT:      -7.2      0.000      0.000
  Name = 
  18 active torsions:
  status: ('A' for Active; 'I' for Inactive)
    1  A    between atoms: C_1  and  C_6
    2  A    between atoms: C_1  and  C_24
    3  A    between atoms: C_3  and  C_36
    4  A    between atoms: C_4  and  C_17
    5  A    between atoms: C_4  and  C_21
    6  A    between atoms: C_6  and  C_28
    7  A    between atoms: C_7  and  C_28
    8  A    between atoms: C_7  and  C_31
    9  A    between atoms: C_11  and  C_27
   10  A    between atoms: C_11  and  C_30
   11  A    between atoms: O_12  and  N_25
   12  A    between atoms: O_12  and  C_36
   13  A    between atoms: C_17  and  C_24
   14  A    between atoms: C_21  and  C_34
   15  A    between atoms: C_22  and  C_27
   16  A    between atoms: C_29  and  C_34
   17  A    between atoms: C_32  and  C_37
   18  A    between atoms: C_33  and  C_36
                            x       y       z     vdW  Elec       q    Type
                         _______ _______ _______ _____ _____    ______ ____

>  <TORSDO>
F 18

$$$$
=
 OpenBabel11072410483D

 38 39  0  0  1  0  0  0  0  0999 V2000
  161.1610  207.2190  151.7280 C   0  0  0  0  0  0  0  0  0  0  0  0
  160.7730  208.1940  153.9110 C   0  0  0  0  0  0  0  0  0  0  0  0
  160.6350  209.7280  152.1020 C   0  0  2  0  0  3  0  0  0  0  0  0
  161.2650  207.3760  150.2420 C   0  0  0  0  0  1  0  0  0  0  0  0
  160.8590  208.3230  152.5380 C   0  0  0  0  0  0  0  0  0  0  0  0
  161.2740  205.8470  153.7460 C   0  0  0  0  0  3  0  0  0  0  0  0
  161.9550  210.3350  151.6420 C   0  0  0  0  0  1  0  0  0  0  0  0
  161.3810  205.9690  152.3480 C   0  0  0  0  0  0  0  0  0  0  0  0
  160.1060  210.3940  153.3900 C   0  0  1  0  0  3  0  0  0  0  0  0
  160.4580  209.4800  154.5820 C   0  0  2  0  0  3  0  0  0  0  0  0
  160.9700  206.9640  154.5380 C   0  0  0  0  0  3  0  0  0  0  0  0
  161.5620  209.9270  156.7810 O   0  0  0  0  0  1  0  0  0  0  0  0
  162.6850  210.3640  154.8300 O   0  0  0  0  0  0  0  0  0  0  0  0
  161.6340  209.9580  155.3930 C   0  0  0  0  0  0  0  0  0  0  0  0
  161.7520  204.7650  151.5470 C   0  0  0  0  0  2  0  0  0  0  0  0
  160.5240  203.9390  151.1980 C   0  0  0  0  0  2  0  0  0  0  0  0
  160.8180  201.8720  150.0470 O   0  0  0  0  0  0  0  0  0  0  0  0
  160.8160  203.1340  149.9790 C   0  0  0  0  0  0  0  0  0  0  0  0
  161.2080  203.7910  148.7750 N   0  0  0  0  0  2  0  0  0  0  0  0
  161.5820  203.0970  147.6700 O   0  0  0  0  0  0  0  0  0  0  0  0
  161.8190  204.0770  146.6940 C   0  0  2  0  0  3  0  0  0  0  0  0
  161.3290  205.4360  147.1710 C   0  0  0  0  0  2  0  0  0  0  0  0
  162.3140  206.3990  146.9440 O   0  0  0  0  0  1  0  0  0  0  0  0
  160.6210  202.2650  145.3940 C   0  0  0  0  0  1  0  0  0  0  0  0
  161.1750  203.6820  145.3660 C   0  0  0  0  0  2  0  0  0  0  0  0
  160.3670  211.8930  153.5630 C   0  0  0  0  0  2  0  0  0  0  0  0
  159.0520  212.6570  153.4740 C   0  0  2  0  0  3  0  0  0  0  0  0
  157.8970  211.6650  153.5240 C   0  0  0  0  0  1  0  0  0  0  0  0
  160.1650  213.3330  151.4410 O   0  0  0  0  0  1  0  0  0  0  0  0
  158.9870  213.4790  152.1810 C   0  0  1  0  0  3  0  0  0  0  0  0
  157.7790  213.1050  151.3130 C   0  0  0  0  0  2  0  0  0  0  0  0
  157.1820  214.3160  150.5960 C   0  0  0  0  0  2  0  0  0  0  0  0
  157.7170  214.4530  149.1800 C   0  0  0  0  0  2  0  0  0  0  0  0
  156.7640  213.8080  148.1890 C   0  0  0  0  0  2  0  0  0  0  0  0
  157.4350  212.5970  147.5650 C   0  0  0  0  0  2  0  0  0  0  0  0
  157.2500  212.6000  146.0570 C   0  0  0  0  0  2  0  0  0  0  0  0
  159.5960  212.3370  146.3620 O   0  0  0  0  0  1  0  0  0  0  0  0
  158.6040  212.4750  145.3880 C   0  0  0  0  0  2  0  0  0  0  0  0
  1  8  2  0  0  0  0
  1  5  1  0  0  0  0
  2 11  1  0  0  0  0
  2 10  1  0  0  0  0
  3  7  1  1  0  0  0
  3  5  1  0  0  0  0
  3  9  1  0  0  0  0
  4  1  1  0  0  0  0
  5  2  2  0  0  0  0
  6 11  2  0  0  0  0
  8  6  1  0  0  0  0
  9 26  1  1  0  0  0
  9 10  1  0  0  0  0
 10 14  1  6  0  0  0
 13 14  2  0  0  0  0
 14 12  1  0  0  0  0
 15  8  1  0  0  0  0
 16 15  1  0  0  0  0
 18 17  2  0  0  0  0
 18 16  1  0  0  0  0
 19 18  1  0  0  0  0
 20 19  1  0  0  0  0
 21 25  1  6  0  0  0
 21 22  1  0  0  0  0
 21 20  1  0  0  0  0
 23 22  1  0  0  0  0
 25 24  1  0  0  0  0
 27 28  1  6  0  0  0
 27 26  1  0  0  0  0
 30 29  1  6  0  0  0
 30 27  1  0  0  0  0
 31 30  1  0  0  0  0
 32 31  1  0  0  0  0
 33 32  1  0  0  0  0
 34 33  1  0  0  0  0
 35 34  1  0  0  0  0
 36 35  1  0  0  0  0
 38 36  1  0  0  0  0
 38 37  1  0  0  0  0
M  END
>  <MODEL>
2

>  <REMARK>
 VINA RESULT:      -6.9      1.432      1.712
  Name = 
  18 active torsions:
  status: ('A' for Active; 'I' for Inactive)
    1  A    between atoms: C_1  and  C_6
    2  A    between atoms: C_1  and  C_24
    3  A    between atoms: C_3  and  C_36
    4  A    between atoms: C_4  and  C_17
    5  A    between atoms: C_4  and  C_21
    6  A    between atoms: C_6  and  C_28
    7  A    between atoms: C_7  and  C_28
    8  A    between atoms: C_7  and  C_31
    9  A    between atoms: C_11  and  C_27
   10  A    between atoms: C_11  and  C_30
   11  A    between atoms: O_12  and  N_25
   12  A    between atoms: O_12  and  C_36
   13  A    between atoms: C_17  and  C_24
   14  A    between atoms: C_21  and  C_34
   15  A    between atoms: C_22  and  C_27
   16  A    between atoms: C_29  and  C_34
   17  A    between atoms: C_32  and  C_37
   18  A    between atoms: C_33  and  C_36
                            x       y       z     vdW  Elec       q    Type
                         _______ _______ _______ _____ _____    ______ ____

>  <TORSDO>
F 18

$$$$
=
 OpenBabel11072410483D

 38 39  0  0  1  0  0  0  0  0999 V2000
  161.2060  207.2060  151.8920 C   0  0  0  0  0  0  0  0  0  0  0  0
  160.6630  208.3080  153.9800 C   0  0  0  0  0  0  0  0  0  0  0  0
  160.6200  209.7240  152.0730 C   0  0  2  0  0  3  0  0  0  0  0  0
  161.4050  207.2730  150.4090 C   0  0  0  0  0  1  0  0  0  0  0  0
  160.8360  208.3530  152.6100 C   0  0  0  0  0  0  0  0  0  0  0  0
  161.2080  205.9650  153.9960 C   0  0  0  0  0  3  0  0  0  0  0  0
  161.9590  210.3260  151.6600 C   0  0  0  0  0  1  0  0  0  0  0  0
  161.4050  206.0020  152.6020 C   0  0  0  0  0  0  0  0  0  0  0  0
  159.9990  210.4590  153.2800 C   0  0  1  0  0  3  0  0  0  0  0  0
  160.2870  209.6270  154.5470 C   0  0  2  0  0  3  0  0  0  0  0  0
  160.8380  207.1230  154.6940 C   0  0  0  0  0  3  0  0  0  0  0  0
  161.1170  210.6240  156.6850 O   0  0  0  0  0  1  0  0  0  0  0  0
  162.5840  210.2140  154.9700 O   0  0  0  0  0  0  0  0  0  0  0  0
  161.4010  210.1760  155.4000 C   0  0  0  0  0  0  0  0  0  0  0  0
  161.8440  204.7570  151.9040 C   0  0  0  0  0  2  0  0  0  0  0  0
  160.6770  203.8050  151.6940 C   0  0  0  0  0  2  0  0  0  0  0  0
  161.1770  201.7970  150.5120 O   0  0  0  0  0  0  0  0  0  0  0  0
  160.9080  203.0290  150.4440 C   0  0  0  0  0  0  0  0  0  0  0  0
  160.9430  203.7060  149.1890 N   0  0  0  0  0  2  0  0  0  0  0  0
  161.2500  203.0590  148.0350 O   0  0  0  0  0  0  0  0  0  0  0  0
  161.3120  204.0690  147.0640 C   0  0  2  0  0  3  0  0  0  0  0  0
  161.6470  203.4820  145.7010 C   0  0  0  0  0  2  0  0  0  0  0  0
  160.6990  203.8940  144.7630 O   0  0  0  0  0  1  0  0  0  0  0  0
  161.8650  206.5390  147.0450 C   0  0  0  0  0  1  0  0  0  0  0  0
  162.3130  205.1500  147.4720 C   0  0  0  0  0  2  0  0  0  0  0  0
  160.2260  211.9700  153.3740 C   0  0  0  0  0  2  0  0  0  0  0  0
  159.0670  212.7060  152.7150 C   0  0  2  0  0  3  0  0  0  0  0  0
  159.4740  213.1110  151.3050 C   0  0  0  0  0  1  0  0  0  0  0  0
  157.3010  214.1860  153.4350 O   0  0  0  0  0  1  0  0  0  0  0  0
  158.6750  213.9440  153.5300 C   0  0  1  0  0  3  0  0  0  0  0  0
  159.0800  213.8240  155.0050 C   0  0  0  0  0  2  0  0  0  0  0  0
  158.0260  214.4040  155.9460 C   0  0  0  0  0  2  0  0  0  0  0  0
  157.9500  213.6320  157.2530 C   0  0  0  0  0  2  0  0  0  0  0  0
  156.7340  212.7230  157.2610 C   0  0  0  0  0  2  0  0  0  0  0  0
  156.9780  211.5520  156.3240 C   0  0  0  0  0  2  0  0  0  0  0  0
  155.9520  211.5410  155.2040 C   0  0  0  0  0  2  0  0  0  0  0  0
  154.4450  209.8710  155.9850 O   0  0  0  0  0  1  0  0  0  0  0  0
  155.4250  210.1300  155.0240 C   0  0  0  0  0  2  0  0  0  0  0  0
  1  8  2  0  0  0  0
  1  5  1  0  0  0  0
  2 10  1  0  0  0  0
  2 11  1  0  0  0  0
  3  7  1  1  0  0  0
  3  5  1  0  0  0  0
  3  9  1  0  0  0  0
  4  1  1  0  0  0  0
  5  2  2  0  0  0  0
  6 11  2  0  0  0  0
  8  6  1  0  0  0  0
  9 26  1  1  0  0  0
  9 10  1  0  0  0  0
 10 14  1  6  0  0  0
 13 14  2  0  0  0  0
 14 12  1  0  0  0  0
 15  8  1  0  0  0  0
 16 15  1  0  0  0  0
 18 17  2  0  0  0  0
 18 16  1  0  0  0  0
 19 18  1  0  0  0  0
 20 19  1  0  0  0  0
 21 22  1  6  0  0  0
 21 25  1  0  0  0  0
 21 20  1  0  0  0  0
 23 22  1  0  0  0  0
 24 25  1  0  0  0  0
 27 28  1  6  0  0  0
 27 26  1  0  0  0  0
 27 30  1  0  0  0  0
 30 29  1  1  0  0  0
 30 31  1  0  0  0  0
 31 32  1  0  0  0  0
 32 33  1  0  0  0  0
 33 34  1  0  0  0  0
 35 34  1  0  0  0  0
 36 35  1  0  0  0  0
 38 36  1  0  0  0  0
 38 37  1  0  0  0  0
M  END
>  <MODEL>
3

>  <REMARK>
 VINA RESULT:      -6.5      2.339      4.584
  Name = 
  18 active torsions:
  status: ('A' for Active; 'I' for Inactive)
    1  A    between atoms: C_1  and  C_6
    2  A    between atoms: C_1  and  C_24
    3  A    between atoms: C_3  and  C_36
    4  A    between atoms: C_4  and  C_17
    5  A    between atoms: C_4  and  C_21
    6  A    between atoms: C_6  and  C_28
    7  A    between atoms: C_7  and  C_28
    8  A    between atoms: C_7  and  C_31
    9  A    between atoms: C_11  and  C_27
   10  A    between atoms: C_11  and  C_30
   11  A    between atoms: O_12  and  N_25
   12  A    between atoms: O_12  and  C_36
   13  A    between atoms: C_17  and  C_24
   14  A    between atoms: C_21  and  C_34
   15  A    between atoms: C_22  and  C_27
   16  A    between atoms: C_29  and  C_34
   17  A    between atoms: C_32  and  C_37
   18  A    between atoms: C_33  and  C_36
                            x       y       z     vdW  Elec       q    Type
                         _______ _______ _______ _____ _____    ______ ____

>  <TORSDO>
F 18

$$$$
=
 OpenBabel11072410483D

 38 39  0  0  1  0  0  0  0  0999 V2000
  160.8360  208.3250  154.3300 C   0  0  0  0  0  0  0  0  0  0  0  0
  160.7830  208.3470  151.9080 C   0  0  0  0  0  0  0  0  0  0  0  0
  161.0670  206.1950  152.8730 C   0  0  2  0  0  3  0  0  0  0  0  0
  160.9570  207.5620  155.6130 C   0  0  0  0  0  1  0  0  0  0  0  0
  160.8800  207.6530  153.0990 C   0  0  0  0  0  0  0  0  0  0  0  0
  160.5780  210.4230  153.1050 C   0  0  0  0  0  3  0  0  0  0  0  0
  162.4990  205.8040  153.2200 C   0  0  0  0  0  1  0  0  0  0  0  0
  160.6940  209.7300  154.3250 C   0  0  0  0  0  0  0  0  0  0  0  0
  160.7750  206.0530  151.3640 C   0  0  1  0  0  3  0  0  0  0  0  0
  160.8660  207.4550  150.7240 C   0  0  2  0  0  3  0  0  0  0  0  0
  160.6250  209.7330  151.8860 C   0  0  0  0  0  3  0  0  0  0  0  0
  162.0820  208.0050  148.6090 O   0  0  0  0  0  0  0  0  0  0  0  0
  163.2600  207.6490  150.5440 O   0  0  0  0  0  1  0  0  0  0  0  0
  162.1430  207.6990  149.9640 C   0  0  0  0  0  0  0  0  0  0  0  0
  160.6860  210.5090  155.5990 C   0  0  0  0  0  2  0  0  0  0  0  0
  159.2700  210.6880  156.1240 C   0  0  0  0  0  2  0  0  0  0  0  0
  158.4820  212.6630  157.2010 O   0  0  0  0  0  0  0  0  0  0  0  0
  158.9460  212.1420  156.1480 C   0  0  0  0  0  0  0  0  0  0  0  0
  159.0490  212.9090  154.9490 N   0  0  0  0  0  2  0  0  0  0  0  0
  158.6680  214.2110  154.8980 O   0  0  0  0  0  0  0  0  0  0  0  0
  157.8910  214.3110  153.7340 C   0  0  2  0  0  3  0  0  0  0  0  0
  156.4170  214.4490  154.0860 C   0  0  0  0  0  2  0  0  0  0  0  0
  155.6380  213.8390  153.1010 O   0  0  0  0  0  1  0  0  0  0  0  0
  158.7570  213.5330  151.4870 C   0  0  0  0  0  1  0  0  0  0  0  0
  158.1410  213.1170  152.8140 C   0  0  0  0  0  2  0  0  0  0  0  0
  161.4630  204.9050  150.6210 C   0  0  0  0  0  2  0  0  0  0  0  0
  160.5990  203.6520  150.7000 C   0  0  2  0  0  3  0  0  0  0  0  0
  160.8740  202.9430  152.0200 C   0  0  0  0  0  1  0  0  0  0  0  0
  159.8360  201.8190  149.3260 O   0  0  0  0  0  1  0  0  0  0  0  0
  160.8930  202.7140  149.5240 C   0  0  1  0  0  3  0  0  0  0  0  0
  161.1750  203.4790  148.2240 C   0  0  0  0  0  2  0  0  0  0  0  0
  161.1780  202.5640  147.0000 C   0  0  0  0  0  2  0  0  0  0  0  0
  161.5440  203.3180  145.7330 C   0  0  0  0  0  2  0  0  0  0  0  0
  162.7710  204.1810  145.9660 C   0  0  0  0  0  2  0  0  0  0  0  0
  162.4790  205.6010  145.5120 C   0  0  0  0  0  2  0  0  0  0  0  0
  161.3250  205.6200  144.5260 C   0  0  0  0  0  2  0  0  0  0  0  0
  160.4000  206.5210  146.5250 O   0  0  0  0  0  1  0  0  0  0  0  0
  160.0760  206.1150  145.2290 C   0  0  0  0  0  2  0  0  0  0  0  0
  1  4  1  0  0  0  0
  2  5  1  0  0  0  0
  3  5  1  0  0  0  0
  3  7  1  6  0  0  0
  5  1  2  0  0  0  0
  6  8  2  0  0  0  0
  8  1  1  0  0  0  0
  8 15  1  0  0  0  0
  9 26  1  6  0  0  0
  9  3  1  0  0  0  0
 10 14  1  1  0  0  0
 10  9  1  0  0  0  0
 10  2  1  0  0  0  0
 11  2  2  0  0  0  0
 11  6  1  0  0  0  0
 12 14  2  0  0  0  0
 14 13  1  0  0  0  0
 15 16  1  0  0  0  0
 16 18  1  0  0  0  0
 18 17  2  0  0  0  0
 19 18  1  0  0  0  0
 20 19  1  0  0  0  0
 21 25  1  6  0  0  0
 21 22  1  0  0  0  0
 21 20  1  0  0  0  0
 23 22  1  0  0  0  0
 24 25  1  0  0  0  0
 26 27  1  0  0  0  0
 27 28  1  1  0  0  0
 30 29  1  6  0  0  0
 30 27  1  0  0  0  0
 31 30  1  0  0  0  0
 32 31  1  0  0  0  0
 33 34  1  0  0  0  0
 33 32  1  0  0  0  0
 35 34  1  0  0  0  0
 36 38  1  0  0  0  0
 36 35  1  0  0  0  0
 38 37  1  0  0  0  0
M  END
>  <MODEL>
4

>  <REMARK>
 VINA RESULT:      -6.4      3.138      8.722
  Name = 
  18 active torsions:
  status: ('A' for Active; 'I' for Inactive)
    1  A    between atoms: C_1  and  C_6
    2  A    between atoms: C_1  and  C_24
    3  A    between atoms: C_3  and  C_36
    4  A    between atoms: C_4  and  C_17
    5  A    between atoms: C_4  and  C_21
    6  A    between atoms: C_6  and  C_28
    7  A    between atoms: C_7  and  C_28
    8  A    between atoms: C_7  and  C_31
    9  A    between atoms: C_11  and  C_27
   10  A    between atoms: C_11  and  C_30
   11  A    between atoms: O_12  and  N_25
   12  A    between atoms: O_12  and  C_36
   13  A    between atoms: C_17  and  C_24
   14  A    between atoms: C_21  and  C_34
   15  A    between atoms: C_22  and  C_27
   16  A    between atoms: C_29  and  C_34
   17  A    between atoms: C_32  and  C_37
   18  A    between atoms: C_33  and  C_36
                            x       y       z     vdW  Elec       q    Type
                         _______ _______ _______ _____ _____    ______ ____

>  <TORSDO>
F 18

$$$$
=
 OpenBabel11072410483D

 38 39  0  0  1  0  0  0  0  0999 V2000
  161.5080  208.5400  151.9820 C   0  0  0  0  0  0  0  0  0  0  0  0
  160.6150  207.7340  154.0840 C   0  0  0  0  0  0  0  0  0  0  0  0
  160.5860  210.0960  153.8370 C   0  0  2  0  0  3  0  0  0  0  0  0
  161.8480  209.6830  151.0750 C   0  0  0  0  0  1  0  0  0  0  0  0
  160.9210  208.7780  153.2330 C   0  0  0  0  0  0  0  0  0  0  0  0
  161.4530  206.1490  152.4800 C   0  0  0  0  0  3  0  0  0  0  0  0
  161.8710  210.8210  154.2210 C   0  0  0  0  0  1  0  0  0  0  0  0
  161.7860  207.2060  151.6110 C   0  0  0  0  0  0  0  0  0  0  0  0
  159.7550  209.6930  155.0730 C   0  0  1  0  0  3  0  0  0  0  0  0
  160.0150  208.1990  155.3590 C   0  0  2  0  0  3  0  0  0  0  0  0
  160.8660  206.4090  153.7260 C   0  0  0  0  0  3  0  0  0  0  0  0
  161.9810  208.8550  156.7580 O   0  0  0  0  0  0  0  0  0  0  0  0
  160.8090  206.9480  157.2580 O   0  0  0  0  0  1  0  0  0  0  0  0
  160.9540  207.9510  156.5100 C   0  0  0  0  0  0  0  0  0  0  0  0
  162.4520  206.8880  150.3130 C   0  0  0  0  0  2  0  0  0  0  0  0
  161.4680  206.2790  149.3260 C   0  0  0  0  0  2  0  0  0  0  0  0
  161.8180  207.7370  147.4730 O   0  0  0  0  0  0  0  0  0  0  0  0
  161.9330  206.5700  147.9420 C   0  0  0  0  0  0  0  0  0  0  0  0
  162.3960  205.5040  147.1130 N   0  0  0  0  0  2  0  0  0  0  0  0
  162.7340  205.7030  145.8130 O   0  0  0  0  0  0  0  0  0  0  0  0
  162.1200  204.6510  145.1180 C   0  0  2  0  0  3  0  0  0  0  0  0
  161.0210  205.1790  144.2080 C   0  0  0  0  0  2  0  0  0  0  0  0
  160.0520  205.8340  144.9700 O   0  0  0  0  0  1  0  0  0  0  0  0
  160.7460  202.5430  145.3920 C   0  0  0  0  0  1  0  0  0  0  0  0
  161.5870  203.6000  146.0920 C   0  0  0  0  0  2  0  0  0  0  0  0
  159.7740  210.6440  156.2730 C   0  0  0  0  0  2  0  0  0  0  0  0
  158.4570  211.4060  156.3450 C   0  0  2  0  0  3  0  0  0  0  0  0
  157.4000  210.6470  155.5530 C   0  0  0  0  0  1  0  0  0  0  0  0
  159.9690  213.1820  155.7240 O   0  0  0  0  0  1  0  0  0  0  0  0
  158.6180  212.8250  155.7880 C   0  0  1  0  0  3  0  0  0  0  0  0
  157.9740  212.9850  154.4050 C   0  0  0  0  0  2  0  0  0  0  0  0
  158.9570  213.5150  153.3630 C   0  0  0  0  0  2  0  0  0  0  0  0
  158.8290  212.7780  152.0400 C   0  0  0  0  0  2  0  0  0  0  0  0
  160.0850  212.9600  151.2080 C   0  0  0  0  0  2  0  0  0  0  0  0
  159.7160  213.5850  149.8730 C   0  0  0  0  0  2  0  0  0  0  0  0
  160.9620  214.0390  149.1320 C   0  0  0  0  0  2  0  0  0  0  0  0
  160.9800  212.0490  147.8270 O   0  0  0  0  0  1  0  0  0  0  0  0
  160.9590  213.4420  147.7390 C   0  0  0  0  0  2  0  0  0  0  0  0
  1  5  1  0  0  0  0
  2 10  1  0  0  0  0
  3  7  1  1  0  0  0
  3  9  1  0  0  0  0
  4  1  1  0  0  0  0
  5  3  1  0  0  0  0
  5  2  2  0  0  0  0
  6 11  2  0  0  0  0
  8  1  2  0  0  0  0
  8  6  1  0  0  0  0
  9 10  1  0  0  0  0
  9 26  1  1  0  0  0
 10 14  1  1  0  0  0
 11  2  1  0  0  0  0
 14 12  2  0  0  0  0
 14 13  1  0  0  0  0
 15  8  1  0  0  0  0
 16 15  1  0  0  0  0
 17 18  2  0  0  0  0
 18 16  1  0  0  0  0
 19 18  1  0  0  0  0
 20 19  1  0  0  0  0
 21 22  1  1  0  0  0
 21 20  1  0  0  0  0
 21 25  1  0  0  0  0
 22 23  1  0  0  0  0
 24 25  1  0  0  0  0
 26 27  1  0  0  0  0
 27 28  1  6  0  0  0
 30 29  1  6  0  0  0
 30 27  1  0  0  0  0
 31 30  1  0  0  0  0
 32 31  1  0  0  0  0
 33 32  1  0  0  0  0
 34 33  1  0  0  0  0
 35 34  1  0  0  0  0
 36 35  1  0  0  0  0
 38 37  1  0  0  0  0
 38 36  1  0  0  0  0
M  END
>  <MODEL>
5

>  <REMARK>
 VINA RESULT:      -6.1      2.047      2.991
  Name = 
  18 active torsions:
  status: ('A' for Active; 'I' for Inactive)
    1  A    between atoms: C_1  and  C_6
    2  A    between atoms: C_1  and  C_24
    3  A    between atoms: C_3  and  C_36
    4  A    between atoms: C_4  and  C_17
    5  A    between atoms: C_4  and  C_21
    6  A    between atoms: C_6  and  C_28
    7  A    between atoms: C_7  and  C_28
    8  A    between atoms: C_7  and  C_31
    9  A    between atoms: C_11  and  C_27
   10  A    between atoms: C_11  and  C_30
   11  A    between atoms: O_12  and  N_25
   12  A    between atoms: O_12  and  C_36
   13  A    between atoms: C_17  and  C_24
   14  A    between atoms: C_21  and  C_34
   15  A    between atoms: C_22  and  C_27
   16  A    between atoms: C_29  and  C_34
   17  A    between atoms: C_32  and  C_37
   18  A    between atoms: C_33  and  C_36
                            x       y       z     vdW  Elec       q    Type
                         _______ _______ _______ _____ _____    ______ ____

>  <TORSDO>
F 18

$$$$
=
 OpenBabel11072410483D

 38 39  0  0  1  0  0  0  0  0999 V2000
  160.9970  207.2950  151.7410 C   0  0  0  0  0  0  0  0  0  0  0  0
  160.7590  208.1990  153.9750 C   0  0  0  0  0  0  0  0  0  0  0  0
  160.3880  209.7660  152.2290 C   0  0  2  0  0  3  0  0  0  0  0  0
  160.9600  207.4920  150.2560 C   0  0  0  0  0  1  0  0  0  0  0  0
  160.7160  208.3640  152.6040 C   0  0  0  0  0  0  0  0  0  0  0  0
  161.3540  205.8840  153.7020 C   0  0  0  0  0  3  0  0  0  0  0  0
  161.6320  210.4480  151.6700 C   0  0  0  0  0  1  0  0  0  0  0  0
  161.3300  206.0440  152.3040 C   0  0  0  0  0  0  0  0  0  0  0  0
  159.9450  210.3750  153.5760 C   0  0  1  0  0  3  0  0  0  0  0  0
  160.4450  209.4510  154.7070 C   0  0  2  0  0  3  0  0  0  0  0  0
  161.0700  206.9660  154.5480 C   0  0  0  0  0  3  0  0  0  0  0  0
  161.7320  209.8750  156.8100 O   0  0  0  0  0  1  0  0  0  0  0  0
  162.6300  210.4630  154.7830 O   0  0  0  0  0  0  0  0  0  0  0  0
  161.6650  209.9680  155.4240 C   0  0  0  0  0  0  0  0  0  0  0  0
  161.6840  204.8780  151.4410 C   0  0  0  0  0  2  0  0  0  0  0  0
  160.6710  203.7550  151.5930 C   0  0  0  0  0  2  0  0  0  0  0  0
  161.5080  201.5970  151.0230 O   0  0  0  0  0  0  0  0  0  0  0  0
  160.9960  202.6780  150.6170 C   0  0  0  0  0  0  0  0  0  0  0  0
  160.8390  202.9190  149.2200 N   0  0  0  0  0  2  0  0  0  0  0  0
  161.2180  202.0060  148.2880 O   0  0  0  0  0  0  0  0  0  0  0  0
  160.8620  202.5800  147.0590 C   0  0  2  0  0  3  0  0  0  0  0  0
  160.9740  201.5560  145.9380 C   0  0  0  0  0  2  0  0  0  0  0  0
  159.8830  201.6790  145.0760 O   0  0  0  0  0  1  0  0  0  0  0  0
  161.3850  204.4420  145.4260 C   0  0  0  0  0  1  0  0  0  0  0  0
  161.7100  203.8190  146.7760 C   0  0  0  0  0  2  0  0  0  0  0  0
  160.1490  211.8800  153.7670 C   0  0  0  0  0  2  0  0  0  0  0  0
  158.9060  212.4910  154.4000 C   0  0  2  0  0  3  0  0  0  0  0  0
  158.1110  211.3910  155.0920 C   0  0  0  0  0  1  0  0  0  0  0  0
  157.6450  214.4530  153.7770 O   0  0  0  0  0  1  0  0  0  0  0  0
  158.0410  213.1840  153.3410 C   0  0  1  0  0  3  0  0  0  0  0  0
  158.7550  213.2980  151.9890 C   0  0  0  0  0  2  0  0  0  0  0  0
  157.9300  214.0700  150.9590 C   0  0  0  0  0  2  0  0  0  0  0  0
  158.0890  213.4930  149.5620 C   0  0  0  0  0  2  0  0  0  0  0  0
  156.7550  213.4860  148.8370 C   0  0  0  0  0  2  0  0  0  0  0  0
  156.9930  213.6760  147.3490 C   0  0  0  0  0  2  0  0  0  0  0  0
  157.5320  212.4000  146.7260 C   0  0  0  0  0  2  0  0  0  0  0  0
  157.9040  213.9920  144.9960 O   0  0  0  0  0  1  0  0  0  0  0  0
  158.3180  212.7480  145.4770 C   0  0  0  0  0  2  0  0  0  0  0  0
  1  8  2  0  0  0  0
  1  5  1  0  0  0  0
  2 11  1  0  0  0  0
  2 10  1  0  0  0  0
  3  7  1  1  0  0  0
  3  5  1  0  0  0  0
  3  9  1  0  0  0  0
  4  1  1  0  0  0  0
  5  2  2  0  0  0  0
  6 11  2  0  0  0  0
  8  6  1  0  0  0  0
  9 26  1  1  0  0  0
  9 10  1  0  0  0  0
 10 14  1  6  0  0  0
 13 14  2  0  0  0  0
 14 12  1  0  0  0  0
 15 16  1  0  0  0  0
 15  8  1  0  0  0  0
 18 17  2  0  0  0  0
 18 16  1  0  0  0  0
 19 18  1  0  0  0  0
 20 19  1  0  0  0  0
 21 22  1  6  0  0  0
 21 20  1  0  0  0  0
 23 22  1  0  0  0  0
 24 25  1  0  0  0  0
 25 21  1  0  0  0  0
 26 27  1  0  0  0  0
 27 28  1  6  0  0  0
 30 29  1  1  0  0  0
 30 27  1  0  0  0  0
 31 30  1  0  0  0  0
 32 31  1  0  0  0  0
 33 32  1  0  0  0  0
 34 33  1  0  0  0  0
 35 34  1  0  0  0  0
 36 35  1  0  0  0  0
 37 38  1  0  0  0  0
 38 36  1  0  0  0  0
M  END
>  <MODEL>
6

>  <REMARK>
 VINA RESULT:      -6.0      1.671      2.090
  Name = 
  18 active torsions:
  status: ('A' for Active; 'I' for Inactive)
    1  A    between atoms: C_1  and  C_6
    2  A    between atoms: C_1  and  C_24
    3  A    between atoms: C_3  and  C_36
    4  A    between atoms: C_4  and  C_17
    5  A    between atoms: C_4  and  C_21
    6  A    between atoms: C_6  and  C_28
    7  A    between atoms: C_7  and  C_28
    8  A    between atoms: C_7  and  C_31
    9  A    between atoms: C_11  and  C_27
   10  A    between atoms: C_11  and  C_30
   11  A    between atoms: O_12  and  N_25
   12  A    between atoms: O_12  and  C_36
   13  A    between atoms: C_17  and  C_24
   14  A    between atoms: C_21  and  C_34
   15  A    between atoms: C_22  and  C_27
   16  A    between atoms: C_29  and  C_34
   17  A    between atoms: C_32  and  C_37
   18  A    between atoms: C_33  and  C_36
                            x       y       z     vdW  Elec       q    Type
                         _______ _______ _______ _____ _____    ______ ____

>  <TORSDO>
F 18

$$$$
=
 OpenBabel11072410483D

 38 39  0  0  1  0  0  0  0  0999 V2000
  160.9250  206.9760  153.2930 C   0  0  0  0  0  0  0  0  0  0  0  0
  161.0220  207.9880  151.0950 C   0  0  0  0  0  0  0  0  0  0  0  0
  161.0110  205.6130  151.0910 C   0  0  2  0  0  3  0  0  0  0  0  0
  160.8850  205.7480  154.1500 C   0  0  0  0  0  1  0  0  0  0  0  0
  160.9710  206.8640  151.8960 C   0  0  0  0  0  0  0  0  0  0  0  0
  160.9730  209.4050  153.0380 C   0  0  0  0  0  3  0  0  0  0  0  0
  162.3680  204.9400  151.2630 C   0  0  0  0  0  1  0  0  0  0  0  0
  160.9380  208.2670  153.8660 C   0  0  0  0  0  0  0  0  0  0  0  0
  160.7970  206.1350  149.6550 C   0  0  1  0  0  3  0  0  0  0  0  0
  161.0790  207.6520  149.6500 C   0  0  2  0  0  3  0  0  0  0  0  0
  161.0180  209.2700  151.6430 C   0  0  0  0  0  3  0  0  0  0  0  0
  162.5240  209.1540  148.2670 O   0  0  0  0  0  0  0  0  0  0  0  0
  163.4440  207.3370  149.3210 O   0  0  0  0  0  1  0  0  0  0  0  0
  162.4190  208.0240  149.0700 C   0  0  0  0  0  0  0  0  0  0  0  0
  160.9380  208.4550  155.3470 C   0  0  0  0  0  2  0  0  0  0  0  0
  161.7660  209.6660  155.7470 C   0  0  0  0  0  2  0  0  0  0  0  0
  161.3530  211.6330  157.0280 O   0  0  0  0  0  0  0  0  0  0  0  0
  160.8640  210.6880  156.3480 C   0  0  0  0  0  0  0  0  0  0  0  0
  159.4500  210.5260  156.2530 N   0  0  0  0  0  2  0  0  0  0  0  0
  158.5890  211.3750  156.8710 O   0  0  0  0  0  0  0  0  0  0  0  0
  157.8570  211.9640  155.8300 C   0  0  2  0  0  3  0  0  0  0  0  0
  156.3620  211.8200  156.0770 C   0  0  0  0  0  2  0  0  0  0  0  0
  155.8780  210.6980  155.4010 O   0  0  0  0  0  1  0  0  0  0  0  0
  158.5510  212.4450  153.4440 C   0  0  0  0  0  1  0  0  0  0  0  0
  158.2640  211.3700  154.4810 C   0  0  0  0  0  2  0  0  0  0  0  0
  161.3990  205.3130  148.5120 C   0  0  0  0  0  2  0  0  0  0  0  0
  161.2770  206.0850  147.2050 C   0  0  2  0  0  3  0  0  0  0  0  0
  159.8060  206.1860  146.8240 C   0  0  0  0  0  1  0  0  0  0  0  0
  163.1970  204.7490  146.6050 O   0  0  0  0  0  1  0  0  0  0  0  0
  162.0660  205.3910  146.0890 C   0  0  1  0  0  3  0  0  0  0  0  0
  161.2110  204.3860  145.3070 C   0  0  0  0  0  2  0  0  0  0  0  0
  161.6130  202.9380  145.5870 C   0  0  0  0  0  2  0  0  0  0  0  0
  160.4790  202.1500  146.2200 C   0  0  0  0  0  2  0  0  0  0  0  0
  160.9960  200.8410  146.7890 C   0  0  0  0  0  2  0  0  0  0  0  0
  161.2000  200.9920  148.2870 C   0  0  0  0  0  2  0  0  0  0  0  0
  160.1580  201.9260  148.8770 C   0  0  0  0  0  2  0  0  0  0  0  0
  161.5890  201.4410  150.7160 O   0  0  0  0  0  1  0  0  0  0  0  0
  160.3670  202.0240  150.3750 C   0  0  0  0  0  2  0  0  0  0  0  0
  1  8  1  0  0  0  0
  1  4  1  0  0  0  0
  2 11  2  0  0  0  0
  2  5  1  0  0  0  0
  3  7  1  6  0  0  0
  3  5  1  0  0  0  0
  5  1  2  0  0  0  0
  6  8  2  0  0  0  0
  8 15  1  0  0  0  0
  9 26  1  6  0  0  0
  9  3  1  0  0  0  0
 10 14  1  1  0  0  0
 10  9  1  0  0  0  0
 10  2  1  0  0  0  0
 11  6  1  0  0  0  0
 12 14  2  0  0  0  0
 14 13  1  0  0  0  0
 15 16  1  0  0  0  0
 16 18  1  0  0  0  0
 18 17  2  0  0  0  0
 19 18  1  0  0  0  0
 19 20  1  0  0  0  0
 21 25  1  6  0  0  0
 21 22  1  0  0  0  0
 21 20  1  0  0  0  0
 23 22  1  0  0  0  0
 24 25  1  0  0  0  0
 27 28  1  6  0  0  0
 27 26  1  0  0  0  0
 30 29  1  1  0  0  0
 30 27  1  0  0  0  0
 31 32  1  0  0  0  0
 31 30  1  0  0  0  0
 32 33  1  0  0  0  0
 33 34  1  0  0  0  0
 34 35  1  0  0  0  0
 35 36  1  0  0  0  0
 36 38  1  0  0  0  0
 38 37  1  0  0  0  0
M  END
>  <MODEL>
7

>  <REMARK>
 VINA RESULT:      -5.5      3.131      9.196
  Name = 
  18 active torsions:
  status: ('A' for Active; 'I' for Inactive)
    1  A    between atoms: C_1  and  C_6
    2  A    between atoms: C_1  and  C_24
    3  A    between atoms: C_3  and  C_36
    4  A    between atoms: C_4  and  C_17
    5  A    between atoms: C_4  and  C_21
    6  A    between atoms: C_6  and  C_28
    7  A    between atoms: C_7  and  C_28
    8  A    between atoms: C_7  and  C_31
    9  A    between atoms: C_11  and  C_27
   10  A    between atoms: C_11  and  C_30
   11  A    between atoms: O_12  and  N_25
   12  A    between atoms: O_12  and  C_36
   13  A    between atoms: C_17  and  C_24
   14  A    between atoms: C_21  and  C_34
   15  A    between atoms: C_22  and  C_27
   16  A    between atoms: C_29  and  C_34
   17  A    between atoms: C_32  and  C_37
   18  A    between atoms: C_33  and  C_36
                            x       y       z     vdW  Elec       q    Type
                         _______ _______ _______ _____ _____    ______ ____

>  <TORSDO>
F 18

$$$$
=
 OpenBabel11072410483D

 38 39  0  0  1  0  0  0  0  0999 V2000
  161.7550  208.4410  151.9740 C   0  0  0  0  0  0  0  0  0  0  0  0
  160.7050  207.7620  154.0490 C   0  0  0  0  0  0  0  0  0  0  0  0
  160.7720  210.1100  153.6960 C   0  0  2  0  0  3  0  0  0  0  0  0
  162.1890  209.5300  151.0410 C   0  0  0  0  0  1  0  0  0  0  0  0
  161.0990  208.7560  153.1740 C   0  0  0  0  0  0  0  0  0  0  0  0
  161.5880  206.0790  152.5740 C   0  0  0  0  0  3  0  0  0  0  0  0
  162.0550  210.8120  154.1280 C   0  0  0  0  0  1  0  0  0  0  0  0
  162.0090  207.0830  151.6820 C   0  0  0  0  0  0  0  0  0  0  0  0
  159.8520  209.7910  154.8930 C   0  0  1  0  0  3  0  0  0  0  0  0
  160.0430  208.3050  155.2620 C   0  0  2  0  0  3  0  0  0  0  0  0
  160.9330  206.4150  153.7680 C   0  0  0  0  0  3  0  0  0  0  0  0
  161.8620  209.0270  156.8180 O   0  0  0  0  0  0  0  0  0  0  0  0
  160.7430  207.0630  157.2030 O   0  0  0  0  0  1  0  0  0  0  0  0
  160.9000  208.0820  156.4800 C   0  0  0  0  0  0  0  0  0  0  0  0
  162.7440  206.6840  150.4450 C   0  0  0  0  0  2  0  0  0  0  0  0
  162.0350  207.1900  149.1990 C   0  0  0  0  0  2  0  0  0  0  0  0
  159.9780  206.2610  148.4310 O   0  0  0  0  0  0  0  0  0  0  0  0
  161.2130  206.0850  148.6310 C   0  0  0  0  0  0  0  0  0  0  0  0
  161.8000  204.8010  148.4280 N   0  0  0  0  0  2  0  0  0  0  0  0
  161.0670  203.7370  148.0090 O   0  0  0  0  0  0  0  0  0  0  0  0
  161.2810  202.7490  148.9810 C   0  0  2  0  0  3  0  0  0  0  0  0
  160.6480  201.4320  148.5550 C   0  0  0  0  0  2  0  0  0  0  0  0
  161.6030  200.4160  148.5930 O   0  0  0  0  0  1  0  0  0  0  0  0
  161.6180  202.6980  151.4890 C   0  0  0  0  0  1  0  0  0  0  0  0
  160.7590  203.2090  150.3420 C   0  0  0  0  0  2  0  0  0  0  0  0
  159.8290  210.7960  156.0480 C   0  0  0  0  0  2  0  0  0  0  0  0
  158.6220  211.7150  155.9050 C   0  0  2  0  0  3  0  0  0  0  0  0
  157.4270  211.0760  156.6010 C   0  0  0  0  0  1  0  0  0  0  0  0
  156.9390  211.7730  154.1750 O   0  0  0  0  0  1  0  0  0  0  0  0
  158.3020  211.9660  154.4270 C   0  0  1  0  0  3  0  0  0  0  0  0
  158.7200  213.3690  153.9700 C   0  0  0  0  0  2  0  0  0  0  0  0
  159.5120  213.3430  152.6630 C   0  0  0  0  0  2  0  0  0  0  0  0
  158.5980  213.3490  151.4490 C   0  0  0  0  0  2  0  0  0  0  0  0
  159.2200  214.1520  150.3220 C   0  0  0  0  0  2  0  0  0  0  0  0
  159.8860  213.2040  149.3390 C   0  0  0  0  0  2  0  0  0  0  0  0
  161.3220  213.6250  149.0790 C   0  0  0  0  0  2  0  0  0  0  0  0
  162.7450  213.3520  147.1900 O   0  0  0  0  0  1  0  0  0  0  0  0
  161.5100  213.8630  147.5930 C   0  0  0  0  0  2  0  0  0  0  0  0
  1  5  1  0  0  0  0
  2 10  1  0  0  0  0
  3  7  1  1  0  0  0
  3  9  1  0  0  0  0
  4  1  1  0  0  0  0
  5  3  1  0  0  0  0
  5  2  2  0  0  0  0
  6 11  2  0  0  0  0
  8  1  2  0  0  0  0
  8  6  1  0  0  0  0
  9 10  1  0  0  0  0
  9 26  1  1  0  0  0
 10 14  1  1  0  0  0
 11  2  1  0  0  0  0
 14 12  2  0  0  0  0
 14 13  1  0  0  0  0
 15  8  1  0  0  0  0
 16 15  1  0  0  0  0
 17 18  2  0  0  0  0
 18 16  1  0  0  0  0
 19 18  1  0  0  0  0
 20 19  1  0  0  0  0
 20 21  1  0  0  0  0
 21 22  1  6  0  0  0
 21 25  1  0  0  0  0
 22 23  1  0  0  0  0
 25 24  1  0  0  0  0
 27 26  1  0  0  0  0
 27 28  1  6  0  0  0
 30 29  1  1  0  0  0
 30 27  1  0  0  0  0
 31 30  1  0  0  0  0
 32 31  1  0  0  0  0
 33 32  1  0  0  0  0
 34 33  1  0  0  0  0
 35 34  1  0  0  0  0
 36 35  1  0  0  0  0
 37 38  1  0  0  0  0
 38 36  1  0  0  0  0
M  END
>  <MODEL>
8

>  <REMARK>
 VINA RESULT:      -5.2      1.830      3.145
  Name = 
  18 active torsions:
  status: ('A' for Active; 'I' for Inactive)
    1  A    between atoms: C_1  and  C_6
    2  A    between atoms: C_1  and  C_24
    3  A    between atoms: C_3  and  C_36
    4  A    between atoms: C_4  and  C_17
    5  A    between atoms: C_4  and  C_21
    6  A    between atoms: C_6  and  C_28
    7  A    between atoms: C_7  and  C_28
    8  A    between atoms: C_7  and  C_31
    9  A    between atoms: C_11  and  C_27
   10  A    between atoms: C_11  and  C_30
   11  A    between atoms: O_12  and  N_25
   12  A    between atoms: O_12  and  C_36
   13  A    between atoms: C_17  and  C_24
   14  A    between atoms: C_21  and  C_34
   15  A    between atoms: C_22  and  C_27
   16  A    between atoms: C_29  and  C_34
   17  A    between atoms: C_32  and  C_37
   18  A    between atoms: C_33  and  C_36
                            x       y       z     vdW  Elec       q    Type
                         _______ _______ _______ _____ _____    ______ ____

>  <TORSDO>
F 18

$$$$
=
 OpenBabel11072410483D

 38 39  0  0  1  0  0  0  0  0999 V2000
  161.2980  206.3710  150.9600 C   0  0  0  0  0  0  0  0  0  0  0  0
  160.8130  207.0640  153.2300 C   0  0  0  0  0  0  0  0  0  0  0  0
  160.8580  208.8320  151.6440 C   0  0  2  0  0  3  0  0  0  0  0  0
  161.5040  206.7220  149.5180 C   0  0  0  0  0  1  0  0  0  0  0  0
  160.9920  207.3710  151.8950 C   0  0  0  0  0  0  0  0  0  0  0  0
  161.2210  204.7380  152.7740 C   0  0  0  0  0  3  0  0  0  0  0  0
  162.2310  209.4260  151.3480 C   0  0  0  0  0  1  0  0  0  0  0  0
  161.4240  205.0400  151.4140 C   0  0  0  0  0  0  0  0  0  0  0  0
  160.2770  209.3450  152.9780 C   0  0  1  0  0  3  0  0  0  0  0  0
  160.5120  208.2620  154.0520 C   0  0  2  0  0  3  0  0  0  0  0  0
  160.9160  205.7520  153.6920 C   0  0  0  0  0  3  0  0  0  0  0  0
  162.5680  209.5550  154.6480 O   0  0  0  0  0  0  0  0  0  0  0  0
  161.7750  207.9480  156.0780 O   0  0  0  0  0  1  0  0  0  0  0  0
  161.6530  208.5650  154.9870 C   0  0  0  0  0  0  0  0  0  0  0  0
  161.7920  203.9370  150.4780 C   0  0  0  0  0  2  0  0  0  0  0  0
  160.6460  202.9520  150.3120 C   0  0  0  0  0  2  0  0  0  0  0  0
  160.6140  201.1030  148.8090 O   0  0  0  0  0  0  0  0  0  0  0  0
  160.7190  202.3540  148.9500 C   0  0  0  0  0  0  0  0  0  0  0  0
  161.0250  203.1820  147.8300 N   0  0  0  0  0  2  0  0  0  0  0  0
  161.2020  202.6670  146.5860 O   0  0  0  0  0  0  0  0  0  0  0  0
  161.7550  203.7180  145.8390 C   0  0  2  0  0  3  0  0  0  0  0  0
  162.6140  204.6100  146.7230 C   0  0  0  0  0  2  0  0  0  0  0  0
  163.8890  204.7350  146.1690 O   0  0  0  0  0  1  0  0  0  0  0  0
  161.2020  205.3590  143.9930 C   0  0  0  0  0  1  0  0  0  0  0  0
  160.6570  204.5140  145.1340 C   0  0  0  0  0  2  0  0  0  0  0  0
  160.5910  210.7920  153.3700 C   0  0  0  0  0  2  0  0  0  0  0  0
  159.4240  211.3760  154.1560 C   0  0  2  0  0  3  0  0  0  0  0  0
  159.1740  212.8020  153.6860 C   0  0  0  0  0  1  0  0  0  0  0  0
  160.9630  211.9410  155.9290 O   0  0  0  0  0  1  0  0  0  0  0  0
  159.7190  211.3580  155.6600 C   0  0  1  0  0  3  0  0  0  0  0  0
  158.6290  212.0640  156.4770 C   0  0  0  0  0  2  0  0  0  0  0  0
  159.1390  213.3370  157.1510 C   0  0  0  0  0  2  0  0  0  0  0  0
  158.1050  214.4500  157.1090 C   0  0  0  0  0  2  0  0  0  0  0  0
  156.9220  214.0420  156.2500 C   0  0  0  0  0  2  0  0  0  0  0  0
  155.7080  213.8280  157.1370 C   0  0  0  0  0  2  0  0  0  0  0  0
  154.9630  212.5680  156.7320 C   0  0  0  0  0  2  0  0  0  0  0  0
  155.3840  210.5670  155.5130 O   0  0  0  0  0  1  0  0  0  0  0  0
  155.6650  211.9340  155.5470 C   0  0  0  0  0  2  0  0  0  0  0  0
  1  8  2  0  0  0  0
  1  5  1  0  0  0  0
  2 11  1  0  0  0  0
  2 10  1  0  0  0  0
  3  7  1  1  0  0  0
  3  5  1  0  0  0  0
  3  9  1  0  0  0  0
  4  1  1  0  0  0  0
  5  2  2  0  0  0  0
  6 11  2  0  0  0  0
  8  6  1  0  0  0  0
  9 26  1  1  0  0  0
  9 10  1  0  0  0  0
 10 14  1  1  0  0  0
 12 14  2  0  0  0  0
 14 13  1  0  0  0  0
 15  8  1  0  0  0  0
 16 15  1  0  0  0  0
 17 18  2  0  0  0  0
 18 16  1  0  0  0  0
 19 18  1  0  0  0  0
 20 19  1  0  0  0  0
 21 25  1  1  0  0  0
 21 20  1  0  0  0  0
 21 22  1  0  0  0  0
 23 22  1  0  0  0  0
 24 25  1  0  0  0  0
 26 27  1  0  0  0  0
 27 28  1  6  0  0  0
 27 30  1  0  0  0  0
 30 29  1  6  0  0  0
 30 31  1  0  0  0  0
 31 32  1  0  0  0  0
 33 32  1  0  0  0  0
 34 33  1  0  0  0  0
 34 35  1  0  0  0  0
 36 35  1  0  0  0  0
 37 38  1  0  0  0  0
 38 36  1  0  0  0  0
M  END
>  <MODEL>
9

>  <REMARK>
 VINA RESULT:      -5.0      2.948      4.948
  Name = 
  18 active torsions:
  status: ('A' for Active; 'I' for Inactive)
    1  A    between atoms: C_1  and  C_6
    2  A    between atoms: C_1  and  C_24
    3  A    between atoms: C_3  and  C_36
    4  A    between atoms: C_4  and  C_17
    5  A    between atoms: C_4  and  C_21
    6  A    between atoms: C_6  and  C_28
    7  A    between atoms: C_7  and  C_28
    8  A    between atoms: C_7  and  C_31
    9  A    between atoms: C_11  and  C_27
   10  A    between atoms: C_11  and  C_30
   11  A    between atoms: O_12  and  N_25
   12  A    between atoms: O_12  and  C_36
   13  A    between atoms: C_17  and  C_24
   14  A    between atoms: C_21  and  C_34
   15  A    between atoms: C_22  and  C_27
   16  A    between atoms: C_29  and  C_34
   17  A    between atoms: C_32  and  C_37
   18  A    between atoms: C_33  and  C_36
                            x       y       z     vdW  Elec       q    Type
                         _______ _______ _______ _____ _____    ______ ____

>  <TORSDO>
F 18

$$$$
