=
 OpenBabel11072410363D

 54 56  0  0  1  0  0  0  0  0999 V2000
  160.5170  210.8810  152.3770 C   0  0  2  0  0  3  0  0  0  0  0  0
  160.3390  211.7260  153.6410 C   0  0  0  0  0  2  0  0  0  0  0  0
  157.2040  213.2480  155.1730 O   0  0  0  0  0  0  0  0  0  0  0  0
  158.5030  213.2100  154.5730 C   0  0  1  0  0  3  0  0  0  0  0  0
  158.8860  211.7890  154.1210 C   0  0  2  0  0  3  0  0  0  0  0  0
  155.5190  212.2270  156.3540 O   0  0  0  0  0  0  0  0  0  0  0  0
  157.2830  210.8910  155.7330 O   0  0  0  0  0  0  0  0  0  0  0  0
  156.6360  212.1280  155.7890 C   0  0  0  0  0  0  0  0  0  0  0  0
  158.6200  210.7740  155.2490 C   0  0  2  0  0  3  0  0  0  0  0  0
  159.5600  210.9260  156.3730 C   0  0  0  0  0  0  0  0  0  0  0  0
  160.2960  211.0400  157.2610 N   0  0  0  0  0  0  0  0  0  0  0  0
  158.5630  214.2170  153.4240 C   0  0  0  0  0  2  0  0  0  0  0  0
  157.8000  213.7200  152.2050 C   0  0  0  0  0  2  0  0  0  0  0  0
  156.4510  214.4090  152.1020 C   0  0  0  0  0  3  0  0  0  0  0  0
  156.0330  214.3800  150.7890 F   0  0  0  0  0  0  0  0  0  0  0  0
  155.5270  213.7450  152.8900 F   0  0  0  0  0  0  0  0  0  0  0  0
  161.7320  209.9660  152.4700 C   0  0  0  0  0  2  0  0  0  0  0  0
  161.5460  208.9190  153.5580 C   0  0  0  0  0  2  0  0  0  0  0  0
  161.2460  206.4450  153.8100 C   0  0  0  0  0  3  0  0  0  0  0  0
  161.4000  207.3870  151.5860 C   0  0  0  0  0  3  0  0  0  0  0  0
  161.2420  206.1110  151.0380 C   0  0  0  0  0  3  0  0  0  0  0  0
  161.4090  207.5540  152.9730 C   0  0  0  0  0  0  0  0  0  0  0  0
  161.0870  204.9940  151.8730 C   0  0  0  0  0  0  0  0  0  0  0  0
  161.0830  205.1710  153.2630 C   0  0  0  0  0  3  0  0  0  0  0  0
  160.1990  203.4840  150.0660 N   0  0  0  0  0  2  0  0  0  0  0  0
  161.4250  202.6480  151.8680 O   0  0  0  0  0  0  0  0  0  0  0  0
  160.9100  203.6500  151.2960 C   0  0  0  0  0  0  0  0  0  0  0  0
  160.0490  202.2190  149.4810 N   0  0  0  0  0  2  0  0  0  0  0  0
  160.7620  202.6760  147.1120 C   0  0  0  0  0  1  0  0  0  0  0  0
  160.7970  201.8270  148.3320 C   0  0  0  0  0  0  0  0  0  0  0  0
  161.6930  200.4580  148.3320 S   0  0  0  0  0  0  0  0  0  0  0  0
  160.5770  211.7100  151.1080 C   0  0  0  0  0  2  0  0  0  0  0  0
  161.9440  211.5700  150.4450 C   0  0  0  0  0  2  0  0  0  0  0  0
  161.8410  211.4080  148.9230 C   0  0  1  0  0  0  0  0  0  0  0  0
  160.5030  211.5360  148.5350 O   0  0  0  0  0  1  0  0  0  0  0  0
  162.6980  212.4600  148.2390 C   0  0  0  0  0  0  0  0  0  0  0  0
  162.1450  213.6700  147.6910 N   0  0  0  0  0  0  0  0  0  0  0  0
  163.9310  212.2350  148.0930 O   0  0  0  0  0  0  0  0  0  0  0  0
  159.7390  214.0240  147.9570 C   0  0  0  0  0  1  0  0  0  0  0  0
  161.1310  214.4530  148.3940 C   0  0  0  0  0  2  0  0  0  0  0  0
  162.5660  214.1030  146.3610 C   0  0  0  0  0  2  0  0  0  0  0  0
  162.1210  213.1090  145.2970 C   0  0  1  0  0  3  0  0  0  0  0  0
  161.1530  213.6420  143.2230 N   0  0  0  0  0  2  0  0  0  0  0  0
  160.8540  213.5630  144.6400 C   0  0  0  0  0  2  0  0  0  0  0  0
  163.1030  213.0660  144.2330 N   0  0  0  0  0  2  0  0  0  0  0  0
  162.3660  212.9520  143.0390 N   0  0  0  0  0  2  0  0  0  0  0  0
  162.3420  210.0110  148.4960 C   0  0  1  0  0  3  0  0  0  0  0  0
  162.6650  209.2080  149.5990 O   0  0  0  0  0  1  0  0  0  0  0  0
  161.3910  209.2720  147.5560 C   0  0  0  0  0  2  0  0  0  0  0  0
  161.1010  207.9600  148.0300 O   0  0  0  0  0  0  0  0  0  0  0  0
  162.8980  205.1020  146.3180 C   0  0  0  0  0  1  0  0  0  0  0  0
  162.5780  206.3160  147.1330 C   0  0  0  0  0  3  0  0  0  0  0  0
  161.3400  206.8120  147.2610 C   0  0  0  0  0  0  0  0  0  0  0  0
  160.1780  206.1500  146.5870 C   0  0  0  0  0  1  0  0  0  0  0  0
  1 32  1  6  0  0  0
  1 17  1  0  0  0  0
  1  2  1  0  0  0  0
  3  8  1  0  0  0  0
  4 12  1  6  0  0  0
  4  3  1  0  0  0  0
  5  2  1  1  0  0  0
  5  4  1  0  0  0  0
  5  9  1  0  0  0  0
  7  8  1  0  0  0  0
  8  6  2  0  0  0  0
  9  7  1  0  0  0  0
  9 10  1  1  0  0  0
 10 11  3  0  0  0  0
 13 12  1  0  0  0  0
 14 13  1  0  0  0  0
 14 16  1  0  0  0  0
 15 14  1  0  0  0  0
 17 18  1  0  0  0  0
 20 22  1  0  0  0  0
 21 20  2  0  0  0  0
 21 23  1  0  0  0  0
 22 18  1  0  0  0  0
 22 19  2  0  0  0  0
 23 24  2  0  0  0  0
 24 19  1  0  0  0  0
 25 27  1  0  0  0  0
 27 26  2  0  0  0  0
 27 23  1  0  0  0  0
 28 25  1  0  0  0  0
 29 30  1  0  0  0  0
 30 28  1  0  0  0  0
 31 30  2  0  0  0  0
 33 32  1  0  0  0  0
 34 35  1  6  0  0  0
 34 33  1  0  0  0  0
 36 34  1  0  0  0  0
 37 36  1  0  0  0  0
 37 40  1  0  0  0  0
 38 36  2  0  0  0  0
 39 40  1  0  0  0  0
 41 37  1  0  0  0  0
 42 41  1  1  0  0  0
 43 44  1  0  0  0  0
 44 42  1  0  0  0  0
 45 42  1  0  0  0  0
 46 43  1  0  0  0  0
 46 45  1  0  0  0  0
 47 34  1  0  0  0  0
 47 48  1  1  0  0  0
 49 50  1  0  0  0  0
 49 47  1  0  0  0  0
 51 52  1  0  0  0  0
 52 53  2  0  0  0  0
 53 50  1  0  0  0  0
 54 53  1  0  0  0  0
M  END
>  <MODEL>
1

>  <REMARK>
 VINA RESULT:      -4.6      0.000      0.000
  Name = 
  23 active torsions:
  status: ('A' for Active; 'I' for Inactive)
    1  A    between atoms: C_1  and  C_31
    2  A    between atoms: C_4  and  C_34
    3  A    between atoms: C_4  and  C_41
    4  A    between atoms: C_5  and  C_27
    5  A    between atoms: C_7  and  C_54
    6  A    between atoms: C_8  and  C_48
    7  A    between atoms: N_10  and  N_25
    8  A    between atoms: C_12  and  C_17
    9  A    between atoms: C_15  and  C_16
   10  A    between atoms: C_15  and  C_33
   11  A    between atoms: C_16  and  C_41
   12  A    between atoms: C_17  and  C_27
   13  A    between atoms: C_21  and  C_24
   14  A    between atoms: C_21  and  C_26
   15  A    between atoms: N_25  and  C_35
   16  A    between atoms: C_26  and  C_33
   17  A    between atoms: C_31  and  N_43
   18  A    between atoms: C_32  and  C_49
   19  A    between atoms: C_33  and  C_48
   20  A    between atoms: C_34  and  O_45
   21  A    between atoms: C_37  and  C_41
   22  A    between atoms: C_42  and  O_45
   23  A    between atoms: N_43  and  C_52
                            x       y       z     vdW  Elec       q    Type
                         _______ _______ _______ _____ _____    ______ ____

>  <TORSDO>
F 23

$$$$
=
 OpenBabel11072410363D

 54 56  0  0  1  0  0  0  0  0999 V2000
  160.9720  210.4020  151.9820 C   0  0  2  0  0  3  0  0  0  0  0  0
  159.5950  210.1460  152.6010 C   0  0  0  0  0  2  0  0  0  0  0  0
  159.2250  213.5780  154.2050 O   0  0  0  0  0  0  0  0  0  0  0  0
  159.4150  212.6150  153.1650 C   0  0  1  0  0  3  0  0  0  0  0  0
  159.2200  211.1740  153.6730 C   0  0  2  0  0  3  0  0  0  0  0  0
  159.3020  214.1630  156.4260 O   0  0  0  0  0  0  0  0  0  0  0  0
  159.7080  211.9530  155.9380 O   0  0  0  0  0  0  0  0  0  0  0  0
  159.4240  213.2660  155.5550 C   0  0  0  0  0  0  0  0  0  0  0  0
  160.0160  210.9490  154.9740 C   0  0  2  0  0  3  0  0  0  0  0  0
  161.4710  210.9240  154.7430 C   0  0  0  0  0  0  0  0  0  0  0  0
  162.6160  210.9020  154.5690 N   0  0  0  0  0  0  0  0  0  0  0  0
  158.4910  212.9420  151.9910 C   0  0  0  0  0  2  0  0  0  0  0  0
  159.1510  213.8990  151.0110 C   0  0  0  0  0  2  0  0  0  0  0  0
  158.2600  214.1200  149.8010 C   0  0  0  0  0  3  0  0  0  0  0  0
  159.0480  214.4490  148.7190 F   0  0  0  0  0  0  0  0  0  0  0  0
  157.5590  212.9600  149.5190 F   0  0  0  0  0  0  0  0  0  0  0  0
  160.8720  211.1650  150.6670 C   0  0  0  0  0  2  0  0  0  0  0  0
  162.2250  211.2420  149.9740 C   0  0  0  0  0  2  0  0  0  0  0  0
  163.2510  212.4030  148.0070 C   0  0  0  0  0  3  0  0  0  0  0  0
  160.8680  211.9840  148.0080 C   0  0  0  0  0  3  0  0  0  0  0  0
  160.7670  212.5770  146.7470 C   0  0  0  0  0  3  0  0  0  0  0  0
  162.1100  211.9030  148.6420 C   0  0  0  0  0  0  0  0  0  0  0  0
  161.9070  213.0900  146.1080 C   0  0  0  0  0  0  0  0  0  0  0  0
  163.1510  212.9910  146.7450 C   0  0  0  0  0  3  0  0  0  0  0  0
  162.8890  213.6010  143.8490 N   0  0  0  0  0  2  0  0  0  0  0  0
  160.7350  214.2880  144.4330 O   0  0  0  0  0  0  0  0  0  0  0  0
  161.8030  213.7050  144.7750 C   0  0  0  0  0  0  0  0  0  0  0  0
  162.7980  214.1490  142.5610 N   0  0  0  0  0  2  0  0  0  0  0  0
  162.1850  211.9220  141.5660 C   0  0  0  0  0  1  0  0  0  0  0  0
  162.6280  213.3320  141.4060 C   0  0  0  0  0  0  0  0  0  0  0  0
  162.9140  213.9180  139.9060 S   0  0  0  0  0  0  0  0  0  0  0  0
  161.7870  209.1360  151.7950 C   0  0  0  0  0  2  0  0  0  0  0  0
  161.0020  208.1120  150.9800 C   0  0  0  0  0  2  0  0  0  0  0  0
  161.8700  206.9240  150.5440 C   0  0  1  0  0  0  0  0  0  0  0  0
  162.9680  207.3970  149.8180 O   0  0  0  0  0  1  0  0  0  0  0  0
  162.3310  206.1540  151.7700 C   0  0  0  0  0  0  0  0  0  0  0  0
  161.4110  205.6110  152.7330 N   0  0  0  0  0  0  0  0  0  0  0  0
  163.5710  206.0410  151.9820 O   0  0  0  0  0  0  0  0  0  0  0  0
  160.4810  203.4790  151.9780 C   0  0  0  0  0  1  0  0  0  0  0  0
  160.1820  204.9260  152.3380 C   0  0  0  0  0  2  0  0  0  0  0  0
  161.6830  205.7980  154.1560 C   0  0  0  0  0  2  0  0  0  0  0  0
  160.9150  206.9930  154.7050 C   0  0  1  0  0  3  0  0  0  0  0  0
  159.9430  207.1530  156.8380 N   0  0  0  0  0  2  0  0  0  0  0  0
  159.7530  206.5450  155.5350 C   0  0  0  0  0  2  0  0  0  0  0  0
  161.7630  207.7370  155.6150 N   0  0  0  0  0  2  0  0  0  0  0  0
  160.9250  208.1470  156.6680 N   0  0  0  0  0  2  0  0  0  0  0  0
  161.0600  205.9710  149.6390 C   0  0  1  0  0  3  0  0  0  0  0  0
  160.2080  206.6670  148.7700 O   0  0  0  0  0  1  0  0  0  0  0  0
  161.9180  204.9750  148.8620 C   0  0  0  0  0  2  0  0  0  0  0  0
  161.2090  204.4220  147.7570 O   0  0  0  0  0  0  0  0  0  0  0  0
  161.1470  200.6790  148.3210 C   0  0  0  0  0  1  0  0  0  0  0  0
  161.1890  202.1620  148.5210 C   0  0  0  0  0  3  0  0  0  0  0  0
  161.1560  203.0420  147.5100 C   0  0  0  0  0  0  0  0  0  0  0  0
  161.0600  202.5740  146.0910 C   0  0  0  0  0  1  0  0  0  0  0  0
  1 17  1  6  0  0  0
  1  2  1  0  0  0  0
  3  8  1  0  0  0  0
  4 12  1  6  0  0  0
  4  5  1  0  0  0  0
  4  3  1  0  0  0  0
  5  2  1  6  0  0  0
  5  9  1  0  0  0  0
  8  7  1  0  0  0  0
  8  6  2  0  0  0  0
  9 10  1  6  0  0  0
  9  7  1  0  0  0  0
 11 10  3  0  0  0  0
 13 12  1  0  0  0  0
 14 13  1  0  0  0  0
 15 14  1  0  0  0  0
 16 14  1  0  0  0  0
 18 17  1  0  0  0  0
 19 22  1  0  0  0  0
 20 22  2  0  0  0  0
 21 20  1  0  0  0  0
 22 18  1  0  0  0  0
 23 24  1  0  0  0  0
 23 21  2  0  0  0  0
 24 19  2  0  0  0  0
 25 27  1  0  0  0  0
 26 27  2  0  0  0  0
 27 23  1  0  0  0  0
 28 25  1  0  0  0  0
 30 29  1  0  0  0  0
 30 28  1  0  0  0  0
 31 30  2  0  0  0  0
 32  1  1  0  0  0  0
 33 32  1  0  0  0  0
 34 35  1  6  0  0  0
 34 33  1  0  0  0  0
 34 36  1  0  0  0  0
 36 38  2  0  0  0  0
 36 37  1  0  0  0  0
 37 41  1  0  0  0  0
 39 40  1  0  0  0  0
 40 37  1  0  0  0  0
 42 41  1  1  0  0  0
 42 44  1  0  0  0  0
 42 45  1  0  0  0  0
 44 43  1  0  0  0  0
 45 46  1  0  0  0  0
 46 43  1  0  0  0  0
 47 48  1  6  0  0  0
 47 34  1  0  0  0  0
 49 47  1  0  0  0  0
 50 49  1  0  0  0  0
 51 52  1  0  0  0  0
 53 50  1  0  0  0  0
 53 52  2  0  0  0  0
 54 53  1  0  0  0  0
M  END
>  <MODEL>
2

>  <REMARK>
 VINA RESULT:      -4.1      3.179      8.003
  Name = 
  23 active torsions:
  status: ('A' for Active; 'I' for Inactive)
    1  A    between atoms: C_1  and  C_31
    2  A    between atoms: C_4  and  C_34
    3  A    between atoms: C_4  and  C_41
    4  A    between atoms: C_5  and  C_27
    5  A    between atoms: C_7  and  C_54
    6  A    between atoms: C_8  and  C_48
    7  A    between atoms: N_10  and  N_25
    8  A    between atoms: C_12  and  C_17
    9  A    between atoms: C_15  and  C_16
   10  A    between atoms: C_15  and  C_33
   11  A    between atoms: C_16  and  C_41
   12  A    between atoms: C_17  and  C_27
   13  A    between atoms: C_21  and  C_24
   14  A    between atoms: C_21  and  C_26
   15  A    between atoms: N_25  and  C_35
   16  A    between atoms: C_26  and  C_33
   17  A    between atoms: C_31  and  N_43
   18  A    between atoms: C_32  and  C_49
   19  A    between atoms: C_33  and  C_48
   20  A    between atoms: C_34  and  O_45
   21  A    between atoms: C_37  and  C_41
   22  A    between atoms: C_42  and  O_45
   23  A    between atoms: N_43  and  C_52
                            x       y       z     vdW  Elec       q    Type
                         _______ _______ _______ _____ _____    ______ ____

>  <TORSDO>
F 23

$$$$
=
 OpenBabel11072410363D

 54 56  0  0  1  0  0  0  0  0999 V2000
  161.1760  210.3950  151.6060 C   0  0  2  0  0  3  0  0  0  0  0  0
  162.3090  210.1220  152.5980 C   0  0  0  0  0  2  0  0  0  0  0  0
  160.5240  207.2080  154.2760 O   0  0  0  0  0  0  0  0  0  0  0  0
  161.0490  208.0040  153.2090 C   0  0  1  0  0  3  0  0  0  0  0  0
  161.8980  209.1770  153.7320 C   0  0  2  0  0  3  0  0  0  0  0  0
  159.7900  207.0040  156.4430 O   0  0  0  0  0  0  0  0  0  0  0  0
  160.7120  209.0290  155.8650 O   0  0  0  0  0  0  0  0  0  0  0  0
  160.3080  207.7270  155.5560 C   0  0  0  0  0  0  0  0  0  0  0  0
  161.1490  209.9300  154.8490 C   0  0  2  0  0  3  0  0  0  0  0  0
  159.9910  210.6850  154.3370 C   0  0  0  0  0  0  0  0  0  0  0  0
  159.0770  211.2720  153.9340 N   0  0  0  0  0  0  0  0  0  0  0  0
  161.8310  207.1130  152.2430 C   0  0  0  0  0  2  0  0  0  0  0  0
  161.8810  205.6730  152.7290 C   0  0  0  0  0  2  0  0  0  0  0  0
  160.8020  204.8450  152.0550 C   0  0  0  0  0  3  0  0  0  0  0  0
  160.7820  205.1440  150.7100 F   0  0  0  0  0  0  0  0  0  0  0  0
  161.0770  203.4980  152.2180 F   0  0  0  0  0  0  0  0  0  0  0  0
  160.9710  209.2350  150.6410 C   0  0  0  0  0  2  0  0  0  0  0  0
  161.9240  209.3320  149.4580 C   0  0  0  0  0  2  0  0  0  0  0  0
  163.0770  207.2420  148.6990 C   0  0  0  0  0  3  0  0  0  0  0  0
  160.8120  207.6650  147.9600 C   0  0  0  0  0  3  0  0  0  0  0  0
  160.8210  206.4600  147.2530 C   0  0  0  0  0  3  0  0  0  0  0  0
  161.9430  208.0610  148.6780 C   0  0  0  0  0  0  0  0  0  0  0  0
  161.9590  205.6390  147.2620 C   0  0  0  0  0  0  0  0  0  0  0  0
  163.0850  206.0360  147.9970 C   0  0  0  0  0  3  0  0  0  0  0  0
  161.1120  203.2920  146.9380 N   0  0  0  0  0  2  0  0  0  0  0  0
  162.6960  204.2320  145.5040 O   0  0  0  0  0  0  0  0  0  0  0  0
  161.9660  204.3630  146.5260 C   0  0  0  0  0  0  0  0  0  0  0  0
  161.0760  202.0820  146.2310 N   0  0  0  0  0  2  0  0  0  0  0  0
  161.1660  199.5720  146.0820 C   0  0  0  0  0  1  0  0  0  0  0  0
  161.1830  200.8210  146.8880 C   0  0  0  0  0  0  0  0  0  0  0  0
  161.3240  200.7260  148.5150 S   0  0  0  0  0  0  0  0  0  0  0  0
  161.3530  211.6930  150.8410 C   0  0  0  0  0  2  0  0  0  0  0  0
  159.9980  212.2500  150.4160 C   0  0  0  0  0  2  0  0  0  0  0  0
  160.1250  213.5710  149.6450 C   0  0  1  0  0  0  0  0  0  0  0  0
  161.2520  214.2640  150.1000 O   0  0  0  0  0  1  0  0  0  0  0  0
  160.2400  213.2830  148.1580 C   0  0  0  0  0  0  0  0  0  0  0  0
  161.2770  213.8510  147.3380 N   0  0  0  0  0  0  0  0  0  0  0  0
  159.3560  212.5680  147.6090 O   0  0  0  0  0  0  0  0  0  0  0  0
  163.4080  212.6520  147.4220 C   0  0  0  0  0  1  0  0  0  0  0  0
  162.6670  213.9310  147.7830 C   0  0  0  0  0  2  0  0  0  0  0  0
  160.9230  214.4200  146.0400 C   0  0  0  0  0  2  0  0  0  0  0  0
  161.4010  213.5250  144.9040 C   0  0  1  0  0  3  0  0  0  0  0  0
  160.2480  213.0960  142.9020 N   0  0  0  0  0  2  0  0  0  0  0  0
  160.2580  212.7590  144.3130 C   0  0  0  0  0  2  0  0  0  0  0  0
  161.9060  214.3440  143.8210 N   0  0  0  0  0  2  0  0  0  0  0  0
  161.4860  213.7110  142.6360 N   0  0  0  0  0  2  0  0  0  0  0  0
  158.8810  214.4530  149.8820 C   0  0  1  0  0  3  0  0  0  0  0  0
  157.8380  214.1430  148.9980 O   0  0  0  0  0  1  0  0  0  0  0  0
  158.3790  214.4440  151.3250 C   0  0  0  0  0  2  0  0  0  0  0  0
  157.1350  213.7600  151.4430 O   0  0  0  0  0  0  0  0  0  0  0  0
  155.6670  214.1670  154.9080 C   0  0  0  0  0  1  0  0  0  0  0  0
  156.5950  213.9120  153.7610 C   0  0  0  0  0  3  0  0  0  0  0  0
  156.2250  214.0220  152.4770 C   0  0  0  0  0  0  0  0  0  0  0  0
  154.8310  214.4290  152.1140 C   0  0  0  0  0  1  0  0  0  0  0  0
  1 17  1  6  0  0  0
  1  2  1  0  0  0  0
  3  8  1  0  0  0  0
  4 12  1  6  0  0  0
  4  5  1  0  0  0  0
  4  3  1  0  0  0  0
  5  2  1  6  0  0  0
  5  9  1  0  0  0  0
  8  7  1  0  0  0  0
  8  6  2  0  0  0  0
  9 10  1  6  0  0  0
  9  7  1  0  0  0  0
 11 10  3  0  0  0  0
 12 13  1  0  0  0  0
 14 16  1  0  0  0  0
 14 13  1  0  0  0  0
 15 14  1  0  0  0  0
 18 17  1  0  0  0  0
 20 22  2  0  0  0  0
 21 23  2  0  0  0  0
 21 20  1  0  0  0  0
 22 19  1  0  0  0  0
 22 18  1  0  0  0  0
 23 24  1  0  0  0  0
 24 19  2  0  0  0  0
 26 27  2  0  0  0  0
 27 25  1  0  0  0  0
 27 23  1  0  0  0  0
 28 30  1  0  0  0  0
 28 25  1  0  0  0  0
 29 30  1  0  0  0  0
 30 31  2  0  0  0  0
 32  1  1  0  0  0  0
 33 32  1  0  0  0  0
 34 47  1  0  0  0  0
 34 35  1  1  0  0  0
 34 33  1  0  0  0  0
 36 34  1  0  0  0  0
 37 40  1  0  0  0  0
 37 36  1  0  0  0  0
 38 36  2  0  0  0  0
 39 40  1  0  0  0  0
 41 37  1  0  0  0  0
 42 41  1  1  0  0  0
 43 44  1  0  0  0  0
 44 42  1  0  0  0  0
 45 42  1  0  0  0  0
 46 43  1  0  0  0  0
 46 45  1  0  0  0  0
 47 48  1  6  0  0  0
 47 49  1  0  0  0  0
 49 50  1  0  0  0  0
 50 53  1  0  0  0  0
 52 51  1  0  0  0  0
 53 52  2  0  0  0  0
 54 53  1  0  0  0  0
M  END
>  <MODEL>
3

>  <REMARK>
 VINA RESULT:      -3.4      2.997      5.834
  Name = 
  23 active torsions:
  status: ('A' for Active; 'I' for Inactive)
    1  A    between atoms: C_1  and  C_31
    2  A    between atoms: C_4  and  C_34
    3  A    between atoms: C_4  and  C_41
    4  A    between atoms: C_5  and  C_27
    5  A    between atoms: C_7  and  C_54
    6  A    between atoms: C_8  and  C_48
    7  A    between atoms: N_10  and  N_25
    8  A    between atoms: C_12  and  C_17
    9  A    between atoms: C_15  and  C_16
   10  A    between atoms: C_15  and  C_33
   11  A    between atoms: C_16  and  C_41
   12  A    between atoms: C_17  and  C_27
   13  A    between atoms: C_21  and  C_24
   14  A    between atoms: C_21  and  C_26
   15  A    between atoms: N_25  and  C_35
   16  A    between atoms: C_26  and  C_33
   17  A    between atoms: C_31  and  N_43
   18  A    between atoms: C_32  and  C_49
   19  A    between atoms: C_33  and  C_48
   20  A    between atoms: C_34  and  O_45
   21  A    between atoms: C_37  and  C_41
   22  A    between atoms: C_42  and  O_45
   23  A    between atoms: N_43  and  C_52
                            x       y       z     vdW  Elec       q    Type
                         _______ _______ _______ _____ _____    ______ ____

>  <TORSDO>
F 23

$$$$
=
 OpenBabel11072410363D

 54 56  0  0  1  0  0  0  0  0999 V2000
  161.6410  208.7470  150.2090 C   0  0  2  0  0  3  0  0  0  0  0  0
  162.7150  208.1820  151.1410 C   0  0  0  0  0  2  0  0  0  0  0  0
  160.4420  206.7130  153.8170 O   0  0  0  0  0  0  0  0  0  0  0  0
  161.0450  206.8690  152.5290 C   0  0  1  0  0  3  0  0  0  0  0  0
  162.1940  207.8930  152.5520 C   0  0  2  0  0  3  0  0  0  0  0  0
  159.8780  207.5650  155.8760 O   0  0  0  0  0  0  0  0  0  0  0  0
  161.2030  208.8950  154.5500 O   0  0  0  0  0  0  0  0  0  0  0  0
  160.4730  207.7270  154.7810 C   0  0  0  0  0  0  0  0  0  0  0  0
  161.7500  209.1860  153.2650 C   0  0  2  0  0  3  0  0  0  0  0  0
  160.7670  209.9510  152.4780 C   0  0  0  0  0  0  0  0  0  0  0  0
  159.9890  210.5460  151.8600 N   0  0  0  0  0  0  0  0  0  0  0  0
  161.4990  205.5040  152.0100 C   0  0  0  0  0  2  0  0  0  0  0  0
  160.3450  204.7270  151.3970 C   0  0  0  0  0  2  0  0  0  0  0  0
  160.7710  203.3060  151.0740 C   0  0  0  0  0  3  0  0  0  0  0  0
  161.0280  203.2110  149.7230 F   0  0  0  0  0  0  0  0  0  0  0  0
  161.9200  202.9920  151.7800 F   0  0  0  0  0  0  0  0  0  0  0  0
  160.8840  207.6450  149.4770 C   0  0  0  0  0  2  0  0  0  0  0  0
  161.8320  206.5530  149.0040 C   0  0  0  0  0  2  0  0  0  0  0  0
  162.7500  205.7570  146.8140 C   0  0  0  0  0  3  0  0  0  0  0  0
  160.4910  206.6220  146.8930 C   0  0  0  0  0  3  0  0  0  0  0  0
  160.3520  206.3750  145.5250 C   0  0  0  0  0  3  0  0  0  0  0  0
  161.6930  206.3190  147.5370 C   0  0  0  0  0  0  0  0  0  0  0  0
  161.4110  205.8200  144.7910 C   0  0  0  0  0  0  0  0  0  0  0  0
  162.6090  205.5060  145.4480 C   0  0  0  0  0  3  0  0  0  0  0  0
  161.9530  206.3580  142.3940 N   0  0  0  0  0  2  0  0  0  0  0  0
  160.5590  204.5740  142.9640 O   0  0  0  0  0  0  0  0  0  0  0  0
  161.2620  205.5500  143.3510 C   0  0  0  0  0  0  0  0  0  0  0  0
  161.8540  206.0970  141.0190 N   0  0  0  0  0  2  0  0  0  0  0  0
  162.0260  208.5440  140.4650 C   0  0  0  0  0  1  0  0  0  0  0  0
  162.0390  207.1190  140.0430 C   0  0  0  0  0  0  0  0  0  0  0  0
  162.2640  206.7500  138.4650 S   0  0  0  0  0  0  0  0  0  0  0  0
  162.1820  209.7610  149.2190 C   0  0  0  0  0  2  0  0  0  0  0  0
  161.1250  210.8170  148.9070 C   0  0  0  0  0  2  0  0  0  0  0  0
  161.7090  212.0260  148.1640 C   0  0  1  0  0  0  0  0  0  0  0  0
  163.0830  211.8360  147.9830 O   0  0  0  0  0  1  0  0  0  0  0  0
  161.0110  212.1860  146.8240 C   0  0  0  0  0  0  0  0  0  0  0  0
  161.4800  213.0960  145.8120 N   0  0  0  0  0  0  0  0  0  0  0  0
  159.9450  211.5430  146.6160 O   0  0  0  0  0  0  0  0  0  0  0  0
  163.0830  213.2770  143.9730 C   0  0  0  0  0  1  0  0  0  0  0  0
  162.8970  213.2310  145.4820 C   0  0  0  0  0  2  0  0  0  0  0  0
  160.5160  213.9540  145.1280 C   0  0  0  0  0  2  0  0  0  0  0  0
  159.5770  213.1320  144.2550 C   0  0  1  0  0  3  0  0  0  0  0  0
  159.2570  213.3920  141.9420 N   0  0  0  0  0  2  0  0  0  0  0  0
  158.9230  213.9930  143.2190 C   0  0  0  0  0  2  0  0  0  0  0  0
  160.3420  212.1570  143.5060 N   0  0  0  0  0  2  0  0  0  0  0  0
  159.7500  212.1060  142.2300 N   0  0  0  0  0  2  0  0  0  0  0  0
  161.4980  213.3150  148.9870 C   0  0  1  0  0  3  0  0  0  0  0  0
  162.3910  214.3300  148.6150 O   0  0  0  0  0  1  0  0  0  0  0  0
  160.0610  213.8340  148.9700 C   0  0  0  0  0  2  0  0  0  0  0  0
  159.7080  214.4370  150.2110 O   0  0  0  0  0  0  0  0  0  0  0  0
  157.6760  213.3950  153.2310 C   0  0  0  0  0  1  0  0  0  0  0  0
  158.7660  213.8970  152.3350 C   0  0  0  0  0  3  0  0  0  0  0  0
  158.6490  213.9680  151.0020 C   0  0  0  0  0  0  0  0  0  0  0  0
  157.3820  213.5480  150.3220 C   0  0  0  0  0  1  0  0  0  0  0  0
  1 32  1  6  0  0  0
  1  2  1  0  0  0  0
  3  8  1  0  0  0  0
  4 12  1  1  0  0  0
  4  5  1  0  0  0  0
  4  3  1  0  0  0  0
  5  2  1  6  0  0  0
  5  9  1  0  0  0  0
  7  8  1  0  0  0  0
  8  6  2  0  0  0  0
  9 10  1  6  0  0  0
  9  7  1  0  0  0  0
 11 10  3  0  0  0  0
 13 12  1  0  0  0  0
 14 13  1  0  0  0  0
 14 16  1  0  0  0  0
 15 14  1  0  0  0  0
 17  1  1  0  0  0  0
 18 17  1  0  0  0  0
 19 22  1  0  0  0  0
 20 22  2  0  0  0  0
 21 20  1  0  0  0  0
 22 18  1  0  0  0  0
 23 24  1  0  0  0  0
 23 21  2  0  0  0  0
 24 19  2  0  0  0  0
 25 27  1  0  0  0  0
 26 27  2  0  0  0  0
 27 23  1  0  0  0  0
 28 25  1  0  0  0  0
 30 29  1  0  0  0  0
 30 28  1  0  0  0  0
 31 30  2  0  0  0  0
 33 32  1  0  0  0  0
 34 35  1  6  0  0  0
 34 33  1  0  0  0  0
 34 47  1  0  0  0  0
 36 34  1  0  0  0  0
 37 36  1  0  0  0  0
 38 36  2  0  0  0  0
 39 40  1  0  0  0  0
 40 37  1  0  0  0  0
 41 37  1  0  0  0  0
 42 41  1  1  0  0  0
 43 46  1  0  0  0  0
 43 44  1  0  0  0  0
 44 42  1  0  0  0  0
 45 42  1  0  0  0  0
 46 45  1  0  0  0  0
 47 48  1  6  0  0  0
 49 47  1  0  0  0  0
 49 50  1  0  0  0  0
 50 53  1  0  0  0  0
 52 51  1  0  0  0  0
 53 52  2  0  0  0  0
 54 53  1  0  0  0  0
M  END
>  <MODEL>
4

>  <REMARK>
 VINA RESULT:      -3.0      4.013      6.820
  Name = 
  23 active torsions:
  status: ('A' for Active; 'I' for Inactive)
    1  A    between atoms: C_1  and  C_31
    2  A    between atoms: C_4  and  C_34
    3  A    between atoms: C_4  and  C_41
    4  A    between atoms: C_5  and  C_27
    5  A    between atoms: C_7  and  C_54
    6  A    between atoms: C_8  and  C_48
    7  A    between atoms: N_10  and  N_25
    8  A    between atoms: C_12  and  C_17
    9  A    between atoms: C_15  and  C_16
   10  A    between atoms: C_15  and  C_33
   11  A    between atoms: C_16  and  C_41
   12  A    between atoms: C_17  and  C_27
   13  A    between atoms: C_21  and  C_24
   14  A    between atoms: C_21  and  C_26
   15  A    between atoms: N_25  and  C_35
   16  A    between atoms: C_26  and  C_33
   17  A    between atoms: C_31  and  N_43
   18  A    between atoms: C_32  and  C_49
   19  A    between atoms: C_33  and  C_48
   20  A    between atoms: C_34  and  O_45
   21  A    between atoms: C_37  and  C_41
   22  A    between atoms: C_42  and  O_45
   23  A    between atoms: N_43  and  C_52
                            x       y       z     vdW  Elec       q    Type
                         _______ _______ _______ _____ _____    ______ ____

>  <TORSDO>
F 23

$$$$
=
 OpenBabel11072410363D

 54 56  0  0  1  0  0  0  0  0999 V2000
  160.1520  211.2340  152.0720 C   0  0  2  0  0  3  0  0  0  0  0  0
  160.0530  212.3780  153.0840 C   0  0  0  0  0  2  0  0  0  0  0  0
  156.9420  214.4480  153.8100 O   0  0  0  0  0  0  0  0  0  0  0  0
  158.2200  214.1260  153.2530 C   0  0  1  0  0  3  0  0  0  0  0  0
  158.6150  212.6640  153.5280 C   0  0  2  0  0  3  0  0  0  0  0  0
  155.3160  214.1220  155.4010 O   0  0  0  0  0  0  0  0  0  0  0  0
  157.0840  212.6530  155.4340 O   0  0  0  0  0  0  0  0  0  0  0  0
  156.4160  213.7630  154.9110 C   0  0  0  0  0  0  0  0  0  0  0  0
  158.4060  212.3190  155.0160 C   0  0  2  0  0  3  0  0  0  0  0  0
  159.3800  212.9960  155.8900 C   0  0  0  0  0  0  0  0  0  0  0  0
  160.1400  213.5310  156.5820 N   0  0  0  0  0  0  0  0  0  0  0  0
  158.2230  214.4530  151.7600 C   0  0  0  0  0  2  0  0  0  0  0  0
  156.8770  214.1510  151.1200 C   0  0  0  0  0  2  0  0  0  0  0  0
  157.0340  213.9310  149.6250 C   0  0  0  0  0  3  0  0  0  0  0  0
  158.2860  214.3620  149.2390 F   0  0  0  0  0  0  0  0  0  0  0  0
  156.9070  212.5840  149.3350 F   0  0  0  0  0  0  0  0  0  0  0  0
  161.2160  210.2170  152.4640 C   0  0  0  0  0  2  0  0  0  0  0  0
  160.7040  209.2810  153.5490 C   0  0  0  0  0  2  0  0  0  0  0  0
  160.4760  207.5330  151.7700 C   0  0  0  0  0  3  0  0  0  0  0  0
  161.1220  206.8560  154.0010 C   0  0  0  0  0  3  0  0  0  0  0  0
  161.1970  205.5280  153.5730 C   0  0  0  0  0  3  0  0  0  0  0  0
  160.7540  207.8590  153.1010 C   0  0  0  0  0  0  0  0  0  0  0  0
  160.9100  205.1930  152.2400 C   0  0  0  0  0  0  0  0  0  0  0  0
  160.5560  206.2080  151.3400 C   0  0  0  0  0  3  0  0  0  0  0  0
  161.2430  203.5040  150.4060 N   0  0  0  0  0  2  0  0  0  0  0  0
  160.9050  202.8550  152.6220 O   0  0  0  0  0  0  0  0  0  0  0  0
  160.9990  203.7960  151.7850 C   0  0  0  0  0  0  0  0  0  0  0  0
  161.3680  202.1820  149.9560 N   0  0  0  0  0  2  0  0  0  0  0  0
  159.0740  201.4660  149.2140 C   0  0  0  0  0  1  0  0  0  0  0  0
  160.5230  201.6490  148.9390 C   0  0  0  0  0  0  0  0  0  0  0  0
  161.1210  201.2360  147.4740 S   0  0  0  0  0  0  0  0  0  0  0  0
  160.3780  211.7120  150.6500 C   0  0  0  0  0  2  0  0  0  0  0  0
  161.8700  211.7430  150.3300 C   0  0  0  0  0  2  0  0  0  0  0  0
  162.1450  211.6760  148.8220 C   0  0  1  0  0  0  0  0  0  0  0  0
  163.5160  211.8350  148.5960 O   0  0  0  0  0  1  0  0  0  0  0  0
  161.6650  210.3420  148.2750 C   0  0  0  0  0  0  0  0  0  0  0  0
  162.1870  209.0840  148.7390 N   0  0  0  0  0  0  0  0  0  0  0  0
  160.8220  210.3400  147.3350 O   0  0  0  0  0  0  0  0  0  0  0  0
  163.1560  207.4900  150.3220 C   0  0  0  0  0  1  0  0  0  0  0  0
  162.4220  208.8120  150.1560 C   0  0  0  0  0  2  0  0  0  0  0  0
  162.5470  208.0610  147.7610 C   0  0  0  0  0  2  0  0  0  0  0  0
  161.6710  206.8250  147.9170 C   0  0  1  0  0  3  0  0  0  0  0  0
  160.6500  205.6250  146.1740 N   0  0  0  0  0  2  0  0  0  0  0  0
  160.5360  206.8500  146.9400 C   0  0  0  0  0  2  0  0  0  0  0  0
  162.4360  205.6430  147.5740 N   0  0  0  0  0  2  0  0  0  0  0  0
  161.5460  204.8010  146.8810 N   0  0  0  0  0  2  0  0  0  0  0  0
  161.3940  212.8080  148.0880 C   0  0  1  0  0  3  0  0  0  0  0  0
  161.3060  213.9720  148.8650 O   0  0  0  0  0  1  0  0  0  0  0  0
  161.9570  213.1300  146.7050 C   0  0  0  0  0  2  0  0  0  0  0  0
  161.1460  214.0800  146.0180 O   0  0  0  0  0  0  0  0  0  0  0  0
  159.4100  212.9250  142.8590 C   0  0  0  0  0  1  0  0  0  0  0  0
  160.4400  213.3290  143.8670 C   0  0  0  0  0  3  0  0  0  0  0  0
  160.1390  213.7000  145.1190 C   0  0  0  0  0  0  0  0  0  0  0  0
  158.7180  213.7200  145.5910 C   0  0  0  0  0  1  0  0  0  0  0  0
  1 32  1  6  0  0  0
  1 17  1  0  0  0  0
  1  2  1  0  0  0  0
  3  8  1  0  0  0  0
  4 12  1  6  0  0  0
  4  5  1  0  0  0  0
  4  3  1  0  0  0  0
  5  2  1  1  0  0  0
  5  9  1  0  0  0  0
  8  6  2  0  0  0  0
  8  7  1  0  0  0  0
  9  7  1  0  0  0  0
  9 10  1  1  0  0  0
 10 11  3  0  0  0  0
 13 12  1  0  0  0  0
 14 13  1  0  0  0  0
 15 14  1  0  0  0  0
 16 14  1  0  0  0  0
 17 18  1  0  0  0  0
 19 22  1  0  0  0  0
 21 20  1  0  0  0  0
 22 18  1  0  0  0  0
 22 20  2  0  0  0  0
 23 21  2  0  0  0  0
 24 19  2  0  0  0  0
 24 23  1  0  0  0  0
 25 27  1  0  0  0  0
 27 23  1  0  0  0  0
 27 26  2  0  0  0  0
 28 25  1  0  0  0  0
 30 29  1  0  0  0  0
 30 28  1  0  0  0  0
 31 30  2  0  0  0  0
 33 32  1  0  0  0  0
 34 35  1  6  0  0  0
 34 33  1  0  0  0  0
 36 37  1  0  0  0  0
 36 34  1  0  0  0  0
 37 40  1  0  0  0  0
 38 36  2  0  0  0  0
 40 39  1  0  0  0  0
 41 37  1  0  0  0  0
 42 41  1  6  0  0  0
 43 46  1  0  0  0  0
 43 44  1  0  0  0  0
 44 42  1  0  0  0  0
 45 42  1  0  0  0  0
 46 45  1  0  0  0  0
 47 34  1  0  0  0  0
 47 48  1  1  0  0  0
 49 47  1  0  0  0  0
 50 49  1  0  0  0  0
 51 52  1  0  0  0  0
 52 53  2  0  0  0  0
 53 54  1  0  0  0  0
 53 50  1  0  0  0  0
M  END
>  <MODEL>
5

>  <REMARK>
 VINA RESULT:      -2.8      2.234      4.238
  Name = 
  23 active torsions:
  status: ('A' for Active; 'I' for Inactive)
    1  A    between atoms: C_1  and  C_31
    2  A    between atoms: C_4  and  C_34
    3  A    between atoms: C_4  and  C_41
    4  A    between atoms: C_5  and  C_27
    5  A    between atoms: C_7  and  C_54
    6  A    between atoms: C_8  and  C_48
    7  A    between atoms: N_10  and  N_25
    8  A    between atoms: C_12  and  C_17
    9  A    between atoms: C_15  and  C_16
   10  A    between atoms: C_15  and  C_33
   11  A    between atoms: C_16  and  C_41
   12  A    between atoms: C_17  and  C_27
   13  A    between atoms: C_21  and  C_24
   14  A    between atoms: C_21  and  C_26
   15  A    between atoms: N_25  and  C_35
   16  A    between atoms: C_26  and  C_33
   17  A    between atoms: C_31  and  N_43
   18  A    between atoms: C_32  and  C_49
   19  A    between atoms: C_33  and  C_48
   20  A    between atoms: C_34  and  O_45
   21  A    between atoms: C_37  and  C_41
   22  A    between atoms: C_42  and  O_45
   23  A    between atoms: N_43  and  C_52
                            x       y       z     vdW  Elec       q    Type
                         _______ _______ _______ _____ _____    ______ ____

>  <TORSDO>
F 23

$$$$
=
 OpenBabel11072410363D

 54 56  0  0  1  0  0  0  0  0999 V2000
  161.0890  212.1880  150.4100 C   0  0  2  0  0  3  0  0  0  0  0  0
  160.5820  213.3490  149.5520 C   0  0  0  0  0  2  0  0  0  0  0  0
  159.8340  213.6610  145.8320 O   0  0  0  0  0  0  0  0  0  0  0  0
  160.4050  213.9910  147.1020 C   0  0  1  0  0  3  0  0  0  0  0  0
  160.1210  212.9080  148.1590 C   0  0  2  0  0  3  0  0  0  0  0  0
  158.2200  212.6110  144.5790 O   0  0  0  0  0  0  0  0  0  0  0  0
  158.1960  212.1840  146.8380 O   0  0  0  0  0  0  0  0  0  0  0  0
  158.7200  212.8230  145.7120 C   0  0  0  0  0  0  0  0  0  0  0  0
  158.6280  212.5260  148.1540 C   0  0  2  0  0  3  0  0  0  0  0  0
  157.7730  213.6030  148.6830 C   0  0  0  0  0  0  0  0  0  0  0  0
  157.0940  214.4450  149.0980 N   0  0  0  0  0  0  0  0  0  0  0  0
  161.9010  214.2570  146.9360 C   0  0  0  0  0  2  0  0  0  0  0  0
  162.5310  213.2970  145.9390 C   0  0  0  0  0  2  0  0  0  0  0  0
  162.9980  214.0440  144.7010 C   0  0  0  0  0  3  0  0  0  0  0  0
  164.1070  213.4070  144.1870 F   0  0  0  0  0  0  0  0  0  0  0  0
  161.9920  214.0460  143.7510 F   0  0  0  0  0  0  0  0  0  0  0  0
  161.4040  210.9550  149.5730 C   0  0  0  0  0  2  0  0  0  0  0  0
  161.6650  209.7440  150.4570 C   0  0  0  0  0  2  0  0  0  0  0  0
  162.0570  208.5090  148.3140 C   0  0  0  0  0  3  0  0  0  0  0  0
  161.3310  207.2720  150.2620 C   0  0  0  0  0  3  0  0  0  0  0  0
  161.3640  206.0890  149.5200 C   0  0  0  0  0  3  0  0  0  0  0  0
  161.6710  208.4850  149.6580 C   0  0  0  0  0  0  0  0  0  0  0  0
  161.7430  206.1080  148.1690 C   0  0  0  0  0  0  0  0  0  0  0  0
  162.0960  207.3270  147.5730 C   0  0  0  0  0  3  0  0  0  0  0  0
  161.6370  203.5970  148.0430 N   0  0  0  0  0  0  0  0  0  0  0  0
  161.9180  204.9090  146.1330 O   0  0  0  0  0  0  0  0  0  0  0  0
  161.7890  204.8610  147.3880 C   0  0  0  0  0  0  0  0  0  0  0  0
  161.6420  202.3990  147.3160 N   0  0  0  0  0  0  0  0  0  0  0  0
  160.4360  201.1920  149.1640 C   0  0  0  0  0  1  0  0  0  0  0  0
  161.1900  201.1720  147.8830 C   0  0  0  0  0  0  0  0  0  0  0  0
  161.4870  199.7410  147.1480 S   0  0  0  0  0  0  0  0  0  0  0  0
  160.1480  211.8280  151.5450 C   0  0  0  0  0  2  0  0  0  0  0  0
  160.6790  212.3700  152.8690 C   0  0  0  0  0  2  0  0  0  0  0  0
  159.7360  212.0700  154.0420 C   0  0  1  0  0  0  0  0  0  0  0  0
  159.1340  210.8240  153.8430 O   0  0  0  0  0  1  0  0  0  0  0  0
  160.5230  212.0810  155.3420 C   0  0  0  0  0  0  0  0  0  0  0  0
  161.3370  210.9720  155.7620 N   0  0  0  0  0  0  0  0  0  0  0  0
  160.4070  213.0750  156.1120 O   0  0  0  0  0  0  0  0  0  0  0  0
  161.3770  209.4390  153.8560 C   0  0  0  0  0  1  0  0  0  0  0  0
  162.2090  210.2500  154.8370 C   0  0  0  0  0  2  0  0  0  0  0  0
  161.2510  210.5120  157.1460 C   0  0  0  0  0  2  0  0  0  0  0  0
  160.3430  209.2950  157.2600 C   0  0  1  0  0  3  0  0  0  0  0  0
  159.2430  208.2180  155.4840 N   0  0  0  0  0  2  0  0  0  0  0  0
  159.1850  209.4040  156.3170 C   0  0  0  0  0  2  0  0  0  0  0  0
  161.0630  208.1120  156.8350 N   0  0  0  0  0  2  0  0  0  0  0  0
  160.1320  207.3330  156.1230 N   0  0  0  0  0  2  0  0  0  0  0  0
  158.6280  213.1410  154.1270 C   0  0  1  0  0  3  0  0  0  0  0  0
  158.8270  214.1800  153.2070 O   0  0  0  0  0  1  0  0  0  0  0  0
  157.2120  212.5800  154.0020 C   0  0  0  0  0  2  0  0  0  0  0  0
  156.3270  213.1790  154.9430 O   0  0  0  0  0  0  0  0  0  0  0  0
  154.6440  210.2250  156.6110 C   0  0  0  0  0  1  0  0  0  0  0  0
  155.4850  211.0860  155.7190 C   0  0  0  0  0  3  0  0  0  0  0  0
  155.5290  212.4220  155.8140 C   0  0  0  0  0  0  0  0  0  0  0  0
  154.7270  213.1420  156.8540 C   0  0  0  0  0  1  0  0  0  0  0  0
  1  2  1  6  0  0  0
  1 32  1  0  0  0  0
  3  4  1  0  0  0  0
  4 12  1  6  0  0  0
  4  5  1  0  0  0  0
  5  2  1  1  0  0  0
  6  8  2  0  0  0  0
  7  9  1  0  0  0  0
  8  3  1  0  0  0  0
  8  7  1  0  0  0  0
  9  5  1  0  0  0  0
  9 10  1  6  0  0  0
 10 11  3  0  0  0  0
 13 12  1  0  0  0  0
 14 13  1  0  0  0  0
 15 14  1  0  0  0  0
 16 14  1  0  0  0  0
 17  1  1  0  0  0  0
 17 18  1  0  0  0  0
 19 22  1  0  0  0  0
 21 20  1  0  0  0  0
 22 20  2  0  0  0  0
 22 18  1  0  0  0  0
 23 21  2  0  0  0  0
 24 23  1  0  0  0  0
 24 19  2  0  0  0  0
 26 27  2  0  0  0  0
 27 25  1  0  0  0  0
 27 23  1  0  0  0  0
 28 30  1  0  0  0  0
 28 25  2  0  0  0  0
 30 29  1  0  0  0  0
 31 30  2  0  0  0  0
 32 33  1  0  0  0  0
 33 34  1  0  0  0  0
 34 35  1  6  0  0  0
 34 47  1  0  0  0  0
 34 36  1  0  0  0  0
 36 37  1  0  0  0  0
 36 38  2  0  0  0  0
 37 41  1  0  0  0  0
 39 40  1  0  0  0  0
 40 37  1  0  0  0  0
 42 41  1  6  0  0  0
 43 46  1  0  0  0  0
 43 44  1  0  0  0  0
 44 42  1  0  0  0  0
 45 42  1  0  0  0  0
 46 45  1  0  0  0  0
 47 48  1  6  0  0  0
 49 47  1  0  0  0  0
 49 50  1  0  0  0  0
 50 53  1  0  0  0  0
 52 53  2  0  0  0  0
 52 51  1  0  0  0  0
 53 54  1  0  0  0  0
M  END
>  <MODEL>
6

>  <REMARK>
 VINA RESULT:      -2.3      3.528      8.368
  Name = 
  23 active torsions:
  status: ('A' for Active; 'I' for Inactive)
    1  A    between atoms: C_1  and  C_31
    2  A    between atoms: C_4  and  C_34
    3  A    between atoms: C_4  and  C_41
    4  A    between atoms: C_5  and  C_27
    5  A    between atoms: C_7  and  C_54
    6  A    between atoms: C_8  and  C_48
    7  A    between atoms: N_10  and  N_25
    8  A    between atoms: C_12  and  C_17
    9  A    between atoms: C_15  and  C_16
   10  A    between atoms: C_15  and  C_33
   11  A    between atoms: C_16  and  C_41
   12  A    between atoms: C_17  and  C_27
   13  A    between atoms: C_21  and  C_24
   14  A    between atoms: C_21  and  C_26
   15  A    between atoms: N_25  and  C_35
   16  A    between atoms: C_26  and  C_33
   17  A    between atoms: C_31  and  N_43
   18  A    between atoms: C_32  and  C_49
   19  A    between atoms: C_33  and  C_48
   20  A    between atoms: C_34  and  O_45
   21  A    between atoms: C_37  and  C_41
   22  A    between atoms: C_42  and  O_45
   23  A    between atoms: N_43  and  C_52
                            x       y       z     vdW  Elec       q    Type
                         _______ _______ _______ _____ _____    ______ ____

>  <TORSDO>
F 23

$$$$
