=
 OpenBabel11072411363D

 25 27  0  0  0  0  0  0  0  0999 V2000
  161.5710  204.8170  151.6700 C   0  0  0  0  0  3  0  0  0  0  0  0
  160.9730  203.6450  151.8620 C   0  0  0  0  0  3  0  0  0  0  0  0
  161.2910  206.0130  152.4860 C   0  0  0  0  0  0  0  0  0  0  0  0
  161.1100  205.8700  153.8730 C   0  0  0  0  0  3  0  0  0  0  0  0
  160.9390  208.4070  152.7420 C   0  0  0  0  0  3  0  0  0  0  0  0
  161.2020  207.3080  151.9040 C   0  0  0  0  0  0  0  0  0  0  0  0
  160.8480  206.9750  154.6820 C   0  0  0  0  0  3  0  0  0  0  0  0
  160.7630  208.2440  154.1160 C   0  0  0  0  0  0  0  0  0  0  0  0
  160.4970  209.3740  154.9370 N   0  0  0  0  0  1  0  0  0  0  0  0
  162.2060  208.4370  149.9310 C   0  0  0  0  0  3  0  0  0  0  0  0
  162.1060  208.4000  148.5870 N   0  0  0  0  0  0  0  0  0  0  0  0
  161.1740  207.4480  148.3630 C   0  0  0  0  0  3  0  0  0  0  0  0
  160.7230  206.9250  149.5170 N   0  0  0  0  0  0  0  0  0  0  0  0
  161.3700  207.5430  150.4890 N   0  0  0  0  0  0  0  0  0  0  0  0
  161.2970  202.4710  150.9990 C   0  0  0  0  0  2  0  0  0  0  0  0
  160.3430  202.3660  149.8150 C   0  0  0  0  0  2  0  0  0  0  0  0
  161.0590  201.9040  148.5880 C   0  0  0  0  0  0  0  0  0  0  0  0
  161.5000  200.7240  148.5430 O   0  0  0  0  0  0  0  0  0  0  0  0
  161.2900  204.4640  144.1210 O   0  0  0  0  0  0  0  0  0  0  0  0
  160.5900  202.4760  145.8010 S   0  0  0  0  0  0  0  0  0  0  0  0
  161.9660  203.9020  147.5880 N   0  0  0  0  0  0  0  0  0  0  0  0
  161.2720  202.8130  147.4500 C   0  0  0  0  0  0  0  0  0  0  0  0
  161.3540  204.0000  145.2890 C   0  0  0  0  0  0  0  0  0  0  0  0
  162.6780  205.7220  146.2850 O   0  0  0  0  0  0  0  0  0  0  0  0
  162.0520  204.6330  146.3790 C   0  0  0  0  0  0  0  0  0  0  0  0
  1  2  2  0  0  0  0
  1  3  1  0  0  0  0
  3  4  1  0  0  0  0
  4  7  2  0  0  0  0
  5  8  2  0  0  0  0
  6  3  2  0  0  0  0
  6  5  1  0  0  0  0
  8  7  1  0  0  0  0
  8  9  1  0  0  0  0
 10 14  1  0  0  0  0
 11 10  2  0  0  0  0
 12 11  1  0  0  0  0
 12 13  2  0  0  0  0
 13 14  1  0  0  0  0
 14  6  1  0  0  0  0
 15  2  1  0  0  0  0
 16 15  1  0  0  0  0
 17 16  1  0  0  0  0
 18 17  2  0  0  0  0
 19 23  2  0  0  0  0
 20 22  1  0  0  0  0
 22 21  2  0  0  0  0
 22 17  1  0  0  0  0
 23 20  1  0  0  0  0
 23 25  1  0  0  0  0
 24 25  2  0  0  0  0
 25 21  1  0  0  0  0
M  END
>  <MODEL>
1

>  <REMARK>
 VINA RESULT:      -8.8      0.000      0.000
  Name = 
  6 active torsions:
  status: ('A' for Active; 'I' for Inactive)
    1  A    between atoms: C_1  and  C_2
    2  A    between atoms: C_7  and  C_10
    3  A    between atoms: C_7  and  C_25
    4  A    between atoms: C_10  and  C_16
    5  A    between atoms: C_13  and  N_21
    6  A    between atoms: C_14  and  C_16
                            x       y       z     vdW  Elec       q    Type
                         _______ _______ _______ _____ _____    ______ ____

>  <TORSDO>
F 6

$$$$
=
 OpenBabel11072411363D

 25 27  0  0  0  0  0  0  0  0999 V2000
  161.3850  205.3200  151.8630 C   0  0  0  0  0  3  0  0  0  0  0  0
  161.2120  204.1110  152.3920 C   0  0  0  0  0  3  0  0  0  0  0  0
  161.1660  206.5710  152.6120 C   0  0  0  0  0  0  0  0  0  0  0  0
  160.9330  206.5090  153.9970 C   0  0  0  0  0  3  0  0  0  0  0  0
  160.9790  208.9930  152.7430 C   0  0  0  0  0  3  0  0  0  0  0  0
  161.1880  207.8390  151.9680 C   0  0  0  0  0  0  0  0  0  0  0  0
  160.7270  207.6680  154.7440 C   0  0  0  0  0  3  0  0  0  0  0  0
  160.7500  208.9110  154.1170 C   0  0  0  0  0  0  0  0  0  0  0  0
  160.5410  210.0950  154.8750 N   0  0  0  0  0  1  0  0  0  0  0  0
  162.1480  208.9580  149.9670 C   0  0  0  0  0  3  0  0  0  0  0  0
  162.1460  208.8080  148.6280 N   0  0  0  0  0  0  0  0  0  0  0  0
  161.3810  207.7120  148.4310 C   0  0  0  0  0  3  0  0  0  0  0  0
  160.9340  207.2130  149.5980 N   0  0  0  0  0  0  0  0  0  0  0  0
  161.4160  207.9920  150.5490 N   0  0  0  0  0  0  0  0  0  0  0  0
  161.4450  202.8820  151.5790 C   0  0  0  0  0  2  0  0  0  0  0  0
  160.4420  202.7650  150.4380 C   0  0  0  0  0  2  0  0  0  0  0  0
  160.9510  201.8590  149.3640 C   0  0  0  0  0  0  0  0  0  0  0  0
  161.3730  200.7140  149.6770 O   0  0  0  0  0  0  0  0  0  0  0  0
  161.5150  204.1600  144.7870 O   0  0  0  0  0  0  0  0  0  0  0  0
  161.7300  203.8780  147.4590 S   0  0  0  0  0  0  0  0  0  0  0  0
  160.4810  201.5620  147.0180 N   0  0  0  0  0  0  0  0  0  0  0  0
  160.9870  202.2980  147.9600 C   0  0  0  0  0  0  0  0  0  0  0  0
  161.2800  203.4400  145.7930 C   0  0  0  0  0  0  0  0  0  0  0  0
  160.1950  201.6220  144.6880 O   0  0  0  0  0  0  0  0  0  0  0  0
  160.6170  202.1630  145.7440 C   0  0  0  0  0  0  0  0  0  0  0  0
  1  2  2  0  0  0  0
  1  3  1  0  0  0  0
  3  4  1  0  0  0  0
  4  7  2  0  0  0  0
  5  8  2  0  0  0  0
  6  3  2  0  0  0  0
  6  5  1  0  0  0  0
  8  7  1  0  0  0  0
  8  9  1  0  0  0  0
 10 14  1  0  0  0  0
 11 10  2  0  0  0  0
 12 11  1  0  0  0  0
 12 13  2  0  0  0  0
 13 14  1  0  0  0  0
 14  6  1  0  0  0  0
 15  2  1  0  0  0  0
 16 15  1  0  0  0  0
 17 18  2  0  0  0  0
 17 16  1  0  0  0  0
 19 23  2  0  0  0  0
 20 22  1  0  0  0  0
 21 22  2  0  0  0  0
 22 17  1  0  0  0  0
 23 20  1  0  0  0  0
 24 25  2  0  0  0  0
 25 23  1  0  0  0  0
 25 21  1  0  0  0  0
M  END
>  <MODEL>
2

>  <REMARK>
 VINA RESULT:      -8.7      1.213      1.517
  Name = 
  6 active torsions:
  status: ('A' for Active; 'I' for Inactive)
    1  A    between atoms: C_1  and  C_2
    2  A    between atoms: C_7  and  C_10
    3  A    between atoms: C_7  and  C_25
    4  A    between atoms: C_10  and  C_16
    5  A    between atoms: C_13  and  N_21
    6  A    between atoms: C_14  and  C_16
                            x       y       z     vdW  Elec       q    Type
                         _______ _______ _______ _____ _____    ______ ____

>  <TORSDO>
F 6

$$$$
=
 OpenBabel11072411363D

 25 27  0  0  0  0  0  0  0  0999 V2000
  160.8570  204.4940  150.9640 C   0  0  0  0  0  3  0  0  0  0  0  0
  161.1910  204.3870  152.2480 C   0  0  0  0  0  3  0  0  0  0  0  0
  160.9730  203.3830  150.0010 C   0  0  0  0  0  0  0  0  0  0  0  0
  160.8650  202.0600  150.4650 C   0  0  0  0  0  3  0  0  0  0  0  0
  161.2850  202.5120  147.7510 C   0  0  0  0  0  3  0  0  0  0  0  0
  161.1900  203.6170  148.6150 C   0  0  0  0  0  0  0  0  0  0  0  0
  160.9630  200.9810  149.5880 C   0  0  0  0  0  3  0  0  0  0  0  0
  161.1730  201.2070  148.2300 C   0  0  0  0  0  0  0  0  0  0  0  0
  161.2740  200.1090  147.3320 N   0  0  0  0  0  1  0  0  0  0  0  0
  162.2480  205.3400  147.1680 C   0  0  0  0  0  3  0  0  0  0  0  0
  162.0830  206.6420  146.8650 N   0  0  0  0  0  0  0  0  0  0  0  0
  161.0170  207.0110  147.6080 C   0  0  0  0  0  3  0  0  0  0  0  0
  160.5490  205.9810  148.3360 N   0  0  0  0  0  0  0  0  0  0  0  0
  161.3190  204.9440  148.0570 N   0  0  0  0  0  0  0  0  0  0  0  0
  161.0540  205.5500  153.1720 C   0  0  0  0  0  2  0  0  0  0  0  0
  162.0080  206.6780  152.7980 C   0  0  0  0  0  2  0  0  0  0  0  0
  161.2580  207.8970  152.3670 C   0  0  0  0  0  0  0  0  0  0  0  0
  160.8530  207.9780  151.1770 O   0  0  0  0  0  0  0  0  0  0  0  0
  160.2110  212.2740  154.8770 O   0  0  0  0  0  0  0  0  0  0  0  0
  160.5280  210.6600  152.7420 S   0  0  0  0  0  0  0  0  0  0  0  0
  161.1330  208.8300  154.5870 N   0  0  0  0  0  0  0  0  0  0  0  0
  161.0110  209.0030  153.3060 C   0  0  0  0  0  0  0  0  0  0  0  0
  160.5020  211.1220  154.4610 C   0  0  0  0  0  0  0  0  0  0  0  0
  160.9100  210.0730  156.5670 O   0  0  0  0  0  0  0  0  0  0  0  0
  160.8520  210.0130  155.3110 C   0  0  0  0  0  0  0  0  0  0  0  0
  1  2  2  0  0  0  0
  2 15  1  0  0  0  0
  3  4  1  0  0  0  0
  3  1  1  0  0  0  0
  5  8  2  0  0  0  0
  5  6  1  0  0  0  0
  6  3  2  0  0  0  0
  7  4  2  0  0  0  0
  8  7  1  0  0  0  0
  9  8  1  0  0  0  0
 10 14  1  0  0  0  0
 11 10  2  0  0  0  0
 11 12  1  0  0  0  0
 12 13  2  0  0  0  0
 14 13  1  0  0  0  0
 14  6  1  0  0  0  0
 16 15  1  0  0  0  0
 17 16  1  0  0  0  0
 17 22  1  0  0  0  0
 18 17  2  0  0  0  0
 20 22  1  0  0  0  0
 20 23  1  0  0  0  0
 21 25  1  0  0  0  0
 22 21  2  0  0  0  0
 23 19  2  0  0  0  0
 23 25  1  0  0  0  0
 25 24  2  0  0  0  0
M  END
>  <MODEL>
3

>  <REMARK>
 VINA RESULT:      -8.4      4.244      7.544
  Name = 
  6 active torsions:
  status: ('A' for Active; 'I' for Inactive)
    1  A    between atoms: C_1  and  C_2
    2  A    between atoms: C_7  and  C_10
    3  A    between atoms: C_7  and  C_25
    4  A    between atoms: C_10  and  C_16
    5  A    between atoms: C_13  and  N_21
    6  A    between atoms: C_14  and  C_16
                            x       y       z     vdW  Elec       q    Type
                         _______ _______ _______ _____ _____    ______ ____

>  <TORSDO>
F 6

$$$$
=
 OpenBabel11072411363D

 25 27  0  0  0  0  0  0  0  0999 V2000
  160.6400  204.3190  151.0760 C   0  0  0  0  0  3  0  0  0  0  0  0
  161.6630  204.5500  151.8940 C   0  0  0  0  0  3  0  0  0  0  0  0
  160.7550  203.5230  149.8390 C   0  0  0  0  0  0  0  0  0  0  0  0
  160.5000  202.1410  149.8870 C   0  0  0  0  0  3  0  0  0  0  0  0
  161.2020  203.3040  147.4580 C   0  0  0  0  0  3  0  0  0  0  0  0
  161.1170  204.1200  148.6000 C   0  0  0  0  0  0  0  0  0  0  0  0
  160.5920  201.3530  148.7410 C   0  0  0  0  0  3  0  0  0  0  0  0
  160.9430  201.9350  147.5250 C   0  0  0  0  0  0  0  0  0  0  0  0
  161.0380  201.1350  146.3540 N   0  0  0  0  0  1  0  0  0  0  0  0
  160.6280  206.5370  148.9090 C   0  0  0  0  0  3  0  0  0  0  0  0
  161.1870  207.7260  148.6090 N   0  0  0  0  0  0  0  0  0  0  0  0
  162.3250  207.3900  147.9640 C   0  0  0  0  0  3  0  0  0  0  0  0
  162.4590  206.0550  147.8730 N   0  0  0  0  0  0  0  0  0  0  0  0
  161.4000  205.5300  148.4640 N   0  0  0  0  0  0  0  0  0  0  0  0
  161.4830  205.3670  153.1290 C   0  0  0  0  0  2  0  0  0  0  0  0
  161.2830  206.8420  152.8010 C   0  0  0  0  0  2  0  0  0  0  0  0
  160.8110  207.6010  153.9990 C   0  0  0  0  0  0  0  0  0  0  0  0
  160.5840  206.9760  155.0700 O   0  0  0  0  0  0  0  0  0  0  0  0
  160.0020  212.6400  154.7120 O   0  0  0  0  0  0  0  0  0  0  0  0
  160.3700  210.0670  155.4250 S   0  0  0  0  0  0  0  0  0  0  0  0
  160.5400  209.6700  152.7920 N   0  0  0  0  0  0  0  0  0  0  0  0
  160.5890  209.0540  153.9340 C   0  0  0  0  0  0  0  0  0  0  0  0
  160.1990  211.4580  154.3270 C   0  0  0  0  0  0  0  0  0  0  0  0
  160.2340  211.8500  151.9710 O   0  0  0  0  0  0  0  0  0  0  0  0
  160.3180  211.0590  152.9480 C   0  0  0  0  0  0  0  0  0  0  0  0
  1  2  2  0  0  0  0
  2 15  1  0  0  0  0
  3  4  1  0  0  0  0
  3  1  1  0  0  0  0
  5  8  2  0  0  0  0
  5  6  1  0  0  0  0
  6  3  2  0  0  0  0
  7  4  2  0  0  0  0
  8  7  1  0  0  0  0
  9  8  1  0  0  0  0
 11 10  2  0  0  0  0
 12 11  1  0  0  0  0
 13 12  2  0  0  0  0
 13 14  1  0  0  0  0
 14  6  1  0  0  0  0
 14 10  1  0  0  0  0
 16 15  1  0  0  0  0
 16 17  1  0  0  0  0
 17 18  2  0  0  0  0
 21 25  1  0  0  0  0
 21 22  2  0  0  0  0
 22 17  1  0  0  0  0
 22 20  1  0  0  0  0
 23 19  2  0  0  0  0
 23 20  1  0  0  0  0
 24 25  2  0  0  0  0
 25 23  1  0  0  0  0
M  END
>  <MODEL>
4

>  <REMARK>
 VINA RESULT:      -8.2      4.430      7.489
  Name = 
  6 active torsions:
  status: ('A' for Active; 'I' for Inactive)
    1  A    between atoms: C_1  and  C_2
    2  A    between atoms: C_7  and  C_10
    3  A    between atoms: C_7  and  C_25
    4  A    between atoms: C_10  and  C_16
    5  A    between atoms: C_13  and  N_21
    6  A    between atoms: C_14  and  C_16
                            x       y       z     vdW  Elec       q    Type
                         _______ _______ _______ _____ _____    ______ ____

>  <TORSDO>
F 6

$$$$
=
 OpenBabel11072411363D

 25 27  0  0  0  0  0  0  0  0999 V2000
  161.2860  206.9890  149.6650 C   0  0  0  0  0  3  0  0  0  0  0  0
  161.8290  207.7560  150.6070 C   0  0  0  0  0  3  0  0  0  0  0  0
  161.1380  205.5280  149.7960 C   0  0  0  0  0  0  0  0  0  0  0  0
  160.9850  204.9660  151.0760 C   0  0  0  0  0  3  0  0  0  0  0  0
  160.9930  203.2890  148.8540 C   0  0  0  0  0  3  0  0  0  0  0  0
  161.1450  204.6730  148.6590 C   0  0  0  0  0  0  0  0  0  0  0  0
  160.8370  203.5900  151.2430 C   0  0  0  0  0  3  0  0  0  0  0  0
  160.8400  202.7510  150.1320 C   0  0  0  0  0  0  0  0  0  0  0  0
  160.6890  201.3470  150.2990 N   0  0  0  0  0  1  0  0  0  0  0  0
  162.3450  204.9220  146.4960 C   0  0  0  0  0  3  0  0  0  0  0  0
  162.1730  205.5420  145.3120 N   0  0  0  0  0  0  0  0  0  0  0  0
  160.9850  206.1690  145.4490 C   0  0  0  0  0  3  0  0  0  0  0  0
  160.4520  205.9440  146.6640 N   0  0  0  0  0  0  0  0  0  0  0  0
  161.3030  205.1670  147.3100 N   0  0  0  0  0  0  0  0  0  0  0  0
  161.9540  209.2310  150.4130 C   0  0  0  0  0  2  0  0  0  0  0  0
  162.3670  209.9320  151.7020 C   0  0  0  0  0  2  0  0  0  0  0  0
  161.2200  210.0250  152.6550 C   0  0  0  0  0  0  0  0  0  0  0  0
  160.1230  210.4960  152.2500 O   0  0  0  0  0  0  0  0  0  0  0  0
  161.3620  207.7170  157.2610 O   0  0  0  0  0  0  0  0  0  0  0  0
  160.8710  207.9460  154.6200 S   0  0  0  0  0  0  0  0  0  0  0  0
  161.8600  210.4020  154.9490 N   0  0  0  0  0  0  0  0  0  0  0  0
  161.3660  209.5990  154.0560 C   0  0  0  0  0  0  0  0  0  0  0  0
  161.4120  208.4510  156.2390 C   0  0  0  0  0  0  0  0  0  0  0  0
  162.3580  210.4000  157.2450 O   0  0  0  0  0  0  0  0  0  0  0  0
  161.9150  209.8010  156.2290 C   0  0  0  0  0  0  0  0  0  0  0  0
  1  3  1  0  0  0  0
  1  2  2  0  0  0  0
  3  4  1  0  0  0  0
  4  7  2  0  0  0  0
  5  8  2  0  0  0  0
  6  5  1  0  0  0  0
  6  3  2  0  0  0  0
  8  9  1  0  0  0  0
  8  7  1  0  0  0  0
 10 14  1  0  0  0  0
 11 12  1  0  0  0  0
 11 10  2  0  0  0  0
 12 13  2  0  0  0  0
 13 14  1  0  0  0  0
 14  6  1  0  0  0  0
 15  2  1  0  0  0  0
 15 16  1  0  0  0  0
 16 17  1  0  0  0  0
 17 22  1  0  0  0  0
 18 17  2  0  0  0  0
 20 23  1  0  0  0  0
 21 25  1  0  0  0  0
 22 20  1  0  0  0  0
 22 21  2  0  0  0  0
 23 19  2  0  0  0  0
 25 23  1  0  0  0  0
 25 24  2  0  0  0  0
M  END
>  <MODEL>
5

>  <REMARK>
 VINA RESULT:      -8.0      4.561      7.808
  Name = 
  6 active torsions:
  status: ('A' for Active; 'I' for Inactive)
    1  A    between atoms: C_1  and  C_2
    2  A    between atoms: C_7  and  C_10
    3  A    between atoms: C_7  and  C_25
    4  A    between atoms: C_10  and  C_16
    5  A    between atoms: C_13  and  N_21
    6  A    between atoms: C_14  and  C_16
                            x       y       z     vdW  Elec       q    Type
                         _______ _______ _______ _____ _____    ______ ____

>  <TORSDO>
F 6

$$$$
=
 OpenBabel11072411363D

 25 27  0  0  0  0  0  0  0  0999 V2000
  161.8590  205.7820  148.1740 C   0  0  0  0  0  3  0  0  0  0  0  0
  161.1290  206.8860  148.0350 C   0  0  0  0  0  3  0  0  0  0  0  0
  161.5020  204.4910  147.5560 C   0  0  0  0  0  0  0  0  0  0  0  0
  161.5480  204.3650  146.1570 C   0  0  0  0  0  3  0  0  0  0  0  0
  160.7940  202.1680  147.6890 C   0  0  0  0  0  3  0  0  0  0  0  0
  161.1150  203.3710  148.3430 C   0  0  0  0  0  0  0  0  0  0  0  0
  161.2240  203.1610  145.5330 C   0  0  0  0  0  3  0  0  0  0  0  0
  160.8470  202.0620  146.3000 C   0  0  0  0  0  0  0  0  0  0  0  0
  160.5160  200.8320  145.6670 N   0  0  0  0  0  1  0  0  0  0  0  0
  161.1330  202.3620  150.6140 C   0  0  0  0  0  3  0  0  0  0  0  0
  161.0100  202.7590  151.8960 N   0  0  0  0  0  0  0  0  0  0  0  0
  160.8360  204.0950  151.8010 C   0  0  0  0  0  3  0  0  0  0  0  0
  160.8500  204.4990  150.5180 N   0  0  0  0  0  0  0  0  0  0  0  0
  161.0370  203.4160  149.7850 N   0  0  0  0  0  0  0  0  0  0  0  0
  161.5420  208.1620  148.6890 C   0  0  0  0  0  2  0  0  0  0  0  0
  162.1210  207.9180  150.0780 C   0  0  0  0  0  2  0  0  0  0  0  0
  161.9010  209.0990  150.9670 C   0  0  0  0  0  0  0  0  0  0  0  0
  162.0620  210.2580  150.4980 O   0  0  0  0  0  0  0  0  0  0  0  0
  160.7070  209.4130  155.9700 O   0  0  0  0  0  0  0  0  0  0  0  0
  161.4430  210.3160  153.5390 S   0  0  0  0  0  0  0  0  0  0  0  0
  161.2370  207.7470  152.8490 N   0  0  0  0  0  0  0  0  0  0  0  0
  161.5250  208.9220  152.3790 C   0  0  0  0  0  0  0  0  0  0  0  0
  160.9620  209.1240  154.7720 C   0  0  0  0  0  0  0  0  0  0  0  0
  160.5900  206.7680  154.8840 O   0  0  0  0  0  0  0  0  0  0  0  0
  160.9030  207.7940  154.2240 C   0  0  0  0  0  0  0  0  0  0  0  0
  2  1  2  0  0  0  0
  2 15  1  0  0  0  0
  3  1  1  0  0  0  0
  3  6  1  0  0  0  0
  4  3  2  0  0  0  0
  5  6  2  0  0  0  0
  6 14  1  0  0  0  0
  7  4  1  0  0  0  0
  7  8  2  0  0  0  0
  8  5  1  0  0  0  0
  9  8  1  0  0  0  0
 10 11  2  0  0  0  0
 12 11  1  0  0  0  0
 13 12  2  0  0  0  0
 14 13  1  0  0  0  0
 14 10  1  0  0  0  0
 15 16  1  0  0  0  0
 16 17  1  0  0  0  0
 17 22  1  0  0  0  0
 18 17  2  0  0  0  0
 20 23  1  0  0  0  0
 21 25  1  0  0  0  0
 22 21  2  0  0  0  0
 22 20  1  0  0  0  0
 23 19  2  0  0  0  0
 25 23  1  0  0  0  0
 25 24  2  0  0  0  0
M  END
>  <MODEL>
6

>  <REMARK>
 VINA RESULT:      -8.0      4.098      7.980
  Name = 
  6 active torsions:
  status: ('A' for Active; 'I' for Inactive)
    1  A    between atoms: C_1  and  C_2
    2  A    between atoms: C_7  and  C_10
    3  A    between atoms: C_7  and  C_25
    4  A    between atoms: C_10  and  C_16
    5  A    between atoms: C_13  and  N_21
    6  A    between atoms: C_14  and  C_16
                            x       y       z     vdW  Elec       q    Type
                         _______ _______ _______ _____ _____    ______ ____

>  <TORSDO>
F 6

$$$$
=
 OpenBabel11072411363D

 25 27  0  0  0  0  0  0  0  0999 V2000
  160.5970  205.2420  150.4810 C   0  0  0  0  0  3  0  0  0  0  0  0
  161.2640  205.8570  151.4540 C   0  0  0  0  0  3  0  0  0  0  0  0
  160.9710  205.3350  149.0570 C   0  0  0  0  0  0  0  0  0  0  0  0
  161.1020  206.6030  148.4640 C   0  0  0  0  0  3  0  0  0  0  0  0
  161.5660  204.3330  146.9220 C   0  0  0  0  0  3  0  0  0  0  0  0
  161.2050  204.1730  148.2710 C   0  0  0  0  0  0  0  0  0  0  0  0
  161.4600  206.7360  147.1240 C   0  0  0  0  0  3  0  0  0  0  0  0
  161.6920  205.6000  146.3520 C   0  0  0  0  0  0  0  0  0  0  0  0
  162.0570  205.7310  144.9840 N   0  0  0  0  0  1  0  0  0  0  0  0
  161.2060  201.6930  148.0960 C   0  0  0  0  0  3  0  0  0  0  0  0
  161.0330  200.6250  148.8990 N   0  0  0  0  0  0  0  0  0  0  0  0
  160.8050  201.1710  150.1130 C   0  0  0  0  0  3  0  0  0  0  0  0
  160.8370  202.5150  150.0570 N   0  0  0  0  0  0  0  0  0  0  0  0
  161.0880  202.8340  148.8000 N   0  0  0  0  0  0  0  0  0  0  0  0
  160.8320  205.7270  152.8760 C   0  0  0  0  0  2  0  0  0  0  0  0
  161.6990  206.5690  153.8050 C   0  0  0  0  0  2  0  0  0  0  0  0
  160.8640  207.4890  154.6350 C   0  0  0  0  0  0  0  0  0  0  0  0
  160.2440  207.0240  155.6290 O   0  0  0  0  0  0  0  0  0  0  0  0
  160.4550  212.1780  152.5360 O   0  0  0  0  0  0  0  0  0  0  0  0
  160.6920  209.4930  152.5700 S   0  0  0  0  0  0  0  0  0  0  0  0
  160.6590  209.8190  155.2170 N   0  0  0  0  0  0  0  0  0  0  0  0
  160.7390  208.9140  154.2900 C   0  0  0  0  0  0  0  0  0  0  0  0
  160.5460  211.1370  153.2380 C   0  0  0  0  0  0  0  0  0  0  0  0
  160.4550  212.1520  155.3970 O   0  0  0  0  0  0  0  0  0  0  0  0
  160.5450  211.1230  154.6780 C   0  0  0  0  0  0  0  0  0  0  0  0
  1  2  2  0  0  0  0
  2 15  1  0  0  0  0
  3  1  1  0  0  0  0
  4  3  1  0  0  0  0
  5  6  1  0  0  0  0
  6 14  1  0  0  0  0
  6  3  2  0  0  0  0
  7  4  2  0  0  0  0
  8  5  2  0  0  0  0
  8  7  1  0  0  0  0
  9  8  1  0  0  0  0
 10 14  1  0  0  0  0
 10 11  2  0  0  0  0
 11 12  1  0  0  0  0
 13 12  2  0  0  0  0
 14 13  1  0  0  0  0
 15 16  1  0  0  0  0
 16 17  1  0  0  0  0
 17 18  2  0  0  0  0
 19 23  2  0  0  0  0
 20 23  1  0  0  0  0
 20 22  1  0  0  0  0
 22 17  1  0  0  0  0
 22 21  2  0  0  0  0
 23 25  1  0  0  0  0
 25 21  1  0  0  0  0
 25 24  2  0  0  0  0
M  END
>  <MODEL>
7

>  <REMARK>
 VINA RESULT:      -7.6      4.471      7.835
  Name = 
  6 active torsions:
  status: ('A' for Active; 'I' for Inactive)
    1  A    between atoms: C_1  and  C_2
    2  A    between atoms: C_7  and  C_10
    3  A    between atoms: C_7  and  C_25
    4  A    between atoms: C_10  and  C_16
    5  A    between atoms: C_13  and  N_21
    6  A    between atoms: C_14  and  C_16
                            x       y       z     vdW  Elec       q    Type
                         _______ _______ _______ _____ _____    ______ ____

>  <TORSDO>
F 6

$$$$
=
 OpenBabel11072411363D

 25 27  0  0  0  0  0  0  0  0999 V2000
  160.8050  205.2240  149.1060 C   0  0  0  0  0  3  0  0  0  0  0  0
  161.1570  205.7040  150.2960 C   0  0  0  0  0  3  0  0  0  0  0  0
  160.9670  203.8090  148.7230 C   0  0  0  0  0  0  0  0  0  0  0  0
  160.7520  202.8090  149.6880 C   0  0  0  0  0  3  0  0  0  0  0  0
  161.4650  202.0640  147.1020 C   0  0  0  0  0  3  0  0  0  0  0  0
  161.3350  203.4320  147.4020 C   0  0  0  0  0  0  0  0  0  0  0  0
  160.8890  201.4590  149.3660 C   0  0  0  0  0  3  0  0  0  0  0  0
  161.2460  201.0870  148.0720 C   0  0  0  0  0  0  0  0  0  0  0  0
  161.3870  199.7120  147.7410 N   0  0  0  0  0  1  0  0  0  0  0  0
  162.7470  205.0180  146.1090 C   0  0  0  0  0  3  0  0  0  0  0  0
  162.6230  205.8560  145.0620 N   0  0  0  0  0  0  0  0  0  0  0  0
  161.3330  205.7120  144.6880 C   0  0  0  0  0  3  0  0  0  0  0  0
  160.6940  204.8250  145.4720 N   0  0  0  0  0  0  0  0  0  0  0  0
  161.5790  204.3950  146.3530 N   0  0  0  0  0  0  0  0  0  0  0  0
  160.9710  207.1480  150.6230 C   0  0  0  0  0  2  0  0  0  0  0  0
  162.1590  207.7050  151.3990 C   0  0  0  0  0  2  0  0  0  0  0  0
  161.8260  209.0230  152.0190 C   0  0  0  0  0  0  0  0  0  0  0  0
  162.0870  210.0810  151.3860 O   0  0  0  0  0  0  0  0  0  0  0  0
  159.6890  210.2110  156.5550 O   0  0  0  0  0  0  0  0  0  0  0  0
  160.7210  210.6730  154.1080 S   0  0  0  0  0  0  0  0  0  0  0  0
  161.0340  208.0230  154.0650 N   0  0  0  0  0  0  0  0  0  0  0  0
  161.2250  209.0970  153.3600 C   0  0  0  0  0  0  0  0  0  0  0  0
  160.2030  209.7160  155.5180 C   0  0  0  0  0  0  0  0  0  0  0  0
  160.1740  207.4170  156.1650 O   0  0  0  0  0  0  0  0  0  0  0  0
  160.4470  208.3110  155.3200 C   0  0  0  0  0  0  0  0  0  0  0  0
  1  2  2  0  0  0  0
  2 15  1  0  0  0  0
  3  1  1  0  0  0  0
  3  4  1  0  0  0  0
  5  6  1  0  0  0  0
  5  8  2  0  0  0  0
  6  3  2  0  0  0  0
  7  4  2  0  0  0  0
  8  7  1  0  0  0  0
  9  8  1  0  0  0  0
 10 14  1  0  0  0  0
 11 10  2  0  0  0  0
 12 11  1  0  0  0  0
 12 13  2  0  0  0  0
 13 14  1  0  0  0  0
 14  6  1  0  0  0  0
 15 16  1  0  0  0  0
 16 17  1  0  0  0  0
 17 22  1  0  0  0  0
 18 17  2  0  0  0  0
 20 23  1  0  0  0  0
 21 25  1  0  0  0  0
 22 21  2  0  0  0  0
 22 20  1  0  0  0  0
 23 19  2  0  0  0  0
 25 23  1  0  0  0  0
 25 24  2  0  0  0  0
M  END
>  <MODEL>
8

>  <REMARK>
 VINA RESULT:      -7.6      4.433      7.970
  Name = 
  6 active torsions:
  status: ('A' for Active; 'I' for Inactive)
    1  A    between atoms: C_1  and  C_2
    2  A    between atoms: C_7  and  C_10
    3  A    between atoms: C_7  and  C_25
    4  A    between atoms: C_10  and  C_16
    5  A    between atoms: C_13  and  N_21
    6  A    between atoms: C_14  and  C_16
                            x       y       z     vdW  Elec       q    Type
                         _______ _______ _______ _____ _____    ______ ____

>  <TORSDO>
F 6

$$$$
=
 OpenBabel11072411363D

 25 27  0  0  0  0  0  0  0  0999 V2000
  160.8140  204.8040  150.2790 C   0  0  0  0  0  3  0  0  0  0  0  0
  161.4670  205.4690  151.2290 C   0  0  0  0  0  3  0  0  0  0  0  0
  161.0250  205.0360  148.8380 C   0  0  0  0  0  0  0  0  0  0  0  0
  161.0490  206.3550  148.3520 C   0  0  0  0  0  3  0  0  0  0  0  0
  161.4100  204.2490  146.5680 C   0  0  0  0  0  3  0  0  0  0  0  0
  161.2070  203.9570  147.9290 C   0  0  0  0  0  0  0  0  0  0  0  0
  161.2510  206.6180  146.9980 C   0  0  0  0  0  3  0  0  0  0  0  0
  161.4310  205.5640  146.1050 C   0  0  0  0  0  0  0  0  0  0  0  0
  161.6370  205.8280  144.7240 N   0  0  0  0  0  1  0  0  0  0  0  0
  161.2490  201.5040  147.5300 C   0  0  0  0  0  3  0  0  0  0  0  0
  161.2060  200.3640  148.2470 N   0  0  0  0  0  0  0  0  0  0  0  0
  161.1200  200.7930  149.5240 C   0  0  0  0  0  3  0  0  0  0  0  0
  161.1090  202.1370  149.5880 N   0  0  0  0  0  0  0  0  0  0  0  0
  161.1910  202.5730  148.3440 N   0  0  0  0  0  0  0  0  0  0  0  0
  161.2060  205.1920  152.6720 C   0  0  0  0  0  2  0  0  0  0  0  0
  161.9050  206.2040  153.5730 C   0  0  0  0  0  2  0  0  0  0  0  0
  160.9380  207.2140  154.0990 C   0  0  0  0  0  0  0  0  0  0  0  0
  160.1450  206.8810  155.0200 O   0  0  0  0  0  0  0  0  0  0  0  0
  160.3550  212.2060  152.9600 O   0  0  0  0  0  0  0  0  0  0  0  0
  160.1860  209.9730  154.4610 S   0  0  0  0  0  0  0  0  0  0  0  0
  161.3460  208.8230  152.3510 N   0  0  0  0  0  0  0  0  0  0  0  0
  160.8870  208.5740  153.5390 C   0  0  0  0  0  0  0  0  0  0  0  0
  160.5850  210.9710  153.0410 C   0  0  0  0  0  0  0  0  0  0  0  0
  161.5810  210.6510  150.8940 O   0  0  0  0  0  0  0  0  0  0  0  0
  161.2030  210.1880  152.0020 C   0  0  0  0  0  0  0  0  0  0  0  0
  1  2  2  0  0  0  0
  2 15  1  0  0  0  0
  3  1  1  0  0  0  0
  4  3  1  0  0  0  0
  5  6  1  0  0  0  0
  6 14  1  0  0  0  0
  6  3  2  0  0  0  0
  7  4  2  0  0  0  0
  8  5  2  0  0  0  0
  8  7  1  0  0  0  0
  9  8  1  0  0  0  0
 10 11  2  0  0  0  0
 10 14  1  0  0  0  0
 11 12  1  0  0  0  0
 12 13  2  0  0  0  0
 14 13  1  0  0  0  0
 15 16  1  0  0  0  0
 16 17  1  0  0  0  0
 17 18  2  0  0  0  0
 19 23  2  0  0  0  0
 21 22  2  0  0  0  0
 22 17  1  0  0  0  0
 22 20  1  0  0  0  0
 23 20  1  0  0  0  0
 24 25  2  0  0  0  0
 25 21  1  0  0  0  0
 25 23  1  0  0  0  0
M  END
>  <MODEL>
9

>  <REMARK>
 VINA RESULT:      -7.5      4.128      7.459
  Name = 
  6 active torsions:
  status: ('A' for Active; 'I' for Inactive)
    1  A    between atoms: C_1  and  C_2
    2  A    between atoms: C_7  and  C_10
    3  A    between atoms: C_7  and  C_25
    4  A    between atoms: C_10  and  C_16
    5  A    between atoms: C_13  and  N_21
    6  A    between atoms: C_14  and  C_16
                            x       y       z     vdW  Elec       q    Type
                         _______ _______ _______ _____ _____    ______ ____

>  <TORSDO>
F 6

$$$$
