=
 OpenBabel11072410213D

 33 35  0  0  1  0  0  0  0  0999 V2000
  158.2160  210.4850  155.6170 C   0  0  0  0  0  0  0  0  0  0  0  0
  160.0930  213.3300  150.5180 C   0  0  2  0  0  3  0  0  0  0  0  0
  160.6310  211.4270  152.0150 C   0  0  0  0  0  3  0  0  0  0  0  0
  161.5940  209.3500  151.2230 C   0  0  0  0  0  0  0  0  0  0  0  0
  162.1320  207.9860  151.5650 C   0  0  0  0  0  2  0  0  0  0  0  0
  161.0730  210.1330  152.2610 C   0  0  0  0  0  0  0  0  0  0  0  0
  161.6640  209.8860  149.9230 C   0  0  0  0  0  0  0  0  0  0  0  0
  160.8730  209.5690  153.5550 N   0  0  0  0  0  0  0  0  0  0  0  0
  157.8710  212.5550  152.4330 O   0  0  0  0  0  0  0  0  0  0  0  0
  157.7780  213.5880  151.4870 C   0  0  1  0  0  3  0  0  0  0  0  0
  161.0050  208.3000  153.8090 C   0  0  0  0  0  0  0  0  0  0  0  0
  160.6840  211.9660  150.7330 C   0  0  0  0  0  0  0  0  0  0  0  0
  158.5950  213.2470  150.2460 C   0  0  0  0  0  2  0  0  0  0  0  0
  156.9580  212.3890  154.6510 C   0  0  0  0  0  2  0  0  0  0  0  0
  160.5960  207.7980  155.0870 N   0  0  0  0  0  2  0  0  0  0  0  0
  161.3340  207.3290  152.7020 C   0  0  0  0  0  2  0  0  0  0  0  0
  157.3200  211.0120  154.6830 O   0  0  0  0  0  0  0  0  0  0  0  0
  160.7510  209.6330  156.5120 O   0  0  0  0  0  1  0  0  0  0  0  0
  162.2160  209.0960  148.7870 C   0  0  0  0  0  1  0  0  0  0  0  0
  159.8830  208.6420  156.0430 C   0  0  1  0  0  3  0  0  0  0  0  0
  161.1870  211.1820  149.6800 C   0  0  0  0  0  3  0  0  0  0  0  0
  158.5510  211.1540  156.6330 O   0  0  0  0  0  0  0  0  0  0  0  0
  157.8560  213.1740  153.6920 C   0  0  1  0  0  3  0  0  0  0  0  0
  158.7470  209.2120  155.3830 O   0  0  0  0  0  0  0  0  0  0  0  0
  160.1480  214.4520  148.2750 O   0  0  0  0  0  0  0  0  0  0  0  0
  160.7970  214.1160  149.4570 C   0  0  0  0  0  0  0  0  0  0  0  0
  161.9980  214.4530  149.6260 O   0  0  0  0  0  1  0  0  0  0  0  0
  156.3770  213.7690  151.0900 C   0  0  0  0  0  0  0  0  0  0  0  0
  155.2720  213.9100  150.7770 N   0  0  0  0  0  0  0  0  0  0  0  0
  159.2720  213.2900  154.2420 C   0  0  0  0  0  2  0  0  0  0  0  0
  159.3810  214.4320  155.2410 C   0  0  0  0  0  2  0  0  0  0  0  0
  160.8440  213.1460  156.5770 O   0  0  0  0  0  0  0  0  0  0  0  0
  159.9410  213.9660  156.5460 C   0  0  0  0  0  3  0  0  0  0  0  0
  1 22  2  0  0  0  0
  2 26  1  6  0  0  0
  2 12  1  0  0  0  0
  3  6  1  0  0  0  0
  4  5  1  0  0  0  0
  4  6  2  0  0  0  0
  5 16  1  0  0  0  0
  6  8  1  0  0  0  0
  7  4  1  0  0  0  0
  8 11  2  0  0  0  0
  9 23  1  0  0  0  0
 10 28  1  6  0  0  0
 10  9  1  0  0  0  0
 11 15  1  0  0  0  0
 12  3  2  0  0  0  0
 13  2  1  0  0  0  0
 13 10  1  0  0  0  0
 14 17  1  0  0  0  0
 15 20  1  0  0  0  0
 16 11  1  0  0  0  0
 17  1  1  0  0  0  0
 19  7  1  0  0  0  0
 20 18  1  6  0  0  0
 21  7  2  0  0  0  0
 21 12  1  0  0  0  0
 23 30  1  1  0  0  0
 23 14  1  0  0  0  0
 24  1  1  0  0  0  0
 24 20  1  0  0  0  0
 25 26  2  0  0  0  0
 26 27  1  0  0  0  0
 29 28  3  0  0  0  0
 30 31  1  0  0  0  0
 31 33  1  0  0  0  0
 33 32  2  0  0  0  0
M  END
>  <MODEL>
1

>  <REMARK>
 VINA RESULT:      -2.8      0.000      0.000
  Name = 
  5 active torsions:
  status: ('A' for Active; 'I' for Inactive)
    1  A    between atoms: C_2  and  C_5
    2  A    between atoms: C_7  and  C_14
    3  A    between atoms: C_7  and  C_30
    4  A    between atoms: C_14  and  C_20
    5  A    between atoms: C_15  and  C_23
                            x       y       z     vdW  Elec       q    Type
                         _______ _______ _______ _____ _____    ______ ____

>  <TORSDO>
F 5

$$$$
=
 OpenBabel11072410213D

 33 35  0  0  1  0  0  0  0  0999 V2000
  159.6980  208.9310  155.4700 C   0  0  0  0  0  0  0  0  0  0  0  0
  161.5660  211.6680  150.3100 C   0  0  2  0  0  3  0  0  0  0  0  0
  161.6370  209.5040  151.5200 C   0  0  0  0  0  3  0  0  0  0  0  0
  161.6450  207.3570  150.3970 C   0  0  0  0  0  0  0  0  0  0  0  0
  161.7120  205.8580  150.5210 C   0  0  0  0  0  2  0  0  0  0  0  0
  161.6240  208.1150  151.5750 C   0  0  0  0  0  0  0  0  0  0  0  0
  161.6790  208.0150  149.1530 C   0  0  0  0  0  0  0  0  0  0  0  0
  161.4600  207.4760  152.8380 N   0  0  0  0  0  0  0  0  0  0  0  0
  159.5750  211.4220  152.5860 O   0  0  0  0  0  0  0  0  0  0  0  0
  159.6970  212.5480  151.7570 C   0  0  1  0  0  3  0  0  0  0  0  0
  161.1720  206.2140  152.9670 C   0  0  0  0  0  0  0  0  0  0  0  0
  161.6590  210.1680  150.2980 C   0  0  0  0  0  0  0  0  0  0  0  0
  160.1130  212.1310  150.3510 C   0  0  0  0  0  2  0  0  0  0  0  0
  159.0560  211.2620  154.9280 C   0  0  0  0  0  2  0  0  0  0  0  0
  160.8360  205.7030  154.2630 N   0  0  0  0  0  2  0  0  0  0  0  0
  160.9390  205.3540  151.7490 C   0  0  0  0  0  2  0  0  0  0  0  0
  158.9040  209.8530  154.7850 O   0  0  0  0  0  0  0  0  0  0  0  0
  161.8750  207.1610  155.7530 O   0  0  0  0  0  1  0  0  0  0  0  0
  161.7110  207.2540  147.8730 C   0  0  0  0  0  1  0  0  0  0  0  0
  160.6450  206.5950  155.4050 C   0  0  1  0  0  3  0  0  0  0  0  0
  161.6620  209.4170  149.1090 C   0  0  0  0  0  3  0  0  0  0  0  0
  160.4170  209.2980  156.4390 O   0  0  0  0  0  0  0  0  0  0  0  0
  159.9970  211.8270  153.8620 C   0  0  1  0  0  3  0  0  0  0  0  0
  159.6920  207.5990  155.0400 O   0  0  0  0  0  0  0  0  0  0  0  0
  161.8860  213.5240  148.6530 O   0  0  0  0  0  0  0  0  0  0  0  0
  162.3120  212.3120  149.1840 C   0  0  0  0  0  0  0  0  0  0  0  0
  163.3190  211.7380  148.6950 O   0  0  0  0  0  1  0  0  0  0  0  0
  158.4060  213.2420  151.6760 C   0  0  0  0  0  0  0  0  0  0  0  0
  157.3890  213.7890  151.6130 N   0  0  0  0  0  0  0  0  0  0  0  0
  161.4330  211.3820  154.1100 C   0  0  0  0  0  2  0  0  0  0  0  0
  161.8160  211.5540  155.5730 C   0  0  0  0  0  2  0  0  0  0  0  0
  163.4770  210.7510  157.0470 O   0  0  0  0  0  0  0  0  0  0  0  0
  163.0850  210.8350  155.8950 C   0  0  0  0  0  3  0  0  0  0  0  0
  1 22  2  0  0  0  0
  2 26  1  6  0  0  0
  2 13  1  0  0  0  0
  3  6  1  0  0  0  0
  4  5  1  0  0  0  0
  4  6  2  0  0  0  0
  5 16  1  0  0  0  0
  6  8  1  0  0  0  0
  7  4  1  0  0  0  0
  8 11  2  0  0  0  0
  9 23  1  0  0  0  0
 10 28  1  6  0  0  0
 10  9  1  0  0  0  0
 11 15  1  0  0  0  0
 12  2  1  0  0  0  0
 12  3  2  0  0  0  0
 13 10  1  0  0  0  0
 15 20  1  0  0  0  0
 16 11  1  0  0  0  0
 17 14  1  0  0  0  0
 17  1  1  0  0  0  0
 19  7  1  0  0  0  0
 20 18  1  6  0  0  0
 21  7  2  0  0  0  0
 21 12  1  0  0  0  0
 23 30  1  1  0  0  0
 23 14  1  0  0  0  0
 24 20  1  0  0  0  0
 24  1  1  0  0  0  0
 25 26  2  0  0  0  0
 27 26  1  0  0  0  0
 29 28  3  0  0  0  0
 30 31  1  0  0  0  0
 31 33  1  0  0  0  0
 33 32  2  0  0  0  0
M  END
>  <MODEL>
2

>  <REMARK>
 VINA RESULT:      -2.0      1.922      2.489
  Name = 
  5 active torsions:
  status: ('A' for Active; 'I' for Inactive)
    1  A    between atoms: C_2  and  C_5
    2  A    between atoms: C_7  and  C_14
    3  A    between atoms: C_7  and  C_30
    4  A    between atoms: C_14  and  C_20
    5  A    between atoms: C_15  and  C_23
                            x       y       z     vdW  Elec       q    Type
                         _______ _______ _______ _____ _____    ______ ____

>  <TORSDO>
F 5

$$$$
=
 OpenBabel11072410213D

 33 35  0  0  1  0  0  0  0  0999 V2000
  161.6190  211.4570  148.8950 C   0  0  0  0  0  0  0  0  0  0  0  0
  160.2730  209.7090  154.6180 C   0  0  2  0  0  3  0  0  0  0  0  0
  159.8830  211.5290  152.9790 C   0  0  0  0  0  3  0  0  0  0  0  0
  157.8190  212.7930  152.8690 C   0  0  0  0  0  0  0  0  0  0  0  0
  157.0460  213.9120  152.2220 C   0  0  0  0  0  2  0  0  0  0  0  0
  159.0970  212.5020  152.3730 C   0  0  0  0  0  0  0  0  0  0  0  0
  157.3350  212.0880  153.9870 C   0  0  0  0  0  0  0  0  0  0  0  0
  159.5560  213.1090  151.1680 N   0  0  0  0  0  0  0  0  0  0  0  0
  160.9910  209.0120  151.7530 O   0  0  0  0  0  0  0  0  0  0  0  0
  161.1130  208.1300  152.8380 C   0  0  1  0  0  3  0  0  0  0  0  0
  158.7920  213.8220  150.3930 C   0  0  0  0  0  0  0  0  0  0  0  0
  159.4140  210.8170  154.0790 C   0  0  0  0  0  0  0  0  0  0  0  0
  160.0240  208.4030  153.8700 C   0  0  0  0  0  2  0  0  0  0  0  0
  162.3660  209.2740  149.7980 C   0  0  0  0  0  2  0  0  0  0  0  0
  159.2850  214.2290  149.1100 N   0  0  0  0  0  2  0  0  0  0  0  0
  157.3290  214.0010  150.7150 C   0  0  0  0  0  2  0  0  0  0  0  0
  161.3740  210.1230  149.2300 O   0  0  0  0  0  0  0  0  0  0  0  0
  161.6020  214.2400  149.3510 O   0  0  0  0  0  1  0  0  0  0  0  0
  155.9860  212.3660  154.5550 C   0  0  0  0  0  1  0  0  0  0  0  0
  160.5520  213.7210  148.5870 C   0  0  1  0  0  3  0  0  0  0  0  0
  158.1260  211.0880  154.5720 C   0  0  0  0  0  3  0  0  0  0  0  0
  162.7990  211.9000  148.8450 O   0  0  0  0  0  0  0  0  0  0  0  0
  162.2980  209.2920  151.3270 C   0  0  1  0  0  3  0  0  0  0  0  0
  160.5230  212.2910  148.6420 O   0  0  0  0  0  0  0  0  0  0  0  0
  160.5010  210.5400  156.9730 O   0  0  0  0  0  1  0  0  0  0  0  0
  160.1360  209.5250  156.0970 C   0  0  0  0  0  0  0  0  0  0  0  0
  159.7120  208.4320  156.5520 O   0  0  0  0  0  0  0  0  0  0  0  0
  160.9740  206.7470  152.3670 C   0  0  0  0  0  0  0  0  0  0  0  0
  160.8650  205.6570  151.9950 N   0  0  0  0  0  0  0  0  0  0  0  0
  162.7590  210.6360  151.8780 C   0  0  0  0  0  2  0  0  0  0  0  0
  163.6920  210.4530  153.0650 C   0  0  0  0  0  2  0  0  0  0  0  0
  163.6320  210.7960  155.4010 O   0  0  0  0  0  0  0  0  0  0  0  0
  163.0050  210.7640  154.3550 C   0  0  0  0  0  3  0  0  0  0  0  0
  1 17  1  0  0  0  0
  2 26  1  1  0  0  0
  3 12  1  0  0  0  0
  4  7  2  0  0  0  0
  5  4  1  0  0  0  0
  6  4  1  0  0  0  0
  6  3  2  0  0  0  0
  7 19  1  0  0  0  0
  7 21  1  0  0  0  0
  8  6  1  0  0  0  0
  9 10  1  0  0  0  0
 10 28  1  6  0  0  0
 10 13  1  0  0  0  0
 11 16  1  0  0  0  0
 11  8  2  0  0  0  0
 12 21  2  0  0  0  0
 12  2  1  0  0  0  0
 13  2  1  0  0  0  0
 14 23  1  0  0  0  0
 15 11  1  0  0  0  0
 16  5  1  0  0  0  0
 17 14  1  0  0  0  0
 20 24  1  0  0  0  0
 20 15  1  0  0  0  0
 20 18  1  1  0  0  0
 22  1  2  0  0  0  0
 23  9  1  0  0  0  0
 23 30  1  6  0  0  0
 24  1  1  0  0  0  0
 26 27  2  0  0  0  0
 26 25  1  0  0  0  0
 29 28  3  0  0  0  0
 30 31  1  0  0  0  0
 31 33  1  0  0  0  0
 33 32  2  0  0  0  0
M  END
>  <MODEL>
3

>  <REMARK>
 VINA RESULT:      -1.4      2.218      7.046
  Name = 
  5 active torsions:
  status: ('A' for Active; 'I' for Inactive)
    1  A    between atoms: C_2  and  C_5
    2  A    between atoms: C_7  and  C_14
    3  A    between atoms: C_7  and  C_30
    4  A    between atoms: C_14  and  C_20
    5  A    between atoms: C_15  and  C_23
                            x       y       z     vdW  Elec       q    Type
                         _______ _______ _______ _____ _____    ______ ____

>  <TORSDO>
F 5

$$$$
=
 OpenBabel11072410213D

 33 35  0  0  1  0  0  0  0  0999 V2000
  162.1460  209.7980  150.6640 C   0  0  0  0  0  0  0  0  0  0  0  0
  158.9750  211.8180  155.5090 C   0  0  2  0  0  3  0  0  0  0  0  0
  159.5770  212.4030  153.1750 C   0  0  0  0  0  3  0  0  0  0  0  0
  158.0960  213.6130  151.6880 C   0  0  0  0  0  0  0  0  0  0  0  0
  157.8880  214.2430  150.3360 C   0  0  0  0  0  2  0  0  0  0  0  0
  159.3020  212.9400  151.9230 C   0  0  0  0  0  0  0  0  0  0  0  0
  157.1610  213.7400  152.7330 C   0  0  0  0  0  0  0  0  0  0  0  0
  160.2050  212.6870  150.8500 N   0  0  0  0  0  0  0  0  0  0  0  0
  160.1180  209.5270  153.8820 O   0  0  0  0  0  0  0  0  0  0  0  0
  159.6940  209.4180  155.2150 C   0  0  1  0  0  3  0  0  0  0  0  0
  159.9120  212.9140  149.6030 C   0  0  0  0  0  0  0  0  0  0  0  0
  158.6580  212.5110  154.2150 C   0  0  0  0  0  0  0  0  0  0  0  0
  158.5260  210.3610  155.4790 C   0  0  0  0  0  2  0  0  0  0  0  0
  161.9410  208.4550  152.7360 C   0  0  0  0  0  2  0  0  0  0  0  0
  160.8030  212.4500  148.5810 N   0  0  0  0  0  2  0  0  0  0  0  0
  158.5430  213.4180  149.2180 C   0  0  0  0  0  2  0  0  0  0  0  0
  161.4290  208.9380  151.4970 O   0  0  0  0  0  0  0  0  0  0  0  0
  162.8780  212.3190  149.6310 O   0  0  0  0  0  1  0  0  0  0  0  0
  155.8680  214.4530  152.5350 C   0  0  0  0  0  1  0  0  0  0  0  0
  161.9390  211.5870  148.8980 C   0  0  1  0  0  3  0  0  0  0  0  0
  157.4370  213.1680  153.9840 C   0  0  0  0  0  3  0  0  0  0  0  0
  163.3810  209.9870  150.8460 O   0  0  0  0  0  0  0  0  0  0  0  0
  161.5110  209.3530  153.8980 C   0  0  1  0  0  3  0  0  0  0  0  0
  161.4580  210.4610  149.6410 O   0  0  0  0  0  0  0  0  0  0  0  0
  157.2130  212.1610  157.2610 O   0  0  0  0  0  1  0  0  0  0  0  0
  158.4320  212.5320  156.7070 C   0  0  0  0  0  0  0  0  0  0  0  0
  159.0730  213.4950  157.2010 O   0  0  0  0  0  0  0  0  0  0  0  0
  159.2560  208.0430  155.4820 C   0  0  0  0  0  0  0  0  0  0  0  0
  158.9090  206.9590  155.6920 N   0  0  0  0  0  0  0  0  0  0  0  0
  162.2140  210.7030  153.8340 C   0  0  0  0  0  2  0  0  0  0  0  0
  163.1600  210.8870  155.0110 C   0  0  0  0  0  2  0  0  0  0  0  0
  163.0610  210.0100  157.2020 O   0  0  0  0  0  0  0  0  0  0  0  0
  162.4780  210.6050  156.3100 C   0  0  0  0  0  3  0  0  0  0  0  0
  1 22  2  0  0  0  0
  1 17  1  0  0  0  0
  2 26  1  1  0  0  0
  3 12  1  0  0  0  0
  4  6  1  0  0  0  0
  4  7  2  0  0  0  0
  5  4  1  0  0  0  0
  6  3  2  0  0  0  0
  7 21  1  0  0  0  0
  8  6  1  0  0  0  0
  9 23  1  0  0  0  0
  9 10  1  0  0  0  0
 10 13  1  0  0  0  0
 10 28  1  6  0  0  0
 11  8  2  0  0  0  0
 12  2  1  0  0  0  0
 13  2  1  0  0  0  0
 14 23  1  0  0  0  0
 15 20  1  0  0  0  0
 15 11  1  0  0  0  0
 16 11  1  0  0  0  0
 16  5  1  0  0  0  0
 17 14  1  0  0  0  0
 19  7  1  0  0  0  0
 20 18  1  1  0  0  0
 20 24  1  0  0  0  0
 21 12  2  0  0  0  0
 23 30  1  6  0  0  0
 24  1  1  0  0  0  0
 26 27  2  0  0  0  0
 26 25  1  0  0  0  0
 28 29  3  0  0  0  0
 30 31  1  0  0  0  0
 31 33  1  0  0  0  0
 33 32  2  0  0  0  0
M  END
>  <MODEL>
4

>  <REMARK>
 VINA RESULT:      -0.6      2.429      6.484
  Name = 
  5 active torsions:
  status: ('A' for Active; 'I' for Inactive)
    1  A    between atoms: C_2  and  C_5
    2  A    between atoms: C_7  and  C_14
    3  A    between atoms: C_7  and  C_30
    4  A    between atoms: C_14  and  C_20
    5  A    between atoms: C_15  and  C_23
                            x       y       z     vdW  Elec       q    Type
                         _______ _______ _______ _____ _____    ______ ____

>  <TORSDO>
F 5

$$$$
=
 OpenBabel11072410213D

 33 35  0  0  1  0  0  0  0  0999 V2000
  160.4240  211.6750  146.9080 C   0  0  0  0  0  0  0  0  0  0  0  0
  161.2620  211.0640  152.9520 C   0  0  2  0  0  3  0  0  0  0  0  0
  160.0130  212.3890  151.2680 C   0  0  0  0  0  3  0  0  0  0  0  0
  157.7850  213.2600  151.6550 C   0  0  0  0  0  0  0  0  0  0  0  0
  156.6300  214.0730  151.1330 C   0  0  0  0  0  2  0  0  0  0  0  0
  158.8880  213.0680  150.8130 C   0  0  0  0  0  0  0  0  0  0  0  0
  157.8230  212.7570  152.9690 C   0  0  0  0  0  0  0  0  0  0  0  0
  158.8230  213.4540  149.4430 N   0  0  0  0  0  0  0  0  0  0  0  0
  161.2270  209.8650  150.1660 O   0  0  0  0  0  0  0  0  0  0  0  0
  161.8570  209.2770  151.2740 C   0  0  1  0  0  3  0  0  0  0  0  0
  157.7260  213.8480  148.8650 C   0  0  0  0  0  0  0  0  0  0  0  0
  160.0610  211.8770  152.5620 C   0  0  0  0  0  0  0  0  0  0  0  0
  161.0930  209.6020  152.5530 C   0  0  0  0  0  2  0  0  0  0  0  0
  161.8650  209.8930  147.8480 C   0  0  0  0  0  2  0  0  0  0  0  0
  157.7130  214.0290  147.4430 N   0  0  0  0  0  2  0  0  0  0  0  0
  156.4240  213.8650  149.6250 C   0  0  0  0  0  2  0  0  0  0  0  0
  160.5880  210.4290  147.5160 O   0  0  0  0  0  0  0  0  0  0  0  0
  159.9350  214.4530  146.8870 O   0  0  0  0  0  1  0  0  0  0  0  0
  156.6790  212.9430  153.9050 C   0  0  0  0  0  1  0  0  0  0  0  0
  158.8450  213.6200  146.6140 C   0  0  1  0  0  3  0  0  0  0  0  0
  158.9510  212.0480  153.4080 C   0  0  0  0  0  3  0  0  0  0  0  0
  161.4080  212.2740  146.3930 O   0  0  0  0  0  0  0  0  0  0  0  0
  162.2540  210.2410  149.2860 C   0  0  1  0  0  3  0  0  0  0  0  0
  159.1480  212.2510  146.9060 O   0  0  0  0  0  0  0  0  0  0  0  0
  160.8310  211.9630  155.2540 O   0  0  0  0  0  1  0  0  0  0  0  0
  161.6160  211.1970  154.4010 C   0  0  0  0  0  0  0  0  0  0  0  0
  162.6490  210.6310  154.8440 O   0  0  0  0  0  0  0  0  0  0  0  0
  161.8910  207.8200  151.1070 C   0  0  0  0  0  0  0  0  0  0  0  0
  161.9170  206.6700  150.9740 N   0  0  0  0  0  0  0  0  0  0  0  0
  162.5520  211.7290  149.4260 C   0  0  0  0  0  2  0  0  0  0  0  0
  163.5390  212.1930  148.3660 C   0  0  0  0  0  2  0  0  0  0  0  0
  162.6780  214.3920  148.3120 O   0  0  0  0  0  0  0  0  0  0  0  0
  163.6690  213.6820  148.3530 C   0  0  0  0  0  3  0  0  0  0  0  0
  1 17  1  0  0  0  0
  2 26  1  1  0  0  0
  3 12  1  0  0  0  0
  4  7  2  0  0  0  0
  5  4  1  0  0  0  0
  6  3  2  0  0  0  0
  6  4  1  0  0  0  0
  7 21  1  0  0  0  0
  7 19  1  0  0  0  0
  8  6  1  0  0  0  0
  9 10  1  0  0  0  0
 10 28  1  6  0  0  0
 10 13  1  0  0  0  0
 11  8  2  0  0  0  0
 11 16  1  0  0  0  0
 12  2  1  0  0  0  0
 12 21  2  0  0  0  0
 13  2  1  0  0  0  0
 14 23  1  0  0  0  0
 15 11  1  0  0  0  0
 16  5  1  0  0  0  0
 17 14  1  0  0  0  0
 20 18  1  1  0  0  0
 20 24  1  0  0  0  0
 20 15  1  0  0  0  0
 22  1  2  0  0  0  0
 23 30  1  6  0  0  0
 23  9  1  0  0  0  0
 24  1  1  0  0  0  0
 26 27  2  0  0  0  0
 26 25  1  0  0  0  0
 29 28  3  0  0  0  0
 31 30  1  0  0  0  0
 32 33  2  0  0  0  0
 33 31  1  0  0  0  0
M  END
>  <MODEL>
5

>  <REMARK>
 VINA RESULT:       0.0      2.370      7.531
  Name = 
  5 active torsions:
  status: ('A' for Active; 'I' for Inactive)
    1  A    between atoms: C_2  and  C_5
    2  A    between atoms: C_7  and  C_14
    3  A    between atoms: C_7  and  C_30
    4  A    between atoms: C_14  and  C_20
    5  A    between atoms: C_15  and  C_23
                            x       y       z     vdW  Elec       q    Type
                         _______ _______ _______ _____ _____    ______ ____

>  <TORSDO>
F 5

$$$$
