=
 OpenBabel11072412223D

 27 31  0  0  1  0  0  0  0  0999 V2000
  161.2040  207.1360  151.4190 C   0  0  0  0  0  3  0  0  0  0  0  0
  162.4150  207.2200  147.5820 C   0  0  0  0  0  3  0  0  0  0  0  0
  161.5560  206.2690  147.9840 C   0  0  0  0  0  0  0  0  0  0  0  0
  161.1760  203.7390  152.9390 C   0  0  0  0  0  3  0  0  0  0  0  0
  162.0690  209.7670  150.3150 O   0  0  0  0  0  1  0  0  0  0  0  0
  160.4280  204.8650  151.0000 C   0  0  0  0  0  0  0  0  0  0  0  0
  161.4620  202.8840  149.1570 C   0  0  2  0  0  3  0  0  0  0  0  0
  161.8480  202.9570  150.6460 C   0  0  0  0  0  2  0  0  0  0  0  0
  160.7400  205.8110  151.8710 C   0  0  0  0  0  0  0  0  0  0  0  0
  162.4950  208.4970  148.3540 C   0  0  0  0  0  3  0  0  0  0  0  0
  160.6010  206.4860  149.0970 C   0  0  2  0  0  3  0  0  0  0  0  0
  160.7050  203.5080  151.5000 C   0  0  1  0  0  3  0  0  0  0  0  0
  161.2010  207.4330  150.1150 C   0  0  0  0  0  0  0  0  0  0  0  0
  161.6530  204.8870  147.6370 N   0  0  0  0  0  0  0  0  0  0  0  0
  161.9290  208.5990  149.5720 C   0  0  0  0  0  0  0  0  0  0  0  0
  160.7820  204.1530  148.5720 C   0  0  2  0  0  3  0  0  0  0  0  0
  161.0870  205.2440  153.1930 C   0  0  0  0  0  3  0  0  0  0  0  0
  160.3770  205.1350  149.5950 N   0  0  0  0  0  0  0  0  0  0  0  0
  161.2140  200.5340  148.3540 O   0  0  0  0  0  0  0  0  0  0  0  0
  160.6240  201.6730  148.8860 C   0  0  0  0  0  0  0  0  0  0  0  0
  159.3910  201.6740  149.1370 O   0  0  0  0  0  1  0  0  0  0  0  0
  163.5090  204.5460  146.0160 C   0  0  0  0  0  1  0  0  0  0  0  0
  162.0030  204.4650  146.2790 C   0  0  1  0  0  3  0  0  0  0  0  0
  160.4520  202.8630  145.0760 C   0  0  0  0  0  0  0  0  0  0  0  0
  161.4950  203.1110  146.0230 N   0  0  0  0  0  2  0  0  0  0  0  0
  159.8510  201.6130  145.0150 O   0  0  0  0  0  1  0  0  0  0  0  0
  160.0420  203.7920  144.3220 O   0  0  0  0  0  0  0  0  0  0  0  0
  1  9  1  0  0  0  0
  2  3  2  0  0  0  0
  2 10  1  0  0  0  0
  4 17  2  0  0  0  0
  6 12  1  0  0  0  0
  6  9  2  0  0  0  0
  7 20  1  1  0  0  0
  7  8  1  0  0  0  0
  9 17  1  0  0  0  0
 10 15  2  0  0  0  0
 11  3  1  6  0  0  0
 11 18  1  0  0  0  0
 11 13  1  0  0  0  0
 12  8  1  6  0  0  0
 12  4  1  0  0  0  0
 13  1  2  0  0  0  0
 14  3  1  0  0  0  0
 15 13  1  0  0  0  0
 15  5  1  0  0  0  0
 16 14  1  6  0  0  0
 16  7  1  0  0  0  0
 16 18  1  0  0  0  0
 18  6  1  0  0  0  0
 19 20  2  0  0  0  0
 20 21  1  0  0  0  0
 23 22  1  1  0  0  0
 23 14  1  0  0  0  0
 24 25  1  0  0  0  0
 25 23  1  0  0  0  0
 26 24  1  0  0  0  0
 27 24  2  0  0  0  0
M  END
>  <MODEL>
1

>  <REMARK>
 VINA RESULT:      -9.0      0.000      0.000
  Name = 
  3 active torsions:
  status: ('A' for Active; 'I' for Inactive)
    1  A    between atoms: C_10  and  N_11
    2  A    between atoms: C_10  and  N_23
    3  A    between atoms: C_12  and  C_13
                            x       y       z     vdW  Elec       q    Type
                         _______ _______ _______ _____ _____    ______ ____

>  <TORSDO>
F 3

$$$$
=
 OpenBabel11072412223D

 27 31  0  0  1  0  0  0  0  0999 V2000
  161.1760  203.3340  148.4610 C   0  0  0  0  0  3  0  0  0  0  0  0
  161.2570  204.4910  152.3140 C   0  0  0  0  0  3  0  0  0  0  0  0
  160.9060  205.3750  151.3650 C   0  0  0  0  0  0  0  0  0  0  0  0
  162.6950  205.7760  146.1000 C   0  0  0  0  0  3  0  0  0  0  0  0
  160.7810  201.2250  150.5310 O   0  0  0  0  0  1  0  0  0  0  0  0
  161.1370  205.6980  147.8760 C   0  0  0  0  0  0  0  0  0  0  0  0
  162.2720  207.9570  149.2910 C   0  0  2  0  0  3  0  0  0  0  0  0
  162.9790  207.2220  148.1370 C   0  0  0  0  0  2  0  0  0  0  0  0
  161.3220  204.4440  147.5000 C   0  0  0  0  0  0  0  0  0  0  0  0
  161.0930  203.0310  152.0410 C   0  0  0  0  0  3  0  0  0  0  0  0
  160.2540  204.9580  150.1000 C   0  0  2  0  0  3  0  0  0  0  0  0
  161.9780  206.6520  147.1320 C   0  0  1  0  0  3  0  0  0  0  0  0
  160.7370  203.5800  149.6990 C   0  0  0  0  0  0  0  0  0  0  0  0
  161.3740  206.7210  151.2970 N   0  0  0  0  0  0  0  0  0  0  0  0
  160.8600  202.5890  150.7890 C   0  0  0  0  0  0  0  0  0  0  0  0
  161.0760  207.2060  149.9380 C   0  0  2  0  0  3  0  0  0  0  0  0
  162.1690  204.3540  146.2900 C   0  0  0  0  0  3  0  0  0  0  0  0
  160.6390  206.0190  149.1780 N   0  0  0  0  0  0  0  0  0  0  0  0
  162.1710  210.4220  149.6670 O   0  0  0  0  0  1  0  0  0  0  0  0
  161.8570  209.3310  148.8670 C   0  0  0  0  0  0  0  0  0  0  0  0
  161.2270  209.5110  147.7920 O   0  0  0  0  0  0  0  0  0  0  0  0
  160.9860  208.9800  152.2650 C   0  0  0  0  0  1  0  0  0  0  0  0
  161.4850  207.5520  152.4990 C   0  0  1  0  0  3  0  0  0  0  0  0
  160.8730  207.4240  154.9540 C   0  0  0  0  0  0  0  0  0  0  0  0
  160.7750  206.9210  153.6180 N   0  0  0  0  0  2  0  0  0  0  0  0
  160.3670  206.6850  156.0140 O   0  0  0  0  0  1  0  0  0  0  0  0
  161.4590  208.5220  155.1800 O   0  0  0  0  0  0  0  0  0  0  0  0
  1 13  2  0  0  0  0
  3  2  2  0  0  0  0
  4 17  2  0  0  0  0
  5 15  1  0  0  0  0
  6 18  1  0  0  0  0
  7 20  1  6  0  0  0
  7 16  1  0  0  0  0
  8  7  1  0  0  0  0
  9  6  2  0  0  0  0
  9  1  1  0  0  0  0
 10  2  1  0  0  0  0
 11 13  1  6  0  0  0
 11  3  1  0  0  0  0
 12  4  1  6  0  0  0
 12  6  1  0  0  0  0
 12  8  1  0  0  0  0
 13 15  1  0  0  0  0
 14  3  1  0  0  0  0
 14 23  1  0  0  0  0
 15 10  2  0  0  0  0
 16 18  1  6  0  0  0
 16 14  1  0  0  0  0
 17  9  1  0  0  0  0
 18 11  1  0  0  0  0
 20 19  1  0  0  0  0
 21 20  2  0  0  0  0
 23 22  1  6  0  0  0
 23 25  1  0  0  0  0
 24 27  2  0  0  0  0
 24 26  1  0  0  0  0
 25 24  1  0  0  0  0
M  END
>  <MODEL>
2

>  <REMARK>
 VINA RESULT:      -8.3      2.252      6.973
  Name = 
  3 active torsions:
  status: ('A' for Active; 'I' for Inactive)
    1  A    between atoms: C_10  and  N_11
    2  A    between atoms: C_10  and  N_23
    3  A    between atoms: C_12  and  C_13
                            x       y       z     vdW  Elec       q    Type
                         _______ _______ _______ _____ _____    ______ ____

>  <TORSDO>
F 3

$$$$
=
 OpenBabel11072412223D

 27 31  0  0  1  0  0  0  0  0999 V2000
  160.9430  204.9470  153.5370 C   0  0  0  0  0  3  0  0  0  0  0  0
  160.9030  204.8180  149.5150 C   0  0  0  0  0  3  0  0  0  0  0  0
  161.5560  205.8130  150.1390 C   0  0  0  0  0  0  0  0  0  0  0  0
  160.3430  208.3320  154.9620 C   0  0  0  0  0  3  0  0  0  0  0  0
  160.5810  202.2790  152.2580 O   0  0  0  0  0  1  0  0  0  0  0  0
  161.6820  207.2600  153.3360 C   0  0  0  0  0  0  0  0  0  0  0  0
  161.1200  209.1910  151.2510 C   0  0  2  0  0  3  0  0  0  0  0  0
  160.3230  209.0880  152.5650 C   0  0  0  0  0  2  0  0  0  0  0  0
  161.1830  206.2940  154.0890 C   0  0  0  0  0  0  0  0  0  0  0  0
  160.6730  203.5340  150.2440 C   0  0  0  0  0  3  0  0  0  0  0  0
  162.1570  205.6420  151.4830 C   0  0  2  0  0  3  0  0  0  0  0  0
  161.1980  208.5970  153.7190 C   0  0  1  0  0  3  0  0  0  0  0  0
  161.3410  204.6580  152.2940 C   0  0  0  0  0  0  0  0  0  0  0  0
  161.4880  207.1880  149.7630 N   0  0  0  0  0  0  0  0  0  0  0  0
  160.8660  203.4570  151.5750 C   0  0  0  0  0  0  0  0  0  0  0  0
  162.0080  207.9650  150.9020 C   0  0  2  0  0  3  0  0  0  0  0  0
  160.4360  206.8330  155.2480 C   0  0  0  0  0  3  0  0  0  0  0  0
  162.1520  207.0010  152.0100 N   0  0  0  0  0  0  0  0  0  0  0  0
  161.4510  211.5620  150.5470 O   0  0  0  0  0  0  0  0  0  0  0  0
  161.9330  210.4480  151.2210 C   0  0  0  0  0  0  0  0  0  0  0  0
  163.0470  210.5080  151.8040 O   0  0  0  0  0  1  0  0  0  0  0  0
  161.9140  209.0700  148.1910 C   0  0  0  0  0  1  0  0  0  0  0  0
  161.5250  207.5990  148.3570 C   0  0  1  0  0  3  0  0  0  0  0  0
  162.0030  206.0480  146.4110 C   0  0  0  0  0  0  0  0  0  0  0  0
  162.4280  206.7240  147.5990 N   0  0  0  0  0  2  0  0  0  0  0  0
  162.8060  205.0700  145.8430 O   0  0  0  0  0  0  0  0  0  0  0  0
  160.8750  206.3060  145.9000 O   0  0  0  0  0  1  0  0  0  0  0  0
  1  9  1  0  0  0  0
  2  3  2  0  0  0  0
  2 10  1  0  0  0  0
  4 17  2  0  0  0  0
  6 12  1  0  0  0  0
  6  9  2  0  0  0  0
  7 20  1  1  0  0  0
  7  8  1  0  0  0  0
  9 17  1  0  0  0  0
 10 15  2  0  0  0  0
 11  3  1  6  0  0  0
 11 18  1  0  0  0  0
 11 13  1  0  0  0  0
 12  8  1  6  0  0  0
 12  4  1  0  0  0  0
 13  1  2  0  0  0  0
 14  3  1  0  0  0  0
 15  5  1  0  0  0  0
 15 13  1  0  0  0  0
 16 14  1  6  0  0  0
 16  7  1  0  0  0  0
 16 18  1  0  0  0  0
 18  6  1  0  0  0  0
 19 20  2  0  0  0  0
 20 21  1  0  0  0  0
 23 22  1  1  0  0  0
 23 14  1  0  0  0  0
 24 25  1  0  0  0  0
 25 23  1  0  0  0  0
 26 24  2  0  0  0  0
 27 24  1  0  0  0  0
M  END
>  <MODEL>
3

>  <REMARK>
 VINA RESULT:      -7.5      2.282      5.441
  Name = 
  3 active torsions:
  status: ('A' for Active; 'I' for Inactive)
    1  A    between atoms: C_10  and  N_11
    2  A    between atoms: C_10  and  N_23
    3  A    between atoms: C_12  and  C_13
                            x       y       z     vdW  Elec       q    Type
                         _______ _______ _______ _____ _____    ______ ____

>  <TORSDO>
F 3

$$$$
=
 OpenBabel11072412223D

 27 31  0  0  1  0  0  0  0  0999 V2000
  161.6490  207.6100  147.2820 C   0  0  0  0  0  3  0  0  0  0  0  0
  161.7980  203.6020  147.6070 C   0  0  0  0  0  3  0  0  0  0  0  0
  161.1960  204.3220  148.5680 C   0  0  0  0  0  0  0  0  0  0  0  0
  162.4320  209.4290  150.4330 C   0  0  0  0  0  3  0  0  0  0  0  0
  161.8690  206.0400  144.7570 O   0  0  0  0  0  1  0  0  0  0  0  0
  161.0720  207.6610  149.6480 C   0  0  0  0  0  0  0  0  0  0  0  0
  161.8230  205.8250  151.7590 C   0  0  2  0  0  3  0  0  0  0  0  0
  162.5720  207.1350  151.4530 C   0  0  0  0  0  2  0  0  0  0  0  0
  161.4830  208.3090  148.5710 C   0  0  0  0  0  0  0  0  0  0  0  0
  161.9200  204.1830  146.2350 C   0  0  0  0  0  3  0  0  0  0  0  0
  160.5450  205.6240  148.2880 C   0  0  0  0  0  0  0  0  0  0  0  0
  161.6330  208.2060  150.8960 C   0  0  1  0  0  3  0  0  0  0  0  0
  161.2690  206.3340  147.1640 C   0  0  0  0  0  0  0  0  0  0  0  0
  161.3660  204.1090  149.9690 N   0  0  0  0  0  0  0  0  0  0  0  0
  161.6830  205.4920  146.0210 C   0  0  1  0  0  3  0  0  0  0  0  0
  160.8660  205.3180  150.6460 C   0  0  2  0  0  3  0  0  0  0  0  0
  162.2300  209.5370  148.9210 C   0  0  0  0  0  3  0  0  0  0  0  0
  160.6250  206.3040  149.5750 N   0  0  0  0  0  0  0  0  0  0  0  0
  160.6900  207.1640  153.5340 O   0  0  0  0  0  0  0  0  0  0  0  0
  161.0980  205.9230  153.0650 C   0  0  0  0  0  0  0  0  0  0  0  0
  160.8510  204.8910  153.7430 O   0  0  0  0  0  1  0  0  0  0  0  0
  161.9520  202.7430  151.9650 C   0  0  0  0  0  1  0  0  0  0  0  0
  161.3990  202.7590  150.5370 C   0  0  1  0  0  3  0  0  0  0  0  0
  159.6860  201.2490  149.4400 C   0  0  0  0  0  0  0  0  0  0  0  0
  160.0620  202.1540  150.4820 N   0  0  0  0  0  2  0  0  0  0  0  0
  158.3600  200.8660  149.2970 O   0  0  0  0  0  1  0  0  0  0  0  0
  160.5510  200.8290  148.6180 O   0  0  0  0  0  0  0  0  0  0  0  0
  1  9  1  0  0  0  0
  2  3  1  0  0  0  0
  3 14  1  0  0  0  0
  6 12  1  0  0  0  0
  7 20  1  1  0  0  0
  8  7  1  0  0  0  0
  9 17  1  0  0  0  0
  9  6  2  0  0  0  0
 10  2  2  0  0  0  0
 11  3  2  0  0  0  0
 11 18  1  0  0  0  0
 12  4  1  6  0  0  0
 12  8  1  0  0  0  0
 13  1  2  0  0  0  0
 13 11  1  0  0  0  0
 14 23  1  0  0  0  0
 14 16  1  0  0  0  0
 15  5  1  1  0  0  0
 15 10  1  0  0  0  0
 15 13  1  0  0  0  0
 16 18  1  6  0  0  0
 16  7  1  0  0  0  0
 17  4  2  0  0  0  0
 18  6  1  0  0  0  0
 20 19  2  0  0  0  0
 20 21  1  0  0  0  0
 23 22  1  1  0  0  0
 24 25  1  0  0  0  0
 25 23  1  0  0  0  0
 26 24  1  0  0  0  0
 27 24  2  0  0  0  0
M  END
>  <MODEL>
4

>  <REMARK>
 VINA RESULT:      -6.7      1.897      4.755
  Name = 
  3 active torsions:
  status: ('A' for Active; 'I' for Inactive)
    1  A    between atoms: C_10  and  N_11
    2  A    between atoms: C_10  and  N_23
    3  A    between atoms: C_12  and  C_13
                            x       y       z     vdW  Elec       q    Type
                         _______ _______ _______ _____ _____    ______ ____

>  <TORSDO>
F 3

$$$$
=
 OpenBabel11072412223D

 27 31  0  0  1  0  0  0  0  0999 V2000
  160.9070  202.9410  146.7950 C   0  0  0  0  0  3  0  0  0  0  0  0
  160.6110  206.9530  146.6870 C   0  0  0  0  0  3  0  0  0  0  0  0
  161.2800  206.3660  147.6930 C   0  0  0  0  0  0  0  0  0  0  0  0
  160.3270  201.4560  150.1580 C   0  0  0  0  0  3  0  0  0  0  0  0
  160.5210  204.2130  144.1260 O   0  0  0  0  0  1  0  0  0  0  0  0
  161.5810  203.1730  149.1240 C   0  0  0  0  0  0  0  0  0  0  0  0
  160.8450  205.2040  151.0540 C   0  0  2  0  0  3  0  0  0  0  0  0
  160.1370  203.8420  150.9270 C   0  0  0  0  0  2  0  0  0  0  0  0
  161.1530  202.3960  148.1440 C   0  0  0  0  0  0  0  0  0  0  0  0
  160.4560  206.2190  145.3940 C   0  0  0  0  0  3  0  0  0  0  0  0
  161.9710  205.0640  147.5280 C   0  0  0  0  0  0  0  0  0  0  0  0
  161.0940  202.7500  150.4480 C   0  0  1  0  0  3  0  0  0  0  0  0
  161.2300  204.2090  146.5210 C   0  0  0  0  0  0  0  0  0  0  0  0
  161.1590  206.7260  149.0680 N   0  0  0  0  0  0  0  0  0  0  0  0
  160.7360  204.9040  145.3140 C   0  0  1  0  0  3  0  0  0  0  0  0
  161.7350  205.6180  149.8500 C   0  0  2  0  0  3  0  0  0  0  0  0
  160.4710  201.1880  148.6600 C   0  0  0  0  0  3  0  0  0  0  0  0
  161.9700  204.5290  148.8830 N   0  0  0  0  0  0  0  0  0  0  0  0
  162.9720  205.6170  152.2920 O   0  0  0  0  0  0  0  0  0  0  0  0
  161.6260  205.2770  152.3290 C   0  0  0  0  0  0  0  0  0  0  0  0
  161.0760  205.0380  153.4360 O   0  0  0  0  0  1  0  0  0  0  0  0
  161.4430  208.3100  150.9660 C   0  0  0  0  0  1  0  0  0  0  0  0
  161.0960  208.1290  149.4870 C   0  0  1  0  0  3  0  0  0  0  0  0
  162.0990  210.3610  148.8320 C   0  0  0  0  0  0  0  0  0  0  0  0
  161.9650  208.9500  148.6360 N   0  0  0  0  0  2  0  0  0  0  0  0
  162.7550  211.1360  147.8860 O   0  0  0  0  0  0  0  0  0  0  0  0
  161.5810  210.9160  149.8450 O   0  0  0  0  0  1  0  0  0  0  0  0
  1  9  1  0  0  0  0
  2  3  1  0  0  0  0
  3 14  1  0  0  0  0
  6 12  1  0  0  0  0
  7 20  1  1  0  0  0
  8  7  1  0  0  0  0
  9 17  1  0  0  0  0
  9  6  2  0  0  0  0
 10  2  2  0  0  0  0
 11  3  2  0  0  0  0
 11 18  1  0  0  0  0
 12  4  1  6  0  0  0
 12  8  1  0  0  0  0
 13  1  2  0  0  0  0
 13 11  1  0  0  0  0
 14 23  1  0  0  0  0
 14 16  1  0  0  0  0
 15  5  1  1  0  0  0
 15 10  1  0  0  0  0
 15 13  1  0  0  0  0
 16 18  1  6  0  0  0
 16  7  1  0  0  0  0
 17  4  2  0  0  0  0
 18  6  1  0  0  0  0
 19 20  2  0  0  0  0
 20 21  1  0  0  0  0
 23 22  1  1  0  0  0
 24 27  1  0  0  0  0
 25 24  1  0  0  0  0
 25 23  1  0  0  0  0
 26 24  2  0  0  0  0
M  END
>  <MODEL>
5

>  <REMARK>
 VINA RESULT:      -6.7      2.115      5.391
  Name = 
  3 active torsions:
  status: ('A' for Active; 'I' for Inactive)
    1  A    between atoms: C_10  and  N_11
    2  A    between atoms: C_10  and  N_23
    3  A    between atoms: C_12  and  C_13
                            x       y       z     vdW  Elec       q    Type
                         _______ _______ _______ _____ _____    ______ ____

>  <TORSDO>
F 3

$$$$
=
 OpenBabel11072412223D

 27 31  0  0  1  0  0  0  0  0999 V2000
  161.9680  209.0760  148.4870 C   0  0  0  0  0  3  0  0  0  0  0  0
  160.9050  210.1280  152.2230 C   0  0  0  0  0  3  0  0  0  0  0  0
  161.4970  208.9400  152.0130 C   0  0  0  0  0  0  0  0  0  0  0  0
  161.1300  205.5630  147.5920 C   0  0  0  0  0  3  0  0  0  0  0  0
  161.7980  211.9900  149.0920 O   0  0  0  0  0  1  0  0  0  0  0  0
  162.1760  206.7950  149.3160 C   0  0  0  0  0  0  0  0  0  0  0  0
  160.7340  205.4830  151.4580 C   0  0  2  0  0  3  0  0  0  0  0  0
  160.3420  205.3850  149.9720 C   0  0  0  0  0  2  0  0  0  0  0  0
  162.0840  207.6190  148.2860 C   0  0  0  0  0  0  0  0  0  0  0  0
  161.1220  211.2290  151.2370 C   0  0  0  0  0  3  0  0  0  0  0  0
  162.4490  208.7180  150.8990 C   0  0  0  0  0  0  0  0  0  0  0  0
  161.5640  205.4800  149.0580 C   0  0  1  0  0  3  0  0  0  0  0  0
  162.0750  209.5880  149.7170 C   0  0  0  0  0  0  0  0  0  0  0  0
  161.0730  207.7080  152.5960 N   0  0  0  0  0  0  0  0  0  0  0  0
  161.6660  210.9730  150.0310 C   0  0  1  0  0  3  0  0  0  0  0  0
  161.7160  206.6300  151.8240 C   0  0  2  0  0  3  0  0  0  0  0  0
  161.5770  206.9310  147.0780 C   0  0  0  0  0  3  0  0  0  0  0  0
  162.3240  207.2870  150.6520 N   0  0  0  0  0  0  0  0  0  0  0  0
  160.3830  203.2570  152.5320 O   0  0  0  0  0  1  0  0  0  0  0  0
  161.2560  204.1710  151.9560 C   0  0  0  0  0  0  0  0  0  0  0  0
  162.4780  203.8850  151.8560 O   0  0  0  0  0  0  0  0  0  0  0  0
  160.8310  206.2210  154.5770 C   0  0  0  0  0  1  0  0  0  0  0  0
  160.6630  207.6290  154.0010 C   0  0  1  0  0  3  0  0  0  0  0  0
  160.7440  209.4470  155.7630 C   0  0  0  0  0  0  0  0  0  0  0  0
  161.3990  208.6180  154.7990 N   0  0  0  0  0  2  0  0  0  0  0  0
  161.4240  210.5100  156.3410 O   0  0  0  0  0  1  0  0  0  0  0  0
  159.5310  209.2450  156.0600 O   0  0  0  0  0  0  0  0  0  0  0  0
  1 13  2  0  0  0  0
  3  2  1  0  0  0  0
  3 14  1  0  0  0  0
  6 18  1  0  0  0  0
  7 16  1  0  0  0  0
  7 20  1  6  0  0  0
  8  7  1  0  0  0  0
  9  1  1  0  0  0  0
  9  6  2  0  0  0  0
 10  2  2  0  0  0  0
 11  3  2  0  0  0  0
 12  4  1  6  0  0  0
 12  6  1  0  0  0  0
 12  8  1  0  0  0  0
 13 15  1  0  0  0  0
 13 11  1  0  0  0  0
 14 23  1  0  0  0  0
 15  5  1  6  0  0  0
 15 10  1  0  0  0  0
 16 18  1  6  0  0  0
 16 14  1  0  0  0  0
 17  4  2  0  0  0  0
 17  9  1  0  0  0  0
 18 11  1  0  0  0  0
 20 19  1  0  0  0  0
 21 20  2  0  0  0  0
 23 22  1  1  0  0  0
 23 25  1  0  0  0  0
 24 27  2  0  0  0  0
 24 26  1  0  0  0  0
 25 24  1  0  0  0  0
M  END
>  <MODEL>
6

>  <REMARK>
 VINA RESULT:      -6.7      3.340      6.578
  Name = 
  3 active torsions:
  status: ('A' for Active; 'I' for Inactive)
    1  A    between atoms: C_10  and  N_11
    2  A    between atoms: C_10  and  N_23
    3  A    between atoms: C_12  and  C_13
                            x       y       z     vdW  Elec       q    Type
                         _______ _______ _______ _____ _____    ______ ____

>  <TORSDO>
F 3

$$$$
=
 OpenBabel11072412223D

 27 31  0  0  1  0  0  0  0  0999 V2000
  161.8140  207.5510  151.8820 C   0  0  0  0  0  3  0  0  0  0  0  0
  160.6240  203.7070  151.8080 C   0  0  0  0  0  3  0  0  0  0  0  0
  161.4080  204.1760  150.8230 C   0  0  0  0  0  0  0  0  0  0  0  0
  161.5810  209.2860  148.5990 C   0  0  0  0  0  3  0  0  0  0  0  0
  161.1530  206.2720  154.4930 O   0  0  0  0  0  1  0  0  0  0  0  0
  162.4180  207.2850  149.5370 C   0  0  0  0  0  0  0  0  0  0  0  0
  161.2430  205.5650  147.5240 C   0  0  2  0  0  3  0  0  0  0  0  0
  160.8590  207.0430  147.7220 C   0  0  0  0  0  2  0  0  0  0  0  0
  162.1760  208.0900  150.5580 C   0  0  0  0  0  0  0  0  0  0  0  0
  160.6380  204.3940  153.1350 C   0  0  0  0  0  3  0  0  0  0  0  0
  162.3730  205.2800  151.0400 C   0  0  2  0  0  3  0  0  0  0  0  0
  162.0380  207.8690  148.2400 C   0  0  1  0  0  3  0  0  0  0  0  0
  161.8440  206.2310  152.0930 C   0  0  0  0  0  0  0  0  0  0  0  0
  161.2080  203.9180  149.4330 N   0  0  0  0  0  0  0  0  0  0  0  0
  161.2060  205.6080  153.2730 C   0  0  0  0  0  0  0  0  0  0  0  0
  162.0170  204.9050  148.6980 C   0  0  2  0  0  3  0  0  0  0  0  0
  161.7820  209.4430  150.1060 C   0  0  0  0  0  3  0  0  0  0  0  0
  162.4920  205.8660  149.7110 N   0  0  0  0  0  0  0  0  0  0  0  0
  163.2020  204.7060  146.2380 O   0  0  0  0  0  1  0  0  0  0  0  0
  161.9870  205.3790  146.2380 C   0  0  0  0  0  0  0  0  0  0  0  0
  161.5230  205.8230  145.1560 O   0  0  0  0  0  0  0  0  0  0  0  0
  159.7160  201.9600  149.7910 C   0  0  0  0  0  1  0  0  0  0  0  0
  160.8300  202.5870  148.9510 C   0  0  1  0  0  3  0  0  0  0  0  0
  160.7450  201.5860  146.6250 C   0  0  0  0  0  0  0  0  0  0  0  0
  160.4510  202.6520  147.5340 N   0  0  0  0  0  2  0  0  0  0  0  0
  160.5670  201.7680  145.2610 O   0  0  0  0  0  0  0  0  0  0  0  0
  161.2110  200.4920  147.0560 O   0  0  0  0  0  1  0  0  0  0  0  0
  1 13  2  0  0  0  0
  2 10  1  0  0  0  0
  3  2  2  0  0  0  0
  4 17  2  0  0  0  0
  6 18  1  0  0  0  0
  6  9  2  0  0  0  0
  7 20  1  6  0  0  0
  7  8  1  0  0  0  0
  7 16  1  0  0  0  0
  9  1  1  0  0  0  0
 10 15  2  0  0  0  0
 11  3  1  6  0  0  0
 11 13  1  0  0  0  0
 12  8  1  1  0  0  0
 12  4  1  0  0  0  0
 12  6  1  0  0  0  0
 13 15  1  0  0  0  0
 14  3  1  0  0  0  0
 15  5  1  0  0  0  0
 16 14  1  1  0  0  0
 16 18  1  0  0  0  0
 17  9  1  0  0  0  0
 18 11  1  0  0  0  0
 20 19  1  0  0  0  0
 21 20  2  0  0  0  0
 23 14  1  0  0  0  0
 23 22  1  1  0  0  0
 24 27  1  0  0  0  0
 24 25  1  0  0  0  0
 25 23  1  0  0  0  0
 26 24  2  0  0  0  0
M  END
>  <MODEL>
7

>  <REMARK>
 VINA RESULT:      -6.3      1.835      4.288
  Name = 
  3 active torsions:
  status: ('A' for Active; 'I' for Inactive)
    1  A    between atoms: C_10  and  N_11
    2  A    between atoms: C_10  and  N_23
    3  A    between atoms: C_12  and  C_13
                            x       y       z     vdW  Elec       q    Type
                         _______ _______ _______ _____ _____    ______ ____

>  <TORSDO>
F 3

$$$$
=
 OpenBabel11072412223D

 27 31  0  0  1  0  0  0  0  0999 V2000
  161.0330  204.7680  153.3260 C   0  0  0  0  0  3  0  0  0  0  0  0
  160.9960  204.4400  149.3160 C   0  0  0  0  0  3  0  0  0  0  0  0
  161.6830  205.4410  149.8910 C   0  0  0  0  0  0  0  0  0  0  0  0
  160.5520  208.2380  154.5800 C   0  0  0  0  0  3  0  0  0  0  0  0
  160.5790  202.0540  152.1800 O   0  0  0  0  0  1  0  0  0  0  0  0
  161.8550  207.0400  153.0140 C   0  0  0  0  0  0  0  0  0  0  0  0
  161.3660  208.8830  150.8340 C   0  0  2  0  0  3  0  0  0  0  0  0
  160.5640  208.8750  152.1480 C   0  0  0  0  0  2  0  0  0  0  0  0
  161.3200  206.1310  153.8120 C   0  0  0  0  0  0  0  0  0  0  0  0
  160.7190  203.2030  150.1070 C   0  0  0  0  0  3  0  0  0  0  0  0
  162.2750  205.3160  151.2450 C   0  0  2  0  0  3  0  0  0  0  0  0
  161.4180  208.4110  153.3290 C   0  0  1  0  0  3  0  0  0  0  0  0
  161.4230  204.4030  152.1000 C   0  0  0  0  0  0  0  0  0  0  0  0
  161.6640  206.7980  149.4480 N   0  0  0  0  0  0  0  0  0  0  0  0
  160.9070  203.1850  151.4410 C   0  0  0  0  0  0  0  0  0  0  0  0
  162.2100  207.6110  150.5490 C   0  0  2  0  0  3  0  0  0  0  0  0
  160.5910  206.7530  154.9400 C   0  0  0  0  0  3  0  0  0  0  0  0
  162.3180  206.6990  151.7030 N   0  0  0  0  0  0  0  0  0  0  0  0
  162.1510  210.9170  149.6180 O   0  0  0  0  0  0  0  0  0  0  0  0
  162.2230  210.1080  150.7450 C   0  0  0  0  0  0  0  0  0  0  0  0
  163.0060  210.4150  151.6810 O   0  0  0  0  0  1  0  0  0  0  0  0
  162.9730  206.5850  147.3430 C   0  0  0  0  0  1  0  0  0  0  0  0
  161.7180  207.1360  148.0230 C   0  0  1  0  0  3  0  0  0  0  0  0
  160.5370  206.1130  146.0290 C   0  0  0  0  0  0  0  0  0  0  0  0
  160.5020  206.6690  147.3470 N   0  0  0  0  0  2  0  0  0  0  0  0
  159.3550  205.8820  145.3400 O   0  0  0  0  0  0  0  0  0  0  0  0
  161.6460  205.8740  145.4680 O   0  0  0  0  0  1  0  0  0  0  0  0
  1  9  1  0  0  0  0
  2  3  2  0  0  0  0
  2 10  1  0  0  0  0
  4 17  2  0  0  0  0
  6 12  1  0  0  0  0
  6  9  2  0  0  0  0
  7 20  1  1  0  0  0
  7  8  1  0  0  0  0
  9 17  1  0  0  0  0
 10 15  2  0  0  0  0
 11  3  1  6  0  0  0
 11 18  1  0  0  0  0
 11 13  1  0  0  0  0
 12  8  1  6  0  0  0
 12  4  1  0  0  0  0
 13  1  2  0  0  0  0
 14  3  1  0  0  0  0
 15 13  1  0  0  0  0
 15  5  1  0  0  0  0
 16 14  1  6  0  0  0
 16  7  1  0  0  0  0
 16 18  1  0  0  0  0
 18  6  1  0  0  0  0
 19 20  2  0  0  0  0
 20 21  1  0  0  0  0
 23 22  1  6  0  0  0
 23 14  1  0  0  0  0
 24 25  1  0  0  0  0
 25 23  1  0  0  0  0
 26 24  2  0  0  0  0
 27 24  1  0  0  0  0
M  END
>  <MODEL>
8

>  <REMARK>
 VINA RESULT:      -6.2      2.175      5.165
  Name = 
  3 active torsions:
  status: ('A' for Active; 'I' for Inactive)
    1  A    between atoms: C_10  and  N_11
    2  A    between atoms: C_10  and  N_23
    3  A    between atoms: C_12  and  C_13
                            x       y       z     vdW  Elec       q    Type
                         _______ _______ _______ _____ _____    ______ ____

>  <TORSDO>
F 3

$$$$
