=
 OpenBabel11072411033D

 30 31  0  0  1  0  0  0  0  0999 V2000
  162.2360  206.8470  151.9070 C   0  0  0  0  0  2  0  0  0  0  0  0
  161.3830  205.9630  153.8590 O   0  0  0  0  0  1  0  0  0  0  0  0
  161.3310  205.8550  152.5070 N   0  0  0  0  0  0  0  0  0  0  0  0
  161.7730  204.5120  152.1500 C   0  0  0  0  0  2  0  0  0  0  0  0
  160.6100  203.7140  151.5770 C   0  0  0  0  0  2  0  0  0  0  0  0
  161.4870  205.1930  148.2400 C   0  0  0  0  0  2  0  0  0  0  0  0
  160.6440  203.7230  150.0850 C   0  0  0  0  0  0  0  0  0  0  0  0
  160.4240  205.0050  149.3310 C   0  0  0  0  0  2  0  0  0  0  0  0
  161.8560  203.8960  147.4870 C   0  0  1  0  0  3  0  0  0  0  0  0
  161.0310  202.6700  147.9100 C   0  0  0  0  0  2  0  0  0  0  0  0
  160.9390  202.6080  149.4060 C   0  0  0  0  0  3  0  0  0  0  0  0
  163.1160  204.2570  145.1310 O   0  0  0  0  0  0  0  0  0  0  0  0
  160.9370  202.8450  145.0330 F   0  0  0  0  0  0  0  0  0  0  0  0
  160.9720  205.4020  145.4430 O   0  0  0  0  0  0  0  0  0  0  0  0
  161.7390  204.1420  145.7250 S   0  0  0  0  0  0  0  0  0  0  0  0
  161.5260  208.0840  151.3430 C   0  0  0  0  0  2  0  0  0  0  0  0
  160.9220  209.3710  153.4250 N   0  0  0  0  0  2  0  0  0  0  0  0
  162.4860  210.1950  151.8840 O   0  0  0  0  0  0  0  0  0  0  0  0
  161.7010  209.2710  152.2270 C   0  0  0  0  0  0  0  0  0  0  0  0
  159.2530  213.2530  155.1880 C   0  0  0  0  0  0  0  0  0  0  0  0
  159.2070  211.7530  153.6370 C   0  0  0  0  0  0  0  0  0  0  0  0
  158.8550  211.1450  152.5930 O   0  0  0  0  0  0  0  0  0  0  0  0
  161.1080  210.3290  154.4790 C   0  0  0  0  0  0  0  0  0  0  0  0
  160.2790  211.3830  154.5420 C   0  0  0  0  0  0  0  0  0  0  0  0
  160.2790  212.3640  155.5210 O   0  0  0  0  0  0  0  0  0  0  0  0
  158.5980  212.9460  154.1090 N   0  0  0  0  0  0  0  0  0  0  0  0
  158.9280  214.4530  156.0050 C   0  0  0  0  0  1  0  0  0  0  0  0
  161.9390  209.1590  156.5190 O   0  0  0  0  0  1  0  0  0  0  0  0
  163.1840  210.8120  155.5570 O   0  0  0  0  0  0  0  0  0  0  0  0
  162.1360  210.1140  155.5280 C   0  0  0  0  0  0  0  0  0  0  0  0
  1  3  1  0  0  0  0
  3  2  1  0  0  0  0
  4  3  1  0  0  0  0
  5  4  1  0  0  0  0
  6  8  1  0  0  0  0
  7  5  1  0  0  0  0
  8  7  1  0  0  0  0
  9 15  1  6  0  0  0
  9 10  1  0  0  0  0
  9  6  1  0  0  0  0
 10 11  1  0  0  0  0
 11  7  2  0  0  0  0
 12 15  2  0  0  0  0
 13 15  1  0  0  0  0
 14 15  2  0  0  0  0
 16  1  1  0  0  0  0
 16 19  1  0  0  0  0
 17 23  1  0  0  0  0
 18 19  2  0  0  0  0
 19 17  1  0  0  0  0
 20 25  1  0  0  0  0
 20 27  1  0  0  0  0
 21 26  1  0  0  0  0
 21 24  1  0  0  0  0
 22 21  2  0  0  0  0
 23 24  2  0  0  0  0
 23 30  1  0  0  0  0
 24 25  1  0  0  0  0
 26 20  2  0  0  0  0
 30 29  2  0  0  0  0
 30 28  1  0  0  0  0
M  END
>  <MODEL>
1

>  <REMARK>
 VINA RESULT:      -7.6      0.000      0.000
  Name = 
  9 active torsions:
  status: ('A' for Active; 'I' for Inactive)
    1  A    between atoms: C_1  and  C_21
    2  A    between atoms: C_1  and  C_30
    3  A    between atoms: C_2  and  C_8
    4  A    between atoms: C_2  and  N_16
    5  A    between atoms: C_8  and  C_29
    6  A    between atoms: CA_11  and  C_15
    7  A    between atoms: CA_11  and  N_17
    8  A    between atoms: N_16  and  C_30
    9  A    between atoms: C_23  and  S_24
                            x       y       z     vdW  Elec       q    Type
                         _______ _______ _______ _____ _____    ______ ____

>  <TORSDO>
F 9

$$$$
=
 OpenBabel11072411033D

 30 31  0  0  1  0  0  0  0  0999 V2000
  161.0220  206.7870  153.0730 C   0  0  0  0  0  2  0  0  0  0  0  0
  162.6110  207.1230  151.4350 O   0  0  0  0  0  1  0  0  0  0  0  0
  162.2810  206.3170  152.4770 N   0  0  0  0  0  0  0  0  0  0  0  0
  162.1000  204.9680  151.9550 C   0  0  0  0  0  2  0  0  0  0  0  0
  160.7020  204.8150  151.3710 C   0  0  0  0  0  2  0  0  0  0  0  0
  161.6460  205.7390  147.8570 C   0  0  0  0  0  2  0  0  0  0  0  0
  160.7660  204.5840  149.8970 C   0  0  0  0  0  0  0  0  0  0  0  0
  160.5610  205.7270  148.9420 C   0  0  0  0  0  2  0  0  0  0  0  0
  162.0290  204.3390  147.3310 C   0  0  1  0  0  3  0  0  0  0  0  0
  161.1960  203.1940  147.9300 C   0  0  0  0  0  2  0  0  0  0  0  0
  161.0750  203.3740  149.4140 C   0  0  0  0  0  3  0  0  0  0  0  0
  161.5030  205.6330  145.0250 O   0  0  0  0  0  0  0  0  0  0  0  0
  163.4600  203.9270  144.9310 F   0  0  0  0  0  0  0  0  0  0  0  0
  160.9690  203.2430  145.1160 O   0  0  0  0  0  0  0  0  0  0  0  0
  161.9480  204.2970  145.5500 S   0  0  0  0  0  0  0  0  0  0  0  0
  161.0020  206.7510  154.6070 C   0  0  0  0  0  2  0  0  0  0  0  0
  161.2450  209.2520  154.8060 N   0  0  0  0  0  2  0  0  0  0  0  0
  159.6310  208.0750  156.0350 O   0  0  0  0  0  0  0  0  0  0  0  0
  160.5600  208.0520  155.1830 C   0  0  0  0  0  0  0  0  0  0  0  0
  159.3120  212.9740  152.9700 C   0  0  0  0  0  0  0  0  0  0  0  0
  160.0890  210.9770  152.7210 C   0  0  0  0  0  0  0  0  0  0  0  0
  160.4160  209.8980  152.1610 O   0  0  0  0  0  0  0  0  0  0  0  0
  160.8270  210.5950  155.1010 C   0  0  0  0  0  0  0  0  0  0  0  0
  160.2820  211.3260  154.1160 C   0  0  0  0  0  0  0  0  0  0  0  0
  159.7730  212.6100  154.2380 O   0  0  0  0  0  0  0  0  0  0  0  0
  159.4670  212.0660  152.0550 N   0  0  0  0  0  0  0  0  0  0  0  0
  158.6860  214.2940  152.6870 C   0  0  0  0  0  1  0  0  0  0  0  0
  159.7680  211.2560  157.2590 O   0  0  0  0  0  1  0  0  0  0  0  0
  162.0150  211.5150  156.9570 O   0  0  0  0  0  0  0  0  0  0  0  0
  160.9130  211.1320  156.4810 C   0  0  0  0  0  0  0  0  0  0  0  0
  1 16  1  0  0  0  0
  2  3  1  0  0  0  0
  3  1  1  0  0  0  0
  4  3  1  0  0  0  0
  5  4  1  0  0  0  0
  6  8  1  0  0  0  0
  7  5  1  0  0  0  0
  8  7  1  0  0  0  0
  9 15  1  6  0  0  0
  9  6  1  0  0  0  0
  9 10  1  0  0  0  0
 10 11  1  0  0  0  0
 11  7  2  0  0  0  0
 12 15  2  0  0  0  0
 13 15  1  0  0  0  0
 14 15  2  0  0  0  0
 16 19  1  0  0  0  0
 17 23  1  0  0  0  0
 17 19  1  0  0  0  0
 19 18  2  0  0  0  0
 20 25  1  0  0  0  0
 21 24  1  0  0  0  0
 22 21  2  0  0  0  0
 23 30  1  0  0  0  0
 24 25  1  0  0  0  0
 24 23  2  0  0  0  0
 26 21  1  0  0  0  0
 26 20  2  0  0  0  0
 27 20  1  0  0  0  0
 30 29  2  0  0  0  0
 30 28  1  0  0  0  0
M  END
>  <MODEL>
2

>  <REMARK>
 VINA RESULT:      -7.5      1.731      2.147
  Name = 
  9 active torsions:
  status: ('A' for Active; 'I' for Inactive)
    1  A    between atoms: C_1  and  C_21
    2  A    between atoms: C_1  and  C_30
    3  A    between atoms: C_2  and  C_8
    4  A    between atoms: C_2  and  N_16
    5  A    between atoms: C_8  and  C_29
    6  A    between atoms: CA_11  and  C_15
    7  A    between atoms: CA_11  and  N_17
    8  A    between atoms: N_16  and  C_30
    9  A    between atoms: C_23  and  S_24
                            x       y       z     vdW  Elec       q    Type
                         _______ _______ _______ _____ _____    ______ ____

>  <TORSDO>
F 9

$$$$
=
 OpenBabel11072411033D

 30 31  0  0  1  0  0  0  0  0999 V2000
  160.9510  208.4130  151.6620 C   0  0  0  0  0  2  0  0  0  0  0  0
  162.2540  209.9020  150.4760 O   0  0  0  0  0  1  0  0  0  0  0  0
  162.2690  208.6800  151.0660 N   0  0  0  0  0  0  0  0  0  0  0  0
  162.5470  207.6900  150.0330 C   0  0  0  0  0  2  0  0  0  0  0  0
  161.3620  207.5780  149.0830 C   0  0  0  0  0  2  0  0  0  0  0  0
  161.5650  204.2240  147.4070 C   0  0  0  0  0  2  0  0  0  0  0  0
  160.9680  206.1500  148.8930 C   0  0  0  0  0  0  0  0  0  0  0  0
  160.8460  205.5770  147.5080 C   0  0  0  0  0  2  0  0  0  0  0  0
  161.3890  203.3210  148.6470 C   0  0  1  0  0  3  0  0  0  0  0  0
  160.4580  203.9050  149.7220 C   0  0  0  0  0  2  0  0  0  0  0  0
  160.7880  205.3500  149.9510 C   0  0  0  0  0  3  0  0  0  0  0  0
  160.6240  201.6480  146.6750 O   0  0  0  0  0  0  0  0  0  0  0  0
  161.9790  200.5590  148.6070 F   0  0  0  0  0  0  0  0  0  0  0  0
  159.5360  201.3830  148.8550 O   0  0  0  0  0  0  0  0  0  0  0  0
  160.8330  201.6970  148.1640 S   0  0  0  0  0  0  0  0  0  0  0  0
  160.9860  207.4570  152.8610 C   0  0  0  0  0  2  0  0  0  0  0  0
  161.7470  209.4290  154.2350 N   0  0  0  0  0  2  0  0  0  0  0  0
  160.4680  207.7010  155.1720 O   0  0  0  0  0  0  0  0  0  0  0  0
  161.0220  208.1960  154.1540 C   0  0  0  0  0  0  0  0  0  0  0  0
  159.6630  213.2030  155.7750 C   0  0  0  0  0  0  0  0  0  0  0  0
  159.9370  211.7480  154.2050 C   0  0  0  0  0  0  0  0  0  0  0  0
  159.7900  211.1590  153.1030 O   0  0  0  0  0  0  0  0  0  0  0  0
  161.7160  210.3600  155.3280 C   0  0  0  0  0  0  0  0  0  0  0  0
  160.8510  211.3850  155.2710 C   0  0  0  0  0  0  0  0  0  0  0  0
  160.6480  212.3370  156.2590 O   0  0  0  0  0  0  0  0  0  0  0  0
  159.2130  212.9070  154.5930 N   0  0  0  0  0  0  0  0  0  0  0  0
  159.1600  214.3680  156.5520 C   0  0  0  0  0  1  0  0  0  0  0  0
  163.5630  211.0500  156.8550 O   0  0  0  0  0  0  0  0  0  0  0  0
  162.3940  209.1320  157.2610 O   0  0  0  0  0  1  0  0  0  0  0  0
  162.5560  210.1470  156.5320 C   0  0  0  0  0  0  0  0  0  0  0  0
  1 16  1  0  0  0  0
  2  3  1  0  0  0  0
  3  1  1  0  0  0  0
  4  3  1  0  0  0  0
  5  4  1  0  0  0  0
  6  8  1  0  0  0  0
  6  9  1  0  0  0  0
  7  5  1  0  0  0  0
  7 11  2  0  0  0  0
  8  7  1  0  0  0  0
  9 15  1  6  0  0  0
  9 10  1  0  0  0  0
 10 11  1  0  0  0  0
 12 15  2  0  0  0  0
 15 13  1  0  0  0  0
 15 14  2  0  0  0  0
 16 19  1  0  0  0  0
 17 23  1  0  0  0  0
 19 17  1  0  0  0  0
 19 18  2  0  0  0  0
 20 25  1  0  0  0  0
 20 27  1  0  0  0  0
 21 26  1  0  0  0  0
 21 24  1  0  0  0  0
 22 21  2  0  0  0  0
 23 30  1  0  0  0  0
 24 23  2  0  0  0  0
 24 25  1  0  0  0  0
 26 20  2  0  0  0  0
 30 28  2  0  0  0  0
 30 29  1  0  0  0  0
M  END
>  <MODEL>
3

>  <REMARK>
 VINA RESULT:      -7.5      2.032      2.801
  Name = 
  9 active torsions:
  status: ('A' for Active; 'I' for Inactive)
    1  A    between atoms: C_1  and  C_21
    2  A    between atoms: C_1  and  C_30
    3  A    between atoms: C_2  and  C_8
    4  A    between atoms: C_2  and  N_16
    5  A    between atoms: C_8  and  C_29
    6  A    between atoms: CA_11  and  C_15
    7  A    between atoms: CA_11  and  N_17
    8  A    between atoms: N_16  and  C_30
    9  A    between atoms: C_23  and  S_24
                            x       y       z     vdW  Elec       q    Type
                         _______ _______ _______ _____ _____    ______ ____

>  <TORSDO>
F 9

$$$$
=
 OpenBabel11072411033D

 30 31  0  0  1  0  0  0  0  0999 V2000
  160.9230  206.6600  154.0930 C   0  0  0  0  0  2  0  0  0  0  0  0
  159.6430  207.3070  155.8990 O   0  0  0  0  0  1  0  0  0  0  0  0
  160.8850  207.4050  155.3600 N   0  0  0  0  0  0  0  0  0  0  0  0
  161.1490  208.8160  155.1040 C   0  0  0  0  0  2  0  0  0  0  0  0
  160.0700  209.6760  155.7480 C   0  0  0  0  0  2  0  0  0  0  0  0
  159.9990  211.4870  152.4600 C   0  0  0  0  0  2  0  0  0  0  0  0
  159.6860  210.8050  154.8500 C   0  0  0  0  0  0  0  0  0  0  0  0
  160.6630  211.3310  153.8360 C   0  0  0  0  0  2  0  0  0  0  0  0
  158.5560  212.0340  152.5140 C   0  0  1  0  0  3  0  0  0  0  0  0
  158.0770  212.4010  153.9280 C   0  0  0  0  0  2  0  0  0  0  0  0
  158.4480  211.3130  154.8910 C   0  0  0  0  0  3  0  0  0  0  0  0
  157.4650  214.4530  152.0370 O   0  0  0  0  0  0  0  0  0  0  0  0
  159.8770  214.1130  151.1330 F   0  0  0  0  0  0  0  0  0  0  0  0
  157.7890  212.9700  150.1130 O   0  0  0  0  0  0  0  0  0  0  0  0
  158.3750  213.4290  151.4180 S   0  0  0  0  0  0  0  0  0  0  0  0
  161.2040  207.5300  152.8610 C   0  0  0  0  0  2  0  0  0  0  0  0
  160.7150  206.1490  150.8090 N   0  0  0  0  0  2  0  0  0  0  0  0
  162.9080  206.4840  151.5680 O   0  0  0  0  0  0  0  0  0  0  0  0
  161.6770  206.7140  151.7070 C   0  0  0  0  0  0  0  0  0  0  0  0
  161.0310  202.0800  148.7350 C   0  0  0  0  0  0  0  0  0  0  0  0
  160.7300  203.2190  150.5430 C   0  0  0  0  0  0  0  0  0  0  0  0
  160.5190  203.4720  151.7570 O   0  0  0  0  0  0  0  0  0  0  0  0
  160.9980  205.5200  149.5500 C   0  0  0  0  0  0  0  0  0  0  0  0
  160.9650  204.1790  149.4820 C   0  0  0  0  0  0  0  0  0  0  0  0
  161.1540  203.4150  148.3400 O   0  0  0  0  0  0  0  0  0  0  0  0
  160.7830  201.9080  149.9990 N   0  0  0  0  0  0  0  0  0  0  0  0
  161.1670  200.9420  147.7870 C   0  0  0  0  0  1  0  0  0  0  0  0
  162.3170  207.2010  148.2640 O   0  0  0  0  0  1  0  0  0  0  0  0
  160.4440  206.2710  147.3510 O   0  0  0  0  0  0  0  0  0  0  0  0
  161.2350  206.3310  148.3300 C   0  0  0  0  0  0  0  0  0  0  0  0
  1  3  1  0  0  0  0
  3  2  1  0  0  0  0
  4  3  1  0  0  0  0
  4  5  1  0  0  0  0
  6  9  1  0  0  0  0
  6  8  1  0  0  0  0
  7 11  2  0  0  0  0
  7  5  1  0  0  0  0
  8  7  1  0  0  0  0
  9 15  1  6  0  0  0
  9 10  1  0  0  0  0
 10 11  1  0  0  0  0
 13 15  1  0  0  0  0
 14 15  2  0  0  0  0
 15 12  2  0  0  0  0
 16  1  1  0  0  0  0
 17 19  1  0  0  0  0
 18 19  2  0  0  0  0
 19 16  1  0  0  0  0
 20 26  2  0  0  0  0
 21 22  2  0  0  0  0
 23 17  1  0  0  0  0
 24 23  2  0  0  0  0
 24 21  1  0  0  0  0
 25 20  1  0  0  0  0
 25 24  1  0  0  0  0
 26 21  1  0  0  0  0
 27 20  1  0  0  0  0
 28 30  1  0  0  0  0
 29 30  2  0  0  0  0
 30 23  1  0  0  0  0
M  END
>  <MODEL>
4

>  <REMARK>
 VINA RESULT:      -7.3      4.065      9.077
  Name = 
  9 active torsions:
  status: ('A' for Active; 'I' for Inactive)
    1  A    between atoms: C_1  and  C_21
    2  A    between atoms: C_1  and  C_30
    3  A    between atoms: C_2  and  C_8
    4  A    between atoms: C_2  and  N_16
    5  A    between atoms: C_8  and  C_29
    6  A    between atoms: CA_11  and  C_15
    7  A    between atoms: CA_11  and  N_17
    8  A    between atoms: N_16  and  C_30
    9  A    between atoms: C_23  and  S_24
                            x       y       z     vdW  Elec       q    Type
                         _______ _______ _______ _____ _____    ______ ____

>  <TORSDO>
F 9

$$$$
=
 OpenBabel11072411033D

 30 31  0  0  1  0  0  0  0  0999 V2000
  160.5990  207.7740  152.4980 C   0  0  0  0  0  2  0  0  0  0  0  0
  161.9560  206.1460  153.4070 O   0  0  0  0  0  1  0  0  0  0  0  0
  161.5470  207.4300  153.5680 N   0  0  0  0  0  0  0  0  0  0  0  0
  160.8800  207.5260  154.8600 C   0  0  0  0  0  2  0  0  0  0  0  0
  161.3690  208.7580  155.6120 C   0  0  0  0  0  2  0  0  0  0  0  0
  160.1390  211.4170  153.2630 C   0  0  0  0  0  2  0  0  0  0  0  0
  160.5510  209.9550  155.2550 C   0  0  0  0  0  0  0  0  0  0  0  0
  161.1260  211.0290  154.3740 C   0  0  0  0  0  2  0  0  0  0  0  0
  158.6670  211.4860  153.7230 C   0  0  1  0  0  3  0  0  0  0  0  0
  158.4660  211.2360  155.2270 C   0  0  0  0  0  2  0  0  0  0  0  0
  159.2780  210.0510  155.6590 C   0  0  0  0  0  3  0  0  0  0  0  0
  158.1630  213.2950  151.7880 O   0  0  0  0  0  0  0  0  0  0  0  0
  156.2940  213.0100  153.5700 F   0  0  0  0  0  0  0  0  0  0  0  0
  158.5680  214.1530  154.0470 O   0  0  0  0  0  0  0  0  0  0  0  0
  157.9380  213.0440  153.2530 S   0  0  0  0  0  0  0  0  0  0  0  0
  161.2520  208.4020  151.2590 C   0  0  0  0  0  2  0  0  0  0  0  0
  160.8840  206.3840  149.7930 N   0  0  0  0  0  2  0  0  0  0  0  0
  163.0130  207.3260  150.0720 O   0  0  0  0  0  0  0  0  0  0  0  0
  161.7800  207.3640  150.3290 C   0  0  0  0  0  0  0  0  0  0  0  0
  161.0910  201.9200  148.7990 C   0  0  0  0  0  0  0  0  0  0  0  0
  160.7840  203.4800  150.2570 C   0  0  0  0  0  0  0  0  0  0  0  0
  160.5470  204.0330  151.3630 O   0  0  0  0  0  0  0  0  0  0  0  0
  161.1780  205.4530  148.7390 C   0  0  0  0  0  0  0  0  0  0  0  0
  161.0910  204.1400  149.0020 C   0  0  0  0  0  0  0  0  0  0  0  0
  161.2810  203.1110  148.0930 O   0  0  0  0  0  0  0  0  0  0  0  0
  160.7980  202.0750  150.0550 N   0  0  0  0  0  0  0  0  0  0  0  0
  161.2070  200.5790  148.1660 C   0  0  0  0  0  1  0  0  0  0  0  0
  160.4570  206.2600  146.4930 O   0  0  0  0  0  0  0  0  0  0  0  0
  162.6760  206.0100  146.9640 O   0  0  0  0  0  1  0  0  0  0  0  0
  161.4850  205.9300  147.3680 C   0  0  0  0  0  0  0  0  0  0  0  0
  1  3  1  0  0  0  0
  2  3  1  0  0  0  0
  3  4  1  0  0  0  0
  4  5  1  0  0  0  0
  6  9  1  0  0  0  0
  6  8  1  0  0  0  0
  7  5  1  0  0  0  0
  7 11  2  0  0  0  0
  8  7  1  0  0  0  0
  9 15  1  1  0  0  0
  9 10  1  0  0  0  0
 10 11  1  0  0  0  0
 12 15  2  0  0  0  0
 15 13  1  0  0  0  0
 15 14  2  0  0  0  0
 16  1  1  0  0  0  0
 17 19  1  0  0  0  0
 18 19  2  0  0  0  0
 19 16  1  0  0  0  0
 20 26  2  0  0  0  0
 21 22  2  0  0  0  0
 23 24  2  0  0  0  0
 23 17  1  0  0  0  0
 24 21  1  0  0  0  0
 25 20  1  0  0  0  0
 25 24  1  0  0  0  0
 26 21  1  0  0  0  0
 27 20  1  0  0  0  0
 28 30  2  0  0  0  0
 29 30  1  0  0  0  0
 30 23  1  0  0  0  0
M  END
>  <MODEL>
5

>  <REMARK>
 VINA RESULT:      -7.1      4.149      9.271
  Name = 
  9 active torsions:
  status: ('A' for Active; 'I' for Inactive)
    1  A    between atoms: C_1  and  C_21
    2  A    between atoms: C_1  and  C_30
    3  A    between atoms: C_2  and  C_8
    4  A    between atoms: C_2  and  N_16
    5  A    between atoms: C_8  and  C_29
    6  A    between atoms: CA_11  and  C_15
    7  A    between atoms: CA_11  and  N_17
    8  A    between atoms: N_16  and  C_30
    9  A    between atoms: C_23  and  S_24
                            x       y       z     vdW  Elec       q    Type
                         _______ _______ _______ _____ _____    ______ ____

>  <TORSDO>
F 9

$$$$
=
 OpenBabel11072411033D

 30 31  0  0  1  0  0  0  0  0999 V2000
  161.7730  203.2390  151.1890 C   0  0  0  0  0  2  0  0  0  0  0  0
  160.2280  204.8720  150.6750 O   0  0  0  0  0  1  0  0  0  0  0  0
  161.0020  204.3900  151.6810 N   0  0  0  0  0  0  0  0  0  0  0  0
  161.9150  205.4510  152.0880 C   0  0  0  0  0  2  0  0  0  0  0  0
  161.6180  205.8780  153.5190 C   0  0  0  0  0  2  0  0  0  0  0  0
  160.7980  209.1790  155.1080 C   0  0  0  0  0  2  0  0  0  0  0  0
  160.9810  207.2280  153.5480 C   0  0  0  0  0  0  0  0  0  0  0  0
  160.3510  207.7400  154.8130 C   0  0  0  0  0  2  0  0  0  0  0  0
  160.8890  210.0810  153.8580 C   0  0  1  0  0  3  0  0  0  0  0  0
  160.4350  209.3980  152.5570 C   0  0  0  0  0  2  0  0  0  0  0  0
  161.0260  208.0220  152.4710 C   0  0  0  0  0  3  0  0  0  0  0  0
  160.4600  212.2790  155.3610 O   0  0  0  0  0  0  0  0  0  0  0  0
  160.2030  212.6060  152.7960 F   0  0  0  0  0  0  0  0  0  0  0  0
  158.5160  211.2840  154.2490 O   0  0  0  0  0  0  0  0  0  0  0  0
  159.9790  211.5940  154.1120 S   0  0  0  0  0  0  0  0  0  0  0  0
  160.9160  202.0180  150.8270 C   0  0  0  0  0  2  0  0  0  0  0  0
  161.3180  202.6490  148.4200 N   0  0  0  0  0  2  0  0  0  0  0  0
  159.3140  201.6450  149.1060 O   0  0  0  0  0  0  0  0  0  0  0  0
  160.4630  202.0650  149.4090 C   0  0  0  0  0  0  0  0  0  0  0  0
  161.4520  205.1730  144.6020 C   0  0  0  0  0  0  0  0  0  0  0  0
  161.5930  205.0580  146.7520 C   0  0  0  0  0  0  0  0  0  0  0  0
  161.7450  205.4240  147.9470 O   0  0  0  0  0  0  0  0  0  0  0  0
  161.1310  202.5920  146.9970 C   0  0  0  0  0  0  0  0  0  0  0  0
  161.2950  203.7180  146.2840 C   0  0  0  0  0  0  0  0  0  0  0  0
  161.2120  203.8290  144.9040 O   0  0  0  0  0  0  0  0  0  0  0  0
  161.6810  205.9280  145.6340 N   0  0  0  0  0  0  0  0  0  0  0  0
  161.4520  205.7000  143.2110 C   0  0  0  0  0  1  0  0  0  0  0  0
  159.9710  201.2520  145.2430 O   0  0  0  0  0  0  0  0  0  0  0  0
  161.3770  200.2320  146.7230 O   0  0  0  0  0  1  0  0  0  0  0  0
  160.8510  201.3030  146.3180 C   0  0  0  0  0  0  0  0  0  0  0  0
  1  3  1  0  0  0  0
  2  3  1  0  0  0  0
  3  4  1  0  0  0  0
  4  5  1  0  0  0  0
  5  7  1  0  0  0  0
  7  8  1  0  0  0  0
  8  6  1  0  0  0  0
  9 15  1  1  0  0  0
  9  6  1  0  0  0  0
 10  9  1  0  0  0  0
 11 10  1  0  0  0  0
 11  7  2  0  0  0  0
 13 15  1  0  0  0  0
 15 14  2  0  0  0  0
 15 12  2  0  0  0  0
 16  1  1  0  0  0  0
 17 19  1  0  0  0  0
 18 19  2  0  0  0  0
 19 16  1  0  0  0  0
 20 25  1  0  0  0  0
 20 26  2  0  0  0  0
 21 22  2  0  0  0  0
 23 17  1  0  0  0  0
 24 21  1  0  0  0  0
 24 23  2  0  0  0  0
 25 24  1  0  0  0  0
 26 21  1  0  0  0  0
 27 20  1  0  0  0  0
 28 30  2  0  0  0  0
 30 29  1  0  0  0  0
 30 23  1  0  0  0  0
M  END
>  <MODEL>
6

>  <REMARK>
 VINA RESULT:      -7.1      4.259      9.818
  Name = 
  9 active torsions:
  status: ('A' for Active; 'I' for Inactive)
    1  A    between atoms: C_1  and  C_21
    2  A    between atoms: C_1  and  C_30
    3  A    between atoms: C_2  and  C_8
    4  A    between atoms: C_2  and  N_16
    5  A    between atoms: C_8  and  C_29
    6  A    between atoms: CA_11  and  C_15
    7  A    between atoms: CA_11  and  N_17
    8  A    between atoms: N_16  and  C_30
    9  A    between atoms: C_23  and  S_24
                            x       y       z     vdW  Elec       q    Type
                         _______ _______ _______ _____ _____    ______ ____

>  <TORSDO>
F 9

$$$$
=
 OpenBabel11072411033D

 30 31  0  0  1  0  0  0  0  0999 V2000
  161.5460  205.1350  152.2080 C   0  0  0  0  0  2  0  0  0  0  0  0
  160.2970  203.3760  153.0260 O   0  0  0  0  0  1  0  0  0  0  0  0
  160.8270  203.8920  151.8880 N   0  0  0  0  0  0  0  0  0  0  0  0
  161.7620  202.9130  151.3470 C   0  0  0  0  0  2  0  0  0  0  0  0
  161.0580  202.0220  150.3320 C   0  0  0  0  0  2  0  0  0  0  0  0
  161.5810  204.8990  147.9760 C   0  0  0  0  0  2  0  0  0  0  0  0
  160.8940  202.7320  149.0290 C   0  0  0  0  0  0  0  0  0  0  0  0
  160.6610  204.2170  149.0000 C   0  0  0  0  0  2  0  0  0  0  0  0
  161.7590  204.1090  146.6620 C   0  0  1  0  0  3  0  0  0  0  0  0
  160.9180  202.8240  146.5840 C   0  0  0  0  0  2  0  0  0  0  0  0
  161.0220  202.0660  147.8740 C   0  0  0  0  0  3  0  0  0  0  0  0
  160.4600  206.2390  145.6400 O   0  0  0  0  0  0  0  0  0  0  0  0
  162.8560  205.8380  144.7180 F   0  0  0  0  0  0  0  0  0  0  0  0
  160.8300  204.3290  144.1480 O   0  0  0  0  0  0  0  0  0  0  0  0
  161.4260  205.1520  145.2550 S   0  0  0  0  0  0  0  0  0  0  0  0
  161.2060  205.7200  153.5850 C   0  0  0  0  0  2  0  0  0  0  0  0
  161.8280  207.9150  152.5130 N   0  0  0  0  0  2  0  0  0  0  0  0
  160.5260  207.8260  154.4610 O   0  0  0  0  0  0  0  0  0  0  0  0
  161.1380  207.2080  153.5500 C   0  0  0  0  0  0  0  0  0  0  0  0
  161.9560  210.9540  149.0910 C   0  0  0  0  0  0  0  0  0  0  0  0
  162.1960  208.9210  149.7720 C   0  0  0  0  0  0  0  0  0  0  0  0
  162.4300  207.6850  149.7400 O   0  0  0  0  0  0  0  0  0  0  0  0
  161.7020  209.3140  152.2120 C   0  0  0  0  0  0  0  0  0  0  0  0
  161.8550  209.7120  150.9390 C   0  0  0  0  0  0  0  0  0  0  0  0
  161.7090  211.0070  150.4660 O   0  0  0  0  0  0  0  0  0  0  0  0
  162.2410  209.7710  148.6360 N   0  0  0  0  0  0  0  0  0  0  0  0
  161.8950  212.1530  148.2130 C   0  0  0  0  0  1  0  0  0  0  0  0
  160.0520  210.8450  153.2850 O   0  0  0  0  0  0  0  0  0  0  0  0
  162.1580  210.6470  154.1410 O   0  0  0  0  0  1  0  0  0  0  0  0
  161.3250  210.2870  153.2670 C   0  0  0  0  0  0  0  0  0  0  0  0
  1 16  1  0  0  0  0
  3  1  1  0  0  0  0
  3  2  1  0  0  0  0
  4  3  1  0  0  0  0
  5  4  1  0  0  0  0
  6  8  1  0  0  0  0
  7  5  1  0  0  0  0
  8  7  1  0  0  0  0
  9 15  1  6  0  0  0
  9  6  1  0  0  0  0
 10  9  1  0  0  0  0
 10 11  1  0  0  0  0
 11  7  2  0  0  0  0
 13 15  1  0  0  0  0
 14 15  2  0  0  0  0
 15 12  2  0  0  0  0
 17 19  1  0  0  0  0
 19 16  1  0  0  0  0
 19 18  2  0  0  0  0
 20 25  1  0  0  0  0
 21 24  1  0  0  0  0
 22 21  2  0  0  0  0
 23 17  1  0  0  0  0
 23 30  1  0  0  0  0
 24 23  2  0  0  0  0
 25 24  1  0  0  0  0
 26 20  2  0  0  0  0
 26 21  1  0  0  0  0
 27 20  1  0  0  0  0
 30 28  2  0  0  0  0
 30 29  1  0  0  0  0
M  END
>  <MODEL>
7

>  <REMARK>
 VINA RESULT:      -7.0      2.404      3.743
  Name = 
  9 active torsions:
  status: ('A' for Active; 'I' for Inactive)
    1  A    between atoms: C_1  and  C_21
    2  A    between atoms: C_1  and  C_30
    3  A    between atoms: C_2  and  C_8
    4  A    between atoms: C_2  and  N_16
    5  A    between atoms: C_8  and  C_29
    6  A    between atoms: CA_11  and  C_15
    7  A    between atoms: CA_11  and  N_17
    8  A    between atoms: N_16  and  C_30
    9  A    between atoms: C_23  and  S_24
                            x       y       z     vdW  Elec       q    Type
                         _______ _______ _______ _____ _____    ______ ____

>  <TORSDO>
F 9

$$$$
=
 OpenBabel11072411033D

 30 31  0  0  1  0  0  0  0  0999 V2000
  160.8620  206.5750  151.1820 C   0  0  0  0  0  2  0  0  0  0  0  0
  161.0540  204.6920  152.4990 O   0  0  0  0  0  1  0  0  0  0  0  0
  161.7280  205.7910  152.0760 N   0  0  0  0  0  0  0  0  0  0  0  0
  162.0650  206.5870  153.2500 C   0  0  0  0  0  2  0  0  0  0  0  0
  160.8530  206.7080  154.1660 C   0  0  0  0  0  2  0  0  0  0  0  0
  160.0830  210.3410  153.6080 C   0  0  0  0  0  2  0  0  0  0  0  0
  160.6660  208.1210  154.6120 C   0  0  0  0  0  0  0  0  0  0  0  0
  161.1590  209.2560  153.7580 C   0  0  0  0  0  2  0  0  0  0  0  0
  159.2860  210.6220  154.9000 C   0  0  1  0  0  3  0  0  0  0  0  0
  159.7700  209.8240  156.1220 C   0  0  0  0  0  2  0  0  0  0  0  0
  159.9970  208.3920  155.7390 C   0  0  0  0  0  3  0  0  0  0  0  0
  160.4240  212.7050  156.1780 O   0  0  0  0  0  0  0  0  0  0  0  0
  159.4270  213.2350  153.8380 F   0  0  0  0  0  0  0  0  0  0  0  0
  157.9860  212.7380  155.9320 O   0  0  0  0  0  0  0  0  0  0  0  0
  159.2800  212.3680  155.2630 S   0  0  0  0  0  0  0  0  0  0  0  0
  161.6220  207.5320  150.2540 C   0  0  0  0  0  2  0  0  0  0  0  0
  161.3630  205.6160  148.6360 N   0  0  0  0  0  2  0  0  0  0  0  0
  162.6840  207.4850  148.1240 O   0  0  0  0  0  0  0  0  0  0  0  0
  161.9130  206.9040  148.9350 C   0  0  0  0  0  0  0  0  0  0  0  0
  160.9280  201.5450  146.5890 C   0  0  0  0  0  0  0  0  0  0  0  0
  161.0420  202.7010  148.4070 C   0  0  0  0  0  0  0  0  0  0  0  0
  161.0580  202.9690  149.6360 O   0  0  0  0  0  0  0  0  0  0  0  0
  161.3720  204.9670  147.3550 C   0  0  0  0  0  0  0  0  0  0  0  0
  161.1950  203.6370  147.3100 C   0  0  0  0  0  0  0  0  0  0  0  0
  161.1170  202.8620  146.1630 O   0  0  0  0  0  0  0  0  0  0  0  0
  160.8740  201.3940  147.8770 N   0  0  0  0  0  0  0  0  0  0  0  0
  160.7930  200.4030  145.6450 C   0  0  0  0  0  1  0  0  0  0  0  0
  160.3930  206.4610  145.6150 O   0  0  0  0  0  1  0  0  0  0  0  0
  162.5620  205.7730  145.4470 O   0  0  0  0  0  0  0  0  0  0  0  0
  161.4860  205.7560  146.1030 C   0  0  0  0  0  0  0  0  0  0  0  0
  1  3  1  0  0  0  0
  3  2  1  0  0  0  0
  3  4  1  0  0  0  0
  4  5  1  0  0  0  0
  5  7  1  0  0  0  0
  6  8  1  0  0  0  0
  6  9  1  0  0  0  0
  7 11  2  0  0  0  0
  8  7  1  0  0  0  0
  9 15  1  1  0  0  0
  9 10  1  0  0  0  0
 11 10  1  0  0  0  0
 13 15  1  0  0  0  0
 15 14  2  0  0  0  0
 15 12  2  0  0  0  0
 16  1  1  0  0  0  0
 17 19  1  0  0  0  0
 18 19  2  0  0  0  0
 19 16  1  0  0  0  0
 20 26  2  0  0  0  0
 21 22  2  0  0  0  0
 23 17  1  0  0  0  0
 24 23  2  0  0  0  0
 24 21  1  0  0  0  0
 25 20  1  0  0  0  0
 25 24  1  0  0  0  0
 26 21  1  0  0  0  0
 27 20  1  0  0  0  0
 28 30  1  0  0  0  0
 29 30  2  0  0  0  0
 30 23  1  0  0  0  0
M  END
>  <MODEL>
8

>  <REMARK>
 VINA RESULT:      -7.0      4.357      9.825
  Name = 
  9 active torsions:
  status: ('A' for Active; 'I' for Inactive)
    1  A    between atoms: C_1  and  C_21
    2  A    between atoms: C_1  and  C_30
    3  A    between atoms: C_2  and  C_8
    4  A    between atoms: C_2  and  N_16
    5  A    between atoms: C_8  and  C_29
    6  A    between atoms: CA_11  and  C_15
    7  A    between atoms: CA_11  and  N_17
    8  A    between atoms: N_16  and  C_30
    9  A    between atoms: C_23  and  S_24
                            x       y       z     vdW  Elec       q    Type
                         _______ _______ _______ _____ _____    ______ ____

>  <TORSDO>
F 9

$$$$
=
 OpenBabel11072411033D

 30 31  0  0  1  0  0  0  0  0999 V2000
  160.9250  207.4640  152.5740 C   0  0  0  0  0  2  0  0  0  0  0  0
  161.5780  206.0170  154.2470 O   0  0  0  0  0  1  0  0  0  0  0  0
  160.9840  206.0660  153.0270 N   0  0  0  0  0  0  0  0  0  0  0  0
  161.7990  205.2870  152.1030 C   0  0  0  0  0  2  0  0  0  0  0  0
  160.9740  204.1560  151.5040 C   0  0  0  0  0  2  0  0  0  0  0  0
  161.3930  206.0190  148.2710 C   0  0  0  0  0  2  0  0  0  0  0  0
  160.8650  204.3080  150.0220 C   0  0  0  0  0  0  0  0  0  0  0  0
  160.4590  205.6260  149.4250 C   0  0  0  0  0  2  0  0  0  0  0  0
  161.8030  204.8410  147.3610 C   0  0  1  0  0  3  0  0  0  0  0  0
  161.1360  203.5040  147.7270 C   0  0  0  0  0  2  0  0  0  0  0  0
  161.1940  203.2950  149.2110 C   0  0  0  0  0  3  0  0  0  0  0  0
  162.7380  205.8150  145.0280 O   0  0  0  0  0  0  0  0  0  0  0  0
  161.0530  203.8480  144.8260 F   0  0  0  0  0  0  0  0  0  0  0  0
  160.3830  206.2400  145.5570 O   0  0  0  0  0  0  0  0  0  0  0  0
  161.4970  205.2370  145.6490 S   0  0  0  0  0  0  0  0  0  0  0  0
  160.9220  208.4930  153.7110 C   0  0  0  0  0  2  0  0  0  0  0  0
  160.4190  210.2740  151.9990 N   0  0  0  0  0  2  0  0  0  0  0  0
  161.8800  210.6720  153.7890 O   0  0  0  0  0  0  0  0  0  0  0  0
  161.0970  209.8810  153.1980 C   0  0  0  0  0  0  0  0  0  0  0  0
  161.8000  213.0130  148.6000 C   0  0  0  0  0  0  0  0  0  0  0  0
  161.8940  211.0980  149.5890 C   0  0  0  0  0  0  0  0  0  0  0  0
  162.2310  209.9100  149.8330 O   0  0  0  0  0  0  0  0  0  0  0  0
  160.3130  211.6110  151.4840 C   0  0  0  0  0  0  0  0  0  0  0  0
  160.9880  211.9230  150.3660 C   0  0  0  0  0  0  0  0  0  0  0  0
  160.9530  213.1400  149.7040 O   0  0  0  0  0  0  0  0  0  0  0  0
  162.3680  211.8520  148.4830 N   0  0  0  0  0  0  0  0  0  0  0  0
  162.0310  214.1160  147.6290 C   0  0  0  0  0  1  0  0  0  0  0  0
  158.2190  212.9650  151.5030 O   0  0  0  0  0  0  0  0  0  0  0  0
  159.7210  213.1510  153.2110 O   0  0  0  0  0  1  0  0  0  0  0  0
  159.4100  212.6010  152.1210 C   0  0  0  0  0  0  0  0  0  0  0  0
  1  3  1  0  0  0  0
  1 16  1  0  0  0  0
  3  2  1  0  0  0  0
  4  3  1  0  0  0  0
  5  4  1  0  0  0  0
  6  8  1  0  0  0  0
  7  5  1  0  0  0  0
  8  7  1  0  0  0  0
  9 15  1  6  0  0  0
  9 10  1  0  0  0  0
  9  6  1  0  0  0  0
 10 11  1  0  0  0  0
 11  7  2  0  0  0  0
 12 15  2  0  0  0  0
 13 15  1  0  0  0  0
 14 15  2  0  0  0  0
 17 19  1  0  0  0  0
 19 16  1  0  0  0  0
 19 18  2  0  0  0  0
 20 25  1  0  0  0  0
 21 22  2  0  0  0  0
 21 24  1  0  0  0  0
 23 17  1  0  0  0  0
 23 30  1  0  0  0  0
 24 23  2  0  0  0  0
 25 24  1  0  0  0  0
 26 20  2  0  0  0  0
 26 21  1  0  0  0  0
 27 20  1  0  0  0  0
 28 30  2  0  0  0  0
 30 29  1  0  0  0  0
M  END
>  <MODEL>
9

>  <REMARK>
 VINA RESULT:      -6.9      2.523      3.726
  Name = 
  9 active torsions:
  status: ('A' for Active; 'I' for Inactive)
    1  A    between atoms: C_1  and  C_21
    2  A    between atoms: C_1  and  C_30
    3  A    between atoms: C_2  and  C_8
    4  A    between atoms: C_2  and  N_16
    5  A    between atoms: C_8  and  C_29
    6  A    between atoms: CA_11  and  C_15
    7  A    between atoms: CA_11  and  N_17
    8  A    between atoms: N_16  and  C_30
    9  A    between atoms: C_23  and  S_24
                            x       y       z     vdW  Elec       q    Type
                         _______ _______ _______ _____ _____    ______ ____

>  <TORSDO>
F 9

$$$$
