=
 OpenBabel11072412103D

 31 33  0  0  1  0  0  0  0  0999 V2000
  160.5080  208.4330  152.7090 C   0  0  1  0  0  3  0  0  0  0  0  0
  162.0300  210.0190  151.6470 C   0  0  0  0  0  2  0  0  0  0  0  0
  160.6690  209.9000  152.3150 C   0  0  2  0  0  3  0  0  0  0  0  0
  162.4390  208.6110  151.2440 C   0  0  0  0  0  2  0  0  0  0  0  0
  161.2640  207.7110  151.5960 C   0  0  1  0  0  3  0  0  0  0  0  0
  161.6990  204.0320  151.1330 N   0  0  0  0  0  2  0  0  0  0  0  0
  161.9980  205.3890  150.7080 C   0  0  2  0  0  3  0  0  0  0  0  0
  161.6960  206.2670  151.9100 C   0  0  2  0  0  3  0  0  0  0  0  0
  160.6820  205.5590  152.6630 N   0  0  0  0  0  2  0  0  0  0  0  0
  160.9420  204.1530  152.3780 C   0  0  0  0  0  2  0  0  0  0  0  0
  161.7600  205.5270  148.1960 N   0  0  0  0  0  2  0  0  0  0  0  0
  159.9480  206.2850  146.9180 O   0  0  0  0  0  0  0  0  0  0  0  0
  160.0230  206.2050  149.6150 O   0  0  0  0  0  0  0  0  0  0  0  0
  161.1820  205.7240  149.4900 C   0  0  0  0  0  0  0  0  0  0  0  0
  161.1250  205.8380  146.9490 C   0  0  0  0  0  0  0  0  0  0  0  0
  161.8560  205.6290  145.6620 C   0  0  0  0  0  3  0  0  0  0  0  0
  161.6260  203.2500  145.6630 O   0  0  0  0  0  1  0  0  0  0  0  0
  162.5640  204.2810  145.6460 C   0  0  0  0  0  2  0  0  0  0  0  0
  160.9340  205.8080  144.4570 C   0  0  0  0  0  2  0  0  0  0  0  0
  161.6390  205.6640  143.2580 O   0  0  0  0  0  1  0  0  0  0  0  0
  161.0890  208.1610  154.0430 C   0  0  0  0  0  0  0  0  0  0  0  0
  161.5430  207.9480  155.0860 N   0  0  0  0  0  0  0  0  0  0  0  0
  160.5700  210.7720  153.4070 O   0  0  0  0  0  0  0  0  0  0  0  0
  159.2070  211.0590  153.5210 C   0  0  1  0  0  3  0  0  0  0  0  0
  158.6450  210.5260  155.7910 O   0  0  0  0  0  1  0  0  0  0  0  0
  158.9170  213.4810  152.8430 C   0  0  0  0  0  2  0  0  0  0  0  0
  157.7390  212.5650  154.9340 C   0  0  0  0  0  2  0  0  0  0  0  0
  158.9140  211.5910  154.9330 C   0  0  2  0  0  3  0  0  0  0  0  0
  158.0390  213.7910  154.0650 C   0  0  2  0  0  3  0  0  0  0  0  0
  158.7820  212.0230  152.4030 C   0  0  0  0  0  2  0  0  0  0  0  0
  156.7360  214.4240  153.6190 C   0  0  0  0  0  1  0  0  0  0  0  0
  1 21  1  1  0  0  0
  2  3  1  0  0  0  0
  3  1  1  0  0  0  0
  3 23  1  1  0  0  0
  4  2  1  0  0  0  0
  5  4  1  1  0  0  0
  5  8  1  0  0  0  0
  5  1  1  0  0  0  0
  6 10  1  0  0  0  0
  7 14  1  6  0  0  0
  7  6  1  0  0  0  0
  7  8  1  0  0  0  0
  8  9  1  6  0  0  0
 10  9  1  0  0  0  0
 11 14  1  0  0  0  0
 12 15  2  0  0  0  0
 14 13  2  0  0  0  0
 15 11  1  0  0  0  0
 16 15  1  0  0  0  0
 18 16  1  0  0  0  0
 18 17  1  0  0  0  0
 19 16  1  0  0  0  0
 20 19  1  0  0  0  0
 21 22  3  0  0  0  0
 24 23  1  1  0  0  0
 24 28  1  0  0  0  0
 26 29  1  0  0  0  0
 28 27  1  0  0  0  0
 28 25  1  1  0  0  0
 29 31  1  6  0  0  0
 29 27  1  0  0  0  0
 30 26  1  0  0  0  0
 30 24  1  0  0  0  0
M  END
>  <MODEL>
1

>  <REMARK>
 VINA RESULT:      -6.4      0.000      0.000
  Name = 
  8 active torsions:
  status: ('A' for Active; 'I' for Inactive)
    1  A    between atoms: C_1  and  C_7
    2  A    between atoms: C_4  and  O_31
    3  A    between atoms: C_5  and  C_18
    4  A    between atoms: C_5  and  C_23
    5  A    between atoms: C_5  and  C_25
    6  A    between atoms: C_8  and  C_19
    7  A    between atoms: C_9  and  C_29
    8  A    between atoms: C_20  and  O_31
                            x       y       z     vdW  Elec       q    Type
                         _______ _______ _______ _____ _____    ______ ____

>  <TORSDO>
F 8

$$$$
=
 OpenBabel11072412103D

 31 33  0  0  1  0  0  0  0  0999 V2000
  160.5950  206.9820  149.8850 C   0  0  1  0  0  3  0  0  0  0  0  0
  161.9470  205.2950  151.0190 C   0  0  0  0  0  2  0  0  0  0  0  0
  160.5350  205.6070  150.5480 C   0  0  2  0  0  3  0  0  0  0  0  0
  162.6930  206.6190  151.0550 C   0  0  0  0  0  2  0  0  0  0  0  0
  161.6740  207.6910  150.7000 C   0  0  1  0  0  3  0  0  0  0  0  0
  162.4500  211.2840  150.0440 N   0  0  0  0  0  2  0  0  0  0  0  0
  162.5170  210.1310  150.9260 C   0  0  2  0  0  3  0  0  0  0  0  0
  162.3140  208.9200  150.0310 C   0  0  2  0  0  3  0  0  0  0  0  0
  161.5240  209.3930  148.9140 N   0  0  0  0  0  2  0  0  0  0  0  0
  161.8940  210.7970  148.7820 C   0  0  0  0  0  2  0  0  0  0  0  0
  161.6380  209.5090  153.2130 N   0  0  0  0  0  2  0  0  0  0  0  0
  159.6910  210.2300  154.2980 O   0  0  0  0  0  0  0  0  0  0  0  0
  160.4800  211.0110  151.8380 O   0  0  0  0  0  0  0  0  0  0  0  0
  161.4840  210.2670  152.0090 C   0  0  0  0  0  0  0  0  0  0  0  0
  160.7180  209.5010  154.3110 C   0  0  0  0  0  0  0  0  0  0  0  0
  160.9710  208.6250  155.4970 C   0  0  0  0  0  3  0  0  0  0  0  0
  161.5620  210.3280  157.0680 O   0  0  0  0  0  1  0  0  0  0  0  0
  160.6150  209.3410  156.7930 C   0  0  0  0  0  2  0  0  0  0  0  0
  160.2550  207.2820  155.3670 C   0  0  0  0  0  2  0  0  0  0  0  0
  160.7670  206.5400  154.2980 O   0  0  0  0  0  1  0  0  0  0  0  0
  160.9550  206.8800  148.4530 C   0  0  0  0  0  0  0  0  0  0  0  0
  161.2360  206.7990  147.3330 N   0  0  0  0  0  0  0  0  0  0  0  0
  160.0620  204.6070  149.6890 O   0  0  0  0  0  0  0  0  0  0  0  0
  161.0630  203.6320  149.6770 C   0  0  1  0  0  3  0  0  0  0  0  0
  160.8250  202.4670  151.7590 O   0  0  0  0  0  1  0  0  0  0  0  0
  160.7090  202.2540  147.5830 C   0  0  0  0  0  2  0  0  0  0  0  0
  161.1990  201.1070  149.8300 C   0  0  0  0  0  2  0  0  0  0  0  0
  160.5580  202.3710  150.3950 C   0  0  2  0  0  3  0  0  0  0  0  0
  160.8520  200.9290  148.3480 C   0  0  2  0  0  3  0  0  0  0  0  0
  161.5210  203.3730  148.2330 C   0  0  0  0  0  2  0  0  0  0  0  0
  161.9020  200.0590  147.6860 C   0  0  0  0  0  1  0  0  0  0  0  0
  1 21  1  6  0  0  0
  1  3  1  0  0  0  0
  1  5  1  0  0  0  0
  2  4  1  0  0  0  0
  3 23  1  6  0  0  0
  3  2  1  0  0  0  0
  5  4  1  6  0  0  0
  6  7  1  0  0  0  0
  7 14  1  1  0  0  0
  8  9  1  6  0  0  0
  8  5  1  0  0  0  0
  8  7  1  0  0  0  0
 10  9  1  0  0  0  0
 10  6  1  0  0  0  0
 11 15  1  0  0  0  0
 12 15  2  0  0  0  0
 13 14  2  0  0  0  0
 14 11  1  0  0  0  0
 15 16  1  0  0  0  0
 16 18  1  0  0  0  0
 18 17  1  0  0  0  0
 19 16  1  0  0  0  0
 20 19  1  0  0  0  0
 22 21  3  0  0  0  0
 24 23  1  6  0  0  0
 24 28  1  0  0  0  0
 26 30  1  0  0  0  0
 26 29  1  0  0  0  0
 27 28  1  0  0  0  0
 28 25  1  1  0  0  0
 29 31  1  6  0  0  0
 29 27  1  0  0  0  0
 30 24  1  0  0  0  0
M  END
>  <MODEL>
2

>  <REMARK>
 VINA RESULT:      -6.0      3.185      8.924
  Name = 
  8 active torsions:
  status: ('A' for Active; 'I' for Inactive)
    1  A    between atoms: C_1  and  C_7
    2  A    between atoms: C_4  and  O_31
    3  A    between atoms: C_5  and  C_18
    4  A    between atoms: C_5  and  C_23
    5  A    between atoms: C_5  and  C_25
    6  A    between atoms: C_8  and  C_19
    7  A    between atoms: C_9  and  C_29
    8  A    between atoms: C_20  and  O_31
                            x       y       z     vdW  Elec       q    Type
                         _______ _______ _______ _____ _____    ______ ____

>  <TORSDO>
F 8

$$$$
=
 OpenBabel11072412103D

 31 33  0  0  1  0  0  0  0  0999 V2000
  160.4550  209.0540  152.9640 C   0  0  1  0  0  3  0  0  0  0  0  0
  161.8420  210.6700  151.7710 C   0  0  0  0  0  2  0  0  0  0  0  0
  160.5080  210.5020  152.4800 C   0  0  2  0  0  3  0  0  0  0  0  0
  162.3360  209.2710  151.4410 C   0  0  0  0  0  2  0  0  0  0  0  0
  161.2330  208.3180  151.8750 C   0  0  1  0  0  3  0  0  0  0  0  0
  161.9780  204.6710  151.5810 N   0  0  0  0  0  2  0  0  0  0  0  0
  162.1810  206.0310  151.1090 C   0  0  2  0  0  3  0  0  0  0  0  0
  161.7690  206.9280  152.2630 C   0  0  2  0  0  3  0  0  0  0  0  0
  160.7900  206.1690  153.0140 N   0  0  0  0  0  2  0  0  0  0  0  0
  161.1720  204.7790  152.7960 C   0  0  0  0  0  2  0  0  0  0  0  0
  161.6340  205.4130  148.7200 N   0  0  0  0  0  2  0  0  0  0  0  0
  160.0850  206.3860  147.2550 O   0  0  0  0  0  0  0  0  0  0  0  0
  160.5340  207.1810  149.7950 O   0  0  0  0  0  0  0  0  0  0  0  0
  161.3830  206.2500  149.8540 C   0  0  0  0  0  0  0  0  0  0  0  0
  160.9870  205.5280  147.4460 C   0  0  0  0  0  0  0  0  0  0  0  0
  161.3740  204.6190  146.3230 C   0  0  0  0  0  3  0  0  0  0  0  0
  163.7620  204.7210  146.3130 O   0  0  0  0  0  1  0  0  0  0  0  0
  162.6230  205.1240  145.6150 C   0  0  0  0  0  2  0  0  0  0  0  0
  161.5250  203.1750  146.7960 C   0  0  0  0  0  2  0  0  0  0  0  0
  161.0980  202.2760  145.8140 O   0  0  0  0  0  1  0  0  0  0  0  0
  161.0820  208.9030  154.2960 C   0  0  0  0  0  0  0  0  0  0  0  0
  161.5720  208.7840  155.3380 N   0  0  0  0  0  0  0  0  0  0  0  0
  160.3740  211.4300  153.5210 O   0  0  0  0  0  0  0  0  0  0  0  0
  158.9990  211.5220  153.7530 C   0  0  1  0  0  3  0  0  0  0  0  0
  158.7450  211.2460  156.1220 O   0  0  0  0  0  1  0  0  0  0  0  0
  158.2500  213.7470  152.8060 C   0  0  0  0  0  2  0  0  0  0  0  0
  157.4390  212.9780  155.1190 C   0  0  0  0  0  2  0  0  0  0  0  0
  158.7540  212.2030  155.1080 C   0  0  2  0  0  3  0  0  0  0  0  0
  157.4510  214.0960  154.0700 C   0  0  2  0  0  3  0  0  0  0  0  0
  158.3180  212.2380  152.5760 C   0  0  0  0  0  2  0  0  0  0  0  0
  156.0250  214.4530  153.7000 C   0  0  0  0  0  1  0  0  0  0  0  0
  1 21  1  1  0  0  0
  2  3  1  0  0  0  0
  3  1  1  0  0  0  0
  3 23  1  1  0  0  0
  4  2  1  0  0  0  0
  5  4  1  1  0  0  0
  5  8  1  0  0  0  0
  5  1  1  0  0  0  0
  6 10  1  0  0  0  0
  7 14  1  6  0  0  0
  7  6  1  0  0  0  0
  7  8  1  0  0  0  0
  8  9  1  6  0  0  0
 10  9  1  0  0  0  0
 11 14  1  0  0  0  0
 12 15  2  0  0  0  0
 13 14  2  0  0  0  0
 15 11  1  0  0  0  0
 16 19  1  0  0  0  0
 16 15  1  0  0  0  0
 18 17  1  0  0  0  0
 18 16  1  0  0  0  0
 20 19  1  0  0  0  0
 21 22  3  0  0  0  0
 24 23  1  6  0  0  0
 24 28  1  0  0  0  0
 26 29  1  0  0  0  0
 28 27  1  0  0  0  0
 28 25  1  1  0  0  0
 29 31  1  6  0  0  0
 29 27  1  0  0  0  0
 30 26  1  0  0  0  0
 30 24  1  0  0  0  0
M  END
>  <MODEL>
3

>  <REMARK>
 VINA RESULT:      -5.8      1.067      1.316
  Name = 
  8 active torsions:
  status: ('A' for Active; 'I' for Inactive)
    1  A    between atoms: C_1  and  C_7
    2  A    between atoms: C_4  and  O_31
    3  A    between atoms: C_5  and  C_18
    4  A    between atoms: C_5  and  C_23
    5  A    between atoms: C_5  and  C_25
    6  A    between atoms: C_8  and  C_19
    7  A    between atoms: C_9  and  C_29
    8  A    between atoms: C_20  and  O_31
                            x       y       z     vdW  Elec       q    Type
                         _______ _______ _______ _____ _____    ______ ____

>  <TORSDO>
F 8

$$$$
=
 OpenBabel11072412103D

 31 33  0  0  1  0  0  0  0  0999 V2000
  160.6310  208.6870  152.3760 C   0  0  1  0  0  3  0  0  0  0  0  0
  161.5510  207.6370  154.3790 C   0  0  0  0  0  2  0  0  0  0  0  0
  160.8760  207.3380  153.0500 C   0  0  2  0  0  3  0  0  0  0  0  0
  161.2840  209.1040  154.6800 C   0  0  0  0  0  2  0  0  0  0  0  0
  160.3740  209.6050  153.5690 C   0  0  1  0  0  3  0  0  0  0  0  0
  159.5680  213.2510  153.5690 N   0  0  0  0  0  2  0  0  0  0  0  0
  159.8940  212.0430  154.3080 C   0  0  2  0  0  3  0  0  0  0  0  0
  160.5430  211.1120  153.2980 C   0  0  2  0  0  3  0  0  0  0  0  0
  159.9930  211.4890  152.0130 N   0  0  0  0  0  2  0  0  0  0  0  0
  159.6980  212.9100  152.1530 C   0  0  0  0  0  2  0  0  0  0  0  0
  157.4930  212.3260  155.0430 N   0  0  0  0  0  2  0  0  0  0  0  0
  156.0780  210.7920  156.1090 O   0  0  0  0  0  0  0  0  0  0  0  0
  158.6340  210.3080  155.3870 O   0  0  0  0  0  0  0  0  0  0  0  0
  158.6460  211.4860  154.9340 C   0  0  0  0  0  0  0  0  0  0  0  0
  156.2500  211.9530  155.6520 C   0  0  0  0  0  0  0  0  0  0  0  0
  155.1330  212.9420  155.7460 C   0  0  0  0  0  3  0  0  0  0  0  0
  153.8580  214.2820  157.2610 O   0  0  0  0  0  1  0  0  0  0  0  0
  154.9950  213.4810  157.1640 C   0  0  0  0  0  2  0  0  0  0  0  0
  155.2860  214.0620  154.7180 C   0  0  0  0  0  2  0  0  0  0  0  0
  154.7770  213.6770  153.4750 O   0  0  0  0  0  1  0  0  0  0  0  0
  161.8040  209.1190  151.5830 C   0  0  0  0  0  0  0  0  0  0  0  0
  162.7210  209.4560  150.9620 N   0  0  0  0  0  0  0  0  0  0  0  0
  161.6600  206.4750  152.2740 O   0  0  0  0  0  0  0  0  0  0  0  0
  160.7490  205.7510  151.5000 C   0  0  1  0  0  3  0  0  0  0  0  0
  160.8060  206.7850  149.3370 O   0  0  0  0  0  1  0  0  0  0  0  0
  161.4790  203.3290  151.5950 C   0  0  0  0  0  2  0  0  0  0  0  0
  160.7940  204.3960  149.3600 C   0  0  0  0  0  2  0  0  0  0  0  0
  161.2550  205.6750  150.0510 C   0  0  2  0  0  3  0  0  0  0  0  0
  161.3440  203.1560  150.0740 C   0  0  2  0  0  3  0  0  0  0  0  0
  160.5040  204.3740  152.1360 C   0  0  0  0  0  2  0  0  0  0  0  0
  160.4610  201.9640  149.7660 C   0  0  0  0  0  1  0  0  0  0  0  0
  1 21  1  1  0  0  0
  1  3  1  0  0  0  0
  1  5  1  0  0  0  0
  2  4  1  0  0  0  0
  3 23  1  6  0  0  0
  3  2  1  0  0  0  0
  5  4  1  1  0  0  0
  6  7  1  0  0  0  0
  7 14  1  6  0  0  0
  8  9  1  6  0  0  0
  8  5  1  0  0  0  0
  8  7  1  0  0  0  0
  9 10  1  0  0  0  0
 10  6  1  0  0  0  0
 11 15  1  0  0  0  0
 14 11  1  0  0  0  0
 14 13  2  0  0  0  0
 15 16  1  0  0  0  0
 15 12  2  0  0  0  0
 16 18  1  0  0  0  0
 18 17  1  0  0  0  0
 19 16  1  0  0  0  0
 20 19  1  0  0  0  0
 22 21  3  0  0  0  0
 24 30  1  0  0  0  0
 24 23  1  1  0  0  0
 26 30  1  0  0  0  0
 27 28  1  0  0  0  0
 27 29  1  0  0  0  0
 28 25  1  6  0  0  0
 28 24  1  0  0  0  0
 29 31  1  1  0  0  0
 29 26  1  0  0  0  0
M  END
>  <MODEL>
4

>  <REMARK>
 VINA RESULT:      -5.7      2.962      9.596
  Name = 
  8 active torsions:
  status: ('A' for Active; 'I' for Inactive)
    1  A    between atoms: C_1  and  C_7
    2  A    between atoms: C_4  and  O_31
    3  A    between atoms: C_5  and  C_18
    4  A    between atoms: C_5  and  C_23
    5  A    between atoms: C_5  and  C_25
    6  A    between atoms: C_8  and  C_19
    7  A    between atoms: C_9  and  C_29
    8  A    between atoms: C_20  and  O_31
                            x       y       z     vdW  Elec       q    Type
                         _______ _______ _______ _____ _____    ______ ____

>  <TORSDO>
F 8

$$$$
=
 OpenBabel11072412103D

 31 33  0  0  1  0  0  0  0  0999 V2000
  162.1570  207.2090  152.9990 C   0  0  1  0  0  3  0  0  0  0  0  0
  160.7960  208.2300  151.2490 C   0  0  0  0  0  2  0  0  0  0  0  0
  162.1300  207.5500  151.5110 C   0  0  2  0  0  3  0  0  0  0  0  0
  160.2730  208.6900  152.6000 C   0  0  0  0  0  2  0  0  0  0  0  0
  161.3590  208.3580  153.6110 C   0  0  1  0  0  3  0  0  0  0  0  0
  159.8660  209.1120  156.9490 N   0  0  0  0  0  2  0  0  0  0  0  0
  159.7410  209.0810  155.5010 C   0  0  2  0  0  3  0  0  0  0  0  0
  160.7980  208.1030  155.0220 C   0  0  2  0  0  3  0  0  0  0  0  0
  161.8420  208.1370  156.0250 N   0  0  0  0  0  2  0  0  0  0  0  0
  161.1400  208.4650  157.2600 C   0  0  0  0  0  2  0  0  0  0  0  0
  158.7820  211.1130  154.3430 N   0  0  0  0  0  2  0  0  0  0  0  0
  159.8390  213.1200  153.7570 O   0  0  0  0  0  0  0  0  0  0  0  0
  161.0290  211.0440  155.0050 O   0  0  0  0  0  0  0  0  0  0  0  0
  159.9060  210.4720  154.9550 C   0  0  0  0  0  0  0  0  0  0  0  0
  158.7960  212.4140  153.7420 C   0  0  0  0  0  0  0  0  0  0  0  0
  157.5630  212.9530  153.0910 C   0  0  0  0  0  3  0  0  0  0  0  0
  155.5860  212.7510  154.4190 O   0  0  0  0  0  1  0  0  0  0  0  0
  156.6440  213.6070  154.1140 C   0  0  0  0  0  2  0  0  0  0  0  0
  157.9030  213.8970  151.9380 C   0  0  0  0  0  2  0  0  0  0  0  0
  158.1850  213.1830  150.7700 O   0  0  0  0  0  1  0  0  0  0  0  0
  161.5350  205.8930  153.2670 C   0  0  0  0  0  0  0  0  0  0  0  0
  161.0470  204.8650  153.4760 N   0  0  0  0  0  0  0  0  0  0  0  0
  162.2880  206.4250  150.6900 O   0  0  0  0  0  0  0  0  0  0  0  0
  161.5400  206.7020  149.5430 C   0  0  1  0  0  3  0  0  0  0  0  0
  162.6490  208.5610  148.5090 O   0  0  0  0  0  1  0  0  0  0  0  0
  161.4620  204.5630  148.1930 C   0  0  0  0  0  2  0  0  0  0  0  0
  161.9440  206.8100  147.0440 C   0  0  0  0  0  2  0  0  0  0  0  0
  162.4790  207.1800  148.4240 C   0  0  2  0  0  3  0  0  0  0  0  0
  161.8260  205.2890  146.8890 C   0  0  2  0  0  3  0  0  0  0  0  0
  160.7030  205.4740  149.1570 C   0  0  0  0  0  2  0  0  0  0  0  0
  160.8050  204.9700  145.8150 C   0  0  0  0  0  1  0  0  0  0  0  0
  1 21  1  6  0  0  0
  1  5  1  0  0  0  0
  2  3  1  0  0  0  0
  2  4  1  0  0  0  0
  3 23  1  6  0  0  0
  3  1  1  0  0  0  0
  5  4  1  6  0  0  0
  5  8  1  0  0  0  0
  6 10  1  0  0  0  0
  7 14  1  6  0  0  0
  7  6  1  0  0  0  0
  8  7  1  0  0  0  0
  8  9  1  1  0  0  0
  9 10  1  0  0  0  0
 11 14  1  0  0  0  0
 14 13  2  0  0  0  0
 15 12  2  0  0  0  0
 15 11  1  0  0  0  0
 16 15  1  0  0  0  0
 16 18  1  0  0  0  0
 18 17  1  0  0  0  0
 19 16  1  0  0  0  0
 20 19  1  0  0  0  0
 21 22  3  0  0  0  0
 24 23  1  1  0  0  0
 26 30  1  0  0  0  0
 27 28  1  0  0  0  0
 28 25  1  6  0  0  0
 28 24  1  0  0  0  0
 29 31  1  6  0  0  0
 29 27  1  0  0  0  0
 29 26  1  0  0  0  0
 30 24  1  0  0  0  0
M  END
>  <MODEL>
5

>  <REMARK>
 VINA RESULT:      -5.7      2.420      8.387
  Name = 
  8 active torsions:
  status: ('A' for Active; 'I' for Inactive)
    1  A    between atoms: C_1  and  C_7
    2  A    between atoms: C_4  and  O_31
    3  A    between atoms: C_5  and  C_18
    4  A    between atoms: C_5  and  C_23
    5  A    between atoms: C_5  and  C_25
    6  A    between atoms: C_8  and  C_19
    7  A    between atoms: C_9  and  C_29
    8  A    between atoms: C_20  and  O_31
                            x       y       z     vdW  Elec       q    Type
                         _______ _______ _______ _____ _____    ______ ____

>  <TORSDO>
F 8

$$$$
=
 OpenBabel11072412103D

 31 33  0  0  1  0  0  0  0  0999 V2000
  162.4220  206.3700  149.2890 C   0  0  1  0  0  3  0  0  0  0  0  0
  160.5350  205.7900  150.7230 C   0  0  0  0  0  2  0  0  0  0  0  0
  162.0230  206.1030  150.7380 C   0  0  2  0  0  3  0  0  0  0  0  0
  160.1840  205.4260  149.2890 C   0  0  0  0  0  2  0  0  0  0  0  0
  161.4930  205.4370  148.5160 C   0  0  1  0  0  3  0  0  0  0  0  0
  161.2190  204.8840  144.8340 N   0  0  0  0  0  2  0  0  0  0  0  0
  160.6940  204.6720  146.1730 C   0  0  2  0  0  3  0  0  0  0  0  0
  161.2990  205.7720  147.0260 C   0  0  2  0  0  3  0  0  0  0  0  0
  162.5540  206.1120  146.3880 N   0  0  0  0  0  2  0  0  0  0  0  0
  162.3260  205.8280  144.9760 C   0  0  0  0  0  2  0  0  0  0  0  0
  160.7890  202.9210  147.9930 N   0  0  0  0  0  2  0  0  0  0  0  0
  161.6100  200.7290  147.9000 O   0  0  0  0  0  0  0  0  0  0  0  0
  161.5850  202.4680  145.8370 O   0  0  0  0  0  0  0  0  0  0  0  0
  161.0430  203.2840  146.6320 C   0  0  0  0  0  0  0  0  0  0  0  0
  161.1050  201.6560  148.5870 C   0  0  0  0  0  0  0  0  0  0  0  0
  160.8310  201.4170  150.0370 C   0  0  0  0  0  3  0  0  0  0  0  0
  160.8310  202.7260  152.0380 O   0  0  0  0  0  1  0  0  0  0  0  0
  161.5870  202.4100  150.9090 C   0  0  0  0  0  2  0  0  0  0  0  0
  159.3320  201.4180  150.3330 C   0  0  0  0  0  2  0  0  0  0  0  0
  158.6020  200.9530  149.2350 O   0  0  0  0  0  1  0  0  0  0  0  0
  162.2180  207.7900  148.9210 C   0  0  0  0  0  0  0  0  0  0  0  0
  162.0580  208.8990  148.6350 N   0  0  0  0  0  0  0  0  0  0  0  0
  162.2980  207.1810  151.5880 O   0  0  0  0  0  0  0  0  0  0  0  0
  161.1560  207.3220  152.3820 C   0  0  1  0  0  3  0  0  0  0  0  0
  161.2060  205.4540  153.8860 O   0  0  0  0  0  1  0  0  0  0  0  0
  161.2910  209.6140  153.4480 C   0  0  0  0  0  2  0  0  0  0  0  0
  160.6250  207.5630  154.8470 C   0  0  0  0  0  2  0  0  0  0  0  0
  161.4570  206.8230  153.8040 C   0  0  2  0  0  3  0  0  0  0  0  0
  160.9420  209.0630  154.8400 C   0  0  2  0  0  3  0  0  0  0  0  0
  160.6650  208.7770  152.3330 C   0  0  0  0  0  2  0  0  0  0  0  0
  159.7690  209.8280  155.4190 C   0  0  0  0  0  1  0  0  0  0  0  0
  1 21  1  6  0  0  0
  1  3  1  0  0  0  0
  2  3  1  0  0  0  0
  3 23  1  1  0  0  0
  4  2  1  0  0  0  0
  5  1  1  0  0  0  0
  5  4  1  1  0  0  0
  6 10  1  0  0  0  0
  6  7  1  0  0  0  0
  7 14  1  1  0  0  0
  7  8  1  0  0  0  0
  8  9  1  6  0  0  0
  8  5  1  0  0  0  0
 10  9  1  0  0  0  0
 11 15  1  0  0  0  0
 12 15  2  0  0  0  0
 13 14  2  0  0  0  0
 14 11  1  0  0  0  0
 15 16  1  0  0  0  0
 16 19  1  0  0  0  0
 16 18  1  0  0  0  0
 18 17  1  0  0  0  0
 20 19  1  0  0  0  0
 22 21  3  0  0  0  0
 24 23  1  6  0  0  0
 24 28  1  0  0  0  0
 26 29  1  0  0  0  0
 28 25  1  6  0  0  0
 28 27  1  0  0  0  0
 29 27  1  0  0  0  0
 29 31  1  6  0  0  0
 30 24  1  0  0  0  0
 30 26  1  0  0  0  0
M  END
>  <MODEL>
6

>  <REMARK>
 VINA RESULT:      -5.6      3.235      5.490
  Name = 
  8 active torsions:
  status: ('A' for Active; 'I' for Inactive)
    1  A    between atoms: C_1  and  C_7
    2  A    between atoms: C_4  and  O_31
    3  A    between atoms: C_5  and  C_18
    4  A    between atoms: C_5  and  C_23
    5  A    between atoms: C_5  and  C_25
    6  A    between atoms: C_8  and  C_19
    7  A    between atoms: C_9  and  C_29
    8  A    between atoms: C_20  and  O_31
                            x       y       z     vdW  Elec       q    Type
                         _______ _______ _______ _____ _____    ______ ____

>  <TORSDO>
F 8

$$$$
=
 OpenBabel11072412103D

 31 33  0  0  1  0  0  0  0  0999 V2000
  160.6130  206.8730  150.0540 C   0  0  1  0  0  3  0  0  0  0  0  0
  161.9290  205.1180  151.1240 C   0  0  0  0  0  2  0  0  0  0  0  0
  160.5320  205.4620  150.6310 C   0  0  2  0  0  3  0  0  0  0  0  0
  162.6760  206.4350  151.2610 C   0  0  0  0  0  2  0  0  0  0  0  0
  161.6690  207.5290  150.9410 C   0  0  1  0  0  3  0  0  0  0  0  0
  162.4590  211.1530  150.5130 N   0  0  0  0  0  2  0  0  0  0  0  0
  162.4960  209.9530  151.3330 C   0  0  2  0  0  3  0  0  0  0  0  0
  162.3310  208.7940  150.3650 C   0  0  2  0  0  3  0  0  0  0  0  0
  161.5820  209.3270  149.2470 N   0  0  0  0  0  2  0  0  0  0  0  0
  161.9530  210.7360  149.2060 C   0  0  0  0  0  2  0  0  0  0  0  0
  160.4160  211.0410  152.2690 N   0  0  0  0  0  2  0  0  0  0  0  0
  159.2180  210.5190  154.2130 O   0  0  0  0  0  0  0  0  0  0  0  0
  161.4330  209.2340  153.3600 O   0  0  0  0  0  0  0  0  0  0  0  0
  161.4220  210.0290  152.3810 C   0  0  0  0  0  0  0  0  0  0  0  0
  159.3570  211.2650  153.2080 C   0  0  0  0  0  0  0  0  0  0  0  0
  158.3940  212.3900  153.0010 C   0  0  0  0  0  3  0  0  0  0  0  0
  157.6050  213.3310  155.0520 O   0  0  0  0  0  1  0  0  0  0  0  0
  158.5760  213.4690  154.0600 C   0  0  0  0  0  2  0  0  0  0  0  0
  158.4860  212.9530  151.5840 C   0  0  0  0  0  2  0  0  0  0  0  0
  157.5580  213.9810  151.3900 O   0  0  0  0  0  1  0  0  0  0  0  0
  161.0160  206.8560  148.6290 C   0  0  0  0  0  0  0  0  0  0  0  0
  161.3310  206.8420  147.5160 N   0  0  0  0  0  0  0  0  0  0  0  0
  160.0830  204.5160  149.7000 O   0  0  0  0  0  0  0  0  0  0  0  0
  161.0810  203.5390  149.6620 C   0  0  1  0  0  3  0  0  0  0  0  0
  160.7910  202.2700  151.6760 O   0  0  0  0  0  1  0  0  0  0  0  0
  160.7730  202.2710  147.4930 C   0  0  0  0  0  2  0  0  0  0  0  0
  161.2060  201.0090  149.6890 C   0  0  0  0  0  2  0  0  0  0  0  0
  160.5550  202.2450  150.3020 C   0  0  2  0  0  3  0  0  0  0  0  0
  160.8930  200.9080  148.1920 C   0  0  2  0  0  3  0  0  0  0  0  0
  161.5720  203.3530  148.2180 C   0  0  0  0  0  2  0  0  0  0  0  0
  161.9560  200.0690  147.5110 C   0  0  0  0  0  1  0  0  0  0  0  0
  1 21  1  6  0  0  0
  1  3  1  0  0  0  0
  1  5  1  0  0  0  0
  2  4  1  0  0  0  0
  3 23  1  6  0  0  0
  3  2  1  0  0  0  0
  5  4  1  6  0  0  0
  6  7  1  0  0  0  0
  7 14  1  1  0  0  0
  8  9  1  6  0  0  0
  8  5  1  0  0  0  0
  8  7  1  0  0  0  0
 10  9  1  0  0  0  0
 10  6  1  0  0  0  0
 11 14  1  0  0  0  0
 11 15  1  0  0  0  0
 14 13  2  0  0  0  0
 15 12  2  0  0  0  0
 16 15  1  0  0  0  0
 16 18  1  0  0  0  0
 18 17  1  0  0  0  0
 19 16  1  0  0  0  0
 20 19  1  0  0  0  0
 22 21  3  0  0  0  0
 24 23  1  6  0  0  0
 24 28  1  0  0  0  0
 26 29  1  0  0  0  0
 26 30  1  0  0  0  0
 27 28  1  0  0  0  0
 28 25  1  1  0  0  0
 29 31  1  6  0  0  0
 29 27  1  0  0  0  0
 30 24  1  0  0  0  0
M  END
>  <MODEL>
7

>  <REMARK>
 VINA RESULT:      -5.4      2.783      9.065
  Name = 
  8 active torsions:
  status: ('A' for Active; 'I' for Inactive)
    1  A    between atoms: C_1  and  C_7
    2  A    between atoms: C_4  and  O_31
    3  A    between atoms: C_5  and  C_18
    4  A    between atoms: C_5  and  C_23
    5  A    between atoms: C_5  and  C_25
    6  A    between atoms: C_8  and  C_19
    7  A    between atoms: C_9  and  C_29
    8  A    between atoms: C_20  and  O_31
                            x       y       z     vdW  Elec       q    Type
                         _______ _______ _______ _____ _____    ______ ____

>  <TORSDO>
F 8

$$$$
=
 OpenBabel11072412103D

 31 33  0  0  1  0  0  0  0  0999 V2000
  160.6240  206.8820  150.3750 C   0  0  1  0  0  3  0  0  0  0  0  0
  161.9270  204.9410  151.0760 C   0  0  0  0  0  2  0  0  0  0  0  0
  160.6120  205.3560  150.4370 C   0  0  2  0  0  3  0  0  0  0  0  0
  162.4710  206.1710  151.7840 C   0  0  0  0  0  2  0  0  0  0  0  0
  161.4140  207.2530  151.6280 C   0  0  1  0  0  3  0  0  0  0  0  0
  162.1400  210.7070  152.8470 N   0  0  0  0  0  2  0  0  0  0  0  0
  162.2630  209.2680  153.0180 C   0  0  2  0  0  3  0  0  0  0  0  0
  162.0100  208.6720  151.6440 C   0  0  2  0  0  3  0  0  0  0  0  0
  161.1520  209.6190  150.9630 N   0  0  0  0  0  2  0  0  0  0  0  0
  161.5110  210.9080  151.5430 C   0  0  0  0  0  2  0  0  0  0  0  0
  160.4270  209.7620  154.6830 N   0  0  0  0  0  2  0  0  0  0  0  0
  159.3310  208.3060  156.1550 O   0  0  0  0  0  0  0  0  0  0  0  0
  161.2810  207.5950  154.4310 O   0  0  0  0  0  0  0  0  0  0  0  0
  161.2960  208.8040  154.0710 C   0  0  0  0  0  0  0  0  0  0  0  0
  159.4850  209.4800  155.7260 C   0  0  0  0  0  0  0  0  0  0  0  0
  158.6660  210.5820  156.3170 C   0  0  0  0  0  3  0  0  0  0  0  0
  159.8590  212.6460  156.1360 O   0  0  0  0  0  1  0  0  0  0  0  0
  159.5490  211.6080  157.0150 C   0  0  0  0  0  2  0  0  0  0  0  0
  157.7530  211.2240  155.2730 C   0  0  0  0  0  2  0  0  0  0  0  0
  156.4490  210.7310  155.3740 O   0  0  0  0  0  1  0  0  0  0  0  0
  161.2770  207.3710  149.1400 C   0  0  0  0  0  0  0  0  0  0  0  0
  161.7860  207.7530  148.1740 N   0  0  0  0  0  0  0  0  0  0  0  0
  160.4570  204.7600  149.1780 O   0  0  0  0  0  0  0  0  0  0  0  0
  161.2260  203.5940  149.2300 C   0  0  1  0  0  3  0  0  0  0  0  0
  160.4570  202.4230  151.1760 O   0  0  0  0  0  1  0  0  0  0  0  0
  160.8970  202.4100  147.0170 C   0  0  0  0  0  2  0  0  0  0  0  0
  160.8130  201.0950  149.2230 C   0  0  0  0  0  2  0  0  0  0  0  0
  160.3730  202.4430  149.7850 C   0  0  2  0  0  3  0  0  0  0  0  0
  160.6520  201.0550  147.6990 C   0  0  2  0  0  3  0  0  0  0  0  0
  161.8220  203.3020  147.8440 C   0  0  0  0  0  2  0  0  0  0  0  0
  161.5830  200.0080  147.1210 C   0  0  0  0  0  1  0  0  0  0  0  0
  1 21  1  6  0  0  0
  1  3  1  0  0  0  0
  1  5  1  0  0  0  0
  2  4  1  0  0  0  0
  3 23  1  6  0  0  0
  3  2  1  0  0  0  0
  5  8  1  0  0  0  0
  5  4  1  6  0  0  0
  6  7  1  0  0  0  0
  7 14  1  1  0  0  0
  8  9  1  1  0  0  0
  8  7  1  0  0  0  0
  9 10  1  0  0  0  0
 10  6  1  0  0  0  0
 11 15  1  0  0  0  0
 14 13  2  0  0  0  0
 14 11  1  0  0  0  0
 15 12  2  0  0  0  0
 15 16  1  0  0  0  0
 16 18  1  0  0  0  0
 17 18  1  0  0  0  0
 19 20  1  0  0  0  0
 19 16  1  0  0  0  0
 22 21  3  0  0  0  0
 24 23  1  6  0  0  0
 24 28  1  0  0  0  0
 26 29  1  0  0  0  0
 26 30  1  0  0  0  0
 27 28  1  0  0  0  0
 28 25  1  1  0  0  0
 29 31  1  6  0  0  0
 29 27  1  0  0  0  0
 30 24  1  0  0  0  0
M  END
>  <MODEL>
8

>  <REMARK>
 VINA RESULT:      -5.3      2.776      9.392
  Name = 
  8 active torsions:
  status: ('A' for Active; 'I' for Inactive)
    1  A    between atoms: C_1  and  C_7
    2  A    between atoms: C_4  and  O_31
    3  A    between atoms: C_5  and  C_18
    4  A    between atoms: C_5  and  C_23
    5  A    between atoms: C_5  and  C_25
    6  A    between atoms: C_8  and  C_19
    7  A    between atoms: C_9  and  C_29
    8  A    between atoms: C_20  and  O_31
                            x       y       z     vdW  Elec       q    Type
                         _______ _______ _______ _____ _____    ______ ____

>  <TORSDO>
F 8

$$$$
=
 OpenBabel11072412103D

 31 33  0  0  1  0  0  0  0  0999 V2000
  161.2340  209.0350  154.3740 C   0  0  1  0  0  3  0  0  0  0  0  0
  160.4750  208.9940  152.0540 C   0  0  0  0  0  2  0  0  0  0  0  0
  161.6730  208.7100  152.9470 C   0  0  2  0  0  3  0  0  0  0  0  0
  159.5420  209.8890  152.8540 C   0  0  0  0  0  2  0  0  0  0  0  0
  160.2590  210.1900  154.1610 C   0  0  1  0  0  3  0  0  0  0  0  0
  157.9080  212.0890  156.3530 N   0  0  0  0  0  2  0  0  0  0  0  0
  158.2160  211.5090  155.0560 C   0  0  2  0  0  3  0  0  0  0  0  0
  159.2860  210.4650  155.3220 C   0  0  2  0  0  3  0  0  0  0  0  0
  159.9840  210.9180  156.5070 N   0  0  0  0  0  2  0  0  0  0  0  0
  158.9760  211.6600  157.2540 C   0  0  0  0  0  2  0  0  0  0  0  0
  158.3260  212.4710  152.7220 N   0  0  0  0  0  2  0  0  0  0  0  0
  159.3340  214.4530  151.9820 O   0  0  0  0  0  0  0  0  0  0  0  0
  159.3120  213.5790  154.5360 O   0  0  0  0  0  0  0  0  0  0  0  0
  158.6470  212.5950  154.1110 C   0  0  0  0  0  0  0  0  0  0  0  0
  158.7040  213.4000  151.6980 C   0  0  0  0  0  0  0  0  0  0  0  0
  158.3460  213.1310  150.2710 C   0  0  0  0  0  3  0  0  0  0  0  0
  156.6200  213.3360  148.6290 O   0  0  0  0  0  1  0  0  0  0  0  0
  156.9310  213.6020  149.9630 C   0  0  0  0  0  2  0  0  0  0  0  0
  159.3730  213.7300  149.3120 C   0  0  0  0  0  2  0  0  0  0  0  0
  160.5450  212.9680  149.2900 O   0  0  0  0  0  1  0  0  0  0  0  0
  160.5870  207.8720  155.0220 C   0  0  0  0  0  0  0  0  0  0  0  0
  160.0800  206.9630  155.5270 N   0  0  0  0  0  0  0  0  0  0  0  0
  162.1050  207.3860  152.7980 O   0  0  0  0  0  0  0  0  0  0  0  0
  161.3060  206.8530  151.7830 C   0  0  1  0  0  3  0  0  0  0  0  0
  162.2460  207.6900  149.7410 O   0  0  0  0  0  1  0  0  0  0  0  0
  161.3400  204.3390  152.0760 C   0  0  0  0  0  2  0  0  0  0  0  0
  161.6250  205.3830  149.7450 C   0  0  0  0  0  2  0  0  0  0  0  0
  162.1740  206.5570  150.5500 C   0  0  2  0  0  3  0  0  0  0  0  0
  161.6120  204.0990  150.5830 C   0  0  2  0  0  3  0  0  0  0  0  0
  160.5470  205.6250  152.3080 C   0  0  0  0  0  2  0  0  0  0  0  0
  160.5850  203.1390  150.0170 C   0  0  0  0  0  1  0  0  0  0  0  0
  1 21  1  6  0  0  0
  2  4  1  0  0  0  0
  2  3  1  0  0  0  0
  3 23  1  1  0  0  0
  3  1  1  0  0  0  0
  5  4  1  6  0  0  0
  5  1  1  0  0  0  0
  5  8  1  0  0  0  0
  6 10  1  0  0  0  0
  7 14  1  6  0  0  0
  7  8  1  0  0  0  0
  7  6  1  0  0  0  0
  8  9  1  1  0  0  0
  9 10  1  0  0  0  0
 11 14  1  0  0  0  0
 14 13  2  0  0  0  0
 15 12  2  0  0  0  0
 15 11  1  0  0  0  0
 16 15  1  0  0  0  0
 17 18  1  0  0  0  0
 18 16  1  0  0  0  0
 19 16  1  0  0  0  0
 20 19  1  0  0  0  0
 21 22  3  0  0  0  0
 24 30  1  0  0  0  0
 24 23  1  1  0  0  0
 26 30  1  0  0  0  0
 27 28  1  0  0  0  0
 27 29  1  0  0  0  0
 28 25  1  6  0  0  0
 28 24  1  0  0  0  0
 29 31  1  6  0  0  0
 29 26  1  0  0  0  0
M  END
>  <MODEL>
9

>  <REMARK>
 VINA RESULT:      -4.8      3.275      8.013
  Name = 
  8 active torsions:
  status: ('A' for Active; 'I' for Inactive)
    1  A    between atoms: C_1  and  C_7
    2  A    between atoms: C_4  and  O_31
    3  A    between atoms: C_5  and  C_18
    4  A    between atoms: C_5  and  C_23
    5  A    between atoms: C_5  and  C_25
    6  A    between atoms: C_8  and  C_19
    7  A    between atoms: C_9  and  C_29
    8  A    between atoms: C_20  and  O_31
                            x       y       z     vdW  Elec       q    Type
                         _______ _______ _______ _____ _____    ______ ____

>  <TORSDO>
F 8

$$$$
