=
 OpenBabel11072413363D

 43 46  0  0  1  0  0  0  0  0999 V2000
  162.0140  207.8780  151.4950 C   0  0  0  0  0  2  0  0  0  0  0  0
  162.5120  207.2050  149.1300 C   0  0  1  0  0  3  0  0  0  0  0  0
  162.8070  208.6790  148.8470 C   0  0  0  0  0  2  0  0  0  0  0  0
  161.9730  209.5670  149.6740 N   0  0  1  0  0  0  0  0  0  0  0  0
  162.8090  206.9330  150.6050 C   0  0  0  0  0  2  0  0  0  0  0  0
  162.2740  209.3430  151.1040 C   0  0  1  0  0  3  0  0  0  0  0  0
  162.1520  210.5530  153.3290 C   0  0  0  0  0  2  0  0  0  0  0  0
  160.0740  209.7620  152.3270 C   0  0  0  0  0  2  0  0  0  0  0  0
  161.4600  210.2900  152.0040 C   0  0  2  0  0  3  0  0  0  0  0  0
  161.0770  210.5240  154.4040 C   0  0  2  0  0  3  0  0  0  0  0  0
  161.3340  209.4820  155.2740 F   0  0  0  0  0  0  0  0  0  0  0  0
  159.7440  210.2860  153.7110 C   0  0  1  0  0  3  0  0  0  0  0  0
  159.2520  212.4600  154.8310 C   0  0  0  0  0  2  0  0  0  0  0  0
  158.9810  211.6040  153.6000 C   0  0  2  0  0  3  0  0  0  0  0  0
  157.9130  211.7780  154.6740 C   0  0  1  0  0  0  0  0  0  0  0  0
  157.6770  210.6990  155.7210 C   0  0  0  0  0  1  0  0  0  0  0  0
  156.7970  212.7570  154.3590 C   0  0  0  0  0  2  0  0  0  0  0  0
  155.5570  212.1540  154.5840 O   0  0  0  0  0  1  0  0  0  0  0  0
  162.2680  210.9660  149.3230 C   0  0  2  0  0  3  0  0  0  0  0  0
  161.2850  211.9180  149.9780 C   0  0  0  0  0  2  0  0  0  0  0  0
  160.7870  212.7590  148.8460 C   0  0  0  0  0  2  0  0  0  0  0  0
  162.2740  211.1680  147.9270 O   0  0  0  0  0  0  0  0  0  0  0  0
  161.0360  212.5180  146.3950 C   0  0  0  0  0  1  0  0  0  0  0  0
  161.7520  212.4540  147.7270 C   0  0  1  0  0  3  0  0  0  0  0  0
  161.0730  206.7980  148.7380 C   0  0  1  0  0  3  0  0  0  0  0  0
  160.7830  207.0330  147.2410 C   0  0  2  0  0  3  0  0  0  0  0  0
  160.2280  205.8430  146.6020 C   0  0  1  0  0  3  0  0  0  0  0  0
  159.4050  206.2250  145.5450 O   0  0  0  0  0  1  0  0  0  0  0  0
  161.6160  206.2310  146.2960 N   0  0  0  0  0  0  0  0  0  0  0  0
  162.4890  205.2410  146.9400 C   0  0  2  0  0  3  0  0  0  0  0  0
  163.6900  204.9460  146.0550 C   0  0  0  0  0  1  0  0  0  0  0  0
  161.7340  203.9430  147.2670 C   0  0  0  0  0  2  0  0  0  0  0  0
  161.4520  203.0780  146.0420 C   0  0  0  0  0  2  0  0  0  0  0  0
  160.4140  202.0110  146.3620 C   0  0  1  0  0  3  0  0  0  0  0  0
  160.8040  200.6280  149.6700 N   0  0  0  0  0  1  0  0  0  0  0  0
  160.8820  200.6530  145.8760 C   0  0  0  0  0  2  0  0  0  0  0  0
  161.6190  199.7620  147.2720 S   0  0  0  0  0  0  0  0  0  0  0  0
  161.2350  201.1420  148.3830 C   0  0  1  0  0  3  0  0  0  0  0  0
  160.1750  201.9490  147.7980 N   0  0  0  0  0  2  0  0  0  0  0  0
  160.7830  205.3370  149.1010 C   0  0  0  0  0  1  0  0  0  0  0  0
  160.7230  203.9320  151.2720 C   0  0  0  0  0 15  0  0  0  0  0  0
  160.3710  205.1730  150.5300 C   0  0  0  0  0  3  0  0  0  0  0  0
  160.6860  204.0670  151.1900 C   0  0  0  0  0  3  0  0  0  0  0  0
  2 25  1  1  0  0  0
  2  5  1  0  0  0  0
  3  2  1  0  0  0  0
  4  3  1  6  0  0  0
  4  6  1  0  0  0  0
  5  1  1  0  0  0  0
  6  1  1  1  0  0  0
  6  9  1  0  0  0  0
  7 10  1  0  0  0  0
  9  8  1  1  0  0  0
  9  7  1  0  0  0  0
 10 11  1  1  0  0  0
 12  8  1  6  0  0  0
 12 10  1  0  0  0  0
 14 12  1  0  0  0  0
 14 15  1  0  0  0  0
 14 13  1  1  0  0  0
 15 13  1  0  0  0  0
 15 16  1  1  0  0  0
 17 18  1  0  0  0  0
 17 15  1  0  0  0  0
 19  4  1  0  0  0  0
 19 20  1  1  0  0  0
 21 20  1  0  0  0  0
 22 19  1  0  0  0  0
 24 23  1  6  0  0  0
 24 22  1  0  0  0  0
 24 21  1  0  0  0  0
 25 40  1  6  0  0  0
 26 25  1  1  0  0  0
 27 28  1  6  0  0  0
 27 26  1  0  0  0  0
 29 27  1  0  0  0  0
 29 30  1  0  0  0  0
 29 26  1  0  0  0  0
 30 31  1  6  0  0  0
 30 32  1  0  0  0  0
 33 32  1  0  0  0  0
 34 33  1  1  0  0  0
 34 39  1  0  0  0  0
 36 34  1  0  0  0  0
 36 37  1  0  0  0  0
 37 38  1  0  0  0  0
 38 35  1  1  0  0  0
 39 38  1  0  0  0  0
 42 43  3  0  0  0  0
M  END
>  <MODEL>
1

>  <REMARK>
 VINA RESULT:      -6.5      0.000      0.000
  Name = 
  12 active torsions:
  status: ('A' for Active; 'I' for Inactive)
    1  A    between atoms: C_3  and  C_7
    2  A    between atoms: C_5  and  N_20
    3  A    between atoms: C_5  and  C_32
    4  A    between atoms: C_7  and  CA_8
    5  A    between atoms: C_7  and  C_39
    6  A    between atoms: C_11  and  N_18
    7  A    between atoms: C_12  and  C_39
    8  A    between atoms: C_14  and  C_40
    9  A    between atoms: C_16  and  C_37
   10  A    between atoms: C_23  and  C_27
   11  A    between atoms: C_26  and  C_29
   12  A    between atoms: C_32  and  C_40
                            x       y       z     vdW  Elec       q    Type
                         _______ _______ _______ _____ _____    ______ ____

>  <TORSDO>
F 12

$$$$
=
 OpenBabel11072413363D

 43 46  0  0  1  0  0  0  0  0999 V2000
  161.5390  210.5660  154.2920 C   0  0  0  0  0  2  0  0  0  0  0  0
  162.0100  209.5910  152.0300 C   0  0  1  0  0  3  0  0  0  0  0  0
  161.4430  210.8800  151.4330 C   0  0  0  0  0  2  0  0  0  0  0  0
  160.3790  211.4460  152.2800 N   0  0  1  0  0  0  0  0  0  0  0  0
  162.5910  209.9170  153.4060 C   0  0  0  0  0  2  0  0  0  0  0  0
  160.9330  211.8010  153.6040 C   0  0  1  0  0  3  0  0  0  0  0  0
  160.1960  212.2980  155.9780 C   0  0  0  0  0  2  0  0  0  0  0  0
  158.4790  211.8580  154.3020 C   0  0  0  0  0  2  0  0  0  0  0  0
  159.8640  212.4460  154.5050 C   0  0  2  0  0  3  0  0  0  0  0  0
  158.8970  211.9620  156.6940 C   0  0  2  0  0  3  0  0  0  0  0  0
  159.0030  210.7060  157.2600 F   0  0  0  0  0  0  0  0  0  0  0  0
  157.7900  211.9520  155.6500 C   0  0  1  0  0  3  0  0  0  0  0  0
  156.8080  213.6440  157.1970 C   0  0  0  0  0  2  0  0  0  0  0  0
  156.9910  213.2500  155.7360 C   0  0  2  0  0  3  0  0  0  0  0  0
  155.6390  213.0850  156.4210 C   0  0  1  0  0  0  0  0  0  0  0  0
  155.1870  211.7260  156.9380 C   0  0  0  0  0  1  0  0  0  0  0  0
  154.5940  214.1390  156.1070 C   0  0  0  0  0  2  0  0  0  0  0  0
  153.8660  214.4470  157.2590 O   0  0  0  0  0  1  0  0  0  0  0  0
  159.8430  212.6560  151.6320 C   0  0  2  0  0  3  0  0  0  0  0  0
  158.3450  212.5510  151.4240 C   0  0  0  0  0  2  0  0  0  0  0  0
  158.1570  212.8710  149.9750 C   0  0  0  0  0  2  0  0  0  0  0  0
  160.4820  212.9190  150.4020 O   0  0  0  0  0  0  0  0  0  0  0  0
  159.7860  213.0940  148.1240 C   0  0  0  0  0  1  0  0  0  0  0  0
  159.4890  213.4500  149.5650 C   0  0  1  0  0  3  0  0  0  0  0  0
  160.9670  208.4520  152.0890 C   0  0  1  0  0  3  0  0  0  0  0  0
  161.6220  207.0540  152.0860 C   0  0  2  0  0  3  0  0  0  0  0  0
  162.7970  207.0080  151.2210 C   0  0  1  0  0  3  0  0  0  0  0  0
  163.6940  206.0590  151.7080 O   0  0  0  0  0  1  0  0  0  0  0  0
  161.5670  206.3270  150.7830 N   0  0  0  0  0  0  0  0  0  0  0  0
  161.0180  207.1100  149.6680 C   0  0  2  0  0  3  0  0  0  0  0  0
  159.8110  206.4010  149.0740 C   0  0  0  0  0  1  0  0  0  0  0  0
  162.0730  207.3720  148.5830 C   0  0  0  0  0  2  0  0  0  0  0  0
  161.6000  207.0150  147.1760 C   0  0  0  0  0  2  0  0  0  0  0  0
  162.4600  205.9080  146.5830 C   0  0  1  0  0  3  0  0  0  0  0  0
  160.5670  203.5930  144.5670 N   0  0  0  0  0  1  0  0  0  0  0  0
  162.5890  204.7550  147.5610 C   0  0  0  0  0  2  0  0  0  0  0  0
  161.3790  203.4810  147.1160 S   0  0  0  0  0  0  0  0  0  0  0  0
  160.8330  204.4660  145.6950 C   0  0  1  0  0  3  0  0  0  0  0  0
  161.8750  205.4180  145.3420 N   0  0  0  0  0  2  0  0  0  0  0  0
  160.0490  208.5930  153.3100 C   0  0  0  0  0  1  0  0  0  0  0  0
  160.0430  207.6620  155.7230 C   0  0  0  0  0 15  0  0  0  0  0  0
  160.1770  207.4420  154.2570 C   0  0  0  0  0  3  0  0  0  0  0  0
  160.0570  207.6400  155.5630 C   0  0  0  0  0  3  0  0  0  0  0  0
  2 25  1  1  0  0  0
  2  5  1  0  0  0  0
  3  2  1  0  0  0  0
  4  3  1  6  0  0  0
  4  6  1  0  0  0  0
  5  1  1  0  0  0  0
  6  1  1  1  0  0  0
  6  9  1  0  0  0  0
  7 10  1  0  0  0  0
  9  8  1  1  0  0  0
  9  7  1  0  0  0  0
 10 11  1  6  0  0  0
 12  8  1  6  0  0  0
 12 14  1  0  0  0  0
 12 10  1  0  0  0  0
 14 15  1  0  0  0  0
 14 13  1  1  0  0  0
 15 16  1  1  0  0  0
 15 13  1  0  0  0  0
 17 15  1  0  0  0  0
 17 18  1  0  0  0  0
 19 20  1  6  0  0  0
 19  4  1  0  0  0  0
 21 20  1  0  0  0  0
 22 19  1  0  0  0  0
 24 23  1  6  0  0  0
 24 21  1  0  0  0  0
 24 22  1  0  0  0  0
 25 40  1  1  0  0  0
 26 25  1  6  0  0  0
 27 28  1  1  0  0  0
 27 26  1  0  0  0  0
 29 27  1  0  0  0  0
 29 26  1  0  0  0  0
 30 31  1  6  0  0  0
 30 29  1  0  0  0  0
 32 30  1  0  0  0  0
 33 32  1  0  0  0  0
 34 33  1  1  0  0  0
 34 36  1  0  0  0  0
 37 36  1  0  0  0  0
 38 35  1  6  0  0  0
 38 37  1  0  0  0  0
 39 38  1  0  0  0  0
 39 34  1  0  0  0  0
 42 43  3  0  0  0  0
M  END
>  <MODEL>
2

>  <REMARK>
 VINA RESULT:      -6.2      2.569      4.162
  Name = 
  12 active torsions:
  status: ('A' for Active; 'I' for Inactive)
    1  A    between atoms: C_3  and  C_7
    2  A    between atoms: C_5  and  N_20
    3  A    between atoms: C_5  and  C_32
    4  A    between atoms: C_7  and  CA_8
    5  A    between atoms: C_7  and  C_39
    6  A    between atoms: C_11  and  N_18
    7  A    between atoms: C_12  and  C_39
    8  A    between atoms: C_14  and  C_40
    9  A    between atoms: C_16  and  C_37
   10  A    between atoms: C_23  and  C_27
   11  A    between atoms: C_26  and  C_29
   12  A    between atoms: C_32  and  C_40
                            x       y       z     vdW  Elec       q    Type
                         _______ _______ _______ _____ _____    ______ ____

>  <TORSDO>
F 12

$$$$
=
 OpenBabel11072413363D

 43 46  0  0  1  0  0  0  0  0999 V2000
  162.2860  210.8060  150.7610 C   0  0  0  0  0  2  0  0  0  0  0  0
  162.2510  208.5120  151.7760 C   0  0  1  0  0  3  0  0  0  0  0  0
  162.5170  207.9640  150.3740 C   0  0  0  0  0  2  0  0  0  0  0  0
  161.9020  208.8090  149.3360 N   0  0  1  0  0  0  0  0  0  0  0  0
  162.8480  209.9180  151.8610 C   0  0  0  0  0  2  0  0  0  0  0  0
  162.4950  210.1620  149.3800 C   0  0  1  0  0  3  0  0  0  0  0  0
  162.9350  212.0670  147.7650 C   0  0  0  0  0  2  0  0  0  0  0  0
  160.7040  211.8590  148.7280 C   0  0  0  0  0  2  0  0  0  0  0  0
  161.9160  211.0640  148.2750 C   0  0  2  0  0  3  0  0  0  0  0  0
  162.2060  213.3880  147.5830 C   0  0  2  0  0  3  0  0  0  0  0  0
  162.7480  214.3270  148.4400 F   0  0  0  0  0  0  0  0  0  0  0  0
  160.7460  213.1580  147.9460 C   0  0  1  0  0  3  0  0  0  0  0  0
  159.7100  214.4010  146.0480 C   0  0  0  0  0  2  0  0  0  0  0  0
  159.9150  213.0260  146.6720 C   0  0  2  0  0  3  0  0  0  0  0  0
  158.5620  213.7220  146.7570 C   0  0  1  0  0  0  0  0  0  0  0  0
  158.1380  214.4530  148.0240 C   0  0  0  0  0  1  0  0  0  0  0  0
  157.4930  213.2340  145.7960 C   0  0  0  0  0  2  0  0  0  0  0  0
  156.6740  214.2990  145.4140 O   0  0  0  0  0  1  0  0  0  0  0  0
  162.1520  208.2060  148.0160 C   0  0  2  0  0  3  0  0  0  0  0  0
  160.8580  207.9910  147.2540 C   0  0  0  0  0  2  0  0  0  0  0  0
  160.9160  206.5550  146.8400 C   0  0  0  0  0  2  0  0  0  0  0  0
  162.8560  206.9870  148.1200 O   0  0  0  0  0  0  0  0  0  0  0  0
  162.4300  204.7160  147.5170 C   0  0  0  0  0  1  0  0  0  0  0  0
  162.3520  206.1700  147.0980 C   0  0  1  0  0  3  0  0  0  0  0  0
  160.7520  208.4900  152.1510 C   0  0  1  0  0  3  0  0  0  0  0  0
  160.4520  207.5290  153.3220 C   0  0  2  0  0  3  0  0  0  0  0  0
  161.6480  206.8110  153.7530 C   0  0  1  0  0  3  0  0  0  0  0  0
  161.5410  206.5040  155.1080 O   0  0  0  0  0  1  0  0  0  0  0  0
  160.6090  206.0770  153.0110 N   0  0  0  0  0  0  0  0  0  0  0  0
  161.1550  205.7920  151.6770 C   0  0  2  0  0  3  0  0  0  0  0  0
  160.0580  205.8960  150.6280 C   0  0  0  0  0  1  0  0  0  0  0  0
  161.8220  204.4100  151.6190 C   0  0  0  0  0  2  0  0  0  0  0  0
  161.5480  203.6560  150.3220 C   0  0  0  0  0  2  0  0  0  0  0  0
  161.1860  202.2050  150.6080 C   0  0  1  0  0  3  0  0  0  0  0  0
  161.4590  200.0930  147.6970 N   0  0  0  0  0  1  0  0  0  0  0  0
  159.6910  201.9930  150.4660 C   0  0  0  0  0  2  0  0  0  0  0  0
  159.3570  201.3150  148.8180 S   0  0  0  0  0  0  0  0  0  0  0  0
  161.1310  201.2930  148.4450 C   0  0  1  0  0  3  0  0  0  0  0  0
  161.8840  201.3150  149.6900 N   0  0  0  0  0  2  0  0  0  0  0  0
  160.2340  209.8950  152.4870 C   0  0  0  0  0  1  0  0  0  0  0  0
  160.7700  211.2520  154.6230 C   0  0  0  0  0 15  0  0  0  0  0  0
  160.0820  210.1110  153.9590 C   0  0  0  0  0  3  0  0  0  0  0  0
  160.6950  211.1280  154.5490 C   0  0  0  0  0  3  0  0  0  0  0  0
  1  5  1  0  0  0  0
  2  5  1  0  0  0  0
  2 25  1  6  0  0  0
  3  2  1  0  0  0  0
  4  6  1  0  0  0  0
  4  3  1  1  0  0  0
  6  1  1  1  0  0  0
  9  7  1  1  0  0  0
  9  8  1  0  0  0  0
  9  6  1  0  0  0  0
 10  7  1  0  0  0  0
 10 12  1  0  0  0  0
 10 11  1  1  0  0  0
 12  8  1  1  0  0  0
 13 15  1  0  0  0  0
 14 13  1  6  0  0  0
 14 15  1  0  0  0  0
 14 12  1  0  0  0  0
 15 16  1  1  0  0  0
 17 15  1  0  0  0  0
 18 17  1  0  0  0  0
 19 20  1  1  0  0  0
 19 22  1  0  0  0  0
 19  4  1  0  0  0  0
 21 24  1  0  0  0  0
 21 20  1  0  0  0  0
 24 23  1  1  0  0  0
 24 22  1  0  0  0  0
 25 40  1  1  0  0  0
 26 25  1  6  0  0  0
 26 27  1  0  0  0  0
 27 28  1  1  0  0  0
 29 26  1  0  0  0  0
 29 27  1  0  0  0  0
 30 31  1  6  0  0  0
 30 29  1  0  0  0  0
 32 30  1  0  0  0  0
 33 32  1  0  0  0  0
 34 33  1  6  0  0  0
 36 34  1  0  0  0  0
 37 36  1  0  0  0  0
 38 35  1  1  0  0  0
 38 37  1  0  0  0  0
 38 39  1  0  0  0  0
 39 34  1  0  0  0  0
 42 43  3  0  0  0  0
M  END
>  <MODEL>
3

>  <REMARK>
 VINA RESULT:      -5.0      2.783      5.928
  Name = 
  12 active torsions:
  status: ('A' for Active; 'I' for Inactive)
    1  A    between atoms: C_3  and  C_7
    2  A    between atoms: C_5  and  N_20
    3  A    between atoms: C_5  and  C_32
    4  A    between atoms: C_7  and  CA_8
    5  A    between atoms: C_7  and  C_39
    6  A    between atoms: C_11  and  N_18
    7  A    between atoms: C_12  and  C_39
    8  A    between atoms: C_14  and  C_40
    9  A    between atoms: C_16  and  C_37
   10  A    between atoms: C_23  and  C_27
   11  A    between atoms: C_26  and  C_29
   12  A    between atoms: C_32  and  C_40
                            x       y       z     vdW  Elec       q    Type
                         _______ _______ _______ _____ _____    ______ ____

>  <TORSDO>
F 12

$$$$
=
 OpenBabel11072413363D

 43 46  0  0  1  0  0  0  0  0999 V2000
  161.3100  207.4690  153.2280 C   0  0  0  0  0  2  0  0  0  0  0  0
  162.5770  206.4330  151.3270 C   0  0  1  0  0  3  0  0  0  0  0  0
  162.9630  207.8510  150.9040 C   0  0  0  0  0  2  0  0  0  0  0  0
  161.9050  208.8210  151.2320 N   0  0  1  0  0  0  0  0  0  0  0  0
  162.3520  206.4310  152.8400 C   0  0  0  0  0  2  0  0  0  0  0  0
  161.6990  208.8590  152.6950 C   0  0  1  0  0  3  0  0  0  0  0  0
  161.2210  211.0330  153.9080 C   0  0  0  0  0  2  0  0  0  0  0  0
  159.4930  209.3120  153.8950 C   0  0  0  0  0  2  0  0  0  0  0  0
  160.6350  209.9000  153.0850 C   0  0  2  0  0  3  0  0  0  0  0  0
  160.2220  211.3430  155.0120 C   0  0  2  0  0  3  0  0  0  0  0  0
  160.8070  211.0840  156.2370 F   0  0  0  0  0  0  0  0  0  0  0  0
  159.0280  210.4210  154.8190 C   0  0  1  0  0  3  0  0  0  0  0  0
  157.9920  212.6710  154.5260 C   0  0  0  0  0  2  0  0  0  0  0  0
  157.8830  211.1940  154.1680 C   0  0  2  0  0  3  0  0  0  0  0  0
  156.9250  211.8200  155.1760 C   0  0  1  0  0  0  0  0  0  0  0  0
  157.1430  211.6450  156.6720 C   0  0  0  0  0  1  0  0  0  0  0  0
  155.5340  212.1460  154.6660 C   0  0  0  0  0  2  0  0  0  0  0  0
  155.3750  213.5300  154.5690 O   0  0  0  0  0  1  0  0  0  0  0  0
  162.3140  210.1550  150.7590 C   0  0  2  0  0  3  0  0  0  0  0  0
  161.3170  211.2180  151.1800 C   0  0  0  0  0  2  0  0  0  0  0  0
  160.9950  211.9370  149.9080 C   0  0  0  0  0  2  0  0  0  0  0  0
  162.4860  210.1860  149.3590 O   0  0  0  0  0  0  0  0  0  0  0  0
  161.5020  211.3910  147.5470 C   0  0  0  0  0  1  0  0  0  0  0  0
  162.0610  211.4600  148.9530 C   0  0  1  0  0  3  0  0  0  0  0  0
  161.3550  205.8910  150.5530 C   0  0  1  0  0  3  0  0  0  0  0  0
  160.4240  205.0410  151.4440 C   0  0  2  0  0  3  0  0  0  0  0  0
  161.1470  203.9610  152.1080 C   0  0  1  0  0  3  0  0  0  0  0  0
  160.5240  203.6610  153.3180 O   0  0  0  0  0  1  0  0  0  0  0  0
  160.2340  203.6270  151.0010 N   0  0  0  0  0  0  0  0  0  0  0  0
  161.0700  203.2250  149.8630 C   0  0  2  0  0  3  0  0  0  0  0  0
  160.4220  203.6590  148.5570 C   0  0  0  0  0  1  0  0  0  0  0  0
  161.3290  201.7110  149.8540 C   0  0  0  0  0  2  0  0  0  0  0  0
  160.6620  200.9860  148.6890 C   0  0  0  0  0  2  0  0  0  0  0  0
  161.5980  200.9200  147.4890 C   0  0  1  0  0  3  0  0  0  0  0  0
  160.3050  202.6600  144.6070 N   0  0  0  0  0  1  0  0  0  0  0  0
  161.3420  199.6590  146.6860 C   0  0  0  0  0  2  0  0  0  0  0  0
  160.2610  200.0720  145.2910 S   0  0  0  0  0  0  0  0  0  0  0  0
  160.2520  201.8150  145.7860 C   0  0  1  0  0  3  0  0  0  0  0  0
  161.4080  202.0810  146.6300 N   0  0  0  0  0  2  0  0  0  0  0  0
  160.5550  207.0240  149.8980 C   0  0  0  0  0  1  0  0  0  0  0  0
  161.7410  207.0610  147.5990 C   0  0  0  0  0 15  0  0  0  0  0  0
  160.5020  206.8990  148.4080 C   0  0  0  0  0  3  0  0  0  0  0  0
  161.6070  207.0430  147.6890 C   0  0  0  0  0  3  0  0  0  0  0  0
  2 25  1  6  0  0  0
  2  5  1  0  0  0  0
  3  2  1  0  0  0  0
  4  3  1  1  0  0  0
  4  6  1  0  0  0  0
  5  1  1  0  0  0  0
  6  9  1  0  0  0  0
  6  1  1  6  0  0  0
  7 10  1  0  0  0  0
  9  8  1  1  0  0  0
  9  7  1  0  0  0  0
 10 11  1  1  0  0  0
 12  8  1  6  0  0  0
 12 10  1  0  0  0  0
 13 15  1  0  0  0  0
 14 13  1  1  0  0  0
 14 12  1  0  0  0  0
 14 15  1  0  0  0  0
 15 16  1  1  0  0  0
 17 15  1  0  0  0  0
 18 17  1  0  0  0  0
 19 20  1  6  0  0  0
 19  4  1  0  0  0  0
 21 20  1  0  0  0  0
 22 19  1  0  0  0  0
 24 23  1  6  0  0  0
 24 22  1  0  0  0  0
 24 21  1  0  0  0  0
 25 40  1  1  0  0  0
 26 25  1  6  0  0  0
 26 27  1  0  0  0  0
 27 28  1  1  0  0  0
 29 26  1  0  0  0  0
 29 27  1  0  0  0  0
 30 31  1  6  0  0  0
 30 29  1  0  0  0  0
 32 30  1  0  0  0  0
 33 32  1  0  0  0  0
 34 33  1  1  0  0  0
 36 34  1  0  0  0  0
 37 38  1  0  0  0  0
 37 36  1  0  0  0  0
 38 35  1  6  0  0  0
 38 39  1  0  0  0  0
 39 34  1  0  0  0  0
 43 42  3  0  0  0  0
M  END
>  <MODEL>
4

>  <REMARK>
 VINA RESULT:      -3.5      1.921      3.018
  Name = 
  12 active torsions:
  status: ('A' for Active; 'I' for Inactive)
    1  A    between atoms: C_3  and  C_7
    2  A    between atoms: C_5  and  N_20
    3  A    between atoms: C_5  and  C_32
    4  A    between atoms: C_7  and  CA_8
    5  A    between atoms: C_7  and  C_39
    6  A    between atoms: C_11  and  N_18
    7  A    between atoms: C_12  and  C_39
    8  A    between atoms: C_14  and  C_40
    9  A    between atoms: C_16  and  C_37
   10  A    between atoms: C_23  and  C_27
   11  A    between atoms: C_26  and  C_29
   12  A    between atoms: C_32  and  C_40
                            x       y       z     vdW  Elec       q    Type
                         _______ _______ _______ _____ _____    ______ ____

>  <TORSDO>
F 12

$$$$
