=
 OpenBabel11072414043D

 62 67  0  0  1  0  0  0  0  0999 V2000
  161.8990  204.2970  151.4940 C   0  0  2  0  0  3  0  0  0  0  0  0
  159.7440  203.9450  150.5200 O   0  0  0  0  0  0  0  0  0  0  0  0
  162.2560  205.1520  152.7050 C   0  0  0  0  0  2  0  0  0  0  0  0
  161.0380  207.0800  151.7280 C   0  0  0  0  0  0  0  0  0  0  0  0
  160.8660  209.8090  149.2510 C   0  0  0  0  0  2  0  0  0  0  0  0
  160.3820  208.1340  152.2480 C   0  0  0  0  0  3  0  0  0  0  0  0
  160.9360  211.2590  151.2360 C   0  0  0  0  0  2  0  0  0  0  0  0
  160.5340  208.1730  154.7240 C   0  0  0  0  0  1  0  0  0  0  0  0
  162.6070  206.7820  147.8230 C   0  0  2  0  0  3  0  0  0  0  0  0
  162.0520  211.4180  152.0700 O   0  0  0  0  0  0  0  0  0  0  0  0
  160.5950  204.7510  150.8710 C   0  0  0  0  0  0  0  0  0  0  0  0
  162.3500  206.6120  152.2970 C   0  0  0  0  0  2  0  0  0  0  0  0
  160.3120  206.6940  149.2060 C   0  0  0  0  0  2  0  0  0  0  0  0
  160.4380  207.1290  146.3760 C   0  0  0  0  0  1  0  0  0  0  0  0
  161.5330  207.4810  148.6670 C   0  0  1  0  0  0  0  0  0  0  0  0
  162.2560  209.4410  153.4510 C   0  0  0  0  0  2  0  0  0  0  0  0
  162.6540  210.1530  152.1680 C   0  0  0  0  0  2  0  0  0  0  0  0
  160.8030  208.9510  153.4520 C   0  0  1  0  0  3  0  0  0  0  0  0
  161.9580  208.7500  149.3860 C   0  0  0  0  0  2  0  0  0  0  0  0
  161.3610  211.1550  149.7670 C   0  0  2  0  0  3  0  0  0  0  0  0
  161.6070  207.7520  147.1580 C   0  0  1  0  0  3  0  0  0  0  0  0
  160.3460  206.2240  150.6800 C   0  0  2  0  0  3  0  0  0  0  0  0
  161.9090  202.8730  151.8340 N   0  0  0  0  0  2  0  0  0  0  0  0
  161.7630  201.7980  150.8880 C   0  0  0  0  0  0  0  0  0  0  0  0
  161.5640  200.4670  151.3540 N   0  0  0  0  0  1  0  0  0  0  0  0
  161.8480  202.0230  149.6540 O   0  0  0  0  0  0  0  0  0  0  0  0
  162.3630  205.3460  147.3500 C   0  0  0  0  0  2  0  0  0  0  0  0
  162.2720  205.2410  145.8340 C   0  0  0  0  0  2  0  0  0  0  0  0
  162.3570  203.7900  145.3700 C   0  0  0  0  0  2  0  0  0  0  0  0
  160.0630  204.2140  144.8070 O   0  0  0  0  0  1  0  0  0  0  0  0
  161.0220  203.2040  144.8940 C   0  0  2  0  0  3  0  0  0  0  0  0
  161.3210  200.4090  147.3460 C   0  0  0  0  0  2  0  0  0  0  0  0
  159.4170  200.4350  144.3950 O   0  0  0  0  0  1  0  0  0  0  0  0
  161.3550  201.8870  147.0190 C   0  0  0  0  0  2  0  0  0  0  0  0
  160.5120  202.0540  145.7720 C   0  0  2  0  0  3  0  0  0  0  0  0
  160.6170  200.7320  145.0400 C   0  0  1  0  0  3  0  0  0  0  0  0
  160.9250  199.6780  146.0750 C   0  0  0  0  0  2  0  0  0  0  0  0
  160.8120  212.2510  148.9560 N   0  0  0  0  0  0  0  0  0  0  0  0
  161.4010  213.5440  149.3640 C   0  0  1  0  0  3  0  0  0  0  0  0
  163.4310  213.7420  148.0990 O   0  0  0  0  0  1  0  0  0  0  0  0
  162.1470  214.2680  148.2430 C   0  0  0  0  0  2  0  0  0  0  0  0
  160.3480  214.4220  150.0060 C   0  0  0  0  0  2  0  0  0  0  0  0
  159.0690  213.9290  149.7390 O   0  0  0  0  0  0  0  0  0  0  0  0
  158.3920  214.0550  150.9590 C   0  0  2  0  0  3  0  0  0  0  0  0
  158.5400  213.0870  153.2960 C   0  0  2  0  0  3  0  0  0  0  0  0
  157.3370  212.7230  152.6570 O   0  0  0  0  0  0  0  0  0  0  0  0
  158.4840  212.7970  151.8370 C   0  0  1  0  0  3  0  0  0  0  0  0
  159.1380  211.9240  154.1070 C   0  0  2  0  0  3  0  0  0  0  0  0
  158.1400  210.9890  154.3890 O   0  0  0  0  0  1  0  0  0  0  0  0
  159.8690  212.2960  155.3670 C   0  0  0  0  0  3  0  0  0  0  0  0
  161.0320  211.9520  155.5250 O   0  0  0  0  0  0  0  0  0  0  0  0
  156.9350  214.4490  150.7240 C   0  0  0  0  0  2  0  0  0  0  0  0
  156.2410  213.5060  149.7510 C   0  0  0  0  0  1  0  0  0  0  0  0
  161.1250  211.9730  147.5470 C   0  0  0  0  0  2  0  0  0  0  0  0
  158.1680  213.6620  144.9380 C   0  0  0  0  0  2  0  0  0  0  0  0
  159.2540  212.8420  144.2320 C   0  0  2  0  0  3  0  0  0  0  0  0
  160.3900  212.3410  145.1540 C   0  0  1  0  0  3  0  0  0  0  0  0
  160.2250  212.7790  146.6270 C   0  0  1  0  0  3  0  0  0  0  0  0
  160.4350  210.9590  145.0610 F   0  0  0  0  0  0  0  0  0  0  0  0
  157.8190  213.0480  146.2640 C   0  0  0  0  0  3  0  0  0  0  0  0
  159.7750  213.5610  143.1710 F   0  0  0  0  0  0  0  0  0  0  0  0
  158.8020  212.6300  147.0720 C   0  0  0  0  0  3  0  0  0  0  0  0
  1 23  1  1  0  0  0
  1  3  1  0  0  0  0
  2 11  2  0  0  0  0
  4  6  2  0  0  0  0
  4 12  1  0  0  0  0
  5 19  1  0  0  0  0
  5 20  1  0  0  0  0
  6 18  1  0  0  0  0
  7 10  1  0  0  0  0
  9 27  1  6  0  0  0
  9 15  1  0  0  0  0
 10 17  1  0  0  0  0
 11  1  1  0  0  0  0
 12  3  1  0  0  0  0
 15 13  1  1  0  0  0
 15 19  1  0  0  0  0
 16 18  1  0  0  0  0
 17 16  1  0  0  0  0
 18  8  1  1  0  0  0
 20 38  1  6  0  0  0
 20  7  1  0  0  0  0
 21 14  1  6  0  0  0
 21  9  1  0  0  0  0
 21 15  1  0  0  0  0
 22 13  1  6  0  0  0
 22 11  1  0  0  0  0
 22  4  1  0  0  0  0
 24 25  1  0  0  0  0
 24 23  1  0  0  0  0
 26 24  2  0  0  0  0
 28 27  1  0  0  0  0
 29 28  1  0  0  0  0
 31 30  1  1  0  0  0
 31 29  1  0  0  0  0
 34 32  1  0  0  0  0
 35 31  1  6  0  0  0
 35 34  1  0  0  0  0
 36 33  1  1  0  0  0
 36 35  1  0  0  0  0
 36 37  1  0  0  0  0
 37 32  1  0  0  0  0
 38 39  1  0  0  0  0
 39 41  1  6  0  0  0
 39 42  1  0  0  0  0
 40 41  1  0  0  0  0
 43 42  1  0  0  0  0
 43 44  1  0  0  0  0
 44 52  1  6  0  0  0
 45 48  1  1  0  0  0
 46 45  1  0  0  0  0
 47 44  1  6  0  0  0
 47 46  1  0  0  0  0
 47 45  1  0  0  0  0
 48 49  1  1  0  0  0
 48 50  1  0  0  0  0
 50 51  2  0  0  0  0
 53 52  1  0  0  0  0
 54 38  1  0  0  0  0
 55 60  1  0  0  0  0
 56 61  1  6  0  0  0
 56 55  1  0  0  0  0
 56 57  1  0  0  0  0
 57 59  1  1  0  0  0
 57 58  1  0  0  0  0
 58 62  1  0  0  0  0
 58 54  1  1  0  0  0
 60 62  2  0  0  0  0
M  END
>  <MODEL>
1

>  <REMARK>
 VINA RESULT:      -0.6      0.000      0.000
  Name = 
  18 active torsions:
  status: ('A' for Active; 'I' for Inactive)
    1  A    between atoms: C_1  and  N_24
    2  A    between atoms: C_2  and  C_11
    3  A    between atoms: O_4  and  C_10
    4  A    between atoms: O_4  and  C_14
    5  A    between atoms: C_8  and  C_11
    6  A    between atoms: C_10  and  C_35
    7  A    between atoms: C_14  and  C_27
    8  A    between atoms: C_14  and  C_53
    9  A    between atoms: C_18  and  C_55
   10  A    between atoms: C_28  and  C_36
   11  A    between atoms: C_28  and  C_46
   12  A    between atoms: C_29  and  C_46
   13  A    between atoms: C_35  and  C_48
   14  A    between atoms: C_35  and  N_49
   15  A    between atoms: C_36  and  C_43
   16  A    between atoms: C_43  and  C_45
   17  A    between atoms: N_49  and  C_55
   18  A    between atoms: N_49  and  C_58
                            x       y       z     vdW  Elec       q    Type
                         _______ _______ _______ _____ _____    ______ ____

>  <TORSDO>
F 18

$$$$
=
 OpenBabel11072414043D

 62 67  0  0  1  0  0  0  0  0999 V2000
  161.7340  203.9290  151.4920 C   0  0  2  0  0  3  0  0  0  0  0  0
  159.6480  203.8120  150.3300 O   0  0  0  0  0  0  0  0  0  0  0  0
  162.0160  204.5400  152.8610 C   0  0  0  0  0  2  0  0  0  0  0  0
  160.8920  206.6420  152.1750 C   0  0  0  0  0  0  0  0  0  0  0  0
  160.9240  209.7810  150.2340 C   0  0  0  0  0  2  0  0  0  0  0  0
  160.2130  207.6000  152.8350 C   0  0  0  0  0  3  0  0  0  0  0  0
  160.8720  210.8430  152.4520 C   0  0  0  0  0  2  0  0  0  0  0  0
  160.1930  207.1840  155.2800 C   0  0  0  0  0  1  0  0  0  0  0  0
  162.7240  207.0230  148.3940 C   0  0  2  0  0  3  0  0  0  0  0  0
  161.9290  210.8210  153.3720 O   0  0  0  0  0  0  0  0  0  0  0  0
  160.4820  204.5200  150.8780 C   0  0  0  0  0  0  0  0  0  0  0  0
  162.1550  206.0470  152.7340 C   0  0  0  0  0  2  0  0  0  0  0  0
  160.3380  206.7400  149.5820 C   0  0  0  0  0  2  0  0  0  0  0  0
  160.6660  207.6800  146.8940 C   0  0  0  0  0  1  0  0  0  0  0  0
  161.6020  207.5820  149.2790 C   0  0  1  0  0  0  0  0  0  0  0  0
  162.0130  208.6200  154.3780 C   0  0  0  0  0  2  0  0  0  0  0  0
  162.5080  209.5440  153.2760 C   0  0  0  0  0  2  0  0  0  0  0  0
  160.5580  208.1740  154.1930 C   0  0  1  0  0  3  0  0  0  0  0  0
  161.9910  208.6880  150.2450 C   0  0  0  0  0  2  0  0  0  0  0  0
  161.3970  210.9980  151.0200 C   0  0  2  0  0  3  0  0  0  0  0  0
  161.7840  208.1220  147.8530 C   0  0  1  0  0  3  0  0  0  0  0  0
  160.2640  206.0090  150.9440 C   0  0  2  0  0  3  0  0  0  0  0  0
  161.7040  202.4670  151.5650 N   0  0  0  0  0  2  0  0  0  0  0  0
  161.4870  201.5890  150.4450 C   0  0  0  0  0  0  0  0  0  0  0  0
  161.2570  200.2020  150.6670 N   0  0  0  0  0  1  0  0  0  0  0  0
  161.5390  202.0350  149.2700 O   0  0  0  0  0  0  0  0  0  0  0  0
  162.4970  205.7040  147.6510 C   0  0  0  0  0  2  0  0  0  0  0  0
  163.0980  205.7140  146.2520 C   0  0  0  0  0  2  0  0  0  0  0  0
  162.9250  204.3640  145.5610 C   0  0  0  0  0  2  0  0  0  0  0  0
  161.0580  205.4890  144.5560 O   0  0  0  0  0  1  0  0  0  0  0  0
  161.6210  204.2300  144.7640 C   0  0  2  0  0  3  0  0  0  0  0  0
  160.3900  200.9990  146.1630 C   0  0  0  0  0  2  0  0  0  0  0  0
  158.6320  203.1980  144.0630 O   0  0  0  0  0  1  0  0  0  0  0  0
  161.2810  202.2190  146.2490 C   0  0  0  0  0  2  0  0  0  0  0  0
  160.6020  203.2860  145.4160 C   0  0  2  0  0  3  0  0  0  0  0  0
  159.8200  202.5310  144.3610 C   0  0  1  0  0  3  0  0  0  0  0  0
  159.5190  201.1660  144.9290 C   0  0  0  0  0  2  0  0  0  0  0  0
  160.9190  212.2360  150.3890 N   0  0  0  0  0  0  0  0  0  0  0  0
  160.5030  213.2150  151.4150 C   0  0  1  0  0  3  0  0  0  0  0  0
  158.4230  214.2990  150.9050 O   0  0  0  0  0  1  0  0  0  0  0  0
  159.8080  214.4520  150.8470 C   0  0  0  0  0  2  0  0  0  0  0  0
  159.6710  212.5360  152.4830 C   0  0  0  0  0  2  0  0  0  0  0  0
  159.3920  213.4230  153.5240 O   0  0  0  0  0  0  0  0  0  0  0  0
  159.2040  212.5940  154.6380 C   0  0  2  0  0  3  0  0  0  0  0  0
  157.2310  211.3360  155.6130 C   0  0  2  0  0  3  0  0  0  0  0  0
  157.8010  212.2200  156.5520 O   0  0  0  0  0  0  0  0  0  0  0  0
  157.7790  212.6610  155.2110 C   0  0  1  0  0  3  0  0  0  0  0  0
  155.6940  211.3290  155.6850 C   0  0  2  0  0  3  0  0  0  0  0  0
  155.1900  210.3660  154.8100 O   0  0  0  0  0  1  0  0  0  0  0  0
  155.0100  212.6480  155.4540 C   0  0  0  0  0  3  0  0  0  0  0  0
  154.7910  213.3980  156.3940 O   0  0  0  0  0  0  0  0  0  0  0  0
  160.2390  212.9050  155.7170 C   0  0  0  0  0  2  0  0  0  0  0  0
  160.9580  211.6500  156.1940 C   0  0  0  0  0  1  0  0  0  0  0  0
  162.0150  212.7840  149.5780 C   0  0  0  0  0  2  0  0  0  0  0  0
  160.6380  213.3150  145.5510 C   0  0  0  0  0  2  0  0  0  0  0  0
  162.1620  213.3270  145.7140 C   0  0  2  0  0  3  0  0  0  0  0  0
  162.6570  213.2650  147.1780 C   0  0  1  0  0  3  0  0  0  0  0  0
  161.5100  213.2190  148.2130 C   0  0  1  0  0  3  0  0  0  0  0  0
  163.4700  212.1500  147.3050 F   0  0  0  0  0  0  0  0  0  0  0  0
  160.0120  212.3300  146.4950 C   0  0  0  0  0  3  0  0  0  0  0  0
  162.6990  214.4270  145.0700 F   0  0  0  0  0  0  0  0  0  0  0  0
  160.4250  212.2870  147.7680 C   0  0  0  0  0  3  0  0  0  0  0  0
  1 23  1  1  0  0  0
  1  3  1  0  0  0  0
  2 11  2  0  0  0  0
  4 12  1  0  0  0  0
  4  6  2  0  0  0  0
  5 19  1  0  0  0  0
  5 20  1  0  0  0  0
  6 18  1  0  0  0  0
  7 10  1  0  0  0  0
  9 27  1  6  0  0  0
  9 15  1  0  0  0  0
 11 22  1  0  0  0  0
 11  1  1  0  0  0  0
 12  3  1  0  0  0  0
 15 13  1  1  0  0  0
 15 19  1  0  0  0  0
 17 10  1  0  0  0  0
 17 16  1  0  0  0  0
 18 16  1  0  0  0  0
 18  8  1  1  0  0  0
 20 38  1  6  0  0  0
 20  7  1  0  0  0  0
 21 14  1  6  0  0  0
 21  9  1  0  0  0  0
 21 15  1  0  0  0  0
 22 13  1  6  0  0  0
 22  4  1  0  0  0  0
 24 25  1  0  0  0  0
 24 23  1  0  0  0  0
 26 24  2  0  0  0  0
 28 27  1  0  0  0  0
 29 28  1  0  0  0  0
 31 30  1  1  0  0  0
 31 29  1  0  0  0  0
 32 34  1  0  0  0  0
 35 31  1  6  0  0  0
 35 34  1  0  0  0  0
 36 33  1  1  0  0  0
 36 37  1  0  0  0  0
 36 35  1  0  0  0  0
 37 32  1  0  0  0  0
 38 39  1  0  0  0  0
 39 41  1  6  0  0  0
 39 42  1  0  0  0  0
 41 40  1  0  0  0  0
 42 43  1  0  0  0  0
 43 44  1  0  0  0  0
 44 52  1  1  0  0  0
 45 48  1  1  0  0  0
 45 46  1  0  0  0  0
 47 44  1  6  0  0  0
 47 45  1  0  0  0  0
 47 46  1  0  0  0  0
 48 49  1  6  0  0  0
 50 48  1  0  0  0  0
 50 51  2  0  0  0  0
 52 53  1  0  0  0  0
 54 38  1  0  0  0  0
 55 56  1  0  0  0  0
 55 60  1  0  0  0  0
 56 61  1  1  0  0  0
 56 57  1  0  0  0  0
 57 59  1  6  0  0  0
 57 58  1  0  0  0  0
 58 54  1  1  0  0  0
 60 62  2  0  0  0  0
 62 58  1  0  0  0  0
M  END
>  <MODEL>
2

>  <REMARK>
 VINA RESULT:      -0.1      1.678      2.693
  Name = 
  18 active torsions:
  status: ('A' for Active; 'I' for Inactive)
    1  A    between atoms: C_1  and  N_24
    2  A    between atoms: C_2  and  C_11
    3  A    between atoms: O_4  and  C_10
    4  A    between atoms: O_4  and  C_14
    5  A    between atoms: C_8  and  C_11
    6  A    between atoms: C_10  and  C_35
    7  A    between atoms: C_14  and  C_27
    8  A    between atoms: C_14  and  C_53
    9  A    between atoms: C_18  and  C_55
   10  A    between atoms: C_28  and  C_36
   11  A    between atoms: C_28  and  C_46
   12  A    between atoms: C_29  and  C_46
   13  A    between atoms: C_35  and  C_48
   14  A    between atoms: C_35  and  N_49
   15  A    between atoms: C_36  and  C_43
   16  A    between atoms: C_43  and  C_45
   17  A    between atoms: N_49  and  C_55
   18  A    between atoms: N_49  and  C_58
                            x       y       z     vdW  Elec       q    Type
                         _______ _______ _______ _____ _____    ______ ____

>  <TORSDO>
F 18

$$$$
=
 OpenBabel11072414043D

 62 67  0  0  1  0  0  0  0  0999 V2000
  162.1390  205.4000  151.6280 C   0  0  2  0  0  3  0  0  0  0  0  0
  160.1950  205.4500  150.2370 O   0  0  0  0  0  0  0  0  0  0  0  0
  162.2120  205.5120  153.1480 C   0  0  0  0  0  2  0  0  0  0  0  0
  160.8190  207.5640  153.0840 C   0  0  0  0  0  0  0  0  0  0  0  0
  160.4940  211.1670  152.3560 C   0  0  0  0  0  2  0  0  0  0  0  0
  159.9450  208.1300  153.9380 C   0  0  0  0  0  3  0  0  0  0  0  0
  160.0990  211.3500  154.7770 C   0  0  0  0  0  2  0  0  0  0  0  0
  159.8030  206.8680  156.0690 C   0  0  0  0  0  1  0  0  0  0  0  0
  162.8530  209.4950  149.9330 C   0  0  2  0  0  3  0  0  0  0  0  0
  161.0720  211.1320  155.7630 O   0  0  0  0  0  0  0  0  0  0  0  0
  160.8590  206.0120  151.0980 C   0  0  0  0  0  0  0  0  0  0  0  0
  162.1140  206.9700  153.5640 C   0  0  0  0  0  2  0  0  0  0  0  0
  160.4590  208.5130  150.6320 C   0  0  0  0  0  2  0  0  0  0  0  0
  160.8370  210.3850  148.4950 C   0  0  0  0  0  1  0  0  0  0  0  0
  161.5900  209.5570  150.8020 C   0  0  1  0  0  0  0  0  0  0  0  0
  161.4320  208.7460  155.9570 C   0  0  0  0  0  2  0  0  0  0  0  0
  161.8550  210.0560  155.3110 C   0  0  0  0  0  2  0  0  0  0  0  0
  160.0870  208.2190  155.4430 C   0  0  1  0  0  3  0  0  0  0  0  0
  161.7190  210.2840  152.1300 C   0  0  0  0  0  2  0  0  0  0  0  0
  160.7020  212.0710  153.5650 C   0  0  2  0  0  3  0  0  0  0  0  0
  161.7920  210.5890  149.6840 C   0  0  1  0  0  3  0  0  0  0  0  0
  160.3980  207.3400  151.6400 C   0  0  2  0  0  3  0  0  0  0  0  0
  162.3400  204.0180  151.1930 N   0  0  0  0  0  2  0  0  0  0  0  0
  161.5810  202.8870  151.6610 C   0  0  0  0  0  0  0  0  0  0  0  0
  162.0070  201.5670  151.3400 N   0  0  0  0  0  1  0  0  0  0  0  0
  160.5220  203.0610  152.3170 O   0  0  0  0  0  0  0  0  0  0  0  0
  162.9000  208.5110  148.7600 C   0  0  0  0  0  2  0  0  0  0  0  0
  163.1530  207.0790  149.2120 C   0  0  0  0  0  2  0  0  0  0  0  0
  162.7540  206.0760  148.1340 C   0  0  0  0  0  2  0  0  0  0  0  0
  160.4870  206.6670  147.6150 O   0  0  0  0  0  1  0  0  0  0  0  0
  161.7790  206.6320  147.0890 C   0  0  2  0  0  3  0  0  0  0  0  0
  160.3840  204.4510  144.4040 C   0  0  0  0  0  2  0  0  0  0  0  0
  163.6090  204.2970  145.7880 O   0  0  0  0  0  1  0  0  0  0  0  0
  160.4180  205.7680  145.1500 C   0  0  0  0  0  2  0  0  0  0  0  0
  161.7990  205.8600  145.7640 C   0  0  2  0  0  3  0  0  0  0  0  0
  162.2340  204.4260  145.9840 C   0  0  1  0  0  3  0  0  0  0  0  0
  161.4860  203.5800  144.9840 C   0  0  0  0  0  2  0  0  0  0  0  0
  160.0800  213.3840  153.3390 N   0  0  0  0  0  0  0  0  0  0  0  0
  159.3870  213.4120  152.0350 C   0  0  1  0  0  3  0  0  0  0  0  0
  157.4240  214.1670  150.8770 O   0  0  0  0  0  1  0  0  0  0  0  0
  158.2700  214.4530  151.9480 C   0  0  0  0  0  2  0  0  0  0  0  0
  160.3890  213.5580  150.9090 C   0  0  0  0  0  2  0  0  0  0  0  0
  159.7690  213.3630  149.6730 O   0  0  0  0  0  0  0  0  0  0  0  0
  160.2230  214.4330  148.8910 C   0  0  2  0  0  3  0  0  0  0  0  0
  159.8490  213.2000  146.7100 C   0  0  2  0  0  3  0  0  0  0  0  0
  158.6350  213.4430  147.3840 O   0  0  0  0  0  0  0  0  0  0  0  0
  159.6180  214.4530  147.4790 C   0  0  1  0  0  3  0  0  0  0  0  0
  159.7170  213.4050  145.1900 C   0  0  2  0  0  3  0  0  0  0  0  0
  159.4440  212.1820  144.5750 O   0  0  0  0  0  1  0  0  0  0  0  0
  160.8710  214.0840  144.5060 C   0  0  0  0  0  3  0  0  0  0  0  0
  162.0100  213.9210  144.9200 O   0  0  0  0  0  0  0  0  0  0  0  0
  161.7490  214.4410  148.8290 C   0  0  0  0  0  2  0  0  0  0  0  0
  162.2890  213.3090  147.9660 C   0  0  0  0  0  1  0  0  0  0  0  0
  159.1250  213.6270  154.4290 C   0  0  0  0  0  2  0  0  0  0  0  0
  155.2050  211.8920  154.2700 C   0  0  0  0  0  2  0  0  0  0  0  0
  156.1190  211.3140  155.3570 C   0  0  2  0  0  3  0  0  0  0  0  0
  157.5710  211.8460  155.3330 C   0  0  1  0  0  3  0  0  0  0  0  0
  157.8360  212.8590  154.1950 C   0  0  1  0  0  3  0  0  0  0  0  0
  157.8340  212.4220  156.5660 F   0  0  0  0  0  0  0  0  0  0  0  0
  155.4430  213.3650  154.1070 C   0  0  0  0  0  3  0  0  0  0  0  0
  156.1110  209.9320  155.2980 F   0  0  0  0  0  0  0  0  0  0  0  0
  156.7000  213.8270  154.0670 C   0  0  0  0  0  3  0  0  0  0  0  0
  1 23  1  1  0  0  0
  1  3  1  0  0  0  0
  2 11  2  0  0  0  0
  3 12  1  0  0  0  0
  4 12  1  0  0  0  0
  4  6  2  0  0  0  0
  5 20  1  0  0  0  0
  6 18  1  0  0  0  0
  7 10  1  0  0  0  0
  9 27  1  6  0  0  0
  9 15  1  0  0  0  0
 11  1  1  0  0  0  0
 11 22  1  0  0  0  0
 15 13  1  6  0  0  0
 15 19  1  0  0  0  0
 17 10  1  0  0  0  0
 17 16  1  0  0  0  0
 18 16  1  0  0  0  0
 18  8  1  1  0  0  0
 19  5  1  0  0  0  0
 20 38  1  6  0  0  0
 20  7  1  0  0  0  0
 21 14  1  6  0  0  0
 21  9  1  0  0  0  0
 21 15  1  0  0  0  0
 22 13  1  6  0  0  0
 22  4  1  0  0  0  0
 23 24  1  0  0  0  0
 24 26  2  0  0  0  0
 25 24  1  0  0  0  0
 27 28  1  0  0  0  0
 29 28  1  0  0  0  0
 31 30  1  1  0  0  0
 31 29  1  0  0  0  0
 32 37  1  0  0  0  0
 32 34  1  0  0  0  0
 34 35  1  0  0  0  0
 35 36  1  0  0  0  0
 35 31  1  1  0  0  0
 36 33  1  6  0  0  0
 37 36  1  0  0  0  0
 38 54  1  0  0  0  0
 39 42  1  6  0  0  0
 39 38  1  0  0  0  0
 40 41  1  0  0  0  0
 41 39  1  0  0  0  0
 43 42  1  0  0  0  0
 44 52  1  6  0  0  0
 44 43  1  0  0  0  0
 45 48  1  6  0  0  0
 45 46  1  0  0  0  0
 45 47  1  0  0  0  0
 46 47  1  0  0  0  0
 47 44  1  1  0  0  0
 48 49  1  6  0  0  0
 50 51  2  0  0  0  0
 50 48  1  0  0  0  0
 53 52  1  0  0  0  0
 55 56  1  0  0  0  0
 56 61  1  6  0  0  0
 57 56  1  0  0  0  0
 57 59  1  1  0  0  0
 58 54  1  1  0  0  0
 58 57  1  0  0  0  0
 60 55  1  0  0  0  0
 62 60  2  0  0  0  0
 62 58  1  0  0  0  0
M  END
>  <MODEL>
3

>  <REMARK>
 VINA RESULT:       0.3      2.982      5.653
  Name = 
  18 active torsions:
  status: ('A' for Active; 'I' for Inactive)
    1  A    between atoms: C_1  and  N_24
    2  A    between atoms: C_2  and  C_11
    3  A    between atoms: O_4  and  C_10
    4  A    between atoms: O_4  and  C_14
    5  A    between atoms: C_8  and  C_11
    6  A    between atoms: C_10  and  C_35
    7  A    between atoms: C_14  and  C_27
    8  A    between atoms: C_14  and  C_53
    9  A    between atoms: C_18  and  C_55
   10  A    between atoms: C_28  and  C_36
   11  A    between atoms: C_28  and  C_46
   12  A    between atoms: C_29  and  C_46
   13  A    between atoms: C_35  and  C_48
   14  A    between atoms: C_35  and  N_49
   15  A    between atoms: C_36  and  C_43
   16  A    between atoms: C_43  and  C_45
   17  A    between atoms: N_49  and  C_55
   18  A    between atoms: N_49  and  C_58
                            x       y       z     vdW  Elec       q    Type
                         _______ _______ _______ _____ _____    ______ ____

>  <TORSDO>
F 18

$$$$
=
 OpenBabel11072414043D

 62 67  0  0  1  0  0  0  0  0999 V2000
  159.1180  213.3370  154.0760 C   0  0  2  0  0  3  0  0  0  0  0  0
  157.4080  211.6920  154.3600 O   0  0  0  0  0  0  0  0  0  0  0  0
  159.4280  214.1690  152.8350 C   0  0  0  0  0  2  0  0  0  0  0  0
  159.4810  212.1120  151.4470 C   0  0  0  0  0  0  0  0  0  0  0  0
  161.2110  209.0260  150.3990 C   0  0  0  0  0  2  0  0  0  0  0  0
  159.2080  211.8470  150.1560 C   0  0  0  0  0  3  0  0  0  0  0  0
  161.2960  210.1340  148.2050 C   0  0  0  0  0  2  0  0  0  0  0  0
  158.6260  213.9060  148.9030 C   0  0  0  0  0  1  0  0  0  0  0  0
  161.8520  209.7770  154.0400 C   0  0  2  0  0  3  0  0  0  0  0  0
  162.0760  211.2620  147.9100 O   0  0  0  0  0  0  0  0  0  0  0  0
  158.3740  212.0700  153.7110 C   0  0  0  0  0  0  0  0  0  0  0  0
  160.2420  213.3450  151.8520 C   0  0  0  0  0  2  0  0  0  0  0  0
  159.4380  209.8780  152.8780 C   0  0  0  0  0  2  0  0  0  0  0  0
  160.5630  207.4840  153.9820 C   0  0  0  0  0  1  0  0  0  0  0  0
  160.9750  209.7130  152.7820 C   0  0  1  0  0  0  0  0  0  0  0  0
  161.0120  213.1990  148.8970 C   0  0  0  0  0  2  0  0  0  0  0  0
  162.0310  212.0810  149.0500 C   0  0  0  0  0  2  0  0  0  0  0  0
  159.5590  212.7140  148.9650 C   0  0  1  0  0  3  0  0  0  0  0  0
  161.6630  210.0240  151.4630 C   0  0  0  0  0  2  0  0  0  0  0  0
  162.0500  209.1770  149.1350 C   0  0  2  0  0  3  0  0  0  0  0  0
  161.5980  208.4250  153.3400 C   0  0  1  0  0  3  0  0  0  0  0  0
  158.8360  211.2600  152.5280 C   0  0  2  0  0  3  0  0  0  0  0  0
  158.4280  214.1400  155.0870 N   0  0  0  0  0  2  0  0  0  0  0  0
  157.9680  213.6460  156.3590 C   0  0  0  0  0  0  0  0  0  0  0  0
  157.1170  214.4530  157.1650 N   0  0  0  0  0  1  0  0  0  0  0  0
  158.3470  212.5230  156.7780 O   0  0  0  0  0  0  0  0  0  0  0  0
  161.1780  209.8090  155.4150 C   0  0  0  0  0  2  0  0  0  0  0  0
  161.9650  210.6270  156.4290 C   0  0  0  0  0  2  0  0  0  0  0  0
  163.4560  210.6280  156.1090 C   0  0  0  0  0  2  0  0  0  0  0  0
  163.6050  212.7420  157.2360 O   0  0  0  0  0  1  0  0  0  0  0  0
  164.2910  211.5480  157.0080 C   0  0  2  0  0  3  0  0  0  0  0  0
  167.2810  213.6390  156.2350 C   0  0  0  0  0  2  0  0  0  0  0  0
  165.7560  211.2750  154.1320 O   0  0  0  0  0  1  0  0  0  0  0  0
  166.3870  212.9330  157.2320 C   0  0  0  0  0  2  0  0  0  0  0  0
  165.6950  211.8310  156.4570 C   0  0  2  0  0  3  0  0  0  0  0  0
  165.6190  212.3330  155.0300 C   0  0  1  0  0  3  0  0  0  0  0  0
  166.7490  213.3170  154.8490 C   0  0  0  0  0  2  0  0  0  0  0  0
  162.2790  207.8670  148.5100 N   0  0  0  0  0  0  0  0  0  0  0  0
  162.2560  206.7950  149.5270 C   0  0  1  0  0  3  0  0  0  0  0  0
  163.4770  205.7090  151.2870 O   0  0  0  0  0  1  0  0  0  0  0  0
  163.3790  206.8960  150.5600 C   0  0  0  0  0  2  0  0  0  0  0  0
  160.8910  206.7170  150.1780 C   0  0  0  0  0  2  0  0  0  0  0  0
  160.3250  205.4560  149.9800 O   0  0  0  0  0  0  0  0  0  0  0  0
  160.9280  204.6540  150.9580 C   0  0  2  0  0  3  0  0  0  0  0  0
  161.1390  202.8380  149.2030 C   0  0  2  0  0  3  0  0  0  0  0  0
  162.1410  202.7290  150.1880 O   0  0  0  0  0  0  0  0  0  0  0  0
  160.8700  203.1530  150.6330 C   0  0  1  0  0  3  0  0  0  0  0  0
  160.5860  201.4640  148.7860 C   0  0  2  0  0  3  0  0  0  0  0  0
  160.9650  200.5030  149.7250 O   0  0  0  0  0  1  0  0  0  0  0  0
  160.9330  200.9980  147.3990 C   0  0  0  0  0  3  0  0  0  0  0  0
  161.5600  199.9610  147.2400 O   0  0  0  0  0  0  0  0  0  0  0  0
  160.3200  204.9370  152.3300 C   0  0  0  0  0  2  0  0  0  0  0  0
  160.4070  203.7280  153.2520 C   0  0  0  0  0  1  0  0  0  0  0  0
  161.2200  207.6470  147.5150 C   0  0  0  0  0  2  0  0  0  0  0  0
  162.1650  204.1950  145.1510 C   0  0  0  0  0  2  0  0  0  0  0  0
  161.0390  205.0690  144.5880 C   0  0  2  0  0  3  0  0  0  0  0  0
  160.6100  206.2410  145.5020 C   0  0  1  0  0  3  0  0  0  0  0  0
  161.3940  206.3010  146.8330 C   0  0  1  0  0  3  0  0  0  0  0  0
  160.7720  207.4180  144.7890 F   0  0  0  0  0  0  0  0  0  0  0  0
  163.2210  205.0440  145.7970 C   0  0  0  0  0  3  0  0  0  0  0  0
  159.9460  204.2840  144.2660 F   0  0  0  0  0  0  0  0  0  0  0  0
  162.8530  206.0480  146.6040 C   0  0  0  0  0  3  0  0  0  0  0  0
  1 23  1  1  0  0  0
  3  1  1  0  0  0  0
  4 12  1  0  0  0  0
  4 22  1  0  0  0  0
  5 19  1  0  0  0  0
  6  4  2  0  0  0  0
  7 20  1  0  0  0  0
  9 27  1  1  0  0  0
 10  7  1  0  0  0  0
 10 17  1  0  0  0  0
 11  1  1  0  0  0  0
 11  2  2  0  0  0  0
 12  3  1  0  0  0  0
 15 19  1  6  0  0  0
 15 13  1  0  0  0  0
 15 21  1  0  0  0  0
 15  9  1  0  0  0  0
 16 18  1  0  0  0  0
 16 17  1  0  0  0  0
 18  8  1  1  0  0  0
 18  6  1  0  0  0  0
 20 38  1  6  0  0  0
 20  5  1  0  0  0  0
 21 14  1  1  0  0  0
 21  9  1  0  0  0  0
 22 13  1  1  0  0  0
 22 11  1  0  0  0  0
 23 24  1  0  0  0  0
 24 26  2  0  0  0  0
 24 25  1  0  0  0  0
 27 28  1  0  0  0  0
 29 28  1  0  0  0  0
 29 31  1  0  0  0  0
 31 30  1  6  0  0  0
 32 34  1  0  0  0  0
 35 31  1  1  0  0  0
 35 34  1  0  0  0  0
 36 33  1  6  0  0  0
 36 35  1  0  0  0  0
 37 36  1  0  0  0  0
 37 32  1  0  0  0  0
 38 39  1  0  0  0  0
 39 42  1  1  0  0  0
 39 41  1  0  0  0  0
 41 40  1  0  0  0  0
 43 42  1  0  0  0  0
 43 44  1  0  0  0  0
 44 52  1  1  0  0  0
 45 48  1  1  0  0  0
 45 46  1  0  0  0  0
 45 47  1  0  0  0  0
 46 47  1  0  0  0  0
 47 44  1  6  0  0  0
 48 49  1  1  0  0  0
 50 48  1  0  0  0  0
 51 50  2  0  0  0  0
 52 53  1  0  0  0  0
 54 38  1  0  0  0  0
 55 60  1  0  0  0  0
 56 61  1  1  0  0  0
 56 55  1  0  0  0  0
 56 57  1  0  0  0  0
 57 59  1  6  0  0  0
 57 58  1  0  0  0  0
 58 54  1  6  0  0  0
 60 62  2  0  0  0  0
 62 58  1  0  0  0  0
M  END
>  <MODEL>
4

>  <REMARK>
 VINA RESULT:       0.7      3.089     10.062
  Name = 
  18 active torsions:
  status: ('A' for Active; 'I' for Inactive)
    1  A    between atoms: C_1  and  N_24
    2  A    between atoms: C_2  and  C_11
    3  A    between atoms: O_4  and  C_10
    4  A    between atoms: O_4  and  C_14
    5  A    between atoms: C_8  and  C_11
    6  A    between atoms: C_10  and  C_35
    7  A    between atoms: C_14  and  C_27
    8  A    between atoms: C_14  and  C_53
    9  A    between atoms: C_18  and  C_55
   10  A    between atoms: C_28  and  C_36
   11  A    between atoms: C_28  and  C_46
   12  A    between atoms: C_29  and  C_46
   13  A    between atoms: C_35  and  C_48
   14  A    between atoms: C_35  and  N_49
   15  A    between atoms: C_36  and  C_43
   16  A    between atoms: C_43  and  C_45
   17  A    between atoms: N_49  and  C_55
   18  A    between atoms: N_49  and  C_58
                            x       y       z     vdW  Elec       q    Type
                         _______ _______ _______ _____ _____    ______ ____

>  <TORSDO>
F 18

$$$$
=
 OpenBabel11072414043D

 62 67  0  0  1  0  0  0  0  0999 V2000
  161.8300  204.1710  151.6470 C   0  0  2  0  0  3  0  0  0  0  0  0
  159.8210  204.1500  150.3520 O   0  0  0  0  0  0  0  0  0  0  0  0
  162.0040  204.5700  153.1090 C   0  0  0  0  0  2  0  0  0  0  0  0
  160.8100  206.7040  152.6880 C   0  0  0  0  0  0  0  0  0  0  0  0
  160.7850  210.1080  151.2640 C   0  0  0  0  0  2  0  0  0  0  0  0
  160.0470  207.5150  153.4450 C   0  0  0  0  0  3  0  0  0  0  0  0
  160.5550  210.8030  153.6130 C   0  0  0  0  0  2  0  0  0  0  0  0
  159.9130  206.7170  155.7900 C   0  0  0  0  0  1  0  0  0  0  0  0
  162.8270  207.7570  149.1360 C   0  0  2  0  0  3  0  0  0  0  0  0
  161.5590  210.6810  154.5830 O   0  0  0  0  0  0  0  0  0  0  0  0
  160.5850  204.7970  151.0550 C   0  0  0  0  0  0  0  0  0  0  0  0
  162.0700  206.0830  153.2270 C   0  0  0  0  0  2  0  0  0  0  0  0
  160.3970  207.1860  150.1120 C   0  0  0  0  0  2  0  0  0  0  0  0
  160.8230  208.5530  147.6300 C   0  0  0  0  0  1  0  0  0  0  0  0
  161.6300  208.1190  150.0240 C   0  0  1  0  0  0  0  0  0  0  0  0
  161.7030  208.3550  155.2390 C   0  0  0  0  0  2  0  0  0  0  0  0
  162.2090  209.4620  154.3270 C   0  0  0  0  0  2  0  0  0  0  0  0
  160.2860  207.8810  154.8950 C   0  0  1  0  0  3  0  0  0  0  0  0
  161.9060  209.0750  151.1730 C   0  0  0  0  0  2  0  0  0  0  0  0
  161.1500  211.2050  152.2580 C   0  0  2  0  0  3  0  0  0  0  0  0
  161.8620  208.8850  148.7140 C   0  0  1  0  0  3  0  0  0  0  0  0
  160.2850  206.2470  151.3370 C   0  0  2  0  0  3  0  0  0  0  0  0
  161.8730  202.7170  151.4900 N   0  0  0  0  0  2  0  0  0  0  0  0
  161.3950  201.9960  150.3390 C   0  0  0  0  0  0  0  0  0  0  0  0
  161.2820  200.5780  150.3880 N   0  0  0  0  0  1  0  0  0  0  0  0
  161.1150  202.6100  149.2780 O   0  0  0  0  0  0  0  0  0  0  0  0
  162.7110  206.5630  148.1840 C   0  0  0  0  0  2  0  0  0  0  0  0
  161.6400  206.7680  147.1220 C   0  0  0  0  0  2  0  0  0  0  0  0
  161.9280  205.9400  145.8730 C   0  0  0  0  0  2  0  0  0  0  0  0
  163.7030  204.3330  146.0280 O   0  0  0  0  0  1  0  0  0  0  0  0
  162.3220  204.4870  146.1600 C   0  0  2  0  0  3  0  0  0  0  0  0
  159.4310  203.1190  144.2410 C   0  0  0  0  0  2  0  0  0  0  0  0
  161.5820  201.3400  146.3740 O   0  0  0  0  0  1  0  0  0  0  0  0
  160.5400  204.1350  144.4110 C   0  0  0  0  0  2  0  0  0  0  0  0
  161.5830  203.4680  145.2830 C   0  0  2  0  0  3  0  0  0  0  0  0
  160.8160  202.4810  146.1370 C   0  0  1  0  0  3  0  0  0  0  0  0
  159.5650  202.1170  145.3750 C   0  0  0  0  0  2  0  0  0  0  0  0
  160.6430  212.5060  151.7980 N   0  0  0  0  0  0  0  0  0  0  0  0
  161.1980  212.8380  150.4690 C   0  0  1  0  0  3  0  0  0  0  0  0
  162.7120  211.9370  148.8380 O   0  0  0  0  0  1  0  0  0  0  0  0
  161.6270  211.6170  149.6540 C   0  0  0  0  0  2  0  0  0  0  0  0
  160.2380  213.7250  149.7040 C   0  0  0  0  0  2  0  0  0  0  0  0
  160.4100  213.5610  148.3290 O   0  0  0  0  0  0  0  0  0  0  0  0
  159.1190  213.2990  147.8520 C   0  0  2  0  0  3  0  0  0  0  0  0
  160.0050  212.7580  145.5400 C   0  0  2  0  0  3  0  0  0  0  0  0
  158.7060  212.2450  145.7330 O   0  0  0  0  0  0  0  0  0  0  0  0
  158.9820  213.4930  146.3330 C   0  0  1  0  0  3  0  0  0  0  0  0
  160.1910  213.3420  144.1290 C   0  0  2  0  0  3  0  0  0  0  0  0
  159.4750  212.5770  143.2070 O   0  0  0  0  0  1  0  0  0  0  0  0
  161.6100  213.5210  143.6630 C   0  0  0  0  0  3  0  0  0  0  0  0
  162.5290  213.0190  144.2930 O   0  0  0  0  0  0  0  0  0  0  0  0
  158.0910  214.1430  148.6030 C   0  0  0  0  0  2  0  0  0  0  0  0
  156.6860  213.5680  148.4820 C   0  0  0  0  0  1  0  0  0  0  0  0
  159.1770  212.4240  151.7310 C   0  0  0  0  0  2  0  0  0  0  0  0
  157.5590  214.3310  155.2160 C   0  0  0  0  0  2  0  0  0  0  0  0
  156.6070  213.3520  154.5200 C   0  0  2  0  0  3  0  0  0  0  0  0
  157.1410  212.7620  153.1940 C   0  0  1  0  0  3  0  0  0  0  0  0
  158.5410  213.2880  152.8060 C   0  0  1  0  0  3  0  0  0  0  0  0
  157.1580  211.3820  153.3190 F   0  0  0  0  0  0  0  0  0  0  0  0
  158.9730  213.8300  155.1540 C   0  0  0  0  0  3  0  0  0  0  0  0
  155.3750  213.9500  154.3210 F   0  0  0  0  0  0  0  0  0  0  0  0
  159.4430  213.3360  154.0010 C   0  0  0  0  0  3  0  0  0  0  0  0
  1 23  1  1  0  0  0
  1  3  1  0  0  0  0
  2 11  2  0  0  0  0
  3 12  1  0  0  0  0
  4 12  1  0  0  0  0
  4  6  2  0  0  0  0
  5 20  1  0  0  0  0
  6 18  1  0  0  0  0
  7 10  1  0  0  0  0
  9 27  1  6  0  0  0
  9 15  1  0  0  0  0
 11 22  1  0  0  0  0
 11  1  1  0  0  0  0
 15 13  1  1  0  0  0
 15 19  1  0  0  0  0
 17 10  1  0  0  0  0
 17 16  1  0  0  0  0
 18 16  1  0  0  0  0
 18  8  1  1  0  0  0
 19  5  1  0  0  0  0
 20 38  1  6  0  0  0
 20  7  1  0  0  0  0
 21 14  1  6  0  0  0
 21  9  1  0  0  0  0
 21 15  1  0  0  0  0
 22 13  1  6  0  0  0
 22  4  1  0  0  0  0
 24 25  1  0  0  0  0
 24 23  1  0  0  0  0
 26 24  2  0  0  0  0
 28 27  1  0  0  0  0
 29 31  1  0  0  0  0
 29 28  1  0  0  0  0
 31 30  1  6  0  0  0
 32 34  1  0  0  0  0
 32 37  1  0  0  0  0
 34 35  1  0  0  0  0
 35 36  1  0  0  0  0
 35 31  1  1  0  0  0
 36 33  1  6  0  0  0
 37 36  1  0  0  0  0
 39 41  1  6  0  0  0
 39 38  1  0  0  0  0
 40 41  1  0  0  0  0
 42 39  1  0  0  0  0
 43 42  1  0  0  0  0
 44 43  1  0  0  0  0
 44 52  1  1  0  0  0
 45 48  1  6  0  0  0
 45 46  1  0  0  0  0
 45 47  1  0  0  0  0
 46 47  1  0  0  0  0
 47 44  1  1  0  0  0
 48 49  1  6  0  0  0
 50 48  1  0  0  0  0
 50 51  2  0  0  0  0
 53 52  1  0  0  0  0
 54 38  1  0  0  0  0
 56 61  1  6  0  0  0
 56 55  1  0  0  0  0
 57 59  1  1  0  0  0
 57 56  1  0  0  0  0
 58 54  1  6  0  0  0
 58 57  1  0  0  0  0
 58 62  1  0  0  0  0
 60 55  1  0  0  0  0
 62 60  2  0  0  0  0
M  END
>  <MODEL>
5

>  <REMARK>
 VINA RESULT:       1.3      2.521      5.015
  Name = 
  18 active torsions:
  status: ('A' for Active; 'I' for Inactive)
    1  A    between atoms: C_1  and  N_24
    2  A    between atoms: C_2  and  C_11
    3  A    between atoms: O_4  and  C_10
    4  A    between atoms: O_4  and  C_14
    5  A    between atoms: C_8  and  C_11
    6  A    between atoms: C_10  and  C_35
    7  A    between atoms: C_14  and  C_27
    8  A    between atoms: C_14  and  C_53
    9  A    between atoms: C_18  and  C_55
   10  A    between atoms: C_28  and  C_36
   11  A    between atoms: C_28  and  C_46
   12  A    between atoms: C_29  and  C_46
   13  A    between atoms: C_35  and  C_48
   14  A    between atoms: C_35  and  N_49
   15  A    between atoms: C_36  and  C_43
   16  A    between atoms: C_43  and  C_45
   17  A    between atoms: N_49  and  C_55
   18  A    between atoms: N_49  and  C_58
                            x       y       z     vdW  Elec       q    Type
                         _______ _______ _______ _____ _____    ______ ____

>  <TORSDO>
F 18

$$$$
=
 OpenBabel11072414043D

 62 67  0  0  1  0  0  0  0  0999 V2000
  161.2060  200.8990  145.9540 C   0  0  2  0  0  3  0  0  0  0  0  0
  159.1240  201.7660  145.1640 O   0  0  0  0  0  0  0  0  0  0  0  0
  161.5260  200.3250  147.3310 C   0  0  0  0  0  2  0  0  0  0  0  0
  160.5620  202.3390  148.4140 C   0  0  0  0  0  0  0  0  0  0  0  0
  160.8340  205.9090  149.3080 C   0  0  0  0  0  2  0  0  0  0  0  0
  159.9520  202.5670  149.5930 C   0  0  0  0  0  3  0  0  0  0  0  0
  160.8500  205.0570  151.6160 C   0  0  0  0  0  2  0  0  0  0  0  0
  159.8890  200.5240  150.9980 C   0  0  0  0  0  1  0  0  0  0  0  0
  162.4370  205.2160  145.9640 C   0  0  2  0  0  3  0  0  0  0  0  0
  161.8980  204.3230  152.1890 O   0  0  0  0  0  0  0  0  0  0  0  0
  160.0050  201.8180  146.0120 C   0  0  0  0  0  0  0  0  0  0  0  0
  161.7750  201.4550  148.3150 C   0  0  0  0  0  2  0  0  0  0  0  0
  160.0300  204.2980  146.7060 C   0  0  0  0  0  2  0  0  0  0  0  0
  160.4400  206.8610  145.4920 C   0  0  0  0  0  1  0  0  0  0  0  0
  161.3540  205.0300  147.0360 C   0  0  1  0  0  0  0  0  0  0  0  0
  161.8150  202.0690  151.3100 C   0  0  0  0  0  2  0  0  0  0  0  0
  162.3820  203.4740  151.1790 C   0  0  0  0  0  2  0  0  0  0  0  0
  160.3320  201.9720  150.9330 C   0  0  1  0  0  3  0  0  0  0  0  0
  161.8190  205.0840  148.4810 C   0  0  0  0  0  2  0  0  0  0  0  0
  161.3920  206.1630  150.7040 C   0  0  2  0  0  3  0  0  0  0  0  0
  161.5830  206.4180  146.4200 C   0  0  1  0  0  3  0  0  0  0  0  0
  159.8950  202.8170  147.1340 C   0  0  2  0  0  3  0  0  0  0  0  0
  161.0690  199.8330  144.9600 N   0  0  0  0  0  2  0  0  0  0  0  0
  161.3780  198.4460  145.1900 C   0  0  0  0  0  0  0  0  0  0  0  0
  161.4200  197.5390  144.0940 N   0  0  0  0  0  1  0  0  0  0  0  0
  161.5710  198.0250  146.3590 O   0  0  0  0  0  0  0  0  0  0  0  0
  162.1170  204.8460  144.5130 C   0  0  0  0  0  2  0  0  0  0  0  0
  162.7170  205.8290  143.5160 C   0  0  0  0  0  2  0  0  0  0  0  0
  161.8760  205.9180  142.2470 C   0  0  0  0  0  2  0  0  0  0  0  0
  163.5820  207.4100  141.4570 O   0  0  0  0  0  1  0  0  0  0  0  0
  162.6270  206.4840  141.0350 C   0  0  2  0  0  3  0  0  0  0  0  0
  161.6530  207.6420  137.6250 C   0  0  0  0  0  2  0  0  0  0  0  0
  161.1130  209.3240  140.6610 O   0  0  0  0  0  1  0  0  0  0  0  0
  161.9520  206.5270  138.6050 C   0  0  0  0  0  2  0  0  0  0  0  0
  161.7030  207.1080  139.9810 C   0  0  2  0  0  3  0  0  0  0  0  0
  161.9720  208.5930  139.8420 C   0  0  1  0  0  3  0  0  0  0  0  0
  161.7390  208.9490  138.3950 C   0  0  0  0  0  2  0  0  0  0  0  0
  161.0090  207.5020  151.1750 N   0  0  0  0  0  0  0  0  0  0  0  0
  160.7830  207.4940  152.6350 C   0  0  1  0  0  3  0  0  0  0  0  0
  161.8660  206.9640  154.7120 O   0  0  0  0  0  1  0  0  0  0  0  0
  161.6920  206.5290  153.3980 C   0  0  0  0  0  2  0  0  0  0  0  0
  160.8570  208.9020  153.1870 C   0  0  0  0  0  2  0  0  0  0  0  0
  159.7590  209.1640  154.0080 O   0  0  0  0  0  0  0  0  0  0  0  0
  160.2640  210.0270  154.9890 C   0  0  2  0  0  3  0  0  0  0  0  0
  158.3190  211.4660  154.2370 C   0  0  2  0  0  3  0  0  0  0  0  0
  158.0060  210.7360  155.4020 O   0  0  0  0  0  0  0  0  0  0  0  0
  159.3320  211.2090  155.2970 C   0  0  1  0  0  3  0  0  0  0  0  0
  157.7610  212.8990  154.2870 C   0  0  2  0  0  3  0  0  0  0  0  0
  156.3660  212.8600  154.2460 O   0  0  0  0  0  1  0  0  0  0  0  0
  158.2830  213.8550  153.2510 C   0  0  0  0  0  3  0  0  0  0  0  0
  158.0480  213.6630  152.0660 O   0  0  0  0  0  0  0  0  0  0  0  0
  161.6570  210.5200  154.6020 C   0  0  0  0  0  2  0  0  0  0  0  0
  162.5790  210.6290  155.8090 C   0  0  0  0  0  1  0  0  0  0  0  0
  162.0960  208.4310  150.8330 C   0  0  0  0  0  2  0  0  0  0  0  0
  161.3220  211.8190  148.3190 C   0  0  0  0  0  2  0  0  0  0  0  0
  161.5770  212.1580  149.7920 C   0  0  2  0  0  3  0  0  0  0  0  0
  161.7290  210.9310  150.7220 C   0  0  1  0  0  3  0  0  0  0  0  0
  161.5760  209.5800  149.9880 C   0  0  1  0  0  3  0  0  0  0  0  0
  162.9690  211.0140  151.3350 F   0  0  0  0  0  0  0  0  0  0  0  0
  162.1850  210.6700  147.8830 C   0  0  0  0  0  3  0  0  0  0  0  0
  160.5860  213.0010  150.2630 F   0  0  0  0  0  0  0  0  0  0  0  0
  162.3030  209.5990  148.6780 C   0  0  0  0  0  3  0  0  0  0  0  0
  1 23  1  6  0  0  0
  1 11  1  0  0  0  0
  1  3  1  0  0  0  0
  2 11  2  0  0  0  0
  3 12  1  0  0  0  0
  4  6  2  0  0  0  0
  5 20  1  0  0  0  0
  6 18  1  0  0  0  0
  7 10  1  0  0  0  0
  9 27  1  6  0  0  0
  9 21  1  0  0  0  0
  9 15  1  0  0  0  0
 11 22  1  0  0  0  0
 12  4  1  0  0  0  0
 15 13  1  6  0  0  0
 15 19  1  0  0  0  0
 17 16  1  0  0  0  0
 17 10  1  0  0  0  0
 18  8  1  6  0  0  0
 18 16  1  0  0  0  0
 19  5  1  0  0  0  0
 20 38  1  1  0  0  0
 20  7  1  0  0  0  0
 21 14  1  6  0  0  0
 21 15  1  0  0  0  0
 22 13  1  6  0  0  0
 22  4  1  0  0  0  0
 23 24  1  0  0  0  0
 24 26  2  0  0  0  0
 25 24  1  0  0  0  0
 28 27  1  0  0  0  0
 29 28  1  0  0  0  0
 31 30  1  1  0  0  0
 31 29  1  0  0  0  0
 32 37  1  0  0  0  0
 32 34  1  0  0  0  0
 34 35  1  0  0  0  0
 35 31  1  1  0  0  0
 36 35  1  0  0  0  0
 36 33  1  1  0  0  0
 37 36  1  0  0  0  0
 38 39  1  0  0  0  0
 39 42  1  1  0  0  0
 39 41  1  0  0  0  0
 41 40  1  0  0  0  0
 42 43  1  0  0  0  0
 43 44  1  0  0  0  0
 44 52  1  6  0  0  0
 45 48  1  1  0  0  0
 45 47  1  0  0  0  0
 45 46  1  0  0  0  0
 47 44  1  6  0  0  0
 47 46  1  0  0  0  0
 48 49  1  6  0  0  0
 50 48  1  0  0  0  0
 51 50  2  0  0  0  0
 52 53  1  0  0  0  0
 54 38  1  0  0  0  0
 55 56  1  0  0  0  0
 56 61  1  1  0  0  0
 56 57  1  0  0  0  0
 57 59  1  6  0  0  0
 58 57  1  0  0  0  0
 58 54  1  1  0  0  0
 60 55  1  0  0  0  0
 60 62  2  0  0  0  0
 62 58  1  0  0  0  0
M  END
>  <MODEL>
6

>  <REMARK>
 VINA RESULT:       2.2      3.414      6.345
  Name = 
  18 active torsions:
  status: ('A' for Active; 'I' for Inactive)
    1  A    between atoms: C_1  and  N_24
    2  A    between atoms: C_2  and  C_11
    3  A    between atoms: O_4  and  C_10
    4  A    between atoms: O_4  and  C_14
    5  A    between atoms: C_8  and  C_11
    6  A    between atoms: C_10  and  C_35
    7  A    between atoms: C_14  and  C_27
    8  A    between atoms: C_14  and  C_53
    9  A    between atoms: C_18  and  C_55
   10  A    between atoms: C_28  and  C_36
   11  A    between atoms: C_28  and  C_46
   12  A    between atoms: C_29  and  C_46
   13  A    between atoms: C_35  and  C_48
   14  A    between atoms: C_35  and  N_49
   15  A    between atoms: C_36  and  C_43
   16  A    between atoms: C_43  and  C_45
   17  A    between atoms: N_49  and  C_55
   18  A    between atoms: N_49  and  C_58
                            x       y       z     vdW  Elec       q    Type
                         _______ _______ _______ _____ _____    ______ ____

>  <TORSDO>
F 18

$$$$
