=
 OpenBabel11072411193D

 28 29  0  0  1  0  0  0  0  0999 V2000
  160.7950  204.9850  152.9950 C   0  0  0  0  0  2  0  0  0  0  0  0
  160.9880  204.2260  150.7070 C   0  0  0  0  0  2  0  0  0  0  0  0
  161.6450  204.1630  152.0630 C   0  0  0  0  0  2  0  0  0  0  0  0
  161.2750  205.4930  149.9500 C   0  0  0  0  0  0  0  0  0  0  0  0
  161.2510  206.4120  153.0450 C   0  0  0  0  0  0  0  0  0  0  0  0
  161.4880  207.1540  151.9410 C   0  0  0  0  0  0  0  0  0  0  0  0
  161.4470  206.6990  150.5250 C   0  0  0  0  0  3  0  0  0  0  0  0
  161.4950  205.3080  145.5740 C   0  0  2  0  0  3  0  0  0  0  0  0
  161.5980  204.1260  146.4240 N   0  0  0  0  0  2  0  0  0  0  0  0
  160.5880  206.3360  146.2350 C   0  0  0  0  0  2  0  0  0  0  0  0
  161.1230  206.6470  147.6310 C   0  0  0  0  0  2  0  0  0  0  0  0
  161.3100  205.3980  148.4650 C   0  0  0  0  0  0  0  0  0  0  0  0
  161.5590  204.2270  147.8530 C   0  0  0  0  0  3  0  0  0  0  0  0
  160.9390  204.9260  144.2150 C   0  0  0  0  0  2  0  0  0  0  0  0
  160.0950  203.8240  144.3410 O   0  0  0  0  0  1  0  0  0  0  0  0
  161.4020  207.0190  154.2990 O   0  0  0  0  0  0  0  0  0  0  0  0
  160.3310  207.1640  155.2210 C   0  0  0  0  0  1  0  0  0  0  0  0
  161.9010  208.5860  152.1200 C   0  0  0  0  0  2  0  0  0  0  0  0
  160.6870  209.4920  152.2830 C   0  0  0  0  0  2  0  0  0  0  0  0
  161.0820  210.8200  152.9090 C   0  0  1  0  0  3  0  0  0  0  0  0
  159.6630  211.8970  153.0020 S   0  0  0  0  0  0  0  0  0  0  0  0
  159.6980  212.6600  154.2960 O   0  0  0  0  0  0  0  0  0  0  0  0
  158.4000  211.0860  152.9330 O   0  0  0  0  0  0  0  0  0  0  0  0
  159.7120  213.0450  151.6400 C   0  0  0  0  0  2  0  0  0  0  0  0
  157.7340  213.2110  150.3370 O   0  0  0  0  0  1  0  0  0  0  0  0
  158.3660  213.7180  151.4720 C   0  0  0  0  0  2  0  0  0  0  0  0
  161.6390  210.5930  154.2460 C   0  0  0  0  0  0  0  0  0  0  0  0
  162.0790  210.4150  155.3010 N   0  0  0  0  0  0  0  0  0  0  0  0
  1  5  1  0  0  0  0
  2  3  1  0  0  0  0
  3  1  1  0  0  0  0
  4  7  2  0  0  0  0
  4  2  1  0  0  0  0
  5 16  1  0  0  0  0
  6 18  1  0  0  0  0
  6  5  2  0  0  0  0
  7  6  1  0  0  0  0
  8 14  1  6  0  0  0
  8 10  1  0  0  0  0
  8  9  1  0  0  0  0
  9 13  1  0  0  0  0
 10 11  1  0  0  0  0
 11 12  1  0  0  0  0
 12  4  1  0  0  0  0
 13 12  2  0  0  0  0
 14 15  1  0  0  0  0
 16 17  1  0  0  0  0
 18 19  1  0  0  0  0
 20 19  1  1  0  0  0
 20 21  1  0  0  0  0
 20 27  1  0  0  0  0
 21 22  2  0  0  0  0
 23 21  2  0  0  0  0
 24 21  1  0  0  0  0
 25 26  1  0  0  0  0
 26 24  1  0  0  0  0
 27 28  3  0  0  0  0
M  END
>  <MODEL>
1

>  <REMARK>
 VINA RESULT:      -7.3      0.000      0.000
  Name = 
  10 active torsions:
  status: ('A' for Active; 'I' for Inactive)
    1  A    between atoms: C_1  and  C_11
    2  A    between atoms: C_1  and  C_23
    3  A    between atoms: CA_2  and  C_18
    4  A    between atoms: C_4  and  C_11
    5  A    between atoms: O_7  and  C_19
    6  A    between atoms: S_8  and  C_11
    7  A    between atoms: S_8  and  C_17
    8  A    between atoms: C_15  and  C_22
    9  A    between atoms: C_17  and  C_24
   10  A    between atoms: C_21  and  C_23
                            x       y       z     vdW  Elec       q    Type
                         _______ _______ _______ _____ _____    ______ ____

>  <TORSDO>
F 10

$$$$
=
 OpenBabel11072411193D

 28 29  0  0  1  0  0  0  0  0999 V2000
  161.5200  203.4870  151.2660 C   0  0  0  0  0  2  0  0  0  0  0  0
  161.4010  205.2470  152.9200 C   0  0  0  0  0  2  0  0  0  0  0  0
  160.7140  203.9970  152.4300 C   0  0  0  0  0  2  0  0  0  0  0  0
  161.1000  206.4690  152.0980 C   0  0  0  0  0  0  0  0  0  0  0  0
  161.0280  204.0460  149.9650 C   0  0  0  0  0  0  0  0  0  0  0  0
  160.7980  205.3630  149.7630 C   0  0  0  0  0  0  0  0  0  0  0  0
  160.8840  206.4560  150.7680 C   0  0  0  0  0  3  0  0  0  0  0  0
  161.2370  210.2840  154.2560 C   0  0  2  0  0  3  0  0  0  0  0  0
  161.1780  210.1980  152.8010 N   0  0  0  0  0  2  0  0  0  0  0  0
  160.4960  209.1050  154.8680 C   0  0  0  0  0  2  0  0  0  0  0  0
  161.0880  207.8070  154.3210 C   0  0  0  0  0  2  0  0  0  0  0  0
  161.1020  207.7770  152.8080 C   0  0  0  0  0  0  0  0  0  0  0  0
  161.1710  208.9330  152.1260 C   0  0  0  0  0  3  0  0  0  0  0  0
  160.6150  211.5850  154.7270 C   0  0  0  0  0  2  0  0  0  0  0  0
  160.9480  211.8150  156.0620 O   0  0  0  0  0  1  0  0  0  0  0  0
  160.8320  203.1650  148.8930 O   0  0  0  0  0  0  0  0  0  0  0  0
  160.4080  201.8200  149.0650 C   0  0  0  0  0  1  0  0  0  0  0  0
  160.3450  205.8060  148.4020 C   0  0  0  0  0  2  0  0  0  0  0  0
  161.5320  206.0190  147.4710 C   0  0  0  0  0  2  0  0  0  0  0  0
  161.7040  204.8350  146.5320 C   0  0  1  0  0  3  0  0  0  0  0  0
  160.8250  205.1310  145.0080 S   0  0  0  0  0  0  0  0  0  0  0  0
  161.8010  205.5360  143.9390 O   0  0  0  0  0  0  0  0  0  0  0  0
  159.8160  206.2280  145.2050 O   0  0  0  0  0  0  0  0  0  0  0  0
  159.9950  203.6350  144.5130 C   0  0  0  0  0  2  0  0  0  0  0  0
  159.9200  201.2850  144.8440 O   0  0  0  0  0  1  0  0  0  0  0  0
  160.5120  202.4570  145.3130 C   0  0  0  0  0  2  0  0  0  0  0  0
  163.1280  204.6160  146.2660 C   0  0  0  0  0  0  0  0  0  0  0  0
  164.2520  204.4430  146.0540 N   0  0  0  0  0  0  0  0  0  0  0  0
  1  3  1  0  0  0  0
  3  2  1  0  0  0  0
  4 12  1  0  0  0  0
  4  2  1  0  0  0  0
  5  1  1  0  0  0  0
  6  5  2  0  0  0  0
  6  7  1  0  0  0  0
  7  4  2  0  0  0  0
  8 14  1  1  0  0  0
  8 10  1  0  0  0  0
  9  8  1  0  0  0  0
 11 10  1  0  0  0  0
 12 11  1  0  0  0  0
 13  9  1  0  0  0  0
 13 12  2  0  0  0  0
 14 15  1  0  0  0  0
 16 17  1  0  0  0  0
 16  5  1  0  0  0  0
 18  6  1  0  0  0  0
 19 18  1  0  0  0  0
 20 27  1  6  0  0  0
 20 19  1  0  0  0  0
 21 23  2  0  0  0  0
 21 20  1  0  0  0  0
 22 21  2  0  0  0  0
 24 21  1  0  0  0  0
 24 26  1  0  0  0  0
 25 26  1  0  0  0  0
 28 27  3  0  0  0  0
M  END
>  <MODEL>
2

>  <REMARK>
 VINA RESULT:      -7.3      3.149      8.641
  Name = 
  10 active torsions:
  status: ('A' for Active; 'I' for Inactive)
    1  A    between atoms: C_1  and  C_11
    2  A    between atoms: C_1  and  C_23
    3  A    between atoms: CA_2  and  C_18
    4  A    between atoms: C_4  and  C_11
    5  A    between atoms: O_7  and  C_19
    6  A    between atoms: S_8  and  C_11
    7  A    between atoms: S_8  and  C_17
    8  A    between atoms: C_15  and  C_22
    9  A    between atoms: C_17  and  C_24
   10  A    between atoms: C_21  and  C_23
                            x       y       z     vdW  Elec       q    Type
                         _______ _______ _______ _____ _____    ______ ____

>  <TORSDO>
F 10

$$$$
=
 OpenBabel11072411193D

 28 29  0  0  1  0  0  0  0  0999 V2000
  160.7940  204.9590  152.9460 C   0  0  0  0  0  2  0  0  0  0  0  0
  160.9780  204.1950  150.6590 C   0  0  0  0  0  2  0  0  0  0  0  0
  161.6380  204.1330  152.0130 C   0  0  0  0  0  2  0  0  0  0  0  0
  161.2670  205.4590  149.8980 C   0  0  0  0  0  0  0  0  0  0  0  0
  161.2530  206.3850  152.9910 C   0  0  0  0  0  0  0  0  0  0  0  0
  161.4890  207.1250  151.8850 C   0  0  0  0  0  0  0  0  0  0  0  0
  161.4420  206.6670  150.4700 C   0  0  0  0  0  3  0  0  0  0  0  0
  161.4760  205.2630  145.5220 C   0  0  2  0  0  3  0  0  0  0  0  0
  161.5590  204.0800  146.3740 N   0  0  0  0  0  2  0  0  0  0  0  0
  160.5890  206.3070  146.1820 C   0  0  0  0  0  2  0  0  0  0  0  0
  161.1310  206.6120  147.5770 C   0  0  0  0  0  2  0  0  0  0  0  0
  161.2970  205.3610  148.4140 C   0  0  0  0  0  0  0  0  0  0  0  0
  161.5240  204.1850  147.8030 C   0  0  0  0  0  3  0  0  0  0  0  0
  160.9110  204.8880  144.1650 C   0  0  0  0  0  2  0  0  0  0  0  0
  161.4510  205.7150  143.1810 O   0  0  0  0  0  1  0  0  0  0  0  0
  161.4080  206.9950  154.2430 O   0  0  0  0  0  0  0  0  0  0  0  0
  160.3520  207.1040  155.1870 C   0  0  0  0  0  1  0  0  0  0  0  0
  161.9050  208.5560  152.0590 C   0  0  0  0  0  2  0  0  0  0  0  0
  160.7000  209.4520  152.3150 C   0  0  0  0  0  2  0  0  0  0  0  0
  161.1270  210.7650  152.9520 C   0  0  1  0  0  3  0  0  0  0  0  0
  159.7360  211.8770  153.0480 S   0  0  0  0  0  0  0  0  0  0  0  0
  158.4690  211.1210  152.7610 O   0  0  0  0  0  0  0  0  0  0  0  0
  159.8950  212.9830  152.0420 O   0  0  0  0  0  0  0  0  0  0  0  0
  159.6520  212.5670  154.6880 C   0  0  0  0  0  2  0  0  0  0  0  0
  158.0180  211.5760  156.0980 O   0  0  0  0  0  1  0  0  0  0  0  0
  158.2170  212.6000  155.1720 C   0  0  0  0  0  2  0  0  0  0  0  0
  161.6730  210.5140  154.2880 C   0  0  0  0  0  0  0  0  0  0  0  0
  162.1060  210.3150  155.3430 N   0  0  0  0  0  0  0  0  0  0  0  0
  1  5  1  0  0  0  0
  2  3  1  0  0  0  0
  3  1  1  0  0  0  0
  4  7  2  0  0  0  0
  4  2  1  0  0  0  0
  5 16  1  0  0  0  0
  6 18  1  0  0  0  0
  6  5  2  0  0  0  0
  7  6  1  0  0  0  0
  8 14  1  6  0  0  0
  8 10  1  0  0  0  0
  8  9  1  0  0  0  0
  9 13  1  0  0  0  0
 10 11  1  0  0  0  0
 11 12  1  0  0  0  0
 12  4  1  0  0  0  0
 13 12  2  0  0  0  0
 15 14  1  0  0  0  0
 16 17  1  0  0  0  0
 18 19  1  0  0  0  0
 20 19  1  1  0  0  0
 20 21  1  0  0  0  0
 20 27  1  0  0  0  0
 21 24  1  0  0  0  0
 22 21  2  0  0  0  0
 23 21  2  0  0  0  0
 24 26  1  0  0  0  0
 26 25  1  0  0  0  0
 27 28  3  0  0  0  0
M  END
>  <MODEL>
3

>  <REMARK>
 VINA RESULT:      -7.2      1.229      1.692
  Name = 
  10 active torsions:
  status: ('A' for Active; 'I' for Inactive)
    1  A    between atoms: C_1  and  C_11
    2  A    between atoms: C_1  and  C_23
    3  A    between atoms: CA_2  and  C_18
    4  A    between atoms: C_4  and  C_11
    5  A    between atoms: O_7  and  C_19
    6  A    between atoms: S_8  and  C_11
    7  A    between atoms: S_8  and  C_17
    8  A    between atoms: C_15  and  C_22
    9  A    between atoms: C_17  and  C_24
   10  A    between atoms: C_21  and  C_23
                            x       y       z     vdW  Elec       q    Type
                         _______ _______ _______ _____ _____    ______ ____

>  <TORSDO>
F 10

$$$$
=
 OpenBabel11072411193D

 28 29  0  0  1  0  0  0  0  0999 V2000
  160.7650  206.5530  154.2790 C   0  0  0  0  0  2  0  0  0  0  0  0
  161.2140  205.5620  152.1200 C   0  0  0  0  0  2  0  0  0  0  0  0
  161.8100  205.8210  153.4800 C   0  0  0  0  0  2  0  0  0  0  0  0
  161.2560  206.7510  151.2000 C   0  0  0  0  0  0  0  0  0  0  0  0
  160.9010  208.0390  154.1390 C   0  0  0  0  0  0  0  0  0  0  0  0
  161.0220  208.6650  152.9470 C   0  0  0  0  0  0  0  0  0  0  0  0
  161.1400  208.0300  151.6060 C   0  0  0  0  0  3  0  0  0  0  0  0
  161.4550  205.9240  146.8980 C   0  0  2  0  0  3  0  0  0  0  0  0
  162.0370  207.1170  147.5040 N   0  0  0  0  0  2  0  0  0  0  0  0
  161.5150  204.7680  147.8850 C   0  0  0  0  0  2  0  0  0  0  0  0
  160.8180  205.1830  149.1800 C   0  0  0  0  0  2  0  0  0  0  0  0
  161.3740  206.4730  149.7430 C   0  0  0  0  0  0  0  0  0  0  0  0
  161.9220  207.3740  148.9090 C   0  0  0  0  0  3  0  0  0  0  0  0
  162.2090  205.5620  145.6320 C   0  0  0  0  0  2  0  0  0  0  0  0
  163.3360  204.8040  145.9510 O   0  0  0  0  0  1  0  0  0  0  0  0
  160.8640  208.8240  155.3000 O   0  0  0  0  0  0  0  0  0  0  0  0
  161.5870  208.4950  156.4780 C   0  0  0  0  0  1  0  0  0  0  0  0
  161.1100  210.1620  152.9340 C   0  0  0  0  0  2  0  0  0  0  0  0
  159.7250  210.7950  152.9780 C   0  0  0  0  0  2  0  0  0  0  0  0
  159.7890  212.2000  153.5570 C   0  0  1  0  0  3  0  0  0  0  0  0
  158.2200  213.0210  153.3430 S   0  0  0  0  0  0  0  0  0  0  0  0
  157.8250  212.9770  151.8930 O   0  0  0  0  0  0  0  0  0  0  0  0
  158.3270  214.4530  153.7890 O   0  0  0  0  0  0  0  0  0  0  0  0
  156.9850  212.1820  154.3160 C   0  0  0  0  0  2  0  0  0  0  0  0
  155.2000  213.5660  153.5830 O   0  0  0  0  0  1  0  0  0  0  0  0
  155.8900  213.1470  154.7200 C   0  0  0  0  0  2  0  0  0  0  0  0
  160.1420  212.1350  154.9780 C   0  0  0  0  0  0  0  0  0  0  0  0
  160.4220  212.0850  156.1000 N   0  0  0  0  0  0  0  0  0  0  0  0
  2  3  1  0  0  0  0
  3  1  1  0  0  0  0
  4  7  2  0  0  0  0
  4  2  1  0  0  0  0
  5  1  1  0  0  0  0
  5 16  1  0  0  0  0
  6  5  2  0  0  0  0
  7  6  1  0  0  0  0
  8 14  1  6  0  0  0
  8  9  1  0  0  0  0
  8 10  1  0  0  0  0
  9 13  1  0  0  0  0
 10 11  1  0  0  0  0
 11 12  1  0  0  0  0
 12  4  1  0  0  0  0
 13 12  2  0  0  0  0
 14 15  1  0  0  0  0
 16 17  1  0  0  0  0
 18  6  1  0  0  0  0
 18 19  1  0  0  0  0
 20 19  1  1  0  0  0
 20 27  1  0  0  0  0
 21 20  1  0  0  0  0
 21 23  2  0  0  0  0
 21 24  1  0  0  0  0
 22 21  2  0  0  0  0
 24 26  1  0  0  0  0
 25 26  1  0  0  0  0
 27 28  3  0  0  0  0
M  END
>  <MODEL>
4

>  <REMARK>
 VINA RESULT:      -6.9      2.103      2.588
  Name = 
  10 active torsions:
  status: ('A' for Active; 'I' for Inactive)
    1  A    between atoms: C_1  and  C_11
    2  A    between atoms: C_1  and  C_23
    3  A    between atoms: CA_2  and  C_18
    4  A    between atoms: C_4  and  C_11
    5  A    between atoms: O_7  and  C_19
    6  A    between atoms: S_8  and  C_11
    7  A    between atoms: S_8  and  C_17
    8  A    between atoms: C_15  and  C_22
    9  A    between atoms: C_17  and  C_24
   10  A    between atoms: C_21  and  C_23
                            x       y       z     vdW  Elec       q    Type
                         _______ _______ _______ _____ _____    ______ ____

>  <TORSDO>
F 10

$$$$
=
 OpenBabel11072411193D

 28 29  0  0  1  0  0  0  0  0999 V2000
  160.7520  206.6520  154.0800 C   0  0  0  0  0  2  0  0  0  0  0  0
  161.0720  205.5280  151.9630 C   0  0  0  0  0  2  0  0  0  0  0  0
  161.7220  205.8110  153.2940 C   0  0  0  0  0  2  0  0  0  0  0  0
  161.1690  206.6640  150.9840 C   0  0  0  0  0  0  0  0  0  0  0  0
  160.9850  208.1160  153.8610 C   0  0  0  0  0  0  0  0  0  0  0  0
  161.1140  208.6730  152.6370 C   0  0  0  0  0  0  0  0  0  0  0  0
  161.1510  207.9670  151.3270 C   0  0  0  0  0  3  0  0  0  0  0  0
  161.1940  205.5780  146.7350 C   0  0  2  0  0  3  0  0  0  0  0  0
  161.5830  206.8990  147.2180 N   0  0  0  0  0  2  0  0  0  0  0  0
  161.5470  204.5280  147.7780 C   0  0  0  0  0  2  0  0  0  0  0  0
  160.8840  204.9000  149.1030 C   0  0  0  0  0  2  0  0  0  0  0  0
  161.2270  206.3080  149.5400 C   0  0  0  0  0  0  0  0  0  0  0  0
  161.5280  207.2320  148.6110 C   0  0  0  0  0  3  0  0  0  0  0  0
  161.9050  205.2700  145.4310 C   0  0  0  0  0  2  0  0  0  0  0  0
  161.0390  204.6050  144.5630 O   0  0  0  0  0  1  0  0  0  0  0  0
  161.0340  208.9570  154.9820 O   0  0  0  0  0  0  0  0  0  0  0  0
  160.1240  208.8530  156.0670 C   0  0  0  0  0  1  0  0  0  0  0  0
  161.3040  210.1580  152.5450 C   0  0  0  0  0  2  0  0  0  0  0  0
  159.9690  210.8740  152.3820 C   0  0  0  0  0  2  0  0  0  0  0  0
  160.0300  212.2760  152.9680 C   0  0  1  0  0  3  0  0  0  0  0  0
  159.0830  213.4010  151.9590 S   0  0  0  0  0  0  0  0  0  0  0  0
  158.4590  214.4530  152.8330 O   0  0  0  0  0  0  0  0  0  0  0  0
  158.0020  212.6500  151.2320 O   0  0  0  0  0  0  0  0  0  0  0  0
  160.1660  214.1820  150.7800 C   0  0  0  0  0  2  0  0  0  0  0  0
  161.1290  212.8210  149.0890 O   0  0  0  0  0  1  0  0  0  0  0  0
  159.9900  213.5580  149.4110 C   0  0  0  0  0  2  0  0  0  0  0  0
  159.5150  212.2630  154.3400 C   0  0  0  0  0  0  0  0  0  0  0  0
  159.1100  212.2540  155.4240 N   0  0  0  0  0  0  0  0  0  0  0  0
  2  3  1  0  0  0  0
  3  1  1  0  0  0  0
  4  7  2  0  0  0  0
  4  2  1  0  0  0  0
  5  1  1  0  0  0  0
  5 16  1  0  0  0  0
  6  5  2  0  0  0  0
  7  6  1  0  0  0  0
  8 14  1  6  0  0  0
  8  9  1  0  0  0  0
  8 10  1  0  0  0  0
  9 13  1  0  0  0  0
 10 11  1  0  0  0  0
 11 12  1  0  0  0  0
 12  4  1  0  0  0  0
 13 12  2  0  0  0  0
 15 14  1  0  0  0  0
 16 17  1  0  0  0  0
 18  6  1  0  0  0  0
 19 18  1  0  0  0  0
 20 19  1  6  0  0  0
 20 27  1  0  0  0  0
 21 22  2  0  0  0  0
 21 20  1  0  0  0  0
 23 21  2  0  0  0  0
 24 21  1  0  0  0  0
 25 26  1  0  0  0  0
 26 24  1  0  0  0  0
 27 28  3  0  0  0  0
M  END
>  <MODEL>
5

>  <REMARK>
 VINA RESULT:      -6.5      1.766      2.194
  Name = 
  10 active torsions:
  status: ('A' for Active; 'I' for Inactive)
    1  A    between atoms: C_1  and  C_11
    2  A    between atoms: C_1  and  C_23
    3  A    between atoms: CA_2  and  C_18
    4  A    between atoms: C_4  and  C_11
    5  A    between atoms: O_7  and  C_19
    6  A    between atoms: S_8  and  C_11
    7  A    between atoms: S_8  and  C_17
    8  A    between atoms: C_15  and  C_22
    9  A    between atoms: C_17  and  C_24
   10  A    between atoms: C_21  and  C_23
                            x       y       z     vdW  Elec       q    Type
                         _______ _______ _______ _____ _____    ______ ____

>  <TORSDO>
F 10

$$$$
=
 OpenBabel11072411193D

 28 29  0  0  1  0  0  0  0  0999 V2000
  160.8700  206.9820  153.6220 C   0  0  0  0  0  2  0  0  0  0  0  0
  161.1110  205.6360  151.6280 C   0  0  0  0  0  2  0  0  0  0  0  0
  161.7910  206.0230  152.9170 C   0  0  0  0  0  2  0  0  0  0  0  0
  161.2460  206.6620  150.5370 C   0  0  0  0  0  0  0  0  0  0  0  0
  161.1660  208.4040  153.2540 C   0  0  0  0  0  0  0  0  0  0  0  0
  161.3040  208.8280  151.9780 C   0  0  0  0  0  0  0  0  0  0  0  0
  161.2910  207.9920  150.7470 C   0  0  0  0  0  3  0  0  0  0  0  0
  161.1750  205.1250  146.4310 C   0  0  2  0  0  3  0  0  0  0  0  0
  161.3910  206.5330  146.7470 N   0  0  0  0  0  2  0  0  0  0  0  0
  161.7420  204.2580  147.5440 C   0  0  0  0  0  2  0  0  0  0  0  0
  161.1140  204.6770  148.8710 C   0  0  0  0  0  2  0  0  0  0  0  0
  161.2690  206.1590  149.1370 C   0  0  0  0  0  0  0  0  0  0  0  0
  161.3720  207.0080  148.0990 C   0  0  0  0  0  3  0  0  0  0  0  0
  161.8430  204.7780  145.1140 C   0  0  0  0  0  2  0  0  0  0  0  0
  161.4090  205.6510  144.1170 O   0  0  0  0  0  1  0  0  0  0  0  0
  161.2680  209.3510  154.2830 O   0  0  0  0  0  0  0  0  0  0  0  0
  160.4200  209.3480  155.4230 C   0  0  0  0  0  1  0  0  0  0  0  0
  161.5580  210.2860  151.7350 C   0  0  0  0  0  2  0  0  0  0  0  0
  161.5630  210.6030  150.2440 C   0  0  0  0  0  2  0  0  0  0  0  0
  161.5910  212.1050  150.0090 C   0  0  1  0  0  3  0  0  0  0  0  0
  161.9530  212.4490  148.2970 S   0  0  0  0  0  0  0  0  0  0  0  0
  163.1050  211.5950  147.8480 O   0  0  0  0  0  0  0  0  0  0  0  0
  162.3110  213.8990  148.1310 O   0  0  0  0  0  0  0  0  0  0  0  0
  160.5190  212.0690  147.3100 C   0  0  0  0  0  2  0  0  0  0  0  0
  160.0370  212.1490  144.9860 O   0  0  0  0  0  1  0  0  0  0  0  0
  160.5090  212.9140  146.0520 C   0  0  0  0  0  2  0  0  0  0  0  0
  160.3010  212.6910  150.3860 C   0  0  0  0  0  0  0  0  0  0  0  0
  159.2830  213.1520  150.6850 N   0  0  0  0  0  0  0  0  0  0  0  0
  2  3  1  0  0  0  0
  3  1  1  0  0  0  0
  4  7  2  0  0  0  0
  4  2  1  0  0  0  0
  5  1  1  0  0  0  0
  5 16  1  0  0  0  0
  6  5  2  0  0  0  0
  7  6  1  0  0  0  0
  8 14  1  6  0  0  0
  8  9  1  0  0  0  0
  8 10  1  0  0  0  0
  9 13  1  0  0  0  0
 10 11  1  0  0  0  0
 11 12  1  0  0  0  0
 12  4  1  0  0  0  0
 13 12  2  0  0  0  0
 15 14  1  0  0  0  0
 16 17  1  0  0  0  0
 18  6  1  0  0  0  0
 19 18  1  0  0  0  0
 20 19  1  6  0  0  0
 20 27  1  0  0  0  0
 21 20  1  0  0  0  0
 22 21  2  0  0  0  0
 23 21  2  0  0  0  0
 24 21  1  0  0  0  0
 25 26  1  0  0  0  0
 26 24  1  0  0  0  0
 27 28  3  0  0  0  0
M  END
>  <MODEL>
6

>  <REMARK>
 VINA RESULT:      -6.4      3.076      3.600
  Name = 
  10 active torsions:
  status: ('A' for Active; 'I' for Inactive)
    1  A    between atoms: C_1  and  C_11
    2  A    between atoms: C_1  and  C_23
    3  A    between atoms: CA_2  and  C_18
    4  A    between atoms: C_4  and  C_11
    5  A    between atoms: O_7  and  C_19
    6  A    between atoms: S_8  and  C_11
    7  A    between atoms: S_8  and  C_17
    8  A    between atoms: C_15  and  C_22
    9  A    between atoms: C_17  and  C_24
   10  A    between atoms: C_21  and  C_23
                            x       y       z     vdW  Elec       q    Type
                         _______ _______ _______ _____ _____    ______ ____

>  <TORSDO>
F 10

$$$$
=
 OpenBabel11072411193D

 28 29  0  0  1  0  0  0  0  0999 V2000
  162.2420  208.5570  149.0430 C   0  0  0  0  0  2  0  0  0  0  0  0
  161.6420  206.5180  147.8900 C   0  0  0  0  0  2  0  0  0  0  0  0
  161.1410  207.8900  148.2620 C   0  0  0  0  0  2  0  0  0  0  0  0
  161.5470  205.5110  149.0030 C   0  0  0  0  0  0  0  0  0  0  0  0
  162.1050  208.3090  150.5140 C   0  0  0  0  0  0  0  0  0  0  0  0
  161.9090  207.0810  151.0450 C   0  0  0  0  0  0  0  0  0  0  0  0
  161.6980  205.8060  150.3090 C   0  0  0  0  0  3  0  0  0  0  0  0
  160.7610  201.3440  147.8870 C   0  0  2  0  0  3  0  0  0  0  0  0
  161.3250  202.3200  146.9600 N   0  0  0  0  0  2  0  0  0  0  0  0
  161.2080  201.6670  149.3040 C   0  0  0  0  0  2  0  0  0  0  0  0
  160.8130  203.1040  149.6360 C   0  0  0  0  0  2  0  0  0  0  0  0
  161.3300  204.0920  148.6120 C   0  0  0  0  0  0  0  0  0  0  0  0
  161.5350  203.6840  147.3470 C   0  0  0  0  0  3  0  0  0  0  0  0
  161.2120  199.9460  147.5080 C   0  0  0  0  0  2  0  0  0  0  0  0
  161.2620  199.8220  146.1200 O   0  0  0  0  0  1  0  0  0  0  0  0
  162.2250  209.3990  151.3880 O   0  0  0  0  0  0  0  0  0  0  0  0
  162.0110  210.7430  150.9800 C   0  0  0  0  0  1  0  0  0  0  0  0
  161.8300  206.9550  152.5380 C   0  0  0  0  0  2  0  0  0  0  0  0
  160.6350  207.7210  153.0930 C   0  0  0  0  0  2  0  0  0  0  0  0
  160.9680  208.3440  154.4390 C   0  0  1  0  0  3  0  0  0  0  0  0
  160.4110  210.0380  154.4820 S   0  0  0  0  0  0  0  0  0  0  0  0
  159.5960  210.3280  153.2530 O   0  0  0  0  0  0  0  0  0  0  0  0
  161.5930  210.9650  154.5290 O   0  0  0  0  0  0  0  0  0  0  0  0
  159.4000  210.2830  155.9290 C   0  0  0  0  0  2  0  0  0  0  0  0
  157.1370  210.8350  155.4740 O   0  0  0  0  0  1  0  0  0  0  0  0
  158.3970  211.3920  155.6880 C   0  0  0  0  0  2  0  0  0  0  0  0
  160.3390  207.5720  155.5130 C   0  0  0  0  0  0  0  0  0  0  0  0
  159.8410  206.9600  156.3610 N   0  0  0  0  0  0  0  0  0  0  0  0
  1  5  1  0  0  0  0
  2  3  1  0  0  0  0
  2  4  1  0  0  0  0
  3  1  1  0  0  0  0
  4  7  2  0  0  0  0
  5  6  2  0  0  0  0
  5 16  1  0  0  0  0
  6 18  1  0  0  0  0
  7  6  1  0  0  0  0
  8 14  1  6  0  0  0
  8 10  1  0  0  0  0
  9 13  1  0  0  0  0
  9  8  1  0  0  0  0
 10 11  1  0  0  0  0
 12  4  1  0  0  0  0
 12 11  1  0  0  0  0
 13 12  2  0  0  0  0
 15 14  1  0  0  0  0
 17 16  1  0  0  0  0
 18 19  1  0  0  0  0
 20 19  1  6  0  0  0
 20 21  1  0  0  0  0
 20 27  1  0  0  0  0
 21 23  2  0  0  0  0
 21 24  1  0  0  0  0
 22 21  2  0  0  0  0
 25 26  1  0  0  0  0
 26 24  1  0  0  0  0
 27 28  3  0  0  0  0
M  END
>  <MODEL>
7

>  <REMARK>
 VINA RESULT:      -6.2      2.542      3.871
  Name = 
  10 active torsions:
  status: ('A' for Active; 'I' for Inactive)
    1  A    between atoms: C_1  and  C_11
    2  A    between atoms: C_1  and  C_23
    3  A    between atoms: CA_2  and  C_18
    4  A    between atoms: C_4  and  C_11
    5  A    between atoms: O_7  and  C_19
    6  A    between atoms: S_8  and  C_11
    7  A    between atoms: S_8  and  C_17
    8  A    between atoms: C_15  and  C_22
    9  A    between atoms: C_17  and  C_24
   10  A    between atoms: C_21  and  C_23
                            x       y       z     vdW  Elec       q    Type
                         _______ _______ _______ _____ _____    ______ ____

>  <TORSDO>
F 10

$$$$
=
 OpenBabel11072411193D

 28 29  0  0  1  0  0  0  0  0999 V2000
  161.6780  208.8960  148.4480 C   0  0  0  0  0  2  0  0  0  0  0  0
  161.9860  209.3790  150.7970 C   0  0  0  0  0  2  0  0  0  0  0  0
  162.7190  209.0300  149.5270 C   0  0  0  0  0  2  0  0  0  0  0  0
  161.3470  208.1990  151.4750 C   0  0  0  0  0  0  0  0  0  0  0  0
  161.1810  207.4870  148.3310 C   0  0  0  0  0  0  0  0  0  0  0  0
  160.7740  206.7530  149.3900 C   0  0  0  0  0  0  0  0  0  0  0  0
  160.8290  207.1380  150.8260 C   0  0  0  0  0  3  0  0  0  0  0  0
  161.1430  208.2680  155.8550 C   0  0  2  0  0  3  0  0  0  0  0  0
  161.2410  209.4790  155.0470 N   0  0  0  0  0  2  0  0  0  0  0  0
  160.3770  207.2020  155.0880 C   0  0  0  0  0  2  0  0  0  0  0  0
  161.0600  206.9690  153.7420 C   0  0  0  0  0  2  0  0  0  0  0  0
  161.2360  208.2520  152.9590 C   0  0  0  0  0  0  0  0  0  0  0  0
  161.3430  209.4180  153.6180 C   0  0  0  0  0  3  0  0  0  0  0  0
  160.4370  208.5720  157.1630 C   0  0  0  0  0  2  0  0  0  0  0  0
  159.7760  209.7960  157.0730 O   0  0  0  0  0  1  0  0  0  0  0  0
  161.0980  206.9140  147.0540 O   0  0  0  0  0  0  0  0  0  0  0  0
  162.1530  206.1570  146.4770 C   0  0  0  0  0  1  0  0  0  0  0  0
  160.2580  205.3660  149.1400 C   0  0  0  0  0  2  0  0  0  0  0  0
  161.2870  204.3160  149.5370 C   0  0  0  0  0  2  0  0  0  0  0  0
  160.6080  203.0800  150.1070 C   0  0  1  0  0  3  0  0  0  0  0  0
  160.5610  201.7880  148.8790 S   0  0  0  0  0  0  0  0  0  0  0  0
  159.1420  201.3300  148.6880 O   0  0  0  0  0  0  0  0  0  0  0  0
  161.4050  200.6270  149.3260 O   0  0  0  0  0  0  0  0  0  0  0  0
  161.1860  202.4240  147.3370 C   0  0  0  0  0  2  0  0  0  0  0  0
  160.4860  202.3980  145.0680 O   0  0  0  0  0  1  0  0  0  0  0  0
  160.6890  201.5820  146.1800 C   0  0  0  0  0  2  0  0  0  0  0  0
  161.3280  202.6250  151.3000 C   0  0  0  0  0  0  0  0  0  0  0  0
  161.8950  202.2660  152.2420 N   0  0  0  0  0  0  0  0  0  0  0  0
  1  3  1  0  0  0  0
  2  4  1  0  0  0  0
  3  2  1  0  0  0  0
  4 12  1  0  0  0  0
  5  1  1  0  0  0  0
  5  6  2  0  0  0  0
  6  7  1  0  0  0  0
  7  4  2  0  0  0  0
  8 14  1  1  0  0  0
  9  8  1  0  0  0  0
 10  8  1  0  0  0  0
 11 10  1  0  0  0  0
 12 13  2  0  0  0  0
 12 11  1  0  0  0  0
 13  9  1  0  0  0  0
 15 14  1  0  0  0  0
 16  5  1  0  0  0  0
 17 16  1  0  0  0  0
 18  6  1  0  0  0  0
 18 19  1  0  0  0  0
 20 19  1  6  0  0  0
 20 27  1  0  0  0  0
 21 23  2  0  0  0  0
 21 20  1  0  0  0  0
 22 21  2  0  0  0  0
 24 21  1  0  0  0  0
 25 26  1  0  0  0  0
 26 24  1  0  0  0  0
 27 28  3  0  0  0  0
M  END
>  <MODEL>
8

>  <REMARK>
 VINA RESULT:      -6.0      3.626      8.909
  Name = 
  10 active torsions:
  status: ('A' for Active; 'I' for Inactive)
    1  A    between atoms: C_1  and  C_11
    2  A    between atoms: C_1  and  C_23
    3  A    between atoms: CA_2  and  C_18
    4  A    between atoms: C_4  and  C_11
    5  A    between atoms: O_7  and  C_19
    6  A    between atoms: S_8  and  C_11
    7  A    between atoms: S_8  and  C_17
    8  A    between atoms: C_15  and  C_22
    9  A    between atoms: C_17  and  C_24
   10  A    between atoms: C_21  and  C_23
                            x       y       z     vdW  Elec       q    Type
                         _______ _______ _______ _____ _____    ______ ____

>  <TORSDO>
F 10

$$$$
=
 OpenBabel11072411193D

 28 29  0  0  1  0  0  0  0  0999 V2000
  161.6080  205.4970  149.0760 C   0  0  0  0  0  2  0  0  0  0  0  0
  161.0180  205.8760  151.3900 C   0  0  0  0  0  2  0  0  0  0  0  0
  160.4550  205.4990  150.0430 C   0  0  0  0  0  2  0  0  0  0  0  0
  161.2460  207.3520  151.5630 C   0  0  0  0  0  0  0  0  0  0  0  0
  161.7840  206.8340  148.4230 C   0  0  0  0  0  0  0  0  0  0  0  0
  161.8260  207.9970  149.1110 C   0  0  0  0  0  0  0  0  0  0  0  0
  161.6140  208.1860  150.5710 C   0  0  0  0  0  3  0  0  0  0  0  0
  160.9820  208.9100  155.6540 C   0  0  2  0  0  3  0  0  0  0  0  0
  160.8380  209.7550  154.4730 N   0  0  0  0  0  2  0  0  0  0  0  0
  160.4600  207.5140  155.3500 C   0  0  0  0  0  2  0  0  0  0  0  0
  161.1920  206.9640  154.1280 C   0  0  0  0  0  2  0  0  0  0  0  0
  161.1100  207.8990  152.9410 C   0  0  0  0  0  0  0  0  0  0  0  0
  160.9670  209.2190  153.1500 C   0  0  0  0  0  3  0  0  0  0  0  0
  160.2130  209.5080  156.8180 C   0  0  0  0  0  2  0  0  0  0  0  0
  159.5800  210.6830  156.4160 O   0  0  0  0  0  1  0  0  0  0  0  0
  161.9530  206.8790  147.0320 O   0  0  0  0  0  0  0  0  0  0  0  0
  162.2510  205.7300  146.2520 C   0  0  0  0  0  1  0  0  0  0  0  0
  162.0500  209.2690  148.3470 C   0  0  0  0  0  2  0  0  0  0  0  0
  161.7110  210.4880  149.1970 C   0  0  0  0  0  2  0  0  0  0  0  0
  161.5800  211.7320  148.3320 C   0  0  1  0  0  3  0  0  0  0  0  0
  160.7070  213.0060  149.2240 S   0  0  0  0  0  0  0  0  0  0  0  0
  161.5320  214.2630  149.2360 O   0  0  0  0  0  0  0  0  0  0  0  0
  160.4560  212.5600  150.6380 O   0  0  0  0  0  0  0  0  0  0  0  0
  159.1540  213.3280  148.4120 C   0  0  0  0  0  2  0  0  0  0  0  0
  157.0220  212.9530  149.3860 O   0  0  0  0  0  1  0  0  0  0  0  0
  158.1250  213.8050  149.4160 C   0  0  0  0  0  2  0  0  0  0  0  0
  162.9100  212.2040  147.9380 C   0  0  0  0  0  0  0  0  0  0  0  0
  163.9600  212.5780  147.6270 N   0  0  0  0  0  0  0  0  0  0  0  0
  1  3  1  0  0  0  0
  2  4  1  0  0  0  0
  3  2  1  0  0  0  0
  4 12  1  0  0  0  0
  5  1  1  0  0  0  0
  5  6  2  0  0  0  0
  6  7  1  0  0  0  0
  7  4  2  0  0  0  0
  8 14  1  1  0  0  0
  9  8  1  0  0  0  0
 10  8  1  0  0  0  0
 11 10  1  0  0  0  0
 12 13  2  0  0  0  0
 12 11  1  0  0  0  0
 13  9  1  0  0  0  0
 15 14  1  0  0  0  0
 16  5  1  0  0  0  0
 17 16  1  0  0  0  0
 18  6  1  0  0  0  0
 18 19  1  0  0  0  0
 20 27  1  1  0  0  0
 20 19  1  0  0  0  0
 20 21  1  0  0  0  0
 21 22  2  0  0  0  0
 21 23  2  0  0  0  0
 24 21  1  0  0  0  0
 24 26  1  0  0  0  0
 25 26  1  0  0  0  0
 28 27  3  0  0  0  0
M  END
>  <MODEL>
9

>  <REMARK>
 VINA RESULT:      -5.9      2.948      6.635
  Name = 
  10 active torsions:
  status: ('A' for Active; 'I' for Inactive)
    1  A    between atoms: C_1  and  C_11
    2  A    between atoms: C_1  and  C_23
    3  A    between atoms: CA_2  and  C_18
    4  A    between atoms: C_4  and  C_11
    5  A    between atoms: O_7  and  C_19
    6  A    between atoms: S_8  and  C_11
    7  A    between atoms: S_8  and  C_17
    8  A    between atoms: C_15  and  C_22
    9  A    between atoms: C_17  and  C_24
   10  A    between atoms: C_21  and  C_23
                            x       y       z     vdW  Elec       q    Type
                         _______ _______ _______ _____ _____    ______ ____

>  <TORSDO>
F 10

$$$$
