=
 OpenBabel11072414593D

 39 41  0  0  1  0  0  0  0  0999 V2000
  161.6470  210.4710  154.3820 C   0  0  0  0  0  2  0  0  0  0  0  0
  160.8410  206.8960  153.5200 C   0  0  0  0  0  2  0  0  0  0  0  0
  162.0460  207.6140  150.0920 C   0  0  0  0  0  1  0  0  0  0  0  0
  161.0340  207.6930  151.2300 C   0  0  2  0  0  3  0  0  0  0  0  0
  161.4000  208.9620  154.6160 C   0  0  2  0  0  3  0  0  0  0  0  0
  160.7150  208.3470  153.4760 N   0  0  1  0  0  0  0  0  0  0  0  0
  160.6290  208.8010  155.7680 O   0  0  0  0  0  1  0  0  0  0  0  0
  161.0510  210.1690  151.8970 C   0  0  1  0  0  3  0  0  0  0  0  0
  161.4150  208.7280  152.2610 C   0  0  2  0  0  3  0  0  0  0  0  0
  160.8910  211.0360  153.1620 C   0  0  1  0  0  3  0  0  0  0  0  0
  160.8910  206.4170  152.0700 C   0  0  1  0  0  3  0  0  0  0  0  0
  162.3390  210.8960  150.8420 S   0  0  0  0  0  0  0  0  0  0  0  0
  161.1130  211.5770  149.6910 C   0  0  2  0  0  3  0  0  0  0  0  0
  162.8740  212.0100  148.1730 O   0  0  0  0  0  0  0  0  0  0  0  0
  161.7180  211.6500  148.3240 C   0  0  0  0  0  3  0  0  0  0  0  0
  159.6240  213.5290  149.2610 C   0  0  0  0  0  1  0  0  0  0  0  0
  160.6960  212.9560  150.1700 C   0  0  0  0  0  2  0  0  0  0  0  0
  161.9750  205.3460  151.8790 C   0  0  0  0  0  2  0  0  0  0  0  0
  161.4810  203.9380  152.1870 C   0  0  0  0  0  2  0  0  0  0  0  0
  160.1260  204.1490  150.2430 O   0  0  0  0  0  0  0  0  0  0  0  0
  160.7760  203.3810  151.0020 C   0  0  0  0  0  0  0  0  0  0  0  0
  160.8660  201.9840  150.7160 N   0  0  0  0  0  2  0  0  0  0  0  0
  160.2590  201.4260  149.5820 N   0  0  0  0  0  2  0  0  0  0  0  0
  161.2370  201.3630  148.5800 N   0  0  0  0  0  2  0  0  0  0  0  0
  161.0460  204.6520  144.0730 F   0  0  0  0  0  0  0  0  0  0  0  0
  161.6300  204.3480  146.3640 C   0  0  0  0  0  3  0  0  0  0  0  0
  161.1940  202.2140  147.4350 C   0  0  0  0  0  0  0  0  0  0  0  0
  160.6590  201.7290  146.2380 C   0  0  0  0  0  3  0  0  0  0  0  0
  160.6080  202.5490  145.1060 C   0  0  0  0  0  3  0  0  0  0  0  0
  161.0940  203.8580  145.1690 C   0  0  0  0  0  0  0  0  0  0  0  0
  161.6800  203.5290  147.4960 C   0  0  0  0  0  3  0  0  0  0  0  0
  159.4810  211.1870  153.4750 N   0  0  0  0  0  2  0  0  0  0  0  0
  159.4110  211.7470  154.7570 N   0  0  0  0  0  2  0  0  0  0  0  0
  158.1270  211.3580  155.3180 C   0  0  1  0  0  3  0  0  0  0  0  0
  158.0210  211.8520  156.6180 O   0  0  0  0  0  0  0  0  0  0  0  0
  159.3370  212.0530  157.0320 C   0  0  0  0  0  1  0  0  0  0  0  0
  157.0010  211.9260  154.4690 C   0  0  0  0  0  2  0  0  0  0  0  0
  156.6090  213.1690  154.9650 O   0  0  0  0  0  0  0  0  0  0  0  0
  156.4320  213.9570  153.8290 C   0  0  0  0  0  1  0  0  0  0  0  0
  1  5  1  0  0  0  0
  4  3  1  6  0  0  0
  4 11  1  0  0  0  0
  4  9  1  0  0  0  0
  5  7  1  1  0  0  0
  6  2  1  1  0  0  0
  6  5  1  0  0  0  0
  8 12  1  6  0  0  0
  8  9  1  0  0  0  0
  8 10  1  0  0  0  0
  9  6  1  0  0  0  0
 10 32  1  0  0  0  0
 10  1  1  0  0  0  0
 11  2  1  0  0  0  0
 13 17  1  0  0  0  0
 13 12  1  0  0  0  0
 14 15  2  0  0  0  0
 15 13  1  0  0  0  0
 16 17  1  0  0  0  0
 18 11  1  0  0  0  0
 18 19  1  0  0  0  0
 20 21  2  0  0  0  0
 21 19  1  0  0  0  0
 22 21  1  0  0  0  0
 23 22  1  0  0  0  0
 24 23  1  0  0  0  0
 25 30  1  0  0  0  0
 26 31  1  0  0  0  0
 27 31  2  0  0  0  0
 27 24  1  0  0  0  0
 28 27  1  0  0  0  0
 29 30  1  0  0  0  0
 29 28  2  0  0  0  0
 30 26  2  0  0  0  0
 32 33  1  0  0  0  0
 33 34  1  0  0  0  0
 34 35  1  0  0  0  0
 35 36  1  0  0  0  0
 37 38  1  0  0  0  0
 37 34  1  0  0  0  0
 39 38  1  0  0  0  0
M  END
>  <MODEL>
1

>  <REMARK>
 VINA RESULT:      -6.3      0.000      0.000
  Name = 
  16 active torsions:
  status: ('A' for Active; 'I' for Inactive)
    1  A    between atoms: O_4  and  C_23
    2  A    between atoms: C_6  and  C_32
    3  A    between atoms: O_9  and  C_27
    4  A    between atoms: N_11  and  C_20
    5  A    between atoms: N_11  and  N_25
    6  A    between atoms: C_16  and  C_32
    7  A    between atoms: C_16  and  C_36
    8  A    between atoms: C_18  and  S_30
    9  A    between atoms: C_21  and  N_22
   10  A    between atoms: N_22  and  N_38
   11  A    between atoms: C_23  and  C_27
   12  A    between atoms: N_25  and  C_27
   13  A    between atoms: C_26  and  S_30
   14  A    between atoms: C_26  and  C_31
   15  A    between atoms: C_26  and  C_37
   16  A    between atoms: N_28  and  N_38
                            x       y       z     vdW  Elec       q    Type
                         _______ _______ _______ _____ _____    ______ ____

>  <TORSDO>
F 16

$$$$
=
 OpenBabel11072414593D

 39 41  0  0  1  0  0  0  0  0999 V2000
  162.6910  207.7190  149.4470 C   0  0  0  0  0  2  0  0  0  0  0  0
  161.1340  209.7890  152.1800 C   0  0  0  0  0  2  0  0  0  0  0  0
  161.0860  206.7240  154.2600 C   0  0  0  0  0  1  0  0  0  0  0  0
  160.5840  207.6190  153.1320 C   0  0  2  0  0  3  0  0  0  0  0  0
  162.3380  208.9880  150.2590 C   0  0  2  0  0  3  0  0  0  0  0  0
  161.2050  208.7540  151.1570 N   0  0  1  0  0  0  0  0  0  0  0  0
  162.0290  210.0220  149.3750 O   0  0  0  0  0  1  0  0  0  0  0  0
  161.1890  206.3240  151.0030 C   0  0  1  0  0  3  0  0  0  0  0  0
  161.4560  207.5320  151.9040 C   0  0  2  0  0  3  0  0  0  0  0  0
  161.6260  206.6070  149.5530 C   0  0  1  0  0  3  0  0  0  0  0  0
  160.5820  209.1230  153.4400 C   0  0  1  0  0  3  0  0  0  0  0  0
  162.0890  204.8700  151.6190 S   0  0  0  0  0  0  0  0  0  0  0  0
  160.8200  203.7330  150.9980 C   0  0  2  0  0  3  0  0  0  0  0  0
  162.1230  202.0630  152.0490 O   0  0  0  0  0  0  0  0  0  0  0  0
  161.0290  202.3860  151.6170 C   0  0  0  0  0  3  0  0  0  0  0  0
  160.7050  202.2260  149.0150 C   0  0  0  0  0  1  0  0  0  0  0  0
  160.9240  203.6530  149.4850 C   0  0  0  0  0  2  0  0  0  0  0  0
  161.3590  209.5680  154.6870 C   0  0  0  0  0  2  0  0  0  0  0  0
  160.4550  210.0960  155.7950 C   0  0  0  0  0  2  0  0  0  0  0  0
  158.2080  210.7800  155.4180 O   0  0  0  0  0  0  0  0  0  0  0  0
  159.4320  211.0070  155.2180 C   0  0  0  0  0  0  0  0  0  0  0  0
  159.8430  212.1500  154.4670 N   0  0  0  0  0  2  0  0  0  0  0  0
  158.9140  213.0620  153.9480 N   0  0  0  0  0  2  0  0  0  0  0  0
  158.3510  212.4730  152.8070 N   0  0  0  0  0  2  0  0  0  0  0  0
  159.4460  214.4240  147.6920 F   0  0  0  0  0  0  0  0  0  0  0  0
  157.8510  213.8490  149.3670 C   0  0  0  0  0  3  0  0  0  0  0  0
  158.6180  212.9730  151.4970 C   0  0  0  0  0  0  0  0  0  0  0  0
  159.9410  213.0760  151.0560 C   0  0  0  0  0  3  0  0  0  0  0  0
  160.2210  213.5640  149.7760 C   0  0  0  0  0  3  0  0  0  0  0  0
  159.1750  213.9510  148.9310 C   0  0  0  0  0  0  0  0  0  0  0  0
  157.5710  213.3610  150.6470 C   0  0  0  0  0  3  0  0  0  0  0  0
  160.4650  206.9510  148.7510 N   0  0  0  0  0  2  0  0  0  0  0  0
  160.9420  207.2980  147.4800 N   0  0  0  0  0  2  0  0  0  0  0  0
  160.9320  206.0850  146.6790 C   0  0  1  0  0  3  0  0  0  0  0  0
  160.0210  206.2270  145.6340 O   0  0  0  0  0  0  0  0  0  0  0  0
  160.6800  205.7210  144.5140 C   0  0  0  0  0  1  0  0  0  0  0  0
  162.3190  205.8340  146.1090 C   0  0  0  0  0  2  0  0  0  0  0  0
  162.9500  204.8120  146.8190 O   0  0  0  0  0  0  0  0  0  0  0  0
  163.8120  204.2260  145.8930 C   0  0  0  0  0  1  0  0  0  0  0  0
  1 10  1  0  0  0  0
  1  5  1  0  0  0  0
  2 11  1  0  0  0  0
  4 11  1  0  0  0  0
  4  3  1  1  0  0  0
  5  7  1  6  0  0  0
  5  6  1  0  0  0  0
  6  9  1  0  0  0  0
  6  2  1  1  0  0  0
  8 12  1  1  0  0  0
  8  9  1  0  0  0  0
  9  4  1  0  0  0  0
 10  8  1  0  0  0  0
 11 18  1  0  0  0  0
 13 15  1  0  0  0  0
 13 12  1  0  0  0  0
 15 14  2  0  0  0  0
 16 17  1  0  0  0  0
 17 13  1  0  0  0  0
 18 19  1  0  0  0  0
 21 20  2  0  0  0  0
 21 19  1  0  0  0  0
 22 21  1  0  0  0  0
 23 22  1  0  0  0  0
 24 23  1  0  0  0  0
 25 30  1  0  0  0  0
 26 31  1  0  0  0  0
 27 24  1  0  0  0  0
 28 27  1  0  0  0  0
 29 28  2  0  0  0  0
 30 26  2  0  0  0  0
 30 29  1  0  0  0  0
 31 27  2  0  0  0  0
 32 10  1  0  0  0  0
 33 32  1  0  0  0  0
 34 33  1  0  0  0  0
 35 34  1  0  0  0  0
 36 35  1  0  0  0  0
 37 34  1  0  0  0  0
 37 38  1  0  0  0  0
 39 38  1  0  0  0  0
M  END
>  <MODEL>
2

>  <REMARK>
 VINA RESULT:      -6.1      3.085      9.318
  Name = 
  16 active torsions:
  status: ('A' for Active; 'I' for Inactive)
    1  A    between atoms: O_4  and  C_23
    2  A    between atoms: C_6  and  C_32
    3  A    between atoms: O_9  and  C_27
    4  A    between atoms: N_11  and  C_20
    5  A    between atoms: N_11  and  N_25
    6  A    between atoms: C_16  and  C_32
    7  A    between atoms: C_16  and  C_36
    8  A    between atoms: C_18  and  S_30
    9  A    between atoms: C_21  and  N_22
   10  A    between atoms: N_22  and  N_38
   11  A    between atoms: C_23  and  C_27
   12  A    between atoms: N_25  and  C_27
   13  A    between atoms: C_26  and  S_30
   14  A    between atoms: C_26  and  C_31
   15  A    between atoms: C_26  and  C_37
   16  A    between atoms: N_28  and  N_38
                            x       y       z     vdW  Elec       q    Type
                         _______ _______ _______ _____ _____    ______ ____

>  <TORSDO>
F 16

$$$$
=
 OpenBabel11072414593D

 39 41  0  0  1  0  0  0  0  0999 V2000
  161.3000  210.2160  155.8730 C   0  0  0  0  0  2  0  0  0  0  0  0
  161.0350  206.8330  154.2410 C   0  0  0  0  0  2  0  0  0  0  0  0
  161.2600  208.5640  150.9740 C   0  0  0  0  0  1  0  0  0  0  0  0
  160.5400  208.1380  152.2490 C   0  0  2  0  0  3  0  0  0  0  0  0
  161.4130  208.6790  155.7340 C   0  0  2  0  0  3  0  0  0  0  0  0
  160.6210  208.1800  154.6080 N   0  0  1  0  0  0  0  0  0  0  0  0
  160.9740  208.0830  156.9170 O   0  0  0  0  0  1  0  0  0  0  0  0
  160.2220  210.3310  153.5390 C   0  0  1  0  0  3  0  0  0  0  0  0
  160.9350  208.9810  153.4360 C   0  0  2  0  0  3  0  0  0  0  0  0
  160.1880  210.8300  154.9960 C   0  0  1  0  0  3  0  0  0  0  0  0
  160.8460  206.7130  152.7290 C   0  0  1  0  0  3  0  0  0  0  0  0
  161.0670  211.5680  152.5090 S   0  0  0  0  0  0  0  0  0  0  0  0
  159.5250  212.0280  151.6710 C   0  0  2  0  0  3  0  0  0  0  0  0
  160.2640  213.1040  149.7000 O   0  0  0  0  0  0  0  0  0  0  0  0
  159.7780  213.2270  150.8110 C   0  0  0  0  0  3  0  0  0  0  0  0
  158.3960  213.8200  152.9860 C   0  0  0  0  0  1  0  0  0  0  0  0
  158.4640  212.3290  152.7160 C   0  0  0  0  0  2  0  0  0  0  0  0
  162.0470  206.0120  152.0760 C   0  0  0  0  0  2  0  0  0  0  0  0
  161.8750  204.5010  151.9830 C   0  0  0  0  0  2  0  0  0  0  0  0
  160.5100  205.0670  150.1190 O   0  0  0  0  0  0  0  0  0  0  0  0
  161.0920  204.1560  150.7670 C   0  0  0  0  0  0  0  0  0  0  0  0
  161.0300  202.7990  150.3260 N   0  0  0  0  0  2  0  0  0  0  0  0
  160.3450  202.4370  149.1580 N   0  0  0  0  0  2  0  0  0  0  0  0
  161.3040  202.2920  148.1460 N   0  0  0  0  0  2  0  0  0  0  0  0
  161.6200  205.8850  143.8840 F   0  0  0  0  0  0  0  0  0  0  0  0
  160.9030  203.7780  144.7380 C   0  0  0  0  0  3  0  0  0  0  0  0
  161.3780  203.2020  147.0480 C   0  0  0  0  0  0  0  0  0  0  0  0
  162.0160  204.4350  147.2190 C   0  0  0  0  0  3  0  0  0  0  0  0
  162.0970  205.3380  146.1550 C   0  0  0  0  0  3  0  0  0  0  0  0
  161.5410  205.0100  144.9140 C   0  0  0  0  0  0  0  0  0  0  0  0
  160.8210  202.8750  145.8030 C   0  0  0  0  0  3  0  0  0  0  0  0
  158.8860  210.5560  155.5770 N   0  0  0  0  0  2  0  0  0  0  0  0
  158.9390  210.9870  156.9080 N   0  0  0  0  0  2  0  0  0  0  0  0
  157.7850  211.8440  157.1210 C   0  0  1  0  0  3  0  0  0  0  0  0
  158.2070  213.1690  157.2380 O   0  0  0  0  0  0  0  0  0  0  0  0
  157.3160  213.8980  156.4500 C   0  0  0  0  0  1  0  0  0  0  0  0
  156.8280  211.7210  155.9460 C   0  0  0  0  0  2  0  0  0  0  0  0
  155.7140  210.9670  156.3140 O   0  0  0  0  0  0  0  0  0  0  0  0
  155.2330  210.4480  155.1130 C   0  0  0  0  0  1  0  0  0  0  0  0
  4  3  1  6  0  0  0
  4 11  1  0  0  0  0
  4  9  1  0  0  0  0
  5  1  1  0  0  0  0
  5  7  1  1  0  0  0
  6  2  1  6  0  0  0
  6  5  1  0  0  0  0
  8 12  1  6  0  0  0
  8 10  1  0  0  0  0
  9  8  1  0  0  0  0
  9  6  1  0  0  0  0
 10 32  1  0  0  0  0
 10  1  1  0  0  0  0
 11  2  1  0  0  0  0
 13 12  1  0  0  0  0
 13 17  1  0  0  0  0
 14 15  2  0  0  0  0
 15 13  1  0  0  0  0
 17 16  1  0  0  0  0
 18 11  1  0  0  0  0
 19 18  1  0  0  0  0
 20 21  2  0  0  0  0
 21 19  1  0  0  0  0
 22 21  1  0  0  0  0
 23 22  1  0  0  0  0
 24 23  1  0  0  0  0
 25 30  1  0  0  0  0
 26 30  2  0  0  0  0
 26 31  1  0  0  0  0
 27 28  1  0  0  0  0
 27 24  1  0  0  0  0
 29 28  2  0  0  0  0
 30 29  1  0  0  0  0
 31 27  2  0  0  0  0
 32 33  1  0  0  0  0
 33 34  1  0  0  0  0
 34 35  1  0  0  0  0
 36 35  1  0  0  0  0
 37 38  1  0  0  0  0
 37 34  1  0  0  0  0
 39 38  1  0  0  0  0
M  END
>  <MODEL>
3

>  <REMARK>
 VINA RESULT:      -6.0      1.564      2.094
  Name = 
  16 active torsions:
  status: ('A' for Active; 'I' for Inactive)
    1  A    between atoms: O_4  and  C_23
    2  A    between atoms: C_6  and  C_32
    3  A    between atoms: O_9  and  C_27
    4  A    between atoms: N_11  and  C_20
    5  A    between atoms: N_11  and  N_25
    6  A    between atoms: C_16  and  C_32
    7  A    between atoms: C_16  and  C_36
    8  A    between atoms: C_18  and  S_30
    9  A    between atoms: C_21  and  N_22
   10  A    between atoms: N_22  and  N_38
   11  A    between atoms: C_23  and  C_27
   12  A    between atoms: N_25  and  C_27
   13  A    between atoms: C_26  and  S_30
   14  A    between atoms: C_26  and  C_31
   15  A    between atoms: C_26  and  C_37
   16  A    between atoms: N_28  and  N_38
                            x       y       z     vdW  Elec       q    Type
                         _______ _______ _______ _____ _____    ______ ____

>  <TORSDO>
F 16

$$$$
=
 OpenBabel11072414593D

 39 41  0  0  1  0  0  0  0  0999 V2000
  162.7550  207.6990  148.9050 C   0  0  0  0  0  2  0  0  0  0  0  0
  161.1080  209.7830  151.5730 C   0  0  0  0  0  2  0  0  0  0  0  0
  161.1450  206.7720  153.7300 C   0  0  0  0  0  1  0  0  0  0  0  0
  160.6230  207.6210  152.5760 C   0  0  2  0  0  3  0  0  0  0  0  0
  162.3540  208.9750  149.6820 C   0  0  2  0  0  3  0  0  0  0  0  0
  161.2220  208.7260  150.5780 N   0  0  1  0  0  0  0  0  0  0  0  0
  162.0180  209.9760  148.7700 O   0  0  0  0  0  1  0  0  0  0  0  0
  161.2890  206.2940  150.4850 C   0  0  1  0  0  3  0  0  0  0  0  0
  161.5080  207.5320  151.3570 C   0  0  2  0  0  3  0  0  0  0  0  0
  161.7280  206.5550  149.0310 C   0  0  1  0  0  3  0  0  0  0  0  0
  160.5680  209.1310  152.8460 C   0  0  1  0  0  3  0  0  0  0  0  0
  162.2310  204.8870  151.1440 S   0  0  0  0  0  0  0  0  0  0  0  0
  160.8690  203.7320  150.8240 C   0  0  2  0  0  3  0  0  0  0  0  0
  160.3740  203.3600  153.1060 O   0  0  0  0  0  0  0  0  0  0  0  0
  160.6710  202.8680  152.0300 C   0  0  0  0  0  3  0  0  0  0  0  0
  160.2880  201.6870  149.5230 C   0  0  0  0  0  1  0  0  0  0  0  0
  161.2090  202.8900  149.6070 C   0  0  0  0  0  2  0  0  0  0  0  0
  161.3200  209.6330  154.0860 C   0  0  0  0  0  2  0  0  0  0  0  0
  160.3940  209.9570  155.2530 C   0  0  0  0  0  2  0  0  0  0  0  0
  160.7460  212.2590  155.7400 O   0  0  0  0  0  0  0  0  0  0  0  0
  160.0060  211.3920  155.2040 C   0  0  0  0  0  0  0  0  0  0  0  0
  158.8110  211.7790  154.5240 N   0  0  0  0  0  2  0  0  0  0  0  0
  158.4330  213.1240  154.4110 N   0  0  0  0  0  2  0  0  0  0  0  0
  158.7170  213.5230  153.0980 N   0  0  0  0  0  2  0  0  0  0  0  0
  154.6990  214.4410  149.3330 F   0  0  0  0  0  0  0  0  0  0  0  0
  155.4150  214.4430  151.6060 C   0  0  0  0  0  3  0  0  0  0  0  0
  157.6810  213.7610  152.1450 C   0  0  0  0  0  0  0  0  0  0  0  0
  157.9320  213.5390  150.7870 C   0  0  0  0  0  3  0  0  0  0  0  0
  156.9280  213.7680  149.8400 C   0  0  0  0  0  3  0  0  0  0  0  0
  155.6700  214.2190  150.2500 C   0  0  0  0  0  0  0  0  0  0  0  0
  156.4180  214.2140  152.5530 C   0  0  0  0  0  3  0  0  0  0  0  0
  160.5620  206.8390  148.2120 N   0  0  0  0  0  2  0  0  0  0  0  0
  161.0370  207.1680  146.9360 N   0  0  0  0  0  2  0  0  0  0  0  0
  160.9410  205.9640  146.1270 C   0  0  1  0  0  3  0  0  0  0  0  0
  160.2220  206.2430  144.9650 O   0  0  0  0  0  0  0  0  0  0  0  0
  161.0470  205.8170  143.9240 C   0  0  0  0  0  1  0  0  0  0  0  0
  162.3330  205.4800  145.7550 C   0  0  0  0  0  2  0  0  0  0  0  0
  162.6730  204.3660  146.5210 O   0  0  0  0  0  0  0  0  0  0  0  0
  161.6300  203.4650  146.3070 C   0  0  0  0  0  1  0  0  0  0  0  0
  1 10  1  0  0  0  0
  1  5  1  0  0  0  0
  2 11  1  0  0  0  0
  4 11  1  0  0  0  0
  4  3  1  1  0  0  0
  5  7  1  6  0  0  0
  5  6  1  0  0  0  0
  6  9  1  0  0  0  0
  6  2  1  1  0  0  0
  8 12  1  1  0  0  0
  8  9  1  0  0  0  0
  9  4  1  0  0  0  0
 10  8  1  0  0  0  0
 11 18  1  0  0  0  0
 13 12  1  0  0  0  0
 13 15  1  0  0  0  0
 15 14  2  0  0  0  0
 16 17  1  0  0  0  0
 17 13  1  0  0  0  0
 18 19  1  0  0  0  0
 21 19  1  0  0  0  0
 21 20  2  0  0  0  0
 22 21  1  0  0  0  0
 23 22  1  0  0  0  0
 24 23  1  0  0  0  0
 25 30  1  0  0  0  0
 26 31  1  0  0  0  0
 27 31  2  0  0  0  0
 27 24  1  0  0  0  0
 28 27  1  0  0  0  0
 29 30  1  0  0  0  0
 29 28  2  0  0  0  0
 30 26  2  0  0  0  0
 32 10  1  0  0  0  0
 33 32  1  0  0  0  0
 34 33  1  0  0  0  0
 35 34  1  0  0  0  0
 36 35  1  0  0  0  0
 37 34  1  0  0  0  0
 37 38  1  0  0  0  0
 39 38  1  0  0  0  0
M  END
>  <MODEL>
4

>  <REMARK>
 VINA RESULT:      -5.7      3.351      9.851
  Name = 
  16 active torsions:
  status: ('A' for Active; 'I' for Inactive)
    1  A    between atoms: O_4  and  C_23
    2  A    between atoms: C_6  and  C_32
    3  A    between atoms: O_9  and  C_27
    4  A    between atoms: N_11  and  C_20
    5  A    between atoms: N_11  and  N_25
    6  A    between atoms: C_16  and  C_32
    7  A    between atoms: C_16  and  C_36
    8  A    between atoms: C_18  and  S_30
    9  A    between atoms: C_21  and  N_22
   10  A    between atoms: N_22  and  N_38
   11  A    between atoms: C_23  and  C_27
   12  A    between atoms: N_25  and  C_27
   13  A    between atoms: C_26  and  S_30
   14  A    between atoms: C_26  and  C_31
   15  A    between atoms: C_26  and  C_37
   16  A    between atoms: N_28  and  N_38
                            x       y       z     vdW  Elec       q    Type
                         _______ _______ _______ _____ _____    ______ ____

>  <TORSDO>
F 16

$$$$
=
 OpenBabel11072414593D

 39 41  0  0  1  0  0  0  0  0999 V2000
  159.8660  203.2500  149.9120 C   0  0  0  0  0  2  0  0  0  0  0  0
  161.8750  205.2390  152.3990 C   0  0  0  0  0  2  0  0  0  0  0  0
  161.6090  208.1140  150.0800 C   0  0  0  0  0  1  0  0  0  0  0  0
  162.1630  206.7670  150.5290 C   0  0  2  0  0  3  0  0  0  0  0  0
  160.4490  203.6540  151.2860 C   0  0  2  0  0  3  0  0  0  0  0  0
  161.5900  204.5600  151.1410 N   0  0  1  0  0  0  0  0  0  0  0  0
  160.8480  202.5030  151.9670 O   0  0  0  0  0  1  0  0  0  0  0  0
  161.2440  205.1150  148.7960 C   0  0  1  0  0  3  0  0  0  0  0  0
  161.2120  205.6320  150.2360 C   0  0  2  0  0  3  0  0  0  0  0  0
  160.7630  203.6530  148.7220 C   0  0  1  0  0  3  0  0  0  0  0  0
  162.4020  206.6270  152.0380 C   0  0  1  0  0  3  0  0  0  0  0  0
  160.1840  206.1410  147.7350 S   0  0  0  0  0  0  0  0  0  0  0  0
  161.4490  206.2320  146.4370 C   0  0  2  0  0  3  0  0  0  0  0  0
  160.9110  206.0850  144.1390 O   0  0  0  0  0  0  0  0  0  0  0  0
  160.9470  205.5200  145.2200 C   0  0  0  0  0  3  0  0  0  0  0  0
  163.3010  204.6520  145.9020 C   0  0  0  0  0  1  0  0  0  0  0  0
  162.7280  205.5920  146.9470 C   0  0  0  0  0  2  0  0  0  0  0  0
  161.7770  207.7060  152.9340 C   0  0  0  0  0  2  0  0  0  0  0  0
  160.9190  207.1260  154.0520 C   0  0  0  0  0  2  0  0  0  0  0  0
  159.8180  207.9390  155.9980 O   0  0  0  0  0  0  0  0  0  0  0  0
  160.6190  208.1810  155.0560 C   0  0  0  0  0  0  0  0  0  0  0  0
  161.2650  209.4520  154.9620 N   0  0  0  0  0  2  0  0  0  0  0  0
  161.0500  210.4570  155.9140 N   0  0  0  0  0  2  0  0  0  0  0  0
  160.6980  211.6200  155.2140 N   0  0  0  0  0  2  0  0  0  0  0  0
  155.3570  212.8270  154.1260 F   0  0  0  0  0  0  0  0  0  0  0  0
  157.6700  213.3260  153.8360 C   0  0  0  0  0  3  0  0  0  0  0  0
  159.3360  211.9400  154.9280 C   0  0  0  0  0  0  0  0  0  0  0  0
  158.3160  211.1560  155.4780 C   0  0  0  0  0  3  0  0  0  0  0  0
  156.9770  211.4540  155.2080 C   0  0  0  0  0  3  0  0  0  0  0  0
  156.6540  212.5390  154.3870 C   0  0  0  0  0  0  0  0  0  0  0  0
  159.0090  213.0270  154.1050 C   0  0  0  0  0  3  0  0  0  0  0  0
  161.9090  202.7640  148.6380 N   0  0  0  0  0  2  0  0  0  0  0  0
  161.4050  201.4570  148.6260 N   0  0  0  0  0  2  0  0  0  0  0  0
  161.5630  200.9570  147.2700 C   0  0  1  0  0  3  0  0  0  0  0  0
  161.6750  199.5670  147.2990 O   0  0  0  0  0  0  0  0  0  0  0  0
  161.4120  199.1600  145.9910 C   0  0  0  0  0  1  0  0  0  0  0  0
  160.3560  201.3480  146.4330 C   0  0  0  0  0  2  0  0  0  0  0  0
  160.7370  202.2450  145.4340 O   0  0  0  0  0  0  0  0  0  0  0  0
  159.6920  202.2050  144.5130 C   0  0  0  0  0  1  0  0  0  0  0  0
  1  5  1  0  0  0  0
  4  3  1  1  0  0  0
  4 11  1  0  0  0  0
  5  7  1  6  0  0  0
  6  5  1  0  0  0  0
  6  2  1  1  0  0  0
  8 12  1  6  0  0  0
  8  9  1  0  0  0  0
  9  4  1  0  0  0  0
  9  6  1  0  0  0  0
 10  8  1  0  0  0  0
 10  1  1  0  0  0  0
 11  2  1  0  0  0  0
 11 18  1  0  0  0  0
 13 17  1  0  0  0  0
 13 12  1  0  0  0  0
 14 15  2  0  0  0  0
 15 13  1  0  0  0  0
 16 17  1  0  0  0  0
 18 19  1  0  0  0  0
 19 21  1  0  0  0  0
 21 20  2  0  0  0  0
 22 21  1  0  0  0  0
 22 23  1  0  0  0  0
 24 23  1  0  0  0  0
 25 30  1  0  0  0  0
 26 31  2  0  0  0  0
 26 30  1  0  0  0  0
 27 24  1  0  0  0  0
 27 28  2  0  0  0  0
 29 28  1  0  0  0  0
 30 29  2  0  0  0  0
 31 27  1  0  0  0  0
 32 10  1  0  0  0  0
 33 32  1  0  0  0  0
 34 35  1  0  0  0  0
 34 33  1  0  0  0  0
 36 35  1  0  0  0  0
 37 34  1  0  0  0  0
 38 37  1  0  0  0  0
 39 38  1  0  0  0  0
M  END
>  <MODEL>
5

>  <REMARK>
 VINA RESULT:      -5.5      3.563     10.073
  Name = 
  16 active torsions:
  status: ('A' for Active; 'I' for Inactive)
    1  A    between atoms: O_4  and  C_23
    2  A    between atoms: C_6  and  C_32
    3  A    between atoms: O_9  and  C_27
    4  A    between atoms: N_11  and  C_20
    5  A    between atoms: N_11  and  N_25
    6  A    between atoms: C_16  and  C_32
    7  A    between atoms: C_16  and  C_36
    8  A    between atoms: C_18  and  S_30
    9  A    between atoms: C_21  and  N_22
   10  A    between atoms: N_22  and  N_38
   11  A    between atoms: C_23  and  C_27
   12  A    between atoms: N_25  and  C_27
   13  A    between atoms: C_26  and  S_30
   14  A    between atoms: C_26  and  C_31
   15  A    between atoms: C_26  and  C_37
   16  A    between atoms: N_28  and  N_38
                            x       y       z     vdW  Elec       q    Type
                         _______ _______ _______ _____ _____    ______ ____

>  <TORSDO>
F 16

$$$$
=
 OpenBabel11072414593D

 39 41  0  0  1  0  0  0  0  0999 V2000
  159.8790  204.4580  150.1590 C   0  0  0  0  0  2  0  0  0  0  0  0
  162.1080  207.0160  151.7900 C   0  0  0  0  0  2  0  0  0  0  0  0
  161.9300  208.9530  148.6370 C   0  0  0  0  0  1  0  0  0  0  0  0
  162.4160  207.7990  149.5080 C   0  0  2  0  0  3  0  0  0  0  0  0
  160.5410  205.2580  151.3050 C   0  0  2  0  0  3  0  0  0  0  0  0
  161.7310  205.9760  150.8420 N   0  0  1  0  0  0  0  0  0  0  0  0
  160.8940  204.3770  152.3290 O   0  0  0  0  0  1  0  0  0  0  0  0
  161.3260  205.7310  148.4540 C   0  0  1  0  0  3  0  0  0  0  0  0
  161.3840  206.7050  149.6330 C   0  0  2  0  0  3  0  0  0  0  0  0
  160.7500  204.3700  148.8880 C   0  0  1  0  0  3  0  0  0  0  0  0
  162.7070  208.1590  150.9710 C   0  0  1  0  0  3  0  0  0  0  0  0
  160.2900  206.4140  147.1260 S   0  0  0  0  0  0  0  0  0  0  0  0
  161.5960  206.1800  145.8890 C   0  0  2  0  0  3  0  0  0  0  0  0
  161.1480  205.6190  143.6360 O   0  0  0  0  0  0  0  0  0  0  0  0
  161.0850  205.2820  144.8060 C   0  0  0  0  0  3  0  0  0  0  0  0
  163.4400  204.5170  145.6700 C   0  0  0  0  0  1  0  0  0  0  0  0
  162.8140  205.5720  146.5630 C   0  0  0  0  0  2  0  0  0  0  0  0
  162.1880  209.5190  151.4580 C   0  0  0  0  0  2  0  0  0  0  0  0
  160.9040  209.4090  152.2730 C   0  0  0  0  0  2  0  0  0  0  0  0
  160.3710  211.7070  152.5720 O   0  0  0  0  0  0  0  0  0  0  0  0
  160.7320  210.6260  153.1090 C   0  0  0  0  0  0  0  0  0  0  0  0
  160.9490  210.5530  154.5190 N   0  0  0  0  0  2  0  0  0  0  0  0
  160.7500  211.6640  155.3510 N   0  0  0  0  0  2  0  0  0  0  0  0
  159.5130  211.4860  155.9870 N   0  0  0  0  0  2  0  0  0  0  0  0
  154.7920  213.4490  153.7470 F   0  0  0  0  0  0  0  0  0  0  0  0
  155.9810  211.6570  154.7730 C   0  0  0  0  0  3  0  0  0  0  0  0
  158.3000  211.9760  155.4160 C   0  0  0  0  0  0  0  0  0  0  0  0
  158.2480  213.2870  154.9320 C   0  0  0  0  0  3  0  0  0  0  0  0
  157.0680  213.7830  154.3690 C   0  0  0  0  0  3  0  0  0  0  0  0
  155.9350  212.9680  154.2900 C   0  0  0  0  0  0  0  0  0  0  0  0
  157.1610  211.1600  155.3350 C   0  0  0  0  0  3  0  0  0  0  0  0
  161.8330  203.4230  149.0910 N   0  0  0  0  0  2  0  0  0  0  0  0
  161.9580  202.6920  147.9030 N   0  0  0  0  0  2  0  0  0  0  0  0
  160.9450  201.6500  147.9410 C   0  0  1  0  0  3  0  0  0  0  0  0
  161.0170  200.8920  146.7730 O   0  0  0  0  0  0  0  0  0  0  0  0
  160.5480  201.7380  145.7680 C   0  0  0  0  0  1  0  0  0  0  0  0
  161.1790  200.7480  149.1420 C   0  0  0  0  0  2  0  0  0  0  0  0
  160.2750  201.0600  150.1580 O   0  0  0  0  0  0  0  0  0  0  0  0
  159.0370  201.1040  149.5200 C   0  0  0  0  0  1  0  0  0  0  0  0
  1  5  1  0  0  0  0
  4  3  1  6  0  0  0
  4  9  1  0  0  0  0
  4 11  1  0  0  0  0
  5  7  1  1  0  0  0
  6  5  1  0  0  0  0
  6  2  1  1  0  0  0
  8 12  1  6  0  0  0
  8 10  1  0  0  0  0
  8  9  1  0  0  0  0
  9  6  1  0  0  0  0
 10 32  1  0  0  0  0
 10  1  1  0  0  0  0
 11 18  1  0  0  0  0
 11  2  1  0  0  0  0
 13 17  1  0  0  0  0
 13 12  1  0  0  0  0
 14 15  2  0  0  0  0
 15 13  1  0  0  0  0
 16 17  1  0  0  0  0
 18 19  1  0  0  0  0
 19 21  1  0  0  0  0
 20 21  2  0  0  0  0
 21 22  1  0  0  0  0
 22 23  1  0  0  0  0
 23 24  1  0  0  0  0
 25 30  1  0  0  0  0
 26 31  1  0  0  0  0
 27 24  1  0  0  0  0
 28 27  1  0  0  0  0
 29 28  2  0  0  0  0
 30 29  1  0  0  0  0
 30 26  2  0  0  0  0
 31 27  2  0  0  0  0
 33 34  1  0  0  0  0
 33 32  1  0  0  0  0
 34 37  1  0  0  0  0
 35 34  1  0  0  0  0
 36 35  1  0  0  0  0
 37 38  1  0  0  0  0
 39 38  1  0  0  0  0
M  END
>  <MODEL>
6

>  <REMARK>
 VINA RESULT:      -5.4      3.457      9.970
  Name = 
  16 active torsions:
  status: ('A' for Active; 'I' for Inactive)
    1  A    between atoms: O_4  and  C_23
    2  A    between atoms: C_6  and  C_32
    3  A    between atoms: O_9  and  C_27
    4  A    between atoms: N_11  and  C_20
    5  A    between atoms: N_11  and  N_25
    6  A    between atoms: C_16  and  C_32
    7  A    between atoms: C_16  and  C_36
    8  A    between atoms: C_18  and  S_30
    9  A    between atoms: C_21  and  N_22
   10  A    between atoms: N_22  and  N_38
   11  A    between atoms: C_23  and  C_27
   12  A    between atoms: N_25  and  C_27
   13  A    between atoms: C_26  and  S_30
   14  A    between atoms: C_26  and  C_31
   15  A    between atoms: C_26  and  C_37
   16  A    between atoms: N_28  and  N_38
                            x       y       z     vdW  Elec       q    Type
                         _______ _______ _______ _____ _____    ______ ____

>  <TORSDO>
F 16

$$$$
=
 OpenBabel11072414593D

 39 41  0  0  1  0  0  0  0  0999 V2000
  159.8670  204.4110  150.4850 C   0  0  0  0  0  2  0  0  0  0  0  0
  162.0710  207.0170  152.0740 C   0  0  0  0  0  2  0  0  0  0  0  0
  161.9520  208.8540  148.8600 C   0  0  0  0  0  1  0  0  0  0  0  0
  162.4210  207.7280  149.7740 C   0  0  2  0  0  3  0  0  0  0  0  0
  160.5110  205.2460  151.6170 C   0  0  2  0  0  3  0  0  0  0  0  0
  161.7090  205.9490  151.1530 N   0  0  1  0  0  0  0  0  0  0  0  0
  160.8440  204.3980  152.6740 O   0  0  0  0  0  1  0  0  0  0  0  0
  161.3460  205.6290  148.7670 C   0  0  1  0  0  3  0  0  0  0  0  0
  161.3850  206.6390  149.9150 C   0  0  2  0  0  3  0  0  0  0  0  0
  160.7610  204.2820  149.2330 C   0  0  1  0  0  3  0  0  0  0  0  0
  162.6860  208.1330  151.2300 C   0  0  1  0  0  3  0  0  0  0  0  0
  160.3350  206.2710  147.4000 S   0  0  0  0  0  0  0  0  0  0  0  0
  161.1500  205.1890  146.1930 C   0  0  2  0  0  3  0  0  0  0  0  0
  163.4620  204.7200  146.0390 O   0  0  0  0  0  0  0  0  0  0  0  0
  162.5930  205.5730  146.0930 C   0  0  0  0  0  3  0  0  0  0  0  0
  161.4830  205.5050  143.7430 C   0  0  0  0  0  1  0  0  0  0  0  0
  160.4580  205.3350  144.8490 C   0  0  0  0  0  2  0  0  0  0  0  0
  162.1600  209.5090  151.6650 C   0  0  0  0  0  2  0  0  0  0  0  0
  160.7830  209.4410  152.3160 C   0  0  0  0  0  2  0  0  0  0  0  0
  160.5560  211.7540  152.8190 O   0  0  0  0  0  0  0  0  0  0  0  0
  160.6160  210.5760  153.2610 C   0  0  0  0  0  0  0  0  0  0  0  0
  160.4940  210.3190  154.6610 N   0  0  0  0  0  2  0  0  0  0  0  0
  160.2850  211.3550  155.5820 N   0  0  0  0  0  2  0  0  0  0  0  0
  159.0330  211.1360  156.1720 N   0  0  0  0  0  2  0  0  0  0  0  0
  154.5600  214.2240  154.8990 F   0  0  0  0  0  0  0  0  0  0  0  0
  156.8140  213.5970  154.4420 C   0  0  0  0  0  3  0  0  0  0  0  0
  157.8960  211.9320  155.8360 C   0  0  0  0  0  0  0  0  0  0  0  0
  156.7280  211.8160  156.5960 C   0  0  0  0  0  3  0  0  0  0  0  0
  155.6050  212.5870  156.2810 C   0  0  0  0  0  3  0  0  0  0  0  0
  155.6480  213.4780  155.2040 C   0  0  0  0  0  0  0  0  0  0  0  0
  157.9370  212.8260  154.7570 C   0  0  0  0  0  3  0  0  0  0  0  0
  161.8390  203.3420  149.4850 N   0  0  0  0  0  2  0  0  0  0  0  0
  162.0740  202.6670  148.2800 N   0  0  0  0  0  2  0  0  0  0  0  0
  161.3860  201.3900  148.3700 C   0  0  1  0  0  3  0  0  0  0  0  0
  160.8140  201.2600  149.6350 O   0  0  0  0  0  0  0  0  0  0  0  0
  159.4650  200.9980  149.3930 C   0  0  0  0  0  1  0  0  0  0  0  0
  160.2950  201.3180  147.3140 C   0  0  0  0  0  2  0  0  0  0  0  0
  160.8500  201.0090  146.0730 O   0  0  0  0  0  0  0  0  0  0  0  0
  159.9900  201.6000  145.1490 C   0  0  0  0  0  1  0  0  0  0  0  0
  1  5  1  0  0  0  0
  4  3  1  6  0  0  0
  4  9  1  0  0  0  0
  4 11  1  0  0  0  0
  5  7  1  1  0  0  0
  6  5  1  0  0  0  0
  6  2  1  1  0  0  0
  8 12  1  6  0  0  0
  8 10  1  0  0  0  0
  8  9  1  0  0  0  0
  9  6  1  0  0  0  0
 10 32  1  0  0  0  0
 10  1  1  0  0  0  0
 11 18  1  0  0  0  0
 11  2  1  0  0  0  0
 13 12  1  0  0  0  0
 14 15  2  0  0  0  0
 15 13  1  0  0  0  0
 16 17  1  0  0  0  0
 17 13  1  0  0  0  0
 18 19  1  0  0  0  0
 19 21  1  0  0  0  0
 20 21  2  0  0  0  0
 21 22  1  0  0  0  0
 22 23  1  0  0  0  0
 23 24  1  0  0  0  0
 25 30  1  0  0  0  0
 26 31  2  0  0  0  0
 26 30  1  0  0  0  0
 27 24  1  0  0  0  0
 27 28  2  0  0  0  0
 29 28  1  0  0  0  0
 30 29  2  0  0  0  0
 31 27  1  0  0  0  0
 33 34  1  0  0  0  0
 33 32  1  0  0  0  0
 34 35  1  0  0  0  0
 36 35  1  0  0  0  0
 37 34  1  0  0  0  0
 38 37  1  0  0  0  0
 39 38  1  0  0  0  0
M  END
>  <MODEL>
7

>  <REMARK>
 VINA RESULT:      -4.8      3.605     10.123
  Name = 
  16 active torsions:
  status: ('A' for Active; 'I' for Inactive)
    1  A    between atoms: O_4  and  C_23
    2  A    between atoms: C_6  and  C_32
    3  A    between atoms: O_9  and  C_27
    4  A    between atoms: N_11  and  C_20
    5  A    between atoms: N_11  and  N_25
    6  A    between atoms: C_16  and  C_32
    7  A    between atoms: C_16  and  C_36
    8  A    between atoms: C_18  and  S_30
    9  A    between atoms: C_21  and  N_22
   10  A    between atoms: N_22  and  N_38
   11  A    between atoms: C_23  and  C_27
   12  A    between atoms: N_25  and  C_27
   13  A    between atoms: C_26  and  S_30
   14  A    between atoms: C_26  and  C_31
   15  A    between atoms: C_26  and  C_37
   16  A    between atoms: N_28  and  N_38
                            x       y       z     vdW  Elec       q    Type
                         _______ _______ _______ _____ _____    ______ ____

>  <TORSDO>
F 16

$$$$
=
 OpenBabel11072414593D

 39 41  0  0  1  0  0  0  0  0999 V2000
  162.6460  206.7110  147.7250 C   0  0  0  0  0  2  0  0  0  0  0  0
  161.3010  207.6980  151.1000 C   0  0  0  0  0  2  0  0  0  0  0  0
  161.2190  204.0940  151.9490 C   0  0  0  0  0  1  0  0  0  0  0  0
  160.7050  205.3450  151.2450 C   0  0  2  0  0  3  0  0  0  0  0  0
  162.3840  207.6120  148.9540 C   0  0  2  0  0  3  0  0  0  0  0  0
  161.2830  207.0980  149.7730 N   0  0  1  0  0  0  0  0  0  0  0  0
  162.0790  208.9010  148.5160 O   0  0  0  0  0  1  0  0  0  0  0  0
  161.1590  204.8860  148.7640 C   0  0  1  0  0  3  0  0  0  0  0  0
  161.5170  205.6840  150.0190 C   0  0  2  0  0  3  0  0  0  0  0  0
  161.5420  205.6600  147.4870 C   0  0  1  0  0  3  0  0  0  0  0  0
  160.7790  206.6380  152.0680 C   0  0  1  0  0  3  0  0  0  0  0  0
  162.0240  203.2870  148.7680 S   0  0  0  0  0  0  0  0  0  0  0  0
  160.5150  202.3880  148.3130 C   0  0  2  0  0  3  0  0  0  0  0  0
  158.9330  201.0840  149.4900 O   0  0  0  0  0  0  0  0  0  0  0  0
  160.0250  201.6280  149.5050 C   0  0  0  0  0  3  0  0  0  0  0  0
  161.5850  200.2310  147.6670 C   0  0  0  0  0  1  0  0  0  0  0  0
  160.8280  201.4460  147.1630 C   0  0  0  0  0  2  0  0  0  0  0  0
  161.6300  206.5890  153.3460 C   0  0  0  0  0  2  0  0  0  0  0  0
  160.7920  206.5860  154.6190 C   0  0  0  0  0  2  0  0  0  0  0  0
  161.9550  208.1630  155.9670 O   0  0  0  0  0  0  0  0  0  0  0  0
  160.9150  207.8980  155.3060 C   0  0  0  0  0  0  0  0  0  0  0  0
  159.8660  208.8610  155.1880 N   0  0  0  0  0  2  0  0  0  0  0  0
  159.9630  210.1290  155.7780 N   0  0  0  0  0  2  0  0  0  0  0  0
  158.8220  210.8490  155.3970 N   0  0  0  0  0  2  0  0  0  0  0  0
  158.6630  213.9310  150.7450 F   0  0  0  0  0  0  0  0  0  0  0  0
  159.8140  212.3670  152.1280 C   0  0  0  0  0  3  0  0  0  0  0  0
  158.7940  211.6320  154.2040 C   0  0  0  0  0  0  0  0  0  0  0  0
  157.6890  212.4490  153.9440 C   0  0  0  0  0  3  0  0  0  0  0  0
  157.6440  213.2230  152.7800 C   0  0  0  0  0  3  0  0  0  0  0  0
  158.7070  213.1820  151.8720 C   0  0  0  0  0  0  0  0  0  0  0  0
  159.8590  211.5930  153.2920 C   0  0  0  0  0  3  0  0  0  0  0  0
  160.3610  206.2940  146.9280 N   0  0  0  0  0  2  0  0  0  0  0  0
  160.1040  205.6590  145.7060 N   0  0  0  0  0  2  0  0  0  0  0  0
  161.3010  204.9110  145.3580 C   0  0  1  0  0  3  0  0  0  0  0  0
  160.9390  203.6540  144.8780 O   0  0  0  0  0  0  0  0  0  0  0  0
  159.5930  203.7770  144.5330 C   0  0  0  0  0  1  0  0  0  0  0  0
  162.0800  205.6560  144.2850 C   0  0  0  0  0  2  0  0  0  0  0  0
  161.2010  206.2030  143.3500 O   0  0  0  0  0  0  0  0  0  0  0  0
  161.8450  206.0330  142.1260 C   0  0  0  0  0  1  0  0  0  0  0  0
  1  5  1  0  0  0  0
  2 11  1  0  0  0  0
  4  3  1  1  0  0  0
  4 11  1  0  0  0  0
  5  7  1  6  0  0  0
  5  6  1  0  0  0  0
  6  9  1  0  0  0  0
  6  2  1  1  0  0  0
  8 12  1  1  0  0  0
  8  9  1  0  0  0  0
  9  4  1  0  0  0  0
 10  1  1  0  0  0  0
 10  8  1  0  0  0  0
 11 18  1  0  0  0  0
 13 12  1  0  0  0  0
 13 15  1  0  0  0  0
 14 15  2  0  0  0  0
 17 16  1  0  0  0  0
 17 13  1  0  0  0  0
 18 19  1  0  0  0  0
 19 21  1  0  0  0  0
 21 20  2  0  0  0  0
 22 21  1  0  0  0  0
 22 23  1  0  0  0  0
 24 23  1  0  0  0  0
 25 30  1  0  0  0  0
 26 31  1  0  0  0  0
 27 24  1  0  0  0  0
 28 27  1  0  0  0  0
 29 28  2  0  0  0  0
 30 26  2  0  0  0  0
 30 29  1  0  0  0  0
 31 27  2  0  0  0  0
 32 10  1  0  0  0  0
 33 32  1  0  0  0  0
 34 33  1  0  0  0  0
 35 34  1  0  0  0  0
 36 35  1  0  0  0  0
 37 34  1  0  0  0  0
 38 37  1  0  0  0  0
 39 38  1  0  0  0  0
M  END
>  <MODEL>
8

>  <REMARK>
 VINA RESULT:      -4.8      3.538      9.891
  Name = 
  16 active torsions:
  status: ('A' for Active; 'I' for Inactive)
    1  A    between atoms: O_4  and  C_23
    2  A    between atoms: C_6  and  C_32
    3  A    between atoms: O_9  and  C_27
    4  A    between atoms: N_11  and  C_20
    5  A    between atoms: N_11  and  N_25
    6  A    between atoms: C_16  and  C_32
    7  A    between atoms: C_16  and  C_36
    8  A    between atoms: C_18  and  S_30
    9  A    between atoms: C_21  and  N_22
   10  A    between atoms: N_22  and  N_38
   11  A    between atoms: C_23  and  C_27
   12  A    between atoms: N_25  and  C_27
   13  A    between atoms: C_26  and  S_30
   14  A    between atoms: C_26  and  C_31
   15  A    between atoms: C_26  and  C_37
   16  A    between atoms: N_28  and  N_38
                            x       y       z     vdW  Elec       q    Type
                         _______ _______ _______ _____ _____    ______ ____

>  <TORSDO>
F 16

$$$$
=
 OpenBabel11072414593D

 39 41  0  0  1  0  0  0  0  0999 V2000
  162.7110  207.5630  149.0160 C   0  0  0  0  0  2  0  0  0  0  0  0
  161.1490  209.5650  151.7960 C   0  0  0  0  0  2  0  0  0  0  0  0
  161.3290  206.5130  153.8860 C   0  0  0  0  0  1  0  0  0  0  0  0
  160.7430  207.3760  152.7740 C   0  0  2  0  0  3  0  0  0  0  0  0
  162.3240  208.8170  149.8360 C   0  0  2  0  0  3  0  0  0  0  0  0
  161.2360  208.5300  150.7750 N   0  0  1  0  0  0  0  0  0  0  0  0
  161.9320  209.8300  148.9600 O   0  0  0  0  0  1  0  0  0  0  0  0
  161.3380  206.1020  150.6290 C   0  0  1  0  0  3  0  0  0  0  0  0
  161.5750  207.3260  151.5160 C   0  0  2  0  0  3  0  0  0  0  0  0
  161.7080  206.4000  149.1630 C   0  0  1  0  0  3  0  0  0  0  0  0
  160.6760  208.8780  153.0770 C   0  0  1  0  0  3  0  0  0  0  0  0
  162.3300  204.6980  151.2170 S   0  0  0  0  0  0  0  0  0  0  0  0
  160.9030  203.5790  151.1750 C   0  0  2  0  0  3  0  0  0  0  0  0
  159.7290  202.3640  152.8290 O   0  0  0  0  0  0  0  0  0  0  0  0
  160.4550  203.3110  152.5780 C   0  0  0  0  0  3  0  0  0  0  0  0
  160.1870  201.8050  149.5770 C   0  0  0  0  0  1  0  0  0  0  0  0
  161.3050  202.2890  150.4820 C   0  0  0  0  0  2  0  0  0  0  0  0
  161.4740  209.3690  154.2940 C   0  0  0  0  0  2  0  0  0  0  0  0
  161.4030  210.8800  154.4820 C   0  0  0  0  0  2  0  0  0  0  0  0
  159.7220  210.2890  156.0580 O   0  0  0  0  0  0  0  0  0  0  0  0
  160.3560  211.2140  155.4830 C   0  0  0  0  0  0  0  0  0  0  0  0
  160.0960  212.5810  155.8070 N   0  0  0  0  0  2  0  0  0  0  0  0
  159.1530  212.9390  156.7800 N   0  0  0  0  0  2  0  0  0  0  0  0
  157.9470  213.1930  156.1110 N   0  0  0  0  0  2  0  0  0  0  0  0
  153.7440  209.5190  156.1230 F   0  0  0  0  0  0  0  0  0  0  0  0
  154.9990  211.2000  157.2550 C   0  0  0  0  0  3  0  0  0  0  0  0
  156.8690  212.2570  156.1270 C   0  0  0  0  0  0  0  0  0  0  0  0
  156.6300  211.4660  154.9990 C   0  0  0  0  0  3  0  0  0  0  0  0
  155.5780  210.5440  154.9970 C   0  0  0  0  0  3  0  0  0  0  0  0
  154.7630  210.4110  156.1250 C   0  0  0  0  0  0  0  0  0  0  0  0
  156.0500  212.1210  157.2580 C   0  0  0  0  0  3  0  0  0  0  0  0
  160.5040  206.6800  148.4020 N   0  0  0  0  0  2  0  0  0  0  0  0
  160.9180  207.0670  147.1210 N   0  0  0  0  0  2  0  0  0  0  0  0
  160.8280  205.8880  146.2740 C   0  0  1  0  0  3  0  0  0  0  0  0
  160.1460  206.2110  145.1010 O   0  0  0  0  0  0  0  0  0  0  0  0
  160.8410  205.5480  144.0900 C   0  0  0  0  0  1  0  0  0  0  0  0
  162.2240  205.3960  145.9270 C   0  0  0  0  0  2  0  0  0  0  0  0
  162.2290  204.0050  145.8280 O   0  0  0  0  0  0  0  0  0  0  0  0
  161.7960  203.5650  147.0780 C   0  0  0  0  0  1  0  0  0  0  0  0
  1 10  1  0  0  0  0
  1  5  1  0  0  0  0
  2 11  1  0  0  0  0
  4 11  1  0  0  0  0
  4  3  1  1  0  0  0
  5  7  1  6  0  0  0
  5  6  1  0  0  0  0
  6  9  1  0  0  0  0
  6  2  1  1  0  0  0
  8 12  1  1  0  0  0
  8  9  1  0  0  0  0
  9  4  1  0  0  0  0
 10  8  1  0  0  0  0
 11 18  1  0  0  0  0
 13 12  1  0  0  0  0
 13 15  1  0  0  0  0
 15 14  2  0  0  0  0
 16 17  1  0  0  0  0
 17 13  1  0  0  0  0
 18 19  1  0  0  0  0
 19 21  1  0  0  0  0
 21 22  1  0  0  0  0
 21 20  2  0  0  0  0
 22 23  1  0  0  0  0
 24 27  1  0  0  0  0
 24 23  1  0  0  0  0
 25 30  1  0  0  0  0
 26 31  1  0  0  0  0
 27 31  2  0  0  0  0
 28 27  1  0  0  0  0
 29 28  2  0  0  0  0
 29 30  1  0  0  0  0
 30 26  2  0  0  0  0
 32 10  1  0  0  0  0
 33 32  1  0  0  0  0
 34 33  1  0  0  0  0
 35 34  1  0  0  0  0
 36 35  1  0  0  0  0
 37 34  1  0  0  0  0
 38 37  1  0  0  0  0
 38 39  1  0  0  0  0
M  END
>  <MODEL>
9

>  <REMARK>
 VINA RESULT:      -4.7      3.624     10.259
  Name = 
  16 active torsions:
  status: ('A' for Active; 'I' for Inactive)
    1  A    between atoms: O_4  and  C_23
    2  A    between atoms: C_6  and  C_32
    3  A    between atoms: O_9  and  C_27
    4  A    between atoms: N_11  and  C_20
    5  A    between atoms: N_11  and  N_25
    6  A    between atoms: C_16  and  C_32
    7  A    between atoms: C_16  and  C_36
    8  A    between atoms: C_18  and  S_30
    9  A    between atoms: C_21  and  N_22
   10  A    between atoms: N_22  and  N_38
   11  A    between atoms: C_23  and  C_27
   12  A    between atoms: N_25  and  C_27
   13  A    between atoms: C_26  and  S_30
   14  A    between atoms: C_26  and  C_31
   15  A    between atoms: C_26  and  C_37
   16  A    between atoms: N_28  and  N_38
                            x       y       z     vdW  Elec       q    Type
                         _______ _______ _______ _____ _____    ______ ____

>  <TORSDO>
F 16

$$$$
