=
 OpenBabel11072414513D

 47 49  0  0  1  0  0  0  0  0999 V2000
  162.9090  206.2730  147.5220 C   0  0  0  0  0  2  0  0  0  0  0  0
  161.6270  209.4880  150.6560 C   0  0  0  0  0  0  0  0  0  0  0  0
  160.9340  208.2510  151.0800 C   0  0  1  0  0  3  0  0  0  0  0  0
  160.7390  205.9870  149.8080 C   0  0  0  0  0  2  0  0  0  0  0  0
  162.1560  209.4340  149.3450 N   0  0  0  0  0  2  0  0  0  0  0  0
  163.0960  207.3190  148.6110 C   0  0  0  0  0  2  0  0  0  0  0  0
  161.8270  208.1480  148.7620 C   0  0  1  0  0  3  0  0  0  0  0  0
  160.7560  205.3470  148.4300 C   0  0  0  0  0  2  0  0  0  0  0  0
  162.1950  205.0220  148.0360 C   0  0  1  0  0  3  0  0  0  0  0  0
  160.8030  207.5160  149.7330 C   0  0  2  0  0  3  0  0  0  0  0  0
  161.7530  210.5020  151.3890 O   0  0  0  0  0  0  0  0  0  0  0  0
  162.2310  203.9340  146.9570 C   0  0  2  0  0  3  0  0  0  0  0  0
  162.6460  204.4690  145.6630 N   0  0  0  0  0  2  0  0  0  0  0  0
  161.0000  205.7200  144.0660 C   0  0  0  0  0  3  0  0  0  0  0  0
  161.7580  205.1420  144.8050 C   0  0  0  0  0  0  0  0  0  0  0  0
  160.9210  203.3030  146.8270 N   0  0  0  0  0  2  0  0  0  0  0  0
  161.1370  201.9030  146.4780 C   0  0  1  0  0  3  0  0  0  0  0  0
  160.8340  201.6980  149.9880 C   0  0  0  0  0  2  0  0  0  0  0  0
  161.8130  201.5450  148.8710 C   0  0  0  0  0  2  0  0  0  0  0  0
  159.6340  200.9470  148.1040 O   0  0  0  0  0  0  0  0  0  0  0  0
  161.4560  199.5740  147.4190 C   0  0  0  0  0  1  0  0  0  0  0  0
  159.5120  201.7190  149.2730 C   0  0  0  0  0  2  0  0  0  0  0  0
  160.9900  200.9940  147.7160 C   0  0  1  0  0  0  0  0  0  0  0  0
  160.2580  201.5030  145.3190 C   0  0  0  0  0  3  0  0  0  0  0  0
  159.6240  202.3370  144.6910 O   0  0  0  0  0  0  0  0  0  0  0  0
  161.8340  207.5330  152.0890 C   0  0  0  0  0  2  0  0  0  0  0  0
  161.1520  207.2960  153.4330 C   0  0  0  0  0  2  0  0  0  0  0  0
  161.5100  208.3660  154.4500 C   0  0  0  0  0  2  0  0  0  0  0  0
  160.5520  209.5310  154.3260 C   0  0  0  0  0  2  0  0  0  0  0  0
  161.2900  210.7800  154.3780 N   0  0  0  0  0  2  0  0  0  0  0  0
  160.3150  211.8580  154.4840 C   0  0  2  0  0  3  0  0  0  0  0  0
  160.0170  211.3220  156.7920 O   0  0  0  0  0  0  0  0  0  0  0  0
  159.4810  211.6640  155.7040 C   0  0  0  0  0  0  0  0  0  0  0  0
  157.2550  210.9720  156.0170 N   0  0  0  0  0  0  0  0  0  0  0  0
  158.0700  211.8670  155.6250 N   0  0  0  0  0  0  0  0  0  0  0  0
  155.8420  211.1640  155.9410 C   0  0  0  0  0  0  0  0  0  0  0  0
  155.3360  212.2360  156.3630 O   0  0  0  0  0  0  0  0  0  0  0  0
  154.9520  210.1080  155.3770 C   0  0  0  0  0  1  0  0  0  0  0  0
  159.4260  211.8940  153.2470 C   0  0  0  0  0  2  0  0  0  0  0  0
  159.3190  213.2550  152.7500 N   0  0  0  0  0  2  0  0  0  0  0  0
  160.0350  213.3140  151.4860 C   0  0  0  0  0  2  0  0  0  0  0  0
  159.0580  213.3650  150.3160 C   0  0  2  0  0  3  0  0  0  0  0  0
  159.2630  214.4060  148.0610 O   0  0  0  0  0  0  0  0  0  0  0  0
  160.8730  212.9590  148.8050 O   0  0  0  0  0  1  0  0  0  0  0  0
  159.7890  213.5610  149.0250 C   0  0  0  0  0  0  0  0  0  0  0  0
  156.7770  213.9000  150.3530 C   0  0  0  0  0  1  0  0  0  0  0  0
  158.1140  214.4530  150.5220 N   0  0  0  0  0  2  0  0  0  0  0  0
  1  9  1  0  0  0  0
  1  6  1  0  0  0  0
  2  3  1  0  0  0  0
  2 11  2  0  0  0  0
  3 26  1  1  0  0  0
  5  2  1  0  0  0  0
  7  6  1  1  0  0  0
  7  5  1  0  0  0  0
  7 10  1  0  0  0  0
  8  4  1  0  0  0  0
  9 12  1  6  0  0  0
  9  8  1  0  0  0  0
 10  4  1  1  0  0  0
 10  3  1  0  0  0  0
 12 13  1  6  0  0  0
 14 15  3  0  0  0  0
 15 13  1  0  0  0  0
 16 12  1  0  0  0  0
 17 24  1  6  0  0  0
 17 16  1  0  0  0  0
 17 23  1  0  0  0  0
 19 18  1  0  0  0  0
 20 22  1  0  0  0  0
 22 18  1  0  0  0  0
 23 21  1  6  0  0  0
 23 20  1  0  0  0  0
 23 19  1  0  0  0  0
 25 24  2  0  0  0  0
 26 27  1  0  0  0  0
 27 28  1  0  0  0  0
 29 30  1  0  0  0  0
 29 28  1  0  0  0  0
 30 31  1  0  0  0  0
 31 39  1  6  0  0  0
 31 33  1  0  0  0  0
 33 32  2  0  0  0  0
 35 33  1  0  0  0  0
 35 34  2  0  0  0  0
 36 34  1  0  0  0  0
 36 37  2  0  0  0  0
 38 36  1  0  0  0  0
 40 39  1  0  0  0  0
 41 40  1  0  0  0  0
 42 47  1  0  0  0  0
 42 41  1  1  0  0  0
 43 45  2  0  0  0  0
 44 45  1  0  0  0  0
 45 42  1  0  0  0  0
 46 47  1  0  0  0  0
M  END
>  <MODEL>
1

>  <REMARK>
 VINA RESULT:      -4.9      0.000      0.000
  Name = 
  22 active torsions:
  status: ('A' for Active; 'I' for Inactive)
    1  A    between atoms: C_1  and  CA_19
    2  A    between atoms: C_1  and  N_27
    3  A    between atoms: C_3  and  N_28
    4  A    between atoms: C_3  and  C_39
    5  A    between atoms: CA_4  and  N_11
    6  A    between atoms: CA_4  and  C_22
    7  A    between atoms: CA_4  and  C_41
    8  A    between atoms: C_7  and  C_10
    9  A    between atoms: C_7  and  C_12
   10  A    between atoms: C_10  and  C_39
   11  A    between atoms: N_11  and  C_14
   12  A    between atoms: N_13  and  C_14
   13  A    between atoms: N_13  and  C_42
   14  A    between atoms: C_14  and  C_40
   15  A    between atoms: CA_19  and  C_37
   16  A    between atoms: CA_19  and  N_47
   17  A    between atoms: C_20  and  C_24
   18  A    between atoms: C_20  and  N_43
   19  A    between atoms: C_21  and  N_23
   20  A    between atoms: C_24  and  N_28
   21  A    between atoms: C_24  and  C_32
   22  A    between atoms: N_27  and  C_32
                            x       y       z     vdW  Elec       q    Type
                         _______ _______ _______ _____ _____    ______ ____

>  <TORSDO>
F 22

$$$$
=
 OpenBabel11072414513D

 47 49  0  0  1  0  0  0  0  0999 V2000
  160.8790  205.8290  150.4080 C   0  0  0  0  0  2  0  0  0  0  0  0
  160.8220  206.7690  154.9810 C   0  0  0  0  0  0  0  0  0  0  0  0
  161.3460  208.0000  154.3500 C   0  0  1  0  0  3  0  0  0  0  0  0
  162.0630  208.3720  151.8730 C   0  0  0  0  0  2  0  0  0  0  0  0
  160.8150  205.6400  154.1280 N   0  0  0  0  0  2  0  0  0  0  0  0
  160.2740  206.0150  151.7910 C   0  0  0  0  0  2  0  0  0  0  0  0
  161.3740  206.0210  152.8460 C   0  0  1  0  0  3  0  0  0  0  0  0
  162.5730  207.6730  150.6240 C   0  0  0  0  0  2  0  0  0  0  0  0
  161.3900  207.1430  149.8170 C   0  0  1  0  0  3  0  0  0  0  0  0
  161.9860  207.4220  153.0740 C   0  0  2  0  0  3  0  0  0  0  0  0
  160.4060  206.7170  156.1670 O   0  0  0  0  0  0  0  0  0  0  0  0
  161.7860  206.9250  148.3520 C   0  0  2  0  0  3  0  0  0  0  0  0
  161.7990  208.1780  147.6030 N   0  0  0  0  0  2  0  0  0  0  0  0
  161.9500  210.5110  148.7690 C   0  0  0  0  0  3  0  0  0  0  0  0
  161.8790  209.4320  148.2330 C   0  0  0  0  0  0  0  0  0  0  0  0
  160.8710  205.9820  147.7140 N   0  0  0  0  0  2  0  0  0  0  0  0
  161.4630  205.5850  146.4410 C   0  0  1  0  0  3  0  0  0  0  0  0
  161.1270  202.1800  147.3070 C   0  0  0  0  0  2  0  0  0  0  0  0
  161.6600  203.4840  147.8040 C   0  0  0  0  0  2  0  0  0  0  0  0
  161.8000  203.4240  145.4230 O   0  0  0  0  0  0  0  0  0  0  0  0
  163.6560  204.3290  146.6110 C   0  0  0  0  0  1  0  0  0  0  0  0
  160.8750  202.4550  145.8510 C   0  0  0  0  0  2  0  0  0  0  0  0
  162.1380  204.2020  146.5520 C   0  0  1  0  0  0  0  0  0  0  0  0
  160.4480  205.6810  145.3290 C   0  0  0  0  0  3  0  0  0  0  0  0
  159.6700  206.6210  145.2660 O   0  0  0  0  0  0  0  0  0  0  0  0
  160.1600  208.9290  154.0790 C   0  0  0  0  0  2  0  0  0  0  0  0
  160.1460  210.1580  154.9830 C   0  0  0  0  0  2  0  0  0  0  0  0
  160.6340  211.4010  154.2600 C   0  0  0  0  0  2  0  0  0  0  0  0
  159.4500  212.2010  153.7610 C   0  0  0  0  0  2  0  0  0  0  0  0
  159.3730  212.1110  152.3130 N   0  0  0  0  0  2  0  0  0  0  0  0
  158.1870  212.8450  151.8940 C   0  0  2  0  0  3  0  0  0  0  0  0
  159.5270  214.3810  150.6480 O   0  0  0  0  0  0  0  0  0  0  0  0
  158.4980  213.6530  150.6800 C   0  0  0  0  0  0  0  0  0  0  0  0
  158.0680  213.6040  148.3690 N   0  0  0  0  0  0  0  0  0  0  0  0
  157.6170  213.5960  149.5580 N   0  0  0  0  0  0  0  0  0  0  0  0
  157.1970  213.5480  147.2380 C   0  0  0  0  0  0  0  0  0  0  0  0
  156.2550  214.3770  147.1370 O   0  0  0  0  0  0  0  0  0  0  0  0
  157.3800  212.5170  146.1760 C   0  0  0  0  0  1  0  0  0  0  0  0
  157.7010  213.7570  153.0140 C   0  0  0  0  0  2  0  0  0  0  0  0
  156.3070  214.1060  152.8040 N   0  0  0  0  0  2  0  0  0  0  0  0
  155.5650  213.6540  153.9690 C   0  0  0  0  0  2  0  0  0  0  0  0
  156.4850  213.5340  155.1800 C   0  0  2  0  0  3  0  0  0  0  0  0
  155.7260  211.1620  155.0730 O   0  0  0  0  0  0  0  0  0  0  0  0
  157.1670  211.8310  156.7220 O   0  0  0  0  0  1  0  0  0  0  0  0
  156.4860  212.1330  155.7060 C   0  0  0  0  0  0  0  0  0  0  0  0
  154.6060  214.2640  156.3750 C   0  0  0  0  0  1  0  0  0  0  0  0
  156.0420  214.4530  156.2170 N   0  0  0  0  0  2  0  0  0  0  0  0
  1  6  1  0  0  0  0
  2 11  2  0  0  0  0
  3 26  1  6  0  0  0
  3  2  1  0  0  0  0
  5  2  1  0  0  0  0
  7  6  1  6  0  0  0
  7 10  1  0  0  0  0
  7  5  1  0  0  0  0
  8  4  1  0  0  0  0
  9 12  1  6  0  0  0
  9  1  1  0  0  0  0
  9  8  1  0  0  0  0
 10  4  1  6  0  0  0
 10  3  1  0  0  0  0
 12 13  1  6  0  0  0
 13 15  1  0  0  0  0
 15 14  3  0  0  0  0
 16 12  1  0  0  0  0
 17 24  1  6  0  0  0
 17 23  1  0  0  0  0
 17 16  1  0  0  0  0
 18 19  1  0  0  0  0
 20 22  1  0  0  0  0
 20 23  1  0  0  0  0
 22 18  1  0  0  0  0
 23 21  1  1  0  0  0
 23 19  1  0  0  0  0
 25 24  2  0  0  0  0
 26 27  1  0  0  0  0
 28 27  1  0  0  0  0
 29 28  1  0  0  0  0
 30 29  1  0  0  0  0
 31 30  1  0  0  0  0
 31 39  1  1  0  0  0
 32 33  2  0  0  0  0
 33 31  1  0  0  0  0
 34 35  2  0  0  0  0
 35 33  1  0  0  0  0
 36 34  1  0  0  0  0
 37 36  2  0  0  0  0
 38 36  1  0  0  0  0
 40 39  1  0  0  0  0
 40 41  1  0  0  0  0
 42 41  1  6  0  0  0
 42 45  1  0  0  0  0
 42 47  1  0  0  0  0
 43 45  2  0  0  0  0
 45 44  1  0  0  0  0
 47 46  1  0  0  0  0
M  END
>  <MODEL>
2

>  <REMARK>
 VINA RESULT:      -4.8      2.251      5.334
  Name = 
  22 active torsions:
  status: ('A' for Active; 'I' for Inactive)
    1  A    between atoms: C_1  and  CA_19
    2  A    between atoms: C_1  and  N_27
    3  A    between atoms: C_3  and  N_28
    4  A    between atoms: C_3  and  C_39
    5  A    between atoms: CA_4  and  N_11
    6  A    between atoms: CA_4  and  C_22
    7  A    between atoms: CA_4  and  C_41
    8  A    between atoms: C_7  and  C_10
    9  A    between atoms: C_7  and  C_12
   10  A    between atoms: C_10  and  C_39
   11  A    between atoms: N_11  and  C_14
   12  A    between atoms: N_13  and  C_14
   13  A    between atoms: N_13  and  C_42
   14  A    between atoms: C_14  and  C_40
   15  A    between atoms: CA_19  and  C_37
   16  A    between atoms: CA_19  and  N_47
   17  A    between atoms: C_20  and  C_24
   18  A    between atoms: C_20  and  N_43
   19  A    between atoms: C_21  and  N_23
   20  A    between atoms: C_24  and  N_28
   21  A    between atoms: C_24  and  C_32
   22  A    between atoms: N_27  and  C_32
                            x       y       z     vdW  Elec       q    Type
                         _______ _______ _______ _____ _____    ______ ____

>  <TORSDO>
F 22

$$$$
=
 OpenBabel11072414513D

 47 49  0  0  1  0  0  0  0  0999 V2000
  161.9570  206.2130  152.9500 C   0  0  0  0  0  2  0  0  0  0  0  0
  161.2300  205.0310  148.4920 C   0  0  0  0  0  0  0  0  0  0  0  0
  161.0090  206.4940  148.5350 C   0  0  1  0  0  3  0  0  0  0  0  0
  160.8550  208.0480  150.6190 C   0  0  0  0  0  2  0  0  0  0  0  0
  161.2560  204.4130  149.7640 N   0  0  0  0  0  2  0  0  0  0  0  0
  162.2940  205.6460  151.5790 C   0  0  0  0  0  2  0  0  0  0  0  0
  161.0180  205.4220  150.7780 C   0  0  1  0  0  3  0  0  0  0  0  0
  160.5140  208.0870  152.0990 C   0  0  0  0  0  2  0  0  0  0  0  0
  161.7520  207.7280  152.9170 C   0  0  1  0  0  3  0  0  0  0  0  0
  160.5650  206.6770  149.9980 C   0  0  2  0  0  3  0  0  0  0  0  0
  161.3920  204.3820  147.4270 O   0  0  0  0  0  0  0  0  0  0  0  0
  161.6300  208.2570  154.3510 C   0  0  2  0  0  3  0  0  0  0  0  0
  161.4860  207.1730  155.3180 N   0  0  0  0  0  2  0  0  0  0  0  0
  159.7390  207.2430  157.2590 C   0  0  0  0  0  3  0  0  0  0  0  0
  160.5460  207.2130  156.3630 C   0  0  0  0  0  0  0  0  0  0  0  0
  160.4910  209.1650  154.4620 N   0  0  0  0  0  2  0  0  0  0  0  0
  161.0050  210.5290  154.4140 C   0  0  1  0  0  3  0  0  0  0  0  0
  157.7750  211.8490  154.9460 C   0  0  0  0  0  2  0  0  0  0  0  0
  158.5380  210.8860  154.0960 C   0  0  0  0  0  2  0  0  0  0  0  0
  159.9700  212.6820  154.7420 O   0  0  0  0  0  0  0  0  0  0  0  0
  160.1140  211.9160  152.4910 C   0  0  0  0  0  1  0  0  0  0  0  0
  158.8640  212.6440  155.6100 C   0  0  0  0  0  2  0  0  0  0  0  0
  159.9150  211.5170  153.9480 C   0  0  1  0  0  0  0  0  0  0  0  0
  161.6470  210.9020  155.7270 C   0  0  0  0  0  3  0  0  0  0  0  0
  160.9950  210.9370  156.7590 O   0  0  0  0  0  0  0  0  0  0  0  0
  162.3390  207.1770  148.2040 C   0  0  0  0  0  2  0  0  0  0  0  0
  162.4910  208.5410  148.8690 C   0  0  0  0  0  2  0  0  0  0  0  0
  161.9250  209.6590  148.0100 C   0  0  0  0  0  2  0  0  0  0  0  0
  162.0870  210.9840  148.7240 C   0  0  0  0  0  2  0  0  0  0  0  0
  161.5250  212.0490  147.9120 N   0  0  0  0  0  2  0  0  0  0  0  0
  161.9030  213.3130  148.5300 C   0  0  2  0  0  3  0  0  0  0  0  0
  160.7750  214.4530  150.3000 O   0  0  0  0  0  0  0  0  0  0  0  0
  160.7050  213.9500  149.1470 C   0  0  0  0  0  0  0  0  0  0  0  0
  158.4130  213.4830  148.9050 N   0  0  0  0  0  0  0  0  0  0  0  0
  159.4780  213.9810  148.4180 N   0  0  0  0  0  0  0  0  0  0  0  0
  157.1790  213.5070  148.1850 C   0  0  0  0  0  0  0  0  0  0  0  0
  156.1060  213.7490  148.7970 O   0  0  0  0  0  0  0  0  0  0  0  0
  157.1400  213.2420  146.7180 C   0  0  0  0  0  1  0  0  0  0  0  0
  162.5150  214.2500  147.4960 C   0  0  0  0  0  2  0  0  0  0  0  0
  162.8290  213.5160  146.2820 N   0  0  0  0  0  2  0  0  0  0  0  0
  162.1510  214.1830  145.1830 C   0  0  0  0  0  2  0  0  0  0  0  0
  161.8040  213.1860  144.0820 C   0  0  2  0  0  3  0  0  0  0  0  0
  162.3790  212.7590  141.6940 O   0  0  0  0  0  0  0  0  0  0  0  0
  163.7200  214.1040  142.9720 O   0  0  0  0  0  1  0  0  0  0  0  0
  162.6900  213.3830  142.8920 C   0  0  0  0  0  0  0  0  0  0  0  0
  159.7040  212.1450  144.0890 C   0  0  0  0  0  1  0  0  0  0  0  0
  160.4110  213.3570  143.6960 N   0  0  0  0  0  2  0  0  0  0  0  0
  2  3  1  0  0  0  0
  2  5  1  0  0  0  0
  3 26  1  1  0  0  0
  3 10  1  0  0  0  0
  4  8  1  0  0  0  0
  5  7  1  0  0  0  0
  6  1  1  0  0  0  0
  7  6  1  6  0  0  0
  8  9  1  0  0  0  0
  9  1  1  0  0  0  0
  9 12  1  1  0  0  0
 10  4  1  1  0  0  0
 10  7  1  0  0  0  0
 11  2  2  0  0  0  0
 12 16  1  6  0  0  0
 12 13  1  0  0  0  0
 13 15  1  0  0  0  0
 15 14  3  0  0  0  0
 17 16  1  0  0  0  0
 17 24  1  1  0  0  0
 18 22  1  0  0  0  0
 19 18  1  0  0  0  0
 20 22  1  0  0  0  0
 23 21  1  6  0  0  0
 23 19  1  0  0  0  0
 23 17  1  0  0  0  0
 23 20  1  0  0  0  0
 24 25  2  0  0  0  0
 26 27  1  0  0  0  0
 28 29  1  0  0  0  0
 28 27  1  0  0  0  0
 30 31  1  0  0  0  0
 30 29  1  0  0  0  0
 31 39  1  6  0  0  0
 31 33  1  0  0  0  0
 33 32  2  0  0  0  0
 35 34  2  0  0  0  0
 35 33  1  0  0  0  0
 36 37  2  0  0  0  0
 36 34  1  0  0  0  0
 38 36  1  0  0  0  0
 40 39  1  0  0  0  0
 41 40  1  0  0  0  0
 42 41  1  1  0  0  0
 43 45  2  0  0  0  0
 45 44  1  0  0  0  0
 45 42  1  0  0  0  0
 47 42  1  0  0  0  0
 47 46  1  0  0  0  0
M  END
>  <MODEL>
3

>  <REMARK>
 VINA RESULT:      -4.6      3.154      8.484
  Name = 
  22 active torsions:
  status: ('A' for Active; 'I' for Inactive)
    1  A    between atoms: C_1  and  CA_19
    2  A    between atoms: C_1  and  N_27
    3  A    between atoms: C_3  and  N_28
    4  A    between atoms: C_3  and  C_39
    5  A    between atoms: CA_4  and  N_11
    6  A    between atoms: CA_4  and  C_22
    7  A    between atoms: CA_4  and  C_41
    8  A    between atoms: C_7  and  C_10
    9  A    between atoms: C_7  and  C_12
   10  A    between atoms: C_10  and  C_39
   11  A    between atoms: N_11  and  C_14
   12  A    between atoms: N_13  and  C_14
   13  A    between atoms: N_13  and  C_42
   14  A    between atoms: C_14  and  C_40
   15  A    between atoms: CA_19  and  C_37
   16  A    between atoms: CA_19  and  N_47
   17  A    between atoms: C_20  and  C_24
   18  A    between atoms: C_20  and  N_43
   19  A    between atoms: C_21  and  N_23
   20  A    between atoms: C_24  and  N_28
   21  A    between atoms: C_24  and  C_32
   22  A    between atoms: N_27  and  C_32
                            x       y       z     vdW  Elec       q    Type
                         _______ _______ _______ _____ _____    ______ ____

>  <TORSDO>
F 22

$$$$
=
 OpenBabel11072414513D

 47 49  0  0  1  0  0  0  0  0999 V2000
  157.5150  213.6540  149.7110 C   0  0  0  0  0  2  0  0  0  0  0  0
  160.4590  213.6900  146.0870 C   0  0  0  0  0  0  0  0  0  0  0  0
  161.2900  213.2910  147.2440 C   0  0  1  0  0  3  0  0  0  0  0  0
  160.6590  213.2950  149.7710 C   0  0  0  0  0  2  0  0  0  0  0  0
  159.2010  214.2330  146.4390 N   0  0  0  0  0  2  0  0  0  0  0  0
  158.0630  213.2570  148.3490 C   0  0  0  0  0  2  0  0  0  0  0  0
  159.0980  214.2730  147.8850 C   0  0  1  0  0  3  0  0  0  0  0  0
  159.7570  213.9390  150.8110 C   0  0  0  0  0  2  0  0  0  0  0  0
  158.4210  213.2010  150.8560 C   0  0  1  0  0  3  0  0  0  0  0  0
  160.5240  213.9630  148.3980 C   0  0  2  0  0  3  0  0  0  0  0  0
  160.8200  213.5560  144.8900 O   0  0  0  0  0  0  0  0  0  0  0  0
  157.7130  213.4410  152.1940 C   0  0  2  0  0  3  0  0  0  0  0  0
  156.6430  214.4270  152.0710 N   0  0  0  0  0  2  0  0  0  0  0  0
  154.3960  214.2240  153.3870 C   0  0  0  0  0  3  0  0  0  0  0  0
  155.4320  214.3180  152.7770 C   0  0  0  0  0  0  0  0  0  0  0  0
  158.6700  213.8820  153.2040 N   0  0  0  0  0  2  0  0  0  0  0  0
  158.9600  212.7420  154.0670 C   0  0  1  0  0  3  0  0  0  0  0  0
  156.4500  213.2300  156.5000 C   0  0  0  0  0  2  0  0  0  0  0  0
  157.4030  213.9640  155.6150 C   0  0  0  0  0  2  0  0  0  0  0  0
  158.3480  211.8600  156.2270 O   0  0  0  0  0  0  0  0  0  0  0  0
  159.7890  213.7570  156.2340 C   0  0  0  0  0  1  0  0  0  0  0  0
  156.9580  211.8170  156.4390 C   0  0  0  0  0  2  0  0  0  0  0  0
  158.6250  213.0610  155.5390 C   0  0  1  0  0  0  0  0  0  0  0  0
  158.2890  211.4960  153.5450 C   0  0  0  0  0  3  0  0  0  0  0  0
  158.9360  210.6120  153.0030 O   0  0  0  0  0  0  0  0  0  0  0  0
  161.2920  211.7610  147.3130 C   0  0  0  0  0  2  0  0  0  0  0  0
  161.9030  211.2230  148.6030 C   0  0  0  0  0  2  0  0  0  0  0  0
  161.2680  209.9100  149.0270 C   0  0  0  0  0  2  0  0  0  0  0  0
  162.2880  209.0610  149.7550 C   0  0  0  0  0  2  0  0  0  0  0  0
  162.2480  207.7020  149.2440 N   0  0  0  0  0  2  0  0  0  0  0  0
  161.0560  207.0660  149.7900 C   0  0  2  0  0  3  0  0  0  0  0  0
  161.4860  206.8480  152.1300 O   0  0  0  0  0  0  0  0  0  0  0  0
  161.4160  206.2820  151.0060 C   0  0  0  0  0  0  0  0  0  0  0  0
  160.8650  204.0190  151.3260 N   0  0  0  0  0  0  0  0  0  0  0  0
  161.6830  204.8850  150.8820 N   0  0  0  0  0  0  0  0  0  0  0  0
  161.1210  202.6180  151.2090 C   0  0  0  0  0  0  0  0  0  0  0  0
  162.1100  202.1150  151.8040 O   0  0  0  0  0  0  0  0  0  0  0  0
  160.2400  201.7410  150.3860 C   0  0  0  0  0  1  0  0  0  0  0  0
  160.4180  206.1510  148.7520 C   0  0  0  0  0  2  0  0  0  0  0  0
  161.3140  205.9770  147.6230 N   0  0  0  0  0  2  0  0  0  0  0  0
  161.7970  204.6070  147.6580 C   0  0  0  0  0  2  0  0  0  0  0  0
  162.0910  204.1040  146.2480 C   0  0  2  0  0  3  0  0  0  0  0  0
  160.4270  205.1790  144.7350 O   0  0  0  0  0  0  0  0  0  0  0  0
  162.5760  205.9640  144.8160 O   0  0  0  0  0  1  0  0  0  0  0  0
  161.7210  205.1370  145.2310 C   0  0  0  0  0  0  0  0  0  0  0  0
  160.9210  202.3700  147.3030 C   0  0  0  0  0  1  0  0  0  0  0  0
  161.3450  202.8790  146.0060 N   0  0  0  0  0  2  0  0  0  0  0  0
  1  9  1  0  0  0  0
  2  5  1  0  0  0  0
  2  3  1  0  0  0  0
  3 26  1  1  0  0  0
  3 10  1  0  0  0  0
  4  8  1  0  0  0  0
  5  7  1  0  0  0  0
  6  1  1  0  0  0  0
  7  6  1  1  0  0  0
  7 10  1  0  0  0  0
  8  9  1  0  0  0  0
  9 12  1  1  0  0  0
 10  4  1  1  0  0  0
 11  2  2  0  0  0  0
 12 13  1  6  0  0  0
 12 16  1  0  0  0  0
 13 15  1  0  0  0  0
 15 14  3  0  0  0  0
 16 17  1  0  0  0  0
 17 24  1  6  0  0  0
 17 23  1  0  0  0  0
 19 18  1  0  0  0  0
 20 22  1  0  0  0  0
 22 18  1  0  0  0  0
 23 19  1  0  0  0  0
 23 20  1  0  0  0  0
 23 21  1  1  0  0  0
 25 24  2  0  0  0  0
 26 27  1  0  0  0  0
 27 28  1  0  0  0  0
 28 29  1  0  0  0  0
 30 29  1  0  0  0  0
 30 31  1  0  0  0  0
 31 39  1  6  0  0  0
 31 33  1  0  0  0  0
 33 32  2  0  0  0  0
 35 33  1  0  0  0  0
 35 34  2  0  0  0  0
 36 34  1  0  0  0  0
 36 37  2  0  0  0  0
 38 36  1  0  0  0  0
 40 41  1  0  0  0  0
 40 39  1  0  0  0  0
 42 41  1  1  0  0  0
 43 45  2  0  0  0  0
 44 45  1  0  0  0  0
 45 42  1  0  0  0  0
 47 42  1  0  0  0  0
 47 46  1  0  0  0  0
M  END
>  <MODEL>
4

>  <REMARK>
 VINA RESULT:      -4.3      2.427     10.378
  Name = 
  22 active torsions:
  status: ('A' for Active; 'I' for Inactive)
    1  A    between atoms: C_1  and  CA_19
    2  A    between atoms: C_1  and  N_27
    3  A    between atoms: C_3  and  N_28
    4  A    between atoms: C_3  and  C_39
    5  A    between atoms: CA_4  and  N_11
    6  A    between atoms: CA_4  and  C_22
    7  A    between atoms: CA_4  and  C_41
    8  A    between atoms: C_7  and  C_10
    9  A    between atoms: C_7  and  C_12
   10  A    between atoms: C_10  and  C_39
   11  A    between atoms: N_11  and  C_14
   12  A    between atoms: N_13  and  C_14
   13  A    between atoms: N_13  and  C_42
   14  A    between atoms: C_14  and  C_40
   15  A    between atoms: CA_19  and  C_37
   16  A    between atoms: CA_19  and  N_47
   17  A    between atoms: C_20  and  C_24
   18  A    between atoms: C_20  and  N_43
   19  A    between atoms: C_21  and  N_23
   20  A    between atoms: C_24  and  N_28
   21  A    between atoms: C_24  and  C_32
   22  A    between atoms: N_27  and  C_32
                            x       y       z     vdW  Elec       q    Type
                         _______ _______ _______ _____ _____    ______ ____

>  <TORSDO>
F 22

$$$$
=
 OpenBabel11072414513D

 47 49  0  0  1  0  0  0  0  0999 V2000
  157.3780  213.5930  149.7900 C   0  0  0  0  0  2  0  0  0  0  0  0
  160.2580  213.9590  146.1330 C   0  0  0  0  0  0  0  0  0  0  0  0
  161.1490  213.7610  147.2960 C   0  0  1  0  0  3  0  0  0  0  0  0
  160.5370  213.7740  149.8280 C   0  0  0  0  0  2  0  0  0  0  0  0
  158.9270  214.2970  146.4750 N   0  0  0  0  0  2  0  0  0  0  0  0
  157.9790  213.2310  148.4400 C   0  0  0  0  0  2  0  0  0  0  0  0
  158.8260  214.3860  147.9190 C   0  0  1  0  0  3  0  0  0  0  0  0
  159.5440  214.3040  150.8480 C   0  0  0  0  0  2  0  0  0  0  0  0
  158.3530  213.3530  150.9420 C   0  0  1  0  0  3  0  0  0  0  0  0
  160.2850  214.3450  148.4290 C   0  0  2  0  0  3  0  0  0  0  0  0
  160.6310  213.8330  144.9390 O   0  0  0  0  0  0  0  0  0  0  0  0
  157.6200  213.5300  152.2770 C   0  0  2  0  0  3  0  0  0  0  0  0
  156.4950  214.4530  152.1570 N   0  0  0  0  0  2  0  0  0  0  0  0
  154.0540  213.7860  152.8090 C   0  0  0  0  0  3  0  0  0  0  0  0
  155.1820  214.0920  152.5090 C   0  0  0  0  0  0  0  0  0  0  0  0
  158.5400  214.0120  153.3030 N   0  0  0  0  0  2  0  0  0  0  0  0
  158.8480  212.8900  154.1830 C   0  0  1  0  0  3  0  0  0  0  0  0
  156.3860  213.3900  156.6620 C   0  0  0  0  0  2  0  0  0  0  0  0
  157.3040  214.1200  155.7370 C   0  0  0  0  0  2  0  0  0  0  0  0
  158.3030  212.0510  156.3780 O   0  0  0  0  0  0  0  0  0  0  0  0
  159.7070  213.9740  156.3050 C   0  0  0  0  0  1  0  0  0  0  0  0
  156.9200  211.9860  156.6230 C   0  0  0  0  0  2  0  0  0  0  0  0
  158.5410  213.2390  155.6550 C   0  0  1  0  0  0  0  0  0  0  0  0
  158.1700  211.6330  153.7000 C   0  0  0  0  0  3  0  0  0  0  0  0
  158.4040  211.1760  152.5920 O   0  0  0  0  0  0  0  0  0  0  0  0
  161.4120  212.2580  147.4330 C   0  0  0  0  0  2  0  0  0  0  0  0
  162.6510  211.9420  148.2640 C   0  0  0  0  0  2  0  0  0  0  0  0
  162.5140  210.6290  149.0140 C   0  0  0  0  0  2  0  0  0  0  0  0
  161.9350  209.5730  148.0970 C   0  0  0  0  0  2  0  0  0  0  0  0
  161.3340  208.5140  148.8880 N   0  0  0  0  0  2  0  0  0  0  0  0
  162.1930  207.3430  148.7700 C   0  0  2  0  0  3  0  0  0  0  0  0
  161.1800  206.3570  146.8450 O   0  0  0  0  0  0  0  0  0  0  0  0
  161.4610  206.2500  148.0690 C   0  0  0  0  0  0  0  0  0  0  0  0
  161.2680  203.9200  148.3220 N   0  0  0  0  0  0  0  0  0  0  0  0
  161.0800  205.0840  148.7990 N   0  0  0  0  0  0  0  0  0  0  0  0
  160.8900  202.7460  149.0430 C   0  0  0  0  0  0  0  0  0  0  0  0
  160.5240  202.8440  150.2440 O   0  0  0  0  0  0  0  0  0  0  0  0
  160.9270  201.4020  148.3980 C   0  0  0  0  0  1  0  0  0  0  0  0
  162.6390  206.8680  150.1480 C   0  0  0  0  0  2  0  0  0  0  0  0
  162.3930  207.9050  151.1350 N   0  0  0  0  0  2  0  0  0  0  0  0
  161.3440  207.4230  152.0200 C   0  0  0  0  0  2  0  0  0  0  0  0
  161.5350  207.9750  153.4290 C   0  0  2  0  0  3  0  0  0  0  0  0
  161.1550  207.2970  155.7980 O   0  0  0  0  0  1  0  0  0  0  0  0
  160.7330  205.8190  154.1020 O   0  0  0  0  0  0  0  0  0  0  0  0
  161.1150  206.9670  154.4520 C   0  0  0  0  0  0  0  0  0  0  0  0
  161.6910  210.3050  153.6290 C   0  0  0  0  0  1  0  0  0  0  0  0
  160.7520  209.1920  153.5820 N   0  0  0  0  0  2  0  0  0  0  0  0
  1  9  1  0  0  0  0
  2  5  1  0  0  0  0
  2  3  1  0  0  0  0
  3 26  1  1  0  0  0
  3 10  1  0  0  0  0
  4  8  1  0  0  0  0
  5  7  1  0  0  0  0
  6  1  1  0  0  0  0
  7 10  1  0  0  0  0
  7  6  1  1  0  0  0
  8  9  1  0  0  0  0
  9 12  1  1  0  0  0
 10  4  1  1  0  0  0
 11  2  2  0  0  0  0
 12 13  1  6  0  0  0
 12 16  1  0  0  0  0
 13 15  1  0  0  0  0
 15 14  3  0  0  0  0
 16 17  1  0  0  0  0
 17 24  1  6  0  0  0
 17 23  1  0  0  0  0
 19 18  1  0  0  0  0
 20 22  1  0  0  0  0
 22 18  1  0  0  0  0
 23 19  1  0  0  0  0
 23 21  1  1  0  0  0
 23 20  1  0  0  0  0
 25 24  2  0  0  0  0
 26 27  1  0  0  0  0
 27 28  1  0  0  0  0
 29 30  1  0  0  0  0
 29 28  1  0  0  0  0
 31 30  1  0  0  0  0
 31 39  1  1  0  0  0
 32 33  2  0  0  0  0
 33 31  1  0  0  0  0
 33 35  1  0  0  0  0
 34 35  2  0  0  0  0
 34 36  1  0  0  0  0
 36 37  2  0  0  0  0
 38 36  1  0  0  0  0
 39 40  1  0  0  0  0
 40 41  1  0  0  0  0
 42 41  1  6  0  0  0
 42 47  1  0  0  0  0
 42 45  1  0  0  0  0
 44 45  2  0  0  0  0
 45 43  1  0  0  0  0
 47 46  1  0  0  0  0
M  END
>  <MODEL>
5

>  <REMARK>
 VINA RESULT:      -4.1      2.417     10.332
  Name = 
  22 active torsions:
  status: ('A' for Active; 'I' for Inactive)
    1  A    between atoms: C_1  and  CA_19
    2  A    between atoms: C_1  and  N_27
    3  A    between atoms: C_3  and  N_28
    4  A    between atoms: C_3  and  C_39
    5  A    between atoms: CA_4  and  N_11
    6  A    between atoms: CA_4  and  C_22
    7  A    between atoms: CA_4  and  C_41
    8  A    between atoms: C_7  and  C_10
    9  A    between atoms: C_7  and  C_12
   10  A    between atoms: C_10  and  C_39
   11  A    between atoms: N_11  and  C_14
   12  A    between atoms: N_13  and  C_14
   13  A    between atoms: N_13  and  C_42
   14  A    between atoms: C_14  and  C_40
   15  A    between atoms: CA_19  and  C_37
   16  A    between atoms: CA_19  and  N_47
   17  A    between atoms: C_20  and  C_24
   18  A    between atoms: C_20  and  N_43
   19  A    between atoms: C_21  and  N_23
   20  A    between atoms: C_24  and  N_28
   21  A    between atoms: C_24  and  C_32
   22  A    between atoms: N_27  and  C_32
                            x       y       z     vdW  Elec       q    Type
                         _______ _______ _______ _____ _____    ______ ____

>  <TORSDO>
F 22

$$$$
=
 OpenBabel11072414513D

 47 49  0  0  1  0  0  0  0  0999 V2000
  161.2780  209.5510  155.4700 C   0  0  0  0  0  2  0  0  0  0  0  0
  161.7330  206.7230  151.7830 C   0  0  0  0  0  0  0  0  0  0  0  0
  161.1230  207.9570  151.2390 C   0  0  1  0  0  3  0  0  0  0  0  0
  160.1730  210.0030  152.5400 C   0  0  0  0  0  2  0  0  0  0  0  0
  161.6890  206.6310  153.1940 N   0  0  0  0  0  2  0  0  0  0  0  0
  162.0030  208.6820  154.4540 C   0  0  0  0  0  2  0  0  0  0  0  0
  161.0060  207.7970  153.7170 C   0  0  1  0  0  3  0  0  0  0  0  0
  159.5670  210.4460  153.8610 C   0  0  0  0  0  2  0  0  0  0  0  0
  160.6830  210.8090  154.8380 C   0  0  1  0  0  3  0  0  0  0  0  0
  160.3830  208.4870  152.4810 C   0  0  2  0  0  3  0  0  0  0  0  0
  162.2580  205.8320  151.0680 O   0  0  0  0  0  0  0  0  0  0  0  0
  160.1590  211.7370  155.9400 C   0  0  2  0  0  3  0  0  0  0  0  0
  160.9050  211.5720  157.1850 N   0  0  0  0  0  2  0  0  0  0  0  0
  163.5150  211.5090  157.2600 C   0  0  0  0  0  3  0  0  0  0  0  0
  162.3100  211.5400  157.2240 C   0  0  0  0  0  0  0  0  0  0  0  0
  158.7410  211.4880  156.1830 N   0  0  0  0  0  2  0  0  0  0  0  0
  157.9820  212.4650  155.4120 C   0  0  1  0  0  3  0  0  0  0  0  0
  155.0540  213.6870  156.9600 C   0  0  0  0  0  2  0  0  0  0  0  0
  156.1070  212.6330  157.0760 C   0  0  0  0  0  2  0  0  0  0  0  0
  155.7610  213.1600  154.7750 O   0  0  0  0  0  0  0  0  0  0  0  0
  156.0210  210.8630  155.3500 C   0  0  0  0  0  1  0  0  0  0  0  0
  155.2560  214.2080  155.5650 C   0  0  0  0  0  2  0  0  0  0  0  0
  156.4650  212.2920  155.6380 C   0  0  1  0  0  0  0  0  0  0  0  0
  158.4840  213.8620  155.6810 C   0  0  0  0  0  3  0  0  0  0  0  0
  158.6020  214.2800  156.8230 O   0  0  0  0  0  0  0  0  0  0  0  0
  162.2570  208.8670  150.7610 C   0  0  0  0  0  2  0  0  0  0  0  0
  162.1620  209.2100  149.2780 C   0  0  0  0  0  2  0  0  0  0  0  0
  162.5120  208.0240  148.3960 C   0  0  0  0  0  2  0  0  0  0  0  0
  161.2470  207.4130  147.8340 C   0  0  0  0  0  2  0  0  0  0  0  0
  161.4700  207.0020  146.4590 N   0  0  0  0  0  2  0  0  0  0  0  0
  161.6600  205.5570  146.4620 C   0  0  2  0  0  3  0  0  0  0  0  0
  161.5200  205.6970  144.0820 O   0  0  0  0  0  0  0  0  0  0  0  0
  161.3320  205.0030  145.1170 C   0  0  0  0  0  0  0  0  0  0  0  0
  161.2610  202.7340  145.7280 N   0  0  0  0  0  0  0  0  0  0  0  0
  160.8000  203.6820  145.0170 N   0  0  0  0  0  0  0  0  0  0  0  0
  160.7380  201.4080  145.6360 C   0  0  0  0  0  0  0  0  0  0  0  0
  161.3330  200.4630  146.2160 O   0  0  0  0  0  0  0  0  0  0  0  0
  159.4990  201.1220  144.8560 C   0  0  0  0  0  1  0  0  0  0  0  0
  160.7780  204.9060  147.5210 C   0  0  0  0  0  2  0  0  0  0  0  0
  161.5950  204.1440  148.4490 N   0  0  0  0  0  2  0  0  0  0  0  0
  160.7200  203.6680  149.5090 C   0  0  0  0  0  2  0  0  0  0  0  0
  161.2660  202.3810  150.1190 C   0  0  2  0  0  3  0  0  0  0  0  0
  159.3160  201.1280  149.2030 O   0  0  0  0  0  1  0  0  0  0  0  0
  161.4160  200.2240  149.0860 O   0  0  0  0  0  0  0  0  0  0  0  0
  160.6810  201.1840  149.4390 C   0  0  0  0  0  0  0  0  0  0  0  0
  160.3150  203.6160  151.8690 C   0  0  0  0  0  1  0  0  0  0  0  0
  160.9520  202.3480  151.5400 N   0  0  0  0  0  2  0  0  0  0  0  0
  2  5  1  0  0  0  0
  3 26  1  1  0  0  0
  3  2  1  0  0  0  0
  3 10  1  0  0  0  0
  4  8  1  0  0  0  0
  5  7  1  0  0  0  0
  6  1  1  0  0  0  0
  7  6  1  6  0  0  0
  8  9  1  0  0  0  0
  9  1  1  0  0  0  0
  9 12  1  1  0  0  0
 10  4  1  1  0  0  0
 10  7  1  0  0  0  0
 11  2  2  0  0  0  0
 12 16  1  1  0  0  0
 12 13  1  0  0  0  0
 13 15  1  0  0  0  0
 15 14  3  0  0  0  0
 17 23  1  0  0  0  0
 17 24  1  1  0  0  0
 17 16  1  0  0  0  0
 18 19  1  0  0  0  0
 20 22  1  0  0  0  0
 20 23  1  0  0  0  0
 22 18  1  0  0  0  0
 23 21  1  6  0  0  0
 23 19  1  0  0  0  0
 24 25  2  0  0  0  0
 27 26  1  0  0  0  0
 28 27  1  0  0  0  0
 29 28  1  0  0  0  0
 30 31  1  0  0  0  0
 30 29  1  0  0  0  0
 31 39  1  1  0  0  0
 32 33  2  0  0  0  0
 33 31  1  0  0  0  0
 35 33  1  0  0  0  0
 35 34  2  0  0  0  0
 36 34  1  0  0  0  0
 36 37  2  0  0  0  0
 38 36  1  0  0  0  0
 39 40  1  0  0  0  0
 40 41  1  0  0  0  0
 42 41  1  6  0  0  0
 42 47  1  0  0  0  0
 43 45  1  0  0  0  0
 44 45  2  0  0  0  0
 45 42  1  0  0  0  0
 47 46  1  0  0  0  0
M  END
>  <MODEL>
6

>  <REMARK>
 VINA RESULT:      -4.0      2.857     11.529
  Name = 
  22 active torsions:
  status: ('A' for Active; 'I' for Inactive)
    1  A    between atoms: C_1  and  CA_19
    2  A    between atoms: C_1  and  N_27
    3  A    between atoms: C_3  and  N_28
    4  A    between atoms: C_3  and  C_39
    5  A    between atoms: CA_4  and  N_11
    6  A    between atoms: CA_4  and  C_22
    7  A    between atoms: CA_4  and  C_41
    8  A    between atoms: C_7  and  C_10
    9  A    between atoms: C_7  and  C_12
   10  A    between atoms: C_10  and  C_39
   11  A    between atoms: N_11  and  C_14
   12  A    between atoms: N_13  and  C_14
   13  A    between atoms: N_13  and  C_42
   14  A    between atoms: C_14  and  C_40
   15  A    between atoms: CA_19  and  C_37
   16  A    between atoms: CA_19  and  N_47
   17  A    between atoms: C_20  and  C_24
   18  A    between atoms: C_20  and  N_43
   19  A    between atoms: C_21  and  N_23
   20  A    between atoms: C_24  and  N_28
   21  A    between atoms: C_24  and  C_32
   22  A    between atoms: N_27  and  C_32
                            x       y       z     vdW  Elec       q    Type
                         _______ _______ _______ _____ _____    ______ ____

>  <TORSDO>
F 22

$$$$
=
 OpenBabel11072414513D

 47 49  0  0  1  0  0  0  0  0999 V2000
  157.0620  213.6390  149.7700 C   0  0  0  0  0  2  0  0  0  0  0  0
  159.7170  214.0100  145.9480 C   0  0  0  0  0  0  0  0  0  0  0  0
  160.6790  213.8690  147.0620 C   0  0  1  0  0  3  0  0  0  0  0  0
  160.2100  213.9250  149.6240 C   0  0  0  0  0  2  0  0  0  0  0  0
  158.3980  214.3120  146.3580 N   0  0  0  0  0  2  0  0  0  0  0  0
  157.5990  213.2640  148.3970 C   0  0  0  0  0  2  0  0  0  0  0  0
  158.3740  214.4330  147.8020 C   0  0  1  0  0  3  0  0  0  0  0  0
  159.2590  214.4470  150.6870 C   0  0  0  0  0  2  0  0  0  0  0  0
  158.1080  213.4600  150.8710 C   0  0  1  0  0  3  0  0  0  0  0  0
  159.8600  214.4530  148.2280 C   0  0  2  0  0  3  0  0  0  0  0  0
  160.0270  213.8660  144.7370 O   0  0  0  0  0  0  0  0  0  0  0  0
  157.4450  213.6460  152.2400 C   0  0  2  0  0  3  0  0  0  0  0  0
  156.2280  214.4480  152.1480 N   0  0  0  0  0  2  0  0  0  0  0  0
  154.4020  214.4500  154.0160 C   0  0  0  0  0  3  0  0  0  0  0  0
  155.2470  214.4470  153.1550 C   0  0  0  0  0  0  0  0  0  0  0  0
  158.3750  214.2760  153.1740 N   0  0  0  0  0  2  0  0  0  0  0  0
  159.3200  213.2550  153.6130 C   0  0  1  0  0  3  0  0  0  0  0  0
  157.7490  211.2660  156.0700 C   0  0  0  0  0  2  0  0  0  0  0  0
  157.6920  212.6070  155.4140 C   0  0  0  0  0  2  0  0  0  0  0  0
  159.9510  211.8430  155.4640 O   0  0  0  0  0  0  0  0  0  0  0  0
  159.5540  214.1350  155.9770 C   0  0  0  0  0  1  0  0  0  0  0  0
  159.0930  210.7440  155.6470 C   0  0  0  0  0  2  0  0  0  0  0  0
  159.1440  212.9470  155.1160 C   0  0  1  0  0  0  0  0  0  0  0  0
  159.2390  212.0370  152.7270 C   0  0  0  0  0  3  0  0  0  0  0  0
  160.1560  211.2320  152.6760 O   0  0  0  0  0  0  0  0  0  0  0  0
  161.0000  212.3810  147.2180 C   0  0  0  0  0  2  0  0  0  0  0  0
  162.2550  212.1240  148.0470 C   0  0  0  0  0  2  0  0  0  0  0  0
  162.1110  210.8990  148.9330 C   0  0  0  0  0  2  0  0  0  0  0  0
  161.9340  209.6650  148.0750 C   0  0  0  0  0  2  0  0  0  0  0  0
  161.3330  208.6030  148.8630 N   0  0  0  0  0  2  0  0  0  0  0  0
  161.9490  207.3500  148.4470 C   0  0  2  0  0  3  0  0  0  0  0  0
  159.9170  206.3880  149.2530 O   0  0  0  0  0  0  0  0  0  0  0  0
  160.9600  206.2400  148.5620 C   0  0  0  0  0  0  0  0  0  0  0  0
  161.1280  204.9310  146.6160 N   0  0  0  0  0  0  0  0  0  0  0  0
  161.2090  205.0100  147.8830 N   0  0  0  0  0  0  0  0  0  0  0  0
  161.3750  203.7040  145.9260 C   0  0  0  0  0  0  0  0  0  0  0  0
  161.7580  203.7320  144.7270 O   0  0  0  0  0  0  0  0  0  0  0  0
  161.1790  202.3890  146.6010 C   0  0  0  0  0  1  0  0  0  0  0  0
  163.1710  207.0470  149.3040 C   0  0  0  0  0  2  0  0  0  0  0  0
  162.8660  207.2750  150.7060 N   0  0  0  0  0  2  0  0  0  0  0  0
  162.7760  205.9750  151.3490 C   0  0  0  0  0  2  0  0  0  0  0  0
  161.4920  205.8670  152.1660 C   0  0  2  0  0  3  0  0  0  0  0  0
  161.8310  206.6460  154.5090 O   0  0  0  0  0  1  0  0  0  0  0  0
  161.0360  208.0940  152.9250 O   0  0  0  0  0  0  0  0  0  0  0  0
  161.4390  206.9360  153.2120 C   0  0  0  0  0  0  0  0  0  0  0  0
  161.5490  203.5650  151.7310 C   0  0  0  0  0  1  0  0  0  0  0  0
  161.4260  204.5560  152.7930 N   0  0  0  0  0  2  0  0  0  0  0  0
  1  9  1  0  0  0  0
  2  5  1  0  0  0  0
  2  3  1  0  0  0  0
  3 26  1  1  0  0  0
  3 10  1  0  0  0  0
  4  8  1  0  0  0  0
  5  7  1  0  0  0  0
  6  1  1  0  0  0  0
  7 10  1  0  0  0  0
  7  6  1  1  0  0  0
  8  9  1  0  0  0  0
  9 12  1  1  0  0  0
 10  4  1  1  0  0  0
 11  2  2  0  0  0  0
 12 13  1  6  0  0  0
 12 16  1  0  0  0  0
 13 15  1  0  0  0  0
 15 14  3  0  0  0  0
 16 17  1  0  0  0  0
 17 24  1  6  0  0  0
 17 23  1  0  0  0  0
 19 18  1  0  0  0  0
 20 22  1  0  0  0  0
 22 18  1  0  0  0  0
 23 19  1  0  0  0  0
 23 20  1  0  0  0  0
 23 21  1  1  0  0  0
 25 24  2  0  0  0  0
 26 27  1  0  0  0  0
 27 28  1  0  0  0  0
 29 30  1  0  0  0  0
 29 28  1  0  0  0  0
 31 33  1  0  0  0  0
 31 30  1  0  0  0  0
 31 39  1  1  0  0  0
 33 32  2  0  0  0  0
 34 35  2  0  0  0  0
 35 33  1  0  0  0  0
 36 38  1  0  0  0  0
 36 34  1  0  0  0  0
 37 36  2  0  0  0  0
 39 40  1  0  0  0  0
 40 41  1  0  0  0  0
 42 41  1  1  0  0  0
 42 47  1  0  0  0  0
 42 45  1  0  0  0  0
 44 45  2  0  0  0  0
 45 43  1  0  0  0  0
 46 47  1  0  0  0  0
M  END
>  <MODEL>
7

>  <REMARK>
 VINA RESULT:      -3.3      2.446     10.538
  Name = 
  22 active torsions:
  status: ('A' for Active; 'I' for Inactive)
    1  A    between atoms: C_1  and  CA_19
    2  A    between atoms: C_1  and  N_27
    3  A    between atoms: C_3  and  N_28
    4  A    between atoms: C_3  and  C_39
    5  A    between atoms: CA_4  and  N_11
    6  A    between atoms: CA_4  and  C_22
    7  A    between atoms: CA_4  and  C_41
    8  A    between atoms: C_7  and  C_10
    9  A    between atoms: C_7  and  C_12
   10  A    between atoms: C_10  and  C_39
   11  A    between atoms: N_11  and  C_14
   12  A    between atoms: N_13  and  C_14
   13  A    between atoms: N_13  and  C_42
   14  A    between atoms: C_14  and  C_40
   15  A    between atoms: CA_19  and  C_37
   16  A    between atoms: CA_19  and  N_47
   17  A    between atoms: C_20  and  C_24
   18  A    between atoms: C_20  and  N_43
   19  A    between atoms: C_21  and  N_23
   20  A    between atoms: C_24  and  N_28
   21  A    between atoms: C_24  and  C_32
   22  A    between atoms: N_27  and  C_32
                            x       y       z     vdW  Elec       q    Type
                         _______ _______ _______ _____ _____    ______ ____

>  <TORSDO>
F 22

$$$$
=
 OpenBabel11072414513D

 47 49  0  0  1  0  0  0  0  0999 V2000
  157.9080  213.8800  151.1690 C   0  0  0  0  0  2  0  0  0  0  0  0
  159.7440  213.7720  146.8770 C   0  0  0  0  0  0  0  0  0  0  0  0
  160.8730  213.4540  147.7780 C   0  0  1  0  0  3  0  0  0  0  0  0
  160.9580  213.5860  150.3780 C   0  0  0  0  0  2  0  0  0  0  0  0
  158.6120  214.3080  147.5350 N   0  0  0  0  0  2  0  0  0  0  0  0
  158.0750  213.4180  149.7290 C   0  0  0  0  0  2  0  0  0  0  0  0
  158.9080  214.4270  148.9500 C   0  0  1  0  0  3  0  0  0  0  0  0
  160.3540  214.2700  151.5930 C   0  0  0  0  0  2  0  0  0  0  0  0
  159.1080  213.5090  152.0400 C   0  0  1  0  0  3  0  0  0  0  0  0
  160.4290  214.1740  149.0650 C   0  0  2  0  0  3  0  0  0  0  0  0
  159.7670  213.5780  145.6350 O   0  0  0  0  0  0  0  0  0  0  0  0
  158.7850  213.8080  153.5080 C   0  0  2  0  0  3  0  0  0  0  0  0
  159.0360  212.6520  154.3640 N   0  0  0  0  0  2  0  0  0  0  0  0
  159.4130  210.2530  153.4010 C   0  0  0  0  0  3  0  0  0  0  0  0
  159.2360  211.3610  153.8470 C   0  0  0  0  0  0  0  0  0  0  0  0
  157.3930  214.2270  153.6480 N   0  0  0  0  0  2  0  0  0  0  0  0
  156.6760  213.1560  154.3320 C   0  0  1  0  0  3  0  0  0  0  0  0
  154.4480  213.2770  157.0680 C   0  0  0  0  0  2  0  0  0  0  0  0
  155.1080  214.1320  156.0360 C   0  0  0  0  0  2  0  0  0  0  0  0
  156.5390  212.3040  156.5840 O   0  0  0  0  0  0  0  0  0  0  0  0
  157.5440  214.4490  156.3300 C   0  0  0  0  0  1  0  0  0  0  0  0
  155.2270  211.9940  156.9850 C   0  0  0  0  0  2  0  0  0  0  0  0
  156.4710  213.4920  155.8240 C   0  0  1  0  0  0  0  0  0  0  0  0
  155.4000  212.8190  153.6010 C   0  0  0  0  0  3  0  0  0  0  0  0
  154.6120  213.6930  153.2720 O   0  0  0  0  0  0  0  0  0  0  0  0
  160.9470  211.9310  147.9170 C   0  0  0  0  0  2  0  0  0  0  0  0
  162.2040  211.4580  148.6390 C   0  0  0  0  0  2  0  0  0  0  0  0
  162.1760  209.9630  148.9090 C   0  0  0  0  0  2  0  0  0  0  0  0
  161.7960  209.7110  150.3520 C   0  0  0  0  0  2  0  0  0  0  0  0
  162.3890  208.4650  150.8040 N   0  0  0  0  0  2  0  0  0  0  0  0
  161.3250  207.4710  150.8580 C   0  0  2  0  0  3  0  0  0  0  0  0
  161.1870  205.5480  152.2690 O   0  0  0  0  0  0  0  0  0  0  0  0
  161.3320  206.7980  152.1890 C   0  0  0  0  0  0  0  0  0  0  0  0
  161.0630  207.1820  154.4930 N   0  0  0  0  0  0  0  0  0  0  0  0
  161.5020  207.5840  153.3680 N   0  0  0  0  0  0  0  0  0  0  0  0
  161.2260  207.9600  155.6800 C   0  0  0  0  0  0  0  0  0  0  0  0
  160.9760  207.4450  156.8000 O   0  0  0  0  0  0  0  0  0  0  0  0
  161.6820  209.3790  155.6130 C   0  0  0  0  0  1  0  0  0  0  0  0
  161.5040  206.4380  149.7520 C   0  0  0  0  0  2  0  0  0  0  0  0
  160.4120  206.5350  148.7990 N   0  0  0  0  0  2  0  0  0  0  0  0
  160.9910  206.4660  147.4670 C   0  0  0  0  0  2  0  0  0  0  0  0
  161.7450  205.1540  147.2760 C   0  0  2  0  0  3  0  0  0  0  0  0
  162.7800  204.1480  145.2440 O   0  0  0  0  0  1  0  0  0  0  0  0
  160.5940  204.8260  145.1990 O   0  0  0  0  0  0  0  0  0  0  0  0
  161.6650  204.7010  145.8510 C   0  0  0  0  0  0  0  0  0  0  0  0
  161.1490  202.8910  147.4000 C   0  0  0  0  0  1  0  0  0  0  0  0
  161.1790  204.1390  148.1510 N   0  0  0  0  0  2  0  0  0  0  0  0
  1  9  1  0  0  0  0
  2  5  1  0  0  0  0
  2  3  1  0  0  0  0
  3 26  1  1  0  0  0
  3 10  1  0  0  0  0
  4  8  1  0  0  0  0
  5  7  1  0  0  0  0
  6  1  1  0  0  0  0
  7 10  1  0  0  0  0
  7  6  1  1  0  0  0
  8  9  1  0  0  0  0
  9 12  1  1  0  0  0
 10  4  1  1  0  0  0
 11  2  2  0  0  0  0
 12 16  1  6  0  0  0
 12 13  1  0  0  0  0
 14 15  3  0  0  0  0
 15 13  1  0  0  0  0
 16 17  1  0  0  0  0
 17 24  1  6  0  0  0
 17 23  1  0  0  0  0
 19 18  1  0  0  0  0
 20 22  1  0  0  0  0
 22 18  1  0  0  0  0
 23 19  1  0  0  0  0
 23 21  1  1  0  0  0
 23 20  1  0  0  0  0
 25 24  2  0  0  0  0
 26 27  1  0  0  0  0
 27 28  1  0  0  0  0
 28 29  1  0  0  0  0
 29 30  1  0  0  0  0
 30 31  1  0  0  0  0
 31 39  1  6  0  0  0
 31 33  1  0  0  0  0
 33 32  2  0  0  0  0
 33 35  1  0  0  0  0
 34 36  1  0  0  0  0
 35 34  2  0  0  0  0
 36 37  2  0  0  0  0
 38 36  1  0  0  0  0
 40 39  1  0  0  0  0
 41 40  1  0  0  0  0
 42 41  1  6  0  0  0
 42 47  1  0  0  0  0
 43 45  1  0  0  0  0
 44 45  2  0  0  0  0
 45 42  1  0  0  0  0
 46 47  1  0  0  0  0
M  END
>  <MODEL>
8

>  <REMARK>
 VINA RESULT:      -3.2      2.305     10.082
  Name = 
  22 active torsions:
  status: ('A' for Active; 'I' for Inactive)
    1  A    between atoms: C_1  and  CA_19
    2  A    between atoms: C_1  and  N_27
    3  A    between atoms: C_3  and  N_28
    4  A    between atoms: C_3  and  C_39
    5  A    between atoms: CA_4  and  N_11
    6  A    between atoms: CA_4  and  C_22
    7  A    between atoms: CA_4  and  C_41
    8  A    between atoms: C_7  and  C_10
    9  A    between atoms: C_7  and  C_12
   10  A    between atoms: C_10  and  C_39
   11  A    between atoms: N_11  and  C_14
   12  A    between atoms: N_13  and  C_14
   13  A    between atoms: N_13  and  C_42
   14  A    between atoms: C_14  and  C_40
   15  A    between atoms: CA_19  and  C_37
   16  A    between atoms: CA_19  and  N_47
   17  A    between atoms: C_20  and  C_24
   18  A    between atoms: C_20  and  N_43
   19  A    between atoms: C_21  and  N_23
   20  A    between atoms: C_24  and  N_28
   21  A    between atoms: C_24  and  C_32
   22  A    between atoms: N_27  and  C_32
                            x       y       z     vdW  Elec       q    Type
                         _______ _______ _______ _____ _____    ______ ____

>  <TORSDO>
F 22

$$$$
=
 OpenBabel11072414513D

 47 49  0  0  1  0  0  0  0  0999 V2000
  161.7780  207.4970  154.4640 C   0  0  0  0  0  2  0  0  0  0  0  0
  161.2590  205.1730  150.4480 C   0  0  0  0  0  0  0  0  0  0  0  0
  160.9750  206.5840  150.1060 C   0  0  1  0  0  3  0  0  0  0  0  0
  160.6820  208.6130  151.7130 C   0  0  0  0  0  2  0  0  0  0  0  0
  161.2660  204.9050  151.8370 N   0  0  0  0  0  2  0  0  0  0  0  0
  162.1870  206.6140  153.2950 C   0  0  0  0  0  2  0  0  0  0  0  0
  160.9510  206.1280  152.5500 C   0  0  1  0  0  3  0  0  0  0  0  0
  160.2880  209.0150  153.1240 C   0  0  0  0  0  2  0  0  0  0  0  0
  161.5110  208.9400  154.0360 C   0  0  1  0  0  3  0  0  0  0  0  0
  160.4720  207.1160  151.4610 C   0  0  2  0  0  3  0  0  0  0  0  0
  161.4850  204.2800  149.5920 O   0  0  0  0  0  0  0  0  0  0  0  0
  161.3160  209.8150  155.2800 C   0  0  2  0  0  3  0  0  0  0  0  0
  160.1740  209.3740  156.0770 N   0  0  0  0  0  2  0  0  0  0  0  0
  160.1000  207.0410  157.2510 C   0  0  0  0  0  3  0  0  0  0  0  0
  160.1370  208.1190  156.7100 C   0  0  0  0  0  0  0  0  0  0  0  0
  161.1340  211.2120  154.8960 N   0  0  0  0  0  2  0  0  0  0  0  0
  159.7060  211.5060  154.9600 C   0  0  1  0  0  3  0  0  0  0  0  0
  157.3620  213.5820  156.5880 C   0  0  0  0  0  2  0  0  0  0  0  0
  158.6230  213.6160  155.7880 C   0  0  0  0  0  2  0  0  0  0  0  0
  158.5540  211.6090  157.0760 O   0  0  0  0  0  0  0  0  0  0  0  0
  160.6330  212.7650  156.9520 C   0  0  0  0  0  1  0  0  0  0  0  0
  157.2530  212.1350  156.9780 C   0  0  0  0  0  2  0  0  0  0  0  0
  159.3710  212.3580  156.2020 C   0  0  1  0  0  0  0  0  0  0  0  0
  159.2280  212.1050  153.6610 C   0  0  0  0  0  3  0  0  0  0  0  0
  158.5810  211.4450  152.8630 O   0  0  0  0  0  0  0  0  0  0  0  0
  162.2850  207.2240  149.6400 C   0  0  0  0  0  2  0  0  0  0  0  0
  162.7150  206.7610  148.2520 C   0  0  0  0  0  2  0  0  0  0  0  0
  161.8230  207.3270  147.1610 C   0  0  0  0  0  2  0  0  0  0  0  0
  161.0870  206.2030  146.4660 C   0  0  0  0  0  2  0  0  0  0  0  0
  161.9140  205.6580  145.4040 N   0  0  0  0  0  2  0  0  0  0  0  0
  161.0380  205.3670  144.2770 C   0  0  2  0  0  3  0  0  0  0  0  0
  159.4420  203.6680  143.7560 O   0  0  0  0  0  0  0  0  0  0  0  0
  160.4470  204.0070  144.4360 C   0  0  0  0  0  0  0  0  0  0  0  0
  160.4910  201.9720  145.6130 N   0  0  0  0  0  0  0  0  0  0  0  0
  161.0310  203.0980  145.3690 N   0  0  0  0  0  0  0  0  0  0  0  0
  161.0650  201.0540  146.5450 C   0  0  0  0  0  0  0  0  0  0  0  0
  161.4190  199.9110  146.1550 O   0  0  0  0  0  0  0  0  0  0  0  0
  161.2460  201.4250  147.9780 C   0  0  0  0  0  1  0  0  0  0  0  0
  161.8120  205.4460  142.9670 C   0  0  0  0  0  2  0  0  0  0  0  0
  161.3420  206.5710  142.1780 N   0  0  0  0  0  2  0  0  0  0  0  0
  162.2790  206.7550  141.0810 C   0  0  0  0  0  2  0  0  0  0  0  0
  161.8360  207.9070  140.1840 C   0  0  2  0  0  3  0  0  0  0  0  0
  162.3960  206.5190  138.1900 O   0  0  0  0  0  1  0  0  0  0  0  0
  160.5080  207.8130  138.1900 O   0  0  0  0  0  0  0  0  0  0  0  0
  161.5350  207.4150  138.8030 C   0  0  0  0  0  0  0  0  0  0  0  0
  162.2750  210.1900  140.4740 C   0  0  0  0  0  1  0  0  0  0  0  0
  162.8860  208.9130  140.1330 N   0  0  0  0  0  2  0  0  0  0  0  0
  2  5  1  0  0  0  0
  3 26  1  1  0  0  0
  3  2  1  0  0  0  0
  3 10  1  0  0  0  0
  4  8  1  0  0  0  0
  5  7  1  0  0  0  0
  6  1  1  0  0  0  0
  7  6  1  6  0  0  0
  8  9  1  0  0  0  0
  9  1  1  0  0  0  0
  9 12  1  1  0  0  0
 10  4  1  1  0  0  0
 10  7  1  0  0  0  0
 11  2  2  0  0  0  0
 12 16  1  6  0  0  0
 12 13  1  0  0  0  0
 13 15  1  0  0  0  0
 15 14  3  0  0  0  0
 16 17  1  0  0  0  0
 17 24  1  6  0  0  0
 17 23  1  0  0  0  0
 18 22  1  0  0  0  0
 19 23  1  0  0  0  0
 19 18  1  0  0  0  0
 22 20  1  0  0  0  0
 23 21  1  1  0  0  0
 23 20  1  0  0  0  0
 25 24  2  0  0  0  0
 27 26  1  0  0  0  0
 28 27  1  0  0  0  0
 29 28  1  0  0  0  0
 30 29  1  0  0  0  0
 31 39  1  6  0  0  0
 31 33  1  0  0  0  0
 31 30  1  0  0  0  0
 32 33  2  0  0  0  0
 33 35  1  0  0  0  0
 34 36  1  0  0  0  0
 35 34  2  0  0  0  0
 36 38  1  0  0  0  0
 37 36  2  0  0  0  0
 40 39  1  0  0  0  0
 41 40  1  0  0  0  0
 42 41  1  1  0  0  0
 43 45  1  0  0  0  0
 44 45  2  0  0  0  0
 45 42  1  0  0  0  0
 47 42  1  0  0  0  0
 47 46  1  0  0  0  0
M  END
>  <MODEL>
9

>  <REMARK>
 VINA RESULT:      -3.1      3.131     11.296
  Name = 
  22 active torsions:
  status: ('A' for Active; 'I' for Inactive)
    1  A    between atoms: C_1  and  CA_19
    2  A    between atoms: C_1  and  N_27
    3  A    between atoms: C_3  and  N_28
    4  A    between atoms: C_3  and  C_39
    5  A    between atoms: CA_4  and  N_11
    6  A    between atoms: CA_4  and  C_22
    7  A    between atoms: CA_4  and  C_41
    8  A    between atoms: C_7  and  C_10
    9  A    between atoms: C_7  and  C_12
   10  A    between atoms: C_10  and  C_39
   11  A    between atoms: N_11  and  C_14
   12  A    between atoms: N_13  and  C_14
   13  A    between atoms: N_13  and  C_42
   14  A    between atoms: C_14  and  C_40
   15  A    between atoms: CA_19  and  C_37
   16  A    between atoms: CA_19  and  N_47
   17  A    between atoms: C_20  and  C_24
   18  A    between atoms: C_20  and  N_43
   19  A    between atoms: C_21  and  N_23
   20  A    between atoms: C_24  and  N_28
   21  A    between atoms: C_24  and  C_32
   22  A    between atoms: N_27  and  C_32
                            x       y       z     vdW  Elec       q    Type
                         _______ _______ _______ _____ _____    ______ ____

>  <TORSDO>
F 22

$$$$
