=
 OpenBabel11072413543D

 46 50  0  0  1  0  0  0  0  0999 V2000
  162.1990  210.7150  150.2860 N   0  0  0  0  0  2  0  0  0  0  0  0
  161.8990  208.4610  150.3180 N   0  0  0  0  0  2  0  0  0  0  0  0
  162.1720  209.5570  149.4810 N   0  0  0  0  0  2  0  0  0  0  0  0
  161.0520  208.9770  151.3690 C   0  0  2  0  0  3  0  0  0  0  0  0
  161.3880  210.4280  151.4550 C   0  0  2  0  0  3  0  0  0  0  0  0
  161.3650  208.2880  152.6850 C   0  0  0  0  0  2  0  0  0  0  0  0
  161.9010  206.7460  152.4220 C   0  0  0  0  0  2  0  0  0  0  0  0
  161.9500  206.0620  152.4590 O   0  0  0  0  0  0  0  0  0  0  0  0
  161.5290  205.7520  153.5560 C   0  0  0  0  0  2  0  0  0  0  0  0
  160.5970  204.5880  153.5560 C   0  0  0  0  0  2  0  0  0  0  0  0
  160.6400  203.9120  152.2670 N   0  0  0  0  0  2  0  0  0  0  0  0
  161.7880  203.2220  151.7640 C   0  0  0  0  0  3  0  0  0  0  0  0
  161.8520  202.5810  150.5890 C   0  0  0  0  0  3  0  0  0  0  0  0
  160.7470  202.3000  149.6470 C   0  0  0  0  0  0  0  0  0  0  0  0
  160.6960  202.9250  148.4670 C   0  0  0  0  0  3  0  0  0  0  0  0
  161.3520  206.4080  147.3380 O   0  0  0  0  0  0  0  0  0  0  0  0
  160.3980  205.6410  149.2770 O   0  0  0  0  0  0  0  0  0  0  0  0
  161.9220  206.1460  146.0590 C   0  0  0  0  0  2  0  0  0  0  0  0
  162.8740  205.0340  146.1320 N   0  0  0  0  0  2  0  0  0  0  0  0
  161.0600  205.3810  148.2380 C   0  0  0  0  0  0  0  0  0  0  0  0
  161.6460  204.0110  148.0370 C   0  0  2  0  0  3  0  0  0  0  0  0
  162.1880  203.8260  146.6030 C   0  0  1  0  0  3  0  0  0  0  0  0
  161.1890  203.3220  145.5960 C   0  0  0  0  0  0  0  0  0  0  0  0
  160.6310  202.0550  145.7190 O   0  0  0  0  0  1  0  0  0  0  0  0
  160.8450  204.0630  144.6400 O   0  0  0  0  0  0  0  0  0  0  0  0
  158.6900  201.1190  148.8600 C   0  0  0  0  0  1  0  0  0  0  0  0
  159.8190  201.1450  149.8800 C   0  0  0  0  0  2  0  0  0  0  0  0
  160.2030  211.1880  151.4170 O   0  0  0  0  0  0  0  0  0  0  0  0
  158.5980  212.3180  152.7950 N   0  0  0  0  0  2  0  0  0  0  0  0
  160.4760  211.8350  153.7980 C   0  0  1  0  0  3  0  0  0  0  0  0
  159.5930  211.2490  152.7000 C   0  0  2  0  0  3  0  0  0  0  0  0
  159.3910  212.9200  153.8680 C   0  0  2  0  0  3  0  0  0  0  0  0
  157.8630  213.5220  157.1680 C   0  0  0  0  0  3  0  0  0  0  0  0
  158.9150  213.7260  156.2840 C   0  0  0  0  0  3  0  0  0  0  0  0
  156.9450  212.7120  156.6080 N   0  0  0  0  0  0  0  0  0  0  0  0
  157.3850  212.3890  155.3750 C   0  0  0  0  0  0  0  0  0  0  0  0
  155.7100  212.3070  157.2600 C   0  0  0  0  0  1  0  0  0  0  0  0
  158.6020  212.9890  155.1510 C   0  0  0  0  0  0  0  0  0  0  0  0
  155.8560  210.5160  154.7840 C   0  0  0  0  0  1  0  0  0  0  0  0
  156.7250  211.5830  154.4380 O   0  0  0  0  0  0  0  0  0  0  0  0
  161.6110  210.2740  157.0890 C   0  0  0  0  0  2  0  0  0  0  0  0
  161.5370  211.1070  155.8870 N   0  0  0  0  0  0  0  0  0  0  0  0
  160.5830  210.9470  155.0130 C   0  0  0  0  0  0  0  0  0  0  0  0
  159.6520  209.8630  155.1640 N   0  0  0  0  0  0  0  0  0  0  0  0
  161.1610  208.8470  156.7780 C   0  0  0  0  0  2  0  0  0  0  0  0
  159.8780  208.8930  156.0000 C   0  0  0  0  0  3  0  0  0  0  0  0
  1  5  1  0  0  0  0
  2  4  1  0  0  0  0
  3  1  1  0  0  0  0
  3  2  1  0  0  0  0
  4  5  1  0  0  0  0
  4  6  1  1  0  0  0
  5 28  1  6  0  0  0
  7  8  1  0  0  0  0
  7  6  1  0  0  0  0
  8  9  1  0  0  0  0
 10  9  1  0  0  0  0
 11 10  1  0  0  0  0
 12 11  1  0  0  0  0
 13 12  2  0  0  0  0
 14 27  1  0  0  0  0
 14 13  1  0  0  0  0
 15 14  2  0  0  0  0
 16 20  1  0  0  0  0
 18 19  1  0  0  0  0
 18 16  1  0  0  0  0
 19 22  1  0  0  0  0
 20 17  2  0  0  0  0
 21 20  1  0  0  0  0
 21 15  1  6  0  0  0
 22 23  1  6  0  0  0
 22 21  1  0  0  0  0
 23 24  1  0  0  0  0
 25 23  2  0  0  0  0
 26 27  1  0  0  0  0
 29 32  1  0  0  0  0
 30 32  1  0  0  0  0
 30 43  1  1  0  0  0
 31 28  1  6  0  0  0
 31 29  1  0  0  0  0
 31 30  1  0  0  0  0
 32 38  1  1  0  0  0
 34 33  2  0  0  0  0
 35 33  1  0  0  0  0
 35 37  1  0  0  0  0
 36 35  1  0  0  0  0
 38 36  2  0  0  0  0
 38 34  1  0  0  0  0
 40 39  1  0  0  0  0
 40 36  1  0  0  0  0
 42 41  1  0  0  0  0
 43 44  1  0  0  0  0
 43 42  2  0  0  0  0
 44 46  2  0  0  0  0
 45 41  1  0  0  0  0
 46 45  1  0  0  0  0
M  END
>  <MODEL>
1

>  <REMARK>
 VINA RESULT:      -6.3      0.000      0.000
  Name = 
  15 active torsions:
  status: ('A' for Active; 'I' for Inactive)
    1  A    between atoms: C_1  and  CA_43
    2  A    between atoms: C_4  and  C_31
    3  A    between atoms: N_5  and  C_17
    4  A    between atoms: N_5  and  C_18
    5  A    between atoms: C_8  and  C_34
    6  A    between atoms: C_8  and  C_35
    7  A    between atoms: C_15  and  C_27
    8  A    between atoms: C_17  and  C_45
    9  A    between atoms: C_20  and  O_29
   10  A    between atoms: C_27  and  C_41
   11  A    between atoms: C_32  and  C_42
   12  A    between atoms: C_33  and  C_39
   13  A    between atoms: C_34  and  C_45
   14  A    between atoms: C_36  and  O_40
   15  A    between atoms: C_37  and  O_40
                            x       y       z     vdW  Elec       q    Type
                         _______ _______ _______ _____ _____    ______ ____

>  <TORSDO>
F 15

$$$$
=
 OpenBabel11072413543D

 46 50  0  0  1  0  0  0  0  0999 V2000
  162.1410  209.8840  150.2710 N   0  0  0  0  0  2  0  0  0  0  0  0
  161.6230  212.0400  149.7670 N   0  0  0  0  0  2  0  0  0  0  0  0
  161.3370  210.9810  150.6470 N   0  0  0  0  0  2  0  0  0  0  0  0
  161.9520  211.4190  148.5050 C   0  0  2  0  0  3  0  0  0  0  0  0
  162.4580  210.0620  148.8660 C   0  0  2  0  0  3  0  0  0  0  0  0
  163.0360  212.2090  147.7950 C   0  0  0  0  0  2  0  0  0  0  0  0
  162.4240  213.6190  147.1850 C   0  0  0  0  0  2  0  0  0  0  0  0
  162.3330  214.1510  146.7590 O   0  0  0  0  0  0  0  0  0  0  0  0
  162.5030  213.7180  145.6360 C   0  0  0  0  0  2  0  0  0  0  0  0
  161.4860  214.1610  144.6410 C   0  0  0  0  0  2  0  0  0  0  0  0
  161.9100  213.7990  143.2950 N   0  0  0  0  0  2  0  0  0  0  0  0
  162.2260  212.4640  142.8890 C   0  0  0  0  0  3  0  0  0  0  0  0
  161.8500  211.8970  141.7340 C   0  0  0  0  0  3  0  0  0  0  0  0
  160.9160  212.4350  140.7220 C   0  0  0  0  0  0  0  0  0  0  0  0
  160.6350  211.7260  139.6250 C   0  0  0  0  0  3  0  0  0  0  0  0
  162.3310  209.5180  137.1570 O   0  0  0  0  0  0  0  0  0  0  0  0
  162.9440  211.5770  137.9600 O   0  0  0  0  0  0  0  0  0  0  0  0
  161.3990  208.4420  137.1130 C   0  0  0  0  0  2  0  0  0  0  0  0
  160.9430  208.0930  138.4620 N   0  0  0  0  0  2  0  0  0  0  0  0
  162.2050  210.5640  138.0740 C   0  0  0  0  0  0  0  0  0  0  0  0
  161.2940  210.4220  139.2620 C   0  0  2  0  0  3  0  0  0  0  0  0
  160.2970  209.2550  139.0810 C   0  0  1  0  0  3  0  0  0  0  0  0
  159.0070  209.6100  138.3930 C   0  0  0  0  0  0  0  0  0  0  0  0
  158.9540  209.7600  137.0110 O   0  0  0  0  0  0  0  0  0  0  0  0
  157.9610  209.7580  139.0750 O   0  0  0  0  0  1  0  0  0  0  0  0
  159.0370  213.8840  139.9380 C   0  0  0  0  0  1  0  0  0  0  0  0
  160.0810  213.6450  141.0190 C   0  0  0  0  0  2  0  0  0  0  0  0
  161.7890  209.0910  148.0950 O   0  0  0  0  0  0  0  0  0  0  0  0
  161.5350  206.7300  147.7630 N   0  0  0  0  0  2  0  0  0  0  0  0
  160.7840  207.4640  149.6760 C   0  0  1  0  0  3  0  0  0  0  0  0
  161.8960  207.8040  148.6890 C   0  0  2  0  0  3  0  0  0  0  0  0
  160.4620  206.3410  148.6790 C   0  0  2  0  0  3  0  0  0  0  0  0
  160.5580  203.0560  150.3470 C   0  0  0  0  0  3  0  0  0  0  0  0
  160.1820  204.3930  150.3640 C   0  0  0  0  0  3  0  0  0  0  0  0
  161.2220  202.7810  149.2080 N   0  0  0  0  0  0  0  0  0  0  0  0
  161.2800  203.9180  148.4860 C   0  0  0  0  0  0  0  0  0  0  0  0
  161.7430  201.4670  148.8660 C   0  0  0  0  0  1  0  0  0  0  0  0
  160.6590  204.9320  149.1780 C   0  0  0  0  0  0  0  0  0  0  0  0
  161.2710  203.6150  146.0160 C   0  0  0  0  0  1  0  0  0  0  0  0
  161.8620  204.0760  147.2220 O   0  0  0  0  0  0  0  0  0  0  0  0
  162.8340  205.7880  152.4220 C   0  0  0  0  0  2  0  0  0  0  0  0
  162.3070  206.1890  151.1170 N   0  0  0  0  0  0  0  0  0  0  0  0
  161.2980  207.0090  151.0200 C   0  0  0  0  0  0  0  0  0  0  0  0
  160.6120  207.4390  152.2060 N   0  0  0  0  0  0  0  0  0  0  0  0
  161.6990  205.6430  153.4350 C   0  0  0  0  0  2  0  0  0  0  0  0
  160.8050  206.8450  153.3470 C   0  0  0  0  0  3  0  0  0  0  0  0
  1  3  1  0  0  0  0
  2  3  1  0  0  0  0
  4  6  1  1  0  0  0
  4  5  1  0  0  0  0
  4  2  1  0  0  0  0
  5 28  1  6  0  0  0
  5  1  1  0  0  0  0
  7  6  1  0  0  0  0
  8  7  1  0  0  0  0
  9  8  1  0  0  0  0
 10  9  1  0  0  0  0
 11 10  1  0  0  0  0
 12 11  1  0  0  0  0
 13 12  2  0  0  0  0
 14 27  1  0  0  0  0
 14 13  1  0  0  0  0
 15 14  2  0  0  0  0
 16 20  1  0  0  0  0
 17 20  2  0  0  0  0
 18 16  1  0  0  0  0
 18 19  1  0  0  0  0
 19 22  1  0  0  0  0
 20 21  1  0  0  0  0
 21 15  1  6  0  0  0
 22 23  1  6  0  0  0
 22 21  1  0  0  0  0
 23 25  1  0  0  0  0
 24 23  2  0  0  0  0
 26 27  1  0  0  0  0
 29 32  1  0  0  0  0
 29 31  1  0  0  0  0
 30 43  1  1  0  0  0
 31 28  1  6  0  0  0
 31 30  1  0  0  0  0
 32 38  1  1  0  0  0
 32 30  1  0  0  0  0
 33 34  2  0  0  0  0
 35 33  1  0  0  0  0
 36 38  2  0  0  0  0
 36 35  1  0  0  0  0
 37 35  1  0  0  0  0
 38 34  1  0  0  0  0
 39 40  1  0  0  0  0
 40 36  1  0  0  0  0
 41 45  1  0  0  0  0
 42 41  1  0  0  0  0
 43 42  2  0  0  0  0
 43 44  1  0  0  0  0
 44 46  2  0  0  0  0
 46 45  1  0  0  0  0
M  END
>  <MODEL>
2

>  <REMARK>
 VINA RESULT:      -5.9      5.867      9.972
  Name = 
  15 active torsions:
  status: ('A' for Active; 'I' for Inactive)
    1  A    between atoms: C_1  and  CA_43
    2  A    between atoms: C_4  and  C_31
    3  A    between atoms: N_5  and  C_17
    4  A    between atoms: N_5  and  C_18
    5  A    between atoms: C_8  and  C_34
    6  A    between atoms: C_8  and  C_35
    7  A    between atoms: C_15  and  C_27
    8  A    between atoms: C_17  and  C_45
    9  A    between atoms: C_20  and  O_29
   10  A    between atoms: C_27  and  C_41
   11  A    between atoms: C_32  and  C_42
   12  A    between atoms: C_33  and  C_39
   13  A    between atoms: C_34  and  C_45
   14  A    between atoms: C_36  and  O_40
   15  A    between atoms: C_37  and  O_40
                            x       y       z     vdW  Elec       q    Type
                         _______ _______ _______ _____ _____    ______ ____

>  <TORSDO>
F 15

$$$$
=
 OpenBabel11072413543D

 46 49  0  0  1  0  0  0  0  0999 V2000
  162.3050  209.7700  150.2010 N   0  0  0  0  0  2  0  0  0  0  0  0
  161.6760  211.9170  149.7970 N   0  0  0  0  0  2  0  0  0  0  0  0
  161.5150  210.8350  150.6810 N   0  0  0  0  0  2  0  0  0  0  0  0
  161.8870  211.3270  148.4960 C   0  0  2  0  0  3  0  0  0  0  0  0
  162.4660  209.9790  148.7740 C   0  0  2  0  0  3  0  0  0  0  0  0
  162.8670  212.1610  147.6900 C   0  0  0  0  0  1  0  0  0  0  0  0
  162.0870  213.4080  146.9350 C   0  0  0  0  0  1  0  0  0  0  0  0
  162.3380  212.9260  146.5140 O   0  0  0  0  0  0  0  0  0  0  0  0
  162.0830  213.2980  145.3860 C   0  0  0  0  0  2  0  0  0  0  0  0
  163.2130  213.1690  144.4210 C   0  0  0  0  0  2  0  0  0  0  0  0
  162.7010  212.9020  143.0830 N   0  0  0  0  0  2  0  0  0  0  0  0
  161.4510  212.2570  142.8200 C   0  0  0  0  0  3  0  0  0  0  0  0
  161.0820  211.7380  141.6410 C   0  0  0  0  0  3  0  0  0  0  0  0
  161.7790  211.8530  140.3410 C   0  0  0  0  0  0  0  0  0  0  0  0
  161.2860  211.2430  139.2590 C   0  0  0  0  0  3  0  0  0  0  0  0
  159.2880  208.4930  137.7470 O   0  0  0  0  0  0  0  0  0  0  0  0
  161.4490  208.4960  138.5160 O   0  0  0  0  0  0  0  0  0  0  0  0
  158.0750  209.1900  137.4830 C   0  0  0  0  0  2  0  0  0  0  0  0
  157.7090  210.0430  138.6180 N   0  0  0  0  0  2  0  0  0  0  0  0
  160.3340  209.0800  138.4620 C   0  0  0  0  0  0  0  0  0  0  0  0
  160.0920  210.3240  139.2690 C   0  0  2  0  0  3  0  0  0  0  0  0
  158.7740  211.0210  138.8650 C   0  0  1  0  0  3  0  0  0  0  0  0
  158.8890  212.0180  137.7430 C   0  0  0  0  0  0  0  0  0  0  0  0
  157.7660  212.6830  137.2640 O   0  0  0  0  0  1  0  0  0  0  0  0
  160.0170  212.2620  137.2440 O   0  0  0  0  0  0  0  0  0  0  0  0
  163.5830  212.6610  138.8120 C   0  0  0  0  0  1  0  0  0  0  0  0
  162.8880  212.8440  140.1540 C   0  0  0  0  0  2  0  0  0  0  0  0
  161.7460  209.0030  148.0590 O   0  0  0  0  0  0  0  0  0  0  0  0
  161.5100  206.6340  147.7670 N   0  0  0  0  0  2  0  0  0  0  0  0
  160.7700  207.3920  149.6760 C   0  0  1  0  0  3  0  0  0  0  0  0
  161.8700  207.7260  148.6720 C   0  0  2  0  0  3  0  0  0  0  0  0
  160.4490  206.2510  148.6990 C   0  0  2  0  0  3  0  0  0  0  0  0
  160.6080  203.0000  150.4300 C   0  0  0  0  0  3  0  0  0  0  0  0
  160.2380  204.3390  150.4360 C   0  0  0  0  0  3  0  0  0  0  0  0
  161.2190  202.6990  149.2690 N   0  0  0  0  0  0  0  0  0  0  0  0
  161.2490  203.8210  148.5210 C   0  0  0  0  0  0  0  0  0  0  0  0
  161.7200  201.3760  148.9310 C   0  0  0  0  0  1  0  0  0  0  0  0
  160.6630  204.8510  149.2180 C   0  0  0  0  0  0  0  0  0  0  0  0
  161.2810  203.2420  146.1010 C   0  0  0  0  0  1  0  0  0  0  0  0
  161.7740  203.9490  147.2290 O   0  0  0  0  0  0  0  0  0  0  0  0
  162.8700  205.7880  152.4280 C   0  0  0  0  0  2  0  0  0  0  0  0
  162.3270  206.1640  151.1210 N   0  0  0  0  0  0  0  0  0  0  0  0
  161.3020  206.9630  151.0210 C   0  0  0  0  0  0  0  0  0  0  0  0
  160.6140  207.3940  152.2070 N   0  0  0  0  0  0  0  0  0  0  0  0
  161.7430  205.6330  153.4490 C   0  0  0  0  0  2  0  0  0  0  0  0
  160.8260  206.8170  153.3540 C   0  0  0  0  0  3  0  0  0  0  0  0
  1  3  1  0  0  0  0
  2  3  1  0  0  0  0
  4  6  1  6  0  0  0
  4  5  1  0  0  0  0
  4  2  1  0  0  0  0
  5 28  1  6  0  0  0
  5  1  1  0  0  0  0
  8  7  1  0  0  0  0
  9  8  1  0  0  0  0
 10  9  1  0  0  0  0
 11 10  1  0  0  0  0
 12 11  1  0  0  0  0
 13 12  2  0  0  0  0
 14 13  1  0  0  0  0
 15 14  2  0  0  0  0
 16 20  1  0  0  0  0
 18 16  1  0  0  0  0
 18 19  1  0  0  0  0
 19 22  1  0  0  0  0
 20 17  2  0  0  0  0
 20 21  1  0  0  0  0
 21 15  1  6  0  0  0
 22 23  1  6  0  0  0
 22 21  1  0  0  0  0
 24 23  1  0  0  0  0
 25 23  2  0  0  0  0
 26 27  1  0  0  0  0
 27 14  1  0  0  0  0
 29 31  1  0  0  0  0
 29 32  1  0  0  0  0
 30 43  1  1  0  0  0
 31 28  1  6  0  0  0
 31 30  1  0  0  0  0
 32 38  1  1  0  0  0
 32 30  1  0  0  0  0
 33 34  2  0  0  0  0
 35 33  1  0  0  0  0
 36 38  2  0  0  0  0
 36 35  1  0  0  0  0
 37 35  1  0  0  0  0
 38 34  1  0  0  0  0
 39 40  1  0  0  0  0
 40 36  1  0  0  0  0
 41 45  1  0  0  0  0
 42 41  1  0  0  0  0
 43 42  2  0  0  0  0
 43 44  1  0  0  0  0
 44 46  2  0  0  0  0
 46 45  1  0  0  0  0
M  END
>  <MODEL>
3

>  <REMARK>
 VINA RESULT:      -5.7      6.027     10.126
  Name = 
  15 active torsions:
  status: ('A' for Active; 'I' for Inactive)
    1  A    between atoms: C_1  and  CA_43
    2  A    between atoms: C_4  and  C_31
    3  A    between atoms: N_5  and  C_17
    4  A    between atoms: N_5  and  C_18
    5  A    between atoms: C_8  and  C_34
    6  A    between atoms: C_8  and  C_35
    7  A    between atoms: C_15  and  C_27
    8  A    between atoms: C_17  and  C_45
    9  A    between atoms: C_20  and  O_29
   10  A    between atoms: C_27  and  C_41
   11  A    between atoms: C_32  and  C_42
   12  A    between atoms: C_33  and  C_39
   13  A    between atoms: C_34  and  C_45
   14  A    between atoms: C_36  and  O_40
   15  A    between atoms: C_37  and  O_40
                            x       y       z     vdW  Elec       q    Type
                         _______ _______ _______ _____ _____    ______ ____

>  <TORSDO>
F 15

$$$$
=
 OpenBabel11072413543D

 46 50  0  0  1  0  0  0  0  0999 V2000
  160.8330  207.4350  152.2760 N   0  0  0  0  0  2  0  0  0  0  0  0
  162.7930  206.5350  151.5540 N   0  0  0  0  0  2  0  0  0  0  0  0
  161.9650  206.6960  152.6800 N   0  0  0  0  0  2  0  0  0  0  0  0
  162.5970  207.7230  150.7560 C   0  0  2  0  0  3  0  0  0  0  0  0
  161.2310  208.2060  151.1130 C   0  0  2  0  0  3  0  0  0  0  0  0
  162.6620  207.3830  149.2770 C   0  0  0  0  0  2  0  0  0  0  0  0
  161.1410  207.2340  148.6470 C   0  0  0  0  0  2  0  0  0  0  0  0
  161.0960  207.5460  148.0360 O   0  0  0  0  0  0  0  0  0  0  0  0
  161.1140  206.6610  147.2030 C   0  0  0  0  0  2  0  0  0  0  0  0
  160.0990  206.8080  146.1210 C   0  0  0  0  0  2  0  0  0  0  0  0
  160.5060  206.0510  144.9450 N   0  0  0  0  0  2  0  0  0  0  0  0
  160.2280  204.6600  144.7540 C   0  0  0  0  0  3  0  0  0  0  0  0
  160.8660  203.6520  145.3640 C   0  0  0  0  0  3  0  0  0  0  0  0
  162.0720  203.7270  146.2170 C   0  0  0  0  0  0  0  0  0  0  0  0
  162.0010  203.3990  147.5100 C   0  0  0  0  0  3  0  0  0  0  0  0
  160.1900  202.3300  150.5800 O   0  0  0  0  0  0  0  0  0  0  0  0
  161.4820  204.1870  150.2000 O   0  0  0  0  0  0  0  0  0  0  0  0
  159.6380  201.1000  150.1200 C   0  0  0  0  0  2  0  0  0  0  0  0
  159.0960  201.2470  148.7660 N   0  0  0  0  0  2  0  0  0  0  0  0
  160.8600  203.2030  149.7190 C   0  0  0  0  0  0  0  0  0  0  0  0
  160.7250  203.0470  148.2300 C   0  0  2  0  0  3  0  0  0  0  0  0
  160.1630  201.6600  147.8490 C   0  0  1  0  0  3  0  0  0  0  0  0
  161.1910  200.5760  147.6630 C   0  0  0  0  0  0  0  0  0  0  0  0
  161.2270  199.8200  146.4960 O   0  0  0  0  0  0  0  0  0  0  0  0
  162.0370  200.3620  148.5680 O   0  0  0  0  0  1  0  0  0  0  0  0
  164.3460  204.7160  146.5230 C   0  0  0  0  0  1  0  0  0  0  0  0
  163.4290  203.9190  145.6070 C   0  0  0  0  0  2  0  0  0  0  0  0
  161.2870  209.5750  151.4390 O   0  0  0  0  0  0  0  0  0  0  0  0
  159.7270  211.0420  152.5180 N   0  0  0  0  0  2  0  0  0  0  0  0
  161.4040  210.4190  153.7700 C   0  0  1  0  0  3  0  0  0  0  0  0
  160.5640  209.8470  152.6330 C   0  0  2  0  0  3  0  0  0  0  0  0
  160.4830  211.6390  153.6200 C   0  0  2  0  0  3  0  0  0  0  0  0
  158.8040  212.3860  156.8150 C   0  0  0  0  0  3  0  0  0  0  0  0
  159.9530  212.0160  156.1280 C   0  0  0  0  0  3  0  0  0  0  0  0
  157.7840  212.5430  155.9500 N   0  0  0  0  0  0  0  0  0  0  0  0
  158.2540  212.2820  154.7140 C   0  0  0  0  0  0  0  0  0  0  0  0
  156.4400  212.9430  156.3380 C   0  0  0  0  0  1  0  0  0  0  0  0
  159.5850  211.9430  154.7920 C   0  0  0  0  0  0  0  0  0  0  0  0
  157.3640  213.5390  152.7600 C   0  0  0  0  0  1  0  0  0  0  0  0
  157.5330  212.3500  153.5140 O   0  0  0  0  0  0  0  0  0  0  0  0
  162.0080  209.0020  157.2600 C   0  0  0  0  0  2  0  0  0  0  0  0
  162.1740  209.7090  155.9890 N   0  0  0  0  0  0  0  0  0  0  0  0
  161.2590  209.6530  155.0620 C   0  0  0  0  0  0  0  0  0  0  0  0
  160.1190  208.7960  155.2340 N   0  0  0  0  0  0  0  0  0  0  0  0
  161.2950  207.6680  157.0410 C   0  0  0  0  0  2  0  0  0  0  0  0
  160.0950  207.8890  156.1670 C   0  0  0  0  0  3  0  0  0  0  0  0
  1  3  1  0  0  0  0
  2  3  1  0  0  0  0
  4  6  1  6  0  0  0
  4  5  1  0  0  0  0
  4  2  1  0  0  0  0
  5 28  1  1  0  0  0
  5  1  1  0  0  0  0
  7  6  1  0  0  0  0
  8  7  1  0  0  0  0
  9  8  1  0  0  0  0
 10  9  1  0  0  0  0
 11 10  1  0  0  0  0
 12 11  1  0  0  0  0
 12 13  2  0  0  0  0
 13 14  1  0  0  0  0
 14 15  2  0  0  0  0
 18 16  1  0  0  0  0
 19 18  1  0  0  0  0
 20 17  2  0  0  0  0
 20 16  1  0  0  0  0
 21 15  1  6  0  0  0
 21 20  1  0  0  0  0
 22 23  1  1  0  0  0
 22 21  1  0  0  0  0
 22 19  1  0  0  0  0
 23 25  1  0  0  0  0
 24 23  2  0  0  0  0
 27 14  1  0  0  0  0
 27 26  1  0  0  0  0
 29 31  1  0  0  0  0
 29 32  1  0  0  0  0
 30 43  1  1  0  0  0
 31 28  1  6  0  0  0
 31 30  1  0  0  0  0
 32 30  1  0  0  0  0
 32 38  1  1  0  0  0
 34 33  2  0  0  0  0
 35 37  1  0  0  0  0
 35 33  1  0  0  0  0
 36 38  2  0  0  0  0
 36 35  1  0  0  0  0
 38 34  1  0  0  0  0
 39 40  1  0  0  0  0
 40 36  1  0  0  0  0
 42 41  1  0  0  0  0
 43 44  1  0  0  0  0
 43 42  2  0  0  0  0
 44 46  2  0  0  0  0
 45 41  1  0  0  0  0
 46 45  1  0  0  0  0
M  END
>  <MODEL>
4

>  <REMARK>
 VINA RESULT:      -5.7      2.015      3.878
  Name = 
  15 active torsions:
  status: ('A' for Active; 'I' for Inactive)
    1  A    between atoms: C_1  and  CA_43
    2  A    between atoms: C_4  and  C_31
    3  A    between atoms: N_5  and  C_17
    4  A    between atoms: N_5  and  C_18
    5  A    between atoms: C_8  and  C_34
    6  A    between atoms: C_8  and  C_35
    7  A    between atoms: C_15  and  C_27
    8  A    between atoms: C_17  and  C_45
    9  A    between atoms: C_20  and  O_29
   10  A    between atoms: C_27  and  C_41
   11  A    between atoms: C_32  and  C_42
   12  A    between atoms: C_33  and  C_39
   13  A    between atoms: C_34  and  C_45
   14  A    between atoms: C_36  and  O_40
   15  A    between atoms: C_37  and  O_40
                            x       y       z     vdW  Elec       q    Type
                         _______ _______ _______ _____ _____    ______ ____

>  <TORSDO>
F 15

$$$$
=
 OpenBabel11072413543D

 46 50  0  0  1  0  0  0  0  0999 V2000
  162.1560  210.2180  152.1230 N   0  0  0  0  0  2  0  0  0  0  0  0
  162.2010  208.9290  150.2500 N   0  0  0  0  0  2  0  0  0  0  0  0
  161.9930  210.2370  150.7220 N   0  0  0  0  0  2  0  0  0  0  0  0
  161.7390  208.0580  151.3070 C   0  0  2  0  0  3  0  0  0  0  0  0
  161.8800  208.8610  152.5570 C   0  0  2  0  0  3  0  0  0  0  0  0
  162.6060  206.8140  151.3820 C   0  0  0  0  0  2  0  0  0  0  0  0
  162.4620  206.0930  152.8630 C   0  0  0  0  0  2  0  0  0  0  0  0
  162.2380  205.6650  153.3520 O   0  0  0  0  0  0  0  0  0  0  0  0
  161.0530  205.4970  153.1360 C   0  0  0  0  0  2  0  0  0  0  0  0
  160.6030  204.0780  153.2230 C   0  0  0  0  0  2  0  0  0  0  0  0
  160.7190  203.4340  151.9210 N   0  0  0  0  0  2  0  0  0  0  0  0
  161.9630  203.0440  151.3310 C   0  0  0  0  0  3  0  0  0  0  0  0
  162.1190  202.6110  150.0720 C   0  0  0  0  0  3  0  0  0  0  0  0
  161.0650  202.2860  149.0870 C   0  0  0  0  0  0  0  0  0  0  0  0
  160.9430  203.0110  147.9710 C   0  0  0  0  0  3  0  0  0  0  0  0
  161.1960  206.6940  147.5050 O   0  0  0  0  0  0  0  0  0  0  0  0
  160.5590  205.4800  149.3440 O   0  0  0  0  0  0  0  0  0  0  0  0
  161.6120  206.7380  146.1430 C   0  0  0  0  0  2  0  0  0  0  0  0
  162.6420  205.7290  145.8810 N   0  0  0  0  0  2  0  0  0  0  0  0
  161.0980  205.4890  148.2050 C   0  0  0  0  0  0  0  0  0  0  0  0
  161.7490  204.2460  147.6660 C   0  0  2  0  0  3  0  0  0  0  0  0
  162.1120  204.3930  146.1720 C   0  0  1  0  0  3  0  0  0  0  0  0
  161.0290  203.9990  145.2030 C   0  0  0  0  0  0  0  0  0  0  0  0
  160.7820  202.6610  144.9170 O   0  0  0  0  0  1  0  0  0  0  0  0
  160.3300  204.8910  144.6580 O   0  0  0  0  0  0  0  0  0  0  0  0
  158.7900  201.2530  149.1420 C   0  0  0  0  0  1  0  0  0  0  0  0
  160.2910  201.0060  149.1900 C   0  0  0  0  0  2  0  0  0  0  0  0
  160.6730  208.8230  153.2790 O   0  0  0  0  0  0  0  0  0  0  0  0
  160.2000  210.1540  155.2170 N   0  0  0  0  0  2  0  0  0  0  0  0
  158.8670  210.5080  153.5250 C   0  0  1  0  0  3  0  0  0  0  0  0
  160.3220  210.1140  153.7600 C   0  0  2  0  0  3  0  0  0  0  0  0
  158.8010  210.5530  155.0590 C   0  0  2  0  0  3  0  0  0  0  0  0
  158.7260  214.0180  156.3140 C   0  0  0  0  0  3  0  0  0  0  0  0
  159.4270  212.9820  155.7090 C   0  0  0  0  0  3  0  0  0  0  0  0
  157.4820  213.6090  156.6260 N   0  0  0  0  0  0  0  0  0  0  0  0
  157.3650  212.3250  156.2310 C   0  0  0  0  0  0  0  0  0  0  0  0
  156.4810  214.4530  157.2580 C   0  0  0  0  0  1  0  0  0  0  0  0
  158.5510  211.9070  155.6730 C   0  0  0  0  0  0  0  0  0  0  0  0
  155.6370  210.8250  155.2520 C   0  0  0  0  0  1  0  0  0  0  0  0
  156.2250  211.5180  156.3420 O   0  0  0  0  0  0  0  0  0  0  0  0
  157.3990  213.6810  152.0000 C   0  0  0  0  0  2  0  0  0  0  0  0
  157.5400  212.3680  152.6320 N   0  0  0  0  0  0  0  0  0  0  0  0
  158.7150  211.8380  152.8300 C   0  0  0  0  0  0  0  0  0  0  0  0
  159.8880  212.4920  152.3200 N   0  0  0  0  0  0  0  0  0  0  0  0
  158.4580  213.8690  150.9140 C   0  0  0  0  0  2  0  0  0  0  0  0
  159.7960  213.4600  151.4560 C   0  0  0  0  0  3  0  0  0  0  0  0
  1  5  1  0  0  0  0
  2  3  1  0  0  0  0
  2  4  1  0  0  0  0
  3  1  1  0  0  0  0
  4  6  1  1  0  0  0
  4  5  1  0  0  0  0
  5 28  1  6  0  0  0
  6  7  1  0  0  0  0
  7  8  1  0  0  0  0
  9 10  1  0  0  0  0
  9  8  1  0  0  0  0
 11 10  1  0  0  0  0
 12 11  1  0  0  0  0
 13 12  2  0  0  0  0
 14 27  1  0  0  0  0
 14 13  1  0  0  0  0
 15 14  2  0  0  0  0
 16 20  1  0  0  0  0
 18 16  1  0  0  0  0
 19 18  1  0  0  0  0
 19 22  1  0  0  0  0
 20 17  2  0  0  0  0
 21 15  1  6  0  0  0
 21 20  1  0  0  0  0
 22 23  1  6  0  0  0
 22 21  1  0  0  0  0
 24 23  1  0  0  0  0
 25 23  2  0  0  0  0
 26 27  1  0  0  0  0
 30 43  1  6  0  0  0
 30 31  1  0  0  0  0
 30 32  1  0  0  0  0
 31 28  1  1  0  0  0
 31 29  1  0  0  0  0
 32 29  1  0  0  0  0
 32 38  1  6  0  0  0
 33 35  1  0  0  0  0
 34 33  2  0  0  0  0
 35 37  1  0  0  0  0
 36 40  1  0  0  0  0
 36 35  1  0  0  0  0
 38 34  1  0  0  0  0
 38 36  2  0  0  0  0
 39 40  1  0  0  0  0
 41 42  1  0  0  0  0
 42 43  2  0  0  0  0
 44 43  1  0  0  0  0
 45 46  1  0  0  0  0
 45 41  1  0  0  0  0
 46 44  2  0  0  0  0
M  END
>  <MODEL>
5

>  <REMARK>
 VINA RESULT:      -5.6      1.332      2.533
  Name = 
  15 active torsions:
  status: ('A' for Active; 'I' for Inactive)
    1  A    between atoms: C_1  and  CA_43
    2  A    between atoms: C_4  and  C_31
    3  A    between atoms: N_5  and  C_17
    4  A    between atoms: N_5  and  C_18
    5  A    between atoms: C_8  and  C_34
    6  A    between atoms: C_8  and  C_35
    7  A    between atoms: C_15  and  C_27
    8  A    between atoms: C_17  and  C_45
    9  A    between atoms: C_20  and  O_29
   10  A    between atoms: C_27  and  C_41
   11  A    between atoms: C_32  and  C_42
   12  A    between atoms: C_33  and  C_39
   13  A    between atoms: C_34  and  C_45
   14  A    between atoms: C_36  and  O_40
   15  A    between atoms: C_37  and  O_40
                            x       y       z     vdW  Elec       q    Type
                         _______ _______ _______ _____ _____    ______ ____

>  <TORSDO>
F 15

$$$$
=
 OpenBabel11072413543D

 46 50  0  0  1  0  0  0  0  0999 V2000
  162.3320  208.8510  149.4650 N   0  0  0  0  0  2  0  0  0  0  0  0
  160.9610  207.1940  150.2040 N   0  0  0  0  0  2  0  0  0  0  0  0
  161.0770  208.2390  149.2690 N   0  0  0  0  0  2  0  0  0  0  0  0
  161.6980  207.6320  151.3670 C   0  0  2  0  0  3  0  0  0  0  0  0
  162.7140  208.5910  150.8410 C   0  0  2  0  0  3  0  0  0  0  0  0
  162.3870  206.4530  152.0310 C   0  0  0  0  0  2  0  0  0  0  0  0
  161.3450  205.6660  153.0460 C   0  0  0  0  0  2  0  0  0  0  0  0
  161.1230  205.0570  153.2750 O   0  0  0  0  0  0  0  0  0  0  0  0
  160.5190  204.5480  152.3520 C   0  0  0  0  0  2  0  0  0  0  0  0
  160.8370  203.1100  152.1210 C   0  0  0  0  0  2  0  0  0  0  0  0
  161.8760  202.9830  151.1080 N   0  0  0  0  0  2  0  0  0  0  0  0
  162.1550  201.7720  150.3970 C   0  0  0  0  0  3  0  0  0  0  0  0
  161.5020  201.3470  149.3070 C   0  0  0  0  0  3  0  0  0  0  0  0
  160.2790  201.9170  148.7020 C   0  0  0  0  0  0  0  0  0  0  0  0
  160.3720  202.8120  147.7150 C   0  0  0  0  0  3  0  0  0  0  0  0
  162.5820  205.7310  147.0520 O   0  0  0  0  0  0  0  0  0  0  0  0
  161.7040  204.9640  149.0270 O   0  0  0  0  0  0  0  0  0  0  0  0
  162.7020  205.6280  145.6360 C   0  0  0  0  0  2  0  0  0  0  0  0
  162.9140  204.2340  145.2330 N   0  0  0  0  0  2  0  0  0  0  0  0
  161.9430  204.7470  147.8090 C   0  0  0  0  0  0  0  0  0  0  0  0
  161.6680  203.3940  147.2140 C   0  0  2  0  0  3  0  0  0  0  0  0
  161.7810  203.4150  145.6730 C   0  0  1  0  0  3  0  0  0  0  0  0
  160.5160  203.7680  144.9380 C   0  0  0  0  0  0  0  0  0  0  0  0
  160.1430  205.0960  144.7600 O   0  0  0  0  0  1  0  0  0  0  0  0
  159.7960  202.8520  144.4670 O   0  0  0  0  0  0  0  0  0  0  0  0
  158.9550  200.4960  150.2760 C   0  0  0  0  0  1  0  0  0  0  0  0
  158.9330  201.3260  149.0000 C   0  0  0  0  0  2  0  0  0  0  0  0
  162.6650  209.7830  151.5880 O   0  0  0  0  0  0  0  0  0  0  0  0
  160.6190  210.9060  152.1390 N   0  0  0  0  0  2  0  0  0  0  0  0
  161.8140  210.2980  153.8620 C   0  0  1  0  0  3  0  0  0  0  0  0
  161.5320  209.8040  152.4460 C   0  0  2  0  0  3  0  0  0  0  0  0
  160.8330  211.4200  153.4930 C   0  0  2  0  0  3  0  0  0  0  0  0
  157.4450  211.1860  154.9260 C   0  0  0  0  0  3  0  0  0  0  0  0
  158.3000  211.0040  153.8470 C   0  0  0  0  0  3  0  0  0  0  0  0
  158.1230  211.7120  155.9640 N   0  0  0  0  0  0  0  0  0  0  0  0
  159.4040  211.8720  155.5740 C   0  0  0  0  0  0  0  0  0  0  0  0
  157.5290  212.0150  157.2560 C   0  0  0  0  0  1  0  0  0  0  0  0
  159.5410  211.4560  154.2700 C   0  0  0  0  0  0  0  0  0  0  0  0
  160.5480  213.7130  156.7980 C   0  0  0  0  0  1  0  0  0  0  0  0
  160.4580  212.3680  156.3520 O   0  0  0  0  0  0  0  0  0  0  0  0
  159.9080  207.5800  155.7430 C   0  0  0  0  0  2  0  0  0  0  0  0
  160.3370  208.5360  154.7200 N   0  0  0  0  0  0  0  0  0  0  0  0
  161.3380  209.3460  154.9310 C   0  0  0  0  0  0  0  0  0  0  0  0
  161.9610  209.3890  156.2250 N   0  0  0  0  0  0  0  0  0  0  0  0
  160.0500  208.1900  157.1370 C   0  0  0  0  0  2  0  0  0  0  0  0
  161.4020  208.8310  157.2590 C   0  0  0  0  0  3  0  0  0  0  0  0
  1  5  1  0  0  0  0
  2  4  1  0  0  0  0
  3  1  1  0  0  0  0
  3  2  1  0  0  0  0
  4  6  1  6  0  0  0
  5  4  1  0  0  0  0
  5 28  1  1  0  0  0
  6  7  1  0  0  0  0
  7  8  1  0  0  0  0
  9  8  1  0  0  0  0
 10  9  1  0  0  0  0
 11 10  1  0  0  0  0
 12 11  1  0  0  0  0
 13 12  2  0  0  0  0
 14 27  1  0  0  0  0
 14 13  1  0  0  0  0
 15 14  2  0  0  0  0
 16 20  1  0  0  0  0
 18 16  1  0  0  0  0
 19 18  1  0  0  0  0
 19 22  1  0  0  0  0
 20 17  2  0  0  0  0
 21 15  1  6  0  0  0
 21 20  1  0  0  0  0
 22 23  1  6  0  0  0
 22 21  1  0  0  0  0
 24 23  1  0  0  0  0
 25 23  2  0  0  0  0
 27 26  1  0  0  0  0
 29 31  1  0  0  0  0
 29 32  1  0  0  0  0
 30 43  1  1  0  0  0
 31 28  1  6  0  0  0
 31 30  1  0  0  0  0
 32 30  1  0  0  0  0
 32 38  1  1  0  0  0
 33 35  1  0  0  0  0
 34 38  1  0  0  0  0
 34 33  2  0  0  0  0
 35 37  1  0  0  0  0
 36 35  1  0  0  0  0
 36 40  1  0  0  0  0
 38 36  2  0  0  0  0
 40 39  1  0  0  0  0
 41 45  1  0  0  0  0
 42 43  2  0  0  0  0
 42 41  1  0  0  0  0
 43 44  1  0  0  0  0
 44 46  2  0  0  0  0
 45 46  1  0  0  0  0
M  END
>  <MODEL>
6

>  <REMARK>
 VINA RESULT:      -5.4      1.527      2.264
  Name = 
  15 active torsions:
  status: ('A' for Active; 'I' for Inactive)
    1  A    between atoms: C_1  and  CA_43
    2  A    between atoms: C_4  and  C_31
    3  A    between atoms: N_5  and  C_17
    4  A    between atoms: N_5  and  C_18
    5  A    between atoms: C_8  and  C_34
    6  A    between atoms: C_8  and  C_35
    7  A    between atoms: C_15  and  C_27
    8  A    between atoms: C_17  and  C_45
    9  A    between atoms: C_20  and  O_29
   10  A    between atoms: C_27  and  C_41
   11  A    between atoms: C_32  and  C_42
   12  A    between atoms: C_33  and  C_39
   13  A    between atoms: C_34  and  C_45
   14  A    between atoms: C_36  and  O_40
   15  A    between atoms: C_37  and  O_40
                            x       y       z     vdW  Elec       q    Type
                         _______ _______ _______ _____ _____    ______ ____

>  <TORSDO>
F 15

$$$$
=
 OpenBabel11072413543D

 46 49  0  0  1  0  0  0  0  0999 V2000
  162.7770  206.4110  152.7640 N   0  0  0  0  0  2  0  0  0  0  0  0
  161.6100  206.3440  150.8140 N   0  0  0  0  0  2  0  0  0  0  0  0
  162.5060  207.1170  151.5740 N   0  0  0  0  0  2  0  0  0  0  0  0
  160.7940  205.6400  151.7750 C   0  0  2  0  0  3  0  0  0  0  0  0
  161.6430  205.5370  152.9980 C   0  0  2  0  0  3  0  0  0  0  0  0
  160.4480  204.2540  151.2600 C   0  0  0  0  0  1  0  0  0  0  0  0
  161.5650  203.1480  151.7710 C   0  0  0  0  0  1  0  0  0  0  0  0
  161.3780  202.9540  151.1390 O   0  0  0  0  0  0  0  0  0  0  0  0
  161.3830  201.7380  151.1430 C   0  0  0  0  0  2  0  0  0  0  0  0
  160.1930  201.1110  150.4990 C   0  0  0  0  0  2  0  0  0  0  0  0
  160.2760  201.2490  149.0520 N   0  0  0  0  0  2  0  0  0  0  0  0
  161.3980  200.8240  148.2720 C   0  0  0  0  0  3  0  0  0  0  0  0
  161.5830  201.0930  146.9720 C   0  0  0  0  0  3  0  0  0  0  0  0
  160.6290  201.7200  146.0310 C   0  0  0  0  0  0  0  0  0  0  0  0
  160.7270  203.0220  145.7460 C   0  0  0  0  0  3  0  0  0  0  0  0
  161.4410  205.8820  148.0140 O   0  0  0  0  0  0  0  0  0  0  0  0
  160.4600  203.8570  148.4570 O   0  0  0  0  0  0  0  0  0  0  0  0
  162.0170  206.7930  147.0820 C   0  0  0  0  0  2  0  0  0  0  0  0
  162.9530  206.1020  146.1910 N   0  0  0  0  0  2  0  0  0  0  0  0
  161.1270  204.5680  147.6600 C   0  0  0  0  0  0  0  0  0  0  0  0
  161.6950  203.9680  146.4050 C   0  0  2  0  0  3  0  0  0  0  0  0
  162.2460  205.0510  145.4510 C   0  0  1  0  0  3  0  0  0  0  0  0
  161.2490  205.6240  144.4810 C   0  0  0  0  0  0  0  0  0  0  0  0
  161.5700  205.7780  143.1370 O   0  0  0  0  0  0  0  0  0  0  0  0
  160.1070  205.9550  144.8890 O   0  0  0  0  0  1  0  0  0  0  0  0
  160.3210  199.5140  144.8980 C   0  0  0  0  0  1  0  0  0  0  0  0
  159.7120  200.8760  145.1960 C   0  0  0  0  0  2  0  0  0  0  0  0
  160.9130  205.9850  154.1160 O   0  0  0  0  0  0  0  0  0  0  0  0
  161.4530  207.6190  155.7860 N   0  0  0  0  0  2  0  0  0  0  0  0
  159.9260  208.2500  154.3590 C   0  0  1  0  0  3  0  0  0  0  0  0
  161.1660  207.3600  154.3750 C   0  0  2  0  0  3  0  0  0  0  0  0
  160.2870  208.5020  155.8310 C   0  0  2  0  0  3  0  0  0  0  0  0
  161.8220  211.7830  156.5100 C   0  0  0  0  0  3  0  0  0  0  0  0
  161.9690  210.4410  156.1830 C   0  0  0  0  0  3  0  0  0  0  0  0
  160.5200  212.0700  156.6950 N   0  0  0  0  0  0  0  0  0  0  0  0
  159.8200  210.9350  156.4900 C   0  0  0  0  0  0  0  0  0  0  0  0
  160.0170  213.3910  157.0350 C   0  0  0  0  0  1  0  0  0  0  0  0
  160.6860  209.9120  156.1850 C   0  0  0  0  0  0  0  0  0  0  0  0
  157.5090  211.8340  156.2750 C   0  0  0  0  0  1  0  0  0  0  0  0
  158.4280  210.7890  156.5560 O   0  0  0  0  0  0  0  0  0  0  0  0
  161.2990  210.8430  151.9210 C   0  0  0  0  0  2  0  0  0  0  0  0
  161.1860  209.7120  152.8440 N   0  0  0  0  0  0  0  0  0  0  0  0
  160.0610  209.4430  153.4450 C   0  0  0  0  0  0  0  0  0  0  0  0
  158.9410  210.3310  153.2960 N   0  0  0  0  0  0  0  0  0  0  0  0
  160.4520  212.0180  152.4090 C   0  0  0  0  0  2  0  0  0  0  0  0
  159.0880  211.5190  152.7870 C   0  0  0  0  0  3  0  0  0  0  0  0
  1  5  1  0  0  0  0
  2  3  1  0  0  0  0
  2  4  1  0  0  0  0
  3  1  1  0  0  0  0
  4  6  1  6  0  0  0
  4  5  1  0  0  0  0
  5 28  1  1  0  0  0
  8  9  1  0  0  0  0
  8  7  1  0  0  0  0
 10  9  1  0  0  0  0
 11 10  1  0  0  0  0
 12 11  1  0  0  0  0
 13 12  2  0  0  0  0
 14 13  1  0  0  0  0
 15 14  2  0  0  0  0
 18 16  1  0  0  0  0
 19 18  1  0  0  0  0
 20 16  1  0  0  0  0
 20 17  2  0  0  0  0
 21 15  1  6  0  0  0
 21 20  1  0  0  0  0
 22 23  1  1  0  0  0
 22 19  1  0  0  0  0
 22 21  1  0  0  0  0
 23 25  1  0  0  0  0
 24 23  2  0  0  0  0
 26 27  1  0  0  0  0
 27 14  1  0  0  0  0
 29 32  1  0  0  0  0
 30 43  1  6  0  0  0
 30 31  1  0  0  0  0
 30 32  1  0  0  0  0
 31 28  1  1  0  0  0
 31 29  1  0  0  0  0
 32 38  1  6  0  0  0
 33 35  1  0  0  0  0
 34 38  1  0  0  0  0
 34 33  2  0  0  0  0
 35 37  1  0  0  0  0
 36 40  1  0  0  0  0
 36 35  1  0  0  0  0
 38 36  2  0  0  0  0
 39 40  1  0  0  0  0
 41 45  1  0  0  0  0
 41 42  1  0  0  0  0
 42 43  2  0  0  0  0
 44 43  1  0  0  0  0
 45 46  1  0  0  0  0
 46 44  2  0  0  0  0
M  END
>  <MODEL>
7

>  <REMARK>
 VINA RESULT:      -5.1      1.972      3.802
  Name = 
  15 active torsions:
  status: ('A' for Active; 'I' for Inactive)
    1  A    between atoms: C_1  and  CA_43
    2  A    between atoms: C_4  and  C_31
    3  A    between atoms: N_5  and  C_17
    4  A    between atoms: N_5  and  C_18
    5  A    between atoms: C_8  and  C_34
    6  A    between atoms: C_8  and  C_35
    7  A    between atoms: C_15  and  C_27
    8  A    between atoms: C_17  and  C_45
    9  A    between atoms: C_20  and  O_29
   10  A    between atoms: C_27  and  C_41
   11  A    between atoms: C_32  and  C_42
   12  A    between atoms: C_33  and  C_39
   13  A    between atoms: C_34  and  C_45
   14  A    between atoms: C_36  and  O_40
   15  A    between atoms: C_37  and  O_40
                            x       y       z     vdW  Elec       q    Type
                         _______ _______ _______ _____ _____    ______ ____

>  <TORSDO>
F 15

$$$$
=
 OpenBabel11072413543D

 46 50  0  0  1  0  0  0  0  0999 V2000
  162.8540  207.9450  150.0740 N   0  0  0  0  0  2  0  0  0  0  0  0
  161.9770  209.9790  150.5870 N   0  0  0  0  0  2  0  0  0  0  0  0
  162.1560  208.6680  151.0630 N   0  0  0  0  0  2  0  0  0  0  0  0
  161.8530  209.8580  149.1530 C   0  0  2  0  0  3  0  0  0  0  0  0
  162.5870  208.6050  148.8090 C   0  0  2  0  0  3  0  0  0  0  0  0
  162.4980  211.0480  148.4650 C   0  0  0  0  0  2  0  0  0  0  0  0
  161.3450  212.0930  147.9070 C   0  0  0  0  0  2  0  0  0  0  0  0
  161.8080  212.4040  147.5050 O   0  0  0  0  0  0  0  0  0  0  0  0
  161.3870  212.3080  146.3690 C   0  0  0  0  0  2  0  0  0  0  0  0
  161.4730  213.5630  145.5680 C   0  0  0  0  0  2  0  0  0  0  0  0
  160.7640  213.4020  144.3060 N   0  0  0  0  0  2  0  0  0  0  0  0
  160.2730  212.1490  143.8190 C   0  0  0  0  0  3  0  0  0  0  0  0
  159.9480  211.8870  142.5460 C   0  0  0  0  0  3  0  0  0  0  0  0
  159.8600  212.8400  141.4180 C   0  0  0  0  0  0  0  0  0  0  0  0
  160.2990  212.4880  140.2070 C   0  0  0  0  0  3  0  0  0  0  0  0
  162.6870  210.4890  138.1720 O   0  0  0  0  0  0  0  0  0  0  0  0
  163.0420  212.3650  139.4420 O   0  0  0  0  0  0  0  0  0  0  0  0
  161.7960  209.5100  137.6440 C   0  0  0  0  0  2  0  0  0  0  0  0
  160.8810  209.0270  138.6810 N   0  0  0  0  0  2  0  0  0  0  0  0
  162.2780  211.4110  139.1370 C   0  0  0  0  0  0  0  0  0  0  0  0
  161.0010  211.1920  139.8990 C   0  0  2  0  0  3  0  0  0  0  0  0
  160.0960  210.1480  139.2090 C   0  0  1  0  0  3  0  0  0  0  0  0
  159.1460  210.6980  138.1790 C   0  0  0  0  0  0  0  0  0  0  0  0
  157.8230  210.9770  138.5070 O   0  0  0  0  0  1  0  0  0  0  0  0
  159.5580  210.9220  137.0130 O   0  0  0  0  0  0  0  0  0  0  0  0
  157.9760  214.1860  140.4790 C   0  0  0  0  0  1  0  0  0  0  0  0
  159.0590  214.1020  141.5450 C   0  0  0  0  0  2  0  0  0  0  0  0
  161.7700  207.7880  148.0040 O   0  0  0  0  0  0  0  0  0  0  0  0
  162.0880  205.5740  147.1390 N   0  0  0  0  0  2  0  0  0  0  0  0
  160.6720  205.7080  148.7950 C   0  0  1  0  0  3  0  0  0  0  0  0
  161.9410  206.4150  148.3280 C   0  0  2  0  0  3  0  0  0  0  0  0
  160.8870  204.8430  147.5440 C   0  0  2  0  0  3  0  0  0  0  0  0
  161.6350  201.4350  148.7320 C   0  0  0  0  0  3  0  0  0  0  0  0
  161.5010  202.7910  149.0020 C   0  0  0  0  0  3  0  0  0  0  0  0
  161.4110  201.2040  147.4250 N   0  0  0  0  0  0  0  0  0  0  0  0
  161.1330  202.3890  146.8430 C   0  0  0  0  0  0  0  0  0  0  0  0
  161.4570  199.8870  146.8100 C   0  0  0  0  0  1  0  0  0  0  0  0
  161.1930  203.3870  147.7880 C   0  0  0  0  0  0  0  0  0  0  0  0
  159.7760  201.9240  144.8100 C   0  0  0  0  0  1  0  0  0  0  0  0
  160.8160  202.6040  145.4960 O   0  0  0  0  0  0  0  0  0  0  0  0
  160.1330  203.4210  151.8010 C   0  0  0  0  0  2  0  0  0  0  0  0
  159.9450  204.1480  150.5440 N   0  0  0  0  0  0  0  0  0  0  0  0
  160.8390  204.9930  150.1140 C   0  0  0  0  0  0  0  0  0  0  0  0
  161.9750  205.3100  150.9340 N   0  0  0  0  0  0  0  0  0  0  0  0
  160.8300  204.3080  152.8320 C   0  0  0  0  0  2  0  0  0  0  0  0
  162.0120  204.9730  152.1900 C   0  0  0  0  0  3  0  0  0  0  0  0
  1  3  1  0  0  0  0
  2  3  1  0  0  0  0
  4  6  1  6  0  0  0
  4  2  1  0  0  0  0
  5 28  1  6  0  0  0
  5  4  1  0  0  0  0
  5  1  1  0  0  0  0
  7  6  1  0  0  0  0
  8  7  1  0  0  0  0
  9  8  1  0  0  0  0
 10  9  1  0  0  0  0
 11 10  1  0  0  0  0
 12 11  1  0  0  0  0
 13 12  2  0  0  0  0
 14 27  1  0  0  0  0
 14 13  1  0  0  0  0
 15 14  2  0  0  0  0
 16 20  1  0  0  0  0
 18 16  1  0  0  0  0
 18 19  1  0  0  0  0
 19 22  1  0  0  0  0
 20 17  2  0  0  0  0
 20 21  1  0  0  0  0
 21 15  1  6  0  0  0
 22 23  1  6  0  0  0
 22 21  1  0  0  0  0
 23 24  1  0  0  0  0
 25 23  2  0  0  0  0
 26 27  1  0  0  0  0
 29 32  1  0  0  0  0
 29 31  1  0  0  0  0
 30 43  1  1  0  0  0
 31 28  1  6  0  0  0
 31 30  1  0  0  0  0
 32 38  1  1  0  0  0
 32 30  1  0  0  0  0
 33 34  2  0  0  0  0
 35 33  1  0  0  0  0
 36 35  1  0  0  0  0
 36 38  2  0  0  0  0
 37 35  1  0  0  0  0
 38 34  1  0  0  0  0
 39 40  1  0  0  0  0
 40 36  1  0  0  0  0
 41 45  1  0  0  0  0
 42 41  1  0  0  0  0
 43 42  2  0  0  0  0
 43 44  1  0  0  0  0
 44 46  2  0  0  0  0
 46 45  1  0  0  0  0
M  END
>  <MODEL>
8

>  <REMARK>
 VINA RESULT:      -5.0      5.779     10.536
  Name = 
  15 active torsions:
  status: ('A' for Active; 'I' for Inactive)
    1  A    between atoms: C_1  and  CA_43
    2  A    between atoms: C_4  and  C_31
    3  A    between atoms: N_5  and  C_17
    4  A    between atoms: N_5  and  C_18
    5  A    between atoms: C_8  and  C_34
    6  A    between atoms: C_8  and  C_35
    7  A    between atoms: C_15  and  C_27
    8  A    between atoms: C_17  and  C_45
    9  A    between atoms: C_20  and  O_29
   10  A    between atoms: C_27  and  C_41
   11  A    between atoms: C_32  and  C_42
   12  A    between atoms: C_33  and  C_39
   13  A    between atoms: C_34  and  C_45
   14  A    between atoms: C_36  and  O_40
   15  A    between atoms: C_37  and  O_40
                            x       y       z     vdW  Elec       q    Type
                         _______ _______ _______ _____ _____    ______ ____

>  <TORSDO>
F 15

$$$$
=
 OpenBabel11072413543D

 46 50  0  0  1  0  0  0  0  0999 V2000
  159.7410  208.3430  155.4490 N   0  0  0  0  0  2  0  0  0  0  0  0
  160.7330  206.3320  155.0680 N   0  0  0  0  0  2  0  0  0  0  0  0
  160.1280  207.1300  156.0560 N   0  0  0  0  0  2  0  0  0  0  0  0
  161.3770  207.2570  154.1640 C   0  0  2  0  0  3  0  0  0  0  0  0
  160.6030  208.5260  154.2960 C   0  0  2  0  0  3  0  0  0  0  0  0
  161.2990  206.7420  152.7380 C   0  0  0  0  0  2  0  0  0  0  0  0
  162.3560  207.5600  151.7650 C   0  0  0  0  0  2  0  0  0  0  0  0
  162.1970  207.4530  151.1040 O   0  0  0  0  0  0  0  0  0  0  0  0
  161.6640  208.4740  150.7170 C   0  0  0  0  0  2  0  0  0  0  0  0
  162.1370  208.9540  149.3860 C   0  0  0  0  0  2  0  0  0  0  0  0
  162.0510  207.8800  148.4070 N   0  0  0  0  0  2  0  0  0  0  0  0
  160.8250  207.2540  148.0120 C   0  0  0  0  0  3  0  0  0  0  0  0
  160.7070  205.9950  147.5690 C   0  0  0  0  0  3  0  0  0  0  0  0
  161.7910  205.0460  147.2340 C   0  0  0  0  0  0  0  0  0  0  0  0
  161.7720  203.8050  147.7280 C   0  0  0  0  0  3  0  0  0  0  0  0
  160.9230  202.2910  151.0190 O   0  0  0  0  0  0  0  0  0  0  0  0
  162.0090  204.2520  150.5330 O   0  0  0  0  0  0  0  0  0  0  0  0
  160.2960  201.0900  150.5790 C   0  0  0  0  0  2  0  0  0  0  0  0
  159.3920  201.3560  149.4560 N   0  0  0  0  0  2  0  0  0  0  0  0
  161.3020  203.2940  150.1230 C   0  0  0  0  0  0  0  0  0  0  0  0
  160.7590  203.2990  148.7210 C   0  0  2  0  0  3  0  0  0  0  0  0
  160.1490  201.9330  148.3390 C   0  0  1  0  0  3  0  0  0  0  0  0
  161.1100  200.9400  147.7440 C   0  0  0  0  0  0  0  0  0  0  0  0
  161.1140  200.6830  146.3770 O   0  0  0  0  0  0  0  0  0  0  0  0
  161.9300  200.3470  148.4900 O   0  0  0  0  0  1  0  0  0  0  0  0
  162.1230  205.3610  144.7770 C   0  0  0  0  0  1  0  0  0  0  0  0
  162.7780  205.3650  146.1510 C   0  0  0  0  0  2  0  0  0  0  0  0
  161.4900  209.5960  154.5230 O   0  0  0  0  0  0  0  0  0  0  0  0
  160.4750  210.9940  156.1870 N   0  0  0  0  0  2  0  0  0  0  0  0
  159.3160  210.7800  154.3490 C   0  0  1  0  0  3  0  0  0  0  0  0
  160.7820  210.8040  154.7690 C   0  0  2  0  0  3  0  0  0  0  0  0
  159.0520  210.9990  155.8460 C   0  0  2  0  0  3  0  0  0  0  0  0
  158.0150  214.4530  156.6080 C   0  0  0  0  0  3  0  0  0  0  0  0
  159.0220  213.5520  156.2850 C   0  0  0  0  0  3  0  0  0  0  0  0
  156.8410  213.8040  156.7300 N   0  0  0  0  0  0  0  0  0  0  0  0
  157.0720  212.4970  156.4890 C   0  0  0  0  0  0  0  0  0  0  0  0
  155.5800  214.4530  157.0480 C   0  0  0  0  0  1  0  0  0  0  0  0
  158.4090  212.3100  156.2230 C   0  0  0  0  0  0  0  0  0  0  0  0
  154.9310  211.4890  157.2580 C   0  0  0  0  0  1  0  0  0  0  0  0
  156.1220  211.4680  156.4860 O   0  0  0  0  0  0  0  0  0  0  0  0
  159.4590  213.6890  151.8850 C   0  0  0  0  0  2  0  0  0  0  0  0
  159.8370  212.6050  152.7950 N   0  0  0  0  0  0  0  0  0  0  0  0
  158.9340  211.9290  153.4490 C   0  0  0  0  0  0  0  0  0  0  0  0
  157.5540  212.3210  153.3730 N   0  0  0  0  0  0  0  0  0  0  0  0
  158.2560  214.4530  152.4360 C   0  0  0  0  0  2  0  0  0  0  0  0
  157.2090  213.4720  152.8760 C   0  0  0  0  0  3  0  0  0  0  0  0
  1  3  1  0  0  0  0
  2  3  1  0  0  0  0
  4  6  1  6  0  0  0
  4  5  1  0  0  0  0
  4  2  1  0  0  0  0
  5 28  1  1  0  0  0
  5  1  1  0  0  0  0
  7  6  1  0  0  0  0
  8  7  1  0  0  0  0
  9  8  1  0  0  0  0
 10  9  1  0  0  0  0
 11 10  1  0  0  0  0
 12 11  1  0  0  0  0
 13 12  2  0  0  0  0
 14 13  1  0  0  0  0
 14 15  2  0  0  0  0
 18 16  1  0  0  0  0
 19 18  1  0  0  0  0
 20 17  2  0  0  0  0
 20 16  1  0  0  0  0
 21 15  1  6  0  0  0
 21 20  1  0  0  0  0
 22 23  1  1  0  0  0
 22 21  1  0  0  0  0
 22 19  1  0  0  0  0
 23 25  1  0  0  0  0
 24 23  2  0  0  0  0
 26 27  1  0  0  0  0
 27 14  1  0  0  0  0
 30 43  1  6  0  0  0
 30 31  1  0  0  0  0
 30 32  1  0  0  0  0
 31 28  1  1  0  0  0
 31 29  1  0  0  0  0
 32 29  1  0  0  0  0
 32 38  1  6  0  0  0
 33 35  1  0  0  0  0
 34 33  2  0  0  0  0
 35 37  1  0  0  0  0
 36 35  1  0  0  0  0
 38 34  1  0  0  0  0
 38 36  2  0  0  0  0
 40 36  1  0  0  0  0
 40 39  1  0  0  0  0
 41 45  1  0  0  0  0
 41 42  1  0  0  0  0
 42 43  2  0  0  0  0
 44 43  1  0  0  0  0
 45 46  1  0  0  0  0
 46 44  2  0  0  0  0
M  END
>  <MODEL>
9

>  <REMARK>
 VINA RESULT:      -4.8      1.997      4.233
  Name = 
  15 active torsions:
  status: ('A' for Active; 'I' for Inactive)
    1  A    between atoms: C_1  and  CA_43
    2  A    between atoms: C_4  and  C_31
    3  A    between atoms: N_5  and  C_17
    4  A    between atoms: N_5  and  C_18
    5  A    between atoms: C_8  and  C_34
    6  A    between atoms: C_8  and  C_35
    7  A    between atoms: C_15  and  C_27
    8  A    between atoms: C_17  and  C_45
    9  A    between atoms: C_20  and  O_29
   10  A    between atoms: C_27  and  C_41
   11  A    between atoms: C_32  and  C_42
   12  A    between atoms: C_33  and  C_39
   13  A    between atoms: C_34  and  C_45
   14  A    between atoms: C_36  and  O_40
   15  A    between atoms: C_37  and  O_40
                            x       y       z     vdW  Elec       q    Type
                         _______ _______ _______ _____ _____    ______ ____

>  <TORSDO>
F 15

$$$$
