=
 OpenBabel11072413313D

 36 40  0  0  1  0  0  0  0  0999 V2000
  161.2310  208.7420  150.9010 C   0  0  1  0  0  3  0  0  0  0  0  0
  159.0010  213.0460  148.8360 C   0  0  2  0  0  3  0  0  0  0  0  0
  159.7630  211.2530  152.9140 S   0  0  0  0  0  0  0  0  0  0  0  0
  162.9730  206.5170  147.7150 O   0  0  0  0  0  1  0  0  0  0  0  0
  161.1720  209.0450  152.2010 C   0  0  2  0  0  3  0  0  0  0  0  0
  159.0280  211.4400  151.2980 C   0  0  0  0  0  2  0  0  0  0  0  0
  160.8800  207.5420  154.1690 N   0  0  0  0  0  0  0  0  0  0  0  0
  162.3870  207.2570  148.7330 C   0  0  0  0  0  0  0  0  0  0  0  0
  160.4760  206.8020  151.9630 N   0  0  0  0  0  2  0  0  0  0  0  0
  162.3320  210.7260  149.9300 C   0  0  0  0  0  3  0  0  0  0  0  0
  161.5820  206.5720  149.7700 C   0  0  0  0  0  0  0  0  0  0  0  0
  159.7200  214.3990  146.7990 C   0  0  0  0  0  2  0  0  0  0  0  0
  163.2310  210.7110  154.1520 O   0  0  0  0  0  0  0  0  0  0  0  0
  158.1790  214.0360  151.2490 O   0  0  0  0  0  1  0  0  0  0  0  0
  162.5620  208.5850  148.7610 C   0  0  0  0  0  3  0  0  0  0  0  0
  162.4300  211.7260  147.6210 C   0  0  0  0  0  2  0  0  0  0  0  0
  159.1780  214.4530  148.2310 C   0  0  0  0  0  2  0  0  0  0  0  0
  160.7680  213.7140  150.9830 O   0  0  0  0  0  0  0  0  0  0  0  0
  158.8330  210.4210  153.7510 O   0  0  0  0  0  0  0  0  0  0  0  0
  161.3380  208.3400  155.2730 C   0  0  0  0  0  0  0  0  0  0  0  0
  159.2190  213.1250  150.6370 P   0  0  2  0  0  0  0  0  0  0  0  0
  161.3000  212.7090  147.8710 C   0  0  1  0  0  3  0  0  0  0  0  0
  161.0890  213.7020  146.7220 C   0  0  0  0  0  2  0  0  0  0  0  0
  163.1810  211.4460  148.9220 C   0  0  0  0  0  2  0  0  0  0  0  0
  161.3600  209.8310  155.2710 C   0  0  0  0  0  2  0  0  0  0  0  0
  160.7440  207.8290  152.9050 C   0  0  0  0  0  0  0  0  0  0  0  0
  159.9520  212.5890  153.5800 O   0  0  0  0  0  0  0  0  0  0  0  0
  162.0630  210.3670  154.0750 C   0  0  0  0  0  0  0  0  0  0  0  0
  161.5900  205.3150  149.8460 O   0  0  0  0  0  0  0  0  0  0  0  0
  161.3520  210.4210  152.7680 C   0  0  2  0  0  3  0  0  0  0  0  0
  162.0160  209.4300  149.8490 C   0  0  0  0  0  0  0  0  0  0  0  0
  161.6650  207.7540  156.3370 O   0  0  0  0  0  0  0  0  0  0  0  0
  159.9990  212.0160  148.2890 C   0  0  2  0  0  3  0  0  0  0  0  0
  160.6610  207.3790  150.6400 C   0  0  2  0  0  3  0  0  0  0  0  0
  158.1010  211.8270  146.6820 C   0  0  0  0  0  1  0  0  0  0  0  0
  159.3890  211.1870  147.1640 C   0  0  0  0  0  2  0  0  0  0  0  0
  1 31  1  1  0  0  0
  1  5  1  0  0  0  0
  2 17  1  6  0  0  0
  2 21  1  0  0  0  0
  3 27  2  0  0  0  0
  3 19  2  0  0  0  0
  4  8  1  0  0  0  0
  5 30  1  0  0  0  0
  5 26  1  6  0  0  0
  6  3  1  0  0  0  0
  7 20  1  0  0  0  0
  8 15  2  0  0  0  0
  8 11  1  0  0  0  0
  9 26  1  0  0  0  0
 11 29  2  0  0  0  0
 12 17  1  0  0  0  0
 15 31  1  0  0  0  0
 16 22  1  0  0  0  0
 16 24  1  0  0  0  0
 20 32  2  0  0  0  0
 21 18  2  1  0  0  0
 21 14  1  0  0  0  0
 21  6  1  0  0  0  0
 22 23  1  6  0  0  0
 22 33  1  0  0  0  0
 23 12  1  0  0  0  0
 24 10  1  0  0  0  0
 25 20  1  0  0  0  0
 26  7  2  0  0  0  0
 28 13  2  0  0  0  0
 28 25  1  0  0  0  0
 30  3  1  0  0  0  0
 30 28  1  1  0  0  0
 31 10  2  0  0  0  0
 33 36  1  6  0  0  0
 33  2  1  0  0  0  0
 34 11  1  6  0  0  0
 34  1  1  0  0  0  0
 34  9  1  0  0  0  0
 35 36  1  0  0  0  0
M  END
>  <MODEL>
1

>  <REMARK>
 VINA RESULT:       2.6      0.000      0.000
  Name = 
  1 active torsions:
  status: ('A' for Active; 'I' for Inactive)
    1  A    between atoms: C_26  and  C_35
                            x       y       z     vdW  Elec       q    Type
                         _______ _______ _______ _____ _____    ______ ____

>  <TORSDO>
F 1

$$$$
=
 OpenBabel11072413313D

 36 40  0  0  1  0  0  0  0  0999 V2000
  158.7560  212.6430  149.8130 C   0  0  1  0  0  3  0  0  0  0  0  0
  160.7910  208.9760  153.0020 C   0  0  2  0  0  3  0  0  0  0  0  0
  161.6770  210.8320  148.9780 S   0  0  0  0  0  0  0  0  0  0  0  0
  155.4720  214.4530  151.8320 O   0  0  0  0  0  1  0  0  0  0  0  0
  159.7060  212.6960  148.8750 C   0  0  2  0  0  3  0  0  0  0  0  0
  160.8250  209.8390  150.1920 C   0  0  0  0  0  2  0  0  0  0  0  0
  159.5020  213.1520  146.4330 N   0  0  0  0  0  0  0  0  0  0  0  0
  156.5400  213.8380  151.1930 C   0  0  0  0  0  0  0  0  0  0  0  0
  157.6200  212.6520  147.7700 N   0  0  0  0  0  2  0  0  0  0  0  0
  160.0330  212.9620  151.9000 C   0  0  0  0  0  3  0  0  0  0  0  0
  156.4140  213.4330  149.7750 C   0  0  0  0  0  0  0  0  0  0  0  0
  160.9050  208.9560  155.5480 C   0  0  0  0  0  2  0  0  0  0  0  0
  162.4790  214.4530  148.6710 O   0  0  0  0  0  0  0  0  0  0  0  0
  162.7890  208.2770  151.2710 O   0  0  0  0  0  0  0  0  0  0  0  0
  157.6740  213.6230  151.8730 C   0  0  0  0  0  3  0  0  0  0  0  0
  159.6060  212.4160  154.3210 C   0  0  0  0  0  2  0  0  0  0  0  0
  161.6440  208.6440  154.2430 C   0  0  0  0  0  2  0  0  0  0  0  0
  162.8050  210.7760  152.0630 O   0  0  0  0  0  1  0  0  0  0  0  0
  161.3000  210.3200  147.6160 O   0  0  0  0  0  0  0  0  0  0  0  0
  160.8360  213.5210  146.0460 C   0  0  0  0  0  0  0  0  0  0  0  0
  161.8770  209.4310  151.6200 P   0  0  2  0  0  0  0  0  0  0  0  0
  160.3640  211.1000  154.2800 C   0  0  1  0  0  3  0  0  0  0  0  0
  160.5150  210.4400  155.6560 C   0  0  0  0  0  2  0  0  0  0  0  0
  160.2110  213.4040  153.3250 C   0  0  0  0  0  2  0  0  0  0  0  0
  162.0620  213.1090  146.7890 C   0  0  0  0  0  2  0  0  0  0  0  0
  159.0230  212.7500  147.5760 C   0  0  0  0  0  0  0  0  0  0  0  0
  163.1680  210.7230  149.1410 O   0  0  0  0  0  0  0  0  0  0  0  0
  161.9630  213.4370  148.2350 C   0  0  0  0  0  0  0  0  0  0  0  0
  155.4240  213.8160  149.0950 O   0  0  0  0  0  0  0  0  0  0  0  0
  161.1750  212.5530  149.1370 C   0  0  2  0  0  3  0  0  0  0  0  0
  158.8730  213.0260  151.2400 C   0  0  0  0  0  0  0  0  0  0  0  0
  160.9920  214.1600  144.9740 O   0  0  0  0  0  0  0  0  0  0  0  0
  159.8100  210.1350  153.2270 C   0  0  2  0  0  3  0  0  0  0  0  0
  157.4010  212.4600  149.1960 C   0  0  2  0  0  3  0  0  0  0  0  0
  157.4940  210.7960  153.8760 C   0  0  0  0  0  1  0  0  0  0  0  0
  158.4140  209.6290  153.5730 C   0  0  0  0  0  2  0  0  0  0  0  0
  1 31  1  6  0  0  0
  2 33  1  0  0  0  0
  2 17  1  1  0  0  0
  3 30  1  0  0  0  0
  3 27  2  0  0  0  0
  3  6  1  0  0  0  0
  5 26  1  6  0  0  0
  5 30  1  0  0  0  0
  5  1  1  0  0  0  0
  6 21  1  0  0  0  0
  7 26  2  0  0  0  0
  8  4  1  0  0  0  0
  8 15  2  0  0  0  0
 10 24  1  0  0  0  0
 11  8  1  0  0  0  0
 12 23  1  0  0  0  0
 17 12  1  0  0  0  0
 19  3  2  0  0  0  0
 20  7  1  0  0  0  0
 20 25  1  0  0  0  0
 21 14  2  6  0  0  0
 21 18  1  0  0  0  0
 21  2  1  0  0  0  0
 22 16  1  1  0  0  0
 22 23  1  0  0  0  0
 24 16  1  0  0  0  0
 25 28  1  0  0  0  0
 26  9  1  0  0  0  0
 28 13  2  0  0  0  0
 29 11  2  0  0  0  0
 30 28  1  6  0  0  0
 31 15  1  0  0  0  0
 31 10  2  0  0  0  0
 32 20  2  0  0  0  0
 33 36  1  1  0  0  0
 33 22  1  0  0  0  0
 34  9  1  6  0  0  0
 34 11  1  0  0  0  0
 34  1  1  0  0  0  0
 36 35  1  0  0  0  0
M  END
>  <MODEL>
2

>  <REMARK>
 VINA RESULT:       5.4      3.262      7.511
  Name = 
  1 active torsions:
  status: ('A' for Active; 'I' for Inactive)
    1  A    between atoms: C_26  and  C_35
                            x       y       z     vdW  Elec       q    Type
                         _______ _______ _______ _____ _____    ______ ____

>  <TORSDO>
F 1

$$$$
