=
 OpenBabel11072414243D

 26 28  0  0  1  0  0  0  0  0999 V2000
  160.8490  211.5080  153.3310 C   0  0  1  0  0  3  0  0  0  0  0  0
  159.0680  211.9890  154.8440 C   0  0  2  0  0  0  0  0  0  0  0  0
  159.9880  212.7060  152.8820 C   0  0  2  0  0  3  0  0  0  0  0  0
  160.4120  211.3030  154.7560 C   0  0  0  0  0  2  0  0  0  0  0  0
  159.0030  212.9840  153.8580 O   0  0  0  0  0  0  0  0  0  0  0  0
  157.6650  214.2020  152.1990 O   0  0  0  0  0  1  0  0  0  0  0  0
  156.5840  213.8280  149.5860 O   0  0  0  0  0  0  0  0  0  0  0  0
  160.1040  213.4120  150.4290 C   0  0  0  0  0  2  0  0  0  0  0  0
  157.6610  213.4200  149.9880 C   0  0  0  0  0  0  0  0  0  0  0  0
  159.0980  213.3520  148.9230 S   0  0  0  0  0  0  0  0  0  0  0  0
  159.3440  212.6140  151.4830 C   0  0  2  0  0  3  0  0  0  0  0  0
  157.8780  213.0640  151.4140 C   0  0  1  0  0  3  0  0  0  0  0  0
  160.6890  210.2390  152.4680 C   0  0  1  0  0  3  0  0  0  0  0  0
  161.6870  207.8030  151.1400 C   0  0  2  0  0  3  0  0  0  0  0  0
  161.4670  209.1060  150.3690 C   0  0  1  0  0  3  0  0  0  0  0  0
  161.4580  206.7110  150.3040 O   0  0  0  0  0  1  0  0  0  0  0  0
  160.7370  207.7310  152.3310 C   0  0  0  0  0  2  0  0  0  0  0  0
  161.6670  210.3020  151.3000 C   0  0  0  0  0  2  0  0  0  0  0  0
  160.9390  208.9370  153.2410 C   0  0  0  0  0  2  0  0  0  0  0  0
  162.3720  209.1950  149.3070 O   0  0  0  0  0  0  0  0  0  0  0  0
  162.0890  210.4170  148.6920 C   0  0  0  0  0  1  0  0  0  0  0  0
  160.1700  213.5510  157.2600 O   0  0  0  0  0  1  0  0  0  0  0  0
  157.5350  212.8290  157.1540 O   0  0  0  0  0  0  0  0  0  0  0  0
  158.8870  212.7670  156.4800 P   0  0  1  0  0  4  0  0  0  0  0  0
  157.9320  211.0000  154.6060 C   0  0  0  0  0  2  0  0  0  0  0  0
  156.7370  211.6670  154.3160 O   0  0  0  0  0  1  0  0  0  0  0  0
  1  4  1  1  0  0  0
  2 25  1  6  0  0  0
  2 24  1  0  0  0  0
  3  1  1  0  0  0  0
  3  5  1  1  0  0  0
  4  2  1  0  0  0  0
  5  2  1  0  0  0  0
  7  9  2  0  0  0  0
  9 12  1  0  0  0  0
 10  9  1  0  0  0  0
 10  8  1  0  0  0  0
 11  8  1  6  0  0  0
 11  3  1  0  0  0  0
 12 11  1  0  0  0  0
 12  6  1  1  0  0  0
 13 18  1  6  0  0  0
 13 19  1  0  0  0  0
 13  1  1  0  0  0  0
 14 16  1  6  0  0  0
 14 17  1  0  0  0  0
 15 20  1  6  0  0  0
 15 14  1  0  0  0  0
 15 18  1  0  0  0  0
 17 19  1  0  0  0  0
 21 20  1  0  0  0  0
 24 23  2  6  0  0  0
 24 22  1  0  0  0  0
 26 25  1  0  0  0  0
M  END
>  <MODEL>
1

>  <REMARK>
 VINA RESULT:      -4.1      0.000      0.000
  Name = 
  5 active torsions:
  status: ('A' for Active; 'I' for Inactive)
    1  A    between atoms: C_2  and  C_5
    2  A    between atoms: C_6  and  C_7
    3  A    between atoms: C_7  and  P_26
    4  A    between atoms: O_9  and  C_11
    5  A    between atoms: C_15  and  C_20
                            x       y       z     vdW  Elec       q    Type
                         _______ _______ _______ _____ _____    ______ ____

>  <TORSDO>
F 5

$$$$
=
 OpenBabel11072414243D

 26 28  0  0  1  0  0  0  0  0999 V2000
  161.9430  210.1340  152.8920 C   0  0  1  0  0  3  0  0  0  0  0  0
  161.0390  208.9800  154.7740 C   0  0  2  0  0  0  0  0  0  0  0  0
  160.8770  210.9560  153.6430 C   0  0  2  0  0  3  0  0  0  0  0  0
  162.2390  209.0170  153.8560 C   0  0  0  0  0  2  0  0  0  0  0  0
  160.4410  210.2480  154.7880 O   0  0  0  0  0  0  0  0  0  0  0  0
  158.9180  212.7030  154.7450 O   0  0  0  0  0  1  0  0  0  0  0  0
  156.7110  213.4160  153.0840 O   0  0  0  0  0  0  0  0  0  0  0  0
  160.0230  212.5490  151.8370 C   0  0  0  0  0  2  0  0  0  0  0  0
  157.7250  212.8370  152.7310 C   0  0  0  0  0  0  0  0  0  0  0  0
  158.4590  213.1210  151.1240 S   0  0  0  0  0  0  0  0  0  0  0  0
  159.6640  211.4410  152.8210 C   0  0  2  0  0  3  0  0  0  0  0  0
  158.4780  211.9480  153.6530 C   0  0  1  0  0  3  0  0  0  0  0  0
  161.5030  209.6240  151.5040 C   0  0  1  0  0  3  0  0  0  0  0  0
  162.0040  208.5760  148.7930 C   0  0  2  0  0  3  0  0  0  0  0  0
  161.6860  210.0530  149.0380 C   0  0  1  0  0  3  0  0  0  0  0  0
  161.5160  208.1860  147.5470 O   0  0  0  0  0  1  0  0  0  0  0  0
  161.3650  207.7150  149.8760 C   0  0  0  0  0  2  0  0  0  0  0  0
  162.1760  210.4670  150.4250 C   0  0  0  0  0  2  0  0  0  0  0  0
  161.8510  208.1500  151.2530 C   0  0  0  0  0  2  0  0  0  0  0  0
  162.3150  210.8470  148.0730 O   0  0  0  0  0  0  0  0  0  0  0  0
  161.3920  211.8530  147.7780 C   0  0  0  0  0  1  0  0  0  0  0  0
  162.8070  209.4180  157.2610 O   0  0  0  0  0  1  0  0  0  0  0  0
  160.8610  207.4970  157.2570 O   0  0  0  0  0  0  0  0  0  0  0  0
  161.5790  208.5650  156.4630 P   0  0  1  0  0  4  0  0  0  0  0  0
  160.0090  207.9660  154.2900 C   0  0  0  0  0  2  0  0  0  0  0  0
  160.5910  206.7080  154.1000 O   0  0  0  0  0  1  0  0  0  0  0  0
  1  3  1  0  0  0  0
  1  4  1  1  0  0  0
  2 25  1  6  0  0  0
  2  5  1  0  0  0  0
  2 24  1  0  0  0  0
  3  5  1  1  0  0  0
  4  2  1  0  0  0  0
  9  7  2  0  0  0  0
  9 12  1  0  0  0  0
 10  8  1  0  0  0  0
 10  9  1  0  0  0  0
 11  8  1  6  0  0  0
 11  3  1  0  0  0  0
 11 12  1  0  0  0  0
 12  6  1  1  0  0  0
 13 18  1  6  0  0  0
 13  1  1  0  0  0  0
 14 16  1  6  0  0  0
 14 15  1  0  0  0  0
 14 17  1  0  0  0  0
 15 20  1  6  0  0  0
 15 18  1  0  0  0  0
 17 19  1  0  0  0  0
 19 13  1  0  0  0  0
 21 20  1  0  0  0  0
 24 23  2  1  0  0  0
 24 22  1  0  0  0  0
 26 25  1  0  0  0  0
M  END
>  <MODEL>
2

>  <REMARK>
 VINA RESULT:      -4.0      2.441      3.233
  Name = 
  5 active torsions:
  status: ('A' for Active; 'I' for Inactive)
    1  A    between atoms: C_2  and  C_5
    2  A    between atoms: C_6  and  C_7
    3  A    between atoms: C_7  and  P_26
    4  A    between atoms: O_9  and  C_11
    5  A    between atoms: C_15  and  C_20
                            x       y       z     vdW  Elec       q    Type
                         _______ _______ _______ _____ _____    ______ ____

>  <TORSDO>
F 5

$$$$
=
 OpenBabel11072414243D

 26 28  0  0  1  0  0  0  0  0999 V2000
  160.4190  206.0640  149.0170 C   0  0  1  0  0  3  0  0  0  0  0  0
  161.4430  207.1910  150.8530 C   0  0  2  0  0  0  0  0  0  0  0  0
  160.3950  205.2360  150.3170 C   0  0  2  0  0  3  0  0  0  0  0  0
  160.8040  207.4340  149.5050 C   0  0  0  0  0  2  0  0  0  0  0  0
  160.9460  205.9900  151.3790 O   0  0  0  0  0  0  0  0  0  0  0  0
  161.1020  203.8170  152.6810 O   0  0  0  0  0  1  0  0  0  0  0  0
  162.3650  201.2790  152.3610 O   0  0  0  0  0  0  0  0  0  0  0  0
  160.0370  202.7300  149.9630 C   0  0  0  0  0  2  0  0  0  0  0  0
  161.8320  201.9380  151.4830 C   0  0  0  0  0  0  0  0  0  0  0  0
  160.9340  201.1660  150.1420 S   0  0  0  0  0  0  0  0  0  0  0  0
  161.0430  203.8370  150.2620 C   0  0  2  0  0  3  0  0  0  0  0  0
  161.7980  203.4230  151.5330 C   0  0  1  0  0  3  0  0  0  0  0  0
  161.3720  205.5280  147.9280 C   0  0  1  0  0  3  0  0  0  0  0  0
  162.0980  204.8550  145.1500 C   0  0  2  0  0  3  0  0  0  0  0  0
  161.6260  203.7870  146.1390 C   0  0  1  0  0  3  0  0  0  0  0  0
  163.0020  204.2990  144.2460 O   0  0  0  0  0  1  0  0  0  0  0  0
  162.7730  205.9990  145.8970 C   0  0  0  0  0  2  0  0  0  0  0  0
  160.6750  204.4080  147.1620 C   0  0  0  0  0  2  0  0  0  0  0  0
  161.8180  206.5980  146.9220 C   0  0  0  0  0  2  0  0  0  0  0  0
  160.9620  202.7610  145.4580 O   0  0  0  0  0  0  0  0  0  0  0  0
  160.8320  201.7320  146.3940 C   0  0  0  0  0  1  0  0  0  0  0  0
  160.6160  208.2920  153.6100 O   0  0  0  0  0  1  0  0  0  0  0  0
  161.1050  209.9900  151.5230 O   0  0  0  0  0  0  0  0  0  0  0  0
  161.0140  208.5530  151.9840 P   0  0  1  0  0  4  0  0  0  0  0  0
  162.9580  207.0720  150.7290 C   0  0  0  0  0  2  0  0  0  0  0  0
  163.4750  206.1990  151.6920 O   0  0  0  0  0  1  0  0  0  0  0  0
  1  4  1  1  0  0  0
  1  3  1  0  0  0  0
  2 25  1  6  0  0  0
  2  5  1  0  0  0  0
  2 24  1  0  0  0  0
  3  5  1  1  0  0  0
  4  2  1  0  0  0  0
  8 10  1  0  0  0  0
  9 12  1  0  0  0  0
  9  7  2  0  0  0  0
 10  9  1  0  0  0  0
 11  8  1  1  0  0  0
 11  3  1  0  0  0  0
 11 12  1  0  0  0  0
 12  6  1  1  0  0  0
 13 19  1  6  0  0  0
 13  1  1  0  0  0  0
 14 16  1  6  0  0  0
 14 17  1  0  0  0  0
 14 15  1  0  0  0  0
 15 20  1  6  0  0  0
 15 18  1  0  0  0  0
 17 19  1  0  0  0  0
 18 13  1  0  0  0  0
 20 21  1  0  0  0  0
 24 23  2  1  0  0  0
 24 22  1  0  0  0  0
 25 26  1  0  0  0  0
M  END
>  <MODEL>
3

>  <REMARK>
 VINA RESULT:      -3.8      5.525      8.606
  Name = 
  5 active torsions:
  status: ('A' for Active; 'I' for Inactive)
    1  A    between atoms: C_2  and  C_5
    2  A    between atoms: C_6  and  C_7
    3  A    between atoms: C_7  and  P_26
    4  A    between atoms: O_9  and  C_11
    5  A    between atoms: C_15  and  C_20
                            x       y       z     vdW  Elec       q    Type
                         _______ _______ _______ _____ _____    ______ ____

>  <TORSDO>
F 5

$$$$
=
 OpenBabel11072414243D

 26 28  0  0  1  0  0  0  0  0999 V2000
  161.2030  213.1590  149.3820 C   0  0  1  0  0  3  0  0  0  0  0  0
  161.1110  212.7190  147.0390 C   0  0  2  0  0  0  0  0  0  0  0  0
  161.9420  211.8650  148.9860 C   0  0  2  0  0  3  0  0  0  0  0  0
  160.9790  213.8310  148.0550 C   0  0  0  0  0  2  0  0  0  0  0  0
  161.9150  211.7060  147.5810 O   0  0  0  0  0  0  0  0  0  0  0  0
  162.9260  209.3160  148.1870 O   0  0  0  0  0  1  0  0  0  0  0  0
  161.8990  207.0280  149.5460 O   0  0  0  0  0  0  0  0  0  0  0  0
  162.1680  210.3450  151.0280 C   0  0  0  0  0  2  0  0  0  0  0  0
  161.7370  208.1930  149.8680 C   0  0  0  0  0  0  0  0  0  0  0  0
  161.6720  208.6940  151.5850 S   0  0  0  0  0  0  0  0  0  0  0  0
  161.4880  210.5640  149.6800 C   0  0  2  0  0  3  0  0  0  0  0  0
  161.6990  209.2840  148.8600 C   0  0  1  0  0  3  0  0  0  0  0  0
  159.8950  212.9390  150.1700 C   0  0  1  0  0  3  0  0  0  0  0  0
  157.7970  213.7350  152.0830 C   0  0  2  0  0  3  0  0  0  0  0  0
  158.9250  212.7780  152.4780 C   0  0  1  0  0  3  0  0  0  0  0  0
  156.6390  213.4230  152.7940 O   0  0  0  0  0  1  0  0  0  0  0  0
  157.5150  213.6240  150.5890 C   0  0  0  0  0  2  0  0  0  0  0  0
  160.1790  213.0870  151.6610 C   0  0  0  0  0  2  0  0  0  0  0  0
  158.7780  213.9200  149.7890 C   0  0  0  0  0  2  0  0  0  0  0  0
  159.2180  212.9170  153.8390 O   0  0  0  0  0  0  0  0  0  0  0  0
  160.1960  211.9530  154.0970 C   0  0  0  0  0  1  0  0  0  0  0  0
  161.1360  214.4520  144.4920 O   0  0  0  0  0  1  0  0  0  0  0  0
  163.3470  213.0190  145.2210 O   0  0  0  0  0  0  0  0  0  0  0  0
  161.9080  213.3630  145.5340 P   0  0  1  0  0  4  0  0  0  0  0  0
  159.7500  212.1230  146.6970 C   0  0  0  0  0  2  0  0  0  0  0  0
  158.8180  213.1270  146.4120 O   0  0  0  0  0  1  0  0  0  0  0  0
  1  4  1  6  0  0  0
  1 13  1  0  0  0  0
  2 25  1  6  0  0  0
  2  5  1  0  0  0  0
  2  4  1  0  0  0  0
  3  5  1  6  0  0  0
  3  1  1  0  0  0  0
  3 11  1  0  0  0  0
  7  9  2  0  0  0  0
  8 10  1  0  0  0  0
  9 10  1  0  0  0  0
 11  8  1  1  0  0  0
 12  6  1  1  0  0  0
 12 11  1  0  0  0  0
 12  9  1  0  0  0  0
 13 19  1  6  0  0  0
 13 18  1  0  0  0  0
 14 15  1  0  0  0  0
 14 16  1  1  0  0  0
 15 20  1  1  0  0  0
 17 14  1  0  0  0  0
 18 15  1  0  0  0  0
 19 17  1  0  0  0  0
 20 21  1  0  0  0  0
 23 24  2  0  0  0  0
 24 22  1  1  0  0  0
 24  2  1  0  0  0  0
 26 25  1  0  0  0  0
M  END
>  <MODEL>
4

>  <REMARK>
 VINA RESULT:      -3.6      3.490      7.433
  Name = 
  5 active torsions:
  status: ('A' for Active; 'I' for Inactive)
    1  A    between atoms: C_2  and  C_5
    2  A    between atoms: C_6  and  C_7
    3  A    between atoms: C_7  and  P_26
    4  A    between atoms: O_9  and  C_11
    5  A    between atoms: C_15  and  C_20
                            x       y       z     vdW  Elec       q    Type
                         _______ _______ _______ _____ _____    ______ ____

>  <TORSDO>
F 5

$$$$
=
 OpenBabel11072414243D

 26 28  0  0  1  0  0  0  0  0999 V2000
  162.1750  210.9650  150.6960 C   0  0  1  0  0  3  0  0  0  0  0  0
  161.5820  211.8200  148.5500 C   0  0  2  0  0  0  0  0  0  0  0  0
  162.3310  209.9220  149.5720 C   0  0  2  0  0  3  0  0  0  0  0  0
  162.0110  212.2520  149.9330 C   0  0  0  0  0  2  0  0  0  0  0  0
  162.0390  210.5150  148.3210 O   0  0  0  0  0  0  0  0  0  0  0  0
  162.7060  207.7290  147.7970 O   0  0  0  0  0  1  0  0  0  0  0  0
  161.1030  205.4070  148.2210 O   0  0  0  0  0  0  0  0  0  0  0  0
  162.0990  207.7220  150.8520 C   0  0  0  0  0  2  0  0  0  0  0  0
  161.2130  206.3590  148.9770 C   0  0  0  0  0  0  0  0  0  0  0  0
  161.1980  206.1540  150.7550 S   0  0  0  0  0  0  0  0  0  0  0  0
  161.5490  208.6020  149.7340 C   0  0  2  0  0  3  0  0  0  0  0  0
  161.4810  207.7300  148.4720 C   0  0  1  0  0  3  0  0  0  0  0  0
  161.0090  210.6950  151.6700 C   0  0  1  0  0  3  0  0  0  0  0  0
  159.4990  211.1170  154.1670 C   0  0  2  0  0  3  0  0  0  0  0  0
  160.4470  209.9280  153.9920 C   0  0  1  0  0  3  0  0  0  0  0  0
  158.4450  210.7640  155.0080 O   0  0  0  0  0  1  0  0  0  0  0  0
  158.9430  211.5480  152.8150 C   0  0  0  0  0  2  0  0  0  0  0  0
  161.5750  210.2990  153.0300 C   0  0  0  0  0  2  0  0  0  0  0  0
  160.0800  211.9010  151.8630 C   0  0  0  0  0  2  0  0  0  0  0  0
  160.9960  209.5650  155.2260 O   0  0  0  0  0  0  0  0  0  0  0  0
  161.9710  210.5320  155.4840 C   0  0  0  0  0  1  0  0  0  0  0  0
  161.9100  212.8600  145.6680 O   0  0  0  0  0  1  0  0  0  0  0  0
  163.2610  214.0350  147.7340 O   0  0  0  0  0  0  0  0  0  0  0  0
  162.3210  212.9300  147.3100 P   0  0  1  0  0  4  0  0  0  0  0  0
  160.0620  211.8290  148.4190 C   0  0  0  0  0  2  0  0  0  0  0  0
  159.5780  213.1320  148.2640 O   0  0  0  0  0  1  0  0  0  0  0  0
  1  4  1  6  0  0  0
  1 13  1  0  0  0  0
  2 25  1  6  0  0  0
  2  4  1  0  0  0  0
  3  5  1  6  0  0  0
  3 11  1  0  0  0  0
  3  1  1  0  0  0  0
  5  2  1  0  0  0  0
  7  9  2  0  0  0  0
  9 10  1  0  0  0  0
 10  8  1  0  0  0  0
 11  8  1  1  0  0  0
 12  6  1  1  0  0  0
 12  9  1  0  0  0  0
 12 11  1  0  0  0  0
 13 19  1  1  0  0  0
 13 18  1  0  0  0  0
 14 16  1  1  0  0  0
 15 14  1  0  0  0  0
 15 20  1  1  0  0  0
 17 14  1  0  0  0  0
 18 15  1  0  0  0  0
 19 17  1  0  0  0  0
 20 21  1  0  0  0  0
 24 22  1  1  0  0  0
 24 23  2  0  0  0  0
 24  2  1  0  0  0  0
 26 25  1  0  0  0  0
M  END
>  <MODEL>
5

>  <REMARK>
 VINA RESULT:      -3.3      3.377      6.840
  Name = 
  5 active torsions:
  status: ('A' for Active; 'I' for Inactive)
    1  A    between atoms: C_2  and  C_5
    2  A    between atoms: C_6  and  C_7
    3  A    between atoms: C_7  and  P_26
    4  A    between atoms: O_9  and  C_11
    5  A    between atoms: C_15  and  C_20
                            x       y       z     vdW  Elec       q    Type
                         _______ _______ _______ _____ _____    ______ ____

>  <TORSDO>
F 5

$$$$
=
 OpenBabel11072414243D

 26 28  0  0  1  0  0  0  0  0999 V2000
  161.9480  210.1110  152.6480 C   0  0  1  0  0  3  0  0  0  0  0  0
  161.0040  210.4430  154.8130 C   0  0  2  0  0  0  0  0  0  0  0  0
  161.2030  211.4540  152.7770 C   0  0  2  0  0  3  0  0  0  0  0  0
  162.0680  209.6610  154.0790 C   0  0  0  0  0  2  0  0  0  0  0  0
  160.7370  211.6210  154.1010 O   0  0  0  0  0  0  0  0  0  0  0  0
  159.1450  213.3490  153.3030 O   0  0  0  0  0  1  0  0  0  0  0  0
  157.0840  213.6260  151.3500 O   0  0  0  0  0  0  0  0  0  0  0  0
  160.4960  212.5920  150.6000 C   0  0  0  0  0  2  0  0  0  0  0  0
  158.1290  213.0090  151.2170 C   0  0  0  0  0  0  0  0  0  0  0  0
  158.9950  212.9540  149.6520 S   0  0  0  0  0  0  0  0  0  0  0  0
  160.0620  211.7170  151.7710 C   0  0  2  0  0  3  0  0  0  0  0  0
  158.8060  212.3630  152.3710 C   0  0  1  0  0  3  0  0  0  0  0  0
  161.2480  209.0690  151.7510 C   0  0  1  0  0  3  0  0  0  0  0  0
  161.2010  206.7020  149.9920 C   0  0  2  0  0  3  0  0  0  0  0  0
  161.1700  208.1240  149.4270 C   0  0  1  0  0  3  0  0  0  0  0  0
  160.4930  205.8420  149.1540 O   0  0  0  0  0  1  0  0  0  0  0  0
  160.5760  206.6760  151.3830 C   0  0  0  0  0  2  0  0  0  0  0  0
  161.9030  209.0750  150.3730 C   0  0  0  0  0  2  0  0  0  0  0  0
  161.3080  207.6400  152.3090 C   0  0  0  0  0  2  0  0  0  0  0  0
  161.7890  208.1560  148.1730 O   0  0  0  0  0  0  0  0  0  0  0  0
  163.0810  207.6750  148.3970 C   0  0  0  0  0  1  0  0  0  0  0  0
  161.1480  212.3100  157.2610 O   0  0  0  0  0  1  0  0  0  0  0  0
  162.4680  209.9160  157.2560 O   0  0  0  0  0  0  0  0  0  0  0  0
  161.6080  210.8820  156.4740 P   0  0  1  0  0  4  0  0  0  0  0  0
  159.7100  209.6420  154.9220 C   0  0  0  0  0  2  0  0  0  0  0  0
  158.6240  210.4760  155.2080 O   0  0  0  0  0  1  0  0  0  0  0  0
  1  3  1  0  0  0  0
  1  4  1  1  0  0  0
  2 25  1  1  0  0  0
  2 24  1  0  0  0  0
  3  5  1  1  0  0  0
  4  2  1  0  0  0  0
  5  2  1  0  0  0  0
  9  7  2  0  0  0  0
  9 12  1  0  0  0  0
 10  8  1  0  0  0  0
 10  9  1  0  0  0  0
 11  8  1  6  0  0  0
 11 12  1  0  0  0  0
 11  3  1  0  0  0  0
 12  6  1  1  0  0  0
 13 18  1  6  0  0  0
 13 19  1  0  0  0  0
 13  1  1  0  0  0  0
 14 16  1  6  0  0  0
 14 17  1  0  0  0  0
 15 20  1  6  0  0  0
 15 14  1  0  0  0  0
 15 18  1  0  0  0  0
 17 19  1  0  0  0  0
 20 21  1  0  0  0  0
 24 23  2  1  0  0  0
 24 22  1  0  0  0  0
 25 26  1  0  0  0  0
M  END
>  <MODEL>
6

>  <REMARK>
 VINA RESULT:      -3.1      1.766      2.182
  Name = 
  5 active torsions:
  status: ('A' for Active; 'I' for Inactive)
    1  A    between atoms: C_2  and  C_5
    2  A    between atoms: C_6  and  C_7
    3  A    between atoms: C_7  and  P_26
    4  A    between atoms: O_9  and  C_11
    5  A    between atoms: C_15  and  C_20
                            x       y       z     vdW  Elec       q    Type
                         _______ _______ _______ _____ _____    ______ ____

>  <TORSDO>
F 5

$$$$
=
 OpenBabel11072414243D

 26 28  0  0  1  0  0  0  0  0999 V2000
  162.2990  209.4410  151.2600 C   0  0  1  0  0  3  0  0  0  0  0  0
  161.0060  210.3960  153.0230 C   0  0  2  0  0  0  0  0  0  0  0  0
  161.9580  210.9250  151.0170 C   0  0  2  0  0  3  0  0  0  0  0  0
  161.9460  209.2550  152.7110 C   0  0  0  0  0  2  0  0  0  0  0  0
  161.2600  211.4470  152.1310 O   0  0  0  0  0  0  0  0  0  0  0  0
  160.8320  213.4980  150.5530 O   0  0  0  0  0  1  0  0  0  0  0  0
  159.4180  213.8900  148.1070 O   0  0  0  0  0  0  0  0  0  0  0  0
  162.1510  211.5200  148.5390 C   0  0  0  0  0  2  0  0  0  0  0  0
  160.1130  212.9300  148.3940 C   0  0  0  0  0  0  0  0  0  0  0  0
  161.1130  212.0920  147.1690 S   0  0  0  0  0  0  0  0  0  0  0  0
  161.2090  211.2610  149.7110 C   0  0  2  0  0  3  0  0  0  0  0  0
  160.2630  212.4670  149.7980 C   0  0  1  0  0  3  0  0  0  0  0  0
  161.5650  208.4500  150.3340 C   0  0  1  0  0  3  0  0  0  0  0  0
  161.2150  205.8440  148.9980 C   0  0  2  0  0  3  0  0  0  0  0  0
  161.8080  207.0510  148.2660 C   0  0  1  0  0  3  0  0  0  0  0  0
  160.5160  205.0400  148.0990 O   0  0  0  0  0  1  0  0  0  0  0  0
  160.2670  206.3130  150.0960 C   0  0  0  0  0  2  0  0  0  0  0  0
  162.5300  207.9590  149.2610 C   0  0  0  0  0  2  0  0  0  0  0  0
  160.9970  207.2280  151.0710 C   0  0  0  0  0  2  0  0  0  0  0  0
  162.7170  206.6220  147.2920 O   0  0  0  0  0  0  0  0  0  0  0  0
  161.9240  206.2040  146.2200 C   0  0  0  0  0  1  0  0  0  0  0  0
  160.3780  212.2100  155.4340 O   0  0  0  0  0  1  0  0  0  0  0  0
  162.3280  210.3000  155.5990 O   0  0  0  0  0  0  0  0  0  0  0  0
  161.3010  210.9810  154.7220 P   0  0  1  0  0  4  0  0  0  0  0  0
  159.5510  209.9680  152.8620 C   0  0  0  0  0  2  0  0  0  0  0  0
  158.7070  211.0800  152.7670 O   0  0  0  0  0  1  0  0  0  0  0  0
  1  4  1  1  0  0  0
  2 25  1  6  0  0  0
  2 24  1  0  0  0  0
  3  1  1  0  0  0  0
  3  5  1  1  0  0  0
  4  2  1  0  0  0  0
  5  2  1  0  0  0  0
  7  9  2  0  0  0  0
  9 12  1  0  0  0  0
 10  9  1  0  0  0  0
 10  8  1  0  0  0  0
 11  8  1  6  0  0  0
 11 12  1  0  0  0  0
 11  3  1  0  0  0  0
 12  6  1  1  0  0  0
 13 18  1  6  0  0  0
 13 19  1  0  0  0  0
 13  1  1  0  0  0  0
 14 16  1  6  0  0  0
 14 17  1  0  0  0  0
 15 20  1  6  0  0  0
 15 14  1  0  0  0  0
 15 18  1  0  0  0  0
 17 19  1  0  0  0  0
 21 20  1  0  0  0  0
 24 22  1  1  0  0  0
 24 23  2  0  0  0  0
 26 25  1  0  0  0  0
M  END
>  <MODEL>
7

>  <REMARK>
 VINA RESULT:      -3.0      2.541      3.271
  Name = 
  5 active torsions:
  status: ('A' for Active; 'I' for Inactive)
    1  A    between atoms: C_2  and  C_5
    2  A    between atoms: C_6  and  C_7
    3  A    between atoms: C_7  and  P_26
    4  A    between atoms: O_9  and  C_11
    5  A    between atoms: C_15  and  C_20
                            x       y       z     vdW  Elec       q    Type
                         _______ _______ _______ _____ _____    ______ ____

>  <TORSDO>
F 5

$$$$
=
 OpenBabel11072414243D

 26 28  0  0  1  0  0  0  0  0999 V2000
  158.3050  210.9910  154.5080 C   0  0  1  0  0  3  0  0  0  0  0  0
  157.6650  213.1200  155.3750 C   0  0  2  0  0  0  0  0  0  0  0  0
  158.5460  211.1180  156.0260 C   0  0  2  0  0  3  0  0  0  0  0  0
  157.4340  212.1830  154.2120 C   0  0  0  0  0  2  0  0  0  0  0  0
  158.0750  212.3700  156.4860 O   0  0  0  0  0  0  0  0  0  0  0  0
  159.6840  208.5100  156.0930 O   0  0  0  0  0  1  0  0  0  0  0  0
  162.3310  208.2590  157.1270 O   0  0  0  0  0  0  0  0  0  0  0  0
  161.0420  211.2480  155.4910 C   0  0  0  0  0  2  0  0  0  0  0  0
  161.7570  209.3000  156.8520 C   0  0  0  0  0  0  0  0  0  0  0  0
  162.6310  210.7030  156.1680 S   0  0  0  0  0  0  0  0  0  0  0  0
  159.9850  210.8710  156.5250 C   0  0  2  0  0  3  0  0  0  0  0  0
  160.2810  209.4300  156.9620 C   0  0  1  0  0  3  0  0  0  0  0  0
  159.5870  210.9600  153.6520 C   0  0  1  0  0  3  0  0  0  0  0  0
  161.1130  210.3720  151.1970 C   0  0  2  0  0  3  0  0  0  0  0  0
  161.1600  209.4450  152.4150 C   0  0  1  0  0  3  0  0  0  0  0  0
  162.3310  210.3300  150.5220 O   0  0  0  0  0  1  0  0  0  0  0  0
  160.8310  211.8040  151.6390 C   0  0  0  0  0  2  0  0  0  0  0  0
  159.8420  209.5310  153.1850 C   0  0  0  0  0  2  0  0  0  0  0  0
  159.5220  211.8700  152.4170 C   0  0  0  0  0  2  0  0  0  0  0  0
  161.3680  208.1240  152.0060 O   0  0  0  0  0  0  0  0  0  0  0  0
  161.1790  207.3560  153.1580 C   0  0  0  0  0  1  0  0  0  0  0  0
  154.8780  214.2150  154.6450 O   0  0  0  0  0  1  0  0  0  0  0  0
  155.8270  214.4150  157.2020 O   0  0  0  0  0  0  0  0  0  0  0  0
  156.1110  213.9770  155.7830 P   0  0  1  0  0  4  0  0  0  0  0  0
  158.7540  214.1380  155.0510 C   0  0  0  0  0  2  0  0  0  0  0  0
  159.5180  214.4350  156.1850 O   0  0  0  0  0  1  0  0  0  0  0  0
  1  4  1  6  0  0  0
  1  3  1  0  0  0  0
  2 25  1  6  0  0  0
  2 24  1  0  0  0  0
  2  5  1  0  0  0  0
  3  5  1  6  0  0  0
  3 11  1  0  0  0  0
  4  2  1  0  0  0  0
  8 10  1  0  0  0  0
  9 12  1  0  0  0  0
  9  7  2  0  0  0  0
 10  9  1  0  0  0  0
 11  8  1  6  0  0  0
 11 12  1  0  0  0  0
 12  6  1  6  0  0  0
 13 19  1  6  0  0  0
 13  1  1  0  0  0  0
 14 16  1  1  0  0  0
 14 17  1  0  0  0  0
 14 15  1  0  0  0  0
 15 20  1  6  0  0  0
 15 18  1  0  0  0  0
 17 19  1  0  0  0  0
 18 13  1  0  0  0  0
 20 21  1  0  0  0  0
 24 22  1  1  0  0  0
 24 23  2  0  0  0  0
 25 26  1  0  0  0  0
M  END
>  <MODEL>
8

>  <REMARK>
 VINA RESULT:      -2.6      2.829      5.051
  Name = 
  5 active torsions:
  status: ('A' for Active; 'I' for Inactive)
    1  A    between atoms: C_2  and  C_5
    2  A    between atoms: C_6  and  C_7
    3  A    between atoms: C_7  and  P_26
    4  A    between atoms: O_9  and  C_11
    5  A    between atoms: C_15  and  C_20
                            x       y       z     vdW  Elec       q    Type
                         _______ _______ _______ _____ _____    ______ ____

>  <TORSDO>
F 5

$$$$
=
 OpenBabel11072414243D

 26 28  0  0  1  0  0  0  0  0999 V2000
  162.7220  207.0900  148.7010 C   0  0  1  0  0  3  0  0  0  0  0  0
  161.5250  205.7760  147.1100 C   0  0  2  0  0  0  0  0  0  0  0  0
  162.3650  205.6870  149.2310 C   0  0  2  0  0  3  0  0  0  0  0  0
  162.4490  206.9660  147.2260 C   0  0  0  0  0  2  0  0  0  0  0  0
  161.7270  204.9370  148.2150 O   0  0  0  0  0  0  0  0  0  0  0  0
  161.5960  203.2090  150.4030 O   0  0  0  0  0  1  0  0  0  0  0  0
  160.0130  203.3130  152.7730 O   0  0  0  0  0  0  0  0  0  0  0  0
  162.3890  205.8890  151.7780 C   0  0  0  0  0  2  0  0  0  0  0  0
  160.5820  204.2520  152.2420 C   0  0  0  0  0  0  0  0  0  0  0  0
  161.3130  205.5740  153.2020 S   0  0  0  0  0  0  0  0  0  0  0  0
  161.5440  205.6240  150.5370 C   0  0  2  0  0  3  0  0  0  0  0  0
  160.8040  204.3010  150.7730 C   0  0  1  0  0  3  0  0  0  0  0  0
  161.9400  208.2460  149.3580 C   0  0  1  0  0  3  0  0  0  0  0  0
  161.7280  210.8270  150.7690 C   0  0  2  0  0  3  0  0  0  0  0  0
  161.5970  209.4940  151.5080 C   0  0  1  0  0  3  0  0  0  0  0  0
  160.9410  211.7950  151.3910 O   0  0  0  0  0  1  0  0  0  0  0  0
  161.2800  210.6690  149.3200 C   0  0  0  0  0  2  0  0  0  0  0  0
  162.4200  208.4210  150.7950 C   0  0  0  0  0  2  0  0  0  0  0  0
  162.0990  209.5870  148.6280 C   0  0  0  0  0  2  0  0  0  0  0  0
  162.0560  209.6260  152.8230 O   0  0  0  0  0  0  0  0  0  0  0  0
  160.9790  209.2340  153.6220 C   0  0  0  0  0  1  0  0  0  0  0  0
  161.5730  203.2010  145.4190 O   0  0  0  0  0  1  0  0  0  0  0  0
  162.4560  205.5680  144.3750 O   0  0  0  0  0  0  0  0  0  0  0  0
  161.9110  204.8520  145.5890 P   0  0  1  0  0  4  0  0  0  0  0  0
  160.0640  206.2150  147.0990 C   0  0  0  0  0  2  0  0  0  0  0  0
  159.5550  206.2350  145.7970 O   0  0  0  0  0  1  0  0  0  0  0  0
  1  4  1  6  0  0  0
  1  3  1  0  0  0  0
  1 13  1  0  0  0  0
  2 25  1  6  0  0  0
  2  4  1  0  0  0  0
  2  5  1  0  0  0  0
  3  5  1  6  0  0  0
  3 11  1  0  0  0  0
  8 10  1  0  0  0  0
  9  7  2  0  0  0  0
  9 10  1  0  0  0  0
 11 12  1  0  0  0  0
 11  8  1  1  0  0  0
 12  6  1  1  0  0  0
 12  9  1  0  0  0  0
 13 19  1  6  0  0  0
 13 18  1  0  0  0  0
 14 16  1  1  0  0  0
 14 15  1  0  0  0  0
 15 20  1  1  0  0  0
 17 14  1  0  0  0  0
 18 15  1  0  0  0  0
 19 17  1  0  0  0  0
 20 21  1  0  0  0  0
 22 24  1  0  0  0  0
 24 23  2  6  0  0  0
 24  2  1  0  0  0  0
 26 25  1  0  0  0  0
M  END
>  <MODEL>
9

>  <REMARK>
 VINA RESULT:      -2.4      4.716      8.923
  Name = 
  5 active torsions:
  status: ('A' for Active; 'I' for Inactive)
    1  A    between atoms: C_2  and  C_5
    2  A    between atoms: C_6  and  C_7
    3  A    between atoms: C_7  and  P_26
    4  A    between atoms: O_9  and  C_11
    5  A    between atoms: C_15  and  C_20
                            x       y       z     vdW  Elec       q    Type
                         _______ _______ _______ _____ _____    ______ ____

>  <TORSDO>
F 5

$$$$
