=
 OpenBabel11072415303D

 59 64  0  0  1  0  0  0  0  0999 V2000
  161.8450  209.8680  150.6100 C   0  0  1  0  0  3  0  0  0  0  0  0
  162.3690  210.4310  152.8350 O   0  0  0  0  0  0  0  0  0  0  0  0
  161.4800  210.2800  152.0140 C   0  0  0  0  0  0  0  0  0  0  0  0
  160.0540  210.4630  152.4350 C   0  0  0  0  0  2  0  0  0  0  0  0
  157.7340  212.5370  153.8400 N   0  0  0  0  0  0  0  0  0  0  0  0
  158.3010  212.4690  156.1580 N   0  0  0  0  0  2  0  0  0  0  0  0
  159.8100  211.8950  152.8920 C   0  0  1  0  0  3  0  0  0  0  0  0
  158.5990  212.3290  154.7710 C   0  0  0  0  0  0  0  0  0  0  0  0
  158.3730  212.3030  152.5510 C   0  0  0  0  0  2  0  0  0  0  0  0
  159.8440  211.9600  154.3120 O   0  0  0  0  0  0  0  0  0  0  0  0
  156.9690  212.8320  156.6280 C   0  0  0  0  0  3  0  0  0  0  0  0
  156.1970  211.5890  157.0650 C   0  0  0  0  0  2  0  0  0  0  0  0
  155.4290  210.9480  155.9150 C   0  0  0  0  0  1  0  0  0  0  0  0
  156.2050  213.5980  155.5550 C   0  0  0  0  0  2  0  0  0  0  0  0
  155.0820  214.4230  156.1740 C   0  0  0  0  0  1  0  0  0  0  0  0
  162.4020  211.0150  149.7590 C   0  0  0  0  0  2  0  0  0  0  0  0
  161.3150  211.8520  149.0720 C   0  0  1  0  0  3  0  0  0  0  0  0
  160.9600  212.9300  149.8830 O   0  0  0  0  0  0  0  0  0  0  0  0
  159.6830  213.2850  149.4440 C   0  0  0  0  0  1  0  0  0  0  0  0
  162.8260  213.1770  147.6740 O   0  0  0  0  0  1  0  0  0  0  0  0
  161.7340  212.2960  147.6640 C   0  0  2  0  0  3  0  0  0  0  0  0
  160.5520  212.8300  146.8600 C   0  0  0  0  0  2  0  0  0  0  0  0
  161.7670  212.9040  144.6280 N   0  0  0  0  0  2  0  0  0  0  0  0
  159.7170  211.8090  144.8810 O   0  0  0  0  0  0  0  0  0  0  0  0
  160.6400  212.4930  145.4040 C   0  0  0  0  0  0  0  0  0  0  0  0
  161.8530  212.5420  143.2170 C   0  0  0  0  0  2  0  0  0  0  0  0
  161.0950  213.5350  142.3450 C   0  0  0  0  0  2  0  0  0  0  0  0
  163.1720  214.4400  140.7410 O   0  0  0  0  0  0  0  0  0  0  0  0
  161.1940  213.2030  140.9190 N   0  0  0  0  0  0  0  0  0  0  0  0
  162.3730  213.6250  140.2070 C   0  0  0  0  0  0  0  0  0  0  0  0
  162.6750  213.1200  138.9070 N   0  0  0  0  0  0  0  0  0  0  0  0
  163.5400  213.0730  137.6910 C   0  0  0  0  0  2  0  0  0  0  0  0
  162.4300  212.2540  137.7150 C   0  0  0  0  0  2  0  0  0  0  0  0
  158.0000  212.7770  138.9890 C   0  0  0  0  0  3  0  0  0  0  0  0
  160.0780  212.5880  140.2470 C   0  0  0  0  0  0  0  0  0  0  0  0
  159.0670  213.3740  139.6660 C   0  0  0  0  0  3  0  0  0  0  0  0
  157.9410  211.3850  138.8710 C   0  0  0  0  0  3  0  0  0  0  0  0
  160.0230  211.1930  140.0910 C   0  0  0  0  0  3  0  0  0  0  0  0
  158.9570  210.5940  139.4140 C   0  0  0  0  0  3  0  0  0  0  0  0
  162.6810  208.7470  150.6020 O   0  0  0  0  0  0  0  0  0  0  0  0
  161.8540  207.7090  150.1540 C   0  0  2  0  0  3  0  0  0  0  0  0
  161.4230  207.8710  148.6900 C   0  0  0  0  0  2  0  0  0  0  0  0
  162.3210  207.1380  147.7010 C   0  0  0  0  0  2  0  0  0  0  0  0
  161.5090  206.2290  146.7880 C   0  0  0  0  0  2  0  0  0  0  0  0
  162.3270  205.8490  145.5600 C   0  0  0  0  0  2  0  0  0  0  0  0
  160.7690  202.3390  145.3350 O   0  0  0  0  0  1  0  0  0  0  0  0
  160.8900  203.6610  145.7580 C   0  0  2  0  0  0  0  0  0  0  0  0
  162.0880  204.3990  145.1940 C   0  0  2  0  0  0  0  0  0  0  0  0
  162.1130  203.7350  146.4230 O   0  0  0  0  0  0  0  0  0  0  0  0
  160.8230  204.4380  144.6050 O   0  0  0  0  0  0  0  0  0  0  0  0
  160.7270  207.3950  151.1440 C   0  0  0  0  0  2  0  0  0  0  0  0
  160.9200  206.1140  151.9480 C   0  0  0  0  0  2  0  0  0  0  0  0
  160.3970  205.0060  151.2720 O   0  0  0  0  0  0  0  0  0  0  0  0
  162.1570  203.5730  151.6800 C   0  0  0  0  0  2  0  0  0  0  0  0
  160.7530  203.9140  152.0080 N   0  0  0  0  0  0  0  0  0  0  0  0
  161.0810  202.7650  151.1150 C   0  0  1  0  0  3  0  0  0  0  0  0
  160.8990  203.0600  149.6220 C   0  0  0  0  0  2  0  0  0  0  0  0
  160.5620  201.7930  148.8450 C   0  0  0  0  0  2  0  0  0  0  0  0
  159.1810  201.2830  149.2180 C   0  0  0  0  0  1  0  0  0  0  0  0
  1 16  1  1  0  0  0
  1  3  1  0  0  0  0
  3  4  1  0  0  0  0
  3  2  2  0  0  0  0
  5  8  2  0  0  0  0
  6 11  1  0  0  0  0
  7  4  1  1  0  0  0
  7 10  1  0  0  0  0
  8  6  1  0  0  0  0
  9  7  1  0  0  0  0
  9  5  1  0  0  0  0
 10  8  1  0  0  0  0
 11 12  1  0  0  0  0
 13 12  1  0  0  0  0
 14 15  1  0  0  0  0
 14 11  1  0  0  0  0
 17 16  1  1  0  0  0
 17 18  1  0  0  0  0
 19 18  1  0  0  0  0
 21 20  1  1  0  0  0
 21 17  1  0  0  0  0
 22 21  1  0  0  0  0
 23 25  1  0  0  0  0
 24 25  2  0  0  0  0
 25 22  1  0  0  0  0
 26 23  1  0  0  0  0
 27 26  1  0  0  0  0
 29 27  1  0  0  0  0
 30 28  2  0  0  0  0
 30 29  1  0  0  0  0
 31 30  1  0  0  0  0
 32 33  1  0  0  0  0
 32 31  1  0  0  0  0
 33 31  1  0  0  0  0
 34 36  1  0  0  0  0
 35 29  1  0  0  0  0
 36 35  2  0  0  0  0
 37 34  2  0  0  0  0
 37 39  1  0  0  0  0
 38 35  1  0  0  0  0
 39 38  2  0  0  0  0
 40  1  1  0  0  0  0
 41 42  1  6  0  0  0
 41 40  1  0  0  0  0
 41 51  1  0  0  0  0
 43 42  1  0  0  0  0
 44 43  1  0  0  0  0
 45 44  1  0  0  0  0
 47 46  1  6  0  0  0
 47 49  1  0  0  0  0
 48 45  1  1  0  0  0
 48 47  1  0  0  0  0
 48 49  1  0  0  0  0
 50 48  1  0  0  0  0
 50 47  1  0  0  0  0
 51 52  1  0  0  0  0
 53 52  1  0  0  0  0
 53 55  1  0  0  0  0
 54 55  1  0  0  0  0
 56 57  1  6  0  0  0
 56 54  1  0  0  0  0
 56 55  1  0  0  0  0
 58 59  1  0  0  0  0
 58 57  1  0  0  0  0
M  END
>  <MODEL>
1

>  <REMARK>
 VINA RESULT:      -5.7      0.000      0.000
  Name = 
  29 active torsions:
  status: ('A' for Active; 'I' for Inactive)
    1  A    between atoms: O_1  and  C_14
    2  A    between atoms: C_3  and  C_59
    3  A    between atoms: C_4  and  C_43
    4  A    between atoms: C_4  and  C_50
    5  A    between atoms: N_5  and  C_25
    6  A    between atoms: N_5  and  C_41
    7  A    between atoms: N_6  and  C_15
    8  A    between atoms: C_10  and  C_21
    9  A    between atoms: C_10  and  C_34
   10  A    between atoms: C_12  and  C_46
   11  A    between atoms: C_14  and  C_57
   12  A    between atoms: C_14  and  C_58
   13  A    between atoms: C_15  and  C_41
   14  A    between atoms: C_17  and  C_45
   15  A    between atoms: C_17  and  C_57
   16  A    between atoms: N_19  and  C_46
   17  A    between atoms: C_28  and  C_39
   18  A    between atoms: C_28  and  C_56
   19  A    between atoms: O_31  and  C_43
   20  A    between atoms: O_31  and  C_51
   21  A    between atoms: C_32  and  C_53
   22  A    between atoms: C_33  and  C_46
   23  A    between atoms: C_34  and  C_51
   24  A    between atoms: O_36  and  N_44
   25  A    between atoms: O_36  and  C_50
   26  A    between atoms: C_39  and  C_53
   27  A    between atoms: C_43  and  C_56
   28  A    between atoms: C_47  and  C_59
   29  A    between atoms: C_51  and  C_58
                            x       y       z     vdW  Elec       q    Type
                         _______ _______ _______ _____ _____    ______ ____

>  <TORSDO>
F 29

$$$$
=
 OpenBabel11072415303D

 59 64  0  0  1  0  0  0  0  0999 V2000
  161.3000  209.6840  151.2120 C   0  0  1  0  0  3  0  0  0  0  0  0
  161.2900  209.0020  153.4650 O   0  0  0  0  0  0  0  0  0  0  0  0
  161.1780  209.9390  152.6940 C   0  0  0  0  0  0  0  0  0  0  0  0
  160.8780  211.3040  153.2350 C   0  0  0  0  0  2  0  0  0  0  0  0
  157.5560  211.4310  154.0120 N   0  0  0  0  0  0  0  0  0  0  0  0
  157.3380  213.5710  155.0480 N   0  0  0  0  0  2  0  0  0  0  0  0
  159.5220  211.7900  152.7390 C   0  0  1  0  0  3  0  0  0  0  0  0
  157.9830  212.6320  154.1910 C   0  0  0  0  0  0  0  0  0  0  0  0
  158.4490  210.7520  153.0820 C   0  0  0  0  0  2  0  0  0  0  0  0
  159.1220  212.9360  153.4790 O   0  0  0  0  0  0  0  0  0  0  0  0
  156.1490  213.2220  155.8170 C   0  0  0  0  0  3  0  0  0  0  0  0
  155.6960  214.4060  156.6700 C   0  0  0  0  0  2  0  0  0  0  0  0
  154.1820  214.4520  156.8400 C   0  0  0  0  0  1  0  0  0  0  0  0
  156.4020  211.9940  156.6810 C   0  0  0  0  0  2  0  0  0  0  0  0
  155.3010  210.9580  156.4870 C   0  0  0  0  0  1  0  0  0  0  0  0
  161.0190  210.9210  150.3510 C   0  0  0  0  0  2  0  0  0  0  0  0
  162.1640  211.2720  149.3920 C   0  0  1  0  0  3  0  0  0  0  0  0
  162.2800  210.2910  148.4070 O   0  0  0  0  0  0  0  0  0  0  0  0
  163.4300  210.6450  147.7010 C   0  0  0  0  0  1  0  0  0  0  0  0
  161.8390  213.6690  149.7730 O   0  0  0  0  0  1  0  0  0  0  0  0
  162.0040  212.6770  148.7950 C   0  0  2  0  0  3  0  0  0  0  0  0
  160.9200  212.7190  147.7210 C   0  0  0  0  0  2  0  0  0  0  0  0
  160.5370  213.3730  145.2940 N   0  0  0  0  0  2  0  0  0  0  0  0
  162.5870  213.7290  146.3590 O   0  0  0  0  0  0  0  0  0  0  0  0
  161.4060  213.2900  146.4260 C   0  0  0  0  0  0  0  0  0  0  0  0
  161.0160  213.9600  144.0480 C   0  0  0  0  0  2  0  0  0  0  0  0
  161.7420  212.9280  143.1950 C   0  0  0  0  0  2  0  0  0  0  0  0
  159.0750  213.0570  142.4350 O   0  0  0  0  0  0  0  0  0  0  0  0
  161.3220  212.9810  141.7900 N   0  0  0  0  0  0  0  0  0  0  0  0
  159.9210  213.1660  141.5080 C   0  0  0  0  0  0  0  0  0  0  0  0
  159.4640  213.4970  140.1980 N   0  0  0  0  0  0  0  0  0  0  0  0
  158.3650  213.7890  139.2310 C   0  0  0  0  0  2  0  0  0  0  0  0
  159.6580  213.8320  138.7550 C   0  0  0  0  0  2  0  0  0  0  0  0
  163.4180  211.1740  139.2500 C   0  0  0  0  0  3  0  0  0  0  0  0
  162.2810  212.7260  140.7450 C   0  0  0  0  0  0  0  0  0  0  0  0
  162.5090  211.4170  140.2840 C   0  0  0  0  0  3  0  0  0  0  0  0
  164.0970  212.2400  138.6530 C   0  0  0  0  0  3  0  0  0  0  0  0
  162.9450  213.7900  140.1130 C   0  0  0  0  0  3  0  0  0  0  0  0
  163.8540  213.5480  139.0790 C   0  0  0  0  0  3  0  0  0  0  0  0
  162.5200  209.0810  150.8910 O   0  0  0  0  0  0  0  0  0  0  0  0
  162.1820  207.7450  150.6370 C   0  0  2  0  0  3  0  0  0  0  0  0
  161.0080  207.5960  149.6590 C   0  0  0  0  0  2  0  0  0  0  0  0
  161.4110  207.0480  148.2950 C   0  0  0  0  0  2  0  0  0  0  0  0
  160.7170  205.7230  148.0080 C   0  0  0  0  0  2  0  0  0  0  0  0
  161.4280  204.9930  146.8750 C   0  0  0  0  0  2  0  0  0  0  0  0
  161.3920  205.9270  143.1430 O   0  0  0  0  0  1  0  0  0  0  0  0
  161.5350  205.0980  144.2530 C   0  0  2  0  0  0  0  0  0  0  0  0
  161.3190  205.7840  145.5880 C   0  0  2  0  0  0  0  0  0  0  0  0
  162.5790  205.6430  145.0000 O   0  0  0  0  0  0  0  0  0  0  0  0
  160.3040  205.1140  144.9020 O   0  0  0  0  0  0  0  0  0  0  0  0
  162.0820  206.9160  151.9210 C   0  0  0  0  0  2  0  0  0  0  0  0
  161.0070  205.8350  151.9040 C   0  0  0  0  0  2  0  0  0  0  0  0
  161.4540  204.6850  151.2420 O   0  0  0  0  0  0  0  0  0  0  0  0
  161.8620  202.4900  151.8180 C   0  0  0  0  0  2  0  0  0  0  0  0
  160.9210  203.6290  151.9220 N   0  0  0  0  0  0  0  0  0  0  0  0
  160.6560  202.4900  150.9960 C   0  0  1  0  0  3  0  0  0  0  0  0
  160.9910  202.7840  149.5300 C   0  0  0  0  0  2  0  0  0  0  0  0
  161.2450  201.4980  148.7530 C   0  0  0  0  0  2  0  0  0  0  0  0
  160.6850  201.6000  147.3440 C   0  0  0  0  0  1  0  0  0  0  0  0
  1 16  1  6  0  0  0
  1  3  1  0  0  0  0
  3  4  1  0  0  0  0
  3  2  2  0  0  0  0
  5  8  2  0  0  0  0
  6 11  1  0  0  0  0
  7  9  1  0  0  0  0
  7  4  1  1  0  0  0
  7 10  1  0  0  0  0
  8  6  1  0  0  0  0
  9  5  1  0  0  0  0
 10  8  1  0  0  0  0
 11 12  1  0  0  0  0
 11 14  1  0  0  0  0
 12 13  1  0  0  0  0
 15 14  1  0  0  0  0
 17 16  1  6  0  0  0
 18 17  1  0  0  0  0
 19 18  1  0  0  0  0
 21 17  1  0  0  0  0
 21 20  1  1  0  0  0
 22 21  1  0  0  0  0
 23 25  1  0  0  0  0
 24 25  2  0  0  0  0
 25 22  1  0  0  0  0
 26 23  1  0  0  0  0
 27 26  1  0  0  0  0
 29 27  1  0  0  0  0
 30 29  1  0  0  0  0
 30 28  2  0  0  0  0
 31 30  1  0  0  0  0
 32 31  1  0  0  0  0
 33 32  1  0  0  0  0
 33 31  1  0  0  0  0
 34 36  1  0  0  0  0
 35 29  1  0  0  0  0
 36 35  2  0  0  0  0
 37 39  1  0  0  0  0
 37 34  2  0  0  0  0
 38 35  1  0  0  0  0
 39 38  2  0  0  0  0
 40  1  1  0  0  0  0
 41 42  1  1  0  0  0
 41 40  1  0  0  0  0
 41 51  1  0  0  0  0
 43 42  1  0  0  0  0
 44 43  1  0  0  0  0
 45 44  1  0  0  0  0
 47 46  1  6  0  0  0
 47 50  1  0  0  0  0
 47 49  1  0  0  0  0
 47 48  1  0  0  0  0
 48 45  1  1  0  0  0
 49 48  1  0  0  0  0
 50 48  1  0  0  0  0
 52 51  1  0  0  0  0
 53 52  1  0  0  0  0
 53 55  1  0  0  0  0
 54 55  1  0  0  0  0
 56 57  1  6  0  0  0
 56 54  1  0  0  0  0
 56 55  1  0  0  0  0
 58 57  1  0  0  0  0
 59 58  1  0  0  0  0
M  END
>  <MODEL>
2

>  <REMARK>
 VINA RESULT:      -4.4      1.565      2.617
  Name = 
  29 active torsions:
  status: ('A' for Active; 'I' for Inactive)
    1  A    between atoms: O_1  and  C_14
    2  A    between atoms: C_3  and  C_59
    3  A    between atoms: C_4  and  C_43
    4  A    between atoms: C_4  and  C_50
    5  A    between atoms: N_5  and  C_25
    6  A    between atoms: N_5  and  C_41
    7  A    between atoms: N_6  and  C_15
    8  A    between atoms: C_10  and  C_21
    9  A    between atoms: C_10  and  C_34
   10  A    between atoms: C_12  and  C_46
   11  A    between atoms: C_14  and  C_57
   12  A    between atoms: C_14  and  C_58
   13  A    between atoms: C_15  and  C_41
   14  A    between atoms: C_17  and  C_45
   15  A    between atoms: C_17  and  C_57
   16  A    between atoms: N_19  and  C_46
   17  A    between atoms: C_28  and  C_39
   18  A    between atoms: C_28  and  C_56
   19  A    between atoms: O_31  and  C_43
   20  A    between atoms: O_31  and  C_51
   21  A    between atoms: C_32  and  C_53
   22  A    between atoms: C_33  and  C_46
   23  A    between atoms: C_34  and  C_51
   24  A    between atoms: O_36  and  N_44
   25  A    between atoms: O_36  and  C_50
   26  A    between atoms: C_39  and  C_53
   27  A    between atoms: C_43  and  C_56
   28  A    between atoms: C_47  and  C_59
   29  A    between atoms: C_51  and  C_58
                            x       y       z     vdW  Elec       q    Type
                         _______ _______ _______ _____ _____    ______ ____

>  <TORSDO>
F 29

$$$$
=
 OpenBabel11072415303D

 59 64  0  0  1  0  0  0  0  0999 V2000
  161.1870  209.4900  151.5600 C   0  0  1  0  0  3  0  0  0  0  0  0
  161.2710  208.0460  149.7020 O   0  0  0  0  0  0  0  0  0  0  0  0
  161.5550  209.1490  150.1370 C   0  0  0  0  0  0  0  0  0  0  0  0
  162.2980  210.1140  149.2650 C   0  0  0  0  0  2  0  0  0  0  0  0
  162.0770  212.9290  147.3460 N   0  0  0  0  0  0  0  0  0  0  0  0
  160.6080  212.2560  145.5880 N   0  0  0  0  0  2  0  0  0  0  0  0
  161.4630  211.3630  149.0160 C   0  0  1  0  0  3  0  0  0  0  0  0
  161.1500  212.1540  146.9040 C   0  0  0  0  0  0  0  0  0  0  0  0
  162.3890  212.5470  148.7170 C   0  0  0  0  0  2  0  0  0  0  0  0
  160.7190  211.2140  147.8130 O   0  0  0  0  0  0  0  0  0  0  0  0
  161.0960  213.2390  144.6280 C   0  0  0  0  0  3  0  0  0  0  0  0
  159.9780  213.6590  143.6760 C   0  0  0  0  0  2  0  0  0  0  0  0
  160.3110  213.3530  142.2200 C   0  0  0  0  0  1  0  0  0  0  0  0
  162.2940  212.6990  143.8580 C   0  0  0  0  0  2  0  0  0  0  0  0
  163.4950  213.6260  144.0020 C   0  0  0  0  0  1  0  0  0  0  0  0
  161.4840  208.3640  152.5570 C   0  0  0  0  0  2  0  0  0  0  0  0
  161.5710  206.9770  151.9070 C   0  0  1  0  0  3  0  0  0  0  0  0
  162.8990  206.5500  151.8710 O   0  0  0  0  0  0  0  0  0  0  0  0
  163.0920  205.9200  153.1010 C   0  0  0  0  0  1  0  0  0  0  0  0
  160.2110  206.3900  153.8560 O   0  0  0  0  0  1  0  0  0  0  0  0
  160.6520  205.9590  152.5970 C   0  0  2  0  0  3  0  0  0  0  0  0
  161.2720  204.5650  152.6320 C   0  0  0  0  0  2  0  0  0  0  0  0
  161.4670  202.5950  151.0360 N   0  0  0  0  0  2  0  0  0  0  0  0
  159.4660  203.7740  151.3020 O   0  0  0  0  0  0  0  0  0  0  0  0
  160.6810  203.6400  151.6150 C   0  0  0  0  0  0  0  0  0  0  0  0
  160.8690  201.6820  150.0690 C   0  0  0  0  0  2  0  0  0  0  0  0
  161.8620  201.3070  148.9770 C   0  0  0  0  0  2  0  0  0  0  0  0
  161.1840  199.6110  146.8860 O   0  0  0  0  0  0  0  0  0  0  0  0
  161.4460  201.8030  147.6600 N   0  0  0  0  0  0  0  0  0  0  0  0
  161.0020  200.8420  146.6840 C   0  0  0  0  0  0  0  0  0  0  0  0
  160.3340  201.2490  145.4910 N   0  0  0  0  0  0  0  0  0  0  0  0
  159.6820  200.9360  144.1850 C   0  0  0  0  0  2  0  0  0  0  0  0
  159.7260  202.2590  144.5720 C   0  0  0  0  0  2  0  0  0  0  0  0
  161.2730  205.5490  147.8830 C   0  0  0  0  0  3  0  0  0  0  0  0
  161.6070  203.1980  147.3370 C   0  0  0  0  0  0  0  0  0  0  0  0
  161.0910  204.1960  148.1830 C   0  0  0  0  0  3  0  0  0  0  0  0
  161.9900  205.9200  146.7410 C   0  0  0  0  0  3  0  0  0  0  0  0
  162.3530  203.5860  146.2120 C   0  0  0  0  0  3  0  0  0  0  0  0
  162.5360  204.9380  145.9110 C   0  0  0  0  0  3  0  0  0  0  0  0
  161.7400  210.7100  151.9590 O   0  0  0  0  0  0  0  0  0  0  0  0
  161.1060  210.9890  153.1770 C   0  0  2  0  0  3  0  0  0  0  0  0
  160.3000  212.2940  153.1520 C   0  0  0  0  0  2  0  0  0  0  0  0
  159.0630  212.2350  152.2620 C   0  0  0  0  0  2  0  0  0  0  0  0
  158.0360  213.2780  152.6790 C   0  0  0  0  0  2  0  0  0  0  0  0
  157.2160  213.7190  151.4720 C   0  0  0  0  0  2  0  0  0  0  0  0
  158.7150  214.0320  147.9430 O   0  0  0  0  0  1  0  0  0  0  0  0
  157.9860  214.4250  149.0630 C   0  0  2  0  0  0  0  0  0  0  0  0
  157.9580  213.4100  150.1880 C   0  0  2  0  0  0  0  0  0  0  0  0
  156.9700  213.4810  149.2030 O   0  0  0  0  0  0  0  0  0  0  0  0
  158.8920  214.4460  150.1190 O   0  0  0  0  0  0  0  0  0  0  0  0
  162.0460  210.8160  154.3750 C   0  0  0  0  0  2  0  0  0  0  0  0
  161.3840  210.2700  155.6350 C   0  0  0  0  0  2  0  0  0  0  0  0
  160.6220  211.2550  156.2750 O   0  0  0  0  0  0  0  0  0  0  0  0
  158.4110  210.9710  155.6850 C   0  0  0  0  0  2  0  0  0  0  0  0
  159.4680  210.6410  156.6680 N   0  0  0  0  0  0  0  0  0  0  0  0
  158.4160  211.6520  156.9760 C   0  0  1  0  0  3  0  0  0  0  0  0
  158.8810  213.1040  156.8280 C   0  0  0  0  0  2  0  0  0  0  0  0
  157.7950  213.9720  156.2050 C   0  0  0  0  0  2  0  0  0  0  0  0
  156.7820  214.4030  157.2510 C   0  0  0  0  0  1  0  0  0  0  0  0
  1 40  1  0  0  0  0
  1 16  1  1  0  0  0
  2  3  2  0  0  0  0
  3  1  1  0  0  0  0
  4  3  1  0  0  0  0
  5  9  1  0  0  0  0
  6  8  1  0  0  0  0
  7  4  1  6  0  0  0
  8  5  2  0  0  0  0
  8 10  1  0  0  0  0
  9  7  1  0  0  0  0
 10  7  1  0  0  0  0
 11  6  1  0  0  0  0
 12 11  1  0  0  0  0
 13 12  1  0  0  0  0
 14 15  1  0  0  0  0
 14 11  1  0  0  0  0
 17 16  1  1  0  0  0
 17 21  1  0  0  0  0
 18 17  1  0  0  0  0
 18 19  1  0  0  0  0
 21 22  1  0  0  0  0
 21 20  1  1  0  0  0
 23 25  1  0  0  0  0
 24 25  2  0  0  0  0
 25 22  1  0  0  0  0
 26 23  1  0  0  0  0
 27 26  1  0  0  0  0
 29 27  1  0  0  0  0
 30 28  2  0  0  0  0
 30 29  1  0  0  0  0
 31 30  1  0  0  0  0
 32 33  1  0  0  0  0
 32 31  1  0  0  0  0
 33 31  1  0  0  0  0
 34 36  1  0  0  0  0
 35 29  1  0  0  0  0
 35 36  2  0  0  0  0
 37 34  2  0  0  0  0
 38 35  1  0  0  0  0
 39 38  2  0  0  0  0
 39 37  1  0  0  0  0
 40 41  1  0  0  0  0
 41 42  1  6  0  0  0
 41 51  1  0  0  0  0
 43 44  1  0  0  0  0
 43 42  1  0  0  0  0
 45 44  1  0  0  0  0
 47 46  1  6  0  0  0
 47 49  1  0  0  0  0
 47 50  1  0  0  0  0
 47 48  1  0  0  0  0
 48 45  1  1  0  0  0
 49 48  1  0  0  0  0
 50 48  1  0  0  0  0
 51 52  1  0  0  0  0
 52 53  1  0  0  0  0
 53 55  1  0  0  0  0
 54 55  1  0  0  0  0
 54 56  1  0  0  0  0
 55 56  1  0  0  0  0
 56 57  1  6  0  0  0
 58 57  1  0  0  0  0
 58 59  1  0  0  0  0
M  END
>  <MODEL>
3

>  <REMARK>
 VINA RESULT:      -3.2      2.808     10.465
  Name = 
  29 active torsions:
  status: ('A' for Active; 'I' for Inactive)
    1  A    between atoms: O_1  and  C_14
    2  A    between atoms: C_3  and  C_59
    3  A    between atoms: C_4  and  C_43
    4  A    between atoms: C_4  and  C_50
    5  A    between atoms: N_5  and  C_25
    6  A    between atoms: N_5  and  C_41
    7  A    between atoms: N_6  and  C_15
    8  A    between atoms: C_10  and  C_21
    9  A    between atoms: C_10  and  C_34
   10  A    between atoms: C_12  and  C_46
   11  A    between atoms: C_14  and  C_57
   12  A    between atoms: C_14  and  C_58
   13  A    between atoms: C_15  and  C_41
   14  A    between atoms: C_17  and  C_45
   15  A    between atoms: C_17  and  C_57
   16  A    between atoms: N_19  and  C_46
   17  A    between atoms: C_28  and  C_39
   18  A    between atoms: C_28  and  C_56
   19  A    between atoms: O_31  and  C_43
   20  A    between atoms: O_31  and  C_51
   21  A    between atoms: C_32  and  C_53
   22  A    between atoms: C_33  and  C_46
   23  A    between atoms: C_34  and  C_51
   24  A    between atoms: O_36  and  N_44
   25  A    between atoms: O_36  and  C_50
   26  A    between atoms: C_39  and  C_53
   27  A    between atoms: C_43  and  C_56
   28  A    between atoms: C_47  and  C_59
   29  A    between atoms: C_51  and  C_58
                            x       y       z     vdW  Elec       q    Type
                         _______ _______ _______ _____ _____    ______ ____

>  <TORSDO>
F 29

$$$$
=
 OpenBabel11072415303D

 59 64  0  0  1  0  0  0  0  0999 V2000
  161.6850  207.1020  148.1580 C   0  0  1  0  0  3  0  0  0  0  0  0
  163.0030  206.5270  150.0220 O   0  0  0  0  0  0  0  0  0  0  0  0
  162.1360  206.1600  149.2470 C   0  0  0  0  0  0  0  0  0  0  0  0
  161.5790  204.7750  149.3690 C   0  0  0  0  0  2  0  0  0  0  0  0
  161.4010  205.1700  152.7560 N   0  0  0  0  0  0  0  0  0  0  0  0
  160.5900  207.4040  152.9850 N   0  0  0  0  0  2  0  0  0  0  0  0
  160.6400  204.6800  150.5650 C   0  0  1  0  0  3  0  0  0  0  0  0
  160.7710  206.1820  152.2720 C   0  0  0  0  0  0  0  0  0  0  0  0
  161.3970  204.1010  151.7650 C   0  0  0  0  0  2  0  0  0  0  0  0
  160.2810  205.9850  151.0000 O   0  0  0  0  0  0  0  0  0  0  0  0
  161.1410  207.6050  154.3200 C   0  0  0  0  0  3  0  0  0  0  0  0
  160.0250  207.6290  155.3620 C   0  0  0  0  0  2  0  0  0  0  0  0
  160.3910  206.8530  156.6220 C   0  0  0  0  0  1  0  0  0  0  0  0
  161.9700  208.8820  154.3790 C   0  0  0  0  0  2  0  0  0  0  0  0
  161.4070  209.8460  155.4170 C   0  0  0  0  0  1  0  0  0  0  0  0
  160.9560  206.4030  147.0050 C   0  0  0  0  0  2  0  0  0  0  0  0
  161.8900  205.9440  145.8780 C   0  0  1  0  0  3  0  0  0  0  0  0
  162.2670  204.6160  146.0830 O   0  0  0  0  0  0  0  0  0  0  0  0
  163.6580  204.6630  146.1800 C   0  0  0  0  0  1  0  0  0  0  0  0
  159.9280  205.7680  144.4240 O   0  0  0  0  0  1  0  0  0  0  0  0
  161.2720  206.1650  144.4910 C   0  0  2  0  0  3  0  0  0  0  0  0
  162.1250  205.5520  143.3830 C   0  0  0  0  0  2  0  0  0  0  0  0
  161.6460  207.5400  141.8730 N   0  0  0  0  0  2  0  0  0  0  0  0
  161.7860  205.3620  141.0370 O   0  0  0  0  0  0  0  0  0  0  0  0
  161.8320  206.1330  142.0350 C   0  0  0  0  0  0  0  0  0  0  0  0
  161.3910  208.0950  140.5480 C   0  0  0  0  0  2  0  0  0  0  0  0
  162.4830  209.0770  140.1420 C   0  0  0  0  0  2  0  0  0  0  0  0
  162.4530  210.3790  137.6900 O   0  0  0  0  0  0  0  0  0  0  0  0
  161.9630  210.4400  139.9770 N   0  0  0  0  0  0  0  0  0  0  0  0
  161.8840  210.9770  138.6430 C   0  0  0  0  0  0  0  0  0  0  0  0
  161.1530  212.1690  138.3650 N   0  0  0  0  0  0  0  0  0  0  0  0
  160.6760  213.2200  137.4180 C   0  0  0  0  0  2  0  0  0  0  0  0
  160.2750  213.3210  138.7330 C   0  0  0  0  0  2  0  0  0  0  0  0
  162.3430  212.8990  142.7910 C   0  0  0  0  0  3  0  0  0  0  0  0
  161.6690  211.2400  141.1390 C   0  0  0  0  0  0  0  0  0  0  0  0
  162.6390  212.1020  141.6820 C   0  0  0  0  0  3  0  0  0  0  0  0
  161.0660  212.8570  143.3590 C   0  0  0  0  0  3  0  0  0  0  0  0
  160.3820  211.2330  141.7000 C   0  0  0  0  0  3  0  0  0  0  0  0
  160.0840  212.0300  142.8080 C   0  0  0  0  0  3  0  0  0  0  0  0
  160.9530  208.1760  148.6740 O   0  0  0  0  0  0  0  0  0  0  0  0
  161.9260  209.1430  148.9630 C   0  0  2  0  0  3  0  0  0  0  0  0
  162.1270  209.3640  150.4680 C   0  0  0  0  0  2  0  0  0  0  0  0
  161.6920  210.7440  150.9490 C   0  0  0  0  0  2  0  0  0  0  0  0
  160.4410  210.6560  151.8120 C   0  0  0  0  0  2  0  0  0  0  0  0
  160.0480  212.0410  152.3120 C   0  0  0  0  0  2  0  0  0  0  0  0
  157.3070  212.7540  154.9140 O   0  0  0  0  0  1  0  0  0  0  0  0
  158.0830  212.9780  153.7790 C   0  0  2  0  0  0  0  0  0  0  0  0
  159.1460  211.9290  153.5230 C   0  0  2  0  0  0  0  0  0  0  0  0
  159.3940  213.1040  154.2360 O   0  0  0  0  0  0  0  0  0  0  0  0
  157.8730  211.8780  152.9520 O   0  0  0  0  0  0  0  0  0  0  0  0
  161.7490  210.4140  148.1250 C   0  0  0  0  0  2  0  0  0  0  0  0
  162.7680  211.5120  148.4050 C   0  0  0  0  0  2  0  0  0  0  0  0
  162.1910  212.7830  148.2880 O   0  0  0  0  0  0  0  0  0  0  0  0
  161.9980  214.3700  146.6270 C   0  0  0  0  0  2  0  0  0  0  0  0
  161.8800  212.9340  146.9680 N   0  0  0  0  0  0  0  0  0  0  0  0
  160.6710  213.7920  146.8110 C   0  0  1  0  0  3  0  0  0  0  0  0
  160.0510  214.2510  148.1350 C   0  0  0  0  0  2  0  0  0  0  0  0
  158.6110  213.7730  148.2670 C   0  0  0  0  0  2  0  0  0  0  0  0
  158.1400  213.8690  149.7080 C   0  0  0  0  0  1  0  0  0  0  0  0
  1 16  1  6  0  0  0
  1 40  1  0  0  0  0
  1  3  1  0  0  0  0
  3  4  1  0  0  0  0
  3  2  2  0  0  0  0
  6 11  1  0  0  0  0
  7  4  1  6  0  0  0
  7 10  1  0  0  0  0
  7  9  1  0  0  0  0
  8  5  2  0  0  0  0
  8  6  1  0  0  0  0
  9  5  1  0  0  0  0
 10  8  1  0  0  0  0
 11 14  1  0  0  0  0
 11 12  1  0  0  0  0
 12 13  1  0  0  0  0
 14 15  1  0  0  0  0
 17 18  1  0  0  0  0
 17 16  1  1  0  0  0
 18 19  1  0  0  0  0
 21 20  1  1  0  0  0
 21 17  1  0  0  0  0
 22 21  1  0  0  0  0
 23 25  1  0  0  0  0
 24 25  2  0  0  0  0
 25 22  1  0  0  0  0
 26 23  1  0  0  0  0
 27 26  1  0  0  0  0
 28 30  2  0  0  0  0
 29 27  1  0  0  0  0
 29 35  1  0  0  0  0
 30 29  1  0  0  0  0
 31 30  1  0  0  0  0
 31 33  1  0  0  0  0
 32 31  1  0  0  0  0
 32 33  1  0  0  0  0
 34 37  1  0  0  0  0
 35 36  1  0  0  0  0
 35 38  2  0  0  0  0
 36 34  2  0  0  0  0
 38 39  1  0  0  0  0
 39 37  2  0  0  0  0
 40 41  1  0  0  0  0
 41 51  1  6  0  0  0
 41 42  1  0  0  0  0
 42 43  1  0  0  0  0
 43 44  1  0  0  0  0
 44 45  1  0  0  0  0
 47 49  1  0  0  0  0
 47 46  1  1  0  0  0
 48 45  1  6  0  0  0
 48 47  1  0  0  0  0
 48 49  1  0  0  0  0
 50 48  1  0  0  0  0
 50 47  1  0  0  0  0
 51 52  1  0  0  0  0
 53 52  1  0  0  0  0
 54 56  1  0  0  0  0
 54 55  1  0  0  0  0
 55 53  1  0  0  0  0
 56 55  1  0  0  0  0
 56 57  1  1  0  0  0
 57 58  1  0  0  0  0
 58 59  1  0  0  0  0
M  END
>  <MODEL>
4

>  <REMARK>
 VINA RESULT:      -3.0      2.489      7.648
  Name = 
  29 active torsions:
  status: ('A' for Active; 'I' for Inactive)
    1  A    between atoms: O_1  and  C_14
    2  A    between atoms: C_3  and  C_59
    3  A    between atoms: C_4  and  C_43
    4  A    between atoms: C_4  and  C_50
    5  A    between atoms: N_5  and  C_25
    6  A    between atoms: N_5  and  C_41
    7  A    between atoms: N_6  and  C_15
    8  A    between atoms: C_10  and  C_21
    9  A    between atoms: C_10  and  C_34
   10  A    between atoms: C_12  and  C_46
   11  A    between atoms: C_14  and  C_57
   12  A    between atoms: C_14  and  C_58
   13  A    between atoms: C_15  and  C_41
   14  A    between atoms: C_17  and  C_45
   15  A    between atoms: C_17  and  C_57
   16  A    between atoms: N_19  and  C_46
   17  A    between atoms: C_28  and  C_39
   18  A    between atoms: C_28  and  C_56
   19  A    between atoms: O_31  and  C_43
   20  A    between atoms: O_31  and  C_51
   21  A    between atoms: C_32  and  C_53
   22  A    between atoms: C_33  and  C_46
   23  A    between atoms: C_34  and  C_51
   24  A    between atoms: O_36  and  N_44
   25  A    between atoms: O_36  and  C_50
   26  A    between atoms: C_39  and  C_53
   27  A    between atoms: C_43  and  C_56
   28  A    between atoms: C_47  and  C_59
   29  A    between atoms: C_51  and  C_58
                            x       y       z     vdW  Elec       q    Type
                         _______ _______ _______ _____ _____    ______ ____

>  <TORSDO>
F 29

$$$$
=
 OpenBabel11072415303D

 59 64  0  0  1  0  0  0  0  0999 V2000
  161.6350  207.4140  151.3700 C   0  0  1  0  0  3  0  0  0  0  0  0
  159.7930  206.3820  150.3300 O   0  0  0  0  0  0  0  0  0  0  0  0
  160.6350  206.2970  151.2080 C   0  0  0  0  0  0  0  0  0  0  0  0
  160.6240  205.1110  152.1240 C   0  0  0  0  0  2  0  0  0  0  0  0
  160.8460  202.0460  150.6370 N   0  0  0  0  0  0  0  0  0  0  0  0
  161.1470  202.5980  148.3340 N   0  0  0  0  0  2  0  0  0  0  0  0
  161.6080  204.0530  151.6420 C   0  0  1  0  0  3  0  0  0  0  0  0
  161.2150  202.8810  149.7300 C   0  0  0  0  0  0  0  0  0  0  0  0
  161.0490  202.6590  151.9440 C   0  0  0  0  0  2  0  0  0  0  0  0
  161.6850  204.0780  150.2220 O   0  0  0  0  0  0  0  0  0  0  0  0
  160.6190  201.3360  147.8280 C   0  0  0  0  0  3  0  0  0  0  0  0
  159.3640  200.9320  148.6000 C   0  0  0  0  0  2  0  0  0  0  0  0
  158.1070  200.9980  147.7400 C   0  0  0  0  0  1  0  0  0  0  0  0
  161.6740  200.2400  147.8940 C   0  0  0  0  0  2  0  0  0  0  0  0
  161.4860  199.2370  146.7620 C   0  0  0  0  0  1  0  0  0  0  0  0
  162.3240  207.4280  152.7400 C   0  0  0  0  0  2  0  0  0  0  0  0
  161.8870  208.5950  153.6330 C   0  0  1  0  0  3  0  0  0  0  0  0
  161.0520  209.4560  152.9200 O   0  0  0  0  0  0  0  0  0  0  0  0
  161.7410  210.6690  152.9030 C   0  0  0  0  0  1  0  0  0  0  0  0
  159.8610  207.8920  154.8150 O   0  0  0  0  0  1  0  0  0  0  0  0
  161.2410  208.1100  154.9390 C   0  0  2  0  0  3  0  0  0  0  0  0
  161.5940  209.0130  156.1180 C   0  0  0  0  0  2  0  0  0  0  0  0
  160.9610  211.3630  156.8510 N   0  0  0  0  0  2  0  0  0  0  0  0
  159.3630  209.8360  156.0920 O   0  0  0  0  0  0  0  0  0  0  0  0
  160.5720  210.0790  156.3610 C   0  0  0  0  0  0  0  0  0  0  0  0
  159.9570  212.4020  157.0540 C   0  0  0  0  0  2  0  0  0  0  0  0
  159.9310  213.3800  155.8870 C   0  0  0  0  0  2  0  0  0  0  0  0
  157.5280  213.0910  157.2450 O   0  0  0  0  0  0  0  0  0  0  0  0
  158.6320  213.3890  155.2040 N   0  0  0  0  0  0  0  0  0  0  0  0
  157.4420  213.3510  156.0150 C   0  0  0  0  0  0  0  0  0  0  0  0
  156.1570  213.6250  155.4600 N   0  0  0  0  0  0  0  0  0  0  0  0
  154.6750  213.7520  155.5930 C   0  0  0  0  0  2  0  0  0  0  0  0
  155.2270  214.0110  154.3560 C   0  0  0  0  0  2  0  0  0  0  0  0
  158.2430  214.3720  151.6000 C   0  0  0  0  0  3  0  0  0  0  0  0
  158.5770  213.3090  153.7670 C   0  0  0  0  0  0  0  0  0  0  0  0
  158.2680  214.4440  152.9960 C   0  0  0  0  0  3  0  0  0  0  0  0
  158.5450  213.1670  150.9590 C   0  0  0  0  0  3  0  0  0  0  0  0
  158.9110  212.1150  153.1070 C   0  0  0  0  0  3  0  0  0  0  0  0
  158.8870  212.0420  151.7120 C   0  0  0  0  0  3  0  0  0  0  0  0
  162.5530  207.4430  150.3150 O   0  0  0  0  0  0  0  0  0  0  0  0
  161.8760  208.1240  149.2940 C   0  0  2  0  0  3  0  0  0  0  0  0
  162.4250  207.8120  147.8950 C   0  0  0  0  0  2  0  0  0  0  0  0
  162.0140  206.4430  147.3660 C   0  0  0  0  0  2  0  0  0  0  0  0
  163.1850  205.7380  146.6970 C   0  0  0  0  0  2  0  0  0  0  0  0
  162.7140  204.4470  146.0360 C   0  0  0  0  0  2  0  0  0  0  0  0
  159.2630  204.2730  144.3460 O   0  0  0  0  0  1  0  0  0  0  0  0
  160.6530  204.2240  144.4250 C   0  0  2  0  0  0  0  0  0  0  0  0
  161.2180  204.4880  145.8070 C   0  0  2  0  0  0  0  0  0  0  0  0
  161.0520  205.4910  144.8480 O   0  0  0  0  0  0  0  0  0  0  0  0
  160.9470  203.2050  145.3260 O   0  0  0  0  0  0  0  0  0  0  0  0
  161.6850  209.6100  149.6130 C   0  0  0  0  0  2  0  0  0  0  0  0
  162.1280  210.5640  148.5090 C   0  0  0  0  0  2  0  0  0  0  0  0
  161.2400  211.6390  148.3800 O   0  0  0  0  0  0  0  0  0  0  0  0
  161.6510  213.8600  147.9180 C   0  0  0  0  0  2  0  0  0  0  0  0
  161.7830  212.4650  147.4400 N   0  0  0  0  0  0  0  0  0  0  0  0
  160.7440  213.3770  146.8810 C   0  0  1  0  0  3  0  0  0  0  0  0
  159.3390  213.1460  147.4460 C   0  0  0  0  0  2  0  0  0  0  0  0
  158.4200  212.5220  146.4030 C   0  0  0  0  0  2  0  0  0  0  0  0
  157.2120  213.4080  146.1490 C   0  0  0  0  0  1  0  0  0  0  0  0
  1 16  1  1  0  0  0
  2  3  2  0  0  0  0
  3  1  1  0  0  0  0
  3  4  1  0  0  0  0
  5  9  1  0  0  0  0
  6  8  1  0  0  0  0
  7  9  1  0  0  0  0
  7  4  1  6  0  0  0
  8 10  1  0  0  0  0
  8  5  2  0  0  0  0
 10  7  1  0  0  0  0
 11 14  1  0  0  0  0
 11  6  1  0  0  0  0
 11 12  1  0  0  0  0
 13 12  1  0  0  0  0
 15 14  1  0  0  0  0
 17 16  1  6  0  0  0
 17 21  1  0  0  0  0
 18 17  1  0  0  0  0
 19 18  1  0  0  0  0
 21 20  1  6  0  0  0
 21 22  1  0  0  0  0
 22 25  1  0  0  0  0
 23 26  1  0  0  0  0
 24 25  2  0  0  0  0
 25 23  1  0  0  0  0
 27 26  1  0  0  0  0
 29 27  1  0  0  0  0
 29 30  1  0  0  0  0
 30 28  2  0  0  0  0
 31 32  1  0  0  0  0
 31 30  1  0  0  0  0
 33 31  1  0  0  0  0
 33 32  1  0  0  0  0
 34 36  1  0  0  0  0
 35 29  1  0  0  0  0
 36 35  2  0  0  0  0
 37 34  2  0  0  0  0
 37 39  1  0  0  0  0
 38 35  1  0  0  0  0
 39 38  2  0  0  0  0
 40  1  1  0  0  0  0
 41 42  1  6  0  0  0
 41 51  1  0  0  0  0
 41 40  1  0  0  0  0
 43 42  1  0  0  0  0
 44 43  1  0  0  0  0
 45 44  1  0  0  0  0
 47 46  1  1  0  0  0
 47 49  1  0  0  0  0
 47 50  1  0  0  0  0
 47 48  1  0  0  0  0
 48 45  1  6  0  0  0
 49 48  1  0  0  0  0
 50 48  1  0  0  0  0
 52 51  1  0  0  0  0
 53 52  1  0  0  0  0
 55 54  1  0  0  0  0
 55 53  1  0  0  0  0
 56 55  1  0  0  0  0
 56 57  1  1  0  0  0
 56 54  1  0  0  0  0
 58 57  1  0  0  0  0
 59 58  1  0  0  0  0
M  END
>  <MODEL>
5

>  <REMARK>
 VINA RESULT:      -2.9      3.816     10.750
  Name = 
  29 active torsions:
  status: ('A' for Active; 'I' for Inactive)
    1  A    between atoms: O_1  and  C_14
    2  A    between atoms: C_3  and  C_59
    3  A    between atoms: C_4  and  C_43
    4  A    between atoms: C_4  and  C_50
    5  A    between atoms: N_5  and  C_25
    6  A    between atoms: N_5  and  C_41
    7  A    between atoms: N_6  and  C_15
    8  A    between atoms: C_10  and  C_21
    9  A    between atoms: C_10  and  C_34
   10  A    between atoms: C_12  and  C_46
   11  A    between atoms: C_14  and  C_57
   12  A    between atoms: C_14  and  C_58
   13  A    between atoms: C_15  and  C_41
   14  A    between atoms: C_17  and  C_45
   15  A    between atoms: C_17  and  C_57
   16  A    between atoms: N_19  and  C_46
   17  A    between atoms: C_28  and  C_39
   18  A    between atoms: C_28  and  C_56
   19  A    between atoms: O_31  and  C_43
   20  A    between atoms: O_31  and  C_51
   21  A    between atoms: C_32  and  C_53
   22  A    between atoms: C_33  and  C_46
   23  A    between atoms: C_34  and  C_51
   24  A    between atoms: O_36  and  N_44
   25  A    between atoms: O_36  and  C_50
   26  A    between atoms: C_39  and  C_53
   27  A    between atoms: C_43  and  C_56
   28  A    between atoms: C_47  and  C_59
   29  A    between atoms: C_51  and  C_58
                            x       y       z     vdW  Elec       q    Type
                         _______ _______ _______ _____ _____    ______ ____

>  <TORSDO>
F 29

$$$$
