=
 OpenBabel11072412223D

 27 31  0  0  1  0  0  0  0  0999 V2000
  161.0740  203.4020  147.0170 C   0  0  0  0  0  0  0  0  0  0  0  0
  160.9330  202.5490  149.3140 C   0  0  0  0  0  0  0  0  0  0  0  0
  161.5310  203.5750  151.6300 C   0  0  0  0  0  2  0  0  0  0  0  0
  161.2600  202.0990  146.5500 C   0  0  0  0  0  3  0  0  0  0  0  0
  160.9200  203.6580  148.3990 C   0  0  0  0  0  0  0  0  0  0  0  0
  160.9090  206.5630  145.4150 O   0  0  0  0  0  0  0  0  0  0  0  0
  160.8170  205.0890  148.8540 C   0  0  0  0  0  0  0  0  0  0  0  0
  160.7160  206.2670  147.9120 C   0  0  0  0  0  2  0  0  0  0  0  0
  160.8860  205.8240  146.4940 C   0  0  0  0  0  0  0  0  0  0  0  0
  161.0780  205.7910  144.3750 N   0  0  0  0  0  0  0  0  0  0  0  0
  161.2890  201.0250  147.4380 C   0  0  0  0  0  0  0  0  0  0  0  0
  161.1690  204.5190  144.7520 N   0  0  0  0  0  0  0  0  0  0  0  0
  160.6160  202.6420  150.8020 C   0  0  0  0  0  2  0  0  0  0  0  0
  161.0170  205.2820  150.1120 C   0  0  0  0  0  0  0  0  0  0  0  0
  161.2420  205.0250  151.3580 C   0  0  0  0  0  0  0  0  0  0  0  0
  161.1110  201.2570  148.8090 C   0  0  0  0  0  3  0  0  0  0  0  0
  161.0480  204.5350  146.0910 C   0  0  0  0  0  0  0  0  0  0  0  0
  160.8100  205.9610  152.4380 C   0  0  1  0  0  3  0  0  0  0  0  0
  161.9400  206.1900  153.4250 C   0  0  0  0  0  2  0  0  0  0  0  0
  161.6420  207.2320  152.3710 C   0  0  2  0  0  3  0  0  0  0  0  0
  160.8470  208.3690  152.9850 C   0  0  0  0  0  2  0  0  0  0  0  0
  161.0830  209.6570  152.2110 C   0  0  0  0  0  2  0  0  0  0  0  0
  162.2170  209.4810  151.2190 C   0  0  0  0  0  2  0  0  0  0  0  0
  162.0480  210.4180  150.1220 N   0  0  0  0  0  1  0  0  0  0  0  0
  161.4800  199.7350  146.9320 O   0  0  0  0  0  0  0  0  0  0  0  0
  160.9950  199.3140  145.6620 C   0  0  0  0  0  2  0  0  0  0  0  0
  161.5700  197.9560  145.3060 C   0  0  0  0  0  1  0  0  0  0  0  0
  1  5  1  0  0  0  0
  2 13  1  0  0  0  0
  4  1  2  0  0  0  0
  4 11  1  0  0  0  0
  5  7  1  0  0  0  0
  5  2  2  0  0  0  0
  6  9  1  0  0  0  0
  7 14  2  0  0  0  0
  8  7  1  0  0  0  0
  9  8  1  0  0  0  0
 10 12  2  0  0  0  0
 10  6  1  0  0  0  0
 11 16  2  0  0  0  0
 12 17  1  0  0  0  0
 13  3  1  0  0  0  0
 14 15  2  0  0  0  0
 15  3  1  0  0  0  0
 16  2  1  0  0  0  0
 17  9  2  0  0  0  0
 17  1  1  0  0  0  0
 18 15  1  6  0  0  0
 18 19  1  0  0  0  0
 20 18  1  0  0  0  0
 20 21  1  1  0  0  0
 20 19  1  0  0  0  0
 22 21  1  0  0  0  0
 23 22  1  0  0  0  0
 24 23  1  0  0  0  0
 25 11  1  0  0  0  0
 26 25  1  0  0  0  0
 27 26  1  0  0  0  0
M  END
>  <MODEL>
1

>  <REMARK>
 VINA RESULT:      -9.5      0.000      0.000
  Name = 
  6 active torsions:
  status: ('A' for Active; 'I' for Inactive)
    1  A    between atoms: C_6  and  C_25
    2  A    between atoms: O_9  and  C_12
    3  A    between atoms: O_9  and  C_16
    4  A    between atoms: C_11  and  C_24
    5  A    between atoms: C_20  and  C_22
    6  A    between atoms: C_20  and  C_24
                            x       y       z     vdW  Elec       q    Type
                         _______ _______ _______ _____ _____    ______ ____

>  <TORSDO>
F 6

$$$$
=
 OpenBabel11072412223D

 27 31  0  0  1  0  0  0  0  0999 V2000
  161.1830  204.4900  149.1840 C   0  0  0  0  0  0  0  0  0  0  0  0
  161.5370  206.8140  149.8850 C   0  0  0  0  0  0  0  0  0  0  0  0
  160.8680  208.1490  152.0170 C   0  0  0  0  0  2  0  0  0  0  0  0
  161.1880  204.8970  147.8480 C   0  0  0  0  0  3  0  0  0  0  0  0
  161.3430  205.4320  150.2260 C   0  0  0  0  0  0  0  0  0  0  0  0
  160.7900  201.3390  150.7670 O   0  0  0  0  0  0  0  0  0  0  0  0
  161.2360  204.9500  151.6480 C   0  0  0  0  0  0  0  0  0  0  0  0
  161.1160  203.4940  152.0370 C   0  0  0  0  0  2  0  0  0  0  0  0
  160.9680  202.6340  150.8230 C   0  0  0  0  0  0  0  0  0  0  0  0
  160.7080  200.9750  149.5160 N   0  0  0  0  0  0  0  0  0  0  0  0
  161.3600  206.2400  147.5170 C   0  0  0  0  0  0  0  0  0  0  0  0
  160.8320  202.0300  148.7170 N   0  0  0  0  0  0  0  0  0  0  0  0
  161.8890  207.9170  150.8780 C   0  0  0  0  0  2  0  0  0  0  0  0
  161.0530  205.8720  152.5290 C   0  0  0  0  0  0  0  0  0  0  0  0
  160.9160  207.0500  153.0410 C   0  0  0  0  0  0  0  0  0  0  0  0
  161.5470  207.1840  148.5370 C   0  0  0  0  0  3  0  0  0  0  0  0
  160.9970  203.0820  149.5390 C   0  0  0  0  0  0  0  0  0  0  0  0
  161.2320  207.3190  154.4760 C   0  0  1  0  0  3  0  0  0  0  0  0
  161.6200  208.7730  154.6700 C   0  0  0  0  0  2  0  0  0  0  0  0
  160.2290  208.3100  155.0410 C   0  0  2  0  0  3  0  0  0  0  0  0
  160.1380  208.1110  156.5420 C   0  0  0  0  0  2  0  0  0  0  0  0
  160.2770  209.4440  157.2610 C   0  0  0  0  0  2  0  0  0  0  0  0
  159.3890  210.4920  156.6170 C   0  0  0  0  0  2  0  0  0  0  0  0
  160.1600  211.7000  156.3820 N   0  0  0  0  0  1  0  0  0  0  0  0
  161.3570  206.6100  146.1680 O   0  0  0  0  0  0  0  0  0  0  0  0
  160.4420  206.0810  145.2150 C   0  0  0  0  0  2  0  0  0  0  0  0
  161.1870  205.2890  144.1570 C   0  0  0  0  0  1  0  0  0  0  0  0
  1 17  1  0  0  0  0
  1  5  1  0  0  0  0
  2  5  2  0  0  0  0
  2 13  1  0  0  0  0
  3 15  1  0  0  0  0
  4  1  2  0  0  0  0
  5  7  1  0  0  0  0
  6  9  1  0  0  0  0
  7  8  1  0  0  0  0
  7 14  2  0  0  0  0
  9  8  1  0  0  0  0
 10  6  1  0  0  0  0
 11  4  1  0  0  0  0
 11 16  2  0  0  0  0
 12 10  2  0  0  0  0
 12 17  1  0  0  0  0
 13  3  1  0  0  0  0
 14 15  2  0  0  0  0
 16  2  1  0  0  0  0
 17  9  2  0  0  0  0
 18 15  1  6  0  0  0
 18 19  1  0  0  0  0
 18 20  1  0  0  0  0
 19 20  1  0  0  0  0
 20 21  1  1  0  0  0
 21 22  1  0  0  0  0
 23 22  1  0  0  0  0
 24 23  1  0  0  0  0
 25 11  1  0  0  0  0
 26 25  1  0  0  0  0
 27 26  1  0  0  0  0
M  END
>  <MODEL>
2

>  <REMARK>
 VINA RESULT:      -9.0      2.943      4.972
  Name = 
  6 active torsions:
  status: ('A' for Active; 'I' for Inactive)
    1  A    between atoms: C_6  and  C_25
    2  A    between atoms: O_9  and  C_12
    3  A    between atoms: O_9  and  C_16
    4  A    between atoms: C_11  and  C_24
    5  A    between atoms: C_20  and  C_22
    6  A    between atoms: C_20  and  C_24
                            x       y       z     vdW  Elec       q    Type
                         _______ _______ _______ _____ _____    ______ ____

>  <TORSDO>
F 6

$$$$
=
 OpenBabel11072412223D

 27 31  0  0  1  0  0  0  0  0999 V2000
  161.4400  208.4300  151.7900 C   0  0  0  0  0  0  0  0  0  0  0  0
  161.1910  206.2320  152.8500 C   0  0  0  0  0  0  0  0  0  0  0  0
  160.4870  203.8940  151.9480 C   0  0  0  0  0  2  0  0  0  0  0  0
  161.1210  209.0460  153.0030 C   0  0  0  0  0  3  0  0  0  0  0  0
  161.4690  207.0210  151.6820 C   0  0  0  0  0  0  0  0  0  0  0  0
  162.2450  209.6740  148.5660 O   0  0  0  0  0  0  0  0  0  0  0  0
  161.7270  206.4130  150.3290 C   0  0  0  0  0  0  0  0  0  0  0  0
  162.1050  207.2140  149.1040 C   0  0  0  0  0  2  0  0  0  0  0  0
  162.0360  208.6800  149.3900 C   0  0  0  0  0  0  0  0  0  0  0  0
  162.0860  210.8000  149.2090 N   0  0  0  0  0  0  0  0  0  0  0  0
  160.8340  208.2800  154.1320 C   0  0  0  0  0  0  0  0  0  0  0  0
  161.7680  210.5660  150.4790 N   0  0  0  0  0  0  0  0  0  0  0  0
  161.3460  204.7170  152.9370 C   0  0  0  0  0  2  0  0  0  0  0  0
  161.4150  205.1680  150.2170 C   0  0  0  0  0  0  0  0  0  0  0  0
  161.0130  203.9840  150.5430 C   0  0  0  0  0  0  0  0  0  0  0  0
  160.8860  206.8820  154.0490 C   0  0  0  0  0  3  0  0  0  0  0  0
  161.7360  209.2270  150.5990 C   0  0  0  0  0  0  0  0  0  0  0  0
  161.4490  202.7760  149.7830 C   0  0  1  0  0  3  0  0  0  0  0  0
  160.4240  201.6640  149.9170 C   0  0  0  0  0  2  0  0  0  0  0  0
  160.4650  202.5000  148.6580 C   0  0  2  0  0  3  0  0  0  0  0  0
  161.1800  201.7360  147.5590 C   0  0  0  0  0  2  0  0  0  0  0  0
  160.3140  201.6720  146.3110 C   0  0  0  0  0  2  0  0  0  0  0  0
  160.8370  202.6230  145.2500 C   0  0  0  0  0  2  0  0  0  0  0  0
  161.6970  203.6140  145.8720 N   0  0  0  0  0  1  0  0  0  0  0  0
  160.5180  208.9330  155.3280 O   0  0  0  0  0  0  0  0  0  0  0  0
  161.3360  209.9440  155.9070 C   0  0  0  0  0  2  0  0  0  0  0  0
  160.6160  211.2790  155.8800 C   0  0  0  0  0  1  0  0  0  0  0  0
  1  4  1  0  0  0  0
  2 13  1  0  0  0  0
  2 16  2  0  0  0  0
  3 13  1  0  0  0  0
  4 11  2  0  0  0  0
  5  1  2  0  0  0  0
  5  2  1  0  0  0  0
  6 10  1  0  0  0  0
  6  9  1  0  0  0  0
  7  5  1  0  0  0  0
  8  9  1  0  0  0  0
  8  7  1  0  0  0  0
  9 17  2  0  0  0  0
 10 12  2  0  0  0  0
 11 25  1  0  0  0  0
 12 17  1  0  0  0  0
 14  7  2  0  0  0  0
 14 15  2  0  0  0  0
 15  3  1  0  0  0  0
 16 11  1  0  0  0  0
 17  1  1  0  0  0  0
 18 19  1  0  0  0  0
 18 15  1  1  0  0  0
 20 21  1  6  0  0  0
 20 18  1  0  0  0  0
 20 19  1  0  0  0  0
 22 21  1  0  0  0  0
 23 24  1  0  0  0  0
 23 22  1  0  0  0  0
 25 26  1  0  0  0  0
 27 26  1  0  0  0  0
M  END
>  <MODEL>
3

>  <REMARK>
 VINA RESULT:      -8.7      2.685      7.800
  Name = 
  6 active torsions:
  status: ('A' for Active; 'I' for Inactive)
    1  A    between atoms: C_6  and  C_25
    2  A    between atoms: O_9  and  C_12
    3  A    between atoms: O_9  and  C_16
    4  A    between atoms: C_11  and  C_24
    5  A    between atoms: C_20  and  C_22
    6  A    between atoms: C_20  and  C_24
                            x       y       z     vdW  Elec       q    Type
                         _______ _______ _______ _____ _____    ______ ____

>  <TORSDO>
F 6

$$$$
=
 OpenBabel11072412223D

 27 31  0  0  1  0  0  0  0  0999 V2000
  161.4370  207.8120  151.2160 C   0  0  0  0  0  0  0  0  0  0  0  0
  161.3420  207.3550  148.8070 C   0  0  0  0  0  0  0  0  0  0  0  0
  161.7260  205.2060  147.3890 C   0  0  0  0  0  2  0  0  0  0  0  0
  161.8100  209.1300  150.9470 C   0  0  0  0  0  3  0  0  0  0  0  0
  161.2080  206.8970  150.1630 C   0  0  0  0  0  0  0  0  0  0  0  0
  160.8980  205.9980  154.2180 O   0  0  0  0  0  0  0  0  0  0  0  0
  160.9000  205.4650  150.5130 C   0  0  0  0  0  0  0  0  0  0  0  0
  160.6710  204.9740  151.9250 C   0  0  0  0  0  2  0  0  0  0  0  0
  160.9420  206.0630  152.9130 C   0  0  0  0  0  0  0  0  0  0  0  0
  161.2010  207.1690  154.7120 N   0  0  0  0  0  0  0  0  0  0  0  0
  161.9560  209.5710  149.6320 C   0  0  0  0  0  0  0  0  0  0  0  0
  161.4500  208.0340  153.7340 N   0  0  0  0  0  0  0  0  0  0  0  0
  160.9700  206.5440  147.5710 C   0  0  0  0  0  2  0  0  0  0  0  0
  161.0340  204.6210  149.5490 C   0  0  0  0  0  0  0  0  0  0  0  0
  161.2540  204.1620  148.3610 C   0  0  0  0  0  0  0  0  0  0  0  0
  161.7070  208.6840  148.5750 C   0  0  0  0  0  3  0  0  0  0  0  0
  161.2880  207.3400  152.5940 C   0  0  0  0  0  0  0  0  0  0  0  0
  160.6680  202.8650  147.9070 C   0  0  1  0  0  3  0  0  0  0  0  0
  161.1410  202.5320  146.5040 C   0  0  0  0  0  2  0  0  0  0  0  0
  161.7800  201.8520  147.6940 C   0  0  2  0  0  3  0  0  0  0  0  0
  161.2070  200.4560  147.8550 C   0  0  0  0  0  2  0  0  0  0  0  0
  161.8560  199.5010  146.8670 C   0  0  0  0  0  2  0  0  0  0  0  0
  160.9460  199.2710  145.6730 C   0  0  0  0  0  2  0  0  0  0  0  0
  161.2010  197.9540  145.1190 N   0  0  0  0  0  1  0  0  0  0  0  0
  162.3330  210.8980  149.4030 O   0  0  0  0  0  0  0  0  0  0  0  0
  161.9420  211.6340  148.2480 C   0  0  0  0  0  2  0  0  0  0  0  0
  163.0140  212.6410  147.8820 C   0  0  0  0  0  1  0  0  0  0  0  0
  1 17  1  0  0  0  0
  2  5  1  0  0  0  0
  3 13  1  0  0  0  0
  3 15  1  0  0  0  0
  4  1  1  0  0  0  0
  5  7  1  0  0  0  0
  5  1  2  0  0  0  0
  6 10  1  0  0  0  0
  7  8  1  0  0  0  0
  8  9  1  0  0  0  0
  9  6  1  0  0  0  0
 11  4  2  0  0  0  0
 12 10  2  0  0  0  0
 13  2  1  0  0  0  0
 14  7  2  0  0  0  0
 15 14  2  0  0  0  0
 16  2  2  0  0  0  0
 16 11  1  0  0  0  0
 17  9  2  0  0  0  0
 17 12  1  0  0  0  0
 18 15  1  1  0  0  0
 19 20  1  0  0  0  0
 19 18  1  0  0  0  0
 20 21  1  6  0  0  0
 20 18  1  0  0  0  0
 22 21  1  0  0  0  0
 23 22  1  0  0  0  0
 24 23  1  0  0  0  0
 25 11  1  0  0  0  0
 26 25  1  0  0  0  0
 27 26  1  0  0  0  0
M  END
>  <MODEL>
4

>  <REMARK>
 VINA RESULT:      -7.8      3.233      8.440
  Name = 
  6 active torsions:
  status: ('A' for Active; 'I' for Inactive)
    1  A    between atoms: C_6  and  C_25
    2  A    between atoms: O_9  and  C_12
    3  A    between atoms: O_9  and  C_16
    4  A    between atoms: C_11  and  C_24
    5  A    between atoms: C_20  and  C_22
    6  A    between atoms: C_20  and  C_24
                            x       y       z     vdW  Elec       q    Type
                         _______ _______ _______ _____ _____    ______ ____

>  <TORSDO>
F 6

$$$$
=
 OpenBabel11072412223D

 27 31  0  0  1  0  0  0  0  0999 V2000
  161.1270  204.8490  149.1560 C   0  0  0  0  0  0  0  0  0  0  0  0
  160.9470  205.0930  151.5900 C   0  0  0  0  0  0  0  0  0  0  0  0
  161.8160  206.8850  153.2660 C   0  0  0  0  0  2  0  0  0  0  0  0
  161.0660  203.4600  149.2950 C   0  0  0  0  0  3  0  0  0  0  0  0
  161.0830  205.6910  150.2910 C   0  0  0  0  0  0  0  0  0  0  0  0
  161.4330  207.0040  146.3540 O   0  0  0  0  0  0  0  0  0  0  0  0
  161.2460  207.1740  150.0880 C   0  0  0  0  0  0  0  0  0  0  0  0
  161.3050  207.8370  148.7310 C   0  0  0  0  0  2  0  0  0  0  0  0
  161.3330  206.8110  147.6430 C   0  0  0  0  0  0  0  0  0  0  0  0
  161.4200  205.8470  145.7480 N   0  0  0  0  0  0  0  0  0  0  0  0
  160.9520  202.8800  150.5570 C   0  0  0  0  0  0  0  0  0  0  0  0
  161.3090  204.8620  146.6350 N   0  0  0  0  0  0  0  0  0  0  0  0
  160.7180  205.8630  152.8860 C   0  0  0  0  0  2  0  0  0  0  0  0
  161.5330  207.8460  151.1500 C   0  0  0  0  0  0  0  0  0  0  0  0
  161.7670  208.1070  152.3930 C   0  0  0  0  0  0  0  0  0  0  0  0
  160.8790  203.7000  151.6910 C   0  0  0  0  0  3  0  0  0  0  0  0
  161.2540  205.4660  147.8350 C   0  0  0  0  0  0  0  0  0  0  0  0
  161.5510  209.4740  152.9560 C   0  0  1  0  0  3  0  0  0  0  0  0
  161.2860  210.4710  151.8430 C   0  0  0  0  0  2  0  0  0  0  0  0
  160.1330  209.9280  152.6560 C   0  0  2  0  0  3  0  0  0  0  0  0
  159.7160  210.9490  153.6980 C   0  0  0  0  0  2  0  0  0  0  0  0
  158.4270  211.6370  153.2780 C   0  0  0  0  0  2  0  0  0  0  0  0
  158.7210  212.9970  152.6730 C   0  0  0  0  0  2  0  0  0  0  0  0
  158.2090  213.0420  151.3150 N   0  0  0  0  0  1  0  0  0  0  0  0
  160.8960  201.4850  150.6560 O   0  0  0  0  0  0  0  0  0  0  0  0
  160.4110  200.6460  149.6130 C   0  0  0  0  0  2  0  0  0  0  0  0
  161.4310  200.5600  148.4940 C   0  0  0  0  0  1  0  0  0  0  0  0
  1  4  2  0  0  0  0
  1  5  1  0  0  0  0
  2 16  1  0  0  0  0
  2 13  1  0  0  0  0
  4 11  1  0  0  0  0
  5  2  2  0  0  0  0
  6  9  1  0  0  0  0
  7  5  1  0  0  0  0
  7 14  2  0  0  0  0
  8  7  1  0  0  0  0
  9 17  2  0  0  0  0
  9  8  1  0  0  0  0
 10  6  1  0  0  0  0
 10 12  2  0  0  0  0
 11 25  1  0  0  0  0
 11 16  2  0  0  0  0
 12 17  1  0  0  0  0
 13  3  1  0  0  0  0
 14 15  2  0  0  0  0
 15  3  1  0  0  0  0
 17  1  1  0  0  0  0
 18 15  1  6  0  0  0
 19 20  1  0  0  0  0
 19 18  1  0  0  0  0
 20 18  1  0  0  0  0
 20 21  1  1  0  0  0
 22 21  1  0  0  0  0
 23 22  1  0  0  0  0
 24 23  1  0  0  0  0
 26 25  1  0  0  0  0
 27 26  1  0  0  0  0
M  END
>  <MODEL>
5

>  <REMARK>
 VINA RESULT:      -7.8      1.943      3.331
  Name = 
  6 active torsions:
  status: ('A' for Active; 'I' for Inactive)
    1  A    between atoms: C_6  and  C_25
    2  A    between atoms: O_9  and  C_12
    3  A    between atoms: O_9  and  C_16
    4  A    between atoms: C_11  and  C_24
    5  A    between atoms: C_20  and  C_22
    6  A    between atoms: C_20  and  C_24
                            x       y       z     vdW  Elec       q    Type
                         _______ _______ _______ _____ _____    ______ ____

>  <TORSDO>
F 6

$$$$
=
 OpenBabel11072412223D

 27 31  0  0  1  0  0  0  0  0999 V2000
  161.5780  208.2510  151.0910 C   0  0  0  0  0  0  0  0  0  0  0  0
  161.5640  207.9950  148.6510 C   0  0  0  0  0  0  0  0  0  0  0  0
  161.9690  205.9630  147.0750 C   0  0  0  0  0  2  0  0  0  0  0  0
  161.9790  209.5810  150.9440 C   0  0  0  0  0  3  0  0  0  0  0  0
  161.3750  207.4290  149.9580 C   0  0  0  0  0  0  0  0  0  0  0  0
  160.9050  206.2080  153.9120 O   0  0  0  0  0  0  0  0  0  0  0  0
  161.0330  205.9790  150.1780 C   0  0  0  0  0  0  0  0  0  0  0  0
  160.7460  205.3790  151.5360 C   0  0  0  0  0  2  0  0  0  0  0  0
  160.9970  206.3780  152.6190 C   0  0  0  0  0  0  0  0  0  0  0  0
  161.2060  207.3290  154.5120 N   0  0  0  0  0  0  0  0  0  0  0  0
  162.1790  210.1240  149.6760 C   0  0  0  0  0  0  0  0  0  0  0  0
  161.5030  208.2660  153.6170 N   0  0  0  0  0  0  0  0  0  0  0  0
  161.2250  207.2940  147.3390 C   0  0  0  0  0  2  0  0  0  0  0  0
  161.1900  205.2150  149.1530 C   0  0  0  0  0  0  0  0  0  0  0  0
  161.4460  204.8500  147.9400 C   0  0  0  0  0  0  0  0  0  0  0  0
  161.9560  209.3320  148.5410 C   0  0  0  0  0  3  0  0  0  0  0  0
  161.3720  207.6710  152.4190 C   0  0  0  0  0  0  0  0  0  0  0  0
  160.8590  203.6060  147.3600 C   0  0  1  0  0  3  0  0  0  0  0  0
  161.5820  203.2230  146.0810 C   0  0  0  0  0  2  0  0  0  0  0  0
  161.9010  202.5000  147.3700 C   0  0  2  0  0  3  0  0  0  0  0  0
  161.1900  201.1590  147.3950 C   0  0  0  0  0  2  0  0  0  0  0  0
  161.2560  200.5510  148.7860 C   0  0  0  0  0  2  0  0  0  0  0  0
  160.3780  201.3290  149.7500 C   0  0  0  0  0  2  0  0  0  0  0  0
  161.2020  201.9020  150.7990 N   0  0  0  0  0  1  0  0  0  0  0  0
  162.5830  211.4590  149.5700 O   0  0  0  0  0  0  0  0  0  0  0  0
  162.4360  212.2290  148.3810 C   0  0  0  0  0  2  0  0  0  0  0  0
  161.2850  213.2050  148.5290 C   0  0  0  0  0  1  0  0  0  0  0  0
  1 17  1  0  0  0  0
  2  5  1  0  0  0  0
  3 13  1  0  0  0  0
  3 15  1  0  0  0  0
  4  1  1  0  0  0  0
  5  7  1  0  0  0  0
  5  1  2  0  0  0  0
  6 10  1  0  0  0  0
  7  8  1  0  0  0  0
  8  9  1  0  0  0  0
  9  6  1  0  0  0  0
 11  4  2  0  0  0  0
 12 10  2  0  0  0  0
 13  2  1  0  0  0  0
 14  7  2  0  0  0  0
 15 14  2  0  0  0  0
 16  2  2  0  0  0  0
 16 11  1  0  0  0  0
 17  9  2  0  0  0  0
 17 12  1  0  0  0  0
 18 20  1  0  0  0  0
 18 15  1  1  0  0  0
 19 18  1  0  0  0  0
 19 20  1  0  0  0  0
 20 21  1  6  0  0  0
 21 22  1  0  0  0  0
 22 23  1  0  0  0  0
 23 24  1  0  0  0  0
 25 11  1  0  0  0  0
 26 27  1  0  0  0  0
 26 25  1  0  0  0  0
M  END
>  <MODEL>
6

>  <REMARK>
 VINA RESULT:      -7.8      3.317      8.157
  Name = 
  6 active torsions:
  status: ('A' for Active; 'I' for Inactive)
    1  A    between atoms: C_6  and  C_25
    2  A    between atoms: O_9  and  C_12
    3  A    between atoms: O_9  and  C_16
    4  A    between atoms: C_11  and  C_24
    5  A    between atoms: C_20  and  C_22
    6  A    between atoms: C_20  and  C_24
                            x       y       z     vdW  Elec       q    Type
                         _______ _______ _______ _____ _____    ______ ____

>  <TORSDO>
F 6

$$$$
=
 OpenBabel11072412223D

 27 31  0  0  1  0  0  0  0  0999 V2000
  161.1180  204.7660  149.0820 C   0  0  0  0  0  0  0  0  0  0  0  0
  161.0140  204.9560  151.5260 C   0  0  0  0  0  0  0  0  0  0  0  0
  161.9480  206.7040  153.2130 C   0  0  0  0  0  2  0  0  0  0  0  0
  161.0500  203.3760  149.1910 C   0  0  0  0  0  3  0  0  0  0  0  0
  161.1140  205.5830  150.2360 C   0  0  0  0  0  0  0  0  0  0  0  0
  161.3530  206.9820  146.3200 O   0  0  0  0  0  0  0  0  0  0  0  0
  161.2830  207.0690  150.0620 C   0  0  0  0  0  0  0  0  0  0  0  0
  161.3060  207.7620  148.7180 C   0  0  0  0  0  2  0  0  0  0  0  0
  161.2920  206.7610  147.6080 C   0  0  0  0  0  0  0  0  0  0  0  0
  161.3130  205.8390  145.6900 N   0  0  0  0  0  0  0  0  0  0  0  0
  160.9700  202.7670  150.4430 C   0  0  0  0  0  0  0  0  0  0  0  0
  161.2220  204.8350  146.5570 N   0  0  0  0  0  0  0  0  0  0  0  0
  160.8310  205.6990  152.8450 C   0  0  0  0  0  2  0  0  0  0  0  0
  161.6070  207.7140  151.1280 C   0  0  0  0  0  0  0  0  0  0  0  0
  161.8820  207.9460  152.3700 C   0  0  0  0  0  0  0  0  0  0  0  0
  160.9380  203.5620  151.5970 C   0  0  0  0  0  3  0  0  0  0  0  0
  161.2080  205.4120  147.7710 C   0  0  0  0  0  0  0  0  0  0  0  0
  161.6940  209.3010  152.9690 C   0  0  1  0  0  3  0  0  0  0  0  0
  160.4630  209.9730  152.3880 C   0  0  0  0  0  2  0  0  0  0  0  0
  160.3940  209.3320  153.7560 C   0  0  2  0  0  3  0  0  0  0  0  0
  160.4970  210.4010  154.8280 C   0  0  0  0  0  2  0  0  0  0  0  0
  160.0650  209.8430  156.1740 C   0  0  0  0  0  2  0  0  0  0  0  0
  160.9680  208.6980  156.5910 C   0  0  0  0  0  2  0  0  0  0  0  0
  162.3190  209.1940  156.7830 N   0  0  0  0  0  1  0  0  0  0  0  0
  160.9060  201.3710  150.5120 O   0  0  0  0  0  0  0  0  0  0  0  0
  160.5160  200.5510  149.4160 C   0  0  0  0  0  2  0  0  0  0  0  0
  161.5810  200.5790  148.3370 C   0  0  0  0  0  1  0  0  0  0  0  0
  1  4  2  0  0  0  0
  1  5  1  0  0  0  0
  2 16  1  0  0  0  0
  2 13  1  0  0  0  0
  4 11  1  0  0  0  0
  5  2  2  0  0  0  0
  6  9  1  0  0  0  0
  7  5  1  0  0  0  0
  7 14  2  0  0  0  0
  8  7  1  0  0  0  0
  9 17  2  0  0  0  0
  9  8  1  0  0  0  0
 10  6  1  0  0  0  0
 10 12  2  0  0  0  0
 11 25  1  0  0  0  0
 11 16  2  0  0  0  0
 12 17  1  0  0  0  0
 13  3  1  0  0  0  0
 14 15  2  0  0  0  0
 15  3  1  0  0  0  0
 17  1  1  0  0  0  0
 18 15  1  6  0  0  0
 18 20  1  0  0  0  0
 19 18  1  0  0  0  0
 19 20  1  0  0  0  0
 20 21  1  1  0  0  0
 21 22  1  0  0  0  0
 22 23  1  0  0  0  0
 23 24  1  0  0  0  0
 26 25  1  0  0  0  0
 27 26  1  0  0  0  0
M  END
>  <MODEL>
7

>  <REMARK>
 VINA RESULT:      -7.8      2.109      3.383
  Name = 
  6 active torsions:
  status: ('A' for Active; 'I' for Inactive)
    1  A    between atoms: C_6  and  C_25
    2  A    between atoms: O_9  and  C_12
    3  A    between atoms: O_9  and  C_16
    4  A    between atoms: C_11  and  C_24
    5  A    between atoms: C_20  and  C_22
    6  A    between atoms: C_20  and  C_24
                            x       y       z     vdW  Elec       q    Type
                         _______ _______ _______ _____ _____    ______ ____

>  <TORSDO>
F 6

$$$$
=
 OpenBabel11072412223D

 27 31  0  0  1  0  0  0  0  0999 V2000
  161.4250  209.1750  152.6040 C   0  0  0  0  0  0  0  0  0  0  0  0
  161.6210  207.7730  150.5990 C   0  0  0  0  0  0  0  0  0  0  0  0
  162.3310  205.2970  150.2240 C   0  0  0  0  0  2  0  0  0  0  0  0
  161.7120  210.3060  151.8350 C   0  0  0  0  0  3  0  0  0  0  0  0
  161.3860  207.8910  152.0120 C   0  0  0  0  0  0  0  0  0  0  0  0
  160.7320  208.6840  156.0480 O   0  0  0  0  0  0  0  0  0  0  0  0
  161.1650  206.6990  152.9040 C   0  0  0  0  0  0  0  0  0  0  0  0
  160.8320  206.7990  154.3760 C   0  0  0  0  0  2  0  0  0  0  0  0
  160.9060  208.2180  154.8390 C   0  0  0  0  0  0  0  0  0  0  0  0
  160.8820  209.9810  156.0310 N   0  0  0  0  0  0  0  0  0  0  0  0
  161.9560  210.1890  150.4680 C   0  0  0  0  0  0  0  0  0  0  0  0
  161.1580  210.3980  154.7990 N   0  0  0  0  0  0  0  0  0  0  0  0
  161.4490  206.4920  149.7900 C   0  0  0  0  0  2  0  0  0  0  0  0
  161.4690  205.5590  152.3860 C   0  0  0  0  0  0  0  0  0  0  0  0
  161.8490  204.6880  151.5110 C   0  0  0  0  0  0  0  0  0  0  0  0
  161.8950  208.9270  149.8600 C   0  0  0  0  0  3  0  0  0  0  0  0
  161.1740  209.2880  154.0410 C   0  0  0  0  0  0  0  0  0  0  0  0
  161.4250  203.2590  151.6000 C   0  0  1  0  0  3  0  0  0  0  0  0
  159.9190  203.1420  151.4590 C   0  0  0  0  0  2  0  0  0  0  0  0
  160.8100  202.8280  150.2790 C   0  0  2  0  0  3  0  0  0  0  0  0
  160.9610  201.3250  150.1360 C   0  0  0  0  0  2  0  0  0  0  0  0
  161.2050  200.9540  148.6820 C   0  0  0  0  0  2  0  0  0  0  0  0
  160.8570  202.1170  147.7700 C   0  0  0  0  0  2  0  0  0  0  0  0
  160.8310  201.6590  146.3930 N   0  0  0  0  0  1  0  0  0  0  0  0
  162.2420  211.3440  149.7320 O   0  0  0  0  0  0  0  0  0  0  0  0
  161.9510  211.4800  148.3450 C   0  0  0  0  0  2  0  0  0  0  0  0
  162.7400  212.6330  147.7560 C   0  0  0  0  0  1  0  0  0  0  0  0
  1 17  1  0  0  0  0
  2  5  2  0  0  0  0
  3 15  1  0  0  0  0
  4  1  2  0  0  0  0
  5  1  1  0  0  0  0
  5  7  1  0  0  0  0
  7  8  1  0  0  0  0
  8  9  1  0  0  0  0
  9  6  1  0  0  0  0
 10  6  1  0  0  0  0
 11  4  1  0  0  0  0
 12 10  2  0  0  0  0
 13  3  1  0  0  0  0
 13  2  1  0  0  0  0
 14  7  2  0  0  0  0
 15 14  2  0  0  0  0
 16 11  2  0  0  0  0
 16  2  1  0  0  0  0
 17 12  1  0  0  0  0
 17  9  2  0  0  0  0
 18 15  1  6  0  0  0
 19 18  1  0  0  0  0
 20 21  1  1  0  0  0
 20 19  1  0  0  0  0
 20 18  1  0  0  0  0
 22 21  1  0  0  0  0
 23 22  1  0  0  0  0
 24 23  1  0  0  0  0
 25 11  1  0  0  0  0
 26 25  1  0  0  0  0
 27 26  1  0  0  0  0
M  END
>  <MODEL>
8

>  <REMARK>
 VINA RESULT:      -7.8      3.435      8.411
  Name = 
  6 active torsions:
  status: ('A' for Active; 'I' for Inactive)
    1  A    between atoms: C_6  and  C_25
    2  A    between atoms: O_9  and  C_12
    3  A    between atoms: O_9  and  C_16
    4  A    between atoms: C_11  and  C_24
    5  A    between atoms: C_20  and  C_22
    6  A    between atoms: C_20  and  C_24
                            x       y       z     vdW  Elec       q    Type
                         _______ _______ _______ _____ _____    ______ ____

>  <TORSDO>
F 6

$$$$
=
 OpenBabel11072412223D

 27 31  0  0  1  0  0  0  0  0999 V2000
  161.6510  207.4460  151.3580 C   0  0  0  0  0  0  0  0  0  0  0  0
  161.0090  206.7610  153.6250 C   0  0  0  0  0  0  0  0  0  0  0  0
  161.1980  207.9140  155.9510 C   0  0  0  0  0  2  0  0  0  0  0  0
  161.8480  206.1060  151.0140 C   0  0  0  0  0  3  0  0  0  0  0  0
  161.2430  207.8030  152.6640 C   0  0  0  0  0  0  0  0  0  0  0  0
  161.9940  210.4930  149.5740 O   0  0  0  0  0  0  0  0  0  0  0  0
  161.1370  209.2660  153.0050 C   0  0  0  0  0  0  0  0  0  0  0  0
  161.2950  210.3790  151.9950 C   0  0  0  0  0  2  0  0  0  0  0  0
  161.7150  209.8330  150.6680 C   0  0  0  0  0  0  0  0  0  0  0  0
  162.3190  209.6450  148.6360 N   0  0  0  0  0  0  0  0  0  0  0  0
  161.6370  205.0960  151.9510 C   0  0  0  0  0  0  0  0  0  0  0  0
  162.2580  208.3990  149.0980 N   0  0  0  0  0  0  0  0  0  0  0  0
  160.4100  206.9700  155.0120 C   0  0  0  0  0  2  0  0  0  0  0  0
  161.0960  209.5360  154.2640 C   0  0  0  0  0  0  0  0  0  0  0  0
  161.0550  209.3540  155.5430 C   0  0  0  0  0  0  0  0  0  0  0  0
  161.2060  205.4310  153.2430 C   0  0  0  0  0  3  0  0  0  0  0  0
  161.8760  208.5120  150.3820 C   0  0  0  0  0  0  0  0  0  0  0  0
  160.4750  210.3820  156.4580 C   0  0  1  0  0  3  0  0  0  0  0  0
  160.4750  211.7460  155.7920 C   0  0  0  0  0  2  0  0  0  0  0  0
  159.1970  210.9380  155.8520 C   0  0  2  0  0  3  0  0  0  0  0  0
  158.3140  211.4600  156.9690 C   0  0  0  0  0  2  0  0  0  0  0  0
  156.9890  211.9520  156.4090 C   0  0  0  0  0  2  0  0  0  0  0  0
  156.7260  211.3380  155.0460 C   0  0  0  0  0  2  0  0  0  0  0  0
  155.5410  210.5010  155.1130 N   0  0  0  0  0  1  0  0  0  0  0  0
  161.8470  203.7670  151.5700 O   0  0  0  0  0  0  0  0  0  0  0  0
  160.8130  202.9230  151.0740 C   0  0  0  0  0  2  0  0  0  0  0  0
  160.8240  202.9190  149.5570 C   0  0  0  0  0  1  0  0  0  0  0  0
  1  5  1  0  0  0  0
  2 13  1  0  0  0  0
  4  1  2  0  0  0  0
  4 11  1  0  0  0  0
  5  7  1  0  0  0  0
  5  2  2  0  0  0  0
  6  9  1  0  0  0  0
  7 14  2  0  0  0  0
  8  7  1  0  0  0  0
  9  8  1  0  0  0  0
 10 12  2  0  0  0  0
 10  6  1  0  0  0  0
 11 16  2  0  0  0  0
 12 17  1  0  0  0  0
 13  3  1  0  0  0  0
 14 15  2  0  0  0  0
 15  3  1  0  0  0  0
 16  2  1  0  0  0  0
 17  9  2  0  0  0  0
 17  1  1  0  0  0  0
 18 15  1  6  0  0  0
 19 20  1  0  0  0  0
 19 18  1  0  0  0  0
 20 18  1  0  0  0  0
 20 21  1  1  0  0  0
 22 21  1  0  0  0  0
 23 24  1  0  0  0  0
 23 22  1  0  0  0  0
 25 11  1  0  0  0  0
 26 25  1  0  0  0  0
 27 26  1  0  0  0  0
M  END
>  <MODEL>
9

>  <REMARK>
 VINA RESULT:      -7.7      3.523      6.152
  Name = 
  6 active torsions:
  status: ('A' for Active; 'I' for Inactive)
    1  A    between atoms: C_6  and  C_25
    2  A    between atoms: O_9  and  C_12
    3  A    between atoms: O_9  and  C_16
    4  A    between atoms: C_11  and  C_24
    5  A    between atoms: C_20  and  C_22
    6  A    between atoms: C_20  and  C_24
                            x       y       z     vdW  Elec       q    Type
                         _______ _______ _______ _____ _____    ______ ____

>  <TORSDO>
F 6

$$$$
