=
 OpenBabel11072410343D

 54 62  0  0  1  0  0  0  0  0999 V2000
  161.8410  208.6910  152.0700 C   0  0  0  0  0  0  0  0  0  0  0  0
  160.6690  208.2800  155.0080 C   0  0  0  0  0  0  0  0  0  0  0  0
  161.1450  207.0660  154.7000 C   0  0  0  0  0  0  0  0  0  0  0  0
  160.1920  210.4280  155.0950 C   0  0  0  0  0  0  0  0  0  0  0  0
  159.5950  207.4520  157.1540 C   0  0  0  0  0  3  0  0  0  0  0  0
  159.6410  209.8110  156.2260 C   0  0  0  0  0  0  0  0  0  0  0  0
  159.9020  208.5210  156.2120 C   0  0  0  0  0  0  0  0  0  0  0  0
  162.5670  208.7910  151.0960 O   0  0  0  0  0  0  0  0  0  0  0  0
  159.1360  212.1180  156.2230 C   0  0  2  0  0  3  0  0  0  0  0  0
  159.9480  211.7790  155.0750 O   0  0  0  0  0  0  0  0  0  0  0  0
  161.9950  206.1290  152.3790 N   0  0  0  0  0  0  0  0  0  0  0  0
  160.0680  206.2250  156.8770 C   0  0  0  0  0  3  0  0  0  0  0  0
  160.8160  209.5820  154.2790 C   0  0  0  0  0  0  0  0  0  0  0  0
  162.1090  207.0120  153.5590 C   0  0  1  0  0  3  0  0  0  0  0  0
  161.5360  209.9030  152.9590 C   0  0  2  0  0  3  0  0  0  0  0  0
  161.2310  207.3810  152.4350 C   0  0  1  0  0  3  0  0  0  0  0  0
  158.9650  210.8110  157.0740 C   0  0  0  0  0  2  0  0  0  0  0  0
  160.9220  205.9010  155.6500 C   0  0  0  0  0  2  0  0  0  0  0  0
  157.7520  212.6720  155.8060 C   0  0  1  0  0  0  0  0  0  0  0  0
  156.0920  211.8880  154.3980 O   0  0  0  0  0  1  0  0  0  0  0  0
  157.6220  213.8910  154.9170 C   0  0  2  0  0  0  0  0  0  0  0  0
  157.3860  212.4220  154.3590 C   0  0  1  0  0  0  0  0  0  0  0  0
  156.6640  212.6720  156.8800 C   0  0  0  0  0  1  0  0  0  0  0  0
  158.9040  214.4420  154.8680 O   0  0  0  0  0  1  0  0  0  0  0  0
  157.3410  213.6480  153.4540 C   0  0  1  0  0  3  0  0  0  0  0  0
  155.1470  214.4380  153.9640 O   0  0  0  0  0  0  0  0  0  0  0  0
  155.9710  214.1560  153.0520 C   0  0  0  0  0  0  0  0  0  0  0  0
  155.5380  214.2520  151.6400 C   0  0  0  0  0  0  0  0  0  0  0  0
  154.1790  214.3160  151.2960 C   0  0  0  0  0  3  0  0  0  0  0  0
  156.1100  214.3970  149.2800 C   0  0  0  0  0  3  0  0  0  0  0  0
  154.7520  214.4530  148.9490 C   0  0  0  0  0  3  0  0  0  0  0  0
  156.5000  214.2970  150.6180 C   0  0  0  0  0  3  0  0  0  0  0  0
  153.7870  214.4140  149.9580 C   0  0  0  0  0  3  0  0  0  0  0  0
  159.4540  210.8490  152.0740 O   0  0  0  0  0  1  0  0  0  0  0  0
  161.4630  211.2500  150.8550 C   0  0  0  0  0  1  0  0  0  0  0  0
  160.8300  211.0550  152.2190 C   0  0  2  0  0  3  0  0  0  0  0  0
  161.1000  205.0890  152.6860 N   0  0  0  0  0  2  0  0  0  0  0  0
  161.6220  202.7720  152.0360 C   0  0  0  0  0  1  0  0  0  0  0  0
  161.0850  204.1210  151.5870 C   0  0  2  0  0  3  0  0  0  0  0  0
  160.9090  205.2550  149.3590 C   0  0  2  0  0  3  0  0  0  0  0  0
  161.8550  204.6340  150.3670 C   0  0  2  0  0  3  0  0  0  0  0  0
  161.5440  203.9100  149.0530 C   0  0  1  0  0  3  0  0  0  0  0  0
  160.4770  202.8280  149.1410 C   0  0  0  0  0  1  0  0  0  0  0  0
  161.6100  206.3060  148.6370 N   0  0  0  0  0  2  0  0  0  0  0  0
  162.7900  207.0680  146.7890 O   0  0  0  0  0  0  0  0  0  0  0  0
  162.1470  206.1260  147.3240 C   0  0  0  0  0  0  0  0  0  0  0  0
  162.0180  204.8120  146.6150 C   0  0  0  0  0  2  0  0  0  0  0  0
  160.1550  206.0300  145.4990 C   0  0  0  0  0  1  0  0  0  0  0  0
  161.1750  204.9190  145.3490 C   0  0  2  0  0  3  0  0  0  0  0  0
  160.4420  203.6110  145.1060 C   0  0  0  0  0  2  0  0  0  0  0  0
  160.5470  201.2270  145.9290 C   0  0  0  0  0  0  0  0  0  0  0  0
  160.8620  202.6110  146.0780 N   0  0  0  0  0  2  0  0  0  0  0  0
  160.9360  200.3050  146.9380 N   0  0  0  0  0  1  0  0  0  0  0  0
  159.9150  200.8170  144.9190 O   0  0  0  0  0  0  0  0  0  0  0  0
  1 15  1  0  0  0  0
  2  7  1  0  0  0  0
  3  2  2  0  0  0  0
  3 18  1  0  0  0  0
  4  6  1  0  0  0  0
  6 17  1  0  0  0  0
  7  6  2  0  0  0  0
  7  5  1  0  0  0  0
  8  1  2  0  0  0  0
  9 17  1  1  0  0  0
 10  4  1  0  0  0  0
 10  9  1  0  0  0  0
 11 16  1  0  0  0  0
 11 37  1  0  0  0  0
 11 14  1  0  0  0  0
 12  5  2  0  0  0  0
 13  2  1  0  0  0  0
 13  4  2  0  0  0  0
 14  3  1  1  0  0  0
 15 36  1  6  0  0  0
 15 13  1  0  0  0  0
 16  1  1  6  0  0  0
 16 14  1  0  0  0  0
 18 12  1  0  0  0  0
 19  9  1  0  0  0  0
 19 23  1  1  0  0  0
 21 24  1  6  0  0  0
 21 19  1  0  0  0  0
 22 20  1  1  0  0  0
 22 21  1  0  0  0  0
 22 19  1  0  0  0  0
 25 27  1  1  0  0  0
 25 22  1  0  0  0  0
 25 21  1  0  0  0  0
 27 26  2  0  0  0  0
 28 27  1  0  0  0  0
 29 28  1  0  0  0  0
 30 32  1  0  0  0  0
 31 30  2  0  0  0  0
 31 33  1  0  0  0  0
 32 28  2  0  0  0  0
 33 29  2  0  0  0  0
 34 36  1  0  0  0  0
 36 35  1  6  0  0  0
 39 38  1  1  0  0  0
 39 37  1  0  0  0  0
 40 44  1  6  0  0  0
 40 41  1  0  0  0  0
 41 39  1  1  0  0  0
 42 43  1  1  0  0  0
 42 40  1  0  0  0  0
 42 41  1  0  0  0  0
 45 46  2  0  0  0  0
 46 44  1  0  0  0  0
 47 46  1  0  0  0  0
 49 48  1  1  0  0  0
 49 47  1  0  0  0  0
 50 49  1  0  0  0  0
 50 52  1  0  0  0  0
 51 52  1  0  0  0  0
 51 53  1  0  0  0  0
 54 51  2  0  0  0  0
M  END
>  <MODEL>
1

>  <REMARK>
 VINA RESULT:      -3.9      0.000      0.000
  Name = 
  12 active torsions:
  status: ('A' for Active; 'I' for Inactive)
    1  A    between atoms: C_2  and  N_5
    2  A    between atoms: C_8  and  C_43
    3  A    between atoms: C_10  and  C_32
    4  A    between atoms: C_14  and  C_53
    5  A    between atoms: C_23  and  N_29
    6  A    between atoms: C_23  and  C_40
    7  A    between atoms: N_25  and  N_36
    8  A    between atoms: N_25  and  C_43
    9  A    between atoms: C_26  and  C_47
   10  A    between atoms: C_35  and  C_53
   11  A    between atoms: C_40  and  C_48
   12  A    between atoms: C_48  and  C_54
                            x       y       z     vdW  Elec       q    Type
                         _______ _______ _______ _____ _____    ______ ____

>  <TORSDO>
F 12

$$$$
=
 OpenBabel11072410343D

 54 62  0  0  1  0  0  0  0  0999 V2000
  160.9590  213.6520  149.9070 C   0  0  0  0  0  0  0  0  0  0  0  0
  158.2150  214.1800  148.3690 C   0  0  0  0  0  0  0  0  0  0  0  0
  157.8370  214.1350  149.6540 C   0  0  0  0  0  0  0  0  0  0  0  0
  159.3270  214.3100  146.4730 C   0  0  0  0  0  0  0  0  0  0  0  0
  155.8180  214.2700  147.5380 C   0  0  0  0  0  3  0  0  0  0  0  0
  157.9570  214.3300  146.1790 C   0  0  0  0  0  0  0  0  0  0  0  0
  157.2540  214.2510  147.2890 C   0  0  0  0  0  0  0  0  0  0  0  0
  161.9510  213.7460  150.6100 O   0  0  0  0  0  0  0  0  0  0  0  0
  159.2240  214.4250  144.1890 C   0  0  2  0  0  3  0  0  0  0  0  0
  160.0980  214.3980  145.3400 O   0  0  0  0  0  0  0  0  0  0  0  0
  159.2050  213.3790  151.7860 N   0  0  0  0  0  0  0  0  0  0  0  0
  155.4090  214.2370  148.8180 C   0  0  0  0  0  3  0  0  0  0  0  0
  159.5900  214.1950  147.7730 C   0  0  0  0  0  0  0  0  0  0  0  0
  158.9290  214.2990  150.6620 C   0  0  1  0  0  3  0  0  0  0  0  0
  160.9680  214.1460  148.4550 C   0  0  2  0  0  3  0  0  0  0  0  0
  159.6990  213.0620  150.4410 C   0  0  1  0  0  3  0  0  0  0  0  0
  157.7490  214.4530  144.7240 C   0  0  0  0  0  2  0  0  0  0  0  0
  156.3620  214.2050  150.0130 C   0  0  0  0  0  2  0  0  0  0  0  0
  159.4390  213.1960  143.2730 C   0  0  1  0  0  0  0  0  0  0  0  0
  161.2700  212.3900  142.1110 O   0  0  0  0  0  1  0  0  0  0  0  0
  158.8090  213.1110  141.8980 C   0  0  2  0  0  0  0  0  0  0  0  0
  160.3510  213.4450  142.0910 C   0  0  1  0  0  0  0  0  0  0  0  0
  159.4280  211.8260  143.9530 C   0  0  0  0  0  1  0  0  0  0  0  0
  157.8840  214.1560  141.8590 O   0  0  0  0  0  1  0  0  0  0  0  0
  159.6890  213.4420  140.7170 C   0  0  1  0  0  3  0  0  0  0  0  0
  159.1990  211.2180  140.0040 O   0  0  0  0  0  0  0  0  0  0  0  0
  159.9320  212.2310  139.8400 C   0  0  0  0  0  0  0  0  0  0  0  0
  161.0440  212.1610  138.8660 C   0  0  0  0  0  0  0  0  0  0  0  0
  161.2490  211.0230  138.0710 C   0  0  0  0  0  3  0  0  0  0  0  0
  162.9570  213.2140  137.7920 C   0  0  0  0  0  3  0  0  0  0  0  0
  163.1540  212.0720  137.0110 C   0  0  0  0  0  3  0  0  0  0  0  0
  161.9070  213.2580  138.7140 C   0  0  0  0  0  3  0  0  0  0  0  0
  162.2980  210.9770  137.1490 C   0  0  0  0  0  3  0  0  0  0  0  0
  161.7730  212.0500  147.4720 O   0  0  0  0  0  1  0  0  0  0  0  0
  163.3950  213.6890  148.0790 C   0  0  0  0  0  1  0  0  0  0  0  0
  161.9950  213.4290  147.5600 C   0  0  2  0  0  3  0  0  0  0  0  0
  158.0650  212.5840  152.0020 N   0  0  0  0  0  2  0  0  0  0  0  0
  157.0160  213.6570  153.9530 C   0  0  0  0  0  1  0  0  0  0  0  0
  157.8170  212.4710  153.4400 C   0  0  2  0  0  3  0  0  0  0  0  0
  159.6350  210.8900  154.1280 C   0  0  2  0  0  3  0  0  0  0  0  0
  159.1180  212.3110  154.2310 C   0  0  2  0  0  3  0  0  0  0  0  0
  159.0310  211.3690  155.4370 C   0  0  1  0  0  3  0  0  0  0  0  0
  157.6840  210.6890  155.6380 C   0  0  0  0  0  1  0  0  0  0  0  0
  161.0870  210.9070  154.2210 N   0  0  0  0  0  2  0  0  0  0  0  0
  163.1880  210.4600  153.3420 O   0  0  0  0  0  0  0  0  0  0  0  0
  161.9410  210.4650  153.1630 C   0  0  0  0  0  0  0  0  0  0  0  0
  161.3680  209.9420  151.8810 C   0  0  0  0  0  2  0  0  0  0  0  0
  162.3950  208.3670  150.2480 C   0  0  0  0  0  1  0  0  0  0  0  0
  161.7650  208.4920  151.6210 C   0  0  2  0  0  3  0  0  0  0  0  0
  160.5340  207.6040  151.6770 C   0  0  0  0  0  2  0  0  0  0  0  0
  161.3010  205.2630  152.2260 C   0  0  0  0  0  0  0  0  0  0  0  0
  160.8740  206.2450  151.2820 N   0  0  0  0  0  2  0  0  0  0  0  0
  161.6730  203.9680  151.7740 N   0  0  0  0  0  1  0  0  0  0  0  0
  161.3640  205.5370  153.4540 O   0  0  0  0  0  0  0  0  0  0  0  0
  1  8  2  0  0  0  0
  2  3  2  0  0  0  0
  3 18  1  0  0  0  0
  4 13  2  0  0  0  0
  5 12  2  0  0  0  0
  6  4  1  0  0  0  0
  6  7  2  0  0  0  0
  7  5  1  0  0  0  0
  7  2  1  0  0  0  0
  9 17  1  1  0  0  0
  9 10  1  0  0  0  0
 10  4  1  0  0  0  0
 11 37  1  0  0  0  0
 12 18  1  0  0  0  0
 13  2  1  0  0  0  0
 13 15  1  0  0  0  0
 14  3  1  6  0  0  0
 14 11  1  0  0  0  0
 15 36  1  6  0  0  0
 15  1  1  0  0  0  0
 16  1  1  1  0  0  0
 16 14  1  0  0  0  0
 16 11  1  0  0  0  0
 17  6  1  0  0  0  0
 19 23  1  1  0  0  0
 19  9  1  0  0  0  0
 21 24  1  1  0  0  0
 21 22  1  0  0  0  0
 21 19  1  0  0  0  0
 22 20  1  6  0  0  0
 22 19  1  0  0  0  0
 25 27  1  6  0  0  0
 25 21  1  0  0  0  0
 25 22  1  0  0  0  0
 27 26  2  0  0  0  0
 28 27  1  0  0  0  0
 29 28  2  0  0  0  0
 30 32  2  0  0  0  0
 31 33  2  0  0  0  0
 31 30  1  0  0  0  0
 32 28  1  0  0  0  0
 33 29  1  0  0  0  0
 34 36  1  0  0  0  0
 36 35  1  1  0  0  0
 37 39  1  0  0  0  0
 39 38  1  1  0  0  0
 40 44  1  1  0  0  0
 40 41  1  0  0  0  0
 40 42  1  0  0  0  0
 41 39  1  6  0  0  0
 41 42  1  0  0  0  0
 42 43  1  6  0  0  0
 46 45  2  0  0  0  0
 46 44  1  0  0  0  0
 47 46  1  0  0  0  0
 49 48  1  6  0  0  0
 49 50  1  0  0  0  0
 49 47  1  0  0  0  0
 51 54  2  0  0  0  0
 52 50  1  0  0  0  0
 52 51  1  0  0  0  0
 53 51  1  0  0  0  0
M  END
>  <MODEL>
2

>  <REMARK>
 VINA RESULT:      -3.9      5.569     10.401
  Name = 
  12 active torsions:
  status: ('A' for Active; 'I' for Inactive)
    1  A    between atoms: C_2  and  N_5
    2  A    between atoms: C_8  and  C_43
    3  A    between atoms: C_10  and  C_32
    4  A    between atoms: C_14  and  C_53
    5  A    between atoms: C_23  and  N_29
    6  A    between atoms: C_23  and  C_40
    7  A    between atoms: N_25  and  N_36
    8  A    between atoms: N_25  and  C_43
    9  A    between atoms: C_26  and  C_47
   10  A    between atoms: C_35  and  C_53
   11  A    between atoms: C_40  and  C_48
   12  A    between atoms: C_48  and  C_54
                            x       y       z     vdW  Elec       q    Type
                         _______ _______ _______ _____ _____    ______ ____

>  <TORSDO>
F 12

$$$$
=
 OpenBabel11072410343D

 54 62  0  0  1  0  0  0  0  0999 V2000
  161.9890  211.3550  150.7160 C   0  0  0  0  0  0  0  0  0  0  0  0
  159.4280  213.0100  149.7750 C   0  0  0  0  0  0  0  0  0  0  0  0
  159.2050  212.8240  151.0840 C   0  0  0  0  0  0  0  0  0  0  0  0
  160.3000  213.1710  147.7600 C   0  0  0  0  0  0  0  0  0  0  0  0
  157.1250  214.0070  149.3960 C   0  0  0  0  0  3  0  0  0  0  0  0
  158.9930  213.6750  147.7130 C   0  0  0  0  0  0  0  0  0  0  0  0
  158.4330  213.5940  148.9020 C   0  0  0  0  0  0  0  0  0  0  0  0
  163.0260  210.9910  151.2430 O   0  0  0  0  0  0  0  0  0  0  0  0
  159.9850  213.7740  145.5730 C   0  0  2  0  0  3  0  0  0  0  0  0
  160.9220  213.2430  146.5390 O   0  0  0  0  0  0  0  0  0  0  0  0
  160.4680  211.2640  152.8040 N   0  0  0  0  0  0  0  0  0  0  0  0
  156.8760  213.8430  150.7060 C   0  0  0  0  0  3  0  0  0  0  0  0
  160.6530  212.7180  148.9610 C   0  0  0  0  0  0  0  0  0  0  0  0
  160.3940  212.4320  151.9010 C   0  0  1  0  0  3  0  0  0  0  0  0
  162.0000  212.1070  149.3790 C   0  0  2  0  0  3  0  0  0  0  0  0
  160.6720  211.0900  151.3610 C   0  0  1  0  0  3  0  0  0  0  0  0
  158.6770  214.1490  146.3530 C   0  0  0  0  0  2  0  0  0  0  0  0
  157.8900  213.2740  151.6990 C   0  0  0  0  0  2  0  0  0  0  0  0
  159.6700  212.7520  144.4550 C   0  0  1  0  0  0  0  0  0  0  0  0
  160.9910  211.6020  142.9430 O   0  0  0  0  0  1  0  0  0  0  0  0
  158.9590  213.1640  143.1820 C   0  0  2  0  0  0  0  0  0  0  0  0
  160.5250  212.8950  143.2140 C   0  0  1  0  0  0  0  0  0  0  0  0
  159.2030  211.3670  144.9060 C   0  0  0  0  0  1  0  0  0  0  0  0
  158.4820  214.4510  143.4340 O   0  0  0  0  0  1  0  0  0  0  0  0
  159.8150  213.3910  141.9600 C   0  0  1  0  0  3  0  0  0  0  0  0
  158.3980  211.8210  140.8550 O   0  0  0  0  0  0  0  0  0  0  0  0
  159.5340  212.3680  140.8780 C   0  0  0  0  0  0  0  0  0  0  0  0
  160.5620  211.9290  139.9090 C   0  0  0  0  0  0  0  0  0  0  0  0
  160.4130  210.7440  139.1710 C   0  0  0  0  0  3  0  0  0  0  0  0
  162.6840  212.3220  138.7850 C   0  0  0  0  0  3  0  0  0  0  0  0
  162.5260  211.1360  138.0620 C   0  0  0  0  0  3  0  0  0  0  0  0
  161.7070  212.7160  139.7030 C   0  0  0  0  0  3  0  0  0  0  0  0
  161.3890  210.3480  138.2540 C   0  0  0  0  0  3  0  0  0  0  0  0
  162.8280  209.9570  148.5390 O   0  0  0  0  0  1  0  0  0  0  0  0
  163.9290  211.9380  147.7990 C   0  0  0  0  0  1  0  0  0  0  0  0
  162.6180  211.3030  148.2200 C   0  0  2  0  0  3  0  0  0  0  0  0
  159.1580  210.8360  153.0880 N   0  0  0  0  0  2  0  0  0  0  0  0
  158.9050  210.6810  155.5310 C   0  0  0  0  0  1  0  0  0  0  0  0
  159.1820  209.9310  154.2380 C   0  0  2  0  0  3  0  0  0  0  0  0
  160.4390  207.8940  153.4980 C   0  0  2  0  0  3  0  0  0  0  0  0
  160.5010  209.1600  154.3290 C   0  0  2  0  0  3  0  0  0  0  0  0
  160.4060  207.7920  155.0120 C   0  0  1  0  0  3  0  0  0  0  0  0
  159.0080  207.3770  155.4500 C   0  0  0  0  0  1  0  0  0  0  0  0
  161.7750  207.5810  153.0120 N   0  0  0  0  0  2  0  0  0  0  0  0
  163.2280  206.2940  151.7420 O   0  0  0  0  0  0  0  0  0  0  0  0
  162.0370  206.5390  152.0700 C   0  0  0  0  0  0  0  0  0  0  0  0
  160.9250  205.6920  151.5310 C   0  0  0  0  0  2  0  0  0  0  0  0
  160.5180  206.1120  149.1100 C   0  0  0  0  0  1  0  0  0  0  0  0
  161.2040  205.2060  150.1120 C   0  0  2  0  0  3  0  0  0  0  0  0
  160.6730  203.7930  149.9390 C   0  0  0  0  0  2  0  0  0  0  0  0
  160.7560  201.9660  148.2000 C   0  0  0  0  0  0  0  0  0  0  0  0
  160.8910  203.3370  148.5730 N   0  0  0  0  0  2  0  0  0  0  0  0
  161.0350  201.5710  146.8630 N   0  0  0  0  0  1  0  0  0  0  0  0
  160.4060  201.1010  149.0460 O   0  0  0  0  0  0  0  0  0  0  0  0
  1  8  2  0  0  0  0
  2  3  2  0  0  0  0
  3 18  1  0  0  0  0
  4 13  2  0  0  0  0
  5 12  2  0  0  0  0
  6  4  1  0  0  0  0
  6  7  2  0  0  0  0
  7  5  1  0  0  0  0
  7  2  1  0  0  0  0
  9 17  1  1  0  0  0
  9 10  1  0  0  0  0
 10  4  1  0  0  0  0
 11 37  1  0  0  0  0
 12 18  1  0  0  0  0
 13 15  1  0  0  0  0
 13  2  1  0  0  0  0
 14  3  1  6  0  0  0
 14 11  1  0  0  0  0
 15 36  1  6  0  0  0
 15  1  1  0  0  0  0
 16  1  1  1  0  0  0
 16 14  1  0  0  0  0
 16 11  1  0  0  0  0
 17  6  1  0  0  0  0
 19 23  1  1  0  0  0
 19  9  1  0  0  0  0
 21 22  1  0  0  0  0
 21 24  1  1  0  0  0
 21 19  1  0  0  0  0
 22 20  1  6  0  0  0
 22 19  1  0  0  0  0
 25 27  1  6  0  0  0
 25 21  1  0  0  0  0
 25 22  1  0  0  0  0
 26 27  2  0  0  0  0
 28 27  1  0  0  0  0
 29 28  2  0  0  0  0
 30 32  2  0  0  0  0
 31 33  2  0  0  0  0
 31 30  1  0  0  0  0
 32 28  1  0  0  0  0
 33 29  1  0  0  0  0
 36 35  1  1  0  0  0
 36 34  1  0  0  0  0
 37 39  1  0  0  0  0
 39 38  1  1  0  0  0
 40 44  1  1  0  0  0
 40 41  1  0  0  0  0
 40 42  1  0  0  0  0
 41 39  1  6  0  0  0
 41 42  1  0  0  0  0
 42 43  1  6  0  0  0
 45 46  2  0  0  0  0
 46 44  1  0  0  0  0
 47 46  1  0  0  0  0
 49 48  1  6  0  0  0
 49 47  1  0  0  0  0
 50 49  1  0  0  0  0
 51 52  1  0  0  0  0
 51 54  2  0  0  0  0
 52 50  1  0  0  0  0
 53 51  1  0  0  0  0
M  END
>  <MODEL>
3

>  <REMARK>
 VINA RESULT:      -3.5      4.821      8.705
  Name = 
  12 active torsions:
  status: ('A' for Active; 'I' for Inactive)
    1  A    between atoms: C_2  and  N_5
    2  A    between atoms: C_8  and  C_43
    3  A    between atoms: C_10  and  C_32
    4  A    between atoms: C_14  and  C_53
    5  A    between atoms: C_23  and  N_29
    6  A    between atoms: C_23  and  C_40
    7  A    between atoms: N_25  and  N_36
    8  A    between atoms: N_25  and  C_43
    9  A    between atoms: C_26  and  C_47
   10  A    between atoms: C_35  and  C_53
   11  A    between atoms: C_40  and  C_48
   12  A    between atoms: C_48  and  C_54
                            x       y       z     vdW  Elec       q    Type
                         _______ _______ _______ _____ _____    ______ ____

>  <TORSDO>
F 12

$$$$
=
 OpenBabel11072410343D

 54 62  0  0  1  0  0  0  0  0999 V2000
  161.2380  208.1700  154.3370 C   0  0  0  0  0  0  0  0  0  0  0  0
  161.4030  209.8820  151.6500 C   0  0  0  0  0  0  0  0  0  0  0  0
  161.0930  210.8000  152.5760 C   0  0  0  0  0  0  0  0  0  0  0  0
  162.0390  208.0750  150.5630 C   0  0  0  0  0  0  0  0  0  0  0  0
  161.1140  211.5280  149.7390 C   0  0  0  0  0  3  0  0  0  0  0  0
  161.8160  209.0940  149.6270 C   0  0  0  0  0  0  0  0  0  0  0  0
  161.4310  210.1950  150.2380 C   0  0  0  0  0  0  0  0  0  0  0  0
  161.4310  207.6930  155.4420 O   0  0  0  0  0  0  0  0  0  0  0  0
  162.4630  207.1030  148.5340 C   0  0  2  0  0  3  0  0  0  0  0  0
  162.4490  206.9090  149.9670 O   0  0  0  0  0  0  0  0  0  0  0  0
  160.3340  210.4730  155.0860 N   0  0  0  0  0  0  0  0  0  0  0  0
  160.8100  212.4730  150.6450 C   0  0  0  0  0  3  0  0  0  0  0  0
  161.7910  208.4440  151.8190 C   0  0  0  0  0  0  0  0  0  0  0  0
  161.3300  210.4020  153.9970 C   0  0  1  0  0  3  0  0  0  0  0  0
  161.9300  207.5960  153.0940 C   0  0  2  0  0  3  0  0  0  0  0  0
  160.3270  209.3360  154.1590 C   0  0  1  0  0  3  0  0  0  0  0  0
  162.1050  208.6070  148.2650 C   0  0  0  0  0  2  0  0  0  0  0  0
  160.8010  212.2320  152.1540 C   0  0  0  0  0  2  0  0  0  0  0  0
  161.4530  206.1750  147.8180 C   0  0  1  0  0  0  0  0  0  0  0  0
  160.7970  203.9830  148.1640 O   0  0  0  0  0  1  0  0  0  0  0  0
  161.7160  205.6420  146.4240 C   0  0  2  0  0  0  0  0  0  0  0  0
  161.8930  204.7300  147.7140 C   0  0  1  0  0  0  0  0  0  0  0  0
  159.9720  206.5110  147.9930 C   0  0  0  0  0  1  0  0  0  0  0  0
  162.8050  206.3790  145.9550 O   0  0  0  0  0  1  0  0  0  0  0  0
  162.2370  204.2290  146.3150 C   0  0  1  0  0  3  0  0  0  0  0  0
  160.3840  203.8200  144.8690 O   0  0  0  0  0  0  0  0  0  0  0  0
  161.2340  203.3100  145.6480 C   0  0  0  0  0  0  0  0  0  0  0  0
  161.1620  201.8610  145.9410 C   0  0  0  0  0  0  0  0  0  0  0  0
  161.4970  201.3540  147.2060 C   0  0  0  0  0  3  0  0  0  0  0  0
  160.6500  199.5990  145.2050 C   0  0  0  0  0  3  0  0  0  0  0  0
  160.9930  199.1060  146.4670 C   0  0  0  0  0  3  0  0  0  0  0  0
  160.7340  200.9700  144.9440 C   0  0  0  0  0  3  0  0  0  0  0  0
  161.4140  199.9840  147.4680 C   0  0  0  0  0  3  0  0  0  0  0  0
  161.0940  205.4520  153.9390 O   0  0  0  0  0  1  0  0  0  0  0  0
  162.8020  205.4020  152.2770 C   0  0  0  0  0  1  0  0  0  0  0  0
  161.5810  206.1240  152.8120 C   0  0  2  0  0  3  0  0  0  0  0  0
  159.2960  211.3340  154.6860 N   0  0  0  0  0  2  0  0  0  0  0  0
  158.9790  211.2500  157.1260 C   0  0  0  0  0  1  0  0  0  0  0  0
  158.7900  212.0590  155.8530 C   0  0  2  0  0  3  0  0  0  0  0  0
  157.2170  213.7830  154.9410 C   0  0  2  0  0  3  0  0  0  0  0  0
  157.3230  212.4640  155.6790 C   0  0  2  0  0  3  0  0  0  0  0  0
  156.9090  213.7360  156.4270 C   0  0  1  0  0  3  0  0  0  0  0  0
  158.0260  214.4390  157.1850 C   0  0  0  0  0  1  0  0  0  0  0  0
  155.9750  213.8010  154.1810 N   0  0  0  0  0  2  0  0  0  0  0  0
  154.8100  214.0520  152.1900 O   0  0  0  0  0  0  0  0  0  0  0  0
  155.9290  213.9940  152.7660 C   0  0  0  0  0  0  0  0  0  0  0  0
  157.1870  214.2010  151.9780 C   0  0  0  0  0  2  0  0  0  0  0  0
  155.4180  214.3630  150.2320 C   0  0  0  0  0  1  0  0  0  0  0  0
  156.9070  214.4490  150.4980 C   0  0  2  0  0  3  0  0  0  0  0  0
  157.6160  213.4000  149.6590 C   0  0  0  0  0  2  0  0  0  0  0  0
  157.5550  213.2460  147.1400 C   0  0  0  0  0  0  0  0  0  0  0  0
  156.9010  213.1890  148.4080 N   0  0  0  0  0  2  0  0  0  0  0  0
  156.7960  213.0870  145.9490 N   0  0  0  0  0  1  0  0  0  0  0  0
  158.7960  213.4510  147.0660 O   0  0  0  0  0  0  0  0  0  0  0  0
  1  8  2  0  0  0  0
  2 13  1  0  0  0  0
  2  3  2  0  0  0  0
  4 13  2  0  0  0  0
  5  7  1  0  0  0  0
  5 12  2  0  0  0  0
  6  7  2  0  0  0  0
  6  4  1  0  0  0  0
  7  2  1  0  0  0  0
  9 17  1  1  0  0  0
  9 10  1  0  0  0  0
 10  4  1  0  0  0  0
 12 18  1  0  0  0  0
 13 15  1  0  0  0  0
 14  3  1  6  0  0  0
 14 16  1  0  0  0  0
 14 11  1  0  0  0  0
 15 36  1  6  0  0  0
 15  1  1  0  0  0  0
 16  1  1  1  0  0  0
 16 11  1  0  0  0  0
 17  6  1  0  0  0  0
 18  3  1  0  0  0  0
 19 23  1  1  0  0  0
 19  9  1  0  0  0  0
 21 24  1  1  0  0  0
 21 22  1  0  0  0  0
 21 19  1  0  0  0  0
 22 19  1  0  0  0  0
 22 20  1  6  0  0  0
 25 27  1  6  0  0  0
 25 21  1  0  0  0  0
 25 22  1  0  0  0  0
 26 27  2  0  0  0  0
 27 28  1  0  0  0  0
 28 29  1  0  0  0  0
 29 33  2  0  0  0  0
 30 31  2  0  0  0  0
 31 33  1  0  0  0  0
 32 30  1  0  0  0  0
 32 28  2  0  0  0  0
 36 35  1  1  0  0  0
 36 34  1  0  0  0  0
 37 11  1  0  0  0  0
 37 39  1  0  0  0  0
 39 38  1  1  0  0  0
 40 44  1  6  0  0  0
 40 41  1  0  0  0  0
 40 42  1  0  0  0  0
 41 39  1  1  0  0  0
 41 42  1  0  0  0  0
 42 43  1  1  0  0  0
 45 46  2  0  0  0  0
 46 44  1  0  0  0  0
 47 46  1  0  0  0  0
 49 48  1  1  0  0  0
 49 47  1  0  0  0  0
 50 49  1  0  0  0  0
 51 52  1  0  0  0  0
 52 50  1  0  0  0  0
 53 51  1  0  0  0  0
 54 51  2  0  0  0  0
M  END
>  <MODEL>
4

>  <REMARK>
 VINA RESULT:      -3.2      3.398     10.596
  Name = 
  12 active torsions:
  status: ('A' for Active; 'I' for Inactive)
    1  A    between atoms: C_2  and  N_5
    2  A    between atoms: C_8  and  C_43
    3  A    between atoms: C_10  and  C_32
    4  A    between atoms: C_14  and  C_53
    5  A    between atoms: C_23  and  N_29
    6  A    between atoms: C_23  and  C_40
    7  A    between atoms: N_25  and  N_36
    8  A    between atoms: N_25  and  C_43
    9  A    between atoms: C_26  and  C_47
   10  A    between atoms: C_35  and  C_53
   11  A    between atoms: C_40  and  C_48
   12  A    between atoms: C_48  and  C_54
                            x       y       z     vdW  Elec       q    Type
                         _______ _______ _______ _____ _____    ______ ____

>  <TORSDO>
F 12

$$$$
=
 OpenBabel11072410343D

 54 62  0  0  1  0  0  0  0  0999 V2000
  162.3820  208.2320  150.6170 C   0  0  0  0  0  0  0  0  0  0  0  0
  160.9610  208.8800  153.3980 C   0  0  0  0  0  0  0  0  0  0  0  0
  161.2440  207.5740  153.5000 C   0  0  0  0  0  0  0  0  0  0  0  0
  160.8500  211.0030  152.8230 C   0  0  0  0  0  0  0  0  0  0  0  0
  159.6200  208.8850  155.5540 C   0  0  0  0  0  3  0  0  0  0  0  0
  160.1260  210.8330  154.0110 C   0  0  0  0  0  0  0  0  0  0  0  0
  160.1660  209.5720  154.3900 C   0  0  0  0  0  0  0  0  0  0  0  0
  163.1790  207.9350  149.7440 O   0  0  0  0  0  0  0  0  0  0  0  0
  160.0210  213.0820  153.3020 C   0  0  2  0  0  3  0  0  0  0  0  0
  160.8390  212.3070  152.3960 O   0  0  0  0  0  0  0  0  0  0  0  0
  162.0790  205.8820  151.6490 N   0  0  0  0  0  0  0  0  0  0  0  0
  159.8960  207.5770  155.6880 C   0  0  0  0  0  3  0  0  0  0  0  0
  161.3750  209.8730  152.3540 C   0  0  0  0  0  0  0  0  0  0  0  0
  162.2610  207.0490  152.5380 C   0  0  1  0  0  3  0  0  0  0  0  0
  162.2270  209.6840  151.0880 C   0  0  2  0  0  3  0  0  0  0  0  0
  161.5360  207.1900  151.2630 C   0  0  1  0  0  3  0  0  0  0  0  0
  159.5740  212.1240  154.4610 C   0  0  0  0  0  2  0  0  0  0  0  0
  160.7630  206.7860  154.7080 C   0  0  0  0  0  2  0  0  0  0  0  0
  158.7820  213.6790  152.5910 C   0  0  1  0  0  0  0  0  0  0  0  0
  156.8960  212.7360  151.6380 O   0  0  0  0  0  1  0  0  0  0  0  0
  158.8850  214.3150  151.2200 C   0  0  2  0  0  0  0  0  0  0  0  0
  158.2740  212.8620  151.4230 C   0  0  1  0  0  0  0  0  0  0  0  0
  157.7970  214.4520  153.4680 C   0  0  0  0  0  1  0  0  0  0  0  0
  160.2550  214.4530  150.9870 O   0  0  0  0  0  1  0  0  0  0  0  0
  158.4600  213.4750  150.0390 C   0  0  1  0  0  3  0  0  0  0  0  0
  156.2330  214.3300  150.0850 O   0  0  0  0  0  0  0  0  0  0  0  0
  157.2260  214.0370  149.3650 C   0  0  0  0  0  0  0  0  0  0  0  0
  157.1110  214.1730  147.8950 C   0  0  0  0  0  0  0  0  0  0  0  0
  155.8600  214.2170  147.2610 C   0  0  0  0  0  3  0  0  0  0  0  0
  158.1840  214.4170  145.7250 C   0  0  0  0  0  3  0  0  0  0  0  0
  156.9310  214.4520  145.1050 C   0  0  0  0  0  3  0  0  0  0  0  0
  158.2730  214.2790  147.1130 C   0  0  0  0  0  3  0  0  0  0  0  0
  155.7700  214.3540  145.8730 C   0  0  0  0  0  3  0  0  0  0  0  0
  161.5110  210.0090  148.7660 O   0  0  0  0  0  1  0  0  0  0  0  0
  162.8380  211.7160  149.7690 C   0  0  0  0  0  1  0  0  0  0  0  0
  161.7780  210.6530  149.9790 C   0  0  2  0  0  3  0  0  0  0  0  0
  161.0020  205.1170  152.1320 N   0  0  0  0  0  2  0  0  0  0  0  0
  161.1740  202.6630  152.0440 C   0  0  0  0  0  1  0  0  0  0  0  0
  160.8290  203.9340  151.2860 C   0  0  2  0  0  3  0  0  0  0  0  0
  160.7570  204.4390  148.8330 C   0  0  2  0  0  3  0  0  0  0  0  0
  161.6440  204.0350  149.9940 C   0  0  2  0  0  3  0  0  0  0  0  0
  161.2730  203.0130  148.9130 C   0  0  1  0  0  3  0  0  0  0  0  0
  160.1160  202.0870  149.2610 C   0  0  0  0  0  1  0  0  0  0  0  0
  161.5490  205.1950  147.8740 N   0  0  0  0  0  2  0  0  0  0  0  0
  162.7140  205.3560  145.8740 O   0  0  0  0  0  0  0  0  0  0  0  0
  161.9840  204.6550  146.6240 C   0  0  0  0  0  0  0  0  0  0  0  0
  161.6470  203.2480  146.2360 C   0  0  0  0  0  2  0  0  0  0  0  0
  159.9040  204.3880  144.8710 C   0  0  0  0  0  1  0  0  0  0  0  0
  160.8210  203.1840  144.9550 C   0  0  2  0  0  3  0  0  0  0  0  0
  159.9760  201.9220  144.9510 C   0  0  0  0  0  2  0  0  0  0  0  0
  161.2010  199.9490  145.9380 C   0  0  0  0  0  0  0  0  0  0  0  0
  160.3330  201.0730  146.0780 N   0  0  0  0  0  2  0  0  0  0  0  0
  161.4700  199.1240  147.0630 N   0  0  0  0  0  1  0  0  0  0  0  0
  161.7200  199.6730  144.8230 O   0  0  0  0  0  0  0  0  0  0  0  0
  1 15  1  0  0  0  0
  2  3  2  0  0  0  0
  2  7  1  0  0  0  0
  3 18  1  0  0  0  0
  4  6  1  0  0  0  0
  5 12  2  0  0  0  0
  6  7  2  0  0  0  0
  6 17  1  0  0  0  0
  7  5  1  0  0  0  0
  8  1  2  0  0  0  0
  9 17  1  1  0  0  0
 10  4  1  0  0  0  0
 10  9  1  0  0  0  0
 11 37  1  0  0  0  0
 11 14  1  0  0  0  0
 13  4  2  0  0  0  0
 13  2  1  0  0  0  0
 14  3  1  1  0  0  0
 15 36  1  6  0  0  0
 15 13  1  0  0  0  0
 16  1  1  6  0  0  0
 16 11  1  0  0  0  0
 16 14  1  0  0  0  0
 18 12  1  0  0  0  0
 19  9  1  0  0  0  0
 19 23  1  1  0  0  0
 21 24  1  6  0  0  0
 21 22  1  0  0  0  0
 21 19  1  0  0  0  0
 22 20  1  1  0  0  0
 22 19  1  0  0  0  0
 25 27  1  1  0  0  0
 25 21  1  0  0  0  0
 25 22  1  0  0  0  0
 27 26  2  0  0  0  0
 28 27  1  0  0  0  0
 29 28  1  0  0  0  0
 30 32  1  0  0  0  0
 31 30  2  0  0  0  0
 31 33  1  0  0  0  0
 32 28  2  0  0  0  0
 33 29  2  0  0  0  0
 34 36  1  0  0  0  0
 36 35  1  6  0  0  0
 39 38  1  1  0  0  0
 39 37  1  0  0  0  0
 40 44  1  6  0  0  0
 40 42  1  0  0  0  0
 40 41  1  0  0  0  0
 41 39  1  1  0  0  0
 42 43  1  1  0  0  0
 42 41  1  0  0  0  0
 45 46  2  0  0  0  0
 46 44  1  0  0  0  0
 47 46  1  0  0  0  0
 49 48  1  1  0  0  0
 49 47  1  0  0  0  0
 50 49  1  0  0  0  0
 50 52  1  0  0  0  0
 51 52  1  0  0  0  0
 51 53  1  0  0  0  0
 54 51  2  0  0  0  0
M  END
>  <MODEL>
5

>  <REMARK>
 VINA RESULT:      -2.8      1.888      2.610
  Name = 
  12 active torsions:
  status: ('A' for Active; 'I' for Inactive)
    1  A    between atoms: C_2  and  N_5
    2  A    between atoms: C_8  and  C_43
    3  A    between atoms: C_10  and  C_32
    4  A    between atoms: C_14  and  C_53
    5  A    between atoms: C_23  and  N_29
    6  A    between atoms: C_23  and  C_40
    7  A    between atoms: N_25  and  N_36
    8  A    between atoms: N_25  and  C_43
    9  A    between atoms: C_26  and  C_47
   10  A    between atoms: C_35  and  C_53
   11  A    between atoms: C_40  and  C_48
   12  A    between atoms: C_48  and  C_54
                            x       y       z     vdW  Elec       q    Type
                         _______ _______ _______ _____ _____    ______ ____

>  <TORSDO>
F 12

$$$$
=
 OpenBabel11072410343D

 54 62  0  0  1  0  0  0  0  0999 V2000
  162.3390  207.8570  150.3400 C   0  0  0  0  0  0  0  0  0  0  0  0
  160.9230  208.4990  153.1260 C   0  0  0  0  0  0  0  0  0  0  0  0
  161.1840  207.1880  153.2140 C   0  0  0  0  0  0  0  0  0  0  0  0
  160.8500  210.6300  152.5730 C   0  0  0  0  0  0  0  0  0  0  0  0
  159.5770  208.5040  155.2770 C   0  0  0  0  0  3  0  0  0  0  0  0
  160.1210  210.4590  153.7580 C   0  0  0  0  0  0  0  0  0  0  0  0
  160.1380  209.1940  154.1230 C   0  0  0  0  0  0  0  0  0  0  0  0
  163.1340  207.5560  149.4660 O   0  0  0  0  0  0  0  0  0  0  0  0
  160.0550  212.7180  153.0730 C   0  0  2  0  0  3  0  0  0  0  0  0
  160.8630  211.9390  152.1610 O   0  0  0  0  0  0  0  0  0  0  0  0
  161.9940  205.5010  151.3460 N   0  0  0  0  0  0  0  0  0  0  0  0
  159.8300  207.1890  155.3980 C   0  0  0  0  0  3  0  0  0  0  0  0
  161.3570  209.4960  152.0930 C   0  0  0  0  0  0  0  0  0  0  0  0
  162.1930  206.6550  152.2480 C   0  0  1  0  0  3  0  0  0  0  0  0
  162.2080  209.3060  150.8270 C   0  0  2  0  0  3  0  0  0  0  0  0
  161.4740  206.8220  150.9730 C   0  0  1  0  0  3  0  0  0  0  0  0
  159.5890  211.7550  154.2200 C   0  0  0  0  0  2  0  0  0  0  0  0
  160.6860  206.3950  154.4120 C   0  0  0  0  0  2  0  0  0  0  0  0
  158.8290  213.3440  152.3650 C   0  0  1  0  0  0  0  0  0  0  0  0
  157.0850  212.4500  151.1350 O   0  0  0  0  0  1  0  0  0  0  0  0
  158.9800  214.1910  151.1190 C   0  0  2  0  0  0  0  0  0  0  0  0
  158.4620  212.6910  151.0500 C   0  0  1  0  0  0  0  0  0  0  0  0
  157.7330  213.9090  153.2690 C   0  0  0  0  0  1  0  0  0  0  0  0
  160.3490  214.4460  151.0180 O   0  0  0  0  0  1  0  0  0  0  0  0
  158.6980  213.5230  149.7950 C   0  0  1  0  0  3  0  0  0  0  0  0
  156.4960  214.4420  149.8390 O   0  0  0  0  0  0  0  0  0  0  0  0
  157.4760  214.1090  149.1180 C   0  0  0  0  0  0  0  0  0  0  0  0
  157.3560  214.2240  147.6480 C   0  0  0  0  0  0  0  0  0  0  0  0
  158.4880  214.2000  146.8180 C   0  0  0  0  0  3  0  0  0  0  0  0
  155.9540  214.4430  145.6720 C   0  0  0  0  0  3  0  0  0  0  0  0
  157.0900  214.4250  144.8570 C   0  0  0  0  0  3  0  0  0  0  0  0
  156.0870  214.3430  147.0600 C   0  0  0  0  0  3  0  0  0  0  0  0
  158.3570  214.3020  145.4310 C   0  0  0  0  0  3  0  0  0  0  0  0
  161.5010  209.6680  148.5080 O   0  0  0  0  0  1  0  0  0  0  0  0
  162.8600  211.3390  149.5290 C   0  0  0  0  0  1  0  0  0  0  0  0
  161.7790  210.2950  149.7270 C   0  0  2  0  0  3  0  0  0  0  0  0
  160.9020  204.7500  151.8180 N   0  0  0  0  0  2  0  0  0  0  0  0
  162.8230  203.2120  151.9000 C   0  0  0  0  0  1  0  0  0  0  0  0
  161.3130  203.3560  151.9950 C   0  0  2  0  0  3  0  0  0  0  0  0
  161.3900  202.3590  149.6970 C   0  0  2  0  0  3  0  0  0  0  0  0
  160.6140  202.4270  150.9980 C   0  0  2  0  0  3  0  0  0  0  0  0
  160.0740  203.1160  149.7400 C   0  0  1  0  0  3  0  0  0  0  0  0
  160.3580  204.6080  149.6410 C   0  0  0  0  0  1  0  0  0  0  0  0
  161.1860  201.0510  149.0930 N   0  0  0  0  0  2  0  0  0  0  0  0
  161.0280  199.6690  147.2350 O   0  0  0  0  0  0  0  0  0  0  0  0
  161.2730  200.8200  147.6850 C   0  0  0  0  0  0  0  0  0  0  0  0
  161.5780  201.9420  146.7400 C   0  0  0  0  0  2  0  0  0  0  0  0
  160.0950  200.9940  144.9780 C   0  0  0  0  0  1  0  0  0  0  0  0
  160.4170  202.2310  145.7930 C   0  0  2  0  0  3  0  0  0  0  0  0
  160.7950  203.3570  144.8460 C   0  0  0  0  0  2  0  0  0  0  0  0
  161.4020  205.5770  145.8810 C   0  0  0  0  0  0  0  0  0  0  0  0
  161.7510  204.2520  145.4830 N   0  0  0  0  0  2  0  0  0  0  0  0
  162.3920  206.4250  146.4480 N   0  0  0  0  0  1  0  0  0  0  0  0
  160.2280  206.0090  145.7210 O   0  0  0  0  0  0  0  0  0  0  0  0
  1 15  1  0  0  0  0
  2  3  2  0  0  0  0
  2  7  1  0  0  0  0
  3 18  1  0  0  0  0
  4  6  1  0  0  0  0
  5 12  2  0  0  0  0
  6  7  2  0  0  0  0
  6 17  1  0  0  0  0
  7  5  1  0  0  0  0
  8  1  2  0  0  0  0
  9 17  1  1  0  0  0
 10  4  1  0  0  0  0
 10  9  1  0  0  0  0
 11 37  1  0  0  0  0
 11 14  1  0  0  0  0
 13  4  2  0  0  0  0
 13  2  1  0  0  0  0
 14  3  1  1  0  0  0
 15 36  1  6  0  0  0
 15 13  1  0  0  0  0
 16  1  1  6  0  0  0
 16 11  1  0  0  0  0
 16 14  1  0  0  0  0
 18 12  1  0  0  0  0
 19  9  1  0  0  0  0
 19 23  1  1  0  0  0
 21 24  1  6  0  0  0
 21 19  1  0  0  0  0
 22 21  1  0  0  0  0
 22 20  1  1  0  0  0
 22 19  1  0  0  0  0
 25 27  1  1  0  0  0
 25 22  1  0  0  0  0
 25 21  1  0  0  0  0
 27 26  2  0  0  0  0
 28 27  1  0  0  0  0
 29 28  2  0  0  0  0
 30 32  2  0  0  0  0
 31 33  2  0  0  0  0
 31 30  1  0  0  0  0
 32 28  1  0  0  0  0
 33 29  1  0  0  0  0
 34 36  1  0  0  0  0
 36 35  1  6  0  0  0
 37 39  1  0  0  0  0
 39 38  1  6  0  0  0
 40 44  1  6  0  0  0
 40 42  1  0  0  0  0
 40 41  1  0  0  0  0
 41 39  1  1  0  0  0
 42 43  1  1  0  0  0
 42 41  1  0  0  0  0
 45 46  2  0  0  0  0
 46 44  1  0  0  0  0
 47 46  1  0  0  0  0
 49 48  1  6  0  0  0
 49 47  1  0  0  0  0
 50 52  1  0  0  0  0
 50 49  1  0  0  0  0
 51 53  1  0  0  0  0
 52 51  1  0  0  0  0
 54 51  2  0  0  0  0
M  END
>  <MODEL>
6

>  <REMARK>
 VINA RESULT:      -2.3      2.108      3.543
  Name = 
  12 active torsions:
  status: ('A' for Active; 'I' for Inactive)
    1  A    between atoms: C_2  and  N_5
    2  A    between atoms: C_8  and  C_43
    3  A    between atoms: C_10  and  C_32
    4  A    between atoms: C_14  and  C_53
    5  A    between atoms: C_23  and  N_29
    6  A    between atoms: C_23  and  C_40
    7  A    between atoms: N_25  and  N_36
    8  A    between atoms: N_25  and  C_43
    9  A    between atoms: C_26  and  C_47
   10  A    between atoms: C_35  and  C_53
   11  A    between atoms: C_40  and  C_48
   12  A    between atoms: C_48  and  C_54
                            x       y       z     vdW  Elec       q    Type
                         _______ _______ _______ _____ _____    ______ ____

>  <TORSDO>
F 12

$$$$
=
 OpenBabel11072410343D

 54 62  0  0  1  0  0  0  0  0999 V2000
  161.9900  209.8050  149.2640 C   0  0  0  0  0  0  0  0  0  0  0  0
  161.7090  208.2440  152.0310 C   0  0  0  0  0  0  0  0  0  0  0  0
  161.9930  207.2660  151.1590 C   0  0  0  0  0  0  0  0  0  0  0  0
  161.4210  210.1670  153.0630 C   0  0  0  0  0  0  0  0  0  0  0  0
  161.2610  206.6040  153.9160 C   0  0  0  0  0  3  0  0  0  0  0  0
  161.1860  209.1370  153.9840 C   0  0  0  0  0  0  0  0  0  0  0  0
  161.3470  207.9660  153.4040 C   0  0  1  0  0  3  0  0  0  0  0  0
  162.4040  210.3080  148.2330 O   0  0  0  0  0  0  0  0  0  0  0  0
  160.8550  211.2400  155.0050 C   0  0  2  0  0  3  0  0  0  0  0  0
  161.2700  211.4080  153.6300 O   0  0  0  0  0  0  0  0  0  0  0  0
  162.0610  207.3320  148.5180 N   0  0  0  0  0  0  0  0  0  0  0  0
  161.5500  205.6020  153.0670 C   0  0  0  0  0  3  0  0  0  0  0  0
  161.7200  209.7310  151.8410 C   0  0  0  0  0  0  0  0  0  0  0  0
  162.5740  207.7030  149.8530 C   0  0  1  0  0  3  0  0  0  0  0  0
  162.0400  210.5690  150.5930 C   0  0  2  0  0  3  0  0  0  0  0  0
  161.4300  208.4250  149.2670 C   0  0  1  0  0  3  0  0  0  0  0  0
  160.8560  209.7000  155.3060 C   0  0  0  0  0  2  0  0  0  0  0  0
  161.9830  205.8160  151.6170 C   0  0  0  0  0  3  0  0  0  0  0  0
  159.4490  211.8350  155.2590 C   0  0  1  0  0  0  0  0  0  0  0  0
  158.0980  211.9590  157.1340 O   0  0  0  0  0  1  0  0  0  0  0  0
  158.2030  211.2020  154.6760 C   0  0  2  0  0  0  0  0  0  0  0  0
  158.5880  211.0290  156.2080 C   0  0  1  0  0  0  0  0  0  0  0  0
  159.3380  213.3600  155.2350 C   0  0  0  0  0  1  0  0  0  0  0  0
  158.6710  210.2720  153.7460 O   0  0  0  0  0  1  0  0  0  0  0  0
  157.3830  210.3260  155.5940 C   0  0  1  0  0  3  0  0  0  0  0  0
  155.2530  210.3190  156.6690 O   0  0  0  0  0  0  0  0  0  0  0  0
  156.0210  210.9260  155.8740 C   0  0  0  0  0  0  0  0  0  0  0  0
  155.5280  212.1420  155.1900 C   0  0  0  0  0  0  0  0  0  0  0  0
  155.2240  213.3110  155.9050 C   0  0  0  0  0  3  0  0  0  0  0  0
  154.9180  213.2840  153.1290 C   0  0  0  0  0  3  0  0  0  0  0  0
  154.6130  214.4400  153.8540 C   0  0  0  0  0  3  0  0  0  0  0  0
  155.3740  212.1420  153.7940 C   0  0  0  0  0  3  0  0  0  0  0  0
  154.7680  214.4530  155.2420 C   0  0  0  0  0  3  0  0  0  0  0  0
  159.9110  211.7010  151.0350 O   0  0  0  0  0  1  0  0  0  0  0  0
  161.2160  212.4700  149.1950 C   0  0  0  0  0  1  0  0  0  0  0  0
  161.2250  211.8760  150.5900 C   0  0  2  0  0  3  0  0  0  0  0  0
  161.2290  206.2060  148.6570 N   0  0  0  0  0  2  0  0  0  0  0  0
  163.1270  205.4580  147.2790 C   0  0  0  0  0  1  0  0  0  0  0  0
  161.7690  205.1010  147.8630 C   0  0  2  0  0  3  0  0  0  0  0  0
  161.4920  203.7480  145.7720 C   0  0  2  0  0  3  0  0  0  0  0  0
  160.8000  204.6660  146.7600 C   0  0  2  0  0  3  0  0  0  0  0  0
  161.1520  205.1670  145.3550 C   0  0  1  0  0  3  0  0  0  0  0  0
  162.4390  205.9740  145.2530 C   0  0  0  0  0  1  0  0  0  0  0  0
  160.5120  202.8240  145.2200 N   0  0  0  0  0  2  0  0  0  0  0  0
  159.5910  200.7020  145.0390 O   0  0  0  0  0  0  0  0  0  0  0  0
  160.4320  201.4500  145.6050 C   0  0  0  0  0  0  0  0  0  0  0  0
  161.3810  200.8780  146.6130 C   0  0  0  0  0  2  0  0  0  0  0  0
  159.3590  201.3360  147.9930 C   0  0  0  0  0  1  0  0  0  0  0  0
  160.8170  200.9270  148.0300 C   0  0  2  0  0  3  0  0  0  0  0  0
  161.5900  201.9400  148.8560 C   0  0  0  0  0  2  0  0  0  0  0  0
  160.6100  202.6940  151.0560 C   0  0  0  0  0  0  0  0  0  0  0  0
  161.3270  201.7400  150.2740 N   0  0  0  0  0  2  0  0  0  0  0  0
  160.4300  202.4710  152.4480 N   0  0  0  0  0  1  0  0  0  0  0  0
  160.1460  203.7400  150.5270 O   0  0  0  0  0  0  0  0  0  0  0  0
  1 15  1  0  0  0  0
  2  7  1  0  0  0  0
  3 18  2  0  0  0  0
  3  2  1  0  0  0  0
  4 10  1  0  0  0  0
  4  6  2  0  0  0  0
  6 17  1  0  0  0  0
  7  5  1  1  0  0  0
  7  6  1  0  0  0  0
  8  1  2  0  0  0  0
  9 19  1  0  0  0  0
  9 17  1  6  0  0  0
 10  9  1  0  0  0  0
 11 37  1  0  0  0  0
 11 16  1  0  0  0  0
 11 14  1  0  0  0  0
 12  5  2  0  0  0  0
 13  2  2  0  0  0  0
 13  4  1  0  0  0  0
 14  3  1  1  0  0  0
 15 36  1  6  0  0  0
 15 13  1  0  0  0  0
 16  1  1  6  0  0  0
 16 14  1  0  0  0  0
 18 12  1  0  0  0  0
 19 23  1  1  0  0  0
 19 22  1  0  0  0  0
 21 24  1  6  0  0  0
 21 19  1  0  0  0  0
 21 25  1  0  0  0  0
 21 22  1  0  0  0  0
 22 20  1  1  0  0  0
 25 27  1  1  0  0  0
 25 22  1  0  0  0  0
 27 26  2  0  0  0  0
 28 27  1  0  0  0  0
 28 29  1  0  0  0  0
 30 32  1  0  0  0  0
 30 31  2  0  0  0  0
 31 33  1  0  0  0  0
 32 28  2  0  0  0  0
 33 29  2  0  0  0  0
 36 35  1  6  0  0  0
 36 34  1  0  0  0  0
 39 38  1  6  0  0  0
 39 37  1  0  0  0  0
 40 44  1  6  0  0  0
 40 41  1  0  0  0  0
 41 39  1  1  0  0  0
 42 43  1  1  0  0  0
 42 40  1  0  0  0  0
 42 41  1  0  0  0  0
 44 46  1  0  0  0  0
 45 46  2  0  0  0  0
 46 47  1  0  0  0  0
 47 49  1  0  0  0  0
 49 48  1  6  0  0  0
 49 50  1  0  0  0  0
 50 52  1  0  0  0  0
 51 53  1  0  0  0  0
 52 51  1  0  0  0  0
 54 51  2  0  0  0  0
M  END
>  <MODEL>
7

>  <REMARK>
 VINA RESULT:      -1.9      2.180      4.071
  Name = 
  12 active torsions:
  status: ('A' for Active; 'I' for Inactive)
    1  A    between atoms: C_2  and  N_5
    2  A    between atoms: C_8  and  C_43
    3  A    between atoms: C_10  and  C_32
    4  A    between atoms: C_14  and  C_53
    5  A    between atoms: C_23  and  N_29
    6  A    between atoms: C_23  and  C_40
    7  A    between atoms: N_25  and  N_36
    8  A    between atoms: N_25  and  C_43
    9  A    between atoms: C_26  and  C_47
   10  A    between atoms: C_35  and  C_53
   11  A    between atoms: C_40  and  C_48
   12  A    between atoms: C_48  and  C_54
                            x       y       z     vdW  Elec       q    Type
                         _______ _______ _______ _____ _____    ______ ____

>  <TORSDO>
F 12

$$$$
