=
 OpenBabel11072410533D

 40 42  0  0  1  0  0  0  0  0999 V2000
  160.6150  207.2670  154.0530 O   0  0  0  0  0  1  0  0  0  0  0  0
  161.2970  205.3640  151.2200 C   0  0  0  0  0  0  0  0  0  0  0  0
  161.5510  208.1010  152.0080 C   0  0  1  0  0  3  0  0  0  0  0  0
  162.5620  207.8840  150.8830 C   0  0  0  0  0  2  0  0  0  0  0  0
  161.5530  206.9720  153.0570 C   0  0  2  0  0  3  0  0  0  0  0  0
  161.2630  205.5960  152.5060 C   0  0  0  0  0  0  0  0  0  0  0  0
  161.6450  206.3710  148.9730 C   0  0  2  0  0  3  0  0  0  0  0  0
  161.0100  204.5420  153.3790 O   0  0  0  0  0  1  0  0  0  0  0  0
  161.3890  205.2240  149.9270 C   0  0  0  0  0  3  0  0  0  0  0  0
  161.7960  207.7970  149.5630 C   0  0  2  0  0  3  0  0  0  0  0  0
  160.5690  206.4160  147.8870 C   0  0  2  0  0  3  0  0  0  0  0  0
  159.2890  206.2270  148.4200 O   0  0  0  0  0  1  0  0  0  0  0  0
  160.8490  205.4780  146.7140 C   0  0  2  0  0  3  0  0  0  0  0  0
  162.1820  204.8280  146.8890 C   0  0  0  0  0  0  0  0  0  0  0  0
  163.2380  205.4970  146.7240 O   0  0  0  0  0  0  0  0  0  0  0  0
  162.2470  203.4820  147.2500 O   0  0  0  0  0  0  0  0  0  0  0  0
  161.0820  202.6720  147.3550 C   0  0  1  0  0  3  0  0  0  0  0  0
  160.8690  201.9150  146.0600 C   0  0  0  0  0  1  0  0  0  0  0  0
  161.1640  201.7130  148.5440 C   0  0  2  0  0  3  0  0  0  0  0  0
  161.4050  200.4190  148.0910 O   0  0  0  0  0  1  0  0  0  0  0  0
  159.8960  201.7330  149.3870 C   0  0  0  0  0  1  0  0  0  0  0  0
  160.8070  206.1680  145.4960 O   0  0  0  0  0  0  0  0  0  0  0  0
  160.6210  205.1860  144.5230 C   0  0  0  0  0  2  0  0  0  0  0  0
  161.5220  205.3870  143.4760 O   0  0  0  0  0  1  0  0  0  0  0  0
  161.8010  209.4630  152.6470 C   0  0  0  0  0  2  0  0  0  0  0  0
  160.9000  210.4530  152.0770 N   0  0  0  0  0  2  0  0  0  0  0  0
  160.5450  211.3810  153.1430 C   0  0  1  0  0  3  0  0  0  0  0  0
  159.0700  211.7950  153.0210 C   0  0  1  0  0  3  0  0  0  0  0  0
  160.2410  209.6390  156.8910 S   0  0  0  0  0  1  0  0  0  0  0  0
  156.6070  212.0670  155.5750 C   0  0  0  0  0  2  0  0  0  0  0  0
  157.5160  211.0780  155.9710 O   0  0  0  0  0  0  0  0  0  0  0  0
  158.5760  212.4430  154.3240 C   0  0  2  0  0  3  0  0  0  0  0  0
  158.7750  211.5440  155.5540 C   0  0  2  0  0  3  0  0  0  0  0  0
  160.9300  210.7950  154.5110 C   0  0  0  0  0  2  0  0  0  0  0  0
  159.7090  210.3590  155.3100 C   0  0  1  0  0  3  0  0  0  0  0  0
  158.9120  212.7650  151.8560 C   0  0  0  0  0  1  0  0  0  0  0  0
  157.0920  212.6740  154.2840 C   0  0  0  0  0  2  0  0  0  0  0  0
  162.4120  208.6290  148.6190 O   0  0  0  0  0  0  0  0  0  0  0  0
  162.5760  210.8920  148.4340 O   0  0  0  0  0  1  0  0  0  0  0  0
  161.7060  209.8290  148.6650 C   0  0  0  0  0  2  0  0  0  0  0  0
  2  6  2  0  0  0  0
  3 25  1  1  0  0  0
  3  5  1  0  0  0  0
  4  3  1  0  0  0  0
  5  1  1  1  0  0  0
  6  5  1  0  0  0  0
  6  8  1  0  0  0  0
  7 11  1  6  0  0  0
  7 10  1  0  0  0  0
  7  9  1  0  0  0  0
  9  2  2  0  0  0  0
 10 38  1  6  0  0  0
 10  4  1  0  0  0  0
 11 12  1  1  0  0  0
 13 22  1  6  0  0  0
 13 14  1  0  0  0  0
 13 11  1  0  0  0  0
 14 16  1  0  0  0  0
 15 14  2  0  0  0  0
 16 17  1  0  0  0  0
 17 18  1  6  0  0  0
 17 19  1  0  0  0  0
 19 21  1  6  0  0  0
 20 19  1  0  0  0  0
 23 22  1  0  0  0  0
 24 23  1  0  0  0  0
 26 25  1  0  0  0  0
 27 26  1  6  0  0  0
 27 34  1  0  0  0  0
 28 36  1  6  0  0  0
 28 27  1  0  0  0  0
 28 32  1  0  0  0  0
 30 31  1  0  0  0  0
 32 37  1  6  0  0  0
 32 33  1  0  0  0  0
 33 31  1  6  0  0  0
 34 35  1  0  0  0  0
 35 33  1  0  0  0  0
 35 29  1  1  0  0  0
 37 30  1  0  0  0  0
 38 40  1  0  0  0  0
 39 40  1  0  0  0  0
M  END
>  <MODEL>
1

>  <REMARK>
 VINA RESULT:      -7.1      0.000      0.000
  Name = 
  13 active torsions:
  status: ('A' for Active; 'I' for Inactive)
    1  A    between atoms: C_1  and  C_2
    2  A    between atoms: C_1  and  O_26
    3  A    between atoms: C_2  and  C_6
    4  A    between atoms: C_2  and  O_37
    5  A    between atoms: C_4  and  C_14
    6  A    between atoms: C_5  and  N_16
    7  A    between atoms: C_6  and  C_32
    8  A    between atoms: C_8  and  N_16
    9  A    between atoms: C_8  and  C_18
   10  A    between atoms: C_11  and  O_37
   11  A    between atoms: C_14  and  O_26
   12  A    between atoms: C_20  and  O_34
   13  A    between atoms: O_34  and  C_40
                            x       y       z     vdW  Elec       q    Type
                         _______ _______ _______ _____ _____    ______ ____

>  <TORSDO>
F 13

$$$$
=
 OpenBabel11072410533D

 40 42  0  0  1  0  0  0  0  0999 V2000
  162.5460  204.8890  151.5390 O   0  0  0  0  0  1  0  0  0  0  0  0
  160.9510  207.0770  153.7250 C   0  0  0  0  0  0  0  0  0  0  0  0
  161.8620  207.1280  151.0150 C   0  0  1  0  0  3  0  0  0  0  0  0
  160.7650  208.1860  151.1180 C   0  0  0  0  0  2  0  0  0  0  0  0
  161.4940  205.7980  151.7020 C   0  0  2  0  0  3  0  0  0  0  0  0
  161.1730  205.9140  153.1730 C   0  0  0  0  0  0  0  0  0  0  0  0
  160.8580  209.5330  153.3440 C   0  0  2  0  0  3  0  0  0  0  0  0
  161.0530  204.7620  153.9460 O   0  0  0  0  0  1  0  0  0  0  0  0
  160.7120  208.2770  154.1760 C   0  0  0  0  0  3  0  0  0  0  0  0
  161.3300  209.3880  151.8740 C   0  0  2  0  0  3  0  0  0  0  0  0
  161.7770  210.5350  154.0430 C   0  0  2  0  0  3  0  0  0  0  0  0
  163.1170  210.3430  153.6890 O   0  0  0  0  0  1  0  0  0  0  0  0
  161.5840  210.5840  155.5590 C   0  0  2  0  0  3  0  0  0  0  0  0
  160.4360  211.4790  155.8960 C   0  0  0  0  0  0  0  0  0  0  0  0
  160.6470  212.6660  156.2660 O   0  0  0  0  0  0  0  0  0  0  0  0
  159.1330  210.9940  155.7830 O   0  0  0  0  0  0  0  0  0  0  0  0
  158.0670  211.8010  155.2960 C   0  0  1  0  0  3  0  0  0  0  0  0
  158.0020  211.7020  153.7850 C   0  0  0  0  0  1  0  0  0  0  0  0
  156.7290  211.4150  155.9290 C   0  0  2  0  0  3  0  0  0  0  0  0
  155.9360  210.7560  154.9930 O   0  0  0  0  0  1  0  0  0  0  0  0
  155.9800  212.6240  156.4740 C   0  0  0  0  0  1  0  0  0  0  0  0
  162.7450  211.0310  156.2000 O   0  0  0  0  0  0  0  0  0  0  0  0
  162.9480  210.1390  157.2550 C   0  0  0  0  0  2  0  0  0  0  0  0
  162.2940  208.9360  156.9830 O   0  0  0  0  0  1  0  0  0  0  0  0
  162.2230  206.9230  149.5480 C   0  0  0  0  0  2  0  0  0  0  0  0
  161.1900  206.1410  148.8860 N   0  0  0  0  0  2  0  0  0  0  0  0
  161.8610  205.1340  148.0740 C   0  0  1  0  0  3  0  0  0  0  0  0
  161.0780  203.8120  148.1100 C   0  0  1  0  0  3  0  0  0  0  0  0
  161.5500  205.7560  143.9880 S   0  0  0  0  0  1  0  0  0  0  0  0
  160.2720  201.6170  145.4280 C   0  0  0  0  0  2  0  0  0  0  0  0
  160.3570  202.9120  144.9010 O   0  0  0  0  0  0  0  0  0  0  0  0
  161.5330  202.8780  146.9780 C   0  0  2  0  0  3  0  0  0  0  0  0
  161.4210  203.5220  145.5880 C   0  0  2  0  0  3  0  0  0  0  0  0
  162.1240  205.6780  146.6610 C   0  0  0  0  0  2  0  0  0  0  0  0
  161.2130  205.0360  145.6220 C   0  0  1  0  0  3  0  0  0  0  0  0
  161.2830  203.1400  149.4630 C   0  0  0  0  0  1  0  0  0  0  0  0
  160.6470  201.6680  146.8860 C   0  0  0  0  0  2  0  0  0  0  0  0
  161.0230  210.5600  151.1690 O   0  0  0  0  0  0  0  0  0  0  0  0
  161.7160  211.7540  149.3590 O   0  0  0  0  0  1  0  0  0  0  0  0
  161.9930  210.6580  150.1720 C   0  0  0  0  0  2  0  0  0  0  0  0
  2  9  2  0  0  0  0
  3 25  1  6  0  0  0
  3  4  1  0  0  0  0
  3  5  1  0  0  0  0
  4 10  1  0  0  0  0
  5  1  1  1  0  0  0
  5  6  1  0  0  0  0
  6  2  2  0  0  0  0
  6  8  1  0  0  0  0
  7 11  1  1  0  0  0
  7  9  1  0  0  0  0
 10 38  1  6  0  0  0
 10  7  1  0  0  0  0
 11 12  1  1  0  0  0
 11 13  1  0  0  0  0
 13 14  1  6  0  0  0
 13 22  1  0  0  0  0
 14 15  2  0  0  0  0
 16 14  1  0  0  0  0
 17 18  1  6  0  0  0
 17 16  1  0  0  0  0
 17 19  1  0  0  0  0
 19 21  1  6  0  0  0
 20 19  1  0  0  0  0
 22 23  1  0  0  0  0
 24 23  1  0  0  0  0
 26 25  1  0  0  0  0
 27 28  1  0  0  0  0
 27 26  1  1  0  0  0
 28 36  1  1  0  0  0
 30 37  1  0  0  0  0
 31 30  1  0  0  0  0
 32 37  1  6  0  0  0
 32 28  1  0  0  0  0
 33 31  1  1  0  0  0
 33 35  1  0  0  0  0
 33 32  1  0  0  0  0
 34 27  1  0  0  0  0
 35 29  1  6  0  0  0
 35 34  1  0  0  0  0
 39 40  1  0  0  0  0
 40 38  1  0  0  0  0
M  END
>  <MODEL>
2

>  <REMARK>
 VINA RESULT:      -6.7      3.040      9.723
  Name = 
  13 active torsions:
  status: ('A' for Active; 'I' for Inactive)
    1  A    between atoms: C_1  and  C_2
    2  A    between atoms: C_1  and  O_26
    3  A    between atoms: C_2  and  C_6
    4  A    between atoms: C_2  and  O_37
    5  A    between atoms: C_4  and  C_14
    6  A    between atoms: C_5  and  N_16
    7  A    between atoms: C_6  and  C_32
    8  A    between atoms: C_8  and  N_16
    9  A    between atoms: C_8  and  C_18
   10  A    between atoms: C_11  and  O_37
   11  A    between atoms: C_14  and  O_26
   12  A    between atoms: C_20  and  O_34
   13  A    between atoms: O_34  and  C_40
                            x       y       z     vdW  Elec       q    Type
                         _______ _______ _______ _____ _____    ______ ____

>  <TORSDO>
F 13

$$$$
=
 OpenBabel11072410533D

 40 42  0  0  1  0  0  0  0  0999 V2000
  159.3900  209.4090  155.4310 O   0  0  0  0  0  1  0  0  0  0  0  0
  161.3570  206.8420  154.1440 C   0  0  0  0  0  0  0  0  0  0  0  0
  160.1490  209.2410  153.1610 C   0  0  1  0  0  3  0  0  0  0  0  0
  161.3140  208.9330  152.2230 C   0  0  0  0  0  2  0  0  0  0  0  0
  160.5090  209.0890  154.6520 C   0  0  2  0  0  3  0  0  0  0  0  0
  161.0010  207.7170  155.0470 C   0  0  0  0  0  0  0  0  0  0  0  0
  161.5580  206.3930  151.7060 C   0  0  2  0  0  3  0  0  0  0  0  0
  161.1350  207.3930  156.3950 O   0  0  0  0  0  1  0  0  0  0  0  0
  161.7190  206.0520  153.1720 C   0  0  0  0  0  3  0  0  0  0  0  0
  160.9150  207.7550  151.3360 C   0  0  2  0  0  3  0  0  0  0  0  0
  160.7890  205.2890  150.9800 C   0  0  2  0  0  3  0  0  0  0  0  0
  160.2570  204.3540  151.8750 O   0  0  0  0  0  1  0  0  0  0  0  0
  161.5890  204.6240  149.8610 C   0  0  2  0  0  3  0  0  0  0  0  0
  161.0320  205.0200  148.5330 C   0  0  0  0  0  0  0  0  0  0  0  0
  160.1150  205.8820  148.4640 O   0  0  0  0  0  0  0  0  0  0  0  0
  161.5450  204.4390  147.3730 O   0  0  0  0  0  0  0  0  0  0  0  0
  162.1230  205.2160  146.3310 C   0  0  1  0  0  3  0  0  0  0  0  0
  163.5300  204.7280  146.0510 C   0  0  0  0  0  1  0  0  0  0  0  0
  161.2700  205.1870  145.0620 C   0  0  2  0  0  3  0  0  0  0  0  0
  160.2750  206.1580  145.1390 O   0  0  0  0  0  1  0  0  0  0  0  0
  160.6370  203.8220  144.8250 C   0  0  0  0  0  1  0  0  0  0  0  0
  161.5740  203.2300  149.9910 O   0  0  0  0  0  0  0  0  0  0  0  0
  160.4830  202.8010  149.2350 C   0  0  0  0  0  2  0  0  0  0  0  0
  160.0460  201.5610  149.7030 O   0  0  0  0  0  1  0  0  0  0  0  0
  159.6130  210.6340  152.8510 C   0  0  0  0  0  2  0  0  0  0  0  0
  160.5560  211.6430  153.3070 N   0  0  0  0  0  2  0  0  0  0  0  0
  159.7910  212.8480  153.6070 C   0  0  1  0  0  3  0  0  0  0  0  0
  158.8090  213.1540  152.4660 C   0  0  1  0  0  3  0  0  0  0  0  0
  156.9360  212.3590  156.5710 S   0  0  0  0  0  1  0  0  0  0  0  0
  155.3930  214.1340  152.6590 C   0  0  0  0  0  2  0  0  0  0  0  0
  155.6710  213.3480  153.7860 O   0  0  0  0  0  0  0  0  0  0  0  0
  157.7420  214.1610  152.9210 C   0  0  2  0  0  3  0  0  0  0  0  0
  156.9760  213.7000  154.1700 C   0  0  2  0  0  3  0  0  0  0  0  0
  159.1380  212.7330  154.9940 C   0  0  0  0  0  2  0  0  0  0  0  0
  157.6320  212.5290  154.9020 C   0  0  1  0  0  3  0  0  0  0  0  0
  159.5790  213.7040  151.2710 C   0  0  0  0  0  1  0  0  0  0  0  0
  156.6700  214.3200  151.8810 C   0  0  0  0  0  2  0  0  0  0  0  0
  161.2130  208.0620  150.0010 O   0  0  0  0  0  0  0  0  0  0  0  0
  162.2080  209.6900  148.7580 O   0  0  0  0  0  1  0  0  0  0  0  0
  161.9850  209.2210  150.0510 C   0  0  0  0  0  2  0  0  0  0  0  0
  2  6  2  0  0  0  0
  3 25  1  1  0  0  0
  3  5  1  0  0  0  0
  4  3  1  0  0  0  0
  5  6  1  0  0  0  0
  5  1  1  1  0  0  0
  6  8  1  0  0  0  0
  7 11  1  1  0  0  0
  7  9  1  0  0  0  0
  9  2  2  0  0  0  0
 10 38  1  6  0  0  0
 10  7  1  0  0  0  0
 10  4  1  0  0  0  0
 11 12  1  1  0  0  0
 13 14  1  6  0  0  0
 13 22  1  0  0  0  0
 13 11  1  0  0  0  0
 15 14  2  0  0  0  0
 16 14  1  0  0  0  0
 17 18  1  6  0  0  0
 17 16  1  0  0  0  0
 19 21  1  1  0  0  0
 19 20  1  0  0  0  0
 19 17  1  0  0  0  0
 23 24  1  0  0  0  0
 23 22  1  0  0  0  0
 25 26  1  0  0  0  0
 27 26  1  6  0  0  0
 27 34  1  0  0  0  0
 28 36  1  6  0  0  0
 28 32  1  0  0  0  0
 28 27  1  0  0  0  0
 30 31  1  0  0  0  0
 32 37  1  6  0  0  0
 32 33  1  0  0  0  0
 33 31  1  6  0  0  0
 33 35  1  0  0  0  0
 35 34  1  0  0  0  0
 35 29  1  1  0  0  0
 37 30  1  0  0  0  0
 38 40  1  0  0  0  0
 39 40  1  0  0  0  0
M  END
>  <MODEL>
3

>  <REMARK>
 VINA RESULT:      -6.7      1.783      3.477
  Name = 
  13 active torsions:
  status: ('A' for Active; 'I' for Inactive)
    1  A    between atoms: C_1  and  C_2
    2  A    between atoms: C_1  and  O_26
    3  A    between atoms: C_2  and  C_6
    4  A    between atoms: C_2  and  O_37
    5  A    between atoms: C_4  and  C_14
    6  A    between atoms: C_5  and  N_16
    7  A    between atoms: C_6  and  C_32
    8  A    between atoms: C_8  and  N_16
    9  A    between atoms: C_8  and  C_18
   10  A    between atoms: C_11  and  O_37
   11  A    between atoms: C_14  and  O_26
   12  A    between atoms: C_20  and  O_34
   13  A    between atoms: O_34  and  C_40
                            x       y       z     vdW  Elec       q    Type
                         _______ _______ _______ _____ _____    ______ ____

>  <TORSDO>
F 13

$$$$
=
 OpenBabel11072410533D

 40 42  0  0  1  0  0  0  0  0999 V2000
  161.5080  208.3990  148.2590 O   0  0  0  0  0  1  0  0  0  0  0  0
  161.6300  210.4300  151.0840 C   0  0  0  0  0  0  0  0  0  0  0  0
  161.3850  207.6350  150.5300 C   0  0  1  0  0  3  0  0  0  0  0  0
  161.9460  207.7440  151.9470 C   0  0  0  0  0  2  0  0  0  0  0  0
  162.0710  208.5840  149.5280 C   0  0  2  0  0  3  0  0  0  0  0  0
  161.9940  210.0480  149.8880 C   0  0  0  0  0  0  0  0  0  0  0  0
  160.8620  209.6700  153.3230 C   0  0  2  0  0  3  0  0  0  0  0  0
  162.3700  211.0100  148.9540 O   0  0  0  0  0  1  0  0  0  0  0  0
  161.2890  210.7100  152.3110 C   0  0  0  0  0  3  0  0  0  0  0  0
  160.8160  208.1850  152.8760 C   0  0  2  0  0  3  0  0  0  0  0  0
  159.5020  210.0300  153.9220 C   0  0  2  0  0  3  0  0  0  0  0  0
  158.8800  211.0610  153.2090 O   0  0  0  0  0  1  0  0  0  0  0  0
  159.5530  210.3150  155.4220 C   0  0  2  0  0  3  0  0  0  0  0  0
  158.8860  211.6200  155.7150 C   0  0  0  0  0  0  0  0  0  0  0  0
  159.5190  212.7000  155.5650 O   0  0  0  0  0  0  0  0  0  0  0  0
  157.5570  211.6300  156.1390 O   0  0  0  0  0  0  0  0  0  0  0  0
  156.4860  211.9400  155.2570 C   0  0  1  0  0  3  0  0  0  0  0  0
  155.5940  210.7250  155.0920 C   0  0  0  0  0  1  0  0  0  0  0  0
  155.6820  213.1470  155.7430 C   0  0  2  0  0  3  0  0  0  0  0  0
  156.1920  214.3130  155.1770 O   0  0  0  0  0  1  0  0  0  0  0  0
  155.6870  213.2690  157.2610 C   0  0  0  0  0  1  0  0  0  0  0  0
  160.8740  210.3370  155.8850 O   0  0  0  0  0  0  0  0  0  0  0  0
  160.8420  209.6850  157.1180 C   0  0  0  0  0  2  0  0  0  0  0  0
  160.0740  208.5230  157.0150 O   0  0  0  0  0  1  0  0  0  0  0  0
  161.4620  206.1830  150.0730 C   0  0  0  0  0  2  0  0  0  0  0  0
  160.8240  206.0350  148.7730 N   0  0  0  0  0  2  0  0  0  0  0  0
  161.5900  205.0480  148.0240 C   0  0  1  0  0  3  0  0  0  0  0  0
  160.8950  203.6780  148.0820 C   0  0  1  0  0  3  0  0  0  0  0  0
  161.3940  205.5020  143.9090 S   0  0  0  0  0  1  0  0  0  0  0  0
  160.3360  201.3410  145.4570 C   0  0  0  0  0  2  0  0  0  0  0  0
  160.3560  202.6200  144.8860 O   0  0  0  0  0  0  0  0  0  0  0  0
  161.4530  202.7370  147.0030 C   0  0  2  0  0  3  0  0  0  0  0  0
  161.3510  203.3230  145.5870 C   0  0  2  0  0  3  0  0  0  0  0  0
  161.8700  205.5570  146.6010 C   0  0  0  0  0  2  0  0  0  0  0  0
  161.0440  204.8200  145.5560 C   0  0  1  0  0  3  0  0  0  0  0  0
  161.0930  203.0700  149.4660 C   0  0  0  0  0  1  0  0  0  0  0  0
  160.6520  201.4680  146.9250 C   0  0  0  0  0  2  0  0  0  0  0  0
  160.8000  207.3580  154.0070 O   0  0  0  0  0  0  0  0  0  0  0  0
  161.1100  205.1610  153.4970 O   0  0  0  0  0  1  0  0  0  0  0  0
  161.7510  206.3700  153.7570 C   0  0  0  0  0  2  0  0  0  0  0  0
  2  9  2  0  0  0  0
  3 25  1  6  0  0  0
  3  4  1  0  0  0  0
  4 10  1  0  0  0  0
  5  1  1  6  0  0  0
  5  6  1  0  0  0  0
  5  3  1  0  0  0  0
  6  2  2  0  0  0  0
  7 11  1  6  0  0  0
  8  6  1  0  0  0  0
  9  7  1  0  0  0  0
 10  7  1  0  0  0  0
 10 38  1  1  0  0  0
 11 12  1  6  0  0  0
 11 13  1  0  0  0  0
 13 14  1  6  0  0  0
 13 22  1  0  0  0  0
 14 16  1  0  0  0  0
 15 14  2  0  0  0  0
 17 18  1  1  0  0  0
 17 19  1  0  0  0  0
 17 16  1  0  0  0  0
 19 21  1  1  0  0  0
 20 19  1  0  0  0  0
 22 23  1  0  0  0  0
 24 23  1  0  0  0  0
 26 25  1  0  0  0  0
 27 28  1  0  0  0  0
 27 26  1  6  0  0  0
 28 36  1  1  0  0  0
 30 37  1  0  0  0  0
 31 30  1  0  0  0  0
 32 37  1  6  0  0  0
 32 28  1  0  0  0  0
 33 31  1  6  0  0  0
 33 32  1  0  0  0  0
 34 27  1  0  0  0  0
 35 29  1  6  0  0  0
 35 33  1  0  0  0  0
 35 34  1  0  0  0  0
 39 40  1  0  0  0  0
 40 38  1  0  0  0  0
M  END
>  <MODEL>
4

>  <REMARK>
 VINA RESULT:      -6.7      2.928     10.310
  Name = 
  13 active torsions:
  status: ('A' for Active; 'I' for Inactive)
    1  A    between atoms: C_1  and  C_2
    2  A    between atoms: C_1  and  O_26
    3  A    between atoms: C_2  and  C_6
    4  A    between atoms: C_2  and  O_37
    5  A    between atoms: C_4  and  C_14
    6  A    between atoms: C_5  and  N_16
    7  A    between atoms: C_6  and  C_32
    8  A    between atoms: C_8  and  N_16
    9  A    between atoms: C_8  and  C_18
   10  A    between atoms: C_11  and  O_37
   11  A    between atoms: C_14  and  O_26
   12  A    between atoms: C_20  and  O_34
   13  A    between atoms: O_34  and  C_40
                            x       y       z     vdW  Elec       q    Type
                         _______ _______ _______ _____ _____    ______ ____

>  <TORSDO>
F 13

$$$$
=
 OpenBabel11072410533D

 40 42  0  0  1  0  0  0  0  0999 V2000
  163.0130  209.9060  151.2780 O   0  0  0  0  0  1  0  0  0  0  0  0
  161.5950  208.4700  148.4420 C   0  0  0  0  0  0  0  0  0  0  0  0
  161.9080  207.7780  151.1980 C   0  0  1  0  0  3  0  0  0  0  0  0
  160.7100  206.9790  150.6890 C   0  0  0  0  0  2  0  0  0  0  0  0
  161.8930  209.2520  150.7490 C   0  0  2  0  0  3  0  0  0  0  0  0
  161.8700  209.4570  149.2530 C   0  0  0  0  0  0  0  0  0  0  0  0
  161.0590  206.0470  148.2830 C   0  0  2  0  0  3  0  0  0  0  0  0
  162.0870  210.7280  148.7270 O   0  0  0  0  0  1  0  0  0  0  0  0
  161.2780  207.4340  147.7170 C   0  0  0  0  0  3  0  0  0  0  0  0
  161.2320  205.8430  149.8100 C   0  0  2  0  0  3  0  0  0  0  0  0
  161.9420  205.0280  147.5620 C   0  0  2  0  0  3  0  0  0  0  0  0
  163.2540  205.4920  147.4160 O   0  0  0  0  0  1  0  0  0  0  0  0
  161.3530  204.5400  146.2390 C   0  0  2  0  0  3  0  0  0  0  0  0
  161.1210  203.0660  146.2980 C   0  0  0  0  0  0  0  0  0  0  0  0
  160.8210  202.4310  145.2510 O   0  0  0  0  0  0  0  0  0  0  0  0
  161.2550  202.4000  147.5170 O   0  0  0  0  0  0  0  0  0  0  0  0
  160.7230  201.0970  147.7270 C   0  0  1  0  0  3  0  0  0  0  0  0
  161.7610  200.0570  147.3560 C   0  0  0  0  0  1  0  0  0  0  0  0
  160.2450  200.9050  149.1670 C   0  0  2  0  0  3  0  0  0  0  0  0
  159.2360  201.8190  149.4560 O   0  0  0  0  0  1  0  0  0  0  0  0
  161.3770  201.0570  150.1740 C   0  0  0  0  0  1  0  0  0  0  0  0
  162.1990  204.8510  145.1660 O   0  0  0  0  0  0  0  0  0  0  0  0
  161.4710  205.7340  144.3690 C   0  0  0  0  0  2  0  0  0  0  0  0
  160.1480  205.7850  144.8120 O   0  0  0  0  0  1  0  0  0  0  0  0
  161.9820  207.6530  152.7160 C   0  0  0  0  0  2  0  0  0  0  0  0
  160.7520  207.0710  153.2290 N   0  0  0  0  0  2  0  0  0  0  0  0
  160.2320  207.9790  154.2430 C   0  0  1  0  0  3  0  0  0  0  0  0
  161.2480  208.1410  155.3860 C   0  0  1  0  0  3  0  0  0  0  0  0
  160.1730  211.9610  153.0970 S   0  0  0  0  0  1  0  0  0  0  0  0
  162.2830  211.1090  157.0530 C   0  0  0  0  0  2  0  0  0  0  0  0
  161.9260  211.4630  155.7450 O   0  0  0  0  0  0  0  0  0  0  0  0
  160.9060  209.3650  156.2500 C   0  0  2  0  0  3  0  0  0  0  0  0
  160.8120  210.6650  155.4370 C   0  0  2  0  0  3  0  0  0  0  0  0
  159.7870  209.3010  153.5980 C   0  0  0  0  0  2  0  0  0  0  0  0
  160.7360  210.4460  153.9260 C   0  0  1  0  0  3  0  0  0  0  0  0
  161.2530  206.8770  156.2390 C   0  0  0  0  0  1  0  0  0  0  0  0
  161.9940  209.6430  157.2470 C   0  0  0  0  0  2  0  0  0  0  0  0
  160.6140  204.6440  150.1920 O   0  0  0  0  0  0  0  0  0  0  0  0
  160.6530  203.7600  152.2900 O   0  0  0  0  0  1  0  0  0  0  0  0
  161.4300  204.1070  151.1870 C   0  0  0  0  0  2  0  0  0  0  0  0
  2  6  2  0  0  0  0
  3 25  1  1  0  0  0
  4  3  1  0  0  0  0
  5  3  1  0  0  0  0
  5  1  1  6  0  0  0
  6  5  1  0  0  0  0
  7 11  1  6  0  0  0
  7 10  1  0  0  0  0
  8  6  1  0  0  0  0
  9  7  1  0  0  0  0
  9  2  2  0  0  0  0
 10 38  1  1  0  0  0
 10  4  1  0  0  0  0
 11 12  1  6  0  0  0
 13 22  1  6  0  0  0
 13 14  1  0  0  0  0
 13 11  1  0  0  0  0
 14 16  1  0  0  0  0
 15 14  2  0  0  0  0
 16 17  1  0  0  0  0
 17 18  1  1  0  0  0
 17 19  1  0  0  0  0
 19 20  1  0  0  0  0
 19 21  1  1  0  0  0
 23 24  1  0  0  0  0
 23 22  1  0  0  0  0
 25 26  1  0  0  0  0
 27 26  1  6  0  0  0
 27 28  1  0  0  0  0
 28 36  1  1  0  0  0
 28 32  1  0  0  0  0
 30 37  1  0  0  0  0
 31 30  1  0  0  0  0
 32 37  1  1  0  0  0
 33 31  1  6  0  0  0
 33 32  1  0  0  0  0
 34 35  1  0  0  0  0
 34 27  1  0  0  0  0
 35 29  1  6  0  0  0
 35 33  1  0  0  0  0
 38 40  1  0  0  0  0
 40 39  1  0  0  0  0
M  END
>  <MODEL>
5

>  <REMARK>
 VINA RESULT:      -6.4      2.179      3.947
  Name = 
  13 active torsions:
  status: ('A' for Active; 'I' for Inactive)
    1  A    between atoms: C_1  and  C_2
    2  A    between atoms: C_1  and  O_26
    3  A    between atoms: C_2  and  C_6
    4  A    between atoms: C_2  and  O_37
    5  A    between atoms: C_4  and  C_14
    6  A    between atoms: C_5  and  N_16
    7  A    between atoms: C_6  and  C_32
    8  A    between atoms: C_8  and  N_16
    9  A    between atoms: C_8  and  C_18
   10  A    between atoms: C_11  and  O_37
   11  A    between atoms: C_14  and  O_26
   12  A    between atoms: C_20  and  O_34
   13  A    between atoms: O_34  and  C_40
                            x       y       z     vdW  Elec       q    Type
                         _______ _______ _______ _____ _____    ______ ____

>  <TORSDO>
F 13

$$$$
=
 OpenBabel11072410533D

 40 42  0  0  1  0  0  0  0  0999 V2000
  162.7450  204.9780  151.6900 O   0  0  0  0  0  1  0  0  0  0  0  0
  160.8680  207.1320  153.6780 C   0  0  0  0  0  0  0  0  0  0  0  0
  161.9350  207.1360  151.0260 C   0  0  1  0  0  3  0  0  0  0  0  0
  160.7610  208.1130  151.0160 C   0  0  0  0  0  2  0  0  0  0  0  0
  161.6230  205.8130  151.7510 C   0  0  2  0  0  3  0  0  0  0  0  0
  161.2050  205.9660  153.1940 C   0  0  0  0  0  0  0  0  0  0  0  0
  160.6240  209.5560  153.1800 C   0  0  2  0  0  3  0  0  0  0  0  0
  161.1220  204.8420  154.0110 O   0  0  0  0  0  1  0  0  0  0  0  0
  160.5170  208.3290  154.0590 C   0  0  0  0  0  3  0  0  0  0  0  0
  161.1920  209.3850  151.7470 C   0  0  2  0  0  3  0  0  0  0  0  0
  161.4250  210.6520  153.8830 C   0  0  2  0  0  3  0  0  0  0  0  0
  162.2220  210.1320  154.9090 O   0  0  0  0  0  1  0  0  0  0  0  0
  160.5660  211.8230  154.3580 C   0  0  2  0  0  3  0  0  0  0  0  0
  160.2410  211.6610  155.8070 C   0  0  0  0  0  0  0  0  0  0  0  0
  161.0710  212.0210  156.6850 O   0  0  0  0  0  0  0  0  0  0  0  0
  159.0080  211.1230  156.1770 O   0  0  0  0  0  0  0  0  0  0  0  0
  158.0300  211.8860  156.8740 C   0  0  1  0  0  3  0  0  0  0  0  0
  158.4950  213.3230  156.9940 C   0  0  0  0  0  1  0  0  0  0  0  0
  156.6610  211.8070  156.1970 C   0  0  2  0  0  3  0  0  0  0  0  0
  156.6180  210.7050  155.3460 O   0  0  0  0  0  1  0  0  0  0  0  0
  156.3330  213.0720  155.4140 C   0  0  0  0  0  1  0  0  0  0  0  0
  159.3870  211.9190  153.6090 O   0  0  0  0  0  0  0  0  0  0  0  0
  159.3010  213.2590  153.2300 C   0  0  0  0  0  2  0  0  0  0  0  0
  159.7030  213.3970  151.9000 O   0  0  0  0  0  1  0  0  0  0  0  0
  162.3970  206.8970  149.5920 C   0  0  0  0  0  2  0  0  0  0  0  0
  161.3450  206.2400  148.8330 N   0  0  0  0  0  2  0  0  0  0  0  0
  161.9780  205.2160  148.0100 C   0  0  1  0  0  3  0  0  0  0  0  0
  161.1720  203.9090  148.0730 C   0  0  1  0  0  3  0  0  0  0  0  0
  161.5810  205.8240  143.9300 S   0  0  0  0  0  1  0  0  0  0  0  0
  160.2620  201.7160  145.4220 C   0  0  0  0  0  2  0  0  0  0  0  0
  160.3580  203.0070  144.8860 O   0  0  0  0  0  0  0  0  0  0  0  0
  161.5830  202.9610  146.9350 C   0  0  2  0  0  3  0  0  0  0  0  0
  161.4490  203.6000  145.5450 C   0  0  2  0  0  3  0  0  0  0  0  0
  162.2170  205.7480  146.5890 C   0  0  0  0  0  2  0  0  0  0  0  0
  161.2700  205.1180  145.5750 C   0  0  1  0  0  3  0  0  0  0  0  0
  161.3970  203.2400  149.4240 C   0  0  0  0  0  1  0  0  0  0  0  0
  160.6730  201.7680  146.8700 C   0  0  0  0  0  2  0  0  0  0  0  0
  160.8450  210.5000  150.9730 O   0  0  0  0  0  0  0  0  0  0  0  0
  161.9560  210.4000  148.9880 O   0  0  0  0  0  1  0  0  0  0  0  0
  162.0120  210.8620  150.3010 C   0  0  0  0  0  2  0  0  0  0  0  0
  2  9  2  0  0  0  0
  3 25  1  6  0  0  0
  3  5  1  0  0  0  0
  4  3  1  0  0  0  0
  4 10  1  0  0  0  0
  5  1  1  1  0  0  0
  5  6  1  0  0  0  0
  6  2  2  0  0  0  0
  6  8  1  0  0  0  0
  7 11  1  1  0  0  0
  7  9  1  0  0  0  0
 10 38  1  6  0  0  0
 10  7  1  0  0  0  0
 11 13  1  0  0  0  0
 11 12  1  1  0  0  0
 13 22  1  6  0  0  0
 13 14  1  0  0  0  0
 14 16  1  0  0  0  0
 14 15  2  0  0  0  0
 16 17  1  0  0  0  0
 17 18  1  6  0  0  0
 19 21  1  6  0  0  0
 19 17  1  0  0  0  0
 20 19  1  0  0  0  0
 23 22  1  0  0  0  0
 24 23  1  0  0  0  0
 26 25  1  0  0  0  0
 27 28  1  0  0  0  0
 27 26  1  1  0  0  0
 28 36  1  1  0  0  0
 30 37  1  0  0  0  0
 31 30  1  0  0  0  0
 32 37  1  6  0  0  0
 32 28  1  0  0  0  0
 33 31  1  1  0  0  0
 33 35  1  0  0  0  0
 33 32  1  0  0  0  0
 34 27  1  0  0  0  0
 35 29  1  6  0  0  0
 35 34  1  0  0  0  0
 39 40  1  0  0  0  0
 40 38  1  0  0  0  0
M  END
>  <MODEL>
6

>  <REMARK>
 VINA RESULT:      -5.9      3.010      9.689
  Name = 
  13 active torsions:
  status: ('A' for Active; 'I' for Inactive)
    1  A    between atoms: C_1  and  C_2
    2  A    between atoms: C_1  and  O_26
    3  A    between atoms: C_2  and  C_6
    4  A    between atoms: C_2  and  O_37
    5  A    between atoms: C_4  and  C_14
    6  A    between atoms: C_5  and  N_16
    7  A    between atoms: C_6  and  C_32
    8  A    between atoms: C_8  and  N_16
    9  A    between atoms: C_8  and  C_18
   10  A    between atoms: C_11  and  O_37
   11  A    between atoms: C_14  and  O_26
   12  A    between atoms: C_20  and  O_34
   13  A    between atoms: O_34  and  C_40
                            x       y       z     vdW  Elec       q    Type
                         _______ _______ _______ _____ _____    ______ ____

>  <TORSDO>
F 13

$$$$
=
 OpenBabel11072410533D

 40 42  0  0  1  0  0  0  0  0999 V2000
  161.5170  208.4310  147.9430 O   0  0  0  0  0  1  0  0  0  0  0  0
  161.6000  210.8150  150.4780 C   0  0  0  0  0  0  0  0  0  0  0  0
  161.4570  207.9650  150.2960 C   0  0  1  0  0  3  0  0  0  0  0  0
  162.0330  208.2770  151.6750 C   0  0  0  0  0  2  0  0  0  0  0  0
  162.0910  208.8000  149.1660 C   0  0  2  0  0  3  0  0  0  0  0  0
  161.9610  210.2950  149.3350 C   0  0  0  0  0  0  0  0  0  0  0  0
  160.8940  210.3250  152.8120 C   0  0  2  0  0  3  0  0  0  0  0  0
  162.2860  211.1400  148.2780 O   0  0  0  0  0  1  0  0  0  0  0  0
  161.2650  211.2400  151.6650 C   0  0  0  0  0  3  0  0  0  0  0  0
  160.8990  208.7940  152.5610 C   0  0  2  0  0  3  0  0  0  0  0  0
  159.5290  210.7090  153.3840 C   0  0  2  0  0  3  0  0  0  0  0  0
  158.5470  210.7630  152.3890 O   0  0  0  0  0  1  0  0  0  0  0  0
  159.5610  211.9810  154.2310 C   0  0  2  0  0  3  0  0  0  0  0  0
  159.5980  211.6250  155.6820 C   0  0  0  0  0  0  0  0  0  0  0  0
  158.5240  211.4550  156.3180 O   0  0  0  0  0  0  0  0  0  0  0  0
  160.8310  211.4700  156.3180 O   0  0  0  0  0  0  0  0  0  0  0  0
  161.6440  210.3200  156.1170 C   0  0  1  0  0  3  0  0  0  0  0  0
  163.1050  210.7030  156.2350 C   0  0  0  0  0  1  0  0  0  0  0  0
  161.2900  209.1990  157.0950 C   0  0  2  0  0  3  0  0  0  0  0  0
  162.2840  208.2240  157.0750 O   0  0  0  0  0  1  0  0  0  0  0  0
  159.9430  208.5630  156.7790 C   0  0  0  0  0  1  0  0  0  0  0  0
  158.4510  212.7920  153.9640 O   0  0  0  0  0  0  0  0  0  0  0  0
  158.9560  213.8880  153.2650 C   0  0  0  0  0  2  0  0  0  0  0  0
  158.3320  213.9790  152.0200 O   0  0  0  0  0  1  0  0  0  0  0  0
  161.5830  206.4690  150.0290 C   0  0  0  0  0  2  0  0  0  0  0  0
  160.8080  206.1060  148.8530 N   0  0  0  0  0  2  0  0  0  0  0  0
  161.5760  205.1090  148.1180 C   0  0  1  0  0  3  0  0  0  0  0  0
  160.8470  203.7560  148.1340 C   0  0  1  0  0  3  0  0  0  0  0  0
  161.5370  205.6180  144.0050 S   0  0  0  0  0  1  0  0  0  0  0  0
  160.3270  201.4650  145.4610 C   0  0  0  0  0  2  0  0  0  0  0  0
  160.3980  202.7500  144.9070 O   0  0  0  0  0  0  0  0  0  0  0  0
  161.4210  202.8150  147.0630 C   0  0  2  0  0  3  0  0  0  0  0  0
  161.3830  203.4200  145.6520 C   0  0  2  0  0  3  0  0  0  0  0  0
  161.9190  205.6290  146.7130 C   0  0  0  0  0  2  0  0  0  0  0  0
  161.1130  204.9250  145.6290 C   0  0  1  0  0  3  0  0  0  0  0  0
  160.9810  203.1260  149.5160 C   0  0  0  0  0  1  0  0  0  0  0  0
  160.5940  201.5670  146.9410 C   0  0  0  0  0  2  0  0  0  0  0  0
  160.9320  208.1210  153.7900 O   0  0  0  0  0  0  0  0  0  0  0  0
  161.0360  205.9160  154.3450 O   0  0  0  0  0  1  0  0  0  0  0  0
  161.5750  206.9110  153.5330 C   0  0  0  0  0  2  0  0  0  0  0  0
  2  9  2  0  0  0  0
  3 25  1  6  0  0  0
  3  4  1  0  0  0  0
  4 10  1  0  0  0  0
  5  1  1  6  0  0  0
  5  6  1  0  0  0  0
  5  3  1  0  0  0  0
  6  2  2  0  0  0  0
  7 11  1  6  0  0  0
  8  6  1  0  0  0  0
  9  7  1  0  0  0  0
 10  7  1  0  0  0  0
 10 38  1  1  0  0  0
 11 12  1  6  0  0  0
 11 13  1  0  0  0  0
 13 22  1  1  0  0  0
 13 14  1  0  0  0  0
 14 16  1  0  0  0  0
 14 15  2  0  0  0  0
 17 18  1  1  0  0  0
 17 16  1  0  0  0  0
 17 19  1  0  0  0  0
 19 21  1  6  0  0  0
 20 19  1  0  0  0  0
 23 22  1  0  0  0  0
 24 23  1  0  0  0  0
 26 25  1  0  0  0  0
 27 28  1  0  0  0  0
 27 26  1  6  0  0  0
 28 36  1  1  0  0  0
 30 37  1  0  0  0  0
 31 30  1  0  0  0  0
 32 37  1  6  0  0  0
 32 28  1  0  0  0  0
 33 31  1  6  0  0  0
 33 32  1  0  0  0  0
 34 27  1  0  0  0  0
 35 29  1  6  0  0  0
 35 33  1  0  0  0  0
 35 34  1  0  0  0  0
 40 38  1  0  0  0  0
 40 39  1  0  0  0  0
M  END
>  <MODEL>
7

>  <REMARK>
 VINA RESULT:      -5.9      2.987      9.732
  Name = 
  13 active torsions:
  status: ('A' for Active; 'I' for Inactive)
    1  A    between atoms: C_1  and  C_2
    2  A    between atoms: C_1  and  O_26
    3  A    between atoms: C_2  and  C_6
    4  A    between atoms: C_2  and  O_37
    5  A    between atoms: C_4  and  C_14
    6  A    between atoms: C_5  and  N_16
    7  A    between atoms: C_6  and  C_32
    8  A    between atoms: C_8  and  N_16
    9  A    between atoms: C_8  and  C_18
   10  A    between atoms: C_11  and  O_37
   11  A    between atoms: C_14  and  O_26
   12  A    between atoms: C_20  and  O_34
   13  A    between atoms: O_34  and  C_40
                            x       y       z     vdW  Elec       q    Type
                         _______ _______ _______ _____ _____    ______ ____

>  <TORSDO>
F 13

$$$$
=
 OpenBabel11072410533D

 40 42  0  0  1  0  0  0  0  0999 V2000
  161.4510  208.1130  148.4180 O   0  0  0  0  0  1  0  0  0  0  0  0
  161.5680  210.5940  150.8560 C   0  0  0  0  0  0  0  0  0  0  0  0
  161.2600  207.7530  150.7820 C   0  0  1  0  0  3  0  0  0  0  0  0
  161.7930  208.0890  152.1730 C   0  0  0  0  0  2  0  0  0  0  0  0
  161.9920  208.4990  149.6510 C   0  0  2  0  0  3  0  0  0  0  0  0
  161.9470  210.0050  149.7530 C   0  0  0  0  0  0  0  0  0  0  0  0
  160.7320  210.2470  153.1730 C   0  0  2  0  0  3  0  0  0  0  0  0
  162.3680  210.7830  148.6780 O   0  0  0  0  0  1  0  0  0  0  0  0
  161.2080  211.0890  152.0090 C   0  0  0  0  0  3  0  0  0  0  0  0
  160.6550  208.7100  152.9840 C   0  0  2  0  0  3  0  0  0  0  0  0
  159.3700  210.7360  153.6660 C   0  0  2  0  0  3  0  0  0  0  0  0
  158.4030  210.6780  152.6560 O   0  0  0  0  0  1  0  0  0  0  0  0
  159.4210  212.1090  154.3350 C   0  0  2  0  0  3  0  0  0  0  0  0
  159.3740  211.9530  155.8200 C   0  0  0  0  0  0  0  0  0  0  0  0
  160.3840  212.2400  156.5180 O   0  0  0  0  0  0  0  0  0  0  0  0
  158.2000  211.5020  156.4250 O   0  0  0  0  0  0  0  0  0  0  0  0
  157.4110  212.3400  157.2600 C   0  0  1  0  0  3  0  0  0  0  0  0
  157.9160  213.7660  157.1740 C   0  0  0  0  0  1  0  0  0  0  0  0
  155.9260  212.2620  156.9010 C   0  0  2  0  0  3  0  0  0  0  0  0
  155.6900  211.1420  156.1080 O   0  0  0  0  0  1  0  0  0  0  0  0
  155.4420  213.5120  156.1780 C   0  0  0  0  0  1  0  0  0  0  0  0
  158.3640  212.9200  153.9040 O   0  0  0  0  0  0  0  0  0  0  0  0
  158.9600  213.9240  153.1400 C   0  0  0  0  0  2  0  0  0  0  0  0
  158.1360  214.2420  152.0590 O   0  0  0  0  0  1  0  0  0  0  0  0
  161.3060  206.2420  150.5820 C   0  0  0  0  0  2  0  0  0  0  0  0
  160.6400  205.8830  149.3390 N   0  0  0  0  0  2  0  0  0  0  0  0
  161.4940  204.9230  148.6510 C   0  0  1  0  0  3  0  0  0  0  0  0
  160.8360  203.5330  148.6470 C   0  0  1  0  0  3  0  0  0  0  0  0
  161.6220  205.3980  144.5360 S   0  0  0  0  0  1  0  0  0  0  0  0
  160.5630  201.1980  145.9760 C   0  0  0  0  0  2  0  0  0  0  0  0
  160.5930  202.4800  145.4130 O   0  0  0  0  0  0  0  0  0  0  0  0
  161.5080  202.6160  147.6130 C   0  0  2  0  0  3  0  0  0  0  0  0
  161.5050  203.2070  146.1960 C   0  0  2  0  0  3  0  0  0  0  0  0
  161.8740  205.4490  147.2590 C   0  0  0  0  0  2  0  0  0  0  0  0
  161.1580  204.6950  146.1460 C   0  0  1  0  0  3  0  0  0  0  0  0
  160.9380  202.9220  150.0400 C   0  0  0  0  0  1  0  0  0  0  0  0
  160.7540  201.3250  147.4650 C   0  0  0  0  0  2  0  0  0  0  0  0
  160.5930  208.0900  154.2390 O   0  0  0  0  0  0  0  0  0  0  0  0
  161.8060  208.0910  156.1670 O   0  0  0  0  0  1  0  0  0  0  0  0
  161.4080  208.8550  155.0720 C   0  0  0  0  0  2  0  0  0  0  0  0
  2  9  2  0  0  0  0
  3 25  1  6  0  0  0
  3  4  1  0  0  0  0
  4 10  1  0  0  0  0
  5  1  1  6  0  0  0
  5  6  1  0  0  0  0
  5  3  1  0  0  0  0
  6  2  2  0  0  0  0
  7 11  1  6  0  0  0
  8  6  1  0  0  0  0
  9  7  1  0  0  0  0
 10  7  1  0  0  0  0
 10 38  1  1  0  0  0
 11 12  1  6  0  0  0
 11 13  1  0  0  0  0
 13 22  1  6  0  0  0
 13 14  1  0  0  0  0
 14 16  1  0  0  0  0
 14 15  2  0  0  0  0
 16 17  1  0  0  0  0
 17 18  1  6  0  0  0
 19 21  1  6  0  0  0
 19 17  1  0  0  0  0
 20 19  1  0  0  0  0
 23 22  1  0  0  0  0
 24 23  1  0  0  0  0
 26 25  1  0  0  0  0
 27 26  1  6  0  0  0
 28 27  1  0  0  0  0
 28 36  1  1  0  0  0
 30 37  1  0  0  0  0
 31 30  1  0  0  0  0
 32 37  1  6  0  0  0
 32 28  1  0  0  0  0
 33 31  1  6  0  0  0
 33 32  1  0  0  0  0
 34 27  1  0  0  0  0
 35 29  1  6  0  0  0
 35 33  1  0  0  0  0
 35 34  1  0  0  0  0
 38 40  1  0  0  0  0
 40 39  1  0  0  0  0
M  END
>  <MODEL>
8

>  <REMARK>
 VINA RESULT:      -5.6      2.889     10.234
  Name = 
  13 active torsions:
  status: ('A' for Active; 'I' for Inactive)
    1  A    between atoms: C_1  and  C_2
    2  A    between atoms: C_1  and  O_26
    3  A    between atoms: C_2  and  C_6
    4  A    between atoms: C_2  and  O_37
    5  A    between atoms: C_4  and  C_14
    6  A    between atoms: C_5  and  N_16
    7  A    between atoms: C_6  and  C_32
    8  A    between atoms: C_8  and  N_16
    9  A    between atoms: C_8  and  C_18
   10  A    between atoms: C_11  and  O_37
   11  A    between atoms: C_14  and  O_26
   12  A    between atoms: C_20  and  O_34
   13  A    between atoms: O_34  and  C_40
                            x       y       z     vdW  Elec       q    Type
                         _______ _______ _______ _____ _____    ______ ____

>  <TORSDO>
F 13

$$$$
=
 OpenBabel11072410533D

 40 42  0  0  1  0  0  0  0  0999 V2000
  161.8840  208.8380  147.8800 O   0  0  0  0  0  1  0  0  0  0  0  0
  161.3590  211.2970  150.2860 C   0  0  0  0  0  0  0  0  0  0  0  0
  161.8680  208.4840  150.2530 C   0  0  1  0  0  3  0  0  0  0  0  0
  162.3220  208.9850  151.6220 C   0  0  0  0  0  2  0  0  0  0  0  0
  162.3270  209.3850  149.0900 C   0  0  2  0  0  3  0  0  0  0  0  0
  161.8590  210.8180  149.1780 C   0  0  0  0  0  0  0  0  0  0  0  0
  160.7200  210.7730  152.6310 C   0  0  2  0  0  3  0  0  0  0  0  0
  162.0130  211.6630  148.0820 O   0  0  0  0  0  1  0  0  0  0  0  0
  160.9060  211.6920  151.4440 C   0  0  0  0  0  3  0  0  0  0  0  0
  161.0780  209.2730  152.4620 C   0  0  2  0  0  3  0  0  0  0  0  0
  159.2890  210.8650  153.1620 C   0  0  2  0  0  3  0  0  0  0  0  0
  158.5090  211.7400  152.3980 O   0  0  0  0  0  1  0  0  0  0  0  0
  159.2130  211.1800  154.6560 C   0  0  2  0  0  3  0  0  0  0  0  0
  157.8610  211.7180  154.9940 C   0  0  0  0  0  0  0  0  0  0  0  0
  156.8260  211.1610  154.5370 O   0  0  0  0  0  0  0  0  0  0  0  0
  157.7550  212.8310  155.8290 O   0  0  0  0  0  0  0  0  0  0  0  0
  157.3100  214.0940  155.3510 C   0  0  1  0  0  3  0  0  0  0  0  0
  157.6980  214.2540  153.8950 C   0  0  0  0  0  1  0  0  0  0  0  0
  155.8020  214.2710  155.5380 C   0  0  2  0  0  3  0  0  0  0  0  0
  155.3330  213.3640  156.4850 O   0  0  0  0  0  1  0  0  0  0  0  0
  155.0350  214.0940  154.2350 C   0  0  0  0  0  1  0  0  0  0  0  0
  160.2020  212.0990  155.0280 O   0  0  0  0  0  0  0  0  0  0  0  0
  160.7990  211.5550  156.1650 C   0  0  0  0  0  2  0  0  0  0  0  0
  162.0700  211.0750  155.8440 O   0  0  0  0  0  1  0  0  0  0  0  0
  162.3360  207.0450  150.0670 C   0  0  0  0  0  2  0  0  0  0  0  0
  162.0810  206.6100  148.7030 N   0  0  0  0  0  2  0  0  0  0  0  0
  161.0470  205.5850  148.7600 C   0  0  1  0  0  3  0  0  0  0  0  0
  161.4550  204.3680  147.9130 C   0  0  1  0  0  3  0  0  0  0  0  0
  160.8260  203.5850  152.3830 S   0  0  0  0  0  1  0  0  0  0  0  0
  161.2080  200.9080  148.7060 C   0  0  0  0  0  2  0  0  0  0  0  0
  161.3750  201.6050  149.9090 O   0  0  0  0  0  0  0  0  0  0  0  0
  160.5910  203.1460  148.2630 C   0  0  2  0  0  3  0  0  0  0  0  0
  160.6350  202.7900  149.7570 C   0  0  2  0  0  3  0  0  0  0  0  0
  160.7030  205.2540  150.2210 C   0  0  0  0  0  2  0  0  0  0  0  0
  161.2310  203.8880  150.6390 C   0  0  1  0  0  3  0  0  0  0  0  0
  161.3090  204.7110  146.4350 C   0  0  0  0  0  1  0  0  0  0  0  0
  161.1050  201.9090  147.5840 C   0  0  0  0  0  2  0  0  0  0  0  0
  161.2280  208.6860  153.7250 O   0  0  0  0  0  0  0  0  0  0  0  0
  160.8160  206.7250  154.8070 O   0  0  0  0  0  1  0  0  0  0  0  0
  160.8280  207.3590  153.5670 C   0  0  0  0  0  2  0  0  0  0  0  0
  2  9  2  0  0  0  0
  3 25  1  6  0  0  0
  3  4  1  0  0  0  0
  4 10  1  0  0  0  0
  5  1  1  6  0  0  0
  5  6  1  0  0  0  0
  5  3  1  0  0  0  0
  6  2  2  0  0  0  0
  7 11  1  6  0  0  0
  8  6  1  0  0  0  0
  9  7  1  0  0  0  0
 10  7  1  0  0  0  0
 10 38  1  1  0  0  0
 11 12  1  6  0  0  0
 11 13  1  0  0  0  0
 13 14  1  6  0  0  0
 13 22  1  0  0  0  0
 14 16  1  0  0  0  0
 15 14  2  0  0  0  0
 17 18  1  6  0  0  0
 17 19  1  0  0  0  0
 17 16  1  0  0  0  0
 19 21  1  6  0  0  0
 19 20  1  0  0  0  0
 22 23  1  0  0  0  0
 24 23  1  0  0  0  0
 26 25  1  0  0  0  0
 27 26  1  1  0  0  0
 27 34  1  0  0  0  0
 28 36  1  6  0  0  0
 28 32  1  0  0  0  0
 28 27  1  0  0  0  0
 30 31  1  0  0  0  0
 32 37  1  6  0  0  0
 32 33  1  0  0  0  0
 33 31  1  6  0  0  0
 33 35  1  0  0  0  0
 34 35  1  0  0  0  0
 35 29  1  1  0  0  0
 37 30  1  0  0  0  0
 40 38  1  0  0  0  0
 40 39  1  0  0  0  0
M  END
>  <MODEL>
9

>  <REMARK>
 VINA RESULT:      -5.6      2.406      9.887
  Name = 
  13 active torsions:
  status: ('A' for Active; 'I' for Inactive)
    1  A    between atoms: C_1  and  C_2
    2  A    between atoms: C_1  and  O_26
    3  A    between atoms: C_2  and  C_6
    4  A    between atoms: C_2  and  O_37
    5  A    between atoms: C_4  and  C_14
    6  A    between atoms: C_5  and  N_16
    7  A    between atoms: C_6  and  C_32
    8  A    between atoms: C_8  and  N_16
    9  A    between atoms: C_8  and  C_18
   10  A    between atoms: C_11  and  O_37
   11  A    between atoms: C_14  and  O_26
   12  A    between atoms: C_20  and  O_34
   13  A    between atoms: O_34  and  C_40
                            x       y       z     vdW  Elec       q    Type
                         _______ _______ _______ _____ _____    ______ ____

>  <TORSDO>
F 13

$$$$
