=
 OpenBabel11072411213D

 42 45  0  0  1  0  0  0  0  0999 V2000
  161.1950  205.8550  153.8580 C   0  0  0  0  0  3  0  0  0  0  0  0
  160.1620  209.2920  155.0330 C   0  0  0  0  0  0  0  0  0  0  0  0
  161.3480  206.6020  152.7610 C   0  0  0  0  0  0  0  0  0  0  0  0
  159.8950  207.6790  156.9120 N   0  0  0  0  0  0  0  0  0  0  0  0
  160.6250  208.0900  154.2610 C   0  0  0  0  0  0  0  0  0  0  0  0
  160.3690  206.5720  156.1210 C   0  0  0  0  0  3  0  0  0  0  0  0
  160.9940  208.0130  152.9920 C   0  0  0  0  0  3  0  0  0  0  0  0
  160.7130  206.7880  154.8580 C   0  0  1  0  0  3  0  0  0  0  0  0
  159.7880  208.9030  156.4550 C   0  0  0  0  0  3  0  0  0  0  0  0
  163.3840  211.0800  155.5280 O   0  0  0  0  0  1  0  0  0  0  0  0
  161.2020  210.3720  155.0430 C   0  0  0  0  0  0  0  0  0  0  0  0
  162.3970  210.1200  155.4910 N   0  0  0  0  0  0  0  0  0  0  0  0
  159.8690  212.9200  152.8470 C   0  0  1  0  0  3  0  0  0  0  0  0
  158.7680  213.5550  153.7050 C   0  0  0  0  0  2  0  0  0  0  0  0
  160.1160  211.6140  153.3130 O   0  0  0  0  0  0  0  0  0  0  0  0
  160.8110  211.7320  154.5360 C   0  0  1  0  0  3  0  0  0  0  0  0
  159.1070  213.4020  155.1610 C   0  0  0  0  0  3  0  0  0  0  0  0
  160.3120  212.4040  156.9190 O   0  0  0  0  0  1  0  0  0  0  0  0
  160.0250  212.5220  155.5650 C   0  0  0  0  0  0  0  0  0  0  0  0
  159.4460  212.8650  151.3920 C   0  0  0  0  0  2  0  0  0  0  0  0
  157.6190  213.6240  149.9030 C   0  0  0  0  0  1  0  0  0  0  0  0
  157.9430  213.0470  151.2690 C   0  0  0  0  0  2  0  0  0  0  0  0
  161.8760  206.0800  151.4690 C   0  0  0  0  0  2  0  0  0  0  0  0
  160.7380  205.5830  150.5900 C   0  0  0  0  0  2  0  0  0  0  0  0
  161.1170  201.4130  149.8970 N   0  0  0  0  0  0  0  0  0  0  0  0
  161.0930  201.8910  151.1440 N   0  0  0  0  0  0  0  0  0  0  0  0
  160.8960  203.6130  149.0060 C   0  0  0  0  0  0  0  0  0  0  0  0
  160.8780  204.1170  150.3180 C   0  0  0  0  0  0  0  0  0  0  0  0
  160.9770  203.2230  151.3870 C   0  0  0  0  0  3  0  0  0  0  0  0
  161.0240  202.2360  148.8170 C   0  0  0  0  0  3  0  0  0  0  0  0
  160.8380  204.5200  147.8160 C   0  0  0  0  0  2  0  0  0  0  0  0
  162.2010  204.5850  147.1500 C   0  0  0  0  0  2  0  0  0  0  0  0
  162.5140  206.0010  146.6950 C   0  0  0  0  0  2  0  0  0  0  0  0
  161.6730  206.9600  147.3950 N   0  0  0  0  0  2  0  0  0  0  0  0
  162.4950  207.7320  148.1480 O   0  0  0  0  0  0  0  0  0  0  0  0
  161.6450  208.6460  148.7750 C   0  0  0  0  0  2  0  0  0  0  0  0
  162.3320  209.9130  148.9560 N   0  0  0  0  0  0  0  0  0  0  0  0
  162.1650  210.2730  150.3520 C   0  0  0  0  0  1  0  0  0  0  0  0
  161.6130  210.9120  148.1820 C   0  0  0  0  0  2  0  0  0  0  0  0
  163.5300  212.2860  147.8390 O   0  0  0  0  0  0  0  0  0  0  0  0
  161.7060  213.3360  148.7560 O   0  0  0  0  0  1  0  0  0  0  0  0
  162.3360  212.2130  148.2320 C   0  0  0  0  0  0  0  0  0  0  0  0
  2 11  1  0  0  0  0
  2  9  2  0  0  0  0
  3  7  1  0  0  0  0
  3  1  2  0  0  0  0
  5  8  1  0  0  0  0
  5  2  1  0  0  0  0
  6  4  2  0  0  0  0
  7  5  2  0  0  0  0
  8  1  1  6  0  0  0
  8  6  1  0  0  0  0
  9  4  1  0  0  0  0
 11 12  2  0  0  0  0
 12 10  1  0  0  0  0
 13 20  1  6  0  0  0
 13 15  1  0  0  0  0
 13 14  1  0  0  0  0
 14 17  1  0  0  0  0
 15 16  1  0  0  0  0
 16 11  1  1  0  0  0
 16 19  1  0  0  0  0
 17 19  2  0  0  0  0
 19 18  1  0  0  0  0
 21 22  1  0  0  0  0
 22 20  1  0  0  0  0
 23  3  1  0  0  0  0
 24 23  1  0  0  0  0
 25 26  1  0  0  0  0
 26 29  2  0  0  0  0
 27 28  2  0  0  0  0
 28 24  1  0  0  0  0
 28 29  1  0  0  0  0
 30 27  1  0  0  0  0
 30 25  2  0  0  0  0
 31 27  1  0  0  0  0
 32 31  1  0  0  0  0
 33 32  1  0  0  0  0
 33 34  1  0  0  0  0
 34 35  1  0  0  0  0
 35 36  1  0  0  0  0
 36 37  1  0  0  0  0
 37 38  1  0  0  0  0
 39 42  1  0  0  0  0
 39 37  1  0  0  0  0
 40 42  2  0  0  0  0
 42 41  1  0  0  0  0
M  END
>  <MODEL>
1

>  <REMARK>
 VINA RESULT:      -7.2      0.000      0.000
  Name = 
  16 active torsions:
  status: ('A' for Active; 'I' for Inactive)
    1  A    between atoms: C_1  and  C_23
    2  A    between atoms: C_1  and  N_26
    3  A    between atoms: O_4  and  C_19
    4  A    between atoms: O_4  and  N_26
    5  A    between atoms: C_5  and  N_25
    6  A    between atoms: C_5  and  C_39
    7  A    between atoms: C_7  and  C_9
    8  A    between atoms: C_8  and  C_28
    9  A    between atoms: C_9  and  C_27
   10  A    between atoms: C_10  and  C_36
   11  A    between atoms: C_18  and  C_31
   12  A    between atoms: C_19  and  N_25
   13  A    between atoms: C_22  and  C_28
   14  A    between atoms: C_23  and  C_31
   15  A    between atoms: C_24  and  C_41
   16  A    between atoms: C_36  and  C_41
                            x       y       z     vdW  Elec       q    Type
                         _______ _______ _______ _____ _____    ______ ____

>  <TORSDO>
F 16

$$$$
=
 OpenBabel11072411213D

 42 45  0  0  1  0  0  0  0  0999 V2000
  160.9750  206.0790  153.9090 C   0  0  0  0  0  3  0  0  0  0  0  0
  160.1550  209.4080  155.4920 C   0  0  0  0  0  0  0  0  0  0  0  0
  160.9830  206.9130  152.8650 C   0  0  0  0  0  0  0  0  0  0  0  0
  160.1320  207.6470  157.2520 N   0  0  0  0  0  0  0  0  0  0  0  0
  160.4920  208.2740  154.5670 C   0  0  0  0  0  0  0  0  0  0  0  0
  160.4800  206.6080  156.3150 C   0  0  0  0  0  3  0  0  0  0  0  0
  160.6810  208.3020  153.2580 C   0  0  0  0  0  3  0  0  0  0  0  0
  160.6470  206.9270  155.0380 C   0  0  1  0  0  3  0  0  0  0  0  0
  159.9780  208.9040  156.9160 C   0  0  0  0  0  3  0  0  0  0  0  0
  163.3940  211.1970  155.8550 O   0  0  0  0  0  1  0  0  0  0  0  0
  161.1990  210.4830  155.4440 C   0  0  0  0  0  0  0  0  0  0  0  0
  162.4040  210.2400  155.8710 N   0  0  0  0  0  0  0  0  0  0  0  0
  159.9030  212.9800  153.1690 C   0  0  1  0  0  3  0  0  0  0  0  0
  158.7560  213.6000  153.9740 C   0  0  0  0  0  2  0  0  0  0  0  0
  160.1580  211.6840  153.6580 O   0  0  0  0  0  0  0  0  0  0  0  0
  160.8010  211.8300  154.9070 C   0  0  1  0  0  3  0  0  0  0  0  0
  159.0380  213.4690  155.4440 C   0  0  0  0  0  3  0  0  0  0  0  0
  160.1920  212.5160  157.2610 O   0  0  0  0  0  1  0  0  0  0  0  0
  159.9570  212.6130  155.8940 C   0  0  0  0  0  0  0  0  0  0  0  0
  159.5400  212.9010  151.6980 C   0  0  0  0  0  2  0  0  0  0  0  0
  157.7260  213.5660  150.1510 C   0  0  0  0  0  1  0  0  0  0  0  0
  158.0340  212.9830  151.5180 C   0  0  0  0  0  2  0  0  0  0  0  0
  161.3210  206.4990  151.4750 C   0  0  0  0  0  2  0  0  0  0  0  0
  162.6270  207.1400  151.0300 C   0  0  0  0  0  2  0  0  0  0  0  0
  161.9150  210.7950  148.9940 N   0  0  0  0  0  0  0  0  0  0  0  0
  162.0130  210.7710  150.3260 N   0  0  0  0  0  0  0  0  0  0  0  0
  162.2720  208.4400  148.8860 C   0  0  0  0  0  0  0  0  0  0  0  0
  162.3700  208.4140  150.2880 C   0  0  0  0  0  0  0  0  0  0  0  0
  162.2370  209.6110  150.9980 C   0  0  0  0  0  3  0  0  0  0  0  0
  162.0360  209.6610  148.2510 C   0  0  0  0  0  3  0  0  0  0  0  0
  162.3630  207.1890  148.0700 C   0  0  0  0  0  2  0  0  0  0  0  0
  161.0320  206.9220  147.3870 C   0  0  0  0  0  2  0  0  0  0  0  0
  161.1860  205.8780  146.2920 C   0  0  0  0  0  2  0  0  0  0  0  0
  162.1470  204.8600  146.6890 N   0  0  0  0  0  2  0  0  0  0  0  0
  161.4470  203.7170  146.8960 O   0  0  0  0  0  0  0  0  0  0  0  0
  161.4970  203.5190  148.2790 C   0  0  0  0  0  2  0  0  0  0  0  0
  161.3520  202.1050  148.5790 N   0  0  0  0  0  0  0  0  0  0  0  0
  160.7820  201.4910  147.3940 C   0  0  0  0  0  1  0  0  0  0  0  0
  160.3550  201.9840  149.6290 C   0  0  0  0  0  2  0  0  0  0  0  0
  160.2550  203.3910  151.5500 O   0  0  0  0  0  1  0  0  0  0  0  0
  162.1320  202.0830  151.3740 O   0  0  0  0  0  0  0  0  0  0  0  0
  160.8960  202.5170  150.9100 C   0  0  0  0  0  0  0  0  0  0  0  0
  2  9  2  0  0  0  0
  3  7  1  0  0  0  0
  3  1  2  0  0  0  0
  5  8  1  0  0  0  0
  5  2  1  0  0  0  0
  6  4  2  0  0  0  0
  7  5  2  0  0  0  0
  8  1  1  6  0  0  0
  8  6  1  0  0  0  0
  9  4  1  0  0  0  0
 10 12  1  0  0  0  0
 11  2  1  0  0  0  0
 11 12  2  0  0  0  0
 13 20  1  6  0  0  0
 13 15  1  0  0  0  0
 13 14  1  0  0  0  0
 14 17  1  0  0  0  0
 15 16  1  0  0  0  0
 16 11  1  1  0  0  0
 16 19  1  0  0  0  0
 17 19  2  0  0  0  0
 19 18  1  0  0  0  0
 21 22  1  0  0  0  0
 22 20  1  0  0  0  0
 23  3  1  0  0  0  0
 24 23  1  0  0  0  0
 25 26  1  0  0  0  0
 26 29  2  0  0  0  0
 27 28  2  0  0  0  0
 28 29  1  0  0  0  0
 28 24  1  0  0  0  0
 30 27  1  0  0  0  0
 30 25  2  0  0  0  0
 31 27  1  0  0  0  0
 32 31  1  0  0  0  0
 33 34  1  0  0  0  0
 33 32  1  0  0  0  0
 34 35  1  0  0  0  0
 35 36  1  0  0  0  0
 36 37  1  0  0  0  0
 37 39  1  0  0  0  0
 38 37  1  0  0  0  0
 39 42  1  0  0  0  0
 42 41  2  0  0  0  0
 42 40  1  0  0  0  0
M  END
>  <MODEL>
2

>  <REMARK>
 VINA RESULT:      -6.1      1.799      4.798
  Name = 
  16 active torsions:
  status: ('A' for Active; 'I' for Inactive)
    1  A    between atoms: C_1  and  C_23
    2  A    between atoms: C_1  and  N_26
    3  A    between atoms: O_4  and  C_19
    4  A    between atoms: O_4  and  N_26
    5  A    between atoms: C_5  and  N_25
    6  A    between atoms: C_5  and  C_39
    7  A    between atoms: C_7  and  C_9
    8  A    between atoms: C_8  and  C_28
    9  A    between atoms: C_9  and  C_27
   10  A    between atoms: C_10  and  C_36
   11  A    between atoms: C_18  and  C_31
   12  A    between atoms: C_19  and  N_25
   13  A    between atoms: C_22  and  C_28
   14  A    between atoms: C_23  and  C_31
   15  A    between atoms: C_24  and  C_41
   16  A    between atoms: C_36  and  C_41
                            x       y       z     vdW  Elec       q    Type
                         _______ _______ _______ _____ _____    ______ ____

>  <TORSDO>
F 16

$$$$
=
 OpenBabel11072411213D

 42 45  0  0  1  0  0  0  0  0999 V2000
  160.7070  208.5770  153.2930 C   0  0  0  0  0  3  0  0  0  0  0  0
  162.0440  206.0360  150.8400 C   0  0  1  0  0  3  0  0  0  0  0  0
  161.0640  209.3310  152.2510 C   0  0  0  0  0  0  0  0  0  0  0  0
  161.3640  204.8640  152.9300 N   0  0  0  0  0  0  0  0  0  0  0  0
  161.5930  207.2740  151.5620 C   0  0  0  0  0  0  0  0  0  0  0  0
  160.9300  206.0870  153.5570 C   0  0  0  0  0  3  0  0  0  0  0  0
  161.6260  208.5300  151.1480 C   0  0  0  0  0  3  0  0  0  0  0  0
  161.0470  207.2270  152.8880 C   0  0  0  0  0  0  0  0  0  0  0  0
  161.8670  204.8090  151.7210 C   0  0  0  0  0  3  0  0  0  0  0  0
  159.5660  206.4730  148.1020 O   0  0  0  0  0  1  0  0  0  0  0  0
  161.3100  205.8590  149.5440 C   0  0  0  0  0  0  0  0  0  0  0  0
  160.2770  206.6030  149.2740 N   0  0  0  0  0  0  0  0  0  0  0  0
  161.4440  202.7300  147.7330 C   0  0  1  0  0  3  0  0  0  0  0  0
  161.3630  203.1880  146.2720 C   0  0  0  0  0  2  0  0  0  0  0  0
  160.8820  203.7240  148.5560 O   0  0  0  0  0  0  0  0  0  0  0  0
  161.7980  204.7990  148.5970 C   0  0  1  0  0  3  0  0  0  0  0  0
  161.9220  204.5760  146.1440 C   0  0  0  0  0  3  0  0  0  0  0  0
  162.6030  206.6340  147.0600 O   0  0  0  0  0  1  0  0  0  0  0  0
  162.0860  205.3540  147.2160 C   0  0  0  0  0  0  0  0  0  0  0  0
  160.6890  201.4280  147.9260 C   0  0  0  0  0  2  0  0  0  0  0  0
  161.0260  201.0940  150.3560 C   0  0  0  0  0  1  0  0  0  0  0  0
  160.0020  201.4090  149.2800 C   0  0  0  0  0  2  0  0  0  0  0  0
  160.8610  210.8050  152.1850 C   0  0  0  0  0  2  0  0  0  0  0  0
  160.6990  211.3840  153.5830 C   0  0  0  0  0  2  0  0  0  0  0  0
  156.6730  212.4840  154.3540 N   0  0  0  0  0  0  0  0  0  0  0  0
  157.2460  211.4910  155.0410 N   0  0  0  0  0  0  0  0  0  0  0  0
  158.6770  212.8350  153.1130 C   0  0  0  0  0  0  0  0  0  0  0  0
  159.2780  211.7870  153.8300 C   0  0  0  0  0  0  0  0  0  0  0  0
  158.5320  211.1210  154.8060 C   0  0  0  0  0  3  0  0  0  0  0  0
  157.3510  213.1680  153.3920 C   0  0  0  0  0  3  0  0  0  0  0  0
  159.4070  213.5600  152.0250 C   0  0  0  0  0  2  0  0  0  0  0  0
  158.6300  213.4540  150.7230 C   0  0  0  0  0  2  0  0  0  0  0  0
  159.4300  214.0320  149.5670 C   0  0  0  0  0  2  0  0  0  0  0  0
  158.9840  213.4650  148.3030 N   0  0  0  0  0  2  0  0  0  0  0  0
  159.9680  213.6930  147.3990 O   0  0  0  0  0  0  0  0  0  0  0  0
  160.6340  212.4690  147.2860 C   0  0  0  0  0  2  0  0  0  0  0  0
  161.9830  212.6860  146.7950 N   0  0  0  0  0  0  0  0  0  0  0  0
  162.7380  213.2430  147.9020 C   0  0  0  0  0  1  0  0  0  0  0  0
  161.9140  213.7220  145.7780 C   0  0  0  0  0  2  0  0  0  0  0  0
  163.5910  213.4060  144.1150 O   0  0  0  0  0  1  0  0  0  0  0  0
  161.5380  212.4990  143.6380 O   0  0  0  0  0  0  0  0  0  0  0  0
  162.4050  213.1910  144.4760 C   0  0  0  0  0  0  0  0  0  0  0  0
  2 11  1  6  0  0  0
  2  5  1  0  0  0  0
  2  9  1  0  0  0  0
  3  1  2  0  0  0  0
  4  6  1  0  0  0  0
  5  8  1  0  0  0  0
  7  5  2  0  0  0  0
  7  3  1  0  0  0  0
  8  1  1  0  0  0  0
  8  6  2  0  0  0  0
  9  4  2  0  0  0  0
 10 12  1  0  0  0  0
 12 11  2  0  0  0  0
 13 20  1  6  0  0  0
 13 15  1  0  0  0  0
 14 13  1  0  0  0  0
 15 16  1  0  0  0  0
 16 11  1  1  0  0  0
 17 14  1  0  0  0  0
 17 19  2  0  0  0  0
 18 19  1  0  0  0  0
 19 16  1  0  0  0  0
 20 22  1  0  0  0  0
 22 21  1  0  0  0  0
 23  3  1  0  0  0  0
 23 24  1  0  0  0  0
 24 28  1  0  0  0  0
 25 26  1  0  0  0  0
 27 30  1  0  0  0  0
 27 28  2  0  0  0  0
 28 29  1  0  0  0  0
 29 26  2  0  0  0  0
 30 25  2  0  0  0  0
 31 27  1  0  0  0  0
 32 31  1  0  0  0  0
 33 32  1  0  0  0  0
 34 33  1  0  0  0  0
 35 34  1  0  0  0  0
 36 35  1  0  0  0  0
 37 36  1  0  0  0  0
 37 38  1  0  0  0  0
 39 37  1  0  0  0  0
 40 42  1  0  0  0  0
 41 42  2  0  0  0  0
 42 39  1  0  0  0  0
M  END
>  <MODEL>
3

>  <REMARK>
 VINA RESULT:      -6.1      3.155      8.391
  Name = 
  16 active torsions:
  status: ('A' for Active; 'I' for Inactive)
    1  A    between atoms: C_1  and  C_23
    2  A    between atoms: C_1  and  N_26
    3  A    between atoms: O_4  and  C_19
    4  A    between atoms: O_4  and  N_26
    5  A    between atoms: C_5  and  N_25
    6  A    between atoms: C_5  and  C_39
    7  A    between atoms: C_7  and  C_9
    8  A    between atoms: C_8  and  C_28
    9  A    between atoms: C_9  and  C_27
   10  A    between atoms: C_10  and  C_36
   11  A    between atoms: C_18  and  C_31
   12  A    between atoms: C_19  and  N_25
   13  A    between atoms: C_22  and  C_28
   14  A    between atoms: C_23  and  C_31
   15  A    between atoms: C_24  and  C_41
   16  A    between atoms: C_36  and  C_41
                            x       y       z     vdW  Elec       q    Type
                         _______ _______ _______ _____ _____    ______ ____

>  <TORSDO>
F 16

$$$$
=
 OpenBabel11072411213D

 42 45  0  0  1  0  0  0  0  0999 V2000
  162.0220  209.9670  152.3880 C   0  0  0  0  0  3  0  0  0  0  0  0
  160.7690  207.2040  150.1410 C   0  0  0  0  0  0  0  0  0  0  0  0
  161.3450  209.1840  153.2320 C   0  0  1  0  0  3  0  0  0  0  0  0
  162.0260  208.8570  148.7670 N   0  0  0  0  0  0  0  0  0  0  0  0
  161.0990  208.1210  151.2830 C   0  0  0  0  0  0  0  0  0  0  0  0
  162.3270  209.6820  149.9100 C   0  0  0  0  0  3  0  0  0  0  0  0
  160.7540  208.0150  152.5570 C   0  0  0  0  0  3  0  0  0  0  0  0
  161.8770  209.3140  151.1030 C   0  0  0  0  0  0  0  0  0  0  0  0
  161.3310  207.7480  148.8370 C   0  0  0  0  0  3  0  0  0  0  0  0
  162.6060  204.3330  151.6270 O   0  0  0  0  0  1  0  0  0  0  0  0
  161.2750  205.8140  150.3890 C   0  0  0  0  0  0  0  0  0  0  0  0
  162.1070  205.5890  151.3640 N   0  0  0  0  0  0  0  0  0  0  0  0
  161.1820  203.5570  147.5630 C   0  0  1  0  0  3  0  0  0  0  0  0
  161.2610  202.1810  148.2340 C   0  0  0  0  0  2  0  0  0  0  0  0
  161.7310  204.5210  148.4310 O   0  0  0  0  0  0  0  0  0  0  0  0
  160.8020  204.7170  149.4760 C   0  0  1  0  0  3  0  0  0  0  0  0
  160.6860  202.2580  149.6200 C   0  0  0  0  0  3  0  0  0  0  0  0
  159.9780  203.4670  151.5110 O   0  0  0  0  0  1  0  0  0  0  0  0
  160.5100  203.4330  150.2280 C   0  0  0  0  0  0  0  0  0  0  0  0
  161.9530  203.5580  146.2560 C   0  0  0  0  0  2  0  0  0  0  0  0
  160.9390  205.5850  145.2610 C   0  0  0  0  0  1  0  0  0  0  0  0
  161.0810  204.0790  145.1270 C   0  0  0  0  0  2  0  0  0  0  0  0
  161.2500  209.4300  154.6980 C   0  0  0  0  0  2  0  0  0  0  0  0
  160.9680  210.9000  154.9740 C   0  0  0  0  0  2  0  0  0  0  0  0
  156.8080  211.7020  154.7170 N   0  0  0  0  0  0  0  0  0  0  0  0
  157.2950  210.9740  155.7260 N   0  0  0  0  0  0  0  0  0  0  0  0
  158.9920  211.9620  153.7980 C   0  0  0  0  0  0  0  0  0  0  0  0
  159.5040  211.1920  154.8560 C   0  0  0  0  0  0  0  0  0  0  0  0
  158.6230  210.7030  155.8250 C   0  0  0  0  0  3  0  0  0  0  0  0
  157.6180  212.2040  153.7460 C   0  0  0  0  0  3  0  0  0  0  0  0
  159.8750  212.4790  152.7060 C   0  0  0  0  0  2  0  0  0  0  0  0
  159.0270  212.9600  151.5410 C   0  0  0  0  0  2  0  0  0  0  0  0
  159.6630  214.1660  150.8690 C   0  0  0  0  0  2  0  0  0  0  0  0
  159.5230  214.0790  149.4230 N   0  0  0  0  0  2  0  0  0  0  0  0
  160.7010  213.6130  148.9400 O   0  0  0  0  0  0  0  0  0  0  0  0
  160.4430  213.3290  147.5960 C   0  0  0  0  0  2  0  0  0  0  0  0
  161.6520  212.8430  146.9550 N   0  0  0  0  0  0  0  0  0  0  0  0
  162.6630  212.7640  147.9930 C   0  0  0  0  0  1  0  0  0  0  0  0
  162.0920  213.8680  146.0240 C   0  0  0  0  0  2  0  0  0  0  0  0
  161.3840  212.6740  144.0870 O   0  0  0  0  0  0  0  0  0  0  0  0
  163.5820  213.3350  144.0970 O   0  0  0  0  0  1  0  0  0  0  0  0
  162.3200  213.2710  144.6780 C   0  0  0  0  0  0  0  0  0  0  0  0
  1  3  1  0  0  0  0
  2 11  1  0  0  0  0
  2  5  1  0  0  0  0
  3 23  1  1  0  0  0
  4  9  1  0  0  0  0
  4  6  2  0  0  0  0
  5  7  2  0  0  0  0
  6  8  1  0  0  0  0
  7  3  1  0  0  0  0
  8  5  1  0  0  0  0
  8  1  2  0  0  0  0
  9  2  2  0  0  0  0
 11 12  2  0  0  0  0
 12 10  1  0  0  0  0
 13 20  1  6  0  0  0
 13 14  1  0  0  0  0
 13 15  1  0  0  0  0
 14 17  1  0  0  0  0
 15 16  1  0  0  0  0
 16 19  1  0  0  0  0
 16 11  1  1  0  0  0
 17 19  2  0  0  0  0
 19 18  1  0  0  0  0
 22 21  1  0  0  0  0
 22 20  1  0  0  0  0
 23 24  1  0  0  0  0
 25 26  1  0  0  0  0
 26 29  2  0  0  0  0
 27 28  2  0  0  0  0
 28 24  1  0  0  0  0
 28 29  1  0  0  0  0
 30 27  1  0  0  0  0
 30 25  2  0  0  0  0
 31 27  1  0  0  0  0
 32 31  1  0  0  0  0
 33 32  1  0  0  0  0
 34 33  1  0  0  0  0
 35 34  1  0  0  0  0
 36 35  1  0  0  0  0
 37 36  1  0  0  0  0
 37 38  1  0  0  0  0
 39 37  1  0  0  0  0
 40 42  2  0  0  0  0
 41 42  1  0  0  0  0
 42 39  1  0  0  0  0
M  END
>  <MODEL>
4

>  <REMARK>
 VINA RESULT:      -6.0      2.803      8.151
  Name = 
  16 active torsions:
  status: ('A' for Active; 'I' for Inactive)
    1  A    between atoms: C_1  and  C_23
    2  A    between atoms: C_1  and  N_26
    3  A    between atoms: O_4  and  C_19
    4  A    between atoms: O_4  and  N_26
    5  A    between atoms: C_5  and  N_25
    6  A    between atoms: C_5  and  C_39
    7  A    between atoms: C_7  and  C_9
    8  A    between atoms: C_8  and  C_28
    9  A    between atoms: C_9  and  C_27
   10  A    between atoms: C_10  and  C_36
   11  A    between atoms: C_18  and  C_31
   12  A    between atoms: C_19  and  N_25
   13  A    between atoms: C_22  and  C_28
   14  A    between atoms: C_23  and  C_31
   15  A    between atoms: C_24  and  C_41
   16  A    between atoms: C_36  and  C_41
                            x       y       z     vdW  Elec       q    Type
                         _______ _______ _______ _____ _____    ______ ____

>  <TORSDO>
F 16

$$$$
=
 OpenBabel11072411213D

 42 45  0  0  1  0  0  0  0  0999 V2000
  161.5580  207.8450  153.2370 C   0  0  0  0  0  3  0  0  0  0  0  0
  159.5110  209.8970  155.6560 C   0  0  0  0  0  0  0  0  0  0  0  0
  161.1240  208.8520  152.4760 C   0  0  0  0  0  0  0  0  0  0  0  0
  160.3900  207.8900  156.8390 N   0  0  0  0  0  0  0  0  0  0  0  0
  160.2300  209.3300  154.4660 C   0  0  0  0  0  0  0  0  0  0  0  0
  161.0750  207.4120  155.6660 C   0  0  0  0  0  3  0  0  0  0  0  0
  160.2840  209.8000  153.2300 C   0  0  0  0  0  3  0  0  0  0  0  0
  160.9880  208.1130  154.5420 C   0  0  1  0  0  3  0  0  0  0  0  0
  159.6820  208.9930  156.8670 C   0  0  0  0  0  3  0  0  0  0  0  0
  161.5900  212.7210  156.8960 O   0  0  0  0  0  1  0  0  0  0  0  0
  159.9820  211.2860  155.9710 C   0  0  0  0  0  0  0  0  0  0  0  0
  161.1180  211.4660  156.5790 N   0  0  0  0  0  0  0  0  0  0  0  0
  158.4060  213.7970  153.8970 C   0  0  1  0  0  3  0  0  0  0  0  0
  156.9200  213.4450  154.0210 C   0  0  0  0  0  2  0  0  0  0  0  0
  159.1730  212.6510  154.1830 O   0  0  0  0  0  0  0  0  0  0  0  0
  159.0990  212.4370  155.5770 C   0  0  1  0  0  3  0  0  0  0  0  0
  156.6660  212.7660  155.3370 C   0  0  0  0  0  3  0  0  0  0  0  0
  157.4000  211.6260  157.2610 O   0  0  0  0  0  1  0  0  0  0  0  0
  157.6700  212.2500  156.0490 C   0  0  0  0  0  0  0  0  0  0  0  0
  158.7240  214.2810  152.4950 C   0  0  0  0  0  2  0  0  0  0  0  0
  158.3380  213.4430  150.1980 C   0  0  0  0  0  1  0  0  0  0  0  0
  158.9190  213.1010  151.5580 C   0  0  0  0  0  2  0  0  0  0  0  0
  161.4960  209.0310  151.0450 C   0  0  0  0  0  2  0  0  0  0  0  0
  162.5190  207.9860  150.6250 C   0  0  0  0  0  2  0  0  0  0  0  0
  161.1930  205.8360  147.2140 N   0  0  0  0  0  0  0  0  0  0  0  0
  161.9130  206.9520  147.0720 N   0  0  0  0  0  0  0  0  0  0  0  0
  161.2800  206.0360  149.5880 C   0  0  0  0  0  0  0  0  0  0  0  0
  162.0320  207.2120  149.4390 C   0  0  0  0  0  0  0  0  0  0  0  0
  162.3440  207.6570  148.1510 C   0  0  0  0  0  3  0  0  0  0  0  0
  160.8600  205.3560  148.4440 C   0  0  0  0  0  3  0  0  0  0  0  0
  160.8760  205.5290  150.9380 C   0  0  0  0  0  2  0  0  0  0  0  0
  161.8860  204.5060  151.4280 C   0  0  0  0  0  2  0  0  0  0  0  0
  161.1920  203.2250  151.8630 C   0  0  0  0  0  2  0  0  0  0  0  0
  160.1310  202.8770  150.9290 N   0  0  0  0  0  2  0  0  0  0  0  0
  160.5760  201.8230  150.2010 O   0  0  0  0  0  0  0  0  0  0  0  0
  159.9010  201.9260  148.9820 C   0  0  0  0  0  2  0  0  0  0  0  0
  160.4960  201.0250  148.0110 N   0  0  0  0  0  0  0  0  0  0  0  0
  161.6990  200.4950  148.6280 C   0  0  0  0  0  1  0  0  0  0  0  0
  160.9290  201.8290  146.8810 C   0  0  0  0  0  2  0  0  0  0  0  0
  159.7360  201.8960  144.8190 O   0  0  0  0  0  0  0  0  0  0  0  0
  160.7430  199.8950  145.3190 O   0  0  0  0  0  1  0  0  0  0  0  0
  160.4470  201.2220  145.6090 C   0  0  0  0  0  0  0  0  0  0  0  0
  2 11  1  0  0  0  0
  2  9  2  0  0  0  0
  3  7  1  0  0  0  0
  3  1  2  0  0  0  0
  4  9  1  0  0  0  0
  5  8  1  0  0  0  0
  5  2  1  0  0  0  0
  6  4  2  0  0  0  0
  7  5  2  0  0  0  0
  8  1  1  6  0  0  0
  8  6  1  0  0  0  0
 11 12  2  0  0  0  0
 12 10  1  0  0  0  0
 13 20  1  6  0  0  0
 13 14  1  0  0  0  0
 13 15  1  0  0  0  0
 14 17  1  0  0  0  0
 15 16  1  0  0  0  0
 16 11  1  6  0  0  0
 16 19  1  0  0  0  0
 17 19  2  0  0  0  0
 19 18  1  0  0  0  0
 21 22  1  0  0  0  0
 22 20  1  0  0  0  0
 23  3  1  0  0  0  0
 24 23  1  0  0  0  0
 25 30  1  0  0  0  0
 26 25  2  0  0  0  0
 26 29  1  0  0  0  0
 27 31  1  0  0  0  0
 28 27  1  0  0  0  0
 28 24  1  0  0  0  0
 29 28  2  0  0  0  0
 30 27  2  0  0  0  0
 31 32  1  0  0  0  0
 32 33  1  0  0  0  0
 34 33  1  0  0  0  0
 35 34  1  0  0  0  0
 36 35  1  0  0  0  0
 37 38  1  0  0  0  0
 37 36  1  0  0  0  0
 39 37  1  0  0  0  0
 40 42  2  0  0  0  0
 41 42  1  0  0  0  0
 42 39  1  0  0  0  0
M  END
>  <MODEL>
5

>  <REMARK>
 VINA RESULT:      -5.9      2.487      5.200
  Name = 
  16 active torsions:
  status: ('A' for Active; 'I' for Inactive)
    1  A    between atoms: C_1  and  C_23
    2  A    between atoms: C_1  and  N_26
    3  A    between atoms: O_4  and  C_19
    4  A    between atoms: O_4  and  N_26
    5  A    between atoms: C_5  and  N_25
    6  A    between atoms: C_5  and  C_39
    7  A    between atoms: C_7  and  C_9
    8  A    between atoms: C_8  and  C_28
    9  A    between atoms: C_9  and  C_27
   10  A    between atoms: C_10  and  C_36
   11  A    between atoms: C_18  and  C_31
   12  A    between atoms: C_19  and  N_25
   13  A    between atoms: C_22  and  C_28
   14  A    between atoms: C_23  and  C_31
   15  A    between atoms: C_24  and  C_41
   16  A    between atoms: C_36  and  C_41
                            x       y       z     vdW  Elec       q    Type
                         _______ _______ _______ _____ _____    ______ ____

>  <TORSDO>
F 16

$$$$
=
 OpenBabel11072411213D

 42 45  0  0  1  0  0  0  0  0999 V2000
  161.5950  210.2550  150.4280 C   0  0  0  0  0  3  0  0  0  0  0  0
  162.1370  206.6070  149.6170 C   0  0  1  0  0  3  0  0  0  0  0  0
  162.1680  210.3020  149.2230 C   0  0  0  0  0  0  0  0  0  0  0  0
  161.1230  206.7900  151.8840 N   0  0  0  0  0  0  0  0  0  0  0  0
  162.0690  208.1080  149.6250 C   0  0  0  0  0  0  0  0  0  0  0  0
  161.0660  208.2290  151.8180 C   0  0  0  0  0  3  0  0  0  0  0  0
  162.4760  208.9590  148.6980 C   0  0  0  0  0  3  0  0  0  0  0  0
  161.5220  208.8390  150.7320 C   0  0  0  0  0  0  0  0  0  0  0  0
  161.5970  206.0390  150.9200 C   0  0  0  0  0  3  0  0  0  0  0  0
  159.7060  206.2100  146.8320 O   0  0  0  0  0  1  0  0  0  0  0  0
  161.3950  206.0310  148.4480 C   0  0  0  0  0  0  0  0  0  0  0  0
  160.4220  206.7000  147.9010 N   0  0  0  0  0  0  0  0  0  0  0  0
  161.3130  202.4550  147.9050 C   0  0  1  0  0  3  0  0  0  0  0  0
  161.2310  202.3520  146.3780 C   0  0  0  0  0  2  0  0  0  0  0  0
  160.8250  203.7130  148.3060 O   0  0  0  0  0  0  0  0  0  0  0  0
  161.8020  204.6700  147.9550 C   0  0  1  0  0  3  0  0  0  0  0  0
  161.8670  203.5620  145.7530 C   0  0  0  0  0  3  0  0  0  0  0  0
  162.6830  205.7670  145.8560 O   0  0  0  0  0  1  0  0  0  0  0  0
  162.0960  204.6650  146.4670 C   0  0  0  0  0  0  0  0  0  0  0  0
  160.4880  201.3620  148.5570 C   0  0  0  0  0  2  0  0  0  0  0  0
  161.3690  201.7780  150.8330 C   0  0  0  0  0  1  0  0  0  0  0  0
  160.1160  201.7540  149.9770 C   0  0  0  0  0  2  0  0  0  0  0  0
  162.4120  211.5630  148.4680 C   0  0  0  0  0  2  0  0  0  0  0  0
  161.5660  212.6940  149.0330 C   0  0  0  0  0  2  0  0  0  0  0  0
  158.2400  213.3980  146.4930 N   0  0  0  0  0  0  0  0  0  0  0  0
  159.3010  212.7210  146.0460 N   0  0  0  0  0  0  0  0  0  0  0  0
  159.2640  213.6700  148.6280 C   0  0  0  0  0  0  0  0  0  0  0  0
  160.3820  212.9630  148.1560 C   0  0  0  0  0  0  0  0  0  0  0  0
  160.3770  212.4880  146.8420 C   0  0  0  0  0  3  0  0  0  0  0  0
  158.1890  213.8840  147.7640 C   0  0  0  0  0  3  0  0  0  0  0  0
  159.2240  214.2420  150.0110 C   0  0  0  0  0  2  0  0  0  0  0  0
  158.4250  213.3270  150.9240 C   0  0  0  0  0  2  0  0  0  0  0  0
  159.2950  212.7920  152.0500 C   0  0  0  0  0  2  0  0  0  0  0  0
  158.4700  212.3370  153.1600 N   0  0  0  0  0  2  0  0  0  0  0  0
  159.2040  212.4970  154.2890 O   0  0  0  0  0  0  0  0  0  0  0  0
  160.2840  211.6240  154.1340 C   0  0  0  0  0  2  0  0  0  0  0  0
  160.3650  210.7330  155.2780 N   0  0  0  0  0  0  0  0  0  0  0  0
  160.8060  211.5430  156.3990 C   0  0  0  0  0  1  0  0  0  0  0  0
  161.4290  209.7790  155.0120 C   0  0  0  0  0  2  0  0  0  0  0  0
  161.9020  208.0960  156.6310 O   0  0  0  0  0  1  0  0  0  0  0  0
  160.0720  207.7080  155.3000 O   0  0  0  0  0  0  0  0  0  0  0  0
  161.1460  208.4920  155.7060 C   0  0  0  0  0  0  0  0  0  0  0  0
  1  8  1  0  0  0  0
  2 11  1  6  0  0  0
  2  5  1  0  0  0  0
  2  9  1  0  0  0  0
  3  1  2  0  0  0  0
  5  8  1  0  0  0  0
  6  4  1  0  0  0  0
  7  3  1  0  0  0  0
  7  5  2  0  0  0  0
  8  6  2  0  0  0  0
  9  4  2  0  0  0  0
 10 12  1  0  0  0  0
 12 11  2  0  0  0  0
 13 15  1  0  0  0  0
 13 20  1  1  0  0  0
 14 13  1  0  0  0  0
 16 15  1  0  0  0  0
 16 11  1  6  0  0  0
 17 14  1  0  0  0  0
 17 19  2  0  0  0  0
 18 19  1  0  0  0  0
 19 16  1  0  0  0  0
 20 22  1  0  0  0  0
 22 21  1  0  0  0  0
 23 24  1  0  0  0  0
 23  3  1  0  0  0  0
 25 30  1  0  0  0  0
 26 25  2  0  0  0  0
 26 29  1  0  0  0  0
 27 31  1  0  0  0  0
 28 27  1  0  0  0  0
 28 24  1  0  0  0  0
 29 28  2  0  0  0  0
 30 27  2  0  0  0  0
 31 32  1  0  0  0  0
 32 33  1  0  0  0  0
 33 34  1  0  0  0  0
 34 35  1  0  0  0  0
 36 35  1  0  0  0  0
 36 37  1  0  0  0  0
 37 38  1  0  0  0  0
 39 37  1  0  0  0  0
 39 42  1  0  0  0  0
 41 42  2  0  0  0  0
 42 40  1  0  0  0  0
M  END
>  <MODEL>
6

>  <REMARK>
 VINA RESULT:      -5.7      2.541      9.321
  Name = 
  16 active torsions:
  status: ('A' for Active; 'I' for Inactive)
    1  A    between atoms: C_1  and  C_23
    2  A    between atoms: C_1  and  N_26
    3  A    between atoms: O_4  and  C_19
    4  A    between atoms: O_4  and  N_26
    5  A    between atoms: C_5  and  N_25
    6  A    between atoms: C_5  and  C_39
    7  A    between atoms: C_7  and  C_9
    8  A    between atoms: C_8  and  C_28
    9  A    between atoms: C_9  and  C_27
   10  A    between atoms: C_10  and  C_36
   11  A    between atoms: C_18  and  C_31
   12  A    between atoms: C_19  and  N_25
   13  A    between atoms: C_22  and  C_28
   14  A    between atoms: C_23  and  C_31
   15  A    between atoms: C_24  and  C_41
   16  A    between atoms: C_36  and  C_41
                            x       y       z     vdW  Elec       q    Type
                         _______ _______ _______ _____ _____    ______ ____

>  <TORSDO>
F 16

$$$$
=
 OpenBabel11072411213D

 42 45  0  0  1  0  0  0  0  0999 V2000
  161.4690  208.0120  153.6340 C   0  0  0  0  0  3  0  0  0  0  0  0
  159.3760  210.1880  155.9020 C   0  0  0  0  0  0  0  0  0  0  0  0
  160.9300  208.8920  152.7860 C   0  0  0  0  0  0  0  0  0  0  0  0
  160.4480  208.3970  157.2610 N   0  0  0  0  0  0  0  0  0  0  0  0
  160.0860  209.5360  154.7500 C   0  0  0  0  0  0  0  0  0  0  0  0
  161.1190  207.8340  156.1160 C   0  0  0  0  0  3  0  0  0  0  0  0
  160.0550  209.8620  153.4680 C   0  0  0  0  0  3  0  0  0  0  0  0
  160.9340  208.3920  154.9270 C   0  0  1  0  0  3  0  0  0  0  0  0
  159.6630  209.4440  157.1980 C   0  0  0  0  0  3  0  0  0  0  0  0
  161.1870  213.2830  156.8860 O   0  0  0  0  0  1  0  0  0  0  0  0
  159.7560  211.6330  156.0340 C   0  0  0  0  0  0  0  0  0  0  0  0
  160.8030  211.9700  156.7300 N   0  0  0  0  0  0  0  0  0  0  0  0
  158.5000  213.8480  153.4640 C   0  0  1  0  0  3  0  0  0  0  0  0
  157.0710  213.3340  153.2520 C   0  0  0  0  0  2  0  0  0  0  0  0
  159.2820  212.8110  154.0090 O   0  0  0  0  0  0  0  0  0  0  0  0
  158.8870  212.6550  155.3560 C   0  0  1  0  0  3  0  0  0  0  0  0
  156.5690  212.6920  154.5140 C   0  0  0  0  0  3  0  0  0  0  0  0
  156.9150  211.7340  156.6370 O   0  0  0  0  0  1  0  0  0  0  0  0
  157.4120  212.3280  155.4830 C   0  0  0  0  0  0  0  0  0  0  0  0
  159.1040  214.2980  152.1480 C   0  0  0  0  0  2  0  0  0  0  0  0
  160.0830  213.5750  149.9920 C   0  0  0  0  0  1  0  0  0  0  0  0
  159.5640  213.0990  151.3370 C   0  0  0  0  0  2  0  0  0  0  0  0
  161.2290  208.9280  151.3270 C   0  0  0  0  0  2  0  0  0  0  0  0
  162.3500  207.9570  150.9880 C   0  0  0  0  0  2  0  0  0  0  0  0
  160.8530  203.9990  150.6560 N   0  0  0  0  0  0  0  0  0  0  0  0
  161.4060  204.4190  151.7970 N   0  0  0  0  0  0  0  0  0  0  0  0
  161.2340  206.1240  149.6440 C   0  0  0  0  0  0  0  0  0  0  0  0
  161.8200  206.5640  150.8420 C   0  0  0  0  0  0  0  0  0  0  0  0
  161.8940  205.6810  151.9230 C   0  0  0  0  0  3  0  0  0  0  0  0
  160.7540  204.8150  149.5710 C   0  0  0  0  0  3  0  0  0  0  0  0
  161.1620  207.0050  148.4350 C   0  0  0  0  0  2  0  0  0  0  0  0
  160.9910  206.1560  147.1870 C   0  0  0  0  0  2  0  0  0  0  0  0
  162.2490  206.1890  146.3340 C   0  0  0  0  0  2  0  0  0  0  0  0
  162.6150  204.8450  145.9120 N   0  0  0  0  0  2  0  0  0  0  0  0
  161.8010  203.9870  146.5750 O   0  0  0  0  0  0  0  0  0  0  0  0
  161.2370  203.1910  145.5740 C   0  0  0  0  0  2  0  0  0  0  0  0
  160.9240  201.8770  146.1080 N   0  0  0  0  0  0  0  0  0  0  0  0
  159.9030  201.3160  145.2420 C   0  0  0  0  0  1  0  0  0  0  0  0
  160.3030  202.0730  147.4080 C   0  0  0  0  0  2  0  0  0  0  0  0
  160.3310  201.0000  149.5350 O   0  0  0  0  0  1  0  0  0  0  0  0
  161.8500  200.2110  148.0050 O   0  0  0  0  0  0  0  0  0  0  0  0
  160.8120  201.0600  148.3730 C   0  0  0  0  0  0  0  0  0  0  0  0
  2 11  1  0  0  0  0
  2  9  2  0  0  0  0
  3  7  1  0  0  0  0
  3  1  2  0  0  0  0
  5  8  1  0  0  0  0
  5  2  1  0  0  0  0
  6  4  2  0  0  0  0
  7  5  2  0  0  0  0
  8  1  1  6  0  0  0
  8  6  1  0  0  0  0
  9  4  1  0  0  0  0
 11 12  2  0  0  0  0
 12 10  1  0  0  0  0
 13 20  1  6  0  0  0
 13 15  1  0  0  0  0
 14 13  1  0  0  0  0
 14 17  1  0  0  0  0
 15 16  1  0  0  0  0
 16 19  1  0  0  0  0
 16 11  1  6  0  0  0
 17 19  2  0  0  0  0
 19 18  1  0  0  0  0
 21 22  1  0  0  0  0
 22 20  1  0  0  0  0
 23  3  1  0  0  0  0
 24 23  1  0  0  0  0
 25 26  1  0  0  0  0
 26 29  2  0  0  0  0
 27 28  2  0  0  0  0
 28 24  1  0  0  0  0
 28 29  1  0  0  0  0
 30 27  1  0  0  0  0
 30 25  2  0  0  0  0
 31 27  1  0  0  0  0
 32 31  1  0  0  0  0
 33 32  1  0  0  0  0
 34 33  1  0  0  0  0
 34 35  1  0  0  0  0
 36 37  1  0  0  0  0
 36 35  1  0  0  0  0
 37 39  1  0  0  0  0
 38 37  1  0  0  0  0
 39 42  1  0  0  0  0
 41 42  2  0  0  0  0
 42 40  1  0  0  0  0
M  END
>  <MODEL>
7

>  <REMARK>
 VINA RESULT:      -5.7      2.515      4.740
  Name = 
  16 active torsions:
  status: ('A' for Active; 'I' for Inactive)
    1  A    between atoms: C_1  and  C_23
    2  A    between atoms: C_1  and  N_26
    3  A    between atoms: O_4  and  C_19
    4  A    between atoms: O_4  and  N_26
    5  A    between atoms: C_5  and  N_25
    6  A    between atoms: C_5  and  C_39
    7  A    between atoms: C_7  and  C_9
    8  A    between atoms: C_8  and  C_28
    9  A    between atoms: C_9  and  C_27
   10  A    between atoms: C_10  and  C_36
   11  A    between atoms: C_18  and  C_31
   12  A    between atoms: C_19  and  N_25
   13  A    between atoms: C_22  and  C_28
   14  A    between atoms: C_23  and  C_31
   15  A    between atoms: C_24  and  C_41
   16  A    between atoms: C_36  and  C_41
                            x       y       z     vdW  Elec       q    Type
                         _______ _______ _______ _____ _____    ______ ____

>  <TORSDO>
F 16

$$$$
=
 OpenBabel11072411213D

 42 45  0  0  1  0  0  0  0  0999 V2000
  161.8330  207.8240  150.8370 C   0  0  0  0  0  3  0  0  0  0  0  0
  161.1300  205.7490  147.7620 C   0  0  0  0  0  0  0  0  0  0  0  0
  161.7820  206.5810  151.3240 C   0  0  1  0  0  3  0  0  0  0  0  0
  161.2060  208.1530  147.1170 N   0  0  0  0  0  0  0  0  0  0  0  0
  161.4040  206.2630  149.1460 C   0  0  0  0  0  0  0  0  0  0  0  0
  161.4890  208.5780  148.4640 C   0  0  0  0  0  3  0  0  0  0  0  0
  161.5120  205.5810  150.2750 C   0  0  0  0  0  3  0  0  0  0  0  0
  161.5800  207.6610  149.4190 C   0  0  0  0  0  0  0  0  0  0  0  0
  161.0380  206.9000  146.7720 C   0  0  0  0  0  3  0  0  0  0  0  0
  164.2940  204.3280  146.4200 O   0  0  0  0  0  1  0  0  0  0  0  0
  162.1760  204.7660  147.3250 C   0  0  0  0  0  0  0  0  0  0  0  0
  163.3070  205.1910  146.8410 N   0  0  0  0  0  0  0  0  0  0  0  0
  160.9460  201.6700  148.7370 C   0  0  1  0  0  3  0  0  0  0  0  0
  159.9260  201.2100  147.6890 C   0  0  0  0  0  2  0  0  0  0  0  0
  161.1160  203.0640  148.6270 O   0  0  0  0  0  0  0  0  0  0  0  0
  161.8640  203.3010  147.4530 C   0  0  1  0  0  3  0  0  0  0  0  0
  160.3070  201.7460  146.3380 C   0  0  0  0  0  3  0  0  0  0  0  0
  161.5040  203.2260  144.9540 O   0  0  0  0  0  1  0  0  0  0  0  0
  161.1750  202.7530  146.2180 C   0  0  0  0  0  0  0  0  0  0  0  0
  160.4650  201.3290  150.1340 C   0  0  0  0  0  2  0  0  0  0  0  0
  161.8760  202.4450  151.8340 C   0  0  0  0  0  1  0  0  0  0  0  0
  160.5830  202.5380  151.0460 C   0  0  0  0  0  2  0  0  0  0  0  0
  162.0320  206.2380  152.7520 C   0  0  0  0  0  2  0  0  0  0  0  0
  160.8190  206.5850  153.6030 C   0  0  0  0  0  2  0  0  0  0  0  0
  161.8100  209.5590  156.4640 N   0  0  0  0  0  0  0  0  0  0  0  0
  161.9560  208.2640  156.7570 N   0  0  0  0  0  0  0  0  0  0  0  0
  161.0070  209.0170  154.2860 C   0  0  0  0  0  0  0  0  0  0  0  0
  161.1550  207.6540  154.5970 C   0  0  0  0  0  0  0  0  0  0  0  0
  161.6410  207.2960  155.8570 C   0  0  0  0  0  3  0  0  0  0  0  0
  161.3410  209.9670  155.2530 C   0  0  0  0  0  3  0  0  0  0  0  0
  160.4510  209.4660  152.9710 C   0  0  0  0  0  2  0  0  0  0  0  0
  159.5940  210.7050  153.1690 C   0  0  0  0  0  2  0  0  0  0  0  0
  160.0330  211.8220  152.2370 C   0  0  0  0  0  2  0  0  0  0  0  0
  158.9220  212.7200  151.9570 N   0  0  0  0  0  2  0  0  0  0  0  0
  158.9670  213.0020  150.6310 O   0  0  0  0  0  0  0  0  0  0  0  0
  160.0870  213.8250  150.4840 C   0  0  0  0  0  2  0  0  0  0  0  0
  160.4620  213.8980  149.0830 N   0  0  0  0  0  0  0  0  0  0  0  0
  159.2270  213.8360  148.3230 C   0  0  0  0  0  1  0  0  0  0  0  0
  161.2050  212.6890  148.7680 C   0  0  0  0  0  2  0  0  0  0  0  0
  163.3650  212.2030  147.8870 O   0  0  0  0  0  1  0  0  0  0  0  0
  162.5210  214.2730  147.3650 O   0  0  0  0  0  0  0  0  0  0  0  0
  162.4170  213.0270  147.9730 C   0  0  0  0  0  0  0  0  0  0  0  0
  1  3  1  0  0  0  0
  2  5  1  0  0  0  0
  3 23  1  6  0  0  0
  4  6  2  0  0  0  0
  5  8  1  0  0  0  0
  5  7  2  0  0  0  0
  6  8  1  0  0  0  0
  7  3  1  0  0  0  0
  8  1  2  0  0  0  0
  9  4  1  0  0  0  0
  9  2  2  0  0  0  0
 10 12  1  0  0  0  0
 11  2  1  0  0  0  0
 12 11  2  0  0  0  0
 13 20  1  1  0  0  0
 14 13  1  0  0  0  0
 15 13  1  0  0  0  0
 16 11  1  6  0  0  0
 16 15  1  0  0  0  0
 17 14  1  0  0  0  0
 18 19  1  0  0  0  0
 19 17  2  0  0  0  0
 19 16  1  0  0  0  0
 20 22  1  0  0  0  0
 22 21  1  0  0  0  0
 23 24  1  0  0  0  0
 24 28  1  0  0  0  0
 25 26  1  0  0  0  0
 27 28  2  0  0  0  0
 27 30  1  0  0  0  0
 28 29  1  0  0  0  0
 29 26  2  0  0  0  0
 30 25  2  0  0  0  0
 31 32  1  0  0  0  0
 31 27  1  0  0  0  0
 33 32  1  0  0  0  0
 34 33  1  0  0  0  0
 35 34  1  0  0  0  0
 36 35  1  0  0  0  0
 37 36  1  0  0  0  0
 38 37  1  0  0  0  0
 39 37  1  0  0  0  0
 40 42  1  0  0  0  0
 41 42  2  0  0  0  0
 42 39  1  0  0  0  0
M  END
>  <MODEL>
8

>  <REMARK>
 VINA RESULT:      -5.4      2.586      8.642
  Name = 
  16 active torsions:
  status: ('A' for Active; 'I' for Inactive)
    1  A    between atoms: C_1  and  C_23
    2  A    between atoms: C_1  and  N_26
    3  A    between atoms: O_4  and  C_19
    4  A    between atoms: O_4  and  N_26
    5  A    between atoms: C_5  and  N_25
    6  A    between atoms: C_5  and  C_39
    7  A    between atoms: C_7  and  C_9
    8  A    between atoms: C_8  and  C_28
    9  A    between atoms: C_9  and  C_27
   10  A    between atoms: C_10  and  C_36
   11  A    between atoms: C_18  and  C_31
   12  A    between atoms: C_19  and  N_25
   13  A    between atoms: C_22  and  C_28
   14  A    between atoms: C_23  and  C_31
   15  A    between atoms: C_24  and  C_41
   16  A    between atoms: C_36  and  C_41
                            x       y       z     vdW  Elec       q    Type
                         _______ _______ _______ _____ _____    ______ ____

>  <TORSDO>
F 16

$$$$
=
 OpenBabel11072411213D

 42 45  0  0  1  0  0  0  0  0999 V2000
  161.1420  206.9210  151.6360 C   0  0  0  0  0  3  0  0  0  0  0  0
  161.6330  209.5880  154.2630 C   0  0  0  0  0  0  0  0  0  0  0  0
  161.2660  206.2100  152.7600 C   0  0  1  0  0  3  0  0  0  0  0  0
  161.4430  210.6760  152.0310 N   0  0  0  0  0  0  0  0  0  0  0  0
  161.4650  208.3100  153.4930 C   0  0  0  0  0  0  0  0  0  0  0  0
  161.2640  209.4160  151.3550 C   0  0  0  0  0  3  0  0  0  0  0  0
  161.4710  207.0660  153.9430 C   0  0  0  0  0  3  0  0  0  0  0  0
  161.2780  208.2970  152.0700 C   0  0  0  0  0  0  0  0  0  0  0  0
  161.6120  210.7860  153.3260 C   0  0  0  0  0  3  0  0  0  0  0  0
  159.3390  208.8140  157.0850 O   0  0  0  0  0  1  0  0  0  0  0  0
  160.5790  209.7330  155.3210 C   0  0  0  0  0  0  0  0  0  0  0  0
  160.3030  208.7330  156.1050 N   0  0  0  0  0  0  0  0  0  0  0  0
  157.8650  212.1250  155.3320 C   0  0  1  0  0  3  0  0  0  0  0  0
  157.9400  212.7060  156.7490 C   0  0  0  0  0  2  0  0  0  0  0  0
  158.4670  210.8520  155.3270 O   0  0  0  0  0  0  0  0  0  0  0  0
  159.8610  211.0500  155.4250 C   0  0  1  0  0  3  0  0  0  0  0  0
  159.3500  212.6160  157.2610 C   0  0  0  0  0  3  0  0  0  0  0  0
  161.5370  211.7500  157.1810 O   0  0  0  0  0  1  0  0  0  0  0  0
  160.2420  211.8110  156.6800 C   0  0  0  0  0  0  0  0  0  0  0  0
  156.4210  212.0030  154.8820 C   0  0  0  0  0  2  0  0  0  0  0  0
  157.2420  213.2190  152.8890 C   0  0  0  0  0  1  0  0  0  0  0  0
  156.0890  213.0820  153.8660 C   0  0  0  0  0  2  0  0  0  0  0  0
  161.1480  204.7260  152.8210 C   0  0  0  0  0  2  0  0  0  0  0  0
  162.1290  204.0740  151.8590 C   0  0  0  0  0  2  0  0  0  0  0  0
  160.0620  201.6320  149.0700 N   0  0  0  0  0  0  0  0  0  0  0  0
  160.3210  201.1810  150.3010 N   0  0  0  0  0  0  0  0  0  0  0  0
  161.1300  203.7060  149.5610 C   0  0  0  0  0  0  0  0  0  0  0  0
  161.4080  203.2300  150.8540 C   0  0  0  0  0  0  0  0  0  0  0  0
  160.9850  201.9460  151.2080 C   0  0  0  0  0  3  0  0  0  0  0  0
  160.4490  202.8740  148.6700 C   0  0  0  0  0  3  0  0  0  0  0  0
  161.5920  205.0540  149.1050 C   0  0  0  0  0  2  0  0  0  0  0  0
  160.4460  205.7920  148.4320 C   0  0  0  0  0  2  0  0  0  0  0  0
  160.9440  206.5900  147.2380 C   0  0  0  0  0  2  0  0  0  0  0  0
  162.3290  206.2550  146.9410 N   0  0  0  0  0  2  0  0  0  0  0  0
  162.3640  205.8250  145.6560 O   0  0  0  0  0  0  0  0  0  0  0  0
  162.6470  204.4600  145.7480 C   0  0  0  0  0  2  0  0  0  0  0  0
  161.6860  203.7040  144.9640 N   0  0  0  0  0  0  0  0  0  0  0  0
  160.8700  204.6790  144.2650 C   0  0  0  0  0  1  0  0  0  0  0  0
  160.8070  203.0190  145.8970 C   0  0  0  0  0  2  0  0  0  0  0  0
  159.5840  201.5090  144.5170 O   0  0  0  0  0  0  0  0  0  0  0  0
  161.1390  200.5490  145.9050 O   0  0  0  0  0  1  0  0  0  0  0  0
  160.4820  201.6580  145.3860 C   0  0  0  0  0  0  0  0  0  0  0  0
  1  8  2  0  0  0  0
  1  3  1  0  0  0  0
  2 11  1  0  0  0  0
  3 23  1  1  0  0  0
  3  7  1  0  0  0  0
  4  9  1  0  0  0  0
  5  7  2  0  0  0  0
  5  2  1  0  0  0  0
  6  4  2  0  0  0  0
  6  8  1  0  0  0  0
  8  5  1  0  0  0  0
  9  2  2  0  0  0  0
 11 12  2  0  0  0  0
 12 10  1  0  0  0  0
 13 20  1  1  0  0  0
 13 14  1  0  0  0  0
 14 17  1  0  0  0  0
 15 13  1  0  0  0  0
 15 16  1  0  0  0  0
 16 11  1  1  0  0  0
 16 19  1  0  0  0  0
 19 18  1  0  0  0  0
 19 17  2  0  0  0  0
 21 22  1  0  0  0  0
 22 20  1  0  0  0  0
 24 23  1  0  0  0  0
 25 26  1  0  0  0  0
 26 29  2  0  0  0  0
 27 28  2  0  0  0  0
 28 29  1  0  0  0  0
 28 24  1  0  0  0  0
 30 25  2  0  0  0  0
 30 27  1  0  0  0  0
 31 27  1  0  0  0  0
 32 31  1  0  0  0  0
 33 32  1  0  0  0  0
 34 33  1  0  0  0  0
 35 36  1  0  0  0  0
 35 34  1  0  0  0  0
 37 36  1  0  0  0  0
 37 39  1  0  0  0  0
 38 37  1  0  0  0  0
 40 42  2  0  0  0  0
 42 39  1  0  0  0  0
 42 41  1  0  0  0  0
M  END
>  <MODEL>
9

>  <REMARK>
 VINA RESULT:      -5.4      2.572      4.676
  Name = 
  16 active torsions:
  status: ('A' for Active; 'I' for Inactive)
    1  A    between atoms: C_1  and  C_23
    2  A    between atoms: C_1  and  N_26
    3  A    between atoms: O_4  and  C_19
    4  A    between atoms: O_4  and  N_26
    5  A    between atoms: C_5  and  N_25
    6  A    between atoms: C_5  and  C_39
    7  A    between atoms: C_7  and  C_9
    8  A    between atoms: C_8  and  C_28
    9  A    between atoms: C_9  and  C_27
   10  A    between atoms: C_10  and  C_36
   11  A    between atoms: C_18  and  C_31
   12  A    between atoms: C_19  and  N_25
   13  A    between atoms: C_22  and  C_28
   14  A    between atoms: C_23  and  C_31
   15  A    between atoms: C_24  and  C_41
   16  A    between atoms: C_36  and  C_41
                            x       y       z     vdW  Elec       q    Type
                         _______ _______ _______ _____ _____    ______ ____

>  <TORSDO>
F 16

$$$$
