=
 OpenBabel11072413043D

 37 40  0  0  1  0  0  0  0  0999 V2000
  160.7370  207.7430  152.5460 C   0  0  0  0  0  0  0  0  0  0  0  0
  160.6280  209.8620  152.4300 C   0  0  0  0  0  0  0  0  0  0  0  0
  160.3900  206.3300  152.9090 C   0  0  0  0  0  2  0  0  0  0  0  0
  162.0790  204.6820  152.0510 C   0  0  0  0  0  0  0  0  0  0  0  0
  161.0590  204.5520  149.8460 N   0  0  0  0  0  0  0  0  0  0  0  0
  161.5410  208.1830  151.5140 C   0  0  0  0  0  0  0  0  0  0  0  0
  162.3610  207.3350  150.5980 C   0  0  1  0  0  3  0  0  0  0  0  0
  160.3890  206.8040  149.0220 C   0  0  0  0  0  2  0  0  0  0  0  0
  161.6100  205.4740  153.2380 C   0  0  0  0  0  2  0  0  0  0  0  0
  163.2760  204.5900  151.8310 O   0  0  0  0  0  0  0  0  0  0  0  0
  160.0260  205.5890  149.8780 C   0  0  0  0  0  2  0  0  0  0  0  0
  160.1450  208.8040  153.1190 N   0  0  0  0  0  0  0  0  0  0  0  0
  161.1100  203.9460  151.1740 C   0  0  0  0  0  2  0  0  0  0  0  0
  161.4830  209.5240  151.4390 N   0  0  0  0  0  2  0  0  0  0  0  0
  161.8330  207.3010  149.1670 C   0  0  0  0  0  2  0  0  0  0  0  0
  163.6730  207.7720  150.5990 F   0  0  0  0  0  0  0  0  0  0  0  0
  160.8180  211.7690  153.8450 O   0  0  0  0  0  1  0  0  0  0  0  0
  160.6640  212.1280  151.5090 C   0  0  0  0  0  1  0  0  0  0  0  0
  160.2000  211.2840  152.6860 C   0  0  1  0  0  0  0  0  0  0  0  0
  158.7300  211.3730  152.8060 N   0  0  0  0  0  0  0  0  0  0  0  0
  158.2320  212.0630  151.7460 O   0  0  0  0  0  1  0  0  0  0  0  0
  156.0930  213.3110  155.9320 C   0  0  0  0  0  2  0  0  0  0  0  0
  157.1650  214.0260  155.1220 C   0  0  0  0  0  2  0  0  0  0  0  0
  157.8320  211.4530  156.4280 C   0  0  0  0  0  2  0  0  0  0  0  0
  157.6610  211.0030  154.9830 C   0  0  0  0  0  2  0  0  0  0  0  0
  156.6660  212.3070  156.9360 C   0  0  0  0  0  2  0  0  0  0  0  0
  157.4230  213.2610  153.8310 C   0  0  0  0  0  2  0  0  0  0  0  0
  158.3100  212.0260  154.0580 C   0  0  0  0  0  3  0  0  0  0  0  0
  160.7740  203.4850  148.8680 C   0  0  1  0  0  3  0  0  0  0  0  0
  161.6620  203.4020  147.6030 C   0  0  1  0  0  3  0  0  0  0  0  0
  162.3530  204.7460  145.7760 C   0  0  0  0  0  2  0  0  0  0  0  0
  160.9290  202.9920  146.4790 O   0  0  0  0  0  0  0  0  0  0  0  0
  162.4020  204.6830  147.2730 C   0  0  0  0  0  2  0  0  0  0  0  0
  161.6550  203.4670  145.3780 C   0  0  0  0  0  2  0  0  0  0  0  0
  160.5350  202.1640  149.5290 C   0  0  0  0  0  0  0  0  0  0  0  0
  159.2660  201.6030  149.4970 O   0  0  0  0  0  0  0  0  0  0  0  0
  161.4730  201.5540  150.1050 O   0  0  0  0  0  1  0  0  0  0  0  0
  1  3  1  0  0  0  0
  1 12  1  0  0  0  0
  2 19  1  0  0  0  0
  2 12  2  0  0  0  0
  3  9  1  0  0  0  0
  4  9  1  0  0  0  0
  5 11  1  0  0  0  0
  5 13  1  0  0  0  0
  6  1  2  0  0  0  0
  7 16  1  6  0  0  0
  7  6  1  0  0  0  0
  8 15  1  0  0  0  0
  8 11  1  0  0  0  0
 10  4  2  0  0  0  0
 13  4  1  0  0  0  0
 14  6  1  0  0  0  0
 14  2  1  0  0  0  0
 15  7  1  0  0  0  0
 19 18  1  6  0  0  0
 19 20  1  0  0  0  0
 19 17  1  0  0  0  0
 20 28  1  0  0  0  0
 21 20  1  0  0  0  0
 22 26  1  0  0  0  0
 23 22  1  0  0  0  0
 24 26  1  0  0  0  0
 25 24  1  0  0  0  0
 27 28  1  0  0  0  0
 27 23  1  0  0  0  0
 28 25  1  0  0  0  0
 29 35  1  1  0  0  0
 29  5  1  0  0  0  0
 30 29  1  1  0  0  0
 31 33  1  0  0  0  0
 32 30  1  0  0  0  0
 33 30  1  0  0  0  0
 34 31  1  0  0  0  0
 34 32  1  0  0  0  0
 35 37  1  0  0  0  0
 36 35  2  0  0  0  0
M  END
>  <MODEL>
1

>  <REMARK>
 VINA RESULT:      -5.5      0.000      0.000
  Name = 
  6 active torsions:
  status: ('A' for Active; 'I' for Inactive)
    1  A    between atoms: C_2  and  C_37
    2  A    between atoms: C_5  and  C_23
    3  A    between atoms: N_6  and  C_33
    4  A    between atoms: N_6  and  C_37
    5  A    between atoms: C_7  and  C_23
    6  A    between atoms: N_13  and  C_23
                            x       y       z     vdW  Elec       q    Type
                         _______ _______ _______ _____ _____    ______ ____

>  <TORSDO>
F 6

$$$$
=
 OpenBabel11072413043D

 37 40  0  0  1  0  0  0  0  0999 V2000
  161.4490  207.7820  152.4670 C   0  0  0  0  0  0  0  0  0  0  0  0
  161.2900  205.6680  152.3230 C   0  0  0  0  0  0  0  0  0  0  0  0
  161.4340  209.2290  152.0710 C   0  0  0  0  0  2  0  0  0  0  0  0
  162.1180  210.7410  153.9540 C   0  0  0  0  0  0  0  0  0  0  0  0
  159.8860  210.8000  154.9200 N   0  0  0  0  0  0  0  0  0  0  0  0
  161.3570  207.2470  153.7360 C   0  0  0  0  0  0  0  0  0  0  0  0
  161.3560  208.0020  155.0240 C   0  0  1  0  0  3  0  0  0  0  0  0
  158.8360  208.5420  154.9190 C   0  0  0  0  0  2  0  0  0  0  0  0
  162.5610  210.0400  152.7020 C   0  0  0  0  0  2  0  0  0  0  0  0
  162.8620  210.7610  154.9220 O   0  0  0  0  0  0  0  0  0  0  0  0
  159.1380  209.8190  154.1320 C   0  0  0  0  0  2  0  0  0  0  0  0
  161.3900  206.7850  151.5680 N   0  0  0  0  0  0  0  0  0  0  0  0
  160.8110  211.4750  154.0140 C   0  0  0  0  0  2  0  0  0  0  0  0
  161.2630  205.9090  153.6530 N   0  0  0  0  0  2  0  0  0  0  0  0
  160.0070  207.9830  155.7370 C   0  0  0  0  0  2  0  0  0  0  0  0
  162.3330  207.5010  155.8650 F   0  0  0  0  0  0  0  0  0  0  0  0
  162.4030  203.7450  151.4640 O   0  0  0  0  0  1  0  0  0  0  0  0
  160.4680  203.4110  152.7900 C   0  0  0  0  0  1  0  0  0  0  0  0
  161.1420  204.2850  151.7430 C   0  0  1  0  0  0  0  0  0  0  0  0
  160.3100  204.3190  150.5220 N   0  0  0  0  0  0  0  0  0  0  0  0
  159.7280  203.1030  150.3390 O   0  0  0  0  0  1  0  0  0  0  0  0
  161.5130  204.7290  146.1780 C   0  0  0  0  0  2  0  0  0  0  0  0
  162.2090  203.8430  147.2010 C   0  0  0  0  0  2  0  0  0  0  0  0
  161.6020  206.6540  147.9130 C   0  0  0  0  0  2  0  0  0  0  0  0
  160.5060  205.9240  148.6760 C   0  0  0  0  0  2  0  0  0  0  0  0
  161.7040  206.2240  146.4450 C   0  0  0  0  0  2  0  0  0  0  0  0
  161.2410  203.5110  148.3300 C   0  0  0  0  0  2  0  0  0  0  0  0
  161.0910  204.6740  149.3240 C   0  0  0  0  0  3  0  0  0  0  0  0
  159.0210  211.8250  155.5360 C   0  0  1  0  0  3  0  0  0  0  0  0
  157.5300  211.4760  155.7660 C   0  0  1  0  0  3  0  0  0  0  0  0
  155.4300  212.5490  156.0090 C   0  0  0  0  0  2  0  0  0  0  0  0
  157.2050  211.4580  157.1310 O   0  0  0  0  0  0  0  0  0  0  0  0
  156.5570  212.3790  155.0350 C   0  0  0  0  0  2  0  0  0  0  0  0
  155.8210  211.6750  157.1780 C   0  0  0  0  0  2  0  0  0  0  0  0
  159.6760  212.4870  156.7060 C   0  0  0  0  0  0  0  0  0  0  0  0
  159.1550  213.6730  157.2030 O   0  0  0  0  0  0  0  0  0  0  0  0
  160.6900  211.9750  157.2510 O   0  0  0  0  0  1  0  0  0  0  0  0
  1  6  2  0  0  0  0
  2 14  1  0  0  0  0
  3  1  1  0  0  0  0
  3  9  1  0  0  0  0
  4 13  1  0  0  0  0
  4 10  2  0  0  0  0
  5 29  1  0  0  0  0
  6  7  1  0  0  0  0
  7 15  1  0  0  0  0
  7 16  1  1  0  0  0
  8 15  1  0  0  0  0
  9  4  1  0  0  0  0
 11  8  1  0  0  0  0
 11  5  1  0  0  0  0
 12  2  2  0  0  0  0
 12  1  1  0  0  0  0
 13  5  1  0  0  0  0
 14  6  1  0  0  0  0
 17 19  1  0  0  0  0
 19  2  1  0  0  0  0
 19 18  1  1  0  0  0
 20 19  1  0  0  0  0
 21 20  1  0  0  0  0
 22 26  1  0  0  0  0
 22 23  1  0  0  0  0
 23 27  1  0  0  0  0
 24 25  1  0  0  0  0
 25 28  1  0  0  0  0
 26 24  1  0  0  0  0
 27 28  1  0  0  0  0
 28 20  1  0  0  0  0
 29 35  1  1  0  0  0
 30 29  1  1  0  0  0
 30 32  1  0  0  0  0
 31 34  1  0  0  0  0
 32 34  1  0  0  0  0
 33 30  1  0  0  0  0
 33 31  1  0  0  0  0
 35 36  2  0  0  0  0
 35 37  1  0  0  0  0
M  END
>  <MODEL>
2

>  <REMARK>
 VINA RESULT:      -5.4      2.259      9.567
  Name = 
  6 active torsions:
  status: ('A' for Active; 'I' for Inactive)
    1  A    between atoms: C_2  and  C_37
    2  A    between atoms: C_5  and  C_23
    3  A    between atoms: N_6  and  C_33
    4  A    between atoms: N_6  and  C_37
    5  A    between atoms: C_7  and  C_23
    6  A    between atoms: N_13  and  C_23
                            x       y       z     vdW  Elec       q    Type
                         _______ _______ _______ _____ _____    ______ ____

>  <TORSDO>
F 6

$$$$
=
 OpenBabel11072413043D

 37 40  0  0  1  0  0  0  0  0999 V2000
  160.6890  205.9730  153.3260 C   0  0  0  0  0  0  0  0  0  0  0  0
  161.0920  207.7780  154.3730 C   0  0  0  0  0  0  0  0  0  0  0  0
  159.9460  204.7780  152.8080 C   0  0  0  0  0  2  0  0  0  0  0  0
  161.4030  203.2740  151.4230 C   0  0  0  0  0  0  0  0  0  0  0  0
  161.0800  204.5750  149.3930 N   0  0  0  0  0  0  0  0  0  0  0  0
  161.8390  206.5440  152.8190 C   0  0  0  0  0  0  0  0  0  0  0  0
  162.6840  206.0140  151.7090 C   0  0  1  0  0  3  0  0  0  0  0  0
  161.2010  207.0190  149.8530 C   0  0  0  0  0  2  0  0  0  0  0  0
  160.7910  203.5080  152.7750 C   0  0  0  0  0  2  0  0  0  0  0  0
  162.5600  202.8920  151.3510 O   0  0  0  0  0  0  0  0  0  0  0  0
  160.3400  205.7540  149.8480 C   0  0  0  0  0  2  0  0  0  0  0  0
  160.2040  206.7610  154.3000 N   0  0  0  0  0  0  0  0  0  0  0  0
  160.5990  203.4340  150.1670 C   0  0  0  0  0  2  0  0  0  0  0  0
  162.1040  207.6830  153.4820 N   0  0  0  0  0  2  0  0  0  0  0  0
  162.6100  206.8530  150.4360 C   0  0  0  0  0  2  0  0  0  0  0  0
  163.9990  205.9140  152.1230 F   0  0  0  0  0  0  0  0  0  0  0  0
  159.6190  209.0100  155.7830 O   0  0  0  0  0  1  0  0  0  0  0  0
  161.8640  208.7340  156.4880 C   0  0  0  0  0  1  0  0  0  0  0  0
  160.9340  208.9520  155.3050 C   0  0  1  0  0  0  0  0  0  0  0  0
  161.2940  210.2110  154.6210 N   0  0  0  0  0  0  0  0  0  0  0  0
  162.2070  210.8860  155.3710 O   0  0  0  0  0  1  0  0  0  0  0  0
  158.8010  213.9110  153.8570 C   0  0  0  0  0  2  0  0  0  0  0  0
  158.7930  213.0970  155.1430 C   0  0  0  0  0  2  0  0  0  0  0  0
  158.5600  211.6830  152.5510 C   0  0  0  0  0  2  0  0  0  0  0  0
  160.0150  211.4020  152.8990 C   0  0  0  0  0  2  0  0  0  0  0  0
  158.1870  213.1650  152.6690 C   0  0  0  0  0  2  0  0  0  0  0  0
  160.1020  212.3290  155.2680 C   0  0  0  0  0  2  0  0  0  0  0  0
  160.1230  211.0730  154.3830 C   0  0  0  0  0  3  0  0  0  0  0  0
  160.8680  204.2790  147.9630 C   0  0  1  0  0  3  0  0  0  0  0  0
  161.4400  205.2720  146.9220 C   0  0  1  0  0  3  0  0  0  0  0  0
  161.2510  205.7980  144.6180 C   0  0  0  0  0  2  0  0  0  0  0  0
  162.5750  204.7560  146.2790 O   0  0  0  0  0  0  0  0  0  0  0  0
  160.4410  205.7260  145.8770 C   0  0  0  0  0  2  0  0  0  0  0  0
  162.6520  205.4490  145.0640 C   0  0  0  0  0  2  0  0  0  0  0  0
  161.1330  202.8430  147.6400 C   0  0  0  0  0  0  0  0  0  0  0  0
  160.4720  202.2470  146.5750 O   0  0  0  0  0  0  0  0  0  0  0  0
  161.9550  202.1710  148.3180 O   0  0  0  0  0  1  0  0  0  0  0  0
  1 12  1  0  0  0  0
  2 19  1  0  0  0  0
  3  1  1  0  0  0  0
  4  9  1  0  0  0  0
  5 11  1  0  0  0  0
  5 13  1  0  0  0  0
  6  1  2  0  0  0  0
  6 14  1  0  0  0  0
  7 16  1  1  0  0  0
  7  6  1  0  0  0  0
  8 15  1  0  0  0  0
  9  3  1  0  0  0  0
 10  4  2  0  0  0  0
 11  8  1  0  0  0  0
 12  2  2  0  0  0  0
 13  4  1  0  0  0  0
 14  2  1  0  0  0  0
 15  7  1  0  0  0  0
 19 17  1  0  0  0  0
 19 18  1  1  0  0  0
 20 19  1  0  0  0  0
 20 21  1  0  0  0  0
 22 23  1  0  0  0  0
 23 27  1  0  0  0  0
 24 26  1  0  0  0  0
 24 25  1  0  0  0  0
 25 28  1  0  0  0  0
 26 22  1  0  0  0  0
 28 20  1  0  0  0  0
 28 27  1  0  0  0  0
 29 35  1  6  0  0  0
 29  5  1  0  0  0  0
 30 29  1  1  0  0  0
 31 34  1  0  0  0  0
 31 33  1  0  0  0  0
 32 30  1  0  0  0  0
 33 30  1  0  0  0  0
 34 32  1  0  0  0  0
 35 37  1  0  0  0  0
 36 35  2  0  0  0  0
M  END
>  <MODEL>
3

>  <REMARK>
 VINA RESULT:      -5.1      1.992      2.779
  Name = 
  6 active torsions:
  status: ('A' for Active; 'I' for Inactive)
    1  A    between atoms: C_2  and  C_37
    2  A    between atoms: C_5  and  C_23
    3  A    between atoms: N_6  and  C_33
    4  A    between atoms: N_6  and  C_37
    5  A    between atoms: C_7  and  C_23
    6  A    between atoms: N_13  and  C_23
                            x       y       z     vdW  Elec       q    Type
                         _______ _______ _______ _____ _____    ______ ____

>  <TORSDO>
F 6

$$$$
=
 OpenBabel11072413043D

 37 40  0  0  1  0  0  0  0  0999 V2000
  161.6660  209.3430  150.4480 C   0  0  0  0  0  0  0  0  0  0  0  0
  161.7510  210.8930  148.9960 C   0  0  0  0  0  0  0  0  0  0  0  0
  161.2680  208.5810  151.6770 C   0  0  0  0  0  2  0  0  0  0  0  0
  162.5380  206.4290  151.9180 C   0  0  0  0  0  0  0  0  0  0  0  0
  161.0320  205.1990  150.4550 N   0  0  0  0  0  0  0  0  0  0  0  0
  162.2530  208.8550  149.2980 C   0  0  0  0  0  0  0  0  0  0  0  0
  162.7500  207.4660  149.0710 C   0  0  1  0  0  3  0  0  0  0  0  0
  160.4260  206.5380  148.4450 C   0  0  0  0  0  2  0  0  0  0  0  0
  162.4360  207.8640  152.3470 C   0  0  0  0  0  2  0  0  0  0  0  0
  163.6370  205.9530  151.6810 O   0  0  0  0  0  0  0  0  0  0  0  0
  160.1460  206.2330  149.9180 C   0  0  0  0  0  2  0  0  0  0  0  0
  161.3320  210.6300  150.2550 N   0  0  0  0  0  0  0  0  0  0  0  0
  161.3230  205.5510  151.8420 C   0  0  0  0  0  2  0  0  0  0  0  0
  162.3160  209.8320  148.3770 N   0  0  0  0  0  2  0  0  0  0  0  0
  161.9080  206.6760  148.0730 C   0  0  0  0  0  2  0  0  0  0  0  0
  164.0650  207.5000  148.6440 F   0  0  0  0  0  0  0  0  0  0  0  0
  161.0570  213.1600  149.2290 O   0  0  0  0  0  1  0  0  0  0  0  0
  162.8920  212.6980  147.8020 C   0  0  0  0  0  1  0  0  0  0  0  0
  161.5410  212.2190  148.3120 C   0  0  1  0  0  0  0  0  0  0  0  0
  160.6090  212.0760  147.1740 N   0  0  0  0  0  0  0  0  0  0  0  0
  161.3050  212.1560  146.0090 O   0  0  0  0  0  1  0  0  0  0  0  0
  156.6050  214.0870  146.5340 C   0  0  0  0  0  2  0  0  0  0  0  0
  157.8950  214.4530  145.8150 C   0  0  0  0  0  2  0  0  0  0  0  0
  157.9330  214.1390  148.7600 C   0  0  0  0  0  2  0  0  0  0  0  0
  158.5780  212.8300  148.3260 C   0  0  0  0  0  2  0  0  0  0  0  0
  156.6240  214.4400  148.0240 C   0  0  0  0  0  2  0  0  0  0  0  0
  158.8430  213.2600  145.8310 C   0  0  0  0  0  2  0  0  0  0  0  0
  159.5520  213.1020  147.1860 C   0  0  0  0  0  3  0  0  0  0  0  0
  160.4230  203.8550  150.4430 C   0  0  1  0  0  3  0  0  0  0  0  0
  160.3760  203.0890  149.0990 C   0  0  1  0  0  3  0  0  0  0  0  0
  161.1520  201.0700  148.1300 C   0  0  0  0  0  2  0  0  0  0  0  0
  161.4680  203.4100  148.2780 O   0  0  0  0  0  0  0  0  0  0  0  0
  160.2860  201.5830  149.2400 C   0  0  0  0  0  2  0  0  0  0  0  0
  161.6030  202.3190  147.4090 C   0  0  0  0  0  2  0  0  0  0  0  0
  160.8760  203.0220  151.6000 C   0  0  0  0  0  0  0  0  0  0  0  0
  162.2060  202.6350  151.6860 O   0  0  0  0  0  0  0  0  0  0  0  0
  160.0660  202.6750  152.4990 O   0  0  0  0  0  1  0  0  0  0  0  0
  1  3  1  0  0  0  0
  2 12  2  0  0  0  0
  3  9  1  0  0  0  0
  4  9  1  0  0  0  0
  5 13  1  0  0  0  0
  6  1  2  0  0  0  0
  7 16  1  6  0  0  0
  7  6  1  0  0  0  0
  8 11  1  0  0  0  0
 10  4  2  0  0  0  0
 11  5  1  0  0  0  0
 12  1  1  0  0  0  0
 13  4  1  0  0  0  0
 14  2  1  0  0  0  0
 14  6  1  0  0  0  0
 15  8  1  0  0  0  0
 15  7  1  0  0  0  0
 19 18  1  6  0  0  0
 19  2  1  0  0  0  0
 19 17  1  0  0  0  0
 20 28  1  0  0  0  0
 20 19  1  0  0  0  0
 21 20  1  0  0  0  0
 22 26  1  0  0  0  0
 23 27  1  0  0  0  0
 23 22  1  0  0  0  0
 25 24  1  0  0  0  0
 26 24  1  0  0  0  0
 27 28  1  0  0  0  0
 28 25  1  0  0  0  0
 29  5  1  0  0  0  0
 29 35  1  1  0  0  0
 30 33  1  0  0  0  0
 30 29  1  1  0  0  0
 31 33  1  0  0  0  0
 32 30  1  0  0  0  0
 34 31  1  0  0  0  0
 34 32  1  0  0  0  0
 35 36  2  0  0  0  0
 35 37  1  0  0  0  0
M  END
>  <MODEL>
4

>  <REMARK>
 VINA RESULT:      -4.7      3.422      4.649
  Name = 
  6 active torsions:
  status: ('A' for Active; 'I' for Inactive)
    1  A    between atoms: C_2  and  C_37
    2  A    between atoms: C_5  and  C_23
    3  A    between atoms: N_6  and  C_33
    4  A    between atoms: N_6  and  C_37
    5  A    between atoms: C_7  and  C_23
    6  A    between atoms: N_13  and  C_23
                            x       y       z     vdW  Elec       q    Type
                         _______ _______ _______ _____ _____    ______ ____

>  <TORSDO>
F 6

$$$$
=
 OpenBabel11072413043D

 37 40  0  0  1  0  0  0  0  0999 V2000
  161.5090  209.4860  150.3400 C   0  0  0  0  0  0  0  0  0  0  0  0
  161.5480  210.9960  148.8460 C   0  0  0  0  0  0  0  0  0  0  0  0
  161.1320  208.7460  151.5890 C   0  0  0  0  0  2  0  0  0  0  0  0
  162.4730  206.6450  151.8950 C   0  0  0  0  0  0  0  0  0  0  0  0
  161.0150  205.3250  150.4620 N   0  0  0  0  0  0  0  0  0  0  0  0
  162.1170  208.9860  149.2060 C   0  0  0  0  0  0  0  0  0  0  0  0
  162.6610  207.6090  149.0200 C   0  0  1  0  0  3  0  0  0  0  0  0
  160.3720  206.5860  148.4130 C   0  0  0  0  0  2  0  0  0  0  0  0
  162.3210  208.0880  152.2830 C   0  0  0  0  0  2  0  0  0  0  0  0
  163.5880  206.2010  151.6750 O   0  0  0  0  0  0  0  0  0  0  0  0
  160.0960  206.3130  149.8940 C   0  0  0  0  0  2  0  0  0  0  0  0
  161.1320  210.7550  150.1100 N   0  0  0  0  0  0  0  0  0  0  0  0
  161.2880  205.7260  151.8400 C   0  0  0  0  0  2  0  0  0  0  0  0
  162.1510  209.9390  148.2580 N   0  0  0  0  0  2  0  0  0  0  0  0
  161.8500  206.7630  148.0430 C   0  0  0  0  0  2  0  0  0  0  0  0
  163.9760  207.6750  148.5970 F   0  0  0  0  0  0  0  0  0  0  0  0
  159.9250  212.4540  147.8870 O   0  0  0  0  0  1  0  0  0  0  0  0
  161.7600  213.4270  149.0270 C   0  0  0  0  0  1  0  0  0  0  0  0
  161.2960  212.2950  148.1230 C   0  0  1  0  0  0  0  0  0  0  0  0
  162.0500  212.3390  146.8530 N   0  0  0  0  0  0  0  0  0  0  0  0
  163.2040  213.0330  147.0380 O   0  0  0  0  0  1  0  0  0  0  0  0
  160.7220  213.5050  142.6860 C   0  0  0  0  0  2  0  0  0  0  0  0
  161.3250  214.4530  143.7120 C   0  0  0  0  0  2  0  0  0  0  0  0
  159.1330  212.6440  144.5450 C   0  0  0  0  0  2  0  0  0  0  0  0
  160.3350  211.9300  145.1470 C   0  0  0  0  0  2  0  0  0  0  0  0
  159.3240  213.0110  143.0700 C   0  0  0  0  0  2  0  0  0  0  0  0
  162.1530  213.6590  144.7150 C   0  0  0  0  0  2  0  0  0  0  0  0
  161.2740  212.9590  145.7640 C   0  0  0  0  0  3  0  0  0  0  0  0
  160.4520  203.9620  150.4870 C   0  0  1  0  0  3  0  0  0  0  0  0
  160.3790  203.1800  149.1520 C   0  0  1  0  0  3  0  0  0  0  0  0
  160.9330  201.0560  148.2580 C   0  0  0  0  0  2  0  0  0  0  0  0
  161.5480  203.3360  148.3930 O   0  0  0  0  0  0  0  0  0  0  0  0
  160.0810  201.7020  149.3090 C   0  0  0  0  0  2  0  0  0  0  0  0
  161.5860  202.2190  147.5480 C   0  0  0  0  0  2  0  0  0  0  0  0
  160.9760  203.1560  151.6330 C   0  0  0  0  0  0  0  0  0  0  0  0
  160.1350  202.8460  152.6930 O   0  0  0  0  0  1  0  0  0  0  0  0
  162.1670  202.7500  151.6430 O   0  0  0  0  0  0  0  0  0  0  0  0
  1  3  1  0  0  0  0
  2 12  2  0  0  0  0
  3  9  1  0  0  0  0
  4  9  1  0  0  0  0
  5 29  1  0  0  0  0
  5 13  1  0  0  0  0
  6  1  2  0  0  0  0
  7 16  1  6  0  0  0
  7  6  1  0  0  0  0
  8 11  1  0  0  0  0
 10  4  2  0  0  0  0
 11  5  1  0  0  0  0
 12  1  1  0  0  0  0
 13  4  1  0  0  0  0
 14  2  1  0  0  0  0
 14  6  1  0  0  0  0
 15  8  1  0  0  0  0
 15  7  1  0  0  0  0
 17 19  1  0  0  0  0
 19  2  1  0  0  0  0
 19 18  1  1  0  0  0
 20 21  1  0  0  0  0
 20 19  1  0  0  0  0
 22 26  1  0  0  0  0
 22 23  1  0  0  0  0
 23 27  1  0  0  0  0
 24 25  1  0  0  0  0
 25 28  1  0  0  0  0
 26 24  1  0  0  0  0
 27 28  1  0  0  0  0
 28 20  1  0  0  0  0
 29 35  1  1  0  0  0
 30 33  1  0  0  0  0
 30 29  1  1  0  0  0
 31 33  1  0  0  0  0
 32 30  1  0  0  0  0
 34 31  1  0  0  0  0
 34 32  1  0  0  0  0
 35 37  2  0  0  0  0
 35 36  1  0  0  0  0
M  END
>  <MODEL>
5

>  <REMARK>
 VINA RESULT:      -4.6      3.971      5.957
  Name = 
  6 active torsions:
  status: ('A' for Active; 'I' for Inactive)
    1  A    between atoms: C_2  and  C_37
    2  A    between atoms: C_5  and  C_23
    3  A    between atoms: N_6  and  C_33
    4  A    between atoms: N_6  and  C_37
    5  A    between atoms: C_7  and  C_23
    6  A    between atoms: N_13  and  C_23
                            x       y       z     vdW  Elec       q    Type
                         _______ _______ _______ _____ _____    ______ ____

>  <TORSDO>
F 6

$$$$
=
 OpenBabel11072413043D

 37 40  0  0  1  0  0  0  0  0999 V2000
  160.8190  208.3310  152.3530 C   0  0  0  0  0  0  0  0  0  0  0  0
  160.4400  210.3980  152.0360 C   0  0  0  0  0  0  0  0  0  0  0  0
  160.6920  206.9410  152.9010 C   0  0  0  0  0  2  0  0  0  0  0  0
  162.4540  205.3950  152.0010 C   0  0  0  0  0  0  0  0  0  0  0  0
  161.2000  204.9000  149.9750 N   0  0  0  0  0  0  0  0  0  0  0  0
  161.4340  208.7310  151.1830 C   0  0  0  0  0  0  0  0  0  0  0  0
  162.2360  207.8750  150.2600 C   0  0  1  0  0  3  0  0  0  0  0  0
  160.1690  206.9550  149.0210 C   0  0  0  0  0  2  0  0  0  0  0  0
  162.0370  206.2650  153.1510 C   0  0  0  0  0  2  0  0  0  0  0  0
  163.6180  205.4080  151.6350 O   0  0  0  0  0  0  0  0  0  0  0  0
  160.0600  205.8160  150.0370 C   0  0  0  0  0  2  0  0  0  0  0  0
  160.1740  209.3820  152.8870 N   0  0  0  0  0  0  0  0  0  0  0  0
  161.4830  204.4620  151.3390 C   0  0  0  0  0  2  0  0  0  0  0  0
  161.2050  210.0400  150.9800 N   0  0  0  0  0  2  0  0  0  0  0  0
  161.5480  207.6180  148.9210 C   0  0  0  0  0  2  0  0  0  0  0  0
  163.4750  208.4480  150.0420 F   0  0  0  0  0  0  0  0  0  0  0  0
  158.5040  211.7810  151.9250 O   0  0  0  0  0  1  0  0  0  0  0  0
  160.0720  212.1990  153.6510 C   0  0  0  0  0  1  0  0  0  0  0  0
  159.8760  211.7860  152.2000 C   0  0  1  0  0  0  0  0  0  0  0  0
  160.5790  212.7410  151.3180 N   0  0  0  0  0  0  0  0  0  0  0  0
  160.3600  214.0080  151.7600 O   0  0  0  0  0  1  0  0  0  0  0  0
  159.4780  213.9060  147.0850 C   0  0  0  0  0  2  0  0  0  0  0  0
  158.5020  213.4010  148.1380 C   0  0  0  0  0  2  0  0  0  0  0  0
  161.0330  211.9260  147.7040 C   0  0  0  0  0  2  0  0  0  0  0  0
  161.3560  212.6720  148.9910 C   0  0  0  0  0  2  0  0  0  0  0  0
  160.4600  212.8310  146.6090 C   0  0  0  0  0  2  0  0  0  0  0  0
  159.0720  213.6610  149.5270 C   0  0  0  0  0  2  0  0  0  0  0  0
  160.1440  212.6300  149.9140 C   0  0  0  0  0  3  0  0  0  0  0  0
  160.9330  203.7010  149.1570 C   0  0  1  0  0  3  0  0  0  0  0  0
  161.7300  203.5240  147.8420 C   0  0  1  0  0  3  0  0  0  0  0  0
  162.3260  204.7460  145.9000 C   0  0  0  0  0  2  0  0  0  0  0  0
  160.9140  203.0720  146.7950 O   0  0  0  0  0  0  0  0  0  0  0  0
  162.4750  204.7640  147.3910 C   0  0  0  0  0  2  0  0  0  0  0  0
  161.5740  203.4650  145.6230 C   0  0  0  0  0  2  0  0  0  0  0  0
  160.8500  202.4600  149.9870 C   0  0  0  0  0  0  0  0  0  0  0  0
  161.5780  201.3380  149.6170 O   0  0  0  0  0  0  0  0  0  0  0  0
  160.1330  202.4240  151.0220 O   0  0  0  0  0  1  0  0  0  0  0  0
  1 12  1  0  0  0  0
  1  3  1  0  0  0  0
  2 19  1  0  0  0  0
  2 12  2  0  0  0  0
  3  9  1  0  0  0  0
  4  9  1  0  0  0  0
  5 11  1  0  0  0  0
  5 13  1  0  0  0  0
  6  1  2  0  0  0  0
  7 16  1  6  0  0  0
  7  6  1  0  0  0  0
  8 11  1  0  0  0  0
 10  4  2  0  0  0  0
 13  4  1  0  0  0  0
 14  6  1  0  0  0  0
 14  2  1  0  0  0  0
 15  8  1  0  0  0  0
 15  7  1  0  0  0  0
 17 19  1  0  0  0  0
 19 18  1  1  0  0  0
 20 21  1  0  0  0  0
 20 19  1  0  0  0  0
 22 23  1  0  0  0  0
 23 27  1  0  0  0  0
 24 25  1  0  0  0  0
 25 28  1  0  0  0  0
 26 22  1  0  0  0  0
 26 24  1  0  0  0  0
 27 28  1  0  0  0  0
 28 20  1  0  0  0  0
 29  5  1  0  0  0  0
 29 35  1  1  0  0  0
 30 29  1  1  0  0  0
 31 33  1  0  0  0  0
 32 30  1  0  0  0  0
 33 30  1  0  0  0  0
 34 31  1  0  0  0  0
 34 32  1  0  0  0  0
 35 37  1  0  0  0  0
 36 35  2  0  0  0  0
M  END
>  <MODEL>
6

>  <REMARK>
 VINA RESULT:      -4.0      1.875      3.642
  Name = 
  6 active torsions:
  status: ('A' for Active; 'I' for Inactive)
    1  A    between atoms: C_2  and  C_37
    2  A    between atoms: C_5  and  C_23
    3  A    between atoms: N_6  and  C_33
    4  A    between atoms: N_6  and  C_37
    5  A    between atoms: C_7  and  C_23
    6  A    between atoms: N_13  and  C_23
                            x       y       z     vdW  Elec       q    Type
                         _______ _______ _______ _____ _____    ______ ____

>  <TORSDO>
F 6

$$$$
=
 OpenBabel11072413043D

 37 40  0  0  1  0  0  0  0  0999 V2000
  160.6530  208.6000  152.5780 C   0  0  1  0  0  3  0  0  0  0  0  0
  160.2830  210.6920  152.5210 C   0  0  0  0  0  0  0  0  0  0  0  0
  160.4560  207.1390  152.8530 C   0  0  0  0  0  2  0  0  0  0  0  0
  162.4270  205.7580  152.1360 C   0  0  0  0  0  0  0  0  0  0  0  0
  161.6740  205.6060  149.8270 N   0  0  0  0  0  0  0  0  0  0  0  0
  161.4990  209.1860  151.6580 C   0  0  0  0  0  0  0  0  0  0  0  0
  162.5150  208.4920  150.8130 C   0  0  1  0  0  3  0  0  0  0  0  0
  160.8100  207.7930  149.0090 C   0  0  0  0  0  2  0  0  0  0  0  0
  161.7340  206.4280  153.2880 C   0  0  0  0  0  2  0  0  0  0  0  0
  163.6420  205.8280  152.0490 O   0  0  0  0  0  0  0  0  0  0  0  0
  160.5180  206.5020  149.7770 C   0  0  0  0  0  2  0  0  0  0  0  0
  159.8690  209.5500  153.1160 N   0  0  0  0  0  0  0  0  0  0  0  0
  161.6610  204.9490  151.1320 C   0  0  0  0  0  2  0  0  0  0  0  0
  161.2750  210.5100  151.6220 N   0  0  0  0  0  0  0  0  0  0  0  0
  162.1530  208.4590  149.3310 C   0  0  0  0  0  2  0  0  0  0  0  0
  163.7520  209.0890  150.9760 F   0  0  0  0  0  0  0  0  0  0  0  0
  160.1340  212.5760  153.9710 O   0  0  0  0  0  1  0  0  0  0  0  0
  160.0480  212.9600  151.6350 C   0  0  0  0  0  1  0  0  0  0  0  0
  159.6480  212.0350  152.7750 C   0  0  1  0  0  0  0  0  0  0  0  0
  158.1760  211.9160  152.8190 N   0  0  0  0  0  0  0  0  0  0  0  0
  157.6410  212.5480  151.7400 O   0  0  0  0  0  1  0  0  0  0  0  0
  155.2010  213.7390  155.7020 C   0  0  0  0  0  2  0  0  0  0  0  0
  156.4150  214.4530  155.1250 C   0  0  0  0  0  2  0  0  0  0  0  0
  156.7530  211.7400  156.2640 C   0  0  0  0  0  2  0  0  0  0  0  0
  156.7770  211.4280  154.7750 C   0  0  0  0  0  2  0  0  0  0  0  0
  155.5680  212.6180  156.6780 C   0  0  0  0  0  2  0  0  0  0  0  0
  156.8250  213.7870  153.8180 C   0  0  0  0  0  2  0  0  0  0  0  0
  157.6060  212.4840  154.0530 C   0  0  0  0  0  3  0  0  0  0  0  0
  161.6370  204.5590  148.7880 C   0  0  1  0  0  3  0  0  0  0  0  0
  160.6890  203.3540  149.0020 C   0  0  1  0  0  3  0  0  0  0  0  0
  160.6650  201.2220  150.0390 C   0  0  0  0  0  2  0  0  0  0  0  0
  160.8300  202.3940  147.9900 O   0  0  0  0  0  0  0  0  0  0  0  0
  160.8310  202.6790  150.3510 C   0  0  0  0  0  2  0  0  0  0  0  0
  160.3720  201.1970  148.5560 C   0  0  0  0  0  2  0  0  0  0  0  0
  161.5830  205.1360  147.4090 C   0  0  0  0  0  0  0  0  0  0  0  0
  162.7510  205.5810  146.8070 O   0  0  0  0  0  1  0  0  0  0  0  0
  160.4920  205.2140  146.7870 O   0  0  0  0  0  0  0  0  0  0  0  0
  1  3  1  6  0  0  0
  1 12  1  0  0  0  0
  2 19  1  0  0  0  0
  2 12  2  0  0  0  0
  3  9  1  0  0  0  0
  4  9  1  0  0  0  0
  5 13  1  0  0  0  0
  6  1  1  0  0  0  0
  7 16  1  6  0  0  0
  7  6  1  0  0  0  0
  8 15  1  0  0  0  0
  8 11  1  0  0  0  0
 10  4  2  0  0  0  0
 11  5  1  0  0  0  0
 13  4  1  0  0  0  0
 14  6  2  0  0  0  0
 14  2  1  0  0  0  0
 15  7  1  0  0  0  0
 19 18  1  6  0  0  0
 19 20  1  0  0  0  0
 19 17  1  0  0  0  0
 20 28  1  0  0  0  0
 21 20  1  0  0  0  0
 22 26  1  0  0  0  0
 23 22  1  0  0  0  0
 24 26  1  0  0  0  0
 25 24  1  0  0  0  0
 27 28  1  0  0  0  0
 27 23  1  0  0  0  0
 28 25  1  0  0  0  0
 29 35  1  6  0  0  0
 29  5  1  0  0  0  0
 30 29  1  6  0  0  0
 30 33  1  0  0  0  0
 31 33  1  0  0  0  0
 32 34  1  0  0  0  0
 32 30  1  0  0  0  0
 34 31  1  0  0  0  0
 36 35  1  0  0  0  0
 37 35  2  0  0  0  0
M  END
>  <MODEL>
7

>  <REMARK>
 VINA RESULT:      -3.8      1.233      2.196
  Name = 
  6 active torsions:
  status: ('A' for Active; 'I' for Inactive)
    1  A    between atoms: C_2  and  C_37
    2  A    between atoms: C_5  and  C_23
    3  A    between atoms: N_6  and  C_33
    4  A    between atoms: N_6  and  C_37
    5  A    between atoms: C_7  and  C_23
    6  A    between atoms: N_13  and  C_23
                            x       y       z     vdW  Elec       q    Type
                         _______ _______ _______ _____ _____    ______ ____

>  <TORSDO>
F 6

$$$$
=
 OpenBabel11072413043D

 37 40  0  0  1  0  0  0  0  0999 V2000
  160.9270  205.7760  150.0070 C   0  0  0  0  0  0  0  0  0  0  0  0
  160.9780  203.6520  149.9610 C   0  0  0  0  0  0  0  0  0  0  0  0
  160.4550  207.1810  149.7810 C   0  0  0  0  0  2  0  0  0  0  0  0
  162.0780  208.8860  150.6550 C   0  0  0  0  0  0  0  0  0  0  0  0
  161.2100  208.7720  152.9250 N   0  0  0  0  0  0  0  0  0  0  0  0
  161.8310  205.3230  150.9470 C   0  0  0  0  0  0  0  0  0  0  0  0
  162.6510  206.1610  151.8710 C   0  0  1  0  0  3  0  0  0  0  0  0
  160.7630  206.4210  153.6100 C   0  0  0  0  0  2  0  0  0  0  0  0
  161.5840  208.1500  149.4430 C   0  0  0  0  0  2  0  0  0  0  0  0
  163.2780  209.0520  150.8040 O   0  0  0  0  0  0  0  0  0  0  0  0
  160.2540  207.6650  152.8790 C   0  0  0  0  0  2  0  0  0  0  0  0
  160.3720  204.7180  149.3920 N   0  0  0  0  0  0  0  0  0  0  0  0
  161.1230  209.4780  151.6490 C   0  0  0  0  0  2  0  0  0  0  0  0
  161.8740  203.9800  150.9190 N   0  0  0  0  0  2  0  0  0  0  0  0
  162.2250  206.0480  153.3320 C   0  0  0  0  0  2  0  0  0  0  0  0
  163.9870  205.8280  151.7500 F   0  0  0  0  0  0  0  0  0  0  0  0
  161.2090  201.3580  150.5600 O   0  0  0  0  0  1  0  0  0  0  0  0
  159.1230  202.0780  149.6970 C   0  0  0  0  0  1  0  0  0  0  0  0
  160.6360  202.2240  149.6220 C   0  0  1  0  0  0  0  0  0  0  0  0
  161.0950  201.8890  148.2570 N   0  0  0  0  0  0  0  0  0  0  0  0
  162.2920  201.2490  148.3290 O   0  0  0  0  0  1  0  0  0  0  0  0
  162.7890  204.8250  145.2590 C   0  0  0  0  0  2  0  0  0  0  0  0
  162.6630  205.0740  146.7550 C   0  0  0  0  0  2  0  0  0  0  0  0
  160.3310  204.0010  145.2760 C   0  0  0  0  0  2  0  0  0  0  0  0
  160.8300  202.7420  145.9720 C   0  0  0  0  0  2  0  0  0  0  0  0
  161.4380  204.7640  144.5410 C   0  0  0  0  0  2  0  0  0  0  0  0
  162.6140  203.7400  147.4900 C   0  0  0  0  0  2  0  0  0  0  0  0
  161.2270  203.0830  147.4040 C   0  0  0  0  0  3  0  0  0  0  0  0
  160.9200  209.7390  154.0020 C   0  0  1  0  0  3  0  0  0  0  0  0
  159.4370  210.0130  154.3530 C   0  0  1  0  0  3  0  0  0  0  0  0
  157.8990  211.8140  154.4630 C   0  0  0  0  0  2  0  0  0  0  0  0
  159.2760  210.3460  155.7070 O   0  0  0  0  0  0  0  0  0  0  0  0
  158.7780  211.0770  153.4980 C   0  0  0  0  0  2  0  0  0  0  0  0
  158.0760  211.0670  155.7640 C   0  0  0  0  0  2  0  0  0  0  0  0
  161.7980  209.5330  155.1950 C   0  0  0  0  0  0  0  0  0  0  0  0
  161.6410  208.3950  155.9730 O   0  0  0  0  0  1  0  0  0  0  0  0
  162.6820  210.3770  155.4960 O   0  0  0  0  0  0  0  0  0  0  0  0
  1  6  2  0  0  0  0
  2 14  1  0  0  0  0
  3  1  1  0  0  0  0
  4 10  2  0  0  0  0
  4 13  1  0  0  0  0
  5 29  1  0  0  0  0
  6  7  1  0  0  0  0
  7 16  1  1  0  0  0
  7 15  1  0  0  0  0
  9  3  1  0  0  0  0
  9  4  1  0  0  0  0
 11  5  1  0  0  0  0
 11  8  1  0  0  0  0
 12  2  2  0  0  0  0
 12  1  1  0  0  0  0
 13  5  1  0  0  0  0
 14  6  1  0  0  0  0
 15  8  1  0  0  0  0
 19 18  1  1  0  0  0
 19  2  1  0  0  0  0
 19 17  1  0  0  0  0
 20 21  1  0  0  0  0
 20 19  1  0  0  0  0
 22 23  1  0  0  0  0
 23 27  1  0  0  0  0
 24 25  1  0  0  0  0
 25 28  1  0  0  0  0
 26 22  1  0  0  0  0
 26 24  1  0  0  0  0
 28 27  1  0  0  0  0
 28 20  1  0  0  0  0
 29 35  1  1  0  0  0
 30 29  1  6  0  0  0
 30 32  1  0  0  0  0
 31 34  1  0  0  0  0
 32 34  1  0  0  0  0
 33 30  1  0  0  0  0
 33 31  1  0  0  0  0
 35 37  2  0  0  0  0
 35 36  1  0  0  0  0
M  END
>  <MODEL>
8

>  <REMARK>
 VINA RESULT:      -3.6      1.874      9.280
  Name = 
  6 active torsions:
  status: ('A' for Active; 'I' for Inactive)
    1  A    between atoms: C_2  and  C_37
    2  A    between atoms: C_5  and  C_23
    3  A    between atoms: N_6  and  C_33
    4  A    between atoms: N_6  and  C_37
    5  A    between atoms: C_7  and  C_23
    6  A    between atoms: N_13  and  C_23
                            x       y       z     vdW  Elec       q    Type
                         _______ _______ _______ _____ _____    ______ ____

>  <TORSDO>
F 6

$$$$
=
 OpenBabel11072413043D

 37 40  0  0  1  0  0  0  0  0999 V2000
  161.4930  209.5450  150.0380 C   0  0  0  0  0  0  0  0  0  0  0  0
  161.5750  210.9760  148.4690 C   0  0  0  0  0  0  0  0  0  0  0  0
  161.0820  208.8690  151.3120 C   0  0  0  0  0  2  0  0  0  0  0  0
  162.4100  206.7870  151.7610 C   0  0  0  0  0  0  0  0  0  0  0  0
  160.9910  205.3950  150.3580 N   0  0  0  0  0  0  0  0  0  0  0  0
  162.1320  208.9870  148.9480 C   0  0  0  0  0  0  0  0  0  0  0  0
  162.6790  207.6020  148.8470 C   0  0  1  0  0  3  0  0  0  0  0  0
  160.4070  206.5490  148.2310 C   0  0  0  0  0  2  0  0  0  0  0  0
  162.2500  208.2470  152.0710 C   0  0  0  0  0  2  0  0  0  0  0  0
  163.5300  206.3320  151.5950 O   0  0  0  0  0  0  0  0  0  0  0  0
  160.0890  206.3520  149.7150 C   0  0  0  0  0  2  0  0  0  0  0  0
  161.1250  210.8000  149.7320 N   0  0  0  0  0  0  0  0  0  0  0  0
  161.2270  205.8660  151.7200 C   0  0  0  0  0  2  0  0  0  0  0  0
  162.1930  209.8900  147.9540 N   0  0  0  0  0  2  0  0  0  0  0  0
  161.8940  206.7070  147.8920 C   0  0  0  0  0  2  0  0  0  0  0  0
  164.0050  207.6460  148.4570 F   0  0  0  0  0  0  0  0  0  0  0  0
  162.5320  212.6260  147.0420 O   0  0  0  0  0  1  0  0  0  0  0  0
  160.3100  211.9280  146.6040 C   0  0  0  0  0  1  0  0  0  0  0  0
  161.3460  212.2360  147.6750 C   0  0  1  0  0  0  0  0  0  0  0  0
  160.8430  213.3180  148.5470 N   0  0  0  0  0  0  0  0  0  0  0  0
  161.4540  213.2400  149.7600 O   0  0  0  0  0  1  0  0  0  0  0  0
  156.6450  214.4520  149.8020 C   0  0  0  0  0  2  0  0  0  0  0  0
  157.4490  213.2950  150.3750 C   0  0  0  0  0  2  0  0  0  0  0  0
  157.2930  213.6160  147.4350 C   0  0  0  0  0  2  0  0  0  0  0  0
  158.6930  214.1490  147.7050 C   0  0  0  0  0  2  0  0  0  0  0  0
  156.2260  214.2330  148.3460 C   0  0  0  0  0  2  0  0  0  0  0  0
  158.9360  213.5560  150.1690 C   0  0  0  0  0  2  0  0  0  0  0  0
  159.3820  213.2540  148.7300 C   0  0  0  0  0  3  0  0  0  0  0  0
  160.4250  204.0350  150.4360 C   0  0  1  0  0  3  0  0  0  0  0  0
  160.3250  203.2110  149.1290 C   0  0  1  0  0  3  0  0  0  0  0  0
  160.6720  201.0020  148.3420 C   0  0  0  0  0  2  0  0  0  0  0  0
  161.5390  203.2020  148.4250 O   0  0  0  0  0  0  0  0  0  0  0  0
  159.8530  201.7850  149.3230 C   0  0  0  0  0  2  0  0  0  0  0  0
  161.4870  202.0530  147.6250 C   0  0  0  0  0  2  0  0  0  0  0  0
  160.9690  203.2640  151.5980 C   0  0  0  0  0  0  0  0  0  0  0  0
  160.4270  203.4560  152.8610 O   0  0  0  0  0  1  0  0  0  0  0  0
  161.9070  202.4400  151.4400 O   0  0  0  0  0  0  0  0  0  0  0  0
  1  3  1  0  0  0  0
  2 12  2  0  0  0  0
  3  9  1  0  0  0  0
  4  9  1  0  0  0  0
  5 29  1  0  0  0  0
  5 13  1  0  0  0  0
  6  1  2  0  0  0  0
  7 16  1  6  0  0  0
  7  6  1  0  0  0  0
  8 11  1  0  0  0  0
 10  4  2  0  0  0  0
 11  5  1  0  0  0  0
 12  1  1  0  0  0  0
 13  4  1  0  0  0  0
 14  2  1  0  0  0  0
 14  6  1  0  0  0  0
 15  8  1  0  0  0  0
 15  7  1  0  0  0  0
 17 19  1  0  0  0  0
 19 18  1  6  0  0  0
 19  2  1  0  0  0  0
 19 20  1  0  0  0  0
 20 28  1  0  0  0  0
 20 21  1  0  0  0  0
 22 23  1  0  0  0  0
 24 25  1  0  0  0  0
 24 26  1  0  0  0  0
 25 28  1  0  0  0  0
 26 22  1  0  0  0  0
 27 23  1  0  0  0  0
 28 27  1  0  0  0  0
 29 35  1  1  0  0  0
 30 33  1  0  0  0  0
 30 29  1  1  0  0  0
 31 33  1  0  0  0  0
 32 30  1  0  0  0  0
 34 31  1  0  0  0  0
 34 32  1  0  0  0  0
 35 36  1  0  0  0  0
 37 35  2  0  0  0  0
M  END
>  <MODEL>
9

>  <REMARK>
 VINA RESULT:      -3.3      3.064      4.266
  Name = 
  6 active torsions:
  status: ('A' for Active; 'I' for Inactive)
    1  A    between atoms: C_2  and  C_37
    2  A    between atoms: C_5  and  C_23
    3  A    between atoms: N_6  and  C_33
    4  A    between atoms: N_6  and  C_37
    5  A    between atoms: C_7  and  C_23
    6  A    between atoms: N_13  and  C_23
                            x       y       z     vdW  Elec       q    Type
                         _______ _______ _______ _____ _____    ______ ____

>  <TORSDO>
F 6

$$$$
