=
 OpenBabel11072414023D

 61 68  0  0  1  0  0  0  0  0999 V2000
  160.0490  212.6030  151.7300 N   0  0  0  0  0  0  0  0  0  0  0  0
  158.6690  212.8820  152.1340 C   0  0  0  0  0  2  0  0  0  0  0  0
  158.4250  212.4000  153.5580 C   0  0  2  0  0  3  0  0  0  0  0  0
  157.7310  211.1870  153.5500 O   0  0  0  0  0  1  0  0  0  0  0  0
  158.7930  212.6010  156.5390 N   0  0  0  0  0  2  0  0  0  0  0  0
  155.2980  214.1000  154.6320 C   0  0  0  0  0  3  0  0  0  0  0  0
  154.1470  214.2740  157.0680 Cl  0  0  0  0  0  0  0  0  0  0  0  0
  156.2790  213.6560  153.8410 C   0  0  0  0  0  3  0  0  0  0  0  0
  157.6770  213.1980  155.8680 C   0  0  0  0  0  0  0  0  0  0  0  0
  155.6010  214.4530  156.0580 C   0  0  1  0  0  3  0  0  0  0  0  0
  156.6900  213.6350  156.5950 N   0  0  0  0  0  0  0  0  0  0  0  0
  157.6840  213.4700  154.3690 C   0  0  1  0  0  3  0  0  0  0  0  0
  160.0030  212.3090  155.8960 N   0  0  0  0  0  2  0  0  0  0  0  0
  160.8020  208.6230  155.9800 C   0  0  0  0  0  0  0  0  0  0  0  0
  162.1180  208.6860  156.4570 C   0  0  0  0  0  3  0  0  0  0  0  0
  160.6890  211.0650  156.0730 C   0  0  0  0  0  0  0  0  0  0  0  0
  162.7140  209.9140  156.7440 C   0  0  0  0  0  3  0  0  0  0  0  0
  162.0010  211.0970  156.5550 C   0  0  0  0  0  3  0  0  0  0  0  0
  158.7980  209.7820  155.3430 F   0  0  0  0  0  0  0  0  0  0  0  0
  160.0820  209.8230  155.7860 C   0  0  0  0  0  0  0  0  0  0  0  0
  160.2100  207.2950  155.7060 C   0  0  0  0  0  0  0  0  0  0  0  0
  161.0140  206.2580  155.2440 O   0  0  0  0  0  0  0  0  0  0  0  0
  158.9840  207.0770  155.8980 O   0  0  0  0  0  1  0  0  0  0  0  0
  160.2430  211.2110  151.3040 C   0  0  0  0  0  2  0  0  0  0  0  0
  161.6950  210.7460  151.3610 C   0  0  0  0  0  2  0  0  0  0  0  0
  161.8190  209.6050  152.3430 C   0  0  0  0  0  2  0  0  0  0  0  0
  161.1870  208.3610  151.7530 C   0  0  0  0  0  2  0  0  0  0  0  0
  163.0490  207.2350  148.5720 C   0  0  1  0  0  3  0  0  0  0  0  0
  161.4220  204.1110  150.8950 C   0  0  0  0  0  0  0  0  0  0  0  0
  162.4570  206.1930  151.7270 C   0  0  0  0  0  2  0  0  0  0  0  0
  162.7070  206.5580  147.2370 C   0  0  0  0  0  2  0  0  0  0  0  0
  160.7120  206.4540  149.1460 C   0  0  0  0  0  0  0  0  0  0  0  0
  159.4490  206.8460  149.3030 C   0  0  0  0  0  2  0  0  0  0  0  0
  162.2260  207.5250  151.0120 C   0  0  1  0  0  3  0  0  0  0  0  0
  161.9700  205.2140  147.3720 C   0  0  1  0  0  3  0  0  0  0  0  0
  161.2070  205.3160  151.7470 C   0  0  0  0  0  2  0  0  0  0  0  0
  162.2070  208.5050  148.6310 C   0  0  0  0  0  2  0  0  0  0  0  0
  161.0250  205.0980  148.5800 C   0  0  1  0  0  3  0  0  0  0  0  0
  161.6250  204.1880  149.5110 O   0  0  0  0  0  0  0  0  0  0  0  0
  161.8610  207.3400  149.5310 C   0  0  1  0  0  0  0  0  0  0  0  0
  161.5330  202.9920  151.4620 O   0  0  0  0  0  0  0  0  0  0  0  0
  161.2280  204.9310  146.1080 C   0  0  0  0  0  3  0  0  0  0  0  0
  160.8240  203.7170  145.7170 C   0  0  0  0  0  3  0  0  0  0  0  0
  160.9750  202.4780  147.7490 N   0  0  0  0  0  0  0  0  0  0  0  0
  161.3150  201.2640  145.7780 O   0  0  0  0  0  0  0  0  0  0  0  0
  161.1520  201.2850  148.5840 C   0  0  2  0  0  3  0  0  0  0  0  0
  161.3770  200.0120  146.4560 C   0  0  0  0  0  2  0  0  0  0  0  0
  161.0280  202.4570  146.4510 C   0  0  0  0  0  0  0  0  0  0  0  0
  161.9530  200.2050  147.8520 C   0  0  0  0  0  2  0  0  0  0  0  0
  159.1240  201.7860  149.9180 C   0  0  0  0  0  2  0  0  0  0  0  0
  159.7970  200.7540  149.0320 C   0  0  0  0  0  3  0  0  0  0  0  0
  159.7990  200.5800  150.5390 C   0  0  0  0  0  2  0  0  0  0  0  0
  160.5710  213.5700  150.7470 C   0  0  0  0  0  2  0  0  0  0  0  0
  159.8280  213.5980  149.4320 C   0  0  0  0  0  0  0  0  0  0  0  0
  158.7680  214.1910  149.3410 O   0  0  0  0  0  0  0  0  0  0  0  0
  160.4450  213.0220  148.1910 C   0  0  1  0  0  3  0  0  0  0  0  0
  162.5550  213.5820  147.1010 C   0  0  0  0  0  2  0  0  0  0  0  0
  161.3070  212.7700  145.2500 O   0  0  0  0  0  1  0  0  0  0  0  0
  160.1730  213.9130  146.9950 C   0  0  0  0  0  2  0  0  0  0  0  0
  161.9530  212.8860  148.3090 C   0  0  0  0  0  2  0  0  0  0  0  0
  161.4170  213.8420  146.1360 C   0  0  1  0  0  3  0  0  0  0  0  0
  1  2  1  0  0  0  0
  2  3  1  0  0  0  0
  3  4  1  6  0  0  0
  6 10  1  0  0  0  0
  8 12  1  0  0  0  0
  8  6  2  0  0  0  0
  9  5  1  0  0  0  0
  9 11  2  0  0  0  0
 10 11  1  0  0  0  0
 10  7  1  1  0  0  0
 12  3  1  6  0  0  0
 12  9  1  0  0  0  0
 13 16  1  0  0  0  0
 13  5  1  0  0  0  0
 14 15  1  0  0  0  0
 15 17  2  0  0  0  0
 16 18  2  0  0  0  0
 18 17  1  0  0  0  0
 19 20  1  0  0  0  0
 20 14  2  0  0  0  0
 20 16  1  0  0  0  0
 21 23  1  0  0  0  0
 21 14  1  0  0  0  0
 22 21  2  0  0  0  0
 24 25  1  0  0  0  0
 24  1  1  0  0  0  0
 25 26  1  0  0  0  0
 27 26  1  0  0  0  0
 28 31  1  6  0  0  0
 28 37  1  0  0  0  0
 28 40  1  0  0  0  0
 29 41  2  0  0  0  0
 29 36  1  0  0  0  0
 30 36  1  0  0  0  0
 31 35  1  0  0  0  0
 32 33  2  0  0  0  0
 32 40  1  0  0  0  0
 34 30  1  0  0  0  0
 34 27  1  1  0  0  0
 35 42  1  6  0  0  0
 35 38  1  0  0  0  0
 38 32  1  1  0  0  0
 38 39  1  0  0  0  0
 39 29  1  0  0  0  0
 40 37  1  6  0  0  0
 40 34  1  0  0  0  0
 43 42  2  0  0  0  0
 43 48  1  0  0  0  0
 44 46  1  0  0  0  0
 45 48  1  0  0  0  0
 45 47  1  0  0  0  0
 46 51  1  6  0  0  0
 47 49  1  0  0  0  0
 48 44  2  0  0  0  0
 49 46  1  0  0  0  0
 50 52  1  0  0  0  0
 51 50  1  0  0  0  0
 51 52  1  0  0  0  0
 53  1  1  0  0  0  0
 54 53  1  0  0  0  0
 55 54  2  0  0  0  0
 56 60  1  0  0  0  0
 56 54  1  1  0  0  0
 57 60  1  0  0  0  0
 59 56  1  0  0  0  0
 61 58  1  6  0  0  0
 61 59  1  0  0  0  0
 61 57  1  0  0  0  0
M  END
>  <MODEL>
1

>  <REMARK>
 VINA RESULT:      -4.6      0.000      0.000
  Name = 
  17 active torsions:
  status: ('A' for Active; 'I' for Inactive)
    1  A    between atoms: C_1  and  C_43
    2  A    between atoms: C_1  and  N_49
    3  A    between atoms: C_2  and  C_19
    4  A    between atoms: C_5  and  C_9
    5  A    between atoms: C_5  and  C_44
    6  A    between atoms: N_8  and  N_35
    7  A    between atoms: C_12  and  C_45
    8  A    between atoms: C_16  and  C_30
    9  A    between atoms: C_16  and  N_49
   10  A    between atoms: C_23  and  C_52
   11  A    between atoms: C_24  and  N_35
   12  A    between atoms: C_25  and  C_29
   13  A    between atoms: C_30  and  C_40
   14  A    between atoms: C_33  and  C_43
   15  A    between atoms: C_33  and  C_52
   16  A    between atoms: C_44  and  N_49
   17  A    between atoms: C_48  and  C_51
                            x       y       z     vdW  Elec       q    Type
                         _______ _______ _______ _____ _____    ______ ____

>  <TORSDO>
F 17

$$$$
=
 OpenBabel11072414023D

 61 68  0  0  1  0  0  0  0  0999 V2000
  160.1430  212.7260  151.6730 N   0  0  0  0  0  0  0  0  0  0  0  0
  158.8040  213.0300  152.1840 C   0  0  0  0  0  2  0  0  0  0  0  0
  158.6590  212.5400  153.6190 C   0  0  2  0  0  3  0  0  0  0  0  0
  158.0920  211.2640  153.6440 O   0  0  0  0  0  1  0  0  0  0  0  0
  158.7880  212.5120  156.6260 N   0  0  0  0  0  2  0  0  0  0  0  0
  155.4350  214.1290  154.5680 C   0  0  0  0  0  3  0  0  0  0  0  0
  154.0920  214.1040  156.9110 Cl  0  0  0  0  0  0  0  0  0  0  0  0
  156.4810  213.7550  153.8260 C   0  0  0  0  0  3  0  0  0  0  0  0
  157.7210  213.1500  155.9160 C   0  0  0  0  0  0  0  0  0  0  0  0
  155.6190  214.3720  156.0370 C   0  0  1  0  0  3  0  0  0  0  0  0
  156.6740  213.5230  156.5940 N   0  0  0  0  0  0  0  0  0  0  0  0
  157.8430  213.5390  154.4480 C   0  0  1  0  0  3  0  0  0  0  0  0
  160.0490  212.2800  156.0610 N   0  0  0  0  0  2  0  0  0  0  0  0
  160.9430  208.6210  156.2790 C   0  0  0  0  0  0  0  0  0  0  0  0
  162.2760  208.7360  156.6970 C   0  0  0  0  0  3  0  0  0  0  0  0
  160.7730  211.0620  156.2650 C   0  0  0  0  0  0  0  0  0  0  0  0
  162.8520  209.9900  156.9020 C   0  0  0  0  0  3  0  0  0  0  0  0
  162.1020  211.1460  156.6900 C   0  0  0  0  0  3  0  0  0  0  0  0
  158.8870  209.7030  155.6740 F   0  0  0  0  0  0  0  0  0  0  0  0
  160.1860  209.7940  156.0600 C   0  0  0  0  0  0  0  0  0  0  0  0
  160.3750  207.2690  156.0890 C   0  0  0  0  0  0  0  0  0  0  0  0
  160.6760  206.5420  154.9420 O   0  0  0  0  0  0  0  0  0  0  0  0
  159.6280  206.7490  156.9620 O   0  0  0  0  0  1  0  0  0  0  0  0
  160.3070  211.3080  151.3270 C   0  0  0  0  0  2  0  0  0  0  0  0
  161.5650  210.6730  151.9110 C   0  0  0  0  0  2  0  0  0  0  0  0
  161.1850  209.4400  152.6980 C   0  0  0  0  0  2  0  0  0  0  0  0
  160.6740  208.3740  151.7500 C   0  0  0  0  0  2  0  0  0  0  0  0
  162.8850  207.5450  148.7050 C   0  0  1  0  0  3  0  0  0  0  0  0
  161.3010  204.2000  150.7320 C   0  0  0  0  0  0  0  0  0  0  0  0
  162.1010  206.3060  151.7440 C   0  0  0  0  0  2  0  0  0  0  0  0
  162.7120  206.9120  147.3160 C   0  0  0  0  0  2  0  0  0  0  0  0
  160.5720  206.5710  149.0300 C   0  0  0  0  0  0  0  0  0  0  0  0
  159.2740  206.8650  149.0900 C   0  0  0  0  0  2  0  0  0  0  0  0
  161.8330  207.6520  151.0700 C   0  0  1  0  0  3  0  0  0  0  0  0
  162.0690  205.5150  147.3250 C   0  0  1  0  0  3  0  0  0  0  0  0
  160.9230  205.3430  151.6140 C   0  0  0  0  0  2  0  0  0  0  0  0
  161.9480  208.7460  148.7430 C   0  0  0  0  0  2  0  0  0  0  0  0
  161.0340  205.2720  148.4360 C   0  0  1  0  0  3  0  0  0  0  0  0
  161.6180  204.3600  149.3770 O   0  0  0  0  0  0  0  0  0  0  0  0
  161.6140  207.5160  149.5560 C   0  0  1  0  0  0  0  0  0  0  0  0
  161.4460  203.0640  151.2580 O   0  0  0  0  0  0  0  0  0  0  0  0
  161.4640  205.2430  145.9880 C   0  0  0  0  0  3  0  0  0  0  0  0
  161.1090  204.0330  145.5440 C   0  0  0  0  0  3  0  0  0  0  0  0
  160.6050  201.7210  145.8410 N   0  0  0  0  0  0  0  0  0  0  0  0
  162.0010  202.6840  147.4540 O   0  0  0  0  0  0  0  0  0  0  0  0
  160.6710  200.4050  146.4850 C   0  0  2  0  0  3  0  0  0  0  0  0
  162.2560  201.4400  148.1030 C   0  0  0  0  0  2  0  0  0  0  0  0
  161.2420  202.7650  146.2810 C   0  0  0  0  0  0  0  0  0  0  0  0
  161.0470  200.5250  147.9640 C   0  0  0  0  0  2  0  0  0  0  0  0
  160.8810  198.3920  145.0550 C   0  0  0  0  0  2  0  0  0  0  0  0
  161.6500  199.5050  145.7420 C   0  0  0  0  0  3  0  0  0  0  0  0
  161.6160  198.1160  146.3510 C   0  0  0  0  0  2  0  0  0  0  0  0
  160.5640  213.6230  150.5820 C   0  0  0  0  0  2  0  0  0  0  0  0
  159.7090  213.5540  149.3390 C   0  0  0  0  0  0  0  0  0  0  0  0
  160.2220  213.6360  148.2370 O   0  0  0  0  0  0  0  0  0  0  0  0
  158.2430  213.2450  149.4340 C   0  0  1  0  0  3  0  0  0  0  0  0
  156.4270  213.8520  147.9220 C   0  0  0  0  0  2  0  0  0  0  0  0
  155.2410  213.6440  149.9690 O   0  0  0  0  0  1  0  0  0  0  0  0
  157.4830  214.4250  150.0080 C   0  0  0  0  0  2  0  0  0  0  0  0
  157.6320  212.9410  148.0760 C   0  0  0  0  0  2  0  0  0  0  0  0
  156.1530  214.4490  149.2870 C   0  0  1  0  0  3  0  0  0  0  0  0
  1  2  1  0  0  0  0
  2  3  1  0  0  0  0
  3  4  1  6  0  0  0
  6 10  1  0  0  0  0
  8 12  1  0  0  0  0
  8  6  2  0  0  0  0
  9 11  2  0  0  0  0
  9  5  1  0  0  0  0
 10 11  1  0  0  0  0
 10  7  1  1  0  0  0
 12  3  1  6  0  0  0
 12  9  1  0  0  0  0
 13 16  1  0  0  0  0
 13  5  1  0  0  0  0
 14 15  1  0  0  0  0
 15 17  2  0  0  0  0
 16 18  2  0  0  0  0
 18 17  1  0  0  0  0
 19 20  1  0  0  0  0
 20 16  1  0  0  0  0
 20 14  2  0  0  0  0
 21 14  1  0  0  0  0
 21 23  1  0  0  0  0
 22 21  2  0  0  0  0
 24  1  1  0  0  0  0
 24 25  1  0  0  0  0
 25 26  1  0  0  0  0
 27 26  1  0  0  0  0
 28 31  1  6  0  0  0
 28 37  1  0  0  0  0
 28 40  1  0  0  0  0
 29 41  2  0  0  0  0
 29 36  1  0  0  0  0
 31 35  1  0  0  0  0
 32 33  2  0  0  0  0
 32 40  1  0  0  0  0
 34 30  1  0  0  0  0
 34 27  1  1  0  0  0
 35 42  1  6  0  0  0
 35 38  1  0  0  0  0
 36 30  1  0  0  0  0
 38 32  1  1  0  0  0
 38 39  1  0  0  0  0
 39 29  1  0  0  0  0
 40 37  1  6  0  0  0
 40 34  1  0  0  0  0
 43 42  2  0  0  0  0
 43 48  1  0  0  0  0
 44 48  2  0  0  0  0
 44 46  1  0  0  0  0
 45 47  1  0  0  0  0
 46 51  1  6  0  0  0
 46 49  1  0  0  0  0
 48 45  1  0  0  0  0
 49 47  1  0  0  0  0
 50 51  1  0  0  0  0
 50 52  1  0  0  0  0
 51 52  1  0  0  0  0
 53  1  1  0  0  0  0
 54 53  1  0  0  0  0
 55 54  2  0  0  0  0
 56 54  1  6  0  0  0
 56 59  1  0  0  0  0
 57 60  1  0  0  0  0
 57 61  1  0  0  0  0
 60 56  1  0  0  0  0
 61 58  1  1  0  0  0
 61 59  1  0  0  0  0
M  END
>  <MODEL>
2

>  <REMARK>
 VINA RESULT:      -4.3      1.241      2.181
  Name = 
  17 active torsions:
  status: ('A' for Active; 'I' for Inactive)
    1  A    between atoms: C_1  and  C_43
    2  A    between atoms: C_1  and  N_49
    3  A    between atoms: C_2  and  C_19
    4  A    between atoms: C_5  and  C_9
    5  A    between atoms: C_5  and  C_44
    6  A    between atoms: N_8  and  N_35
    7  A    between atoms: C_12  and  C_45
    8  A    between atoms: C_16  and  C_30
    9  A    between atoms: C_16  and  N_49
   10  A    between atoms: C_23  and  C_52
   11  A    between atoms: C_24  and  N_35
   12  A    between atoms: C_25  and  C_29
   13  A    between atoms: C_30  and  C_40
   14  A    between atoms: C_33  and  C_43
   15  A    between atoms: C_33  and  C_52
   16  A    between atoms: C_44  and  N_49
   17  A    between atoms: C_48  and  C_51
                            x       y       z     vdW  Elec       q    Type
                         _______ _______ _______ _____ _____    ______ ____

>  <TORSDO>
F 17

$$$$
=
 OpenBabel11072414023D

 61 68  0  0  1  0  0  0  0  0999 V2000
  161.1750  208.3650  149.6820 N   0  0  0  0  0  0  0  0  0  0  0  0
  162.0020  208.1350  150.8690 C   0  0  0  0  0  2  0  0  0  0  0  0
  161.6630  209.1440  151.9560 C   0  0  2  0  0  3  0  0  0  0  0  0
  162.8260  209.5920  152.5870 O   0  0  0  0  0  1  0  0  0  0  0  0
  160.3500  210.8670  154.0470 N   0  0  0  0  0  2  0  0  0  0  0  0
  160.7770  206.6690  154.5850 C   0  0  0  0  0  3  0  0  0  0  0  0
  160.1550  207.0260  157.1890 Cl  0  0  0  0  0  0  0  0  0  0  0  0
  161.1310  207.1690  153.3970 C   0  0  0  0  0  3  0  0  0  0  0  0
  160.4030  209.4410  154.1600 C   0  0  0  0  0  0  0  0  0  0  0  0
  159.8820  207.4680  155.4870 C   0  0  1  0  0  3  0  0  0  0  0  0
  160.0790  208.9070  155.3020 N   0  0  0  0  0  0  0  0  0  0  0  0
  160.6720  208.5420  152.9600 C   0  0  1  0  0  3  0  0  0  0  0  0
  160.4460  211.5400  152.8220 N   0  0  0  0  0  2  0  0  0  0  0  0
  157.3230  213.6460  152.6070 C   0  0  0  0  0  0  0  0  0  0  0  0
  157.6140  214.3670  151.4420 C   0  0  0  0  0  3  0  0  0  0  0  0
  159.4670  212.4890  152.3850 C   0  0  0  0  0  0  0  0  0  0  0  0
  158.8070  214.1550  150.7520 C   0  0  0  0  0  3  0  0  0  0  0  0
  159.7270  213.2170  151.2200 C   0  0  0  0  0  3  0  0  0  0  0  0
  157.9850  211.9760  154.2000 F   0  0  0  0  0  0  0  0  0  0  0  0
  158.2580  212.6990  153.0830 C   0  0  0  0  0  0  0  0  0  0  0  0
  156.0370  213.8980  153.2940 C   0  0  0  0  0  0  0  0  0  0  0  0
  154.8500  213.8990  152.5690 O   0  0  0  0  0  0  0  0  0  0  0  0
  155.9920  214.0970  154.5380 O   0  0  0  0  0  1  0  0  0  0  0  0
  160.9670  209.7920  149.4060 C   0  0  0  0  0  2  0  0  0  0  0  0
  161.6050  210.2670  148.1040 C   0  0  0  0  0  2  0  0  0  0  0  0
  160.9420  211.5510  147.6600 C   0  0  0  0  0  2  0  0  0  0  0  0
  161.9890  212.6360  147.5150 C   0  0  0  0  0  2  0  0  0  0  0  0
  159.2270  214.4520  145.5360 C   0  0  1  0  0  3  0  0  0  0  0  0
  162.8790  213.9670  143.4800 C   0  0  0  0  0  0  0  0  0  0  0  0
  162.5830  214.4510  145.8830 C   0  0  0  0  0  2  0  0  0  0  0  0
  158.3720  214.1970  144.2860 C   0  0  0  0  0  2  0  0  0  0  0  0
  160.5160  212.4840  144.6060 C   0  0  0  0  0  0  0  0  0  0  0  0
  160.7500  211.1800  144.7470 C   0  0  0  0  0  2  0  0  0  0  0  0
  161.4560  213.7970  146.6830 C   0  0  1  0  0  3  0  0  0  0  0  0
  159.1770  213.8770  143.0150 C   0  0  1  0  0  3  0  0  0  0  0  0
  163.2010  213.5010  144.8600 C   0  0  0  0  0  2  0  0  0  0  0  0
  158.9370  213.2990  146.4900 C   0  0  0  0  0  2  0  0  0  0  0  0
  160.4910  213.1110  143.2410 C   0  0  1  0  0  3  0  0  0  0  0  0
  161.5700  214.0190  142.9830 O   0  0  0  0  0  0  0  0  0  0  0  0
  160.2780  213.3710  145.7940 C   0  0  1  0  0  0  0  0  0  0  0  0
  163.8130  214.4340  142.7750 O   0  0  0  0  0  0  0  0  0  0  0  0
  158.3070  213.1370  142.0540 C   0  0  0  0  0  3  0  0  0  0  0  0
  158.7220  212.6180  140.8940 C   0  0  0  0  0  3  0  0  0  0  0  0
  160.9060  211.6990  140.6230 N   0  0  0  0  0  0  0  0  0  0  0  0
  160.5340  213.7770  139.6130 O   0  0  0  0  0  0  0  0  0  0  0  0
  162.2880  211.6440  140.1360 C   0  0  2  0  0  3  0  0  0  0  0  0
  161.8060  213.7900  138.9700 C   0  0  0  0  0  2  0  0  0  0  0  0
  160.0920  212.6770  140.3580 C   0  0  0  0  0  0  0  0  0  0  0  0
  162.8250  213.0420  139.8190 C   0  0  0  0  0  2  0  0  0  0  0  0
  160.9790  210.3810  138.4520 C   0  0  0  0  0  2  0  0  0  0  0  0
  162.3790  210.7320  138.9200 C   0  0  0  0  0  3  0  0  0  0  0  0
  161.7800  209.3800  139.2590 C   0  0  0  0  0  2  0  0  0  0  0  0
  161.6450  207.6260  148.4960 C   0  0  0  0  0  2  0  0  0  0  0  0
  161.0980  206.2240  148.3660 C   0  0  0  0  0  0  0  0  0  0  0  0
  160.4100  205.9220  147.4070 O   0  0  0  0  0  0  0  0  0  0  0  0
  161.5020  205.1500  149.3330 C   0  0  1  0  0  3  0  0  0  0  0  0
  160.3190  203.1170  149.9810 C   0  0  0  0  0  2  0  0  0  0  0  0
  161.6240  203.5030  151.9270 O   0  0  0  0  0  1  0  0  0  0  0  0
  160.8360  205.3630  150.6780 C   0  0  0  0  0  2  0  0  0  0  0  0
  161.1030  203.7650  148.8530 C   0  0  0  0  0  2  0  0  0  0  0  0
  160.5270  203.9790  151.2090 C   0  0  1  0  0  3  0  0  0  0  0  0
  1  2  1  0  0  0  0
  2  3  1  0  0  0  0
  3  4  1  1  0  0  0
  5  9  1  0  0  0  0
  6 10  1  0  0  0  0
  8  6  2  0  0  0  0
  9 11  2  0  0  0  0
 10  7  1  1  0  0  0
 11 10  1  0  0  0  0
 12  3  1  6  0  0  0
 12  8  1  0  0  0  0
 12  9  1  0  0  0  0
 13  5  1  0  0  0  0
 14 20  1  0  0  0  0
 14 21  1  0  0  0  0
 15 14  2  0  0  0  0
 16 13  1  0  0  0  0
 16 20  2  0  0  0  0
 17 18  2  0  0  0  0
 17 15  1  0  0  0  0
 18 16  1  0  0  0  0
 20 19  1  0  0  0  0
 21 23  1  0  0  0  0
 22 21  2  0  0  0  0
 24  1  1  0  0  0  0
 25 24  1  0  0  0  0
 26 25  1  0  0  0  0
 27 26  1  0  0  0  0
 28 31  1  6  0  0  0
 28 40  1  0  0  0  0
 28 37  1  0  0  0  0
 29 36  1  0  0  0  0
 30 34  1  0  0  0  0
 32 33  2  0  0  0  0
 32 40  1  0  0  0  0
 34 27  1  6  0  0  0
 35 42  1  6  0  0  0
 35 38  1  0  0  0  0
 35 31  1  0  0  0  0
 36 30  1  0  0  0  0
 38 39  1  1  0  0  0
 38 32  1  0  0  0  0
 39 29  1  0  0  0  0
 40 37  1  1  0  0  0
 40 34  1  0  0  0  0
 41 29  2  0  0  0  0
 43 42  2  0  0  0  0
 45 48  1  0  0  0  0
 46 51  1  6  0  0  0
 46 44  1  0  0  0  0
 47 45  1  0  0  0  0
 47 49  1  0  0  0  0
 48 44  2  0  0  0  0
 48 43  1  0  0  0  0
 49 46  1  0  0  0  0
 50 51  1  0  0  0  0
 50 52  1  0  0  0  0
 51 52  1  0  0  0  0
 53  1  1  0  0  0  0
 54 53  1  0  0  0  0
 55 54  2  0  0  0  0
 56 54  1  6  0  0  0
 56 59  1  0  0  0  0
 57 61  1  0  0  0  0
 59 61  1  0  0  0  0
 60 56  1  0  0  0  0
 60 57  1  0  0  0  0
 61 58  1  6  0  0  0
M  END
>  <MODEL>
3

>  <REMARK>
 VINA RESULT:      -3.9      3.911      9.228
  Name = 
  17 active torsions:
  status: ('A' for Active; 'I' for Inactive)
    1  A    between atoms: C_1  and  C_43
    2  A    between atoms: C_1  and  N_49
    3  A    between atoms: C_2  and  C_19
    4  A    between atoms: C_5  and  C_9
    5  A    between atoms: C_5  and  C_44
    6  A    between atoms: N_8  and  N_35
    7  A    between atoms: C_12  and  C_45
    8  A    between atoms: C_16  and  C_30
    9  A    between atoms: C_16  and  N_49
   10  A    between atoms: C_23  and  C_52
   11  A    between atoms: C_24  and  N_35
   12  A    between atoms: C_25  and  C_29
   13  A    between atoms: C_30  and  C_40
   14  A    between atoms: C_33  and  C_43
   15  A    between atoms: C_33  and  C_52
   16  A    between atoms: C_44  and  N_49
   17  A    between atoms: C_48  and  C_51
                            x       y       z     vdW  Elec       q    Type
                         _______ _______ _______ _____ _____    ______ ____

>  <TORSDO>
F 17

$$$$
=
 OpenBabel11072414023D

 61 68  0  0  1  0  0  0  0  0999 V2000
  160.0680  211.4720  154.0200 N   0  0  0  0  0  0  0  0  0  0  0  0
  159.2440  212.0860  152.9760 C   0  0  0  0  0  2  0  0  0  0  0  0
  159.6130  213.5530  152.8020 C   0  0  2  0  0  3  0  0  0  0  0  0
  159.2090  214.2940  153.9150 O   0  0  0  0  0  1  0  0  0  0  0  0
  156.6300  213.7900  152.4650 N   0  0  0  0  0  2  0  0  0  0  0  0
  159.2240  213.5130  149.1040 C   0  0  0  0  0  3  0  0  0  0  0  0
  157.0520  213.0230  147.5760 Cl  0  0  0  0  0  0  0  0  0  0  0  0
  159.7970  213.6220  150.3070 C   0  0  0  0  0  3  0  0  0  0  0  0
  157.5260  213.8080  151.3480 C   0  0  0  0  0  0  0  0  0  0  0  0
  157.7880  213.9130  148.9300 C   0  0  1  0  0  3  0  0  0  0  0  0
  157.0170  213.6940  150.1550 N   0  0  0  0  0  0  0  0  0  0  0  0
  159.0110  214.1080  151.5040 C   0  0  1  0  0  3  0  0  0  0  0  0
  157.0240  214.1360  153.7640 N   0  0  0  0  0  2  0  0  0  0  0  0
  155.2350  211.8320  156.1570 C   0  0  0  0  0  0  0  0  0  0  0  0
  155.1250  212.6900  157.2600 C   0  0  0  0  0  3  0  0  0  0  0  0
  156.3780  213.6140  154.9300 C   0  0  0  0  0  0  0  0  0  0  0  0
  155.6270  213.9900  157.2040 C   0  0  0  0  0  3  0  0  0  0  0  0
  156.2470  214.4490  156.0430 C   0  0  0  0  0  3  0  0  0  0  0  0
  155.9650  211.4890  153.8960 F   0  0  0  0  0  0  0  0  0  0  0  0
  155.8670  212.2990  154.9830 C   0  0  0  0  0  0  0  0  0  0  0  0
  154.6730  210.4680  156.2620 C   0  0  0  0  0  0  0  0  0  0  0  0
  155.0510  209.4890  155.3490 O   0  0  0  0  0  0  0  0  0  0  0  0
  153.8640  210.1660  157.1800 O   0  0  0  0  0  1  0  0  0  0  0  0
  161.4090  211.1120  153.5420 C   0  0  0  0  0  2  0  0  0  0  0  0
  161.4070  210.3420  152.2250 C   0  0  0  0  0  2  0  0  0  0  0  0
  160.5780  209.0880  152.3780 C   0  0  0  0  0  2  0  0  0  0  0  0
  161.3720  207.8950  151.8860 C   0  0  0  0  0  2  0  0  0  0  0  0
  159.5880  204.5810  151.0560 C   0  0  1  0  0  3  0  0  0  0  0  0
  162.1140  206.0650  148.0190 C   0  0  0  0  0  0  0  0  0  0  0  0
  160.6730  207.3870  149.5270 C   0  0  0  0  0  2  0  0  0  0  0  0
  159.9760  203.1170  150.8030 C   0  0  0  0  0  2  0  0  0  0  0  0
  162.0840  204.9020  150.7930 C   0  0  0  0  0  0  0  0  0  0  0  0
  163.2220  205.1190  151.4520 C   0  0  0  0  0  2  0  0  0  0  0  0
  160.5120  207.0010  150.9980 C   0  0  1  0  0  3  0  0  0  0  0  0
  161.0270  202.9150  149.6980 C   0  0  1  0  0  3  0  0  0  0  0  0
  162.0960  207.1730  149.0190 C   0  0  0  0  0  2  0  0  0  0  0  0
  160.0960  204.9190  152.4530 C   0  0  0  0  0  2  0  0  0  0  0  0
  162.0670  204.0400  149.5640 C   0  0  1  0  0  3  0  0  0  0  0  0
  161.7860  204.7440  148.3470 O   0  0  0  0  0  0  0  0  0  0  0  0
  160.7890  205.5110  151.2460 C   0  0  1  0  0  0  0  0  0  0  0  0
  162.3270  206.3550  146.8120 O   0  0  0  0  0  0  0  0  0  0  0  0
  161.7100  201.6030  149.9030 C   0  0  0  0  0  3  0  0  0  0  0  0
  161.8120  200.6450  148.9760 C   0  0  0  0  0  3  0  0  0  0  0  0
  160.5740  201.7370  147.2550 N   0  0  0  0  0  0  0  0  0  0  0  0
  161.4980  199.6610  146.6960 O   0  0  0  0  0  0  0  0  0  0  0  0
  160.0060  201.9110  145.9150 C   0  0  2  0  0  3  0  0  0  0  0  0
  161.1160  199.7610  145.3260 C   0  0  0  0  0  2  0  0  0  0  0  0
  161.2830  200.7060  147.6030 C   0  0  0  0  0  0  0  0  0  0  0  0
  159.8300  200.5670  145.2040 C   0  0  0  0  0  2  0  0  0  0  0  0
  160.6100  204.2840  145.5330 C   0  0  0  0  0  2  0  0  0  0  0  0
  160.8750  202.8550  145.0950 C   0  0  0  0  0  3  0  0  0  0  0  0
  159.9860  203.7560  144.2570 C   0  0  0  0  0  2  0  0  0  0  0  0
  160.1080  212.2610  155.2650 C   0  0  0  0  0  2  0  0  0  0  0  0
  159.5080  211.5740  156.4690 C   0  0  0  0  0  0  0  0  0  0  0  0
  158.5750  212.0840  157.0630 O   0  0  0  0  0  0  0  0  0  0  0  0
  159.9540  210.1980  156.8670 C   0  0  1  0  0  3  0  0  0  0  0  0
  161.7490  208.8210  155.9530 C   0  0  0  0  0  2  0  0  0  0  0  0
  160.2930  207.1420  156.7900 O   0  0  0  0  0  1  0  0  0  0  0  0
  159.3650  209.1540  155.9370 C   0  0  0  0  0  2  0  0  0  0  0  0
  161.4640  210.0440  156.8070 C   0  0  0  0  0  2  0  0  0  0  0  0
  160.4320  208.0930  155.7790 C   0  0  1  0  0  3  0  0  0  0  0  0
  1 53  1  0  0  0  0
  2  1  1  0  0  0  0
  3  2  1  0  0  0  0
  3  4  1  1  0  0  0
  5 13  1  0  0  0  0
  6  8  2  0  0  0  0
  8 12  1  0  0  0  0
  9 12  1  0  0  0  0
  9  5  1  0  0  0  0
 10  7  1  6  0  0  0
 10  6  1  0  0  0  0
 10 11  1  0  0  0  0
 11  9  2  0  0  0  0
 12  3  1  1  0  0  0
 13 16  1  0  0  0  0
 14 21  1  0  0  0  0
 14 15  1  0  0  0  0
 16 20  1  0  0  0  0
 16 18  2  0  0  0  0
 17 15  2  0  0  0  0
 18 17  1  0  0  0  0
 19 20  1  0  0  0  0
 20 14  2  0  0  0  0
 21 23  1  0  0  0  0
 22 21  2  0  0  0  0
 24  1  1  0  0  0  0
 25 26  1  0  0  0  0
 25 24  1  0  0  0  0
 27 26  1  0  0  0  0
 28 31  1  6  0  0  0
 28 40  1  0  0  0  0
 28 37  1  0  0  0  0
 29 39  1  0  0  0  0
 29 36  1  0  0  0  0
 30 34  1  0  0  0  0
 32 40  1  0  0  0  0
 32 33  2  0  0  0  0
 34 40  1  0  0  0  0
 34 27  1  1  0  0  0
 35 42  1  1  0  0  0
 35 31  1  0  0  0  0
 36 30  1  0  0  0  0
 38 39  1  6  0  0  0
 38 35  1  0  0  0  0
 38 32  1  0  0  0  0
 40 37  1  1  0  0  0
 41 29  2  0  0  0  0
 43 42  2  0  0  0  0
 44 48  2  0  0  0  0
 45 48  1  0  0  0  0
 46 51  1  6  0  0  0
 46 44  1  0  0  0  0
 47 45  1  0  0  0  0
 48 43  1  0  0  0  0
 49 47  1  0  0  0  0
 49 46  1  0  0  0  0
 51 50  1  0  0  0  0
 52 51  1  0  0  0  0
 52 50  1  0  0  0  0
 53 54  1  0  0  0  0
 54 55  2  0  0  0  0
 56 54  1  6  0  0  0
 57 60  1  0  0  0  0
 59 56  1  0  0  0  0
 60 56  1  0  0  0  0
 61 59  1  0  0  0  0
 61 57  1  0  0  0  0
 61 58  1  1  0  0  0
M  END
>  <MODEL>
4

>  <REMARK>
 VINA RESULT:      -2.1      2.392      5.682
  Name = 
  17 active torsions:
  status: ('A' for Active; 'I' for Inactive)
    1  A    between atoms: C_1  and  C_43
    2  A    between atoms: C_1  and  N_49
    3  A    between atoms: C_2  and  C_19
    4  A    between atoms: C_5  and  C_9
    5  A    between atoms: C_5  and  C_44
    6  A    between atoms: N_8  and  N_35
    7  A    between atoms: C_12  and  C_45
    8  A    between atoms: C_16  and  C_30
    9  A    between atoms: C_16  and  N_49
   10  A    between atoms: C_23  and  C_52
   11  A    between atoms: C_24  and  N_35
   12  A    between atoms: C_25  and  C_29
   13  A    between atoms: C_30  and  C_40
   14  A    between atoms: C_33  and  C_43
   15  A    between atoms: C_33  and  C_52
   16  A    between atoms: C_44  and  N_49
   17  A    between atoms: C_48  and  C_51
                            x       y       z     vdW  Elec       q    Type
                         _______ _______ _______ _____ _____    ______ ____

>  <TORSDO>
F 17

$$$$
