=
 OpenBabel11072414383D

 26 30  0  0  1  0  0  0  0  0999 V2000
  162.0320  210.2170  149.2800 C   0  0  1  0  0  0  0  0  0  0  0  0
  160.4090  206.9320  153.0130 O   0  0  0  0  0  0  0  0  0  0  0  0
  162.1980  208.9990  148.6180 O   0  0  0  0  0  1  0  0  0  0  0  0
  161.3610  207.9350  154.8690 O   0  0  0  0  0  1  0  0  0  0  0  0
  162.4070  207.9490  151.3330 O   0  0  0  0  0  0  0  0  0  0  0  0
  161.0540  211.4040  151.4010 C   0  0  0  0  0  2  0  0  0  0  0  0
  161.3690  208.8830  151.4420 C   0  0  1  0  0  3  0  0  0  0  0  0
  160.2100  210.8120  152.9120 S   0  0  0  0  0  0  0  0  0  0  0  0
  162.8730  205.9800  153.0100 O   0  0  0  0  0  0  0  0  0  0  0  0
  161.2060  209.2940  152.8870 C   0  0  1  0  0  3  0  0  0  0  0  0
  160.6030  208.1500  153.7160 C   0  0  1  0  0  3  0  0  0  0  0  0
  161.6140  210.1800  150.7000 C   0  0  1  0  0  0  0  0  0  0  0  0
  161.8090  206.5490  152.0970 P   0  0  1  0  0  0  0  0  0  0  0  0
  162.9630  210.3640  150.3290 O   0  0  0  0  0  0  0  0  0  0  0  0
  162.2680  213.3030  147.4020 C   0  0  0  0  0  0  0  0  0  0  0  0
  162.8470  214.4300  146.9250 F   0  0  0  0  0  0  0  0  0  0  0  0
  161.8930  211.4550  148.4540 C   0  0  0  0  0  0  0  0  0  0  0  0
  161.0510  212.9230  147.0920 O   0  0  0  0  0  0  0  0  0  0  0  0
  162.8720  212.4110  148.2620 C   0  0  0  0  0  3  0  0  0  0  0  0
  160.7830  211.7960  147.7080 C   0  0  0  0  0  3  0  0  0  0  0  0
  160.8220  203.0760  150.2180 C   0  0  0  0  0  3  0  0  0  0  0  0
  161.1010  204.7680  148.5090 C   0  0  0  0  0  3  0  0  0  0  0  0
  160.8140  203.4490  148.8700 C   0  0  0  0  0  3  0  0  0  0  0  0
  161.3850  205.3480  150.8440 C   0  0  0  0  0  0  0  0  0  0  0  0
  161.3930  205.7160  149.4950 C   0  0  0  0  0  3  0  0  0  0  0  0
  161.1120  204.0240  151.2030 C   0  0  0  0  0  3  0  0  0  0  0  0
  1  3  1  6  0  0  0
  1 14  1  0  0  0  0
  1 12  1  0  0  0  0
  2 11  1  0  0  0  0
  5 13  1  0  0  0  0
  6  8  1  0  0  0  0
  7  5  1  1  0  0  0
  7 10  1  0  0  0  0
 10  8  1  6  0  0  0
 10 11  1  0  0  0  0
 11  4  1  1  0  0  0
 12  6  1  1  0  0  0
 12  7  1  0  0  0  0
 13  9  2  1  0  0  0
 13  2  1  0  0  0  0
 14 12  1  0  0  0  0
 15 19  2  0  0  0  0
 16 15  1  0  0  0  0
 17  1  1  0  0  0  0
 18 15  1  0  0  0  0
 18 20  1  0  0  0  0
 19 17  1  0  0  0  0
 20 17  2  0  0  0  0
 21 26  1  0  0  0  0
 22 23  1  0  0  0  0
 22 25  2  0  0  0  0
 23 21  2  0  0  0  0
 24 26  2  0  0  0  0
 24 13  1  0  0  0  0
 25 24  1  0  0  0  0
M  END
>  <MODEL>
1

>  <REMARK>
 VINA RESULT:      -7.1      0.000      0.000
  Name = 
  2 active torsions:
  status: ('A' for Active; 'I' for Inactive)
    1  A    between atoms: C_2  and  C_8
    2  A    between atoms: C_13  and  P_23
                            x       y       z     vdW  Elec       q    Type
                         _______ _______ _______ _____ _____    ______ ____

>  <TORSDO>
F 2

$$$$
=
 OpenBabel11072414383D

 26 30  0  0  1  0  0  0  0  0999 V2000
  161.4490  211.9940  148.2030 C   0  0  1  0  0  0  0  0  0  0  0  0
  159.4350  210.6840  152.8490 O   0  0  0  0  0  0  0  0  0  0  0  0
  161.9330  210.6890  148.3160 O   0  0  0  0  0  1  0  0  0  0  0  0
  159.7660  212.6640  154.0010 O   0  0  0  0  0  1  0  0  0  0  0  0
  161.6220  211.1930  151.1750 O   0  0  0  0  0  0  0  0  0  0  0  0
  159.8370  213.7940  149.2190 C   0  0  0  0  0  2  0  0  0  0  0  0
  160.4710  211.7780  150.6310 C   0  0  1  0  0  3  0  0  0  0  0  0
  158.7420  213.8350  150.6830 S   0  0  0  0  0  0  0  0  0  0  0  0
  161.9320  210.4790  153.6840 O   0  0  0  0  0  0  0  0  0  0  0  0
  159.9110  212.7920  151.6010 C   0  0  1  0  0  3  0  0  0  0  0  0
  159.2860  212.0960  152.8190 C   0  0  1  0  0  3  0  0  0  0  0  0
  160.7100  212.5600  149.3550 C   0  0  1  0  0  0  0  0  0  0  0  0
  161.0530  210.2510  152.4750 P   0  0  1  0  0  0  0  0  0  0  0  0
  162.0710  212.8570  149.1300 O   0  0  0  0  0  0  0  0  0  0  0  0
  160.6660  213.1900  144.8780 C   0  0  0  0  0  0  0  0  0  0  0  0
  159.9450  213.3240  143.7390 F   0  0  0  0  0  0  0  0  0  0  0  0
  161.3470  212.5920  146.8370 C   0  0  0  0  0  0  0  0  0  0  0  0
  161.8010  213.8100  145.0970 O   0  0  0  0  0  0  0  0  0  0  0  0
  160.3070  212.3990  145.9480 C   0  0  0  0  0  3  0  0  0  0  0  0
  162.2490  213.4780  146.2850 C   0  0  0  0  0  3  0  0  0  0  0  0
  161.1560  206.1850  152.6170 C   0  0  0  0  0  3  0  0  0  0  0  0
  161.3520  206.8320  150.2920 C   0  0  0  0  0  3  0  0  0  0  0  0
  161.2960  205.8350  151.2700 C   0  0  0  0  0  3  0  0  0  0  0  0
  161.1100  208.5290  152.0040 C   0  0  0  0  0  0  0  0  0  0  0  0
  161.2660  208.1780  150.6590 C   0  0  0  0  0  3  0  0  0  0  0  0
  161.0680  207.5310  152.9840 C   0  0  0  0  0  3  0  0  0  0  0  0
  1  3  1  1  0  0  0
  1 14  1  0  0  0  0
  1 12  1  0  0  0  0
  5 13  1  0  0  0  0
  6  8  1  0  0  0  0
  7  5  1  1  0  0  0
  7 10  1  0  0  0  0
 10  8  1  6  0  0  0
 10 11  1  0  0  0  0
 11  2  1  0  0  0  0
 11  4  1  1  0  0  0
 12  6  1  6  0  0  0
 12  7  1  0  0  0  0
 13  2  1  0  0  0  0
 13  9  2  1  0  0  0
 14 12  1  0  0  0  0
 15 18  1  0  0  0  0
 15 19  2  0  0  0  0
 16 15  1  0  0  0  0
 17  1  1  0  0  0  0
 18 20  1  0  0  0  0
 19 17  1  0  0  0  0
 20 17  2  0  0  0  0
 21 26  1  0  0  0  0
 22 25  2  0  0  0  0
 22 23  1  0  0  0  0
 23 21  2  0  0  0  0
 24 13  1  0  0  0  0
 24 26  2  0  0  0  0
 25 24  1  0  0  0  0
M  END
>  <MODEL>
2

>  <REMARK>
 VINA RESULT:      -5.8      2.550      3.455
  Name = 
  2 active torsions:
  status: ('A' for Active; 'I' for Inactive)
    1  A    between atoms: C_2  and  C_8
    2  A    between atoms: C_13  and  P_23
                            x       y       z     vdW  Elec       q    Type
                         _______ _______ _______ _____ _____    ______ ____

>  <TORSDO>
F 2

$$$$
=
 OpenBabel11072414383D

 26 30  0  0  1  0  0  0  0  0999 V2000
  160.8980  208.0500  153.6180 C   0  0  1  0  0  0  0  0  0  0  0  0
  162.3490  206.7160  148.7730 O   0  0  0  0  0  0  0  0  0  0  0  0
  160.5650  206.6950  153.6320 O   0  0  0  0  0  1  0  0  0  0  0  0
  161.6130  208.5760  147.6090 O   0  0  0  0  0  1  0  0  0  0  0  0
  160.3870  207.0660  150.7420 O   0  0  0  0  0  0  0  0  0  0  0  0
  162.1120  209.9610  152.2980 C   0  0  0  0  0  2  0  0  0  0  0  0
  161.5260  207.8090  151.0790 C   0  0  1  0  0  3  0  0  0  0  0  0
  162.9650  210.0440  150.6830 S   0  0  0  0  0  0  0  0  0  0  0  0
  159.7990  206.1800  148.3400 O   0  0  0  0  0  0  0  0  0  0  0  0
  161.8090  208.8230  149.9960 C   0  0  1  0  0  3  0  0  0  0  0  0
  162.3270  208.1350  148.7250 C   0  0  1  0  0  3  0  0  0  0  0  0
  161.3850  208.6300  152.3450 C   0  0  1  0  0  0  0  0  0  0  0  0
  160.8690  206.1230  149.4080 P   0  0  1  0  0  0  0  0  0  0  0  0
  160.0460  208.7820  152.7650 O   0  0  0  0  0  0  0  0  0  0  0  0
  161.1980  210.1730  156.5350 C   0  0  0  0  0  0  0  0  0  0  0  0
  161.1110  211.3130  157.2600 F   0  0  0  0  0  0  0  0  0  0  0  0
  161.1270  208.7330  154.9280 C   0  0  0  0  0  0  0  0  0  0  0  0
  161.6140  209.0290  157.0240 O   0  0  0  0  0  0  0  0  0  0  0  0
  160.8620  210.0610  155.2020 C   0  0  0  0  0  3  0  0  0  0  0  0
  161.5820  208.1210  156.0780 C   0  0  0  0  0  3  0  0  0  0  0  0
  161.0620  202.0580  149.4780 C   0  0  0  0  0  3  0  0  0  0  0  0
  161.4950  202.8410  151.7280 C   0  0  0  0  0  3  0  0  0  0  0  0
  161.3470  201.7890  150.8210 C   0  0  0  0  0  3  0  0  0  0  0  0
  161.0910  204.4350  149.9490 C   0  0  0  0  0  0  0  0  0  0  0  0
  161.3610  204.1640  151.2940 C   0  0  0  0  0  3  0  0  0  0  0  0
  160.9290  203.3800  149.0440 C   0  0  0  0  0  3  0  0  0  0  0  0
  1  3  1  1  0  0  0
  1 17  1  0  0  0  0
  2 13  1  0  0  0  0
  7  5  1  6  0  0  0
  7 12  1  0  0  0  0
  8  6  1  0  0  0  0
 10  8  1  1  0  0  0
 10  7  1  0  0  0  0
 11  4  1  6  0  0  0
 11  2  1  0  0  0  0
 11 10  1  0  0  0  0
 12  6  1  1  0  0  0
 12 14  1  0  0  0  0
 12  1  1  0  0  0  0
 13  9  2  6  0  0  0
 13 24  1  0  0  0  0
 13  5  1  0  0  0  0
 14  1  1  0  0  0  0
 15 18  1  0  0  0  0
 15 16  1  0  0  0  0
 17 19  1  0  0  0  0
 17 20  2  0  0  0  0
 19 15  2  0  0  0  0
 20 18  1  0  0  0  0
 21 23  1  0  0  0  0
 23 22  2  0  0  0  0
 24 25  2  0  0  0  0
 25 22  1  0  0  0  0
 26 21  2  0  0  0  0
 26 24  1  0  0  0  0
M  END
>  <MODEL>
3

>  <REMARK>
 VINA RESULT:      -5.7      3.261      5.582
  Name = 
  2 active torsions:
  status: ('A' for Active; 'I' for Inactive)
    1  A    between atoms: C_2  and  C_8
    2  A    between atoms: C_13  and  P_23
                            x       y       z     vdW  Elec       q    Type
                         _______ _______ _______ _____ _____    ______ ____

>  <TORSDO>
F 2

$$$$
=
 OpenBabel11072414383D

 26 30  0  0  1  0  0  0  0  0999 V2000
  161.4290  205.0260  151.5320 C   0  0  1  0  0  0  0  0  0  0  0  0
  160.9700  210.2290  151.2610 O   0  0  0  0  0  0  0  0  0  0  0  0
  161.1630  205.3140  152.8720 O   0  0  0  0  0  1  0  0  0  0  0  0
  162.6920  210.7060  149.7890 O   0  0  0  0  0  1  0  0  0  0  0  0
  162.2720  207.9210  152.1690 O   0  0  0  0  0  0  0  0  0  0  0  0
  161.5190  205.9840  149.0940 C   0  0  0  0  0  2  0  0  0  0  0  0
  161.4910  207.6070  151.0500 C   0  0  1  0  0  3  0  0  0  0  0  0
  161.2590  207.6440  148.3730 S   0  0  0  0  0  0  0  0  0  0  0  0
  163.0910  210.3280  152.8330 O   0  0  0  0  0  0  0  0  0  0  0  0
  161.9580  208.4130  149.8620 C   0  0  1  0  0  3  0  0  0  0  0  0
  161.5810  209.8940  150.0230 C   0  0  1  0  0  3  0  0  0  0  0  0
  161.5960  206.1640  150.5990 C   0  0  1  0  0  0  0  0  0  0  0  0
  161.8400  209.5220  152.5600 P   0  0  1  0  0  0  0  0  0  0  0  0
  162.7060  205.4870  151.1490 O   0  0  0  0  0  0  0  0  0  0  0  0
  160.5080  201.9490  149.8620 C   0  0  0  0  0  0  0  0  0  0  0  0
  159.9550  201.1690  148.9030 F   0  0  0  0  0  0  0  0  0  0  0  0
  161.1440  203.6440  151.0380 C   0  0  0  0  0  0  0  0  0  0  0  0
  161.1700  201.4770  150.8920 O   0  0  0  0  0  0  0  0  0  0  0  0
  160.4560  203.3270  149.8830 C   0  0  0  0  0  3  0  0  0  0  0  0
  161.5810  202.4780  151.6330 C   0  0  0  0  0  3  0  0  0  0  0  0
  159.2550  210.6090  155.5100 C   0  0  0  0  0  3  0  0  0  0  0  0
  160.0560  208.3840  156.0340 C   0  0  0  0  0  3  0  0  0  0  0  0
  159.2670  209.4930  156.3530 C   0  0  0  0  0  3  0  0  0  0  0  0
  160.8090  209.4980  154.0180 C   0  0  0  0  0  0  0  0  0  0  0  0
  160.8310  208.3890  154.8700 C   0  0  0  0  0  3  0  0  0  0  0  0
  160.0300  210.6130  154.3460 C   0  0  0  0  0  3  0  0  0  0  0  0
  1  3  1  1  0  0  0
  2 13  1  0  0  0  0
  5 13  1  0  0  0  0
  7  5  1  1  0  0  0
  8  6  1  0  0  0  0
 10  8  1  6  0  0  0
 10 11  1  0  0  0  0
 10  7  1  0  0  0  0
 11  4  1  1  0  0  0
 11  2  1  0  0  0  0
 12  6  1  6  0  0  0
 12  7  1  0  0  0  0
 12 14  1  0  0  0  0
 12  1  1  0  0  0  0
 13  9  2  1  0  0  0
 13 24  1  0  0  0  0
 14  1  1  0  0  0  0
 15 19  2  0  0  0  0
 15 18  1  0  0  0  0
 16 15  1  0  0  0  0
 17  1  1  0  0  0  0
 17 20  2  0  0  0  0
 18 20  1  0  0  0  0
 19 17  1  0  0  0  0
 21 23  1  0  0  0  0
 22 23  2  0  0  0  0
 24 26  1  0  0  0  0
 24 25  2  0  0  0  0
 25 22  1  0  0  0  0
 26 21  2  0  0  0  0
M  END
>  <MODEL>
4

>  <REMARK>
 VINA RESULT:      -5.4      3.530      7.301
  Name = 
  2 active torsions:
  status: ('A' for Active; 'I' for Inactive)
    1  A    between atoms: C_2  and  C_8
    2  A    between atoms: C_13  and  P_23
                            x       y       z     vdW  Elec       q    Type
                         _______ _______ _______ _____ _____    ______ ____

>  <TORSDO>
F 2

$$$$
=
 OpenBabel11072414383D

 26 30  0  0  1  0  0  0  0  0999 V2000
  161.0150  206.2070  149.2500 C   0  0  1  0  0  0  0  0  0  0  0  0
  162.0660  209.7970  152.9060 O   0  0  0  0  0  0  0  0  0  0  0  0
  160.8680  207.3710  148.4940 O   0  0  0  0  0  1  0  0  0  0  0  0
  160.9630  208.8610  154.7130 O   0  0  0  0  0  1  0  0  0  0  0  0
  160.3140  208.5750  151.0940 O   0  0  0  0  0  0  0  0  0  0  0  0
  161.8070  205.2060  151.5390 C   0  0  0  0  0  2  0  0  0  0  0  0
  161.3750  207.7050  151.3770 C   0  0  1  0  0  3  0  0  0  0  0  0
  162.4520  205.9340  153.0870 S   0  0  0  0  0  0  0  0  0  0  0  0
  159.5770  210.6160  152.5760 O   0  0  0  0  0  0  0  0  0  0  0  0
  161.3960  207.3930  152.8540 C   0  0  1  0  0  3  0  0  0  0  0  0
  161.8510  208.6160  153.6650 C   0  0  1  0  0  3  0  0  0  0  0  0
  161.2730  206.3530  150.7010 C   0  0  1  0  0  0  0  0  0  0  0  0
  160.7590  210.0490  151.8220 P   0  0  1  0  0  0  0  0  0  0  0  0
  159.9820  206.0760  150.2010 O   0  0  0  0  0  0  0  0  0  0  0  0
  161.3620  202.8610  147.9130 C   0  0  0  0  0  0  0  0  0  0  0  0
  161.2040  201.5170  147.8620 F   0  0  0  0  0  0  0  0  0  0  0  0
  161.3010  204.9300  148.5290 C   0  0  0  0  0  0  0  0  0  0  0  0
  161.9860  203.5560  146.9910 O   0  0  0  0  0  0  0  0  0  0  0  0
  160.8890  203.6710  148.9230 C   0  0  0  0  0  3  0  0  0  0  0  0
  161.9680  204.8250  147.3240 C   0  0  0  0  0  3  0  0  0  0  0  0
  161.0330  213.3310  149.4310 C   0  0  0  0  0  3  0  0  0  0  0  0
  162.5690  211.6730  148.5610 C   0  0  0  0  0  3  0  0  0  0  0  0
  161.9860  212.9410  148.4840 C   0  0  0  0  0  3  0  0  0  0  0  0
  161.2630  211.1900  150.5440 C   0  0  0  0  0  0  0  0  0  0  0  0
  162.2040  210.7960  149.5870 C   0  0  0  0  0  3  0  0  0  0  0  0
  160.6690  212.4540  150.4570 C   0  0  0  0  0  3  0  0  0  0  0  0
  1  3  1  6  0  0  0
  1 14  1  0  0  0  0
  1 12  1  0  0  0  0
  2 11  1  0  0  0  0
  5 13  1  0  0  0  0
  6  8  1  0  0  0  0
  7  5  1  1  0  0  0
  7 10  1  0  0  0  0
 10  8  1  6  0  0  0
 10 11  1  0  0  0  0
 11  4  1  1  0  0  0
 12  7  1  0  0  0  0
 12  6  1  1  0  0  0
 13  9  2  1  0  0  0
 13  2  1  0  0  0  0
 14 12  1  0  0  0  0
 15 19  2  0  0  0  0
 16 15  1  0  0  0  0
 17 19  1  0  0  0  0
 17  1  1  0  0  0  0
 18 20  1  0  0  0  0
 18 15  1  0  0  0  0
 20 17  2  0  0  0  0
 21 26  1  0  0  0  0
 22 25  2  0  0  0  0
 23 22  1  0  0  0  0
 23 21  2  0  0  0  0
 24 13  1  0  0  0  0
 25 24  1  0  0  0  0
 26 24  2  0  0  0  0
M  END
>  <MODEL>
5

>  <REMARK>
 VINA RESULT:      -4.5      3.428      6.574
  Name = 
  2 active torsions:
  status: ('A' for Active; 'I' for Inactive)
    1  A    between atoms: C_2  and  C_8
    2  A    between atoms: C_13  and  P_23
                            x       y       z     vdW  Elec       q    Type
                         _______ _______ _______ _____ _____    ______ ____

>  <TORSDO>
F 2

$$$$
=
 OpenBabel11072414383D

 26 30  0  0  1  0  0  0  0  0999 V2000
  159.9670  213.0680  142.4650 C   0  0  1  0  0  0  0  0  0  0  0  0
  159.2490  209.9860  138.3010 O   0  0  0  0  0  0  0  0  0  0  0  0
  158.5800  213.1550  142.3380 O   0  0  0  0  0  1  0  0  0  0  0  0
  161.0600  210.6300  137.0110 O   0  0  0  0  0  1  0  0  0  0  0  0
  159.1420  212.4900  139.5520 O   0  0  0  0  0  0  0  0  0  0  0  0
  162.1380  211.8480  141.6480 C   0  0  0  0  0  2  0  0  0  0  0  0
  160.0220  211.6550  140.2530 C   0  0  1  0  0  3  0  0  0  0  0  0
  162.4740  210.5630  140.3910 S   0  0  0  0  0  0  0  0  0  0  0  0
  158.3650  212.1470  137.0660 O   0  0  0  0  0  0  0  0  0  0  0  0
  161.1480  211.2260  139.3420 C   0  0  1  0  0  3  0  0  0  0  0  0
  160.6480  210.2320  138.2840 C   0  0  1  0  0  3  0  0  0  0  0  0
  160.7110  212.3170  141.4280 C   0  0  1  0  0  0  0  0  0  0  0  0
  158.3900  211.4670  138.4170 P   0  0  1  0  0  0  0  0  0  0  0  0
  160.6240  213.7260  141.4040 O   0  0  0  0  0  0  0  0  0  0  0  0
  161.2240  213.2820  145.8530 C   0  0  0  0  0  0  0  0  0  0  0  0
  161.4140  212.9000  147.1390 F   0  0  0  0  0  0  0  0  0  0  0  0
  160.5740  213.3740  143.7970 C   0  0  0  0  0  0  0  0  0  0  0  0
  161.7570  214.3600  145.3290 O   0  0  0  0  0  0  0  0  0  0  0  0
  160.4610  212.5960  144.9330 C   0  0  0  0  0  3  0  0  0  0  0  0
  161.3910  214.4530  144.0720 C   0  0  0  0  0  3  0  0  0  0  0  0
  154.9000  209.5850  139.3330 C   0  0  0  0  0  3  0  0  0  0  0  0
  154.5640  211.9530  139.7120 C   0  0  0  0  0  3  0  0  0  0  0  0
  154.0720  210.6450  139.7170 C   0  0  0  0  0  3  0  0  0  0  0  0
  156.7190  211.1410  138.9580 C   0  0  0  0  0  0  0  0  0  0  0  0
  155.8860  212.2020  139.3270 C   0  0  0  0  0  3  0  0  0  0  0  0
  156.2200  209.8340  138.9500 C   0  0  0  0  0  3  0  0  0  0  0  0
  1  3  1  6  0  0  0
  1 17  1  0  0  0  0
  2 13  1  0  0  0  0
  7  5  1  6  0  0  0
  7 12  1  0  0  0  0
  8  6  1  0  0  0  0
 10  7  1  0  0  0  0
 10  8  1  1  0  0  0
 11  4  1  6  0  0  0
 11  2  1  0  0  0  0
 11 10  1  0  0  0  0
 12  6  1  1  0  0  0
 12  1  1  0  0  0  0
 13  9  2  6  0  0  0
 13 24  1  0  0  0  0
 13  5  1  0  0  0  0
 14 12  1  0  0  0  0
 14  1  1  0  0  0  0
 15 16  1  0  0  0  0
 17 20  2  0  0  0  0
 17 19  1  0  0  0  0
 18 15  1  0  0  0  0
 19 15  2  0  0  0  0
 20 18  1  0  0  0  0
 21 23  1  0  0  0  0
 22 23  2  0  0  0  0
 24 25  2  0  0  0  0
 25 22  1  0  0  0  0
 26 24  1  0  0  0  0
 26 21  2  0  0  0  0
M  END
>  <MODEL>
6

>  <REMARK>
 VINA RESULT:      -4.3      8.365     11.776
  Name = 
  2 active torsions:
  status: ('A' for Active; 'I' for Inactive)
    1  A    between atoms: C_2  and  C_8
    2  A    between atoms: C_13  and  P_23
                            x       y       z     vdW  Elec       q    Type
                         _______ _______ _______ _____ _____    ______ ____

>  <TORSDO>
F 2

$$$$
=
 OpenBabel11072414383D

 26 30  0  0  1  0  0  0  0  0999 V2000
  161.1290  209.2170  139.2950 C   0  0  1  0  0  0  0  0  0  0  0  0
  157.1750  212.5120  140.2250 O   0  0  0  0  0  0  0  0  0  0  0  0
  161.6360  209.8940  140.4050 O   0  0  0  0  0  1  0  0  0  0  0  0
  156.6230  213.0960  138.0540 O   0  0  0  0  0  1  0  0  0  0  0  0
  159.8340  212.0060  139.5030 O   0  0  0  0  0  0  0  0  0  0  0  0
  159.0230  208.8160  137.7880 C   0  0  0  0  0  2  0  0  0  0  0  0
  159.0700  210.8470  139.3150 C   0  0  1  0  0  3  0  0  0  0  0  0
  157.3320  209.5130  137.7580 S   0  0  0  0  0  0  0  0  0  0  0  0
  158.8840  214.4490  139.6750 O   0  0  0  0  0  0  0  0  0  0  0  0
  157.9730  211.1190  138.3130 C   0  0  1  0  0  3  0  0  0  0  0  0
  156.8960  212.0330  138.9170 C   0  0  1  0  0  3  0  0  0  0  0  0
  159.8390  209.6780  138.7330 C   0  0  1  0  0  0  0  0  0  0  0  0
  158.7910  213.0810  140.3140 P   0  0  1  0  0  0  0  0  0  0  0  0
  161.0740  210.0530  138.1600 O   0  0  0  0  0  0  0  0  0  0  0  0
  162.5010  206.1320  137.9890 C   0  0  0  0  0  0  0  0  0  0  0  0
  162.9540  205.2690  137.0480 F   0  0  0  0  0  0  0  0  0  0  0  0
  161.6780  207.8610  138.9850 C   0  0  0  0  0  0  0  0  0  0  0  0
  162.4850  205.8650  139.2740 O   0  0  0  0  0  0  0  0  0  0  0  0
  162.0070  207.3920  137.7280 C   0  0  0  0  0  3  0  0  0  0  0  0
  161.9950  206.8960  139.9200 C   0  0  0  0  0  3  0  0  0  0  0  0
  159.0570  214.1720  144.2260 C   0  0  0  0  0  3  0  0  0  0  0  0
  160.7920  212.5340  143.8130 C   0  0  0  0  0  3  0  0  0  0  0  0
  160.1330  213.4050  144.6850 C   0  0  0  0  0  3  0  0  0  0  0  0
  159.2890  213.1810  142.0260 C   0  0  0  0  0  0  0  0  0  0  0  0
  160.3740  212.4270  142.4820 C   0  0  0  0  0  3  0  0  0  0  0  0
  158.6390  214.0630  142.8970 C   0  0  0  0  0  3  0  0  0  0  0  0
  1  3  1  1  0  0  0
  2 13  1  0  0  0  0
  5 13  1  0  0  0  0
  7  5  1  6  0  0  0
  8  6  1  0  0  0  0
 10  8  1  1  0  0  0
 10 11  1  0  0  0  0
 10  7  1  0  0  0  0
 11  4  1  6  0  0  0
 11  2  1  0  0  0  0
 12  6  1  6  0  0  0
 12  1  1  0  0  0  0
 12  7  1  0  0  0  0
 13  9  2  6  0  0  0
 13 24  1  0  0  0  0
 14 12  1  0  0  0  0
 14  1  1  0  0  0  0
 15 18  1  0  0  0  0
 16 15  1  0  0  0  0
 17  1  1  0  0  0  0
 17 20  2  0  0  0  0
 18 20  1  0  0  0  0
 19 15  2  0  0  0  0
 19 17  1  0  0  0  0
 21 23  1  0  0  0  0
 22 23  2  0  0  0  0
 24 25  2  0  0  0  0
 24 26  1  0  0  0  0
 25 22  1  0  0  0  0
 26 21  2  0  0  0  0
M  END
>  <MODEL>
7

>  <REMARK>
 VINA RESULT:      -4.2      9.964     12.751
  Name = 
  2 active torsions:
  status: ('A' for Active; 'I' for Inactive)
    1  A    between atoms: C_2  and  C_8
    2  A    between atoms: C_13  and  P_23
                            x       y       z     vdW  Elec       q    Type
                         _______ _______ _______ _____ _____    ______ ____

>  <TORSDO>
F 2

$$$$
=
 OpenBabel11072414383D

 26 30  0  0  1  0  0  0  0  0999 V2000
  160.8070  205.3270  150.4840 C   0  0  1  0  0  0  0  0  0  0  0  0
  162.4370  204.3320  145.6150 O   0  0  0  0  0  0  0  0  0  0  0  0
  160.4510  203.9810  150.3810 O   0  0  0  0  0  1  0  0  0  0  0  0
  161.7810  206.2890  144.5670 O   0  0  0  0  0  1  0  0  0  0  0  0
  160.4010  204.5720  147.5240 O   0  0  0  0  0  0  0  0  0  0  0  0
  162.1060  207.3080  149.3630 C   0  0  0  0  0  2  0  0  0  0  0  0
  161.5360  205.2660  147.9620 C   0  0  1  0  0  3  0  0  0  0  0  0
  163.0280  207.4950  147.7950 S   0  0  0  0  0  0  0  0  0  0  0  0
  159.8990  203.8810  145.0390 O   0  0  0  0  0  0  0  0  0  0  0  0
  161.8820  206.3520  146.9710 C   0  0  1  0  0  3  0  0  0  0  0  0
  162.4410  205.7510  145.6730 C   0  0  1  0  0  3  0  0  0  0  0  0
  161.3560  205.9910  149.2800 C   0  0  1  0  0  0  0  0  0  0  0  0
  160.9220  203.7230  146.1420 P   0  0  1  0  0  0  0  0  0  0  0  0
  160.0030  206.1380  149.6550 O   0  0  0  0  0  0  0  0  0  0  0  0
  161.0620  207.2320  153.5520 C   0  0  0  0  0  0  0  0  0  0  0  0
  161.0150  208.3280  154.3460 F   0  0  0  0  0  0  0  0  0  0  0  0
  160.9920  205.9050  151.8500 C   0  0  0  0  0  0  0  0  0  0  0  0
  161.3420  206.0280  153.9910 O   0  0  0  0  0  0  0  0  0  0  0  0
  160.8190  207.2320  152.1950 C   0  0  0  0  0  3  0  0  0  0  0  0
  161.3050  205.1850  152.9860 C   0  0  0  0  0  3  0  0  0  0  0  0
  161.6290  200.2710  148.1790 C   0  0  0  0  0  3  0  0  0  0  0  0
  161.1060  199.6670  145.8930 C   0  0  0  0  0  3  0  0  0  0  0  0
  161.4520  199.2930  147.1940 C   0  0  0  0  0  3  0  0  0  0  0  0
  161.0930  201.9950  146.5630 C   0  0  0  0  0  0  0  0  0  0  0  0
  160.9320  201.0180  145.5760 C   0  0  0  0  0  3  0  0  0  0  0  0
  161.4540  201.6210  147.8620 C   0  0  0  0  0  3  0  0  0  0  0  0
  1  3  1  6  0  0  0
  1 17  1  0  0  0  0
  2 11  1  0  0  0  0
  2 13  1  0  0  0  0
  7  5  1  6  0  0  0
  7 12  1  0  0  0  0
  8  6  1  0  0  0  0
 10  8  1  1  0  0  0
 10  7  1  0  0  0  0
 11  4  1  6  0  0  0
 11 10  1  0  0  0  0
 12  6  1  1  0  0  0
 12 14  1  0  0  0  0
 12  1  1  0  0  0  0
 13  9  2  6  0  0  0
 13 24  1  0  0  0  0
 13  5  1  0  0  0  0
 14  1  1  0  0  0  0
 15 18  1  0  0  0  0
 15 16  1  0  0  0  0
 17 19  1  0  0  0  0
 17 20  2  0  0  0  0
 19 15  2  0  0  0  0
 20 18  1  0  0  0  0
 22 23  1  0  0  0  0
 23 21  2  0  0  0  0
 24 26  2  0  0  0  0
 25 22  2  0  0  0  0
 25 24  1  0  0  0  0
 26 21  1  0  0  0  0
M  END
>  <MODEL>
8

>  <REMARK>
 VINA RESULT:      -4.2      4.249      6.849
  Name = 
  2 active torsions:
  status: ('A' for Active; 'I' for Inactive)
    1  A    between atoms: C_2  and  C_8
    2  A    between atoms: C_13  and  P_23
                            x       y       z     vdW  Elec       q    Type
                         _______ _______ _______ _____ _____    ______ ____

>  <TORSDO>
F 2

$$$$
