=
 OpenBabel11072410553D

 42 48  0  0  1  0  0  0  0  0999 V2000
  162.6660  207.6880  150.5970 C   0  0  0  0  0  0  0  0  0  0  0  0
  161.7560  205.2680  150.9370 C   0  0  0  0  0  3  0  0  0  0  0  0
  162.2130  209.9980  150.7870 N   0  0  0  0  0  2  0  0  0  0  0  0
  162.3270  208.7620  151.5570 C   0  0  0  0  0  2  0  0  0  0  0  0
  162.0620  209.5890  149.3940 C   0  0  2  0  0  3  0  0  0  0  0  0
  162.2150  206.4790  150.7780 C   0  0  0  0  0  0  0  0  0  0  0  0
  162.7290  208.2390  149.2360 C   0  0  0  0  0  2  0  0  0  0  0  0
  161.2850  202.3890  149.5210 C   0  0  2  0  0  3  0  0  0  0  0  0
  161.0050  204.1930  147.6970 C   0  0  0  0  0  0  0  0  0  0  0  0
  161.2650  201.8150  147.1180 C   0  0  0  0  0  3  0  0  0  0  0  0
  160.5520  206.8740  146.9830 C   0  0  0  0  0  3  0  0  0  0  0  0
  161.8360  200.1290  148.8140 N   0  0  0  0  0  2  0  0  0  0  0  0
  160.4510  206.4800  148.3180 C   0  0  0  0  0  3  0  0  0  0  0  0
  161.3110  200.3500  147.4660 C   0  0  0  0  0  2  0  0  0  0  0  0
  161.0970  204.6040  146.3570 C   0  0  0  0  0  3  0  0  0  0  0  0
  159.6760  202.8650  151.2100 O   0  0  0  0  0  0  0  0  0  0  0  0
  160.5690  204.7830  150.1610 C   0  0  2  0  0  3  0  0  0  0  0  0
  161.0230  200.9000  149.7510 C   0  0  0  0  0  2  0  0  0  0  0  0
  160.4300  203.3010  150.3540 C   0  0  0  0  0  0  0  0  0  0  0  0
  161.1730  202.7630  148.0620 C   0  0  0  0  0  0  0  0  0  0  0  0
  160.8780  205.9370  146.0030 C   0  0  0  0  0  3  0  0  0  0  0  0
  160.6790  205.1490  148.6930 C   0  0  0  0  0  0  0  0  0  0  0  0
  159.5170  212.0430  152.2240 O   0  0  0  0  0  0  0  0  0  0  0  0
  159.9360  212.6370  151.1960 C   0  0  0  0  0  0  0  0  0  0  0  0
  161.2130  212.4340  149.1750 C   0  0  0  0  0  0  0  0  0  0  0  0
  160.9340  214.1670  147.4660 C   0  0  0  0  0  3  0  0  0  0  0  0
  162.9970  212.6780  147.3820 C   0  0  0  0  0  2  0  0  0  0  0  0
  162.3000  211.8080  148.3800 C   0  0  0  0  0  0  0  0  0  0  0  0
  159.4110  214.2590  149.3800 C   0  0  0  0  0  2  0  0  0  0  0  0
  160.8800  211.9750  150.3460 N   0  0  0  0  0  0  0  0  0  0  0  0
  160.5710  213.6600  148.6470 C   0  0  0  0  0  0  0  0  0  0  0  0
  159.5370  214.0710  150.9020 C   0  0  1  0  0  3  0  0  0  0  0  0
  161.9720  213.5030  146.5930 C   0  0  2  0  0  3  0  0  0  0  0  0
  162.6810  210.5680  148.5090 N   0  0  0  0  0  0  0  0  0  0  0  0
  156.5370  213.3590  152.5510 C   0  0  0  0  0  2  0  0  0  0  0  0
  157.3400  213.4540  151.3460 N   0  0  0  0  0  2  0  0  0  0  0  0
  158.2960  214.4530  151.5950 N   0  0  1  0  0  0  0  0  0  0  0  0
  157.3140  213.8740  153.6600 N   0  0  0  0  0  2  0  0  0  0  0  0
  158.5070  214.4130  153.0380 C   0  0  0  0  0  2  0  0  0  0  0  0
  162.6140  214.4520  145.7420 O   0  0  0  0  0  0  0  0  0  0  0  0
  163.0740  214.1350  144.4770 N   0  0  0  0  0  2  0  0  0  0  0  0
  162.8740  213.0140  143.9660 O   0  0  0  0  0  1  0  0  0  0  0  0
  1  6  2  0  0  0  0
  1  4  1  0  0  0  0
  3  4  1  0  0  0  0
  5 34  1  6  0  0  0
  5  3  1  0  0  0  0
  6  2  2  0  0  0  0
  7  5  1  0  0  0  0
  7  1  1  0  0  0  0
  8 18  1  6  0  0  0
  8 19  1  0  0  0  0
  9 20  1  0  0  0  0
  9 22  1  0  0  0  0
 10 14  1  0  0  0  0
 10 20  2  0  0  0  0
 11 13  1  0  0  0  0
 12 18  1  0  0  0  0
 13 22  2  0  0  0  0
 14 12  1  0  0  0  0
 15  9  2  0  0  0  0
 17 19  1  0  0  0  0
 17  2  1  1  0  0  0
 19 16  2  0  0  0  0
 20  8  1  0  0  0  0
 21 15  1  0  0  0  0
 21 11  2  0  0  0  0
 22 17  1  0  0  0  0
 24 23  2  0  0  0  0
 25 30  2  0  0  0  0
 26 31  2  0  0  0  0
 27 28  1  0  0  0  0
 28 34  2  0  0  0  0
 28 25  1  0  0  0  0
 30 24  1  0  0  0  0
 31 25  1  0  0  0  0
 31 29  1  0  0  0  0
 32 29  1  6  0  0  0
 32 24  1  0  0  0  0
 32 37  1  0  0  0  0
 33 40  1  1  0  0  0
 33 27  1  0  0  0  0
 33 26  1  0  0  0  0
 35 38  1  0  0  0  0
 36 37  1  0  0  0  0
 36 35  1  0  0  0  0
 37 39  1  1  0  0  0
 39 38  1  0  0  0  0
 41 40  1  0  0  0  0
 42 41  1  0  0  0  0
M  END
>  <MODEL>
1

>  <REMARK>
 VINA RESULT:      -8.0      0.000      0.000
  Name = 
  5 active torsions:
  status: ('A' for Active; 'I' for Inactive)
    1  A    between atoms: N_1  and  O_26
    2  A    between atoms: C_9  and  C_24
    3  A    between atoms: O_26  and  C_38
    4  A    between atoms: C_27  and  N_41
    5  A    between atoms: N_33  and  C_34
                            x       y       z     vdW  Elec       q    Type
                         _______ _______ _______ _____ _____    ______ ____

>  <TORSDO>
F 5

$$$$
=
 OpenBabel11072410553D

 42 48  0  0  1  0  0  0  0  0999 V2000
  160.9920  210.8980  156.5770 C   0  0  0  0  0  0  0  0  0  0  0  0
  159.4790  212.9670  157.0580 C   0  0  0  0  0  3  0  0  0  0  0  0
  162.6200  209.9480  155.1530 N   0  0  0  0  0  2  0  0  0  0  0  0
  162.3630  211.0740  156.0470 C   0  0  0  0  0  2  0  0  0  0  0  0
  161.3120  209.3800  154.8390 C   0  0  2  0  0  3  0  0  0  0  0  0
  160.2450  211.9370  156.8230 C   0  0  0  0  0  0  0  0  0  0  0  0
  160.3840  209.6940  155.9940 C   0  0  0  0  0  2  0  0  0  0  0  0
  156.5040  211.7450  156.6420 C   0  0  2  0  0  3  0  0  0  0  0  0
  157.7160  211.5980  154.3680 C   0  0  0  0  0  0  0  0  0  0  0  0
  155.6270  210.3660  154.7880 C   0  0  0  0  0  3  0  0  0  0  0  0
  159.7990  212.4220  152.6690 C   0  0  0  0  0  3  0  0  0  0  0  0
  154.6270  210.2500  157.0320 N   0  0  0  0  0  2  0  0  0  0  0  0
  159.6030  213.0610  153.8940 C   0  0  0  0  0  3  0  0  0  0  0  0
  154.3960  210.0570  155.5990 C   0  0  0  0  0  2  0  0  0  0  0  0
  157.9220  210.9700  153.1290 C   0  0  0  0  0  3  0  0  0  0  0  0
  156.4830  214.0440  157.2600 O   0  0  0  0  0  0  0  0  0  0  0  0
  158.4190  213.3800  156.0820 C   0  0  2  0  0  3  0  0  0  0  0  0
  155.1010  211.6170  157.2360 C   0  0  0  0  0  2  0  0  0  0  0  0
  157.0690  213.1360  156.6920 C   0  0  0  0  0  0  0  0  0  0  0  0
  156.5720  211.2100  155.2310 C   0  0  0  0  0  0  0  0  0  0  0  0
  158.9600  211.3750  152.2870 C   0  0  0  0  0  3  0  0  0  0  0  0
  158.5740  212.6590  154.7570 C   0  0  0  0  0  0  0  0  0  0  0  0
  162.4860  211.1570  150.8430 O   0  0  0  0  0  0  0  0  0  0  0  0
  162.2370  209.9240  150.8500 C   0  0  0  0  0  0  0  0  0  0  0  0
  161.5750  208.0470  152.1900 C   0  0  0  0  0  0  0  0  0  0  0  0
  160.7900  206.0340  151.0340 C   0  0  0  0  0  3  0  0  0  0  0  0
  161.5430  205.8440  153.4570 C   0  0  0  0  0  2  0  0  0  0  0  0
  161.5030  207.3390  153.4940 C   0  0  0  0  0  0  0  0  0  0  0  0
  161.1840  208.0130  149.6480 C   0  0  0  0  0  2  0  0  0  0  0  0
  162.0230  209.2650  152.1050 N   0  0  0  0  0  0  0  0  0  0  0  0
  161.2110  207.3000  150.9630 C   0  0  0  0  0  0  0  0  0  0  0  0
  162.2600  209.1100  149.5690 C   0  0  1  0  0  3  0  0  0  0  0  0
  160.6200  205.3170  152.3510 C   0  0  2  0  0  3  0  0  0  0  0  0
  161.4180  207.9400  154.6480 N   0  0  0  0  0  0  0  0  0  0  0  0
  161.3320  212.0660  147.9460 C   0  0  0  0  0  2  0  0  0  0  0  0
  161.0060  210.8230  148.6210 N   0  0  0  0  0  2  0  0  0  0  0  0
  162.0810  209.9540  148.3760 N   0  0  1  0  0  0  0  0  0  0  0  0
  162.7700  212.1270  147.7740 N   0  0  0  0  0  2  0  0  0  0  0  0
  163.2370  210.8290  148.2160 C   0  0  0  0  0  2  0  0  0  0  0  0
  160.7540  203.9060  152.1920 O   0  0  0  0  0  0  0  0  0  0  0  0
  160.9770  203.3060  150.9660 N   0  0  0  0  0  2  0  0  0  0  0  0
  161.2050  202.0830  150.8630 O   0  0  0  0  0  1  0  0  0  0  0  0
  1  6  2  0  0  0  0
  3  4  1  0  0  0  0
  4  1  1  0  0  0  0
  5 34  1  1  0  0  0
  5  3  1  0  0  0  0
  5  7  1  0  0  0  0
  6  2  2  0  0  0  0
  7  1  1  0  0  0  0
  8 19  1  0  0  0  0
  8 18  1  6  0  0  0
  9 22  1  0  0  0  0
  9 20  1  0  0  0  0
 10 20  2  0  0  0  0
 10 14  1  0  0  0  0
 11 13  1  0  0  0  0
 12 18  1  0  0  0  0
 13 22  2  0  0  0  0
 14 12  1  0  0  0  0
 15  9  2  0  0  0  0
 17 19  1  0  0  0  0
 17  2  1  1  0  0  0
 19 16  2  0  0  0  0
 20  8  1  0  0  0  0
 21 11  2  0  0  0  0
 21 15  1  0  0  0  0
 22 17  1  0  0  0  0
 23 24  2  0  0  0  0
 24 30  1  0  0  0  0
 25 28  1  0  0  0  0
 26 33  1  0  0  0  0
 27 28  1  0  0  0  0
 28 34  2  0  0  0  0
 29 31  1  0  0  0  0
 30 25  2  0  0  0  0
 31 26  2  0  0  0  0
 31 25  1  0  0  0  0
 32 29  1  1  0  0  0
 32 24  1  0  0  0  0
 33 40  1  6  0  0  0
 33 27  1  0  0  0  0
 35 36  1  0  0  0  0
 37 39  1  1  0  0  0
 37 36  1  0  0  0  0
 37 32  1  0  0  0  0
 38 35  1  0  0  0  0
 38 39  1  0  0  0  0
 41 40  1  0  0  0  0
 42 41  1  0  0  0  0
M  END
>  <MODEL>
2

>  <REMARK>
 VINA RESULT:      -6.9      3.493      9.366
  Name = 
  5 active torsions:
  status: ('A' for Active; 'I' for Inactive)
    1  A    between atoms: N_1  and  O_26
    2  A    between atoms: C_9  and  C_24
    3  A    between atoms: O_26  and  C_38
    4  A    between atoms: C_27  and  N_41
    5  A    between atoms: N_33  and  C_34
                            x       y       z     vdW  Elec       q    Type
                         _______ _______ _______ _____ _____    ______ ____

>  <TORSDO>
F 5

$$$$
=
 OpenBabel11072410553D

 42 48  0  0  1  0  0  0  0  0999 V2000
  162.4040  206.6980  151.5570 C   0  0  0  0  0  0  0  0  0  0  0  0
  161.7060  204.2060  151.2430 C   0  0  0  0  0  3  0  0  0  0  0  0
  161.7760  208.8220  152.3760 N   0  0  0  0  0  2  0  0  0  0  0  0
  162.0210  207.4400  152.7780 C   0  0  0  0  0  2  0  0  0  0  0  0
  161.6000  208.7920  150.9270 C   0  0  2  0  0  3  0  0  0  0  0  0
  162.0590  205.4510  151.4110 C   0  0  0  0  0  0  0  0  0  0  0  0
  162.3660  207.5980  150.3960 C   0  0  0  0  0  2  0  0  0  0  0  0
  161.3760  201.7290  149.1750 C   0  0  2  0  0  3  0  0  0  0  0  0
  160.9330  203.8980  147.8480 C   0  0  0  0  0  0  0  0  0  0  0  0
  161.3240  201.7540  146.7050 C   0  0  0  0  0  3  0  0  0  0  0  0
  160.2950  206.6360  147.8130 C   0  0  0  0  0  3  0  0  0  0  0  0
  162.0460  199.7500  147.9340 N   0  0  0  0  0  2  0  0  0  0  0  0
  160.2550  205.9250  149.0140 C   0  0  0  0  0  3  0  0  0  0  0  0
  161.4700  200.2550  146.6860 C   0  0  0  0  0  2  0  0  0  0  0  0
  160.9620  204.6260  146.6470 C   0  0  0  0  0  3  0  0  0  0  0  0
  159.7870  201.6740  150.9480 O   0  0  0  0  0  0  0  0  0  0  0  0
  160.5300  203.8440  150.3870 C   0  0  2  0  0  3  0  0  0  0  0  0
  161.2130  200.2150  149.0400 C   0  0  0  0  0  2  0  0  0  0  0  0
  160.4890  202.3530  150.2150 C   0  0  0  0  0  0  0  0  0  0  0  0
  161.2000  202.4370  147.8530 C   0  0  0  0  0  0  0  0  0  0  0  0
  160.6510  205.9880  146.6300 C   0  0  0  0  0  3  0  0  0  0  0  0
  160.5760  204.5610  149.0510 C   0  0  0  0  0  0  0  0  0  0  0  0
  158.7820  210.1600  154.1970 O   0  0  0  0  0  0  0  0  0  0  0  0
  159.1290  211.0350  153.3610 C   0  0  0  0  0  0  0  0  0  0  0  0
  160.4230  211.4870  151.3920 C   0  0  0  0  0  0  0  0  0  0  0  0
  159.9450  213.5480  150.1560 C   0  0  0  0  0  3  0  0  0  0  0  0
  162.1690  212.3700  149.7690 C   0  0  0  0  0  2  0  0  0  0  0  0
  161.5770  211.2050  150.5000 C   0  0  0  0  0  0  0  0  0  0  0  0
  158.4200  212.9870  151.9860 C   0  0  0  0  0  2  0  0  0  0  0  0
  160.1450  210.7160  152.4020 N   0  0  0  0  0  0  0  0  0  0  0  0
  159.6430  212.7250  151.1640 C   0  0  0  0  0  0  0  0  0  0  0  0
  158.5650  212.4430  153.4180 C   0  0  1  0  0  3  0  0  0  0  0  0
  161.0550  213.2440  149.1780 C   0  0  2  0  0  3  0  0  0  0  0  0
  162.1000  210.0240  150.3310 N   0  0  0  0  0  0  0  0  0  0  0  0
  156.3430  213.8490  155.7230 C   0  0  0  0  0  2  0  0  0  0  0  0
  157.5320  213.0800  155.4000 N   0  0  0  0  0  2  0  0  0  0  0  0
  157.2870  212.4970  154.1460 N   0  0  1  0  0  0  0  0  0  0  0  0
  155.6520  214.1620  154.4890 N   0  0  0  0  0  2  0  0  0  0  0  0
  156.3800  213.4220  153.4770 C   0  0  0  0  0  2  0  0  0  0  0  0
  161.5820  214.4400  148.6070 O   0  0  0  0  0  0  0  0  0  0  0  0
  162.4790  214.4380  147.5540 N   0  0  0  0  0  2  0  0  0  0  0  0
  163.7130  214.4470  147.7410 O   0  0  0  0  0  1  0  0  0  0  0  0
  1  4  1  0  0  0  0
  2  6  2  0  0  0  0
  3  4  1  0  0  0  0
  5 34  1  6  0  0  0
  5  3  1  0  0  0  0
  6  1  2  0  0  0  0
  7  5  1  0  0  0  0
  7  1  1  0  0  0  0
  8 18  1  6  0  0  0
  8 19  1  0  0  0  0
  9 20  1  0  0  0  0
  9 22  1  0  0  0  0
 10 20  2  0  0  0  0
 11 13  1  0  0  0  0
 12 18  1  0  0  0  0
 13 22  2  0  0  0  0
 14 10  1  0  0  0  0
 14 12  1  0  0  0  0
 15  9  2  0  0  0  0
 17  2  1  1  0  0  0
 19 17  1  0  0  0  0
 19 16  2  0  0  0  0
 20  8  1  0  0  0  0
 21 15  1  0  0  0  0
 21 11  2  0  0  0  0
 22 17  1  0  0  0  0
 24 32  1  0  0  0  0
 24 23  2  0  0  0  0
 25 30  2  0  0  0  0
 26 31  2  0  0  0  0
 27 28  1  0  0  0  0
 28 25  1  0  0  0  0
 30 24  1  0  0  0  0
 31 25  1  0  0  0  0
 31 29  1  0  0  0  0
 32 29  1  6  0  0  0
 32 37  1  0  0  0  0
 33 40  1  1  0  0  0
 33 27  1  0  0  0  0
 33 26  1  0  0  0  0
 34 28  2  0  0  0  0
 36 35  1  0  0  0  0
 37 39  1  6  0  0  0
 37 36  1  0  0  0  0
 38 35  1  0  0  0  0
 39 38  1  0  0  0  0
 41 42  1  0  0  0  0
 41 40  1  0  0  0  0
M  END
>  <MODEL>
3

>  <REMARK>
 VINA RESULT:      -6.5      1.659      2.175
  Name = 
  5 active torsions:
  status: ('A' for Active; 'I' for Inactive)
    1  A    between atoms: N_1  and  O_26
    2  A    between atoms: C_9  and  C_24
    3  A    between atoms: O_26  and  C_38
    4  A    between atoms: C_27  and  N_41
    5  A    between atoms: N_33  and  C_34
                            x       y       z     vdW  Elec       q    Type
                         _______ _______ _______ _____ _____    ______ ____

>  <TORSDO>
F 5

$$$$
