=
 OpenBabel11072410353D

 54 58  0  0  1  0  0  0  0  0999 V2000
  162.2310  203.2280  147.2980 C   0  0  2  0  0  0  0  0  0  0  0  0
  160.9120  206.8390  151.4620 C   0  0  1  0  0  3  0  0  0  0  0  0
  160.7610  208.6400  155.5950 C   0  0  0  0  0  0  0  0  0  0  0  0
  163.3640  205.3950  147.9970 O   0  0  0  0  0  0  0  0  0  0  0  0
  163.2580  202.4550  148.1070 C   0  0  0  0  0  1  0  0  0  0  0  0
  161.6810  208.8230  154.4150 C   0  0  0  0  0  2  0  0  0  0  0  0
  160.6660  207.0670  152.9530 C   0  0  0  0  0  2  0  0  0  0  0  0
  160.6750  207.4930  156.2030 N   0  0  0  0  0  0  0  0  0  0  0  0
  161.2740  204.1810  148.0280 C   0  0  1  0  0  0  0  0  0  0  0  0
  159.9390  205.7460  151.0270 C   0  0  0  0  0  2  0  0  0  0  0  0
  162.9250  206.7450  148.1270 C   0  0  1  0  0  3  0  0  0  0  0  0
  160.4160  204.4310  151.4540 N   0  0  0  0  0  2  0  0  0  0  0  0
  157.5250  212.1500  153.4850 C   0  0  0  0  0  3  0  0  0  0  0  0
  160.0960  205.0600  147.5760 C   0  0  0  0  0  2  0  0  0  0  0  0
  159.9240  209.7130  156.0340 N   0  0  0  0  0  2  0  0  0  0  0  0
  160.6540  208.1090  150.5840 C   0  0  2  0  0  3  0  0  0  0  0  0
  158.0520  212.8720  151.3160 O   0  0  0  0  0  1  0  0  0  0  0  0
  159.3390  203.1350  149.6770 C   0  0  0  0  0  1  0  0  0  0  0  0
  161.6310  202.5520  146.2350 O   0  0  0  0  0  1  0  0  0  0  0  0
  161.3440  208.1800  149.3380 O   0  0  0  0  0  0  0  0  0  0  0  0
  161.5680  204.2800  149.4140 O   0  0  0  0  0  0  0  0  0  0  0  0
  161.1270  211.5320  155.1830 O   0  0  0  0  0  0  0  0  0  0  0  0
  160.3720  206.5760  147.7360 C   0  0  2  0  0  3  0  0  0  0  0  0
  160.0290  211.0730  155.5920 C   0  0  0  0  0  0  0  0  0  0  0  0
  158.3380  212.0930  152.4310 C   0  0  0  0  0  0  0  0  0  0  0  0
  160.8430  209.4220  151.3570 C   0  0  2  0  0  3  0  0  0  0  0  0
  161.5020  206.9080  148.7570 C   0  0  1  0  0  3  0  0  0  0  0  0
  158.3320  212.1400  157.0330 C   0  0  0  0  0  1  0  0  0  0  0  0
  163.9740  207.5080  148.9170 C   0  0  0  0  0  1  0  0  0  0  0  0
  159.0600  207.2840  148.0270 C   0  0  0  0  0  1  0  0  0  0  0  0
  157.7200  211.3690  154.7500 C   0  0  0  0  0  2  0  0  0  0  0  0
  159.5670  211.2470  152.4380 C   0  0  0  0  0  2  0  0  0  0  0  0
  159.6340  210.3390  151.2220 C   0  0  0  0  0  2  0  0  0  0  0  0
  161.3510  206.2580  155.7900 C   0  0  0  0  0  2  0  0  0  0  0  0
  162.3920  206.4760  154.6870 C   0  0  0  0  0  2  0  0  0  0  0  0
  162.4580  204.7180  147.1550 C   0  0  2  0  0  0  0  0  0  0  0  0
  161.9290  207.5170  153.6770 C   0  0  2  0  0  3  0  0  0  0  0  0
  160.6810  203.5810  150.2870 C   0  0  1  0  0  0  0  0  0  0  0  0
  158.8290  211.9620  155.6110 C   0  0  2  0  0  3  0  0  0  0  0  0
  163.2520  209.3230  151.5550 O   0  0  0  0  0  1  0  0  0  0  0  0
  162.1910  210.1100  151.0970 C   0  0  1  0  0  3  0  0  0  0  0  0
  162.3500  210.3810  149.7110 O   0  0  0  0  0  0  0  0  0  0  0  0
  162.1920  211.6610  149.1720 C   0  0  0  0  0  0  0  0  0  0  0  0
  161.2710  212.4020  149.6040 O   0  0  0  0  0  0  0  0  0  0  0  0
  163.1250  212.1910  148.1310 C   0  0  0  0  0  2  0  0  0  0  0  0
  162.3320  212.8680  147.0320 C   0  0  0  0  0  1  0  0  0  0  0  0
  162.3570  205.2660  145.6990 C   0  0  2  0  0  3  0  0  0  0  0  0
  162.0220  206.6200  145.6290 O   0  0  0  0  0  1  0  0  0  0  0  0
  161.3730  204.4380  144.8910 C   0  0  0  0  0  2  0  0  0  0  0  0
  160.7860  205.2690  143.7660 C   0  0  0  0  0  1  0  0  0  0  0  0
  161.4110  202.3330  150.7760 C   0  0  0  0  0  2  0  0  0  0  0  0
  160.6730  201.1760  150.5020 O   0  0  0  0  0  0  0  0  0  0  0  0
  160.7350  200.3820  148.3210 N   0  0  0  0  0  1  0  0  0  0  0  0
  161.4490  200.4720  149.5800 C   0  0  0  0  0  2  0  0  0  0  0  0
  1  9  1  0  0  0  0
  1  5  1  1  0  0  0
  2 10  1  6  0  0  0
  2  7  1  0  0  0  0
  3 15  1  0  0  0  0
  3  8  2  0  0  0  0
  4 11  1  0  0  0  0
  6  3  1  0  0  0  0
  9 14  1  6  0  0  0
  9 21  1  0  0  0  0
 10 12  1  0  0  0  0
 11 27  1  0  0  0  0
 11 29  1  1  0  0  0
 13 31  1  0  0  0  0
 14 23  1  0  0  0  0
 16 20  1  6  0  0  0
 16 26  1  0  0  0  0
 16  2  1  0  0  0  0
 17 25  1  0  0  0  0
 19  1  1  0  0  0  0
 21 38  1  0  0  0  0
 22 24  2  0  0  0  0
 23 30  1  1  0  0  0
 23 27  1  0  0  0  0
 24 39  1  0  0  0  0
 24 15  1  0  0  0  0
 25 32  1  0  0  0  0
 25 13  2  0  0  0  0
 26 41  1  6  0  0  0
 27 20  1  6  0  0  0
 31 39  1  0  0  0  0
 33 26  1  0  0  0  0
 33 32  1  0  0  0  0
 34  8  1  0  0  0  0
 35 34  1  0  0  0  0
 36 47  1  6  0  0  0
 36  1  1  0  0  0  0
 36  4  1  0  0  0  0
 36  9  1  0  0  0  0
 37  7  1  1  0  0  0
 37  6  1  0  0  0  0
 37 35  1  0  0  0  0
 38 18  1  6  0  0  0
 38 51  1  0  0  0  0
 38 12  1  0  0  0  0
 39 28  1  1  0  0  0
 41 40  1  6  0  0  0
 42 41  1  0  0  0  0
 43 44  2  0  0  0  0
 43 42  1  0  0  0  0
 45 43  1  0  0  0  0
 46 45  1  0  0  0  0
 47 48  1  1  0  0  0
 49 47  1  0  0  0  0
 50 49  1  0  0  0  0
 52 51  1  0  0  0  0
 53 54  1  0  0  0  0
 54 52  1  0  0  0  0
M  END
>  <MODEL>
1

>  <REMARK>
 VINA RESULT:      13.6      0.000      0.000
  Name = 
  9 active torsions:
  status: ('A' for Active; 'I' for Inactive)
    1  A    between atoms: C_3  and  O_29
    2  A    between atoms: C_3  and  C_51
    3  A    between atoms: O_6  and  C_15
    4  A    between atoms: O_6  and  C_54
    5  A    between atoms: C_8  and  C_23
    6  A    between atoms: C_15  and  C_17
    7  A    between atoms: C_23  and  C_49
    8  A    between atoms: O_29  and  C_45
    9  A    between atoms: C_37  and  C_54
                            x       y       z     vdW  Elec       q    Type
                         _______ _______ _______ _____ _____    ______ ____

>  <TORSDO>
F 9

$$$$
