=
 OpenBabel11072412573D

 48 53  0  0  1  0  0  0  0  0999 V2000
  160.4530  210.4740  153.8390 C   0  0  2  0  0  3  0  0  0  0  0  0
  163.0750  209.6920  151.4260 O   0  0  0  0  0  0  0  0  0  0  0  0
  162.3470  210.3320  152.2270 C   0  0  0  0  0  3  0  0  0  0  0  0
  161.1050  209.7870  152.7120 N   0  0  0  0  0  0  0  0  0  0  0  0
  160.6700  208.5080  152.2840 N   0  0  0  0  0  0  0  0  0  0  0  0
  161.8090  207.5930  152.3390 C   0  0  2  0  0  0  0  0  0  0  0  0
  162.0010  207.5010  150.8990 N   0  0  0  0  0  2  0  0  0  0  0  0
  160.8520  208.3860  150.8380 C   0  0  2  0  0  3  0  0  0  0  0  0
  161.3750  206.2230  152.8660 C   0  0  0  0  0  2  0  0  0  0  0  0
  162.0590  205.0880  152.1210 C   0  0  0  0  0  2  0  0  0  0  0  0
  161.1400  203.8820  152.0570 C   0  0  0  0  0  2  0  0  0  0  0  0
  161.3270  204.9050  148.6440 C   0  0  0  0  0  2  0  0  0  0  0  0
  161.8760  203.8280  147.7020 C   0  0  0  0  0  2  0  0  0  0  0  0
  160.8280  201.7880  148.3210 N   0  0  0  0  0  0  0  0  0  0  0  0
  160.7930  202.8430  147.3100 C   0  0  2  0  0  3  0  0  0  0  0  0
  160.3870  204.3880  149.7470 C   0  0  0  0  0  2  0  0  0  0  0  0
  160.3340  202.0390  150.5960 C   0  0  0  0  0  3  0  0  0  0  0  0
  160.2690  201.3200  149.5160 N   0  0  0  0  0  0  0  0  0  0  0  0
  161.0670  203.3570  150.6400 C   0  0  2  0  0  3  0  0  0  0  0  0
  161.2600  201.6730  146.9860 O   0  0  0  0  0  0  0  0  0  0  0  0
  160.0840  211.9260  153.4930 C   0  0  2  0  0  3  0  0  0  0  0  0
  159.5090  212.6430  154.7300 C   0  0  2  0  0  3  0  0  0  0  0  0
  160.1830  212.2690  155.8970 O   0  0  0  0  0  1  0  0  0  0  0  0
  155.3000  211.8570  155.1470 C   0  0  0  0  0  3  0  0  0  0  0  0
  157.1190  213.3970  154.7070 C   0  0  0  0  0  3  0  0  0  0  0  0
  158.0460  212.3640  154.8920 C   0  0  0  0  0  0  0  0  0  0  0  0
  156.2210  210.8220  155.3400 C   0  0  0  0  0  3  0  0  0  0  0  0
  157.5910  211.0760  155.2140 C   0  0  0  0  0  3  0  0  0  0  0  0
  155.7490  213.1430  154.8330 C   0  0  0  0  0  3  0  0  0  0  0  0
  159.1630  211.9490  152.4380 O   0  0  0  0  0  0  0  0  0  0  0  0
  159.5590  213.0360  151.6480 C   0  0  0  0  0  2  0  0  0  0  0  0
  158.3410  213.7370  151.0710 C   0  0  0  0  0  2  0  0  0  0  0  0
  158.1670  213.3140  149.6200 C   0  0  1  0  0  3  0  0  0  0  0  0
  156.0890  214.0230  149.9040 C   0  0  0  0  0  1  0  0  0  0  0  0
  156.8330  212.9590  149.3970 O   0  0  0  0  0  0  0  0  0  0  0  0
  158.5420  214.4530  148.6720 C   0  0  0  0  0  2  0  0  0  0  0  0
  160.3390  212.1930  146.3630 C   0  0  0  0  0  2  0  0  0  0  0  0
  161.7480  214.3260  148.9130 O   0  0  0  0  0  1  0  0  0  0  0  0
  161.4690  212.5480  147.3080 C   0  0  0  0  0  0  0  0  0  0  0  0
  160.8360  213.4020  148.3950 C   0  0  2  0  0  3  0  0  0  0  0  0
  159.6910  214.1220  147.7130 C   0  0  1  0  0  3  0  0  0  0  0  0
  162.0170  211.3970  147.8530 F   0  0  0  0  0  0  0  0  0  0  0  0
  159.2580  213.2560  146.5420 C   0  0  0  0  0  2  0  0  0  0  0  0
  162.4450  213.2540  146.6130 F   0  0  0  0  0  0  0  0  0  0  0  0
  161.3160  210.3930  155.0960 C   0  0  0  0  0  2  0  0  0  0  0  0
  161.3730  208.9640  155.6020 C   0  0  0  0  0  2  0  0  0  0  0  0
  159.5790  207.2860  155.9450 C   0  0  0  0  0  1  0  0  0  0  0  0
  160.1060  208.6380  156.3750 C   0  0  0  0  0  2  0  0  0  0  0  0
  1 45  1  1  0  0  0
  2  3  2  0  0  0  0
  3  4  1  0  0  0  0
  4  1  1  0  0  0  0
  5  6  1  0  0  0  0
  5  4  1  0  0  0  0
  6  9  1  1  0  0  0
  7  6  1  0  0  0  0
  8  7  1  1  0  0  0
  8  5  1  0  0  0  0
  8  6  1  0  0  0  0
 10  9  1  0  0  0  0
 11 10  1  0  0  0  0
 12 16  1  0  0  0  0
 13 12  1  0  0  0  0
 14 18  1  0  0  0  0
 15 13  1  1  0  0  0
 15 14  1  0  0  0  0
 16 19  1  0  0  0  0
 17 19  1  0  0  0  0
 18 17  2  0  0  0  0
 19 11  1  1  0  0  0
 20 15  1  0  0  0  0
 20 14  1  0  0  0  0
 21 30  1  6  0  0  0
 21  1  1  0  0  0  0
 21 22  1  0  0  0  0
 22 26  1  0  0  0  0
 22 23  1  1  0  0  0
 24 27  1  0  0  0  0
 25 29  1  0  0  0  0
 25 26  2  0  0  0  0
 26 28  1  0  0  0  0
 28 27  2  0  0  0  0
 29 24  2  0  0  0  0
 31 30  1  0  0  0  0
 32 31  1  0  0  0  0
 33 36  1  6  0  0  0
 33 32  1  0  0  0  0
 35 33  1  0  0  0  0
 35 34  1  0  0  0  0
 37 43  1  0  0  0  0
 37 39  1  0  0  0  0
 39 42  1  0  0  0  0
 39 40  1  0  0  0  0
 40 38  1  6  0  0  0
 41 40  1  0  0  0  0
 41 36  1  1  0  0  0
 43 41  1  0  0  0  0
 44 39  1  0  0  0  0
 45 46  1  0  0  0  0
 46 48  1  0  0  0  0
 47 48  1  0  0  0  0
M  END
>  <MODEL>
1

>  <REMARK>
 VINA RESULT:      -6.5      0.000      0.000
  Name = 
  19 active torsions:
  status: ('A' for Active; 'I' for Inactive)
    1  A    between atoms: C_1  and  C_12
    2  A    between atoms: C_1  and  C_31
    3  A    between atoms: C_4  and  C_15
    4  A    between atoms: C_4  and  C_16
    5  A    between atoms: N_5  and  N_47
    6  A    between atoms: C_7  and  C_20
    7  A    between atoms: C_7  and  C_45
    8  A    between atoms: C_8  and  C_20
    9  A    between atoms: C_8  and  C_23
   10  A    between atoms: C_8  and  N_47
   11  A    between atoms: C_11  and  C_15
   12  A    between atoms: C_11  and  C_33
   13  A    between atoms: C_12  and  O_27
   14  A    between atoms: C_12  and  C_39
   15  A    between atoms: C_18  and  C_23
   16  A    between atoms: C_18  and  C_34
   17  A    between atoms: C_23  and  O_41
   18  A    between atoms: C_39  and  C_46
   19  A    between atoms: O_41  and  C_46
                            x       y       z     vdW  Elec       q    Type
                         _______ _______ _______ _____ _____    ______ ____

>  <TORSDO>
F 19

$$$$
=
 OpenBabel11072412573D

 48 53  0  0  1  0  0  0  0  0999 V2000
  161.6240  208.1360  153.2920 C   0  0  2  0  0  3  0  0  0  0  0  0
  161.7560  211.1060  151.1750 O   0  0  0  0  0  0  0  0  0  0  0  0
  162.1110  210.0820  151.8150 C   0  0  0  0  0  3  0  0  0  0  0  0
  161.2470  209.4690  152.7900 N   0  0  0  0  0  0  0  0  0  0  0  0
  159.9680  210.0170  153.0570 N   0  0  0  0  0  0  0  0  0  0  0  0
  160.0040  211.4440  152.7410 C   0  0  2  0  0  0  0  0  0  0  0  0
  159.9830  211.9070  154.1210 N   0  0  0  0  0  2  0  0  0  0  0  0
  159.9170  210.4930  154.4400 C   0  0  2  0  0  3  0  0  0  0  0  0
  158.7050  211.8770  152.0570 C   0  0  0  0  0  2  0  0  0  0  0  0
  158.7230  213.3520  151.6920 C   0  0  0  0  0  2  0  0  0  0  0  0
  157.7410  213.6200  150.5660 C   0  0  0  0  0  2  0  0  0  0  0  0
  160.8520  213.8180  148.8330 C   0  0  0  0  0  2  0  0  0  0  0  0
  161.0320  212.7460  147.7530 C   0  0  0  0  0  2  0  0  0  0  0  0
  158.9720  212.6170  146.5760 N   0  0  0  0  0  0  0  0  0  0  0  0
  160.3320  213.1420  146.4690 C   0  0  2  0  0  3  0  0  0  0  0  0
  159.4360  214.4100  148.9340 C   0  0  0  0  0  2  0  0  0  0  0  0
  157.3550  213.2830  148.1340 C   0  0  0  0  0  3  0  0  0  0  0  0
  157.6490  212.9130  146.9230 N   0  0  0  0  0  0  0  0  0  0  0  0
  158.3910  213.3400  149.2290 C   0  0  2  0  0  3  0  0  0  0  0  0
  159.9890  212.1220  145.7390 O   0  0  0  0  0  0  0  0  0  0  0  0
  161.4790  207.0530  152.2110 C   0  0  2  0  0  3  0  0  0  0  0  0
  160.7350  205.8270  152.7770 C   0  0  2  0  0  3  0  0  0  0  0  0
  161.2380  205.4560  154.0270 O   0  0  0  0  0  1  0  0  0  0  0  0
  160.9930  202.5040  150.0570 C   0  0  0  0  0  3  0  0  0  0  0  0
  160.1630  204.7150  150.6050 C   0  0  0  0  0  3  0  0  0  0  0  0
  160.8180  204.6590  151.8410 C   0  0  0  0  0  0  0  0  0  0  0  0
  161.6420  202.4390  151.2940 C   0  0  0  0  0  3  0  0  0  0  0  0
  161.5540  203.5140  152.1850 C   0  0  0  0  0  3  0  0  0  0  0  0
  160.2530  203.6390  149.7140 C   0  0  0  0  0  3  0  0  0  0  0  0
  162.7420  206.6830  151.7310 O   0  0  0  0  0  0  0  0  0  0  0  0
  162.7290  207.0580  150.3820 C   0  0  0  0  0  2  0  0  0  0  0  0
  161.3740  207.6350  150.0090 C   0  0  0  0  0  2  0  0  0  0  0  0
  161.1580  207.4650  148.5120 C   0  0  1  0  0  3  0  0  0  0  0  0
  162.3140  209.3520  148.4300 C   0  0  0  0  0  1  0  0  0  0  0  0
  161.1940  208.7180  147.8930 O   0  0  0  0  0  0  0  0  0  0  0  0
  162.2440  206.5790  147.9030 C   0  0  0  0  0  2  0  0  0  0  0  0
  162.6280  204.1090  145.1790 C   0  0  0  0  0  2  0  0  0  0  0  0
  159.8390  206.3210  145.7810 O   0  0  0  0  0  1  0  0  0  0  0  0
  161.4040  204.8500  144.6840 C   0  0  0  0  0  0  0  0  0  0  0  0
  161.1920  205.9890  145.6700 C   0  0  2  0  0  3  0  0  0  0  0  0
  161.7130  205.4660  146.9920 C   0  0  1  0  0  3  0  0  0  0  0  0
  161.6280  205.3490  143.4090 F   0  0  0  0  0  0  0  0  0  0  0  0
  162.7600  204.4120  146.6700 C   0  0  0  0  0  2  0  0  0  0  0  0
  160.3160  203.9850  144.6690 F   0  0  0  0  0  0  0  0  0  0  0  0
  160.8350  207.7890  154.5520 C   0  0  0  0  0  2  0  0  0  0  0  0
  161.6080  208.2070  155.7870 C   0  0  0  0  0  2  0  0  0  0  0  0
  160.0820  206.8130  157.1590 C   0  0  0  0  0  1  0  0  0  0  0  0
  160.6940  208.1890  157.0010 C   0  0  0  0  0  2  0  0  0  0  0  0
  1 45  1  1  0  0  0
  2  3  2  0  0  0  0
  3  4  1  0  0  0  0
  4  5  1  0  0  0  0
  4  1  1  0  0  0  0
  5  8  1  0  0  0  0
  6  9  1  6  0  0  0
  6  5  1  0  0  0  0
  6  7  1  0  0  0  0
  6  8  1  0  0  0  0
  8  7  1  1  0  0  0
 10  9  1  0  0  0  0
 11 10  1  0  0  0  0
 12 16  1  0  0  0  0
 13 12  1  0  0  0  0
 14 18  1  0  0  0  0
 15 14  1  0  0  0  0
 15 13  1  1  0  0  0
 16 19  1  0  0  0  0
 17 19  1  0  0  0  0
 18 17  2  0  0  0  0
 19 11  1  1  0  0  0
 20 15  1  0  0  0  0
 20 14  1  0  0  0  0
 21 30  1  1  0  0  0
 21 22  1  0  0  0  0
 21  1  1  0  0  0  0
 22 23  1  1  0  0  0
 24 27  1  0  0  0  0
 25 26  2  0  0  0  0
 26 28  1  0  0  0  0
 26 22  1  0  0  0  0
 27 28  2  0  0  0  0
 29 24  2  0  0  0  0
 29 25  1  0  0  0  0
 31 30  1  0  0  0  0
 32 31  1  0  0  0  0
 33 36  1  6  0  0  0
 33 32  1  0  0  0  0
 35 34  1  0  0  0  0
 35 33  1  0  0  0  0
 37 43  1  0  0  0  0
 39 37  1  0  0  0  0
 39 40  1  0  0  0  0
 40 38  1  1  0  0  0
 40 41  1  0  0  0  0
 41 36  1  6  0  0  0
 42 39  1  0  0  0  0
 43 41  1  0  0  0  0
 44 39  1  0  0  0  0
 45 46  1  0  0  0  0
 46 48  1  0  0  0  0
 48 47  1  0  0  0  0
M  END
>  <MODEL>
2

>  <REMARK>
 VINA RESULT:      -6.2      3.296      8.002
  Name = 
  19 active torsions:
  status: ('A' for Active; 'I' for Inactive)
    1  A    between atoms: C_1  and  C_12
    2  A    between atoms: C_1  and  C_31
    3  A    between atoms: C_4  and  C_15
    4  A    between atoms: C_4  and  C_16
    5  A    between atoms: N_5  and  N_47
    6  A    between atoms: C_7  and  C_20
    7  A    between atoms: C_7  and  C_45
    8  A    between atoms: C_8  and  C_20
    9  A    between atoms: C_8  and  C_23
   10  A    between atoms: C_8  and  N_47
   11  A    between atoms: C_11  and  C_15
   12  A    between atoms: C_11  and  C_33
   13  A    between atoms: C_12  and  O_27
   14  A    between atoms: C_12  and  C_39
   15  A    between atoms: C_18  and  C_23
   16  A    between atoms: C_18  and  C_34
   17  A    between atoms: C_23  and  O_41
   18  A    between atoms: C_39  and  C_46
   19  A    between atoms: O_41  and  C_46
                            x       y       z     vdW  Elec       q    Type
                         _______ _______ _______ _____ _____    ______ ____

>  <TORSDO>
F 19

$$$$
=
 OpenBabel11072412573D

 48 53  0  0  1  0  0  0  0  0999 V2000
  159.2960  211.8910  153.2590 C   0  0  2  0  0  3  0  0  0  0  0  0
  161.2830  211.7170  156.3150 O   0  0  0  0  0  0  0  0  0  0  0  0
  160.4560  212.1120  155.4530 C   0  0  0  0  0  3  0  0  0  0  0  0
  160.4520  211.5770  154.1160 N   0  0  0  0  0  0  0  0  0  0  0  0
  161.3960  210.5890  153.7380 N   0  0  0  0  0  0  0  0  0  0  0  0
  160.6800  209.4980  153.0770 C   0  0  2  0  0  0  0  0  0  0  0  0
  160.8090  208.5460  154.1690 N   0  0  0  0  0  2  0  0  0  0  0  0
  161.5450  209.6140  154.8190 C   0  0  2  0  0  3  0  0  0  0  0  0
  161.4770  208.9820  151.8760 C   0  0  0  0  0  2  0  0  0  0  0  0
  161.9230  207.5420  152.0710 C   0  0  0  0  0  2  0  0  0  0  0  0
  160.8240  206.5940  151.6270 C   0  0  0  0  0  2  0  0  0  0  0  0
  161.4340  207.4600  148.2200 C   0  0  0  0  0  2  0  0  0  0  0  0
  162.4020  206.5150  147.5020 C   0  0  0  0  0  2  0  0  0  0  0  0
  161.7760  204.3070  148.1180 N   0  0  0  0  0  0  0  0  0  0  0  0
  161.6890  205.2670  147.0200 C   0  0  2  0  0  3  0  0  0  0  0  0
  160.4460  206.7750  149.1810 C   0  0  0  0  0  2  0  0  0  0  0  0
  160.7940  204.5360  150.2320 C   0  0  0  0  0  3  0  0  0  0  0  0
  161.1210  203.7710  149.2330 N   0  0  0  0  0  0  0  0  0  0  0  0
  161.1640  205.9980  150.2780 C   0  0  2  0  0  3  0  0  0  0  0  0
  162.4800  204.2410  146.9010 O   0  0  0  0  0  0  0  0  0  0  0  0
  159.6220  212.9870  152.2320 C   0  0  2  0  0  3  0  0  0  0  0  0
  158.8030  214.2590  152.5260 C   0  0  2  0  0  3  0  0  0  0  0  0
  158.6040  214.4330  153.8980 O   0  0  0  0  0  1  0  0  0  0  0  0
  154.9800  214.2050  150.5520 C   0  0  0  0  0  3  0  0  0  0  0  0
  156.3010  214.3990  152.5750 C   0  0  0  0  0  3  0  0  0  0  0  0
  157.4740  214.2240  151.8320 C   0  0  0  0  0  0  0  0  0  0  0  0
  156.1490  214.0220  149.8050 C   0  0  0  0  0  3  0  0  0  0  0  0
  157.3930  214.0300  150.4440 C   0  0  0  0  0  3  0  0  0  0  0  0
  155.0560  214.3910  151.9350 C   0  0  0  0  0  3  0  0  0  0  0  0
  159.3630  212.5230  150.9360 O   0  0  0  0  0  0  0  0  0  0  0  0
  160.5950  212.6170  150.2750 C   0  0  0  0  0  2  0  0  0  0  0  0
  160.5560  213.7380  149.2500 C   0  0  0  0  0  2  0  0  0  0  0  0
  161.5330  213.4170  148.1290 C   0  0  1  0  0  3  0  0  0  0  0  0
  162.9900  211.7490  148.1150 C   0  0  0  0  0  1  0  0  0  0  0  0
  161.6310  212.0300  147.9810 O   0  0  0  0  0  0  0  0  0  0  0  0
  161.0650  214.0250  146.8070 C   0  0  0  0  0  2  0  0  0  0  0  0
  161.6160  213.1900  143.2480 C   0  0  0  0  0  2  0  0  0  0  0  0
  158.8600  212.1880  145.3540 O   0  0  0  0  0  1  0  0  0  0  0  0
  160.1910  212.7010  143.4100 C   0  0  0  0  0  0  0  0  0  0  0  0
  159.7870  213.0890  144.8240 C   0  0  2  0  0  3  0  0  0  0  0  0
  161.0720  213.0490  145.6250 C   0  0  1  0  0  3  0  0  0  0  0  0
  159.3640  213.3190  142.4840 F   0  0  0  0  0  0  0  0  0  0  0  0
  162.2100  213.3040  144.6500 C   0  0  0  0  0  2  0  0  0  0  0  0
  160.1540  211.3230  143.2330 F   0  0  0  0  0  0  0  0  0  0  0  0
  158.0770  212.2510  154.1050 C   0  0  0  0  0  2  0  0  0  0  0  0
  157.1460  211.0600  154.2180 C   0  0  0  0  0  2  0  0  0  0  0  0
  155.3330  210.3040  155.7340 C   0  0  0  0  0  1  0  0  0  0  0  0
  155.8650  211.4690  154.9270 C   0  0  0  0  0  2  0  0  0  0  0  0
  1 45  1  1  0  0  0
  1  4  1  0  0  0  0
  3  2  2  0  0  0  0
  4  3  1  0  0  0  0
  5  4  1  0  0  0  0
  5  8  1  0  0  0  0
  6  9  1  6  0  0  0
  6  5  1  0  0  0  0
  6  7  1  0  0  0  0
  6  8  1  0  0  0  0
  8  7  1  1  0  0  0
  9 10  1  0  0  0  0
 11 10  1  0  0  0  0
 12 16  1  0  0  0  0
 13 12  1  0  0  0  0
 14 18  1  0  0  0  0
 15 13  1  1  0  0  0
 15 14  1  0  0  0  0
 16 19  1  0  0  0  0
 17 19  1  0  0  0  0
 18 17  2  0  0  0  0
 19 11  1  1  0  0  0
 20 15  1  0  0  0  0
 20 14  1  0  0  0  0
 21 30  1  6  0  0  0
 21 22  1  0  0  0  0
 21  1  1  0  0  0  0
 22 23  1  1  0  0  0
 24 29  1  0  0  0  0
 26 22  1  0  0  0  0
 26 25  1  0  0  0  0
 27 28  1  0  0  0  0
 27 24  2  0  0  0  0
 28 26  2  0  0  0  0
 29 25  2  0  0  0  0
 31 30  1  0  0  0  0
 32 31  1  0  0  0  0
 33 36  1  6  0  0  0
 33 32  1  0  0  0  0
 35 34  1  0  0  0  0
 35 33  1  0  0  0  0
 37 39  1  0  0  0  0
 37 43  1  0  0  0  0
 39 40  1  0  0  0  0
 40 38  1  1  0  0  0
 40 41  1  0  0  0  0
 41 36  1  1  0  0  0
 42 39  1  0  0  0  0
 43 41  1  0  0  0  0
 44 39  1  0  0  0  0
 45 46  1  0  0  0  0
 46 48  1  0  0  0  0
 48 47  1  0  0  0  0
M  END
>  <MODEL>
3

>  <REMARK>
 VINA RESULT:      -6.2      2.127      3.818
  Name = 
  19 active torsions:
  status: ('A' for Active; 'I' for Inactive)
    1  A    between atoms: C_1  and  C_12
    2  A    between atoms: C_1  and  C_31
    3  A    between atoms: C_4  and  C_15
    4  A    between atoms: C_4  and  C_16
    5  A    between atoms: N_5  and  N_47
    6  A    between atoms: C_7  and  C_20
    7  A    between atoms: C_7  and  C_45
    8  A    between atoms: C_8  and  C_20
    9  A    between atoms: C_8  and  C_23
   10  A    between atoms: C_8  and  N_47
   11  A    between atoms: C_11  and  C_15
   12  A    between atoms: C_11  and  C_33
   13  A    between atoms: C_12  and  O_27
   14  A    between atoms: C_12  and  C_39
   15  A    between atoms: C_18  and  C_23
   16  A    between atoms: C_18  and  C_34
   17  A    between atoms: C_23  and  O_41
   18  A    between atoms: C_39  and  C_46
   19  A    between atoms: O_41  and  C_46
                            x       y       z     vdW  Elec       q    Type
                         _______ _______ _______ _____ _____    ______ ____

>  <TORSDO>
F 19

$$$$
=
 OpenBabel11072412573D

 48 53  0  0  1  0  0  0  0  0999 V2000
  161.0610  210.2270  153.9850 C   0  0  2  0  0  3  0  0  0  0  0  0
  161.5820  210.9140  150.4390 O   0  0  0  0  0  0  0  0  0  0  0  0
  161.8030  210.5920  151.6350 C   0  0  0  0  0  3  0  0  0  0  0  0
  160.8470  210.8670  152.6760 N   0  0  0  0  0  0  0  0  0  0  0  0
  159.6270  211.5210  152.3720 N   0  0  0  0  0  0  0  0  0  0  0  0
  159.9210  212.6650  151.5100 C   0  0  2  0  0  0  0  0  0  0  0  0
  159.6820  213.6840  152.5210 N   0  0  0  0  0  2  0  0  0  0  0  0
  159.3610  212.5540  153.3730 C   0  0  2  0  0  3  0  0  0  0  0  0
  158.8600  212.8000  150.4140 C   0  0  0  0  0  2  0  0  0  0  0  0
  159.2950  213.7620  149.3210 C   0  0  0  0  0  2  0  0  0  0  0  0
  158.8140  213.2650  147.9710 C   0  0  0  0  0  2  0  0  0  0  0  0
  159.5140  213.1420  144.4750 C   0  0  0  0  0  2  0  0  0  0  0  0
  160.7780  213.9060  144.0660 C   0  0  0  0  0  2  0  0  0  0  0  0
  162.4420  213.3720  145.6750 N   0  0  0  0  0  0  0  0  0  0  0  0
  162.0210  213.0740  144.3080 C   0  0  2  0  0  3  0  0  0  0  0  0
  159.6200  212.3690  145.8010 C   0  0  0  0  0  2  0  0  0  0  0  0
  161.2460  212.8790  147.6270 C   0  0  0  0  0  3  0  0  0  0  0  0
  162.3880  212.9610  147.0120 N   0  0  0  0  0  0  0  0  0  0  0  0
  159.9500  213.2880  146.9710 C   0  0  2  0  0  3  0  0  0  0  0  0
  163.0880  213.7930  144.4980 O   0  0  0  0  0  0  0  0  0  0  0  0
  159.7680  209.6080  154.5400 C   0  0  2  0  0  3  0  0  0  0  0  0
  159.5170  210.0910  155.9820 C   0  0  2  0  0  3  0  0  0  0  0  0
  159.3240  209.0170  156.8550 O   0  0  0  0  0  1  0  0  0  0  0  0
  156.1470  212.7580  156.1730 C   0  0  0  0  0  3  0  0  0  0  0  0
  158.3220  212.0550  156.9800 C   0  0  0  0  0  3  0  0  0  0  0  0
  158.3330  211.0070  156.0520 C   0  0  0  0  0  0  0  0  0  0  0  0
  156.1480  211.7080  155.2500 C   0  0  0  0  0  3  0  0  0  0  0  0
  157.2380  210.8340  155.1900 C   0  0  0  0  0  3  0  0  0  0  0  0
  157.2320  212.9300  157.0390 C   0  0  0  0  0  3  0  0  0  0  0  0
  159.8480  208.2100  154.4970 O   0  0  0  0  0  0  0  0  0  0  0  0
  160.9490  207.9450  153.6730 C   0  0  0  0  0  2  0  0  0  0  0  0
  161.2530  206.4560  153.6640 C   0  0  0  0  0  2  0  0  0  0  0  0
  161.9010  206.0910  152.3360 C   0  0  1  0  0  3  0  0  0  0  0  0
  160.8010  204.1700  152.3270 C   0  0  0  0  0  1  0  0  0  0  0  0
  162.0870  204.7070  152.2750 O   0  0  0  0  0  0  0  0  0  0  0  0
  161.0220  206.5260  151.1640 C   0  0  0  0  0  2  0  0  0  0  0  0
  161.6520  207.6540  147.7000 C   0  0  0  0  0  2  0  0  0  0  0  0
  161.0540  204.2860  148.8550 O   0  0  0  0  0  1  0  0  0  0  0  0
  161.2250  206.2250  147.4320 C   0  0  0  0  0  0  0  0  0  0  0  0
  160.8210  205.6620  148.7860 C   0  0  2  0  0  3  0  0  0  0  0  0
  161.6890  206.3910  149.7900 C   0  0  1  0  0  3  0  0  0  0  0  0
  160.1490  206.2030  146.5580 F   0  0  0  0  0  0  0  0  0  0  0  0
  162.0520  207.7310  149.1710 C   0  0  0  0  0  2  0  0  0  0  0  0
  162.2920  205.5200  146.8890 F   0  0  0  0  0  0  0  0  0  0  0  0
  161.6890  211.2070  154.9720 C   0  0  0  0  0  2  0  0  0  0  0  0
  163.0440  210.6990  155.4260 C   0  0  0  0  0  2  0  0  0  0  0  0
  164.5250  211.4710  157.2610 C   0  0  0  0  0  1  0  0  0  0  0  0
  163.1800  210.8600  156.9310 C   0  0  0  0  0  2  0  0  0  0  0  0
  1 21  1  0  0  0  0
  1 45  1  1  0  0  0
  2  3  2  0  0  0  0
  3  4  1  0  0  0  0
  4  1  1  0  0  0  0
  5  4  1  0  0  0  0
  5  8  1  0  0  0  0
  6  9  1  6  0  0  0
  6  5  1  0  0  0  0
  6  7  1  0  0  0  0
  6  8  1  0  0  0  0
  8  7  1  1  0  0  0
 10  9  1  0  0  0  0
 11 10  1  0  0  0  0
 12 16  1  0  0  0  0
 13 12  1  0  0  0  0
 14 18  1  0  0  0  0
 15 13  1  6  0  0  0
 15 20  1  0  0  0  0
 15 14  1  0  0  0  0
 16 19  1  0  0  0  0
 18 17  2  0  0  0  0
 19 17  1  0  0  0  0
 19 11  1  1  0  0  0
 20 14  1  0  0  0  0
 21 30  1  1  0  0  0
 21 22  1  0  0  0  0
 22 26  1  0  0  0  0
 22 23  1  1  0  0  0
 24 29  1  0  0  0  0
 25 29  2  0  0  0  0
 26 25  1  0  0  0  0
 27 24  2  0  0  0  0
 28 27  1  0  0  0  0
 28 26  2  0  0  0  0
 31 30  1  0  0  0  0
 32 31  1  0  0  0  0
 33 36  1  6  0  0  0
 33 32  1  0  0  0  0
 35 34  1  0  0  0  0
 35 33  1  0  0  0  0
 37 43  1  0  0  0  0
 39 37  1  0  0  0  0
 39 40  1  0  0  0  0
 40 38  1  6  0  0  0
 40 41  1  0  0  0  0
 41 36  1  1  0  0  0
 42 39  1  0  0  0  0
 43 41  1  0  0  0  0
 44 39  1  0  0  0  0
 45 46  1  0  0  0  0
 46 48  1  0  0  0  0
 48 47  1  0  0  0  0
M  END
>  <MODEL>
4

>  <REMARK>
 VINA RESULT:      -6.1      3.159      7.223
  Name = 
  19 active torsions:
  status: ('A' for Active; 'I' for Inactive)
    1  A    between atoms: C_1  and  C_12
    2  A    between atoms: C_1  and  C_31
    3  A    between atoms: C_4  and  C_15
    4  A    between atoms: C_4  and  C_16
    5  A    between atoms: N_5  and  N_47
    6  A    between atoms: C_7  and  C_20
    7  A    between atoms: C_7  and  C_45
    8  A    between atoms: C_8  and  C_20
    9  A    between atoms: C_8  and  C_23
   10  A    between atoms: C_8  and  N_47
   11  A    between atoms: C_11  and  C_15
   12  A    between atoms: C_11  and  C_33
   13  A    between atoms: C_12  and  O_27
   14  A    between atoms: C_12  and  C_39
   15  A    between atoms: C_18  and  C_23
   16  A    between atoms: C_18  and  C_34
   17  A    between atoms: C_23  and  O_41
   18  A    between atoms: C_39  and  C_46
   19  A    between atoms: O_41  and  C_46
                            x       y       z     vdW  Elec       q    Type
                         _______ _______ _______ _____ _____    ______ ____

>  <TORSDO>
F 19

$$$$
=
 OpenBabel11072412573D

 48 53  0  0  1  0  0  0  0  0999 V2000
  162.1930  207.6900  150.2380 C   0  0  2  0  0  3  0  0  0  0  0  0
  159.4820  205.2920  149.7750 O   0  0  0  0  0  0  0  0  0  0  0  0
  160.1270  206.3720  149.7890 C   0  0  0  0  0  3  0  0  0  0  0  0
  161.3790  206.4900  150.4920 N   0  0  0  0  0  0  0  0  0  0  0  0
  161.9100  205.3810  151.1980 N   0  0  0  0  0  0  0  0  0  0  0  0
  160.9060  204.9240  152.1580 C   0  0  2  0  0  0  0  0  0  0  0  0
  161.5900  205.4200  153.3430 N   0  0  0  0  0  2  0  0  0  0  0  0
  162.6040  205.8500  152.3970 C   0  0  2  0  0  3  0  0  0  0  0  0
  160.8720  203.3940  152.2130 C   0  0  0  0  0  2  0  0  0  0  0  0
  161.6750  202.7700  151.0830 C   0  0  0  0  0  2  0  0  0  0  0  0
  160.8800  201.6490  150.4400 C   0  0  0  0  0  2  0  0  0  0  0  0
  161.2200  199.8110  147.4010 C   0  0  0  0  0  2  0  0  0  0  0  0
  160.4350  200.4020  146.2250 C   0  0  0  0  0  2  0  0  0  0  0  0
  160.7860  202.7510  146.2900 N   0  0  0  0  0  0  0  0  0  0  0  0
  161.1970  201.5420  145.5800 C   0  0  2  0  0  3  0  0  0  0  0  0
  161.8920  200.8440  148.3220 C   0  0  0  0  0  2  0  0  0  0  0  0
  161.1890  203.2300  148.5470 C   0  0  0  0  0  3  0  0  0  0  0  0
  161.1040  203.6460  147.3180 N   0  0  0  0  0  0  0  0  0  0  0  0
  160.8810  201.8050  148.9350 C   0  0  2  0  0  3  0  0  0  0  0  0
  160.4240  202.3970  144.9770 O   0  0  0  0  0  0  0  0  0  0  0  0
  161.7140  208.8950  151.0630 C   0  0  2  0  0  3  0  0  0  0  0  0
  162.6150  210.1180  150.8010 C   0  0  2  0  0  3  0  0  0  0  0  0
  163.1710  210.6060  151.9870 O   0  0  0  0  0  1  0  0  0  0  0  0
  160.4630  213.3060  148.8740 C   0  0  0  0  0  3  0  0  0  0  0  0
  160.9220  211.9660  150.8410 C   0  0  0  0  0  3  0  0  0  0  0  0
  161.8590  211.2170  150.1190 C   0  0  0  0  0  0  0  0  0  0  0  0
  161.3920  212.5570  148.1450 C   0  0  0  0  0  3  0  0  0  0  0  0
  162.0880  211.5140  148.7660 C   0  0  0  0  0  3  0  0  0  0  0  0
  160.2270  213.0090  150.2200 C   0  0  0  0  0  3  0  0  0  0  0  0
  161.7060  208.5720  152.4260 O   0  0  0  0  0  0  0  0  0  0  0  0
  160.4900  209.0770  152.9020 C   0  0  0  0  0  2  0  0  0  0  0  0
  160.4030  208.9040  154.4090 C   0  0  0  0  0  2  0  0  0  0  0  0
  160.8840  210.1810  155.0820 C   0  0  1  0  0  3  0  0  0  0  0  0
  162.5420  210.7380  156.4400 C   0  0  0  0  0  1  0  0  0  0  0  0
  162.2760  210.1440  155.2070 O   0  0  0  0  0  0  0  0  0  0  0  0
  160.4910  211.4100  154.2630 C   0  0  0  0  0  2  0  0  0  0  0  0
  157.3700  211.5480  156.2380 C   0  0  0  0  0  2  0  0  0  0  0  0
  157.8940  212.6750  152.8480 O   0  0  0  0  0  1  0  0  0  0  0  0
  156.8260  211.9120  154.8710 C   0  0  0  0  0  0  0  0  0  0  0  0
  158.0050  211.7840  153.9190 C   0  0  2  0  0  3  0  0  0  0  0  0
  159.2230  212.1180  154.7540 C   0  0  1  0  0  3  0  0  0  0  0  0
  155.8140  211.0360  154.5100 F   0  0  0  0  0  0  0  0  0  0  0  0
  158.8770  211.7850  156.1960 C   0  0  0  0  0  2  0  0  0  0  0  0
  156.3390  213.2130  154.9010 F   0  0  0  0  0  0  0  0  0  0  0  0
  162.2390  208.0080  148.7450 C   0  0  0  0  0  2  0  0  0  0  0  0
  162.6400  206.7750  147.9590 C   0  0  0  0  0  2  0  0  0  0  0  0
  162.5060  205.8540  145.6590 C   0  0  0  0  0  1  0  0  0  0  0  0
  161.7720  206.6480  146.7180 C   0  0  0  0  0  2  0  0  0  0  0  0
  1 45  1  6  0  0  0
  1  4  1  0  0  0  0
  1 21  1  0  0  0  0
  2  3  2  0  0  0  0
  3  4  1  0  0  0  0
  4  5  1  0  0  0  0
  5  6  1  0  0  0  0
  5  8  1  0  0  0  0
  6  9  1  1  0  0  0
  6  8  1  0  0  0  0
  6  7  1  0  0  0  0
  8  7  1  6  0  0  0
 10  9  1  0  0  0  0
 11 10  1  0  0  0  0
 12 16  1  0  0  0  0
 13 12  1  0  0  0  0
 14 18  1  0  0  0  0
 15 13  1  1  0  0  0
 15 14  1  0  0  0  0
 16 19  1  0  0  0  0
 17 19  1  0  0  0  0
 18 17  2  0  0  0  0
 19 11  1  1  0  0  0
 20 15  1  0  0  0  0
 20 14  1  0  0  0  0
 21 30  1  1  0  0  0
 22 21  1  0  0  0  0
 22 23  1  1  0  0  0
 24 29  1  0  0  0  0
 26 22  1  0  0  0  0
 26 25  1  0  0  0  0
 27 28  1  0  0  0  0
 27 24  2  0  0  0  0
 28 26  2  0  0  0  0
 29 25  2  0  0  0  0
 30 31  1  0  0  0  0
 31 32  1  0  0  0  0
 32 33  1  0  0  0  0
 33 36  1  6  0  0  0
 33 35  1  0  0  0  0
 35 34  1  0  0  0  0
 39 44  1  0  0  0  0
 39 37  1  0  0  0  0
 40 38  1  6  0  0  0
 40 41  1  0  0  0  0
 40 39  1  0  0  0  0
 41 36  1  6  0  0  0
 41 43  1  0  0  0  0
 42 39  1  0  0  0  0
 43 37  1  0  0  0  0
 46 45  1  0  0  0  0
 47 48  1  0  0  0  0
 48 46  1  0  0  0  0
M  END
>  <MODEL>
5

>  <REMARK>
 VINA RESULT:      -5.9      2.826      6.330
  Name = 
  19 active torsions:
  status: ('A' for Active; 'I' for Inactive)
    1  A    between atoms: C_1  and  C_12
    2  A    between atoms: C_1  and  C_31
    3  A    between atoms: C_4  and  C_15
    4  A    between atoms: C_4  and  C_16
    5  A    between atoms: N_5  and  N_47
    6  A    between atoms: C_7  and  C_20
    7  A    between atoms: C_7  and  C_45
    8  A    between atoms: C_8  and  C_20
    9  A    between atoms: C_8  and  C_23
   10  A    between atoms: C_8  and  N_47
   11  A    between atoms: C_11  and  C_15
   12  A    between atoms: C_11  and  C_33
   13  A    between atoms: C_12  and  O_27
   14  A    between atoms: C_12  and  C_39
   15  A    between atoms: C_18  and  C_23
   16  A    between atoms: C_18  and  C_34
   17  A    between atoms: C_23  and  O_41
   18  A    between atoms: C_39  and  C_46
   19  A    between atoms: O_41  and  C_46
                            x       y       z     vdW  Elec       q    Type
                         _______ _______ _______ _____ _____    ______ ____

>  <TORSDO>
F 19

$$$$
=
 OpenBabel11072412573D

 48 53  0  0  1  0  0  0  0  0999 V2000
  161.1450  210.0920  153.7120 C   0  0  2  0  0  3  0  0  0  0  0  0
  161.9530  210.7510  150.2150 O   0  0  0  0  0  0  0  0  0  0  0  0
  162.0780  210.4480  151.4290 C   0  0  0  0  0  3  0  0  0  0  0  0
  161.0310  210.7140  152.3820 N   0  0  0  0  0  0  0  0  0  0  0  0
  159.8270  211.3370  151.9660 N   0  0  0  0  0  0  0  0  0  0  0  0
  160.1040  212.7510  151.7160 C   0  0  2  0  0  0  0  0  0  0  0  0
  159.4170  213.2520  152.8970 N   0  0  0  0  0  2  0  0  0  0  0  0
  159.1140  211.8530  153.1340 C   0  0  2  0  0  3  0  0  0  0  0  0
  159.3590  213.2330  150.4700 C   0  0  0  0  0  2  0  0  0  0  0  0
  160.2590  213.2530  149.2450 C   0  0  0  0  0  2  0  0  0  0  0  0
  159.4170  213.2960  147.9830 C   0  0  0  0  0  2  0  0  0  0  0  0
  159.3460  213.0690  144.4230 C   0  0  0  0  0  2  0  0  0  0  0  0
  160.4790  213.8320  143.7290 C   0  0  0  0  0  2  0  0  0  0  0  0
  162.4610  213.3640  144.9530 N   0  0  0  0  0  0  0  0  0  0  0  0
  161.7580  213.0190  143.7190 C   0  0  2  0  0  3  0  0  0  0  0  0
  159.7480  212.3390  145.7170 C   0  0  0  0  0  2  0  0  0  0  0  0
  161.7230  212.9220  147.1320 C   0  0  0  0  0  3  0  0  0  0  0  0
  162.7040  212.9950  146.2810 N   0  0  0  0  0  0  0  0  0  0  0  0
  160.3100  213.2980  146.7610 C   0  0  2  0  0  3  0  0  0  0  0  0
  162.8300  213.7530  143.6520 O   0  0  0  0  0  0  0  0  0  0  0  0
  159.8180  209.4680  154.1710 C   0  0  2  0  0  3  0  0  0  0  0  0
  159.5760  209.7610  155.6650 C   0  0  2  0  0  3  0  0  0  0  0  0
  159.4150  208.5810  156.3970 O   0  0  0  0  0  1  0  0  0  0  0  0
  156.1540  212.3100  156.2100 C   0  0  0  0  0  3  0  0  0  0  0  0
  158.4820  211.7920  156.6440 C   0  0  0  0  0  3  0  0  0  0  0  0
  158.3750  210.6360  155.8620 C   0  0  0  0  0  0  0  0  0  0  0  0
  156.0390  211.1520  155.4340 C   0  0  0  0  0  3  0  0  0  0  0  0
  157.1470  210.3160  155.2610 C   0  0  0  0  0  3  0  0  0  0  0  0
  157.3730  212.6280  156.8160 C   0  0  0  0  0  3  0  0  0  0  0  0
  159.8300  208.0870  153.9360 O   0  0  0  0  0  0  0  0  0  0  0  0
  161.1080  207.8280  153.4240 C   0  0  0  0  0  2  0  0  0  0  0  0
  161.2750  206.3420  153.1550 C   0  0  0  0  0  2  0  0  0  0  0  0
  160.9340  206.0610  151.6990 C   0  0  1  0  0  3  0  0  0  0  0  0
  162.4140  206.8550  150.2570 C   0  0  0  0  0  1  0  0  0  0  0  0
  161.2370  207.1860  150.9260 O   0  0  0  0  0  0  0  0  0  0  0  0
  161.7320  204.8680  151.1730 C   0  0  0  0  0  2  0  0  0  0  0  0
  161.0800  201.3130  150.3960 C   0  0  0  0  0  2  0  0  0  0  0  0
  160.5210  204.1790  148.2730 O   0  0  0  0  0  1  0  0  0  0  0  0
  160.8920  201.9170  149.0190 C   0  0  0  0  0  0  0  0  0  0  0  0
  161.2440  203.3890  149.1690 C   0  0  2  0  0  3  0  0  0  0  0  0
  160.8720  203.7380  150.5950 C   0  0  1  0  0  3  0  0  0  0  0  0
  161.7410  201.3060  148.1080 F   0  0  0  0  0  0  0  0  0  0  0  0
  160.9570  202.4530  151.4030 C   0  0  0  0  0  2  0  0  0  0  0  0
  159.5700  201.7510  148.6200 F   0  0  0  0  0  0  0  0  0  0  0  0
  161.6850  211.0920  154.7320 C   0  0  0  0  0  2  0  0  0  0  0  0
  162.9660  210.5680  155.3520 C   0  0  0  0  0  2  0  0  0  0  0  0
  161.8560  211.7440  157.2330 C   0  0  0  0  0  1  0  0  0  0  0  0
  163.1700  211.1920  156.7230 C   0  0  0  0  0  2  0  0  0  0  0  0
  1 21  1  0  0  0  0
  1 45  1  1  0  0  0
  2  3  2  0  0  0  0
  3  4  1  0  0  0  0
  4  1  1  0  0  0  0
  5  4  1  0  0  0  0
  5  8  1  0  0  0  0
  6  9  1  6  0  0  0
  6  5  1  0  0  0  0
  6  7  1  0  0  0  0
  6  8  1  0  0  0  0
  8  7  1  1  0  0  0
 10  9  1  0  0  0  0
 11 10  1  0  0  0  0
 12 16  1  0  0  0  0
 13 12  1  0  0  0  0
 14 18  1  0  0  0  0
 15 13  1  1  0  0  0
 15 14  1  0  0  0  0
 16 19  1  0  0  0  0
 18 17  2  0  0  0  0
 19 17  1  0  0  0  0
 19 11  1  1  0  0  0
 20 15  1  0  0  0  0
 20 14  1  0  0  0  0
 21 30  1  1  0  0  0
 21 22  1  0  0  0  0
 22 26  1  0  0  0  0
 22 23  1  1  0  0  0
 24 29  1  0  0  0  0
 25 29  2  0  0  0  0
 26 25  1  0  0  0  0
 27 24  2  0  0  0  0
 28 27  1  0  0  0  0
 28 26  2  0  0  0  0
 31 30  1  0  0  0  0
 32 31  1  0  0  0  0
 33 36  1  6  0  0  0
 33 32  1  0  0  0  0
 34 35  1  0  0  0  0
 35 33  1  0  0  0  0
 37 43  1  0  0  0  0
 39 40  1  0  0  0  0
 39 37  1  0  0  0  0
 40 38  1  6  0  0  0
 40 41  1  0  0  0  0
 41 36  1  1  0  0  0
 41 43  1  0  0  0  0
 42 39  1  0  0  0  0
 44 39  1  0  0  0  0
 45 46  1  0  0  0  0
 46 48  1  0  0  0  0
 48 47  1  0  0  0  0
M  END
>  <MODEL>
6

>  <REMARK>
 VINA RESULT:      -5.6      3.594      7.863
  Name = 
  19 active torsions:
  status: ('A' for Active; 'I' for Inactive)
    1  A    between atoms: C_1  and  C_12
    2  A    between atoms: C_1  and  C_31
    3  A    between atoms: C_4  and  C_15
    4  A    between atoms: C_4  and  C_16
    5  A    between atoms: N_5  and  N_47
    6  A    between atoms: C_7  and  C_20
    7  A    between atoms: C_7  and  C_45
    8  A    between atoms: C_8  and  C_20
    9  A    between atoms: C_8  and  C_23
   10  A    between atoms: C_8  and  N_47
   11  A    between atoms: C_11  and  C_15
   12  A    between atoms: C_11  and  C_33
   13  A    between atoms: C_12  and  O_27
   14  A    between atoms: C_12  and  C_39
   15  A    between atoms: C_18  and  C_23
   16  A    between atoms: C_18  and  C_34
   17  A    between atoms: C_23  and  O_41
   18  A    between atoms: C_39  and  C_46
   19  A    between atoms: O_41  and  C_46
                            x       y       z     vdW  Elec       q    Type
                         _______ _______ _______ _____ _____    ______ ____

>  <TORSDO>
F 19

$$$$
=
 OpenBabel11072412573D

 48 53  0  0  1  0  0  0  0  0999 V2000
  159.7580  210.5110  154.2580 C   0  0  2  0  0  3  0  0  0  0  0  0
  162.0980  209.3750  151.6990 O   0  0  0  0  0  0  0  0  0  0  0  0
  161.1480  209.9800  152.2600 C   0  0  0  0  0  3  0  0  0  0  0  0
  160.6810  209.5950  153.5670 N   0  0  0  0  0  0  0  0  0  0  0  0
  161.2840  208.5110  154.2510 N   0  0  0  0  0  0  0  0  0  0  0  0
  160.8070  207.2660  153.6500 C   0  0  2  0  0  0  0  0  0  0  0  0
  159.9420  206.8830  154.7560 N   0  0  0  0  0  2  0  0  0  0  0  0
  160.4340  208.1030  155.3700 C   0  0  2  0  0  3  0  0  0  0  0  0
  161.9470  206.2500  153.5420 C   0  0  0  0  0  2  0  0  0  0  0  0
  161.8410  205.4130  152.2770 C   0  0  0  0  0  2  0  0  0  0  0  0
  160.9880  206.1340  151.2490 C   0  0  0  0  0  2  0  0  0  0  0  0
  161.1810  206.9660  147.7860 C   0  0  0  0  0  2  0  0  0  0  0  0
  162.1040  206.0490  146.9760 C   0  0  0  0  0  2  0  0  0  0  0  0
  161.6440  203.8280  147.6860 N   0  0  0  0  0  0  0  0  0  0  0  0
  161.3960  204.7650  146.5920 C   0  0  2  0  0  3  0  0  0  0  0  0
  160.3350  206.2580  148.8580 C   0  0  0  0  0  2  0  0  0  0  0  0
  160.8920  204.0530  149.8920 C   0  0  0  0  0  3  0  0  0  0  0  0
  161.1390  203.2850  148.8730 N   0  0  0  0  0  0  0  0  0  0  0  0
  161.2020  205.5290  149.8790 C   0  0  2  0  0  3  0  0  0  0  0  0
  162.2110  203.7700  146.3990 O   0  0  0  0  0  0  0  0  0  0  0  0
  159.7540  211.9110  153.6240 C   0  0  2  0  0  3  0  0  0  0  0  0
  158.3120  212.4380  153.4930 C   0  0  2  0  0  3  0  0  0  0  0  0
  158.2920  213.7970  153.1670 O   0  0  0  0  0  1  0  0  0  0  0  0
  156.0680  211.8580  157.1180 C   0  0  0  0  0  3  0  0  0  0  0  0
  157.8480  212.9640  155.8990 C   0  0  0  0  0  3  0  0  0  0  0  0
  157.5350  212.2190  154.7560 C   0  0  0  0  0  0  0  0  0  0  0  0
  155.7560  211.1050  155.9810 C   0  0  0  0  0  3  0  0  0  0  0  0
  156.4880  211.2850  154.8030 C   0  0  0  0  0  3  0  0  0  0  0  0
  157.1140  212.7850  157.0770 C   0  0  0  0  0  3  0  0  0  0  0  0
  160.3790  211.8720  152.3710 O   0  0  0  0  0  0  0  0  0  0  0  0
  159.6790  212.8080  151.5980 C   0  0  0  0  0  2  0  0  0  0  0  0
  160.4830  213.1750  150.3620 C   0  0  0  0  0  2  0  0  0  0  0  0
  159.5330  213.3270  149.1820 C   0  0  1  0  0  3  0  0  0  0  0  0
  157.3630  213.5380  148.8010 C   0  0  0  0  0  1  0  0  0  0  0  0
  158.4000  214.0390  149.5870 O   0  0  0  0  0  0  0  0  0  0  0  0
  160.2070  214.0760  148.0330 C   0  0  0  0  0  2  0  0  0  0  0  0
  161.5630  213.5720  144.6310 C   0  0  0  0  0  2  0  0  0  0  0  0
  158.4900  212.2650  146.0040 O   0  0  0  0  0  1  0  0  0  0  0  0
  160.1710  213.0040  144.4410 C   0  0  0  0  0  0  0  0  0  0  0  0
  159.4490  213.2510  145.7570 C   0  0  2  0  0  3  0  0  0  0  0  0
  160.5320  213.2050  146.8150 C   0  0  1  0  0  3  0  0  0  0  0  0
  159.5240  213.6570  143.4030 F   0  0  0  0  0  0  0  0  0  0  0  0
  161.8330  213.5960  146.1330 C   0  0  0  0  0  2  0  0  0  0  0  0
  160.2630  211.6450  144.1620 F   0  0  0  0  0  0  0  0  0  0  0  0
  160.0660  210.5660  155.7520 C   0  0  0  0  0  2  0  0  0  0  0  0
  161.2390  211.4910  156.0120 C   0  0  0  0  0  2  0  0  0  0  0  0
  163.3650  211.2160  157.2610 C   0  0  0  0  0  1  0  0  0  0  0  0
  162.5210  210.6820  156.1230 C   0  0  0  0  0  2  0  0  0  0  0  0
  1 45  1  1  0  0  0
  2  3  2  0  0  0  0
  3  4  1  0  0  0  0
  4  5  1  0  0  0  0
  4  1  1  0  0  0  0
  5  8  1  0  0  0  0
  6  9  1  1  0  0  0
  6  5  1  0  0  0  0
  6  7  1  0  0  0  0
  6  8  1  0  0  0  0
  8  7  1  6  0  0  0
 10  9  1  0  0  0  0
 11 10  1  0  0  0  0
 12 16  1  0  0  0  0
 13 12  1  0  0  0  0
 14 18  1  0  0  0  0
 15 13  1  1  0  0  0
 15 14  1  0  0  0  0
 16 19  1  0  0  0  0
 18 17  2  0  0  0  0
 19 17  1  0  0  0  0
 19 11  1  1  0  0  0
 20 15  1  0  0  0  0
 20 14  1  0  0  0  0
 21 30  1  6  0  0  0
 21  1  1  0  0  0  0
 22 23  1  1  0  0  0
 22 21  1  0  0  0  0
 22 26  1  0  0  0  0
 25 29  2  0  0  0  0
 26 28  2  0  0  0  0
 26 25  1  0  0  0  0
 27 24  2  0  0  0  0
 28 27  1  0  0  0  0
 29 24  1  0  0  0  0
 31 30  1  0  0  0  0
 32 31  1  0  0  0  0
 33 36  1  6  0  0  0
 33 35  1  0  0  0  0
 33 32  1  0  0  0  0
 34 35  1  0  0  0  0
 37 43  1  0  0  0  0
 39 37  1  0  0  0  0
 39 40  1  0  0  0  0
 40 38  1  1  0  0  0
 40 41  1  0  0  0  0
 41 36  1  1  0  0  0
 42 39  1  0  0  0  0
 43 41  1  0  0  0  0
 44 39  1  0  0  0  0
 45 46  1  0  0  0  0
 46 48  1  0  0  0  0
 48 47  1  0  0  0  0
M  END
>  <MODEL>
7

>  <REMARK>
 VINA RESULT:      -5.4      1.858      2.534
  Name = 
  19 active torsions:
  status: ('A' for Active; 'I' for Inactive)
    1  A    between atoms: C_1  and  C_12
    2  A    between atoms: C_1  and  C_31
    3  A    between atoms: C_4  and  C_15
    4  A    between atoms: C_4  and  C_16
    5  A    between atoms: N_5  and  N_47
    6  A    between atoms: C_7  and  C_20
    7  A    between atoms: C_7  and  C_45
    8  A    between atoms: C_8  and  C_20
    9  A    between atoms: C_8  and  C_23
   10  A    between atoms: C_8  and  N_47
   11  A    between atoms: C_11  and  C_15
   12  A    between atoms: C_11  and  C_33
   13  A    between atoms: C_12  and  O_27
   14  A    between atoms: C_12  and  C_39
   15  A    between atoms: C_18  and  C_23
   16  A    between atoms: C_18  and  C_34
   17  A    between atoms: C_23  and  O_41
   18  A    between atoms: C_39  and  C_46
   19  A    between atoms: O_41  and  C_46
                            x       y       z     vdW  Elec       q    Type
                         _______ _______ _______ _____ _____    ______ ____

>  <TORSDO>
F 19

$$$$
=
 OpenBabel11072412573D

 48 53  0  0  1  0  0  0  0  0999 V2000
  160.8490  207.9790  152.7040 C   0  0  2  0  0  3  0  0  0  0  0  0
  161.2030  207.1220  149.1740 O   0  0  0  0  0  0  0  0  0  0  0  0
  160.8310  207.7000  150.2280 C   0  0  0  0  0  3  0  0  0  0  0  0
  161.0720  207.1230  151.5260 N   0  0  0  0  0  0  0  0  0  0  0  0
  161.7330  205.8750  151.6420 N   0  0  0  0  0  0  0  0  0  0  0  0
  160.7790  204.8170  151.3130 C   0  0  2  0  0  0  0  0  0  0  0  0
  160.6100  204.3340  152.6760 N   0  0  0  0  0  2  0  0  0  0  0  0
  161.5790  205.3630  153.0040 C   0  0  2  0  0  3  0  0  0  0  0  0
  161.4540  203.7220  150.4830 C   0  0  0  0  0  2  0  0  0  0  0  0
  160.4650  203.0100  149.5750 C   0  0  0  0  0  2  0  0  0  0  0  0
  161.1990  202.3540  148.4200 C   0  0  0  0  0  2  0  0  0  0  0  0
  160.2140  202.5490  144.9970 C   0  0  0  0  0  2  0  0  0  0  0  0
  159.8650  203.9660  144.5300 C   0  0  0  0  0  2  0  0  0  0  0  0
  161.5390  205.4020  145.4130 N   0  0  0  0  0  0  0  0  0  0  0  0
  161.1150  204.7470  144.1780 C   0  0  2  0  0  3  0  0  0  0  0  0
  161.4180  202.4550  145.9500 C   0  0  0  0  0  2  0  0  0  0  0  0
  162.2750  204.3290  147.3610 C   0  0  0  0  0  3  0  0  0  0  0  0
  162.3830  205.3210  146.5280 N   0  0  0  0  0  0  0  0  0  0  0  0
  161.2070  203.2740  147.2180 C   0  0  2  0  0  3  0  0  0  0  0  0
  160.9640  206.0340  144.2950 O   0  0  0  0  0  0  0  0  0  0  0  0
  160.9370  209.4730  152.3540 C   0  0  2  0  0  3  0  0  0  0  0  0
  161.9960  209.7070  151.2590 C   0  0  2  0  0  3  0  0  0  0  0  0
  163.2560  209.9540  151.8120 O   0  0  0  0  0  1  0  0  0  0  0  0
  160.8750  212.9470  148.6610 C   0  0  0  0  0  3  0  0  0  0  0  0
  162.0350  210.8510  149.0300 C   0  0  0  0  0  3  0  0  0  0  0  0
  161.6140  210.8470  150.3650 C   0  0  0  0  0  0  0  0  0  0  0  0
  160.4580  212.9530  149.9960 C   0  0  0  0  0  3  0  0  0  0  0  0
  160.8260  211.9050  150.8460 C   0  0  0  0  0  3  0  0  0  0  0  0
  161.6650  211.8990  148.1800 C   0  0  0  0  0  3  0  0  0  0  0  0
  161.2420  210.2170  153.5010 O   0  0  0  0  0  0  0  0  0  0  0  0
  160.1060  211.0050  153.7240 C   0  0  0  0  0  2  0  0  0  0  0  0
  160.4570  212.2000  154.5940 C   0  0  0  0  0  2  0  0  0  0  0  0
  159.3810  212.3720  155.6560 C   0  0  1  0  0  3  0  0  0  0  0  0
  159.2050  210.8570  157.2610 C   0  0  0  0  0  1  0  0  0  0  0  0
  159.8990  212.0120  156.9040 O   0  0  0  0  0  0  0  0  0  0  0  0
  158.9020  213.8220  155.7160 C   0  0  0  0  0  2  0  0  0  0  0  0
  155.2880  213.1160  156.0480 C   0  0  0  0  0  2  0  0  0  0  0  0
  157.2080  213.4410  153.0080 O   0  0  0  0  0  1  0  0  0  0  0  0
  155.4690  212.8460  154.5680 C   0  0  0  0  0  0  0  0  0  0  0  0
  156.9600  212.9930  154.3080 C   0  0  2  0  0  3  0  0  0  0  0  0
  157.4350  214.0190  155.3150 C   0  0  1  0  0  3  0  0  0  0  0  0
  155.0480  211.5610  154.2600 F   0  0  0  0  0  0  0  0  0  0  0  0
  156.4810  213.9550  156.4970 C   0  0  0  0  0  2  0  0  0  0  0  0
  154.7340  213.7720  153.8380 F   0  0  0  0  0  0  0  0  0  0  0  0
  161.8040  207.6030  153.8340 C   0  0  0  0  0  2  0  0  0  0  0  0
  161.2770  208.1190  155.1590 C   0  0  0  0  0  2  0  0  0  0  0  0
  160.0820  206.9550  156.9950 C   0  0  0  0  0  1  0  0  0  0  0  0
  160.0120  207.3690  155.5410 C   0  0  0  0  0  2  0  0  0  0  0  0
  1 45  1  1  0  0  0
  2  3  2  0  0  0  0
  3  4  1  0  0  0  0
  4  5  1  0  0  0  0
  4  1  1  0  0  0  0
  5  8  1  0  0  0  0
  6  9  1  6  0  0  0
  6  5  1  0  0  0  0
  6  7  1  0  0  0  0
  6  8  1  0  0  0  0
  8  7  1  1  0  0  0
 10  9  1  0  0  0  0
 11 10  1  0  0  0  0
 12 16  1  0  0  0  0
 13 12  1  0  0  0  0
 14 18  1  0  0  0  0
 15 20  1  0  0  0  0
 15 13  1  1  0  0  0
 15 14  1  0  0  0  0
 16 19  1  0  0  0  0
 18 17  2  0  0  0  0
 19 17  1  0  0  0  0
 19 11  1  1  0  0  0
 20 14  1  0  0  0  0
 21  1  1  0  0  0  0
 21 30  1  1  0  0  0
 22 23  1  1  0  0  0
 22 21  1  0  0  0  0
 24 27  1  0  0  0  0
 25 26  2  0  0  0  0
 26 28  1  0  0  0  0
 26 22  1  0  0  0  0
 27 28  2  0  0  0  0
 29 24  2  0  0  0  0
 29 25  1  0  0  0  0
 30 31  1  0  0  0  0
 31 32  1  0  0  0  0
 33 32  1  6  0  0  0
 33 36  1  0  0  0  0
 33 35  1  0  0  0  0
 35 34  1  0  0  0  0
 37 43  1  0  0  0  0
 39 37  1  0  0  0  0
 40 38  1  6  0  0  0
 40 39  1  0  0  0  0
 40 41  1  0  0  0  0
 41 36  1  1  0  0  0
 41 43  1  0  0  0  0
 42 39  1  0  0  0  0
 44 39  1  0  0  0  0
 45 46  1  0  0  0  0
 46 48  1  0  0  0  0
 48 47  1  0  0  0  0
M  END
>  <MODEL>
8

>  <REMARK>
 VINA RESULT:      -5.3      2.986      5.880
  Name = 
  19 active torsions:
  status: ('A' for Active; 'I' for Inactive)
    1  A    between atoms: C_1  and  C_12
    2  A    between atoms: C_1  and  C_31
    3  A    between atoms: C_4  and  C_15
    4  A    between atoms: C_4  and  C_16
    5  A    between atoms: N_5  and  N_47
    6  A    between atoms: C_7  and  C_20
    7  A    between atoms: C_7  and  C_45
    8  A    between atoms: C_8  and  C_20
    9  A    between atoms: C_8  and  C_23
   10  A    between atoms: C_8  and  N_47
   11  A    between atoms: C_11  and  C_15
   12  A    between atoms: C_11  and  C_33
   13  A    between atoms: C_12  and  O_27
   14  A    between atoms: C_12  and  C_39
   15  A    between atoms: C_18  and  C_23
   16  A    between atoms: C_18  and  C_34
   17  A    between atoms: C_23  and  O_41
   18  A    between atoms: C_39  and  C_46
   19  A    between atoms: O_41  and  C_46
                            x       y       z     vdW  Elec       q    Type
                         _______ _______ _______ _____ _____    ______ ____

>  <TORSDO>
F 19

$$$$
=
 OpenBabel11072412573D

 48 53  0  0  1  0  0  0  0  0999 V2000
  161.5820  207.6970  153.8780 C   0  0  2  0  0  3  0  0  0  0  0  0
  158.6110  207.0930  155.9080 O   0  0  0  0  0  0  0  0  0  0  0  0
  159.4310  207.0500  154.9550 C   0  0  0  0  0  3  0  0  0  0  0  0
  160.5260  207.9810  154.8640 N   0  0  0  0  0  0  0  0  0  0  0  0
  160.6990  208.9810  155.8540 N   0  0  0  0  0  0  0  0  0  0  0  0
  162.0340  209.5560  155.6980 C   0  0  2  0  0  0  0  0  0  0  0  0
  162.6070  208.9350  156.8830 N   0  0  0  0  0  2  0  0  0  0  0  0
  161.2760  208.3850  157.0590 C   0  0  2  0  0  3  0  0  0  0  0  0
  161.9940  211.0720  155.9070 C   0  0  0  0  0  2  0  0  0  0  0  0
  160.5850  211.5660  156.1950 C   0  0  0  0  0  2  0  0  0  0  0  0
  160.1390  212.5260  155.1070 C   0  0  0  0  0  2  0  0  0  0  0  0
  157.0490  213.2250  153.4680 C   0  0  0  0  0  2  0  0  0  0  0  0
  155.8130  212.9690  154.3350 C   0  0  0  0  0  2  0  0  0  0  0  0
  156.2970  213.8600  156.4840 N   0  0  0  0  0  0  0  0  0  0  0  0
  155.5450  214.1380  155.2620 C   0  0  2  0  0  3  0  0  0  0  0  0
  158.2450  213.8510  154.2050 C   0  0  0  0  0  2  0  0  0  0  0  0
  158.6280  213.7290  156.6710 C   0  0  0  0  0  3  0  0  0  0  0  0
  157.4890  214.0940  157.1800 N   0  0  0  0  0  0  0  0  0  0  0  0
  158.7200  212.9820  155.3640 C   0  0  2  0  0  3  0  0  0  0  0  0
  154.8980  213.7990  156.3390 O   0  0  0  0  0  0  0  0  0  0  0  0
  161.2980  208.3650  152.5230 C   0  0  2  0  0  3  0  0  0  0  0  0
  160.7510  209.7900  152.7310 C   0  0  2  0  0  3  0  0  0  0  0  0
  159.3780  209.7780  152.9910 O   0  0  0  0  0  1  0  0  0  0  0  0
  161.5430  212.3190  149.3420 C   0  0  0  0  0  3  0  0  0  0  0  0
  160.3200  211.8590  151.3840 C   0  0  0  0  0  3  0  0  0  0  0  0
  161.0220  210.6580  151.5400 C   0  0  0  0  0  0  0  0  0  0  0  0
  162.2410  211.1160  149.4880 C   0  0  0  0  0  3  0  0  0  0  0  0
  161.9810  210.2880  150.5840 C   0  0  0  0  0  3  0  0  0  0  0  0
  160.5820  212.6890  150.2880 C   0  0  0  0  0  3  0  0  0  0  0  0
  160.3900  207.5910  151.7880 O   0  0  0  0  0  0  0  0  0  0  0  0
  161.0680  207.2860  150.6010 C   0  0  0  0  0  2  0  0  0  0  0  0
  160.1690  206.4860  149.6730 C   0  0  0  0  0  2  0  0  0  0  0  0
  161.0340  205.7310  148.6740 C   0  0  1  0  0  3  0  0  0  0  0  0
  162.1880  207.3050  147.6280 C   0  0  0  0  0  1  0  0  0  0  0  0
  162.2980  206.3250  148.6140 O   0  0  0  0  0  0  0  0  0  0  0  0
  161.1910  204.2680  149.0860 C   0  0  0  0  0  2  0  0  0  0  0  0
  160.9540  203.1400  145.5730 C   0  0  0  0  0  2  0  0  0  0  0  0
  160.9100  201.1070  148.5570 O   0  0  0  0  0  1  0  0  0  0  0  0
  160.6020  201.8490  146.2830 C   0  0  0  0  0  0  0  0  0  0  0  0
  160.5520  202.1990  147.7620 C   0  0  2  0  0  3  0  0  0  0  0  0
  161.5520  203.3230  147.9340 C   0  0  1  0  0  3  0  0  0  0  0  0
  159.3670  201.3870  145.8530 F   0  0  0  0  0  0  0  0  0  0  0  0
  161.6570  204.0320  146.5940 C   0  0  0  0  0  2  0  0  0  0  0  0
  161.5810  200.8980  146.0210 F   0  0  0  0  0  0  0  0  0  0  0  0
  161.8000  206.1930  153.7350 C   0  0  0  0  0  2  0  0  0  0  0  0
  162.5600  205.8920  152.4580 C   0  0  0  0  0  2  0  0  0  0  0  0
  160.9510  204.0060  152.3710 C   0  0  0  0  0  1  0  0  0  0  0  0
  162.3720  204.4320  152.0760 C   0  0  0  0  0  2  0  0  0  0  0  0
  1 45  1  6  0  0  0
  1  4  1  0  0  0  0
  3  2  2  0  0  0  0
  4  3  1  0  0  0  0
  4  5  1  0  0  0  0
  5  8  1  0  0  0  0
  6  5  1  0  0  0  0
  6  9  1  1  0  0  0
  6  7  1  0  0  0  0
  6  8  1  0  0  0  0
  8  7  1  6  0  0  0
  9 10  1  0  0  0  0
 11 10  1  0  0  0  0
 12 16  1  0  0  0  0
 12 13  1  0  0  0  0
 14 18  1  0  0  0  0
 15 13  1  6  0  0  0
 15 20  1  0  0  0  0
 15 14  1  0  0  0  0
 16 19  1  0  0  0  0
 17 18  2  0  0  0  0
 19 11  1  6  0  0  0
 19 17  1  0  0  0  0
 20 14  1  0  0  0  0
 21 30  1  1  0  0  0
 21 22  1  0  0  0  0
 21  1  1  0  0  0  0
 22 23  1  6  0  0  0
 24 27  2  0  0  0  0
 24 29  1  0  0  0  0
 25 26  1  0  0  0  0
 26 22  1  0  0  0  0
 27 28  1  0  0  0  0
 28 26  2  0  0  0  0
 29 25  2  0  0  0  0
 31 30  1  0  0  0  0
 32 31  1  0  0  0  0
 33 36  1  1  0  0  0
 33 32  1  0  0  0  0
 34 35  1  0  0  0  0
 35 33  1  0  0  0  0
 37 39  1  0  0  0  0
 37 43  1  0  0  0  0
 39 40  1  0  0  0  0
 40 41  1  0  0  0  0
 40 38  1  1  0  0  0
 41 36  1  1  0  0  0
 42 39  1  0  0  0  0
 43 41  1  0  0  0  0
 44 39  1  0  0  0  0
 46 45  1  0  0  0  0
 48 47  1  0  0  0  0
 48 46  1  0  0  0  0
M  END
>  <MODEL>
9

>  <REMARK>
 VINA RESULT:      -5.0      3.773      8.985
  Name = 
  19 active torsions:
  status: ('A' for Active; 'I' for Inactive)
    1  A    between atoms: C_1  and  C_12
    2  A    between atoms: C_1  and  C_31
    3  A    between atoms: C_4  and  C_15
    4  A    between atoms: C_4  and  C_16
    5  A    between atoms: N_5  and  N_47
    6  A    between atoms: C_7  and  C_20
    7  A    between atoms: C_7  and  C_45
    8  A    between atoms: C_8  and  C_20
    9  A    between atoms: C_8  and  C_23
   10  A    between atoms: C_8  and  N_47
   11  A    between atoms: C_11  and  C_15
   12  A    between atoms: C_11  and  C_33
   13  A    between atoms: C_12  and  O_27
   14  A    between atoms: C_12  and  C_39
   15  A    between atoms: C_18  and  C_23
   16  A    between atoms: C_18  and  C_34
   17  A    between atoms: C_23  and  O_41
   18  A    between atoms: C_39  and  C_46
   19  A    between atoms: O_41  and  C_46
                            x       y       z     vdW  Elec       q    Type
                         _______ _______ _______ _____ _____    ______ ____

>  <TORSDO>
F 19

$$$$
