=
 OpenBabel11072411373D

 25 27  0  0  1  0  0  0  0  0999 V2000
  161.0590  209.2000  153.2680 C   0  0  1  0  0  3  0  0  0  0  0  0
  158.3290  211.7900  153.8710 C   0  0  0  0  0  3  0  0  0  0  0  0
  158.6320  212.7320  152.8830 C   0  0  0  0  0  0  0  0  0  0  0  0
  160.4930  211.3650  152.1510 C   0  0  0  0  0  3  0  0  0  0  0  0
  159.7100  212.5170  152.0200 C   0  0  0  0  0  3  0  0  0  0  0  0
  160.1960  210.4210  153.1400 C   0  0  0  0  0  0  0  0  0  0  0  0
  159.1110  210.6390  154.0030 C   0  0  0  0  0  3  0  0  0  0  0  0
  157.2010  213.9540  151.4610 O   0  0  0  0  0  1  0  0  0  0  0  0
  157.7860  213.9460  152.7280 C   0  0  0  0  0  2  0  0  0  0  0  0
  161.0090  208.6370  154.6560 C   0  0  0  0  0  0  0  0  0  0  0  0
  161.6210  209.3110  155.6670 N   0  0  0  0  0  0  0  0  0  0  0  0
  161.5930  208.8570  156.9490 C   0  0  0  0  0  3  0  0  0  0  0  0
  160.3170  207.4500  154.9310 C   0  0  0  0  0  3  0  0  0  0  0  0
  160.9200  207.6740  157.2590 C   0  0  0  0  0  3  0  0  0  0  0  0
  160.2770  206.9690  156.2410 C   0  0  0  0  0  3  0  0  0  0  0  0
  160.6940  208.1860  152.2840 N   0  0  0  0  0  2  0  0  0  0  0  0
  161.5090  207.8710  151.1500 C   0  0  0  0  0  0  0  0  0  0  0  0
  162.6270  208.4330  151.0070 O   0  0  0  0  0  0  0  0  0  0  0  0
  161.1040  206.9230  150.1990 O   0  0  0  0  0  0  0  0  0  0  0  0
  160.9180  202.7380  150.6350 C   0  0  0  0  0  3  0  0  0  0  0  0
  161.1140  203.5340  151.7660 C   0  0  0  0  0  3  0  0  0  0  0  0
  160.8540  204.7250  149.2530 C   0  0  0  0  0  3  0  0  0  0  0  0
  160.7870  203.3340  149.3780 C   0  0  0  0  0  3  0  0  0  0  0  0
  161.0550  205.5320  150.3790 C   0  0  0  0  0  0  0  0  0  0  0  0
  161.1810  204.9250  151.6390 C   0  0  0  0  0  3  0  0  0  0  0  0
  1 16  1  6  0  0  0
  1 10  1  0  0  0  0
  2  7  1  0  0  0  0
  3  2  2  0  0  0  0
  4  6  1  0  0  0  0
  5  4  2  0  0  0  0
  5  3  1  0  0  0  0
  6  1  1  0  0  0  0
  6  7  2  0  0  0  0
  8  9  1  0  0  0  0
  9  3  1  0  0  0  0
 10 13  2  0  0  0  0
 10 11  1  0  0  0  0
 11 12  2  0  0  0  0
 12 14  1  0  0  0  0
 13 15  1  0  0  0  0
 15 14  2  0  0  0  0
 17 16  1  0  0  0  0
 18 17  2  0  0  0  0
 19 24  1  0  0  0  0
 19 17  1  0  0  0  0
 20 21  1  0  0  0  0
 22 23  1  0  0  0  0
 22 24  2  0  0  0  0
 23 20  2  0  0  0  0
 24 25  1  0  0  0  0
 25 21  2  0  0  0  0
M  END
>  <MODEL>
1

>  <REMARK>
 VINA RESULT:      -7.3      0.000      0.000
  Name = 
  6 active torsions:
  status: ('A' for Active; 'I' for Inactive)
    1  A    between atoms: C_2  and  C_4
    2  A    between atoms: C_2  and  N_9
    3  A    between atoms: C_2  and  C_13
    4  A    between atoms: C_5  and  C_25
    5  A    between atoms: O_18  and  C_19
    6  A    between atoms: O_18  and  C_21
                            x       y       z     vdW  Elec       q    Type
                         _______ _______ _______ _____ _____    ______ ____

>  <TORSDO>
F 6

$$$$
=
 OpenBabel11072411373D

 25 27  0  0  1  0  0  0  0  0999 V2000
  161.6720  207.2230  152.0910 C   0  0  1  0  0  3  0  0  0  0  0  0
  162.2420  210.6890  150.6130 C   0  0  0  0  0  3  0  0  0  0  0  0
  162.1240  210.4190  149.2460 C   0  0  0  0  0  0  0  0  0  0  0  0
  161.7000  208.0860  149.7430 C   0  0  0  0  0  3  0  0  0  0  0  0
  161.8480  209.1190  148.8120 C   0  0  0  0  0  3  0  0  0  0  0  0
  161.8210  208.3510  151.1120 C   0  0  0  0  0  0  0  0  0  0  0  0
  162.0950  209.6580  151.5440 C   0  0  0  0  0  3  0  0  0  0  0  0
  161.5310  212.6320  148.6850 O   0  0  0  0  0  1  0  0  0  0  0  0
  162.2560  211.5210  148.2550 C   0  0  0  0  0  2  0  0  0  0  0  0
  161.0860  207.6960  153.3870 C   0  0  0  0  0  0  0  0  0  0  0  0
  160.7990  209.0180  153.5420 N   0  0  0  0  0  0  0  0  0  0  0  0
  160.2500  209.5000  154.6890 C   0  0  0  0  0  3  0  0  0  0  0  0
  160.8020  206.7970  154.4230 C   0  0  0  0  0  3  0  0  0  0  0  0
  159.9610  208.6350  155.7460 C   0  0  0  0  0  3  0  0  0  0  0  0
  160.2380  207.2740  155.6080 C   0  0  0  0  0  3  0  0  0  0  0  0
  160.8780  206.1340  151.5310 N   0  0  0  0  0  2  0  0  0  0  0  0
  161.3470  204.7840  151.4600 C   0  0  0  0  0  0  0  0  0  0  0  0
  162.4640  204.4820  151.9570 O   0  0  0  0  0  0  0  0  0  0  0  0
  160.5750  203.7710  150.8720 O   0  0  0  0  0  0  0  0  0  0  0  0
  161.1930  202.1460  147.0360 C   0  0  0  0  0  3  0  0  0  0  0  0
  160.7380  201.3170  148.0630 C   0  0  0  0  0  3  0  0  0  0  0  0
  161.2290  204.0200  148.5700 C   0  0  0  0  0  3  0  0  0  0  0  0
  161.4380  203.4990  147.2890 C   0  0  0  0  0  3  0  0  0  0  0  0
  160.7780  203.1960  149.6080 C   0  0  0  0  0  0  0  0  0  0  0  0
  160.5300  201.8390  149.3430 C   0  0  0  0  0  3  0  0  0  0  0  0
  1 16  1  6  0  0  0
  1 10  1  0  0  0  0
  2  7  1  0  0  0  0
  3  2  2  0  0  0  0
  4  6  1  0  0  0  0
  5  3  1  0  0  0  0
  5  4  2  0  0  0  0
  6  7  2  0  0  0  0
  6  1  1  0  0  0  0
  9  8  1  0  0  0  0
  9  3  1  0  0  0  0
 10 11  2  0  0  0  0
 10 13  1  0  0  0  0
 11 12  1  0  0  0  0
 12 14  2  0  0  0  0
 13 15  2  0  0  0  0
 15 14  1  0  0  0  0
 17 16  1  0  0  0  0
 17 18  2  0  0  0  0
 19 17  1  0  0  0  0
 20 23  2  0  0  0  0
 20 21  1  0  0  0  0
 21 25  2  0  0  0  0
 22 24  2  0  0  0  0
 23 22  1  0  0  0  0
 24 19  1  0  0  0  0
 25 24  1  0  0  0  0
M  END
>  <MODEL>
2

>  <REMARK>
 VINA RESULT:      -7.3      2.538      3.637
  Name = 
  6 active torsions:
  status: ('A' for Active; 'I' for Inactive)
    1  A    between atoms: C_2  and  C_4
    2  A    between atoms: C_2  and  N_9
    3  A    between atoms: C_2  and  C_13
    4  A    between atoms: C_5  and  C_25
    5  A    between atoms: O_18  and  C_19
    6  A    between atoms: O_18  and  C_21
                            x       y       z     vdW  Elec       q    Type
                         _______ _______ _______ _____ _____    ______ ____

>  <TORSDO>
F 6

$$$$
=
 OpenBabel11072411373D

 25 27  0  0  1  0  0  0  0  0999 V2000
  161.2700  208.4750  153.0700 C   0  0  1  0  0  3  0  0  0  0  0  0
  160.8260  211.8040  151.2700 C   0  0  0  0  0  3  0  0  0  0  0  0
  159.7320  212.3370  151.9590 C   0  0  0  0  0  0  0  0  0  0  0  0
  159.6590  210.3660  153.3660 C   0  0  0  0  0  3  0  0  0  0  0  0
  159.1530  211.6200  153.0100 C   0  0  0  0  0  3  0  0  0  0  0  0
  160.7520  209.8270  152.6770 C   0  0  0  0  0  0  0  0  0  0  0  0
  161.3340  210.5510  151.6250 C   0  0  0  0  0  3  0  0  0  0  0  0
  158.2800  214.0980  152.5530 O   0  0  0  0  0  1  0  0  0  0  0  0
  159.2070  213.6810  151.5970 C   0  0  0  0  0  2  0  0  0  0  0  0
  161.0750  208.2180  154.5340 C   0  0  0  0  0  0  0  0  0  0  0  0
  161.6860  209.0330  155.4370 N   0  0  0  0  0  0  0  0  0  0  0  0
  161.5300  208.8580  156.7770 C   0  0  0  0  0  3  0  0  0  0  0  0
  160.2530  207.1760  154.9830 C   0  0  0  0  0  3  0  0  0  0  0  0
  160.7240  207.8250  157.2610 C   0  0  0  0  0  3  0  0  0  0  0  0
  160.0810  206.9810  156.3540 C   0  0  0  0  0  3  0  0  0  0  0  0
  160.6560  207.4180  152.2720 N   0  0  0  0  0  2  0  0  0  0  0  0
  161.3990  206.3270  151.7210 C   0  0  0  0  0  0  0  0  0  0  0  0
  162.6270  206.2120  151.9760 O   0  0  0  0  0  0  0  0  0  0  0  0
  160.7830  205.3540  150.9200 O   0  0  0  0  0  0  0  0  0  0  0  0
  161.5880  204.6700  146.8430 C   0  0  0  0  0  3  0  0  0  0  0  0
  161.4350  203.5780  147.7000 C   0  0  0  0  0  3  0  0  0  0  0  0
  161.2090  206.1780  148.6990 C   0  0  0  0  0  3  0  0  0  0  0  0
  161.4740  205.9700  147.3420 C   0  0  0  0  0  3  0  0  0  0  0  0
  161.0580  205.0910  149.5690 C   0  0  0  0  0  0  0  0  0  0  0  0
  161.1700  203.7880  149.0570 C   0  0  0  0  0  3  0  0  0  0  0  0
  1 16  1  6  0  0  0
  1 10  1  0  0  0  0
  2  7  2  0  0  0  0
  2  3  1  0  0  0  0
  3  5  2  0  0  0  0
  5  4  1  0  0  0  0
  6  1  1  0  0  0  0
  6  4  2  0  0  0  0
  7  6  1  0  0  0  0
  9  3  1  0  0  0  0
  9  8  1  0  0  0  0
 10 13  2  0  0  0  0
 10 11  1  0  0  0  0
 11 12  2  0  0  0  0
 12 14  1  0  0  0  0
 13 15  1  0  0  0  0
 15 14  2  0  0  0  0
 17 18  2  0  0  0  0
 17 16  1  0  0  0  0
 19 17  1  0  0  0  0
 20 23  2  0  0  0  0
 20 21  1  0  0  0  0
 21 25  2  0  0  0  0
 22 24  2  0  0  0  0
 23 22  1  0  0  0  0
 24 19  1  0  0  0  0
 25 24  1  0  0  0  0
M  END
>  <MODEL>
3

>  <REMARK>
 VINA RESULT:      -6.9      1.277      2.091
  Name = 
  6 active torsions:
  status: ('A' for Active; 'I' for Inactive)
    1  A    between atoms: C_2  and  C_4
    2  A    between atoms: C_2  and  N_9
    3  A    between atoms: C_2  and  C_13
    4  A    between atoms: C_5  and  C_25
    5  A    between atoms: O_18  and  C_19
    6  A    between atoms: O_18  and  C_21
                            x       y       z     vdW  Elec       q    Type
                         _______ _______ _______ _____ _____    ______ ____

>  <TORSDO>
F 6

$$$$
=
 OpenBabel11072411373D

 25 27  0  0  1  0  0  0  0  0999 V2000
  161.8500  205.7430  148.4200 C   0  0  1  0  0  3  0  0  0  0  0  0
  160.8640  203.0360  150.9140 C   0  0  0  0  0  3  0  0  0  0  0  0
  160.6770  201.9430  150.0630 C   0  0  0  0  0  0  0  0  0  0  0  0
  161.2680  203.3240  148.1620 C   0  0  0  0  0  3  0  0  0  0  0  0
  160.8850  202.0860  148.6870 C   0  0  0  0  0  3  0  0  0  0  0  0
  161.4520  204.4220  149.0100 C   0  0  0  0  0  0  0  0  0  0  0  0
  161.2460  204.2740  150.3900 C   0  0  0  0  0  3  0  0  0  0  0  0
  158.9760  200.3220  150.2710 O   0  0  0  0  0  1  0  0  0  0  0  0
  160.2940  200.6190  150.6230 C   0  0  0  0  0  2  0  0  0  0  0  0
  161.6160  205.7750  146.9400 C   0  0  0  0  0  0  0  0  0  0  0  0
  160.4150  206.2080  146.4680 N   0  0  0  0  0  0  0  0  0  0  0  0
  160.1540  206.2760  145.1350 C   0  0  0  0  0  3  0  0  0  0  0  0
  162.6210  205.3980  146.0400 C   0  0  0  0  0  3  0  0  0  0  0  0
  161.1290  205.9010  144.2090 C   0  0  0  0  0  3  0  0  0  0  0  0
  162.3710  205.4610  144.6680 C   0  0  0  0  0  3  0  0  0  0  0  0
  161.1620  206.8490  149.0780 N   0  0  0  0  0  2  0  0  0  0  0  0
  161.7710  207.6520  150.0940 C   0  0  0  0  0  0  0  0  0  0  0  0
  162.9750  207.4590  150.4070 O   0  0  0  0  0  0  0  0  0  0  0  0
  161.0630  208.6770  150.7380 O   0  0  0  0  0  0  0  0  0  0  0  0
  160.4100  208.9360  154.8900 C   0  0  0  0  0  3  0  0  0  0  0  0
  160.2430  210.0760  154.1010 C   0  0  0  0  0  3  0  0  0  0  0  0
  161.0050  207.6620  152.9190 C   0  0  0  0  0  3  0  0  0  0  0  0
  160.7900  207.7290  154.2990 C   0  0  0  0  0  3  0  0  0  0  0  0
  160.8450  208.8000  152.1190 C   0  0  0  0  0  0  0  0  0  0  0  0
  160.4580  210.0080  152.7210 C   0  0  0  0  0  3  0  0  0  0  0  0
  1  6  1  0  0  0  0
  1 16  1  1  0  0  0
  3  9  1  0  0  0  0
  3  2  2  0  0  0  0
  4  5  2  0  0  0  0
  4  6  1  0  0  0  0
  5  3  1  0  0  0  0
  6  7  2  0  0  0  0
  7  2  1  0  0  0  0
  8  9  1  0  0  0  0
 10  1  1  0  0  0  0
 11 10  1  0  0  0  0
 12 11  2  0  0  0  0
 13 10  2  0  0  0  0
 14 15  2  0  0  0  0
 14 12  1  0  0  0  0
 15 13  1  0  0  0  0
 16 17  1  0  0  0  0
 17 18  2  0  0  0  0
 17 19  1  0  0  0  0
 19 24  1  0  0  0  0
 21 20  2  0  0  0  0
 22 23  2  0  0  0  0
 23 20  1  0  0  0  0
 24 25  2  0  0  0  0
 24 22  1  0  0  0  0
 25 21  1  0  0  0  0
M  END
>  <MODEL>
4

>  <REMARK>
 VINA RESULT:      -6.8      2.942      8.709
  Name = 
  6 active torsions:
  status: ('A' for Active; 'I' for Inactive)
    1  A    between atoms: C_2  and  C_4
    2  A    between atoms: C_2  and  N_9
    3  A    between atoms: C_2  and  C_13
    4  A    between atoms: C_5  and  C_25
    5  A    between atoms: O_18  and  C_19
    6  A    between atoms: O_18  and  C_21
                            x       y       z     vdW  Elec       q    Type
                         _______ _______ _______ _____ _____    ______ ____

>  <TORSDO>
F 6

$$$$
=
 OpenBabel11072411373D

 25 27  0  0  1  0  0  0  0  0999 V2000
  161.6690  209.0600  152.2290 C   0  0  1  0  0  3  0  0  0  0  0  0
  161.5260  212.0620  149.8870 C   0  0  0  0  0  3  0  0  0  0  0  0
  161.8720  211.4680  148.6700 C   0  0  0  0  0  0  0  0  0  0  0  0
  162.0670  209.3210  149.7730 C   0  0  0  0  0  3  0  0  0  0  0  0
  162.1370  210.0970  148.6120 C   0  0  0  0  0  3  0  0  0  0  0  0
  161.7250  209.9110  150.9950 C   0  0  0  0  0  0  0  0  0  0  0  0
  161.4560  211.2880  151.0490 C   0  0  0  0  0  3  0  0  0  0  0  0
  162.6010  213.4810  147.6800 O   0  0  0  0  0  1  0  0  0  0  0  0
  161.9230  212.2880  147.4290 C   0  0  0  0  0  2  0  0  0  0  0  0
  161.1340  209.8260  153.4000 C   0  0  0  0  0  0  0  0  0  0  0  0
  161.9960  210.2550  154.3630 N   0  0  0  0  0  0  0  0  0  0  0  0
  161.5690  210.9700  155.4380 C   0  0  0  0  0  3  0  0  0  0  0  0
  159.7710  210.1350  153.5020 C   0  0  0  0  0  3  0  0  0  0  0  0
  160.2170  211.2890  155.5760 C   0  0  0  0  0  3  0  0  0  0  0  0
  159.3150  210.8680  154.5980 C   0  0  0  0  0  3  0  0  0  0  0  0
  160.8890  207.8470  152.0040 N   0  0  0  0  0  2  0  0  0  0  0  0
  161.4850  206.5540  151.8520 C   0  0  0  0  0  0  0  0  0  0  0  0
  162.7300  206.4190  151.9810 O   0  0  0  0  0  0  0  0  0  0  0  0
  160.7060  205.4170  151.5900 O   0  0  0  0  0  0  0  0  0  0  0  0
  161.1350  202.8750  148.2600 C   0  0  0  0  0  3  0  0  0  0  0  0
  160.8370  202.3210  149.5070 C   0  0  0  0  0  3  0  0  0  0  0  0
  161.1440  205.0860  149.2470 C   0  0  0  0  0  3  0  0  0  0  0  0
  161.2870  204.2580  148.1300 C   0  0  0  0  0  3  0  0  0  0  0  0
  160.8500  204.5410  150.5030 C   0  0  0  0  0  0  0  0  0  0  0  0
  160.6950  203.1510  150.6240 C   0  0  0  0  0  3  0  0  0  0  0  0
  1 16  1  6  0  0  0
  1 10  1  0  0  0  0
  2  7  1  0  0  0  0
  3  2  2  0  0  0  0
  4  6  1  0  0  0  0
  5  3  1  0  0  0  0
  5  4  2  0  0  0  0
  6  7  2  0  0  0  0
  6  1  1  0  0  0  0
  9  8  1  0  0  0  0
  9  3  1  0  0  0  0
 10 13  2  0  0  0  0
 10 11  1  0  0  0  0
 11 12  2  0  0  0  0
 12 14  1  0  0  0  0
 13 15  1  0  0  0  0
 15 14  2  0  0  0  0
 17 18  2  0  0  0  0
 17 16  1  0  0  0  0
 19 17  1  0  0  0  0
 20 21  1  0  0  0  0
 21 25  2  0  0  0  0
 22 24  2  0  0  0  0
 23 20  2  0  0  0  0
 23 22  1  0  0  0  0
 24 25  1  0  0  0  0
 24 19  1  0  0  0  0
M  END
>  <MODEL>
5

>  <REMARK>
 VINA RESULT:      -6.3      2.428      3.443
  Name = 
  6 active torsions:
  status: ('A' for Active; 'I' for Inactive)
    1  A    between atoms: C_2  and  C_4
    2  A    between atoms: C_2  and  N_9
    3  A    between atoms: C_2  and  C_13
    4  A    between atoms: C_5  and  C_25
    5  A    between atoms: O_18  and  C_19
    6  A    between atoms: O_18  and  C_21
                            x       y       z     vdW  Elec       q    Type
                         _______ _______ _______ _____ _____    ______ ____

>  <TORSDO>
F 6

$$$$
=
 OpenBabel11072411373D

 25 27  0  0  1  0  0  0  0  0999 V2000
  160.7450  205.0330  149.1410 C   0  0  1  0  0  3  0  0  0  0  0  0
  162.7910  204.8510  145.9310 C   0  0  0  0  0  3  0  0  0  0  0  0
  161.9290  205.4840  145.0290 C   0  0  0  0  0  0  0  0  0  0  0  0
  160.3200  205.8270  146.8070 C   0  0  0  0  0  3  0  0  0  0  0  0
  160.6970  205.9760  145.4690 C   0  0  0  0  0  3  0  0  0  0  0  0
  161.1780  205.1920  147.7130 C   0  0  0  0  0  0  0  0  0  0  0  0
  162.4160  204.7020  147.2690 C   0  0  0  0  0  3  0  0  0  0  0  0
  161.2070  205.8280  142.8100 O   0  0  0  0  0  1  0  0  0  0  0  0
  162.3380  205.6640  143.6100 C   0  0  0  0  0  2  0  0  0  0  0  0
  160.8410  203.6060  149.5870 C   0  0  0  0  0  0  0  0  0  0  0  0
  161.1330  203.3350  150.8890 N   0  0  0  0  0  0  0  0  0  0  0  0
  161.2150  202.0590  151.3530 C   0  0  0  0  0  3  0  0  0  0  0  0
  160.6020  202.5510  148.6950 C   0  0  0  0  0  3  0  0  0  0  0  0
  160.9910  200.9840  150.4910 C   0  0  0  0  0  3  0  0  0  0  0  0
  160.6820  201.2350  149.1540 C   0  0  0  0  0  3  0  0  0  0  0  0
  161.5080  205.9060  150.0280 N   0  0  0  0  0  2  0  0  0  0  0  0
  161.5450  207.3280  149.8790 C   0  0  0  0  0  0  0  0  0  0  0  0
  160.8450  207.8840  148.9920 O   0  0  0  0  0  0  0  0  0  0  0  0
  162.3270  208.1310  150.7230 O   0  0  0  0  0  0  0  0  0  0  0  0
  161.1290  209.5640  154.4970 C   0  0  0  0  0  3  0  0  0  0  0  0
  161.8310  210.4120  153.6370 C   0  0  0  0  0  3  0  0  0  0  0  0
  161.2420  207.7990  152.8440 C   0  0  0  0  0  3  0  0  0  0  0  0
  160.8340  208.2580  154.1010 C   0  0  0  0  0  3  0  0  0  0  0  0
  161.9500  208.6380  151.9760 C   0  0  0  0  0  0  0  0  0  0  0  0
  162.2390  209.9510  152.3820 C   0  0  0  0  0  3  0  0  0  0  0  0
  1 10  1  0  0  0  0
  1 16  1  1  0  0  0
  2  7  1  0  0  0  0
  3  5  1  0  0  0  0
  3  2  2  0  0  0  0
  4  6  1  0  0  0  0
  5  4  2  0  0  0  0
  6  1  1  0  0  0  0
  7  6  2  0  0  0  0
  8  9  1  0  0  0  0
  9  3  1  0  0  0  0
 10 11  1  0  0  0  0
 11 12  2  0  0  0  0
 13 15  1  0  0  0  0
 13 10  2  0  0  0  0
 14 12  1  0  0  0  0
 15 14  2  0  0  0  0
 17 16  1  0  0  0  0
 17 19  1  0  0  0  0
 18 17  2  0  0  0  0
 19 24  1  0  0  0  0
 21 20  2  0  0  0  0
 22 23  2  0  0  0  0
 23 20  1  0  0  0  0
 24 25  2  0  0  0  0
 24 22  1  0  0  0  0
 25 21  1  0  0  0  0
M  END
>  <MODEL>
6

>  <REMARK>
 VINA RESULT:      -6.1      3.083      7.962
  Name = 
  6 active torsions:
  status: ('A' for Active; 'I' for Inactive)
    1  A    between atoms: C_2  and  C_4
    2  A    between atoms: C_2  and  N_9
    3  A    between atoms: C_2  and  C_13
    4  A    between atoms: C_5  and  C_25
    5  A    between atoms: O_18  and  C_19
    6  A    between atoms: O_18  and  C_21
                            x       y       z     vdW  Elec       q    Type
                         _______ _______ _______ _____ _____    ______ ____

>  <TORSDO>
F 6

$$$$
=
 OpenBabel11072411373D

 25 27  0  0  1  0  0  0  0  0999 V2000
  162.1930  208.1130  149.9440 C   0  0  1  0  0  3  0  0  0  0  0  0
  160.4400  208.4570  153.3100 C   0  0  0  0  0  3  0  0  0  0  0  0
  160.8730  207.2960  153.9570 C   0  0  0  0  0  0  0  0  0  0  0  0
  162.1660  206.6880  152.0000 C   0  0  0  0  0  3  0  0  0  0  0  0
  161.7410  206.4150  153.3030 C   0  0  0  0  0  3  0  0  0  0  0  0
  161.7320  207.8480  151.3470 C   0  0  0  0  0  0  0  0  0  0  0  0
  160.8650  208.7320  152.0070 C   0  0  0  0  0  3  0  0  0  0  0  0
  159.7230  208.1020  155.8510 O   0  0  0  0  0  1  0  0  0  0  0  0
  160.4410  207.0150  155.3520 C   0  0  0  0  0  2  0  0  0  0  0  0
  161.9160  206.9450  149.0470 C   0  0  0  0  0  0  0  0  0  0  0  0
  162.4580  206.9230  147.7990 N   0  0  0  0  0  0  0  0  0  0  0  0
  162.2550  205.8810  146.9490 C   0  0  0  0  0  3  0  0  0  0  0  0
  161.1360  205.8650  149.4840 C   0  0  0  0  0  3  0  0  0  0  0  0
  161.4780  204.7920  147.3480 C   0  0  0  0  0  3  0  0  0  0  0  0
  160.9170  204.7870  148.6260 C   0  0  0  0  0  3  0  0  0  0  0  0
  161.5950  209.3310  149.4080 N   0  0  0  0  0  2  0  0  0  0  0  0
  162.0650  210.6410  149.7410 C   0  0  0  0  0  0  0  0  0  0  0  0
  163.0800  210.7760  150.4740 O   0  0  0  0  0  0  0  0  0  0  0  0
  161.4350  211.7920  149.2430 O   0  0  0  0  0  0  0  0  0  0  0  0
  161.5580  213.2100  145.2800 C   0  0  0  0  0  3  0  0  0  0  0  0
  162.7170  213.2560  146.0570 C   0  0  0  0  0  3  0  0  0  0  0  0
  160.3530  212.2350  147.1400 C   0  0  0  0  0  3  0  0  0  0  0  0
  160.3750  212.6990  145.8210 C   0  0  0  0  0  3  0  0  0  0  0  0
  161.5090  212.2800  147.9300 C   0  0  0  0  0  0  0  0  0  0  0  0
  162.6930  212.7920  147.3750 C   0  0  0  0  0  3  0  0  0  0  0  0
  1 16  1  6  0  0  0
  1  6  1  0  0  0  0
  2  3  1  0  0  0  0
  3  9  1  0  0  0  0
  4  5  1  0  0  0  0
  5  3  2  0  0  0  0
  6  4  2  0  0  0  0
  6  7  1  0  0  0  0
  7  2  2  0  0  0  0
  9  8  1  0  0  0  0
 10 13  1  0  0  0  0
 10  1  1  0  0  0  0
 11 10  2  0  0  0  0
 12 14  2  0  0  0  0
 12 11  1  0  0  0  0
 14 15  1  0  0  0  0
 15 13  2  0  0  0  0
 16 17  1  0  0  0  0
 17 18  2  0  0  0  0
 19 17  1  0  0  0  0
 20 23  2  0  0  0  0
 20 21  1  0  0  0  0
 21 25  2  0  0  0  0
 22 24  2  0  0  0  0
 23 22  1  0  0  0  0
 24 19  1  0  0  0  0
 25 24  1  0  0  0  0
M  END
>  <MODEL>
7

>  <REMARK>
 VINA RESULT:      -6.1      3.675      7.234
  Name = 
  6 active torsions:
  status: ('A' for Active; 'I' for Inactive)
    1  A    between atoms: C_2  and  C_4
    2  A    between atoms: C_2  and  N_9
    3  A    between atoms: C_2  and  C_13
    4  A    between atoms: C_5  and  C_25
    5  A    between atoms: O_18  and  C_19
    6  A    between atoms: O_18  and  C_21
                            x       y       z     vdW  Elec       q    Type
                         _______ _______ _______ _____ _____    ______ ____

>  <TORSDO>
F 6

$$$$
=
 OpenBabel11072411373D

 25 27  0  0  1  0  0  0  0  0999 V2000
  160.4140  209.9810  153.2960 C   0  0  1  0  0  3  0  0  0  0  0  0
  161.1970  206.2530  153.1880 C   0  0  0  0  0  3  0  0  0  0  0  0
  161.5430  206.0920  151.8420 C   0  0  0  0  0  0  0  0  0  0  0  0
  161.1660  208.4540  151.4620 C   0  0  0  0  0  3  0  0  0  0  0  0
  161.5320  207.1940  150.9820 C   0  0  0  0  0  3  0  0  0  0  0  0
  160.8160  208.6200  152.8070 C   0  0  0  0  0  0  0  0  0  0  0  0
  160.8310  207.5130  153.6700 C   0  0  0  0  0  3  0  0  0  0  0  0
  161.2560  203.7570  152.0110 O   0  0  0  0  0  1  0  0  0  0  0  0
  161.9560  204.7560  151.3340 C   0  0  0  0  0  2  0  0  0  0  0  0
  160.9290  210.2400  154.6790 C   0  0  0  0  0  0  0  0  0  0  0  0
  162.2620  210.4460  154.8630 N   0  0  0  0  0  0  0  0  0  0  0  0
  162.7830  210.7040  156.0930 C   0  0  0  0  0  3  0  0  0  0  0  0
  160.0590  210.3070  155.7750 C   0  0  0  0  0  3  0  0  0  0  0  0
  161.9470  210.7690  157.2090 C   0  0  0  0  0  3  0  0  0  0  0  0
  160.5750  210.5700  157.0450 C   0  0  0  0  0  3  0  0  0  0  0  0
  160.8490  211.0260  152.3760 N   0  0  0  0  0  2  0  0  0  0  0  0
  160.0220  212.1350  152.0090 C   0  0  0  0  0  0  0  0  0  0  0  0
  158.8890  212.2740  152.5390 O   0  0  0  0  0  0  0  0  0  0  0  0
  160.4560  213.0970  151.0840 O   0  0  0  0  0  0  0  0  0  0  0  0
  160.4580  212.6990  146.8920 C   0  0  0  0  0  3  0  0  0  0  0  0
  161.5380  212.2010  147.6250 C   0  0  0  0  0  3  0  0  0  0  0  0
  159.4140  213.4460  148.9440 C   0  0  0  0  0  3  0  0  0  0  0  0
  159.3950  213.3210  147.5520 C   0  0  0  0  0  3  0  0  0  0  0  0
  160.4920  212.9550  149.6890 C   0  0  0  0  0  0  0  0  0  0  0  0
  161.5540  212.3270  149.0170 C   0  0  0  0  0  3  0  0  0  0  0  0
  1 16  1  6  0  0  0
  1 10  1  0  0  0  0
  2  7  1  0  0  0  0
  3  2  2  0  0  0  0
  4  6  1  0  0  0  0
  5  4  2  0  0  0  0
  5  3  1  0  0  0  0
  6  1  1  0  0  0  0
  6  7  2  0  0  0  0
  9  3  1  0  0  0  0
  9  8  1  0  0  0  0
 10 11  2  0  0  0  0
 10 13  1  0  0  0  0
 11 12  1  0  0  0  0
 12 14  2  0  0  0  0
 13 15  2  0  0  0  0
 15 14  1  0  0  0  0
 17 16  1  0  0  0  0
 17 18  2  0  0  0  0
 19 17  1  0  0  0  0
 20 23  2  0  0  0  0
 20 21  1  0  0  0  0
 21 25  2  0  0  0  0
 22 24  2  0  0  0  0
 23 22  1  0  0  0  0
 24 19  1  0  0  0  0
 25 24  1  0  0  0  0
M  END
>  <MODEL>
8

>  <REMARK>
 VINA RESULT:      -6.1      2.616      6.411
  Name = 
  6 active torsions:
  status: ('A' for Active; 'I' for Inactive)
    1  A    between atoms: C_2  and  C_4
    2  A    between atoms: C_2  and  N_9
    3  A    between atoms: C_2  and  C_13
    4  A    between atoms: C_5  and  C_25
    5  A    between atoms: O_18  and  C_19
    6  A    between atoms: O_18  and  C_21
                            x       y       z     vdW  Elec       q    Type
                         _______ _______ _______ _____ _____    ______ ____

>  <TORSDO>
F 6

$$$$
=
 OpenBabel11072411373D

 25 27  0  0  1  0  0  0  0  0999 V2000
  161.8050  207.0390  151.8090 C   0  0  1  0  0  3  0  0  0  0  0  0
  160.4630  204.2080  149.6400 C   0  0  0  0  0  3  0  0  0  0  0  0
  160.8140  203.0930  150.4090 C   0  0  0  0  0  0  0  0  0  0  0  0
  161.7880  204.5530  152.0790 C   0  0  0  0  0  3  0  0  0  0  0  0
  161.4710  203.2670  151.6310 C   0  0  0  0  0  3  0  0  0  0  0  0
  161.4420  205.6710  151.3110 C   0  0  0  0  0  0  0  0  0  0  0  0
  160.7790  205.4940  150.0870 C   0  0  0  0  0  3  0  0  0  0  0  0
  160.2150  201.7420  148.5700 O   0  0  0  0  0  1  0  0  0  0  0  0
  160.4560  201.7260  149.9440 C   0  0  0  0  0  2  0  0  0  0  0  0
  161.9440  208.0140  150.6780 C   0  0  0  0  0  0  0  0  0  0  0  0
  161.9090  209.3480  150.9440 N   0  0  0  0  0  0  0  0  0  0  0  0
  162.0490  210.2770  149.9600 C   0  0  0  0  0  3  0  0  0  0  0  0
  162.1430  207.5720  149.3630 C   0  0  0  0  0  3  0  0  0  0  0  0
  162.2400  209.8740  148.6370 C   0  0  0  0  0  3  0  0  0  0  0  0
  162.2880  208.5110  148.3400 C   0  0  0  0  0  3  0  0  0  0  0  0
  160.8400  207.5210  152.7920 N   0  0  0  0  0  2  0  0  0  0  0  0
  160.9550  207.2530  154.1930 C   0  0  0  0  0  0  0  0  0  0  0  0
  161.9590  206.6330  154.6320 O   0  0  0  0  0  0  0  0  0  0  0  0
  159.9830  207.6930  155.1030 O   0  0  0  0  0  0  0  0  0  0  0  0
  159.7680  211.4890  156.9150 C   0  0  0  0  0  3  0  0  0  0  0  0
  160.8110  210.6270  157.2600 C   0  0  0  0  0  3  0  0  0  0  0  0
  158.8980  209.8220  155.3890 C   0  0  0  0  0  3  0  0  0  0  0  0
  158.8120  211.0870  155.9780 C   0  0  0  0  0  3  0  0  0  0  0  0
  159.9360  208.9480  155.7310 C   0  0  0  0  0  0  0  0  0  0  0  0
  160.8950  209.3620  156.6710 C   0  0  0  0  0  3  0  0  0  0  0  0
  1 16  1  1  0  0  0
  2  7  2  0  0  0  0
  2  3  1  0  0  0  0
  3  5  2  0  0  0  0
  5  4  1  0  0  0  0
  6  1  1  0  0  0  0
  6  4  2  0  0  0  0
  7  6  1  0  0  0  0
  8  9  1  0  0  0  0
  9  3  1  0  0  0  0
 10 11  1  0  0  0  0
 10  1  1  0  0  0  0
 12 11  2  0  0  0  0
 13 10  2  0  0  0  0
 14 12  1  0  0  0  0
 15 14  2  0  0  0  0
 15 13  1  0  0  0  0
 16 17  1  0  0  0  0
 17 18  2  0  0  0  0
 17 19  1  0  0  0  0
 19 24  1  0  0  0  0
 20 21  1  0  0  0  0
 22 24  2  0  0  0  0
 22 23  1  0  0  0  0
 23 20  2  0  0  0  0
 24 25  1  0  0  0  0
 25 21  2  0  0  0  0
M  END
>  <MODEL>
9

>  <REMARK>
 VINA RESULT:      -6.0      2.827      7.794
  Name = 
  6 active torsions:
  status: ('A' for Active; 'I' for Inactive)
    1  A    between atoms: C_2  and  C_4
    2  A    between atoms: C_2  and  N_9
    3  A    between atoms: C_2  and  C_13
    4  A    between atoms: C_5  and  C_25
    5  A    between atoms: O_18  and  C_19
    6  A    between atoms: O_18  and  C_21
                            x       y       z     vdW  Elec       q    Type
                         _______ _______ _______ _____ _____    ______ ____

>  <TORSDO>
F 6

$$$$
