=
 OpenBabel11072412513D

 52 56  0  0  1  0  0  0  0  0999 V2000
  161.7900  211.4310  150.3970 C   0  0  0  0  0  2  0  0  0  0  0  0
  163.0050  210.2780  152.0700 O   0  0  0  0  0  1  0  0  0  0  0  0
  161.9830  210.1160  151.1300 C   0  0  1  0  0  3  0  0  0  0  0  0
  159.9530  210.7680  152.2860 O   0  0  0  0  0  1  0  0  0  0  0  0
  160.6780  209.6740  151.8030 C   0  0  2  0  0  3  0  0  0  0  0  0
  161.0480  209.0830  154.3060 N   0  0  0  0  0  0  0  0  0  0  0  0
  160.9370  210.4190  154.8630 C   0  0  0  0  0  1  0  0  0  0  0  0
  160.9660  208.7340  152.9330 C   0  0  0  0  0  0  0  0  0  0  0  0
  161.3240  206.9420  154.1310 O   0  0  0  0  0  0  0  0  0  0  0  0
  161.2810  207.9410  155.0880 N   0  0  0  0  0  2  0  0  0  0  0  0
  161.1460  207.4380  152.8470 C   0  0  0  0  0  0  0  0  0  0  0  0
  161.1390  206.6110  151.5890 C   0  0  1  0  0  3  0  0  0  0  0  0
  162.3970  206.7320  150.7160 C   0  0  0  0  0  2  0  0  0  0  0  0
  162.1160  207.3700  149.3580 C   0  0  0  0  0  2  0  0  0  0  0  0
  161.0110  206.7310  148.7310 O   0  0  0  0  0  0  0  0  0  0  0  0
  161.4060  205.0590  144.5860 C   0  0  0  0  0  2  0  0  0  0  0  0
  161.4200  203.8120  145.4320 C   0  0  0  0  0  2  0  0  0  0  0  0
  162.2380  204.0240  146.5690 O   0  0  0  0  0  0  0  0  0  0  0  0
  161.9910  204.9720  147.5710 C   0  0  0  0  0  3  0  0  0  0  0  0
  160.3740  205.9920  145.1110 C   0  0  0  0  0  3  0  0  0  0  0  0
  161.1230  205.9940  147.5450 C   0  0  0  0  0  0  0  0  0  0  0  0
  160.2820  206.3880  146.3810 C   0  0  0  0  0  3  0  0  0  0  0  0
  160.6360  205.3000  151.7410 O   0  0  0  0  0  0  0  0  0  0  0  0
  161.6650  204.3770  151.4800 C   0  0  0  0  0  2  0  0  0  0  0  0
  161.4170  201.8820  151.2700 N   0  0  0  0  0  1  0  0  0  0  0  0
  160.3190  203.3270  149.8230 O   0  0  0  0  0  0  0  0  0  0  0  0
  161.1030  203.1830  150.7970 C   0  0  0  0  0  0  0  0  0  0  0  0
  161.9400  211.2500  148.8970 C   0  0  0  0  0  2  0  0  0  0  0  0
  161.8850  212.6060  148.2090 C   0  0  2  0  0  3  0  0  0  0  0  0
  161.3650  213.6840  149.1500 C   0  0  0  0  0  1  0  0  0  0  0  0
  160.1500  211.5920  146.7690 C   0  0  0  0  0  2  0  0  0  0  0  0
  161.0770  212.5400  146.9510 C   0  0  0  0  0  0  0  0  0  0  0  0
  161.3140  213.5860  145.9040 C   0  0  2  0  0  3  0  0  0  0  0  0
  159.8520  212.2000  142.5460 C   0  0  0  0  0  2  0  0  0  0  0  0
  160.9730  212.8320  141.7390 C   0  0  0  0  0  0  0  0  0  0  0  0
  161.1280  212.4310  140.3760 N   0  0  0  0  0  2  0  0  0  0  0  0
  161.1610  213.0340  144.5080 C   0  0  1  0  0  3  0  0  0  0  0  0
  163.2740  214.4480  144.4650 S   0  0  0  0  0  0  0  0  0  0  0  0
  162.5990  214.1580  146.0490 O   0  0  0  0  0  0  0  0  0  0  0  0
  161.8480  213.6370  142.2840 N   0  0  0  0  0  0  0  0  0  0  0  0
  159.7640  212.6630  144.0150 C   0  0  1  0  0  3  0  0  0  0  0  0
  161.7120  214.1080  143.6590 C   0  0  1  0  0  3  0  0  0  0  0  0
  162.0580  213.0810  139.4540 C   0  0  1  0  0  3  0  0  0  0  0  0
  164.8900  213.2100  138.3080 C   0  0  0  0  0  1  0  0  0  0  0  0
  163.9480  212.4360  139.2160 C   0  0  1  0  0  3  0  0  0  0  0  0
  163.2910  213.3240  140.0890 O   0  0  0  0  0  0  0  0  0  0  0  0
  162.6780  212.1000  138.4720 C   0  0  1  0  0  3  0  0  0  0  0  0
  162.3210  210.7720  138.7460 O   0  0  0  0  0  0  0  0  0  0  0  0
  161.7320  210.3140  137.5680 C   0  0  0  0  0  1  0  0  0  0  0  0
  158.7470  213.7580  144.1890 C   0  0  0  0  0  0  0  0  0  0  0  0
  158.2910  214.3790  143.1920 O   0  0  0  0  0  0  0  0  0  0  0  0
  158.2990  214.0790  145.4620 O   0  0  0  0  0  1  0  0  0  0  0  0
  1  3  1  0  0  0  0
  3  5  1  0  0  0  0
  3  2  1  1  0  0  0
  5  4  1  1  0  0  0
  5  8  1  0  0  0  0
  6  7  1  0  0  0  0
  6 10  1  0  0  0  0
  8  6  1  0  0  0  0
  9 10  1  0  0  0  0
 11  8  2  0  0  0  0
 11  9  1  0  0  0  0
 12 13  1  1  0  0  0
 12 23  1  0  0  0  0
 12 11  1  0  0  0  0
 14 13  1  0  0  0  0
 15 14  1  0  0  0  0
 16 20  1  0  0  0  0
 16 17  1  0  0  0  0
 17 18  1  0  0  0  0
 18 19  1  0  0  0  0
 20 22  2  0  0  0  0
 21 19  2  0  0  0  0
 21 15  1  0  0  0  0
 22 21  1  0  0  0  0
 24 23  1  0  0  0  0
 26 27  2  0  0  0  0
 27 25  1  0  0  0  0
 27 24  1  0  0  0  0
 28  1  1  0  0  0  0
 29 28  1  0  0  0  0
 29 30  1  1  0  0  0
 31 32  2  0  0  0  0
 32 29  1  0  0  0  0
 33 39  1  0  0  0  0
 33 32  1  1  0  0  0
 34 41  1  0  0  0  0
 35 40  2  0  0  0  0
 35 34  1  0  0  0  0
 36 35  1  0  0  0  0
 37 33  1  0  0  0  0
 38 39  1  0  0  0  0
 40 42  1  0  0  0  0
 41 50  1  0  0  0  0
 41 37  1  0  0  0  0
 42 38  1  0  0  0  0
 42 37  1  0  0  0  0
 43 46  1  0  0  0  0
 43 36  1  0  0  0  0
 44 45  1  0  0  0  0
 45 46  1  0  0  0  0
 47 48  1  0  0  0  0
 47 45  1  0  0  0  0
 47 43  1  0  0  0  0
 49 48  1  0  0  0  0
 50 52  1  0  0  0  0
 51 50  2  0  0  0  0
M  END
>  <MODEL>
1

>  <REMARK>
 VINA RESULT:      -6.6      0.000      0.000
  Name = 
  18 active torsions:
  status: ('A' for Active; 'I' for Inactive)
    1  A    between atoms: C_1  and  N_25
    2  A    between atoms: C_3  and  C_31
    3  A    between atoms: C_4  and  O_6
    4  A    between atoms: C_4  and  C_19
    5  A    between atoms: O_6  and  C_33
    6  A    between atoms: C_14  and  C_32
    7  A    between atoms: C_14  and  C_45
    8  A    between atoms: C_15  and  C_19
    9  A    between atoms: C_15  and  O_44
   10  A    between atoms: C_15  and  C_48
   11  A    between atoms: C_16  and  C_31
   12  A    between atoms: C_16  and  C_38
   13  A    between atoms: O_17  and  C_37
   14  A    between atoms: C_20  and  C_38
   15  A    between atoms: C_20  and  C_45
   16  A    between atoms: C_36  and  C_49
   17  A    between atoms: C_39  and  C_40
   18  A    between atoms: C_39  and  O_44
                            x       y       z     vdW  Elec       q    Type
                         _______ _______ _______ _____ _____    ______ ____

>  <TORSDO>
F 18

$$$$
=
 OpenBabel11072412513D

 52 56  0  0  1  0  0  0  0  0999 V2000
  161.1990  206.7020  152.6450 C   0  0  0  0  0  2  0  0  0  0  0  0
  161.4000  204.3980  153.1560 O   0  0  0  0  0  1  0  0  0  0  0  0
  161.3860  205.3010  152.0890 C   0  0  1  0  0  3  0  0  0  0  0  0
  159.2370  204.2440  151.7020 O   0  0  0  0  0  1  0  0  0  0  0  0
  160.2710  204.9620  151.0930 C   0  0  2  0  0  3  0  0  0  0  0  0
  161.1030  202.7740  149.9640 N   0  0  0  0  0  0  0  0  0  0  0  0
  160.9820  201.8830  151.1030 C   0  0  0  0  0  1  0  0  0  0  0  0
  160.8190  204.1640  149.9490 C   0  0  0  0  0  0  0  0  0  0  0  0
  161.5140  203.5310  147.9760 O   0  0  0  0  0  0  0  0  0  0  0  0
  161.5540  202.3540  148.7030 N   0  0  0  0  0  2  0  0  0  0  0  0
  161.0840  204.6050  148.7430 C   0  0  0  0  0  0  0  0  0  0  0  0
  160.9310  206.0190  148.2490 C   0  0  1  0  0  3  0  0  0  0  0  0
  162.0880  206.9660  148.6000 C   0  0  0  0  0  2  0  0  0  0  0  0
  161.6100  208.3570  149.0140 C   0  0  0  0  0  2  0  0  0  0  0  0
  162.5500  209.3440  148.6070 O   0  0  0  0  0  0  0  0  0  0  0  0
  162.0630  213.5050  147.0040 C   0  0  0  0  0  2  0  0  0  0  0  0
  160.7240  213.2580  147.6510 C   0  0  0  0  0  2  0  0  0  0  0  0
  160.2870  211.9470  147.3400 O   0  0  0  0  0  0  0  0  0  0  0  0
  160.9430  210.7690  147.7220 C   0  0  0  0  0  3  0  0  0  0  0  0
  163.1360  212.9760  147.8860 C   0  0  0  0  0  3  0  0  0  0  0  0
  162.1830  210.6370  148.2150 C   0  0  0  0  0  0  0  0  0  0  0  0
  163.1720  211.7380  148.3810 C   0  0  0  0  0  3  0  0  0  0  0  0
  160.4340  206.1390  146.9320 O   0  0  0  0  0  0  0  0  0  0  0  0
  161.4560  206.6190  146.0940 C   0  0  0  0  0  2  0  0  0  0  0  0
  162.8550  204.6580  145.3660 N   0  0  0  0  0  1  0  0  0  0  0  0
  161.1610  205.4950  144.0180 O   0  0  0  0  0  0  0  0  0  0  0  0
  161.8100  205.5800  145.0920 C   0  0  0  0  0  0  0  0  0  0  0  0
  160.8430  206.6640  154.1200 C   0  0  0  0  0  2  0  0  0  0  0  0
  161.4370  207.8750  154.8230 C   0  0  2  0  0  3  0  0  0  0  0  0
  161.9230  207.5210  156.2230 C   0  0  0  0  0  1  0  0  0  0  0  0
  159.3140  208.9260  155.5290 C   0  0  0  0  0  2  0  0  0  0  0  0
  160.4640  209.0130  154.8520 C   0  0  0  0  0  0  0  0  0  0  0  0
  160.8270  210.2700  154.1200 C   0  0  2  0  0  3  0  0  0  0  0  0
  157.5900  212.4660  153.9430 C   0  0  0  0  0  2  0  0  0  0  0  0
  157.9440  212.9650  152.5530 C   0  0  0  0  0  0  0  0  0  0  0  0
  156.9350  213.6530  151.8090 N   0  0  0  0  0  2  0  0  0  0  0  0
  159.6060  211.0170  153.6420 C   0  0  1  0  0  3  0  0  0  0  0  0
  161.2310  211.0220  151.6860 S   0  0  0  0  0  0  0  0  0  0  0  0
  161.6680  209.9840  153.0200 O   0  0  0  0  0  0  0  0  0  0  0  0
  159.0920  212.6880  151.9910 N   0  0  0  0  0  0  0  0  0  0  0  0
  158.7200  211.7110  154.6740 C   0  0  1  0  0  3  0  0  0  0  0  0
  160.1680  212.0240  152.7200 C   0  0  1  0  0  3  0  0  0  0  0  0
  157.1990  214.3190  150.5360 C   0  0  1  0  0  3  0  0  0  0  0  0
  157.0680  214.1980  147.4830 C   0  0  0  0  0  1  0  0  0  0  0  0
  156.6860  213.4940  148.7750 C   0  0  1  0  0  3  0  0  0  0  0  0
  157.8030  213.4270  149.6290 O   0  0  0  0  0  0  0  0  0  0  0  0
  155.9480  214.4490  149.6820 C   0  0  1  0  0  3  0  0  0  0  0  0
  154.8460  213.7910  150.2450 O   0  0  0  0  0  0  0  0  0  0  0  0
  153.7340  214.4530  149.7250 C   0  0  0  0  0  1  0  0  0  0  0  0
  159.4720  212.6150  155.6120 C   0  0  0  0  0  0  0  0  0  0  0  0
  160.1590  212.1390  156.5540 O   0  0  0  0  0  1  0  0  0  0  0  0
  159.4150  213.9900  155.4290 O   0  0  0  0  0  0  0  0  0  0  0  0
  1 28  1  0  0  0  0
  3  1  1  0  0  0  0
  3  2  1  1  0  0  0
  5  4  1  1  0  0  0
  5  3  1  0  0  0  0
  6  7  1  0  0  0  0
  8  6  1  0  0  0  0
  8  5  1  0  0  0  0
  9 10  1  0  0  0  0
  9 11  1  0  0  0  0
 10  6  1  0  0  0  0
 11  8  2  0  0  0  0
 12 13  1  6  0  0  0
 12 11  1  0  0  0  0
 13 14  1  0  0  0  0
 15 14  1  0  0  0  0
 16 17  1  0  0  0  0
 16 20  1  0  0  0  0
 18 17  1  0  0  0  0
 18 19  1  0  0  0  0
 19 21  2  0  0  0  0
 20 22  2  0  0  0  0
 21 22  1  0  0  0  0
 21 15  1  0  0  0  0
 23 12  1  0  0  0  0
 24 23  1  0  0  0  0
 26 27  2  0  0  0  0
 27 25  1  0  0  0  0
 27 24  1  0  0  0  0
 28 29  1  0  0  0  0
 29 32  1  0  0  0  0
 29 30  1  1  0  0  0
 32 31  2  0  0  0  0
 33 32  1  6  0  0  0
 34 41  1  0  0  0  0
 35 34  1  0  0  0  0
 36 35  1  0  0  0  0
 37 33  1  0  0  0  0
 37 41  1  0  0  0  0
 38 42  1  0  0  0  0
 38 39  1  0  0  0  0
 39 33  1  0  0  0  0
 40 35  2  0  0  0  0
 40 42  1  0  0  0  0
 41 50  1  0  0  0  0
 42 37  1  0  0  0  0
 43 36  1  0  0  0  0
 44 45  1  0  0  0  0
 45 46  1  0  0  0  0
 45 47  1  0  0  0  0
 46 43  1  0  0  0  0
 47 48  1  0  0  0  0
 47 43  1  0  0  0  0
 49 48  1  0  0  0  0
 50 51  1  0  0  0  0
 52 50  2  0  0  0  0
M  END
>  <MODEL>
2

>  <REMARK>
 VINA RESULT:      -5.2      4.446      8.833
  Name = 
  18 active torsions:
  status: ('A' for Active; 'I' for Inactive)
    1  A    between atoms: C_1  and  N_25
    2  A    between atoms: C_3  and  C_31
    3  A    between atoms: C_4  and  O_6
    4  A    between atoms: C_4  and  C_19
    5  A    between atoms: O_6  and  C_33
    6  A    between atoms: C_14  and  C_32
    7  A    between atoms: C_14  and  C_45
    8  A    between atoms: C_15  and  C_19
    9  A    between atoms: C_15  and  O_44
   10  A    between atoms: C_15  and  C_48
   11  A    between atoms: C_16  and  C_31
   12  A    between atoms: C_16  and  C_38
   13  A    between atoms: O_17  and  C_37
   14  A    between atoms: C_20  and  C_38
   15  A    between atoms: C_20  and  C_45
   16  A    between atoms: C_36  and  C_49
   17  A    between atoms: C_39  and  C_40
   18  A    between atoms: C_39  and  O_44
                            x       y       z     vdW  Elec       q    Type
                         _______ _______ _______ _____ _____    ______ ____

>  <TORSDO>
F 18

$$$$
=
 OpenBabel11072412513D

 52 56  0  0  1  0  0  0  0  0999 V2000
  161.4500  206.3140  153.9090 C   0  0  0  0  0  2  0  0  0  0  0  0
  161.1530  207.9260  152.1980 O   0  0  0  0  0  1  0  0  0  0  0  0
  161.1460  206.5490  152.4390 C   0  0  1  0  0  3  0  0  0  0  0  0
  162.9290  206.7320  150.8040 O   0  0  0  0  0  1  0  0  0  0  0  0
  162.1700  205.8280  151.5540 C   0  0  2  0  0  3  0  0  0  0  0  0
  160.9600  203.6010  150.9790 N   0  0  0  0  0  0  0  0  0  0  0  0
  161.0620  202.9580  152.2760 C   0  0  0  0  0  1  0  0  0  0  0  0
  161.4790  204.8750  150.6280 C   0  0  0  0  0  0  0  0  0  0  0  0
  160.5040  203.9700  148.8940 O   0  0  0  0  0  0  0  0  0  0  0  0
  160.3330  203.0070  149.8730 N   0  0  0  0  0  2  0  0  0  0  0  0
  161.2030  205.0750  149.3620 C   0  0  0  0  0  0  0  0  0  0  0  0
  161.5500  206.2910  148.5470 C   0  0  1  0  0  3  0  0  0  0  0  0
  161.4680  206.1070  147.0240 C   0  0  0  0  0  2  0  0  0  0  0  0
  162.8390  205.9290  146.3740 C   0  0  0  0  0  2  0  0  0  0  0  0
  162.8050  204.8650  145.4310 O   0  0  0  0  0  0  0  0  0  0  0  0
  159.5890  201.8040  146.0770 C   0  0  0  0  0  2  0  0  0  0  0  0
  159.5530  201.9880  144.5820 C   0  0  0  0  0  2  0  0  0  0  0  0
  159.6550  203.3670  144.2750 O   0  0  0  0  0  0  0  0  0  0  0  0
  160.7570  204.1790  144.5750 C   0  0  0  0  0  3  0  0  0  0  0  0
  161.0040  201.7660  146.5300 C   0  0  0  0  0  3  0  0  0  0  0  0
  161.7850  203.9060  145.3930 C   0  0  0  0  0  0  0  0  0  0  0  0
  161.9230  202.6860  146.2340 C   0  0  0  0  0  3  0  0  0  0  0  0
  161.0210  207.5060  149.0350 O   0  0  0  0  0  0  0  0  0  0  0  0
  161.3690  208.5490  148.1570 C   0  0  0  0  0  2  0  0  0  0  0  0
  162.2780  210.8930  148.2670 N   0  0  0  0  0  1  0  0  0  0  0  0
  162.0980  209.5800  150.1730 O   0  0  0  0  0  0  0  0  0  0  0  0
  161.9430  209.6810  148.9280 C   0  0  0  0  0  0  0  0  0  0  0  0
  160.2340  206.5980  154.7720 C   0  0  0  0  0  2  0  0  0  0  0  0
  160.6170  207.5400  155.9030 C   0  0  2  0  0  3  0  0  0  0  0  0
  160.4820  206.8610  157.2600 C   0  0  0  0  0  1  0  0  0  0  0  0
  158.5490  208.8480  156.2500 C   0  0  0  0  0  2  0  0  0  0  0  0
  159.8220  208.8070  155.8430 C   0  0  0  0  0  0  0  0  0  0  0  0
  160.5020  210.0440  155.3380 C   0  0  2  0  0  3  0  0  0  0  0  0
  157.7840  212.1740  153.4930 C   0  0  0  0  0  2  0  0  0  0  0  0
  158.7820  212.6290  152.4420 C   0  0  0  0  0  0  0  0  0  0  0  0
  158.2760  213.2720  151.2690 N   0  0  0  0  0  2  0  0  0  0  0  0
  159.6810  210.7510  154.2880 C   0  0  1  0  0  3  0  0  0  0  0  0
  162.0620  210.7150  153.3960 S   0  0  0  0  0  0  0  0  0  0  0  0
  161.7780  209.7340  154.8120 O   0  0  0  0  0  0  0  0  0  0  0  0
  160.0570  212.3520  152.5340 N   0  0  0  0  0  0  0  0  0  0  0  0
  158.4010  211.4660  154.7160 C   0  0  1  0  0  3  0  0  0  0  0  0
  160.6290  211.7340  153.7260 C   0  0  1  0  0  3  0  0  0  0  0  0
  159.1380  213.8970  150.2680 C   0  0  1  0  0  3  0  0  0  0  0  0
  160.3150  213.7930  147.4480 C   0  0  0  0  0  1  0  0  0  0  0  0
  159.3350  213.1460  148.4130 C   0  0  1  0  0  3  0  0  0  0  0  0
  159.9610  212.9320  149.6560 O   0  0  0  0  0  0  0  0  0  0  0  0
  158.4000  214.1910  148.9730 C   0  0  1  0  0  3  0  0  0  0  0  0
  157.0930  213.6850  148.9760 O   0  0  0  0  0  0  0  0  0  0  0  0
  156.4130  214.4530  148.0310 C   0  0  0  0  0  1  0  0  0  0  0  0
  158.5910  212.4160  155.8670 C   0  0  0  0  0  0  0  0  0  0  0  0
  158.1560  212.1340  157.0150 O   0  0  0  0  0  1  0  0  0  0  0  0
  159.2630  213.6130  155.6610 O   0  0  0  0  0  0  0  0  0  0  0  0
  1 28  1  0  0  0  0
  3  2  1  1  0  0  0
  3  1  1  0  0  0  0
  5  4  1  6  0  0  0
  5  3  1  0  0  0  0
  6  7  1  0  0  0  0
  8  6  1  0  0  0  0
  8  5  1  0  0  0  0
  9 11  1  0  0  0  0
  9 10  1  0  0  0  0
 10  6  1  0  0  0  0
 11  8  2  0  0  0  0
 12 13  1  6  0  0  0
 12 23  1  0  0  0  0
 12 11  1  0  0  0  0
 14 13  1  0  0  0  0
 15 14  1  0  0  0  0
 16 20  1  0  0  0  0
 17 16  1  0  0  0  0
 18 19  1  0  0  0  0
 18 17  1  0  0  0  0
 19 21  2  0  0  0  0
 21 15  1  0  0  0  0
 21 22  1  0  0  0  0
 22 20  2  0  0  0  0
 24 27  1  0  0  0  0
 24 23  1  0  0  0  0
 25 27  1  0  0  0  0
 27 26  2  0  0  0  0
 28 29  1  0  0  0  0
 29 30  1  1  0  0  0
 32 29  1  0  0  0  0
 32 31  2  0  0  0  0
 33 32  1  6  0  0  0
 34 41  1  0  0  0  0
 35 40  2  0  0  0  0
 35 34  1  0  0  0  0
 36 35  1  0  0  0  0
 37 41  1  0  0  0  0
 37 33  1  0  0  0  0
 38 42  1  0  0  0  0
 38 39  1  0  0  0  0
 39 33  1  0  0  0  0
 40 42  1  0  0  0  0
 41 50  1  0  0  0  0
 42 37  1  0  0  0  0
 43 36  1  0  0  0  0
 44 45  1  0  0  0  0
 45 47  1  0  0  0  0
 45 46  1  0  0  0  0
 46 43  1  0  0  0  0
 47 48  1  0  0  0  0
 47 43  1  0  0  0  0
 49 48  1  0  0  0  0
 50 51  1  0  0  0  0
 52 50  2  0  0  0  0
M  END
>  <MODEL>
3

>  <REMARK>
 VINA RESULT:      -5.1      4.684      8.287
  Name = 
  18 active torsions:
  status: ('A' for Active; 'I' for Inactive)
    1  A    between atoms: C_1  and  N_25
    2  A    between atoms: C_3  and  C_31
    3  A    between atoms: C_4  and  O_6
    4  A    between atoms: C_4  and  C_19
    5  A    between atoms: O_6  and  C_33
    6  A    between atoms: C_14  and  C_32
    7  A    between atoms: C_14  and  C_45
    8  A    between atoms: C_15  and  C_19
    9  A    between atoms: C_15  and  O_44
   10  A    between atoms: C_15  and  C_48
   11  A    between atoms: C_16  and  C_31
   12  A    between atoms: C_16  and  C_38
   13  A    between atoms: O_17  and  C_37
   14  A    between atoms: C_20  and  C_38
   15  A    between atoms: C_20  and  C_45
   16  A    between atoms: C_36  and  C_49
   17  A    between atoms: C_39  and  C_40
   18  A    between atoms: C_39  and  O_44
                            x       y       z     vdW  Elec       q    Type
                         _______ _______ _______ _____ _____    ______ ____

>  <TORSDO>
F 18

$$$$
=
 OpenBabel11072412513D

 52 56  0  0  1  0  0  0  0  0999 V2000
  159.9400  212.6260  150.2210 C   0  0  0  0  0  2  0  0  0  0  0  0
  160.0040  214.0540  152.1100 O   0  0  0  0  0  1  0  0  0  0  0  0
  160.1120  212.7130  151.7280 C   0  0  1  0  0  3  0  0  0  0  0  0
  157.7650  212.2140  152.0840 O   0  0  0  0  0  1  0  0  0  0  0  0
  159.0660  211.8490  152.4430 C   0  0  2  0  0  3  0  0  0  0  0  0
  158.4880  212.8340  154.7760 N   0  0  0  0  0  0  0  0  0  0  0  0
  157.5050  213.8170  154.3600 C   0  0  0  0  0  1  0  0  0  0  0  0
  159.2220  211.9650  153.9280 C   0  0  0  0  0  0  0  0  0  0  0  0
  159.8100  211.6380  156.0070 O   0  0  0  0  0  0  0  0  0  0  0  0
  158.8590  212.6370  156.1160 N   0  0  0  0  0  2  0  0  0  0  0  0
  160.0220  211.2580  154.6880 C   0  0  0  0  0  0  0  0  0  0  0  0
  160.9900  210.1980  154.2350 C   0  0  1  0  0  3  0  0  0  0  0  0
  161.2470  210.1480  152.7210 C   0  0  0  0  0  2  0  0  0  0  0  0
  162.0240  208.9050  152.2940 C   0  0  0  0  0  2  0  0  0  0  0  0
  161.1400  207.9310  151.7510 O   0  0  0  0  0  0  0  0  0  0  0  0
  162.1800  206.6710  147.5730 C   0  0  0  0  0  2  0  0  0  0  0  0
  160.8010  206.0880  147.7440 C   0  0  0  0  0  2  0  0  0  0  0  0
  160.6940  205.5030  149.0290 O   0  0  0  0  0  0  0  0  0  0  0  0
  160.7950  206.1990  150.2410 C   0  0  0  0  0  3  0  0  0  0  0  0
  162.2080  208.0370  148.1590 C   0  0  0  0  0  3  0  0  0  0  0  0
  161.2410  207.4490  150.4400 C   0  0  0  0  0  0  0  0  0  0  0  0
  161.8130  208.3420  149.3950 C   0  0  0  0  0  3  0  0  0  0  0  0
  162.1380  210.0540  155.0450 O   0  0  0  0  0  0  0  0  0  0  0  0
  161.8470  209.1820  156.1100 C   0  0  0  0  0  2  0  0  0  0  0  0
  159.5450  208.1880  155.8870 N   0  0  0  0  0  1  0  0  0  0  0  0
  161.4050  207.1330  154.9840 O   0  0  0  0  0  0  0  0  0  0  0  0
  160.9410  208.1030  155.6370 C   0  0  0  0  0  0  0  0  0  0  0  0
  161.1800  212.0480  149.5610 C   0  0  0  0  0  2  0  0  0  0  0  0
  161.6780  213.0020  148.4850 C   0  0  2  0  0  3  0  0  0  0  0  0
  161.4060  214.4530  148.8610 C   0  0  0  0  0  1  0  0  0  0  0  0
  160.4570  211.5020  146.9450 C   0  0  0  0  0  2  0  0  0  0  0  0
  161.0920  212.6620  147.1500 C   0  0  0  0  0  0  0  0  0  0  0  0
  161.2110  213.6730  146.0500 C   0  0  2  0  0  3  0  0  0  0  0  0
  159.2720  212.2400  142.9640 C   0  0  0  0  0  2  0  0  0  0  0  0
  160.2880  212.8170  141.9940 C   0  0  0  0  0  0  0  0  0  0  0  0
  160.2460  212.3760  140.6350 N   0  0  0  0  0  2  0  0  0  0  0  0
  160.8550  213.0880  144.7050 C   0  0  1  0  0  3  0  0  0  0  0  0
  162.9770  214.4380  144.3330 S   0  0  0  0  0  0  0  0  0  0  0  0
  162.5180  214.2100  146.0020 O   0  0  0  0  0  0  0  0  0  0  0  0
  161.2490  213.6110  142.3910 N   0  0  0  0  0  0  0  0  0  0  0  0
  159.3950  212.7440  144.4170 C   0  0  1  0  0  3  0  0  0  0  0  0
  161.3130  214.1230  143.7570 C   0  0  1  0  0  3  0  0  0  0  0  0
  161.0570  212.9730  139.5770 C   0  0  1  0  0  3  0  0  0  0  0  0
  163.2820  212.6060  137.5110 C   0  0  0  0  0  1  0  0  0  0  0  0
  162.4070  211.9050  138.5370 C   0  0  1  0  0  3  0  0  0  0  0  0
  162.4130  212.6310  139.7440 O   0  0  0  0  0  0  0  0  0  0  0  0
  160.9530  212.2080  138.2680 C   0  0  1  0  0  3  0  0  0  0  0  0
  160.2050  211.0300  138.3950 O   0  0  0  0  0  0  0  0  0  0  0  0
  159.4380  210.9700  137.2330 C   0  0  0  0  0  1  0  0  0  0  0  0
  158.4390  213.8730  144.6930 C   0  0  0  0  0  0  0  0  0  0  0  0
  158.2690  214.3010  145.8650 O   0  0  0  0  0  1  0  0  0  0  0  0
  157.7450  214.4530  143.6410 O   0  0  0  0  0  0  0  0  0  0  0  0
  1  3  1  0  0  0  0
  3  2  1  1  0  0  0
  3  5  1  0  0  0  0
  5  4  1  1  0  0  0
  5  8  1  0  0  0  0
  6 10  1  0  0  0  0
  7  6  1  0  0  0  0
  8 11  2  0  0  0  0
  8  6  1  0  0  0  0
  9 10  1  0  0  0  0
 11  9  1  0  0  0  0
 12 13  1  6  0  0  0
 12 11  1  0  0  0  0
 12 23  1  0  0  0  0
 14 13  1  0  0  0  0
 15 14  1  0  0  0  0
 16 17  1  0  0  0  0
 16 20  1  0  0  0  0
 17 18  1  0  0  0  0
 18 19  1  0  0  0  0
 19 21  2  0  0  0  0
 20 22  2  0  0  0  0
 21 15  1  0  0  0  0
 22 21  1  0  0  0  0
 23 24  1  0  0  0  0
 26 27  2  0  0  0  0
 27 25  1  0  0  0  0
 27 24  1  0  0  0  0
 28  1  1  0  0  0  0
 29 30  1  1  0  0  0
 29 28  1  0  0  0  0
 31 32  2  0  0  0  0
 32 29  1  0  0  0  0
 33 32  1  1  0  0  0
 34 41  1  0  0  0  0
 35 40  2  0  0  0  0
 35 34  1  0  0  0  0
 36 35  1  0  0  0  0
 37 33  1  0  0  0  0
 38 39  1  0  0  0  0
 39 33  1  0  0  0  0
 40 42  1  0  0  0  0
 41 50  1  0  0  0  0
 41 37  1  0  0  0  0
 42 38  1  0  0  0  0
 42 37  1  0  0  0  0
 43 46  1  0  0  0  0
 43 36  1  0  0  0  0
 44 45  1  0  0  0  0
 45 46  1  0  0  0  0
 47 48  1  0  0  0  0
 47 45  1  0  0  0  0
 47 43  1  0  0  0  0
 49 48  1  0  0  0  0
 50 51  1  0  0  0  0
 52 50  2  0  0  0  0
M  END
>  <MODEL>
4

>  <REMARK>
 VINA RESULT:      -4.1      1.989      3.419
  Name = 
  18 active torsions:
  status: ('A' for Active; 'I' for Inactive)
    1  A    between atoms: C_1  and  N_25
    2  A    between atoms: C_3  and  C_31
    3  A    between atoms: C_4  and  O_6
    4  A    between atoms: C_4  and  C_19
    5  A    between atoms: O_6  and  C_33
    6  A    between atoms: C_14  and  C_32
    7  A    between atoms: C_14  and  C_45
    8  A    between atoms: C_15  and  C_19
    9  A    between atoms: C_15  and  O_44
   10  A    between atoms: C_15  and  C_48
   11  A    between atoms: C_16  and  C_31
   12  A    between atoms: C_16  and  C_38
   13  A    between atoms: O_17  and  C_37
   14  A    between atoms: C_20  and  C_38
   15  A    between atoms: C_20  and  C_45
   16  A    between atoms: C_36  and  C_49
   17  A    between atoms: C_39  and  C_40
   18  A    between atoms: C_39  and  O_44
                            x       y       z     vdW  Elec       q    Type
                         _______ _______ _______ _____ _____    ______ ____

>  <TORSDO>
F 18

$$$$
