=
 OpenBabel11072414143D

 34 36  0  0  1  0  0  0  0  0999 V2000
  159.1880  207.3920  156.1900 C   0  0  0  0  0  1  0  0  0  0  0  0
  162.7640  210.3230  155.7650 C   0  0  0  0  0  1  0  0  0  0  0  0
  160.2860  208.2060  156.8600 C   0  0  2  0  0  3  0  0  0  0  0  0
  159.7120  210.3740  156.0540 C   0  0  1  0  0  3  0  0  0  0  0  0
  159.8720  209.5240  157.1880 O   0  0  0  0  0  0  0  0  0  0  0  0
  161.8050  209.3230  155.1310 C   0  0  2  0  0  3  0  0  0  0  0  0
  160.4590  209.9560  154.7750 C   0  0  2  0  0  3  0  0  0  0  0  0
  161.6060  208.1430  156.0780 C   0  0  0  0  0  2  0  0  0  0  0  0
  157.5630  209.8920  155.1350 O   0  0  0  0  0  0  0  0  0  0  0  0
  157.6980  211.9470  156.2410 N   0  0  0  0  0  0  0  0  0  0  0  0
  158.2670  210.6980  155.7990 C   0  0  0  0  0  0  0  0  0  0  0  0
  160.3970  214.4500  157.2610 C   0  0  0  0  0  1  0  0  0  0  0  0
  157.9000  214.2650  157.1500 C   0  0  0  0  0  2  0  0  0  0  0  0
  159.1470  214.0900  154.9960 C   0  0  0  0  0  1  0  0  0  0  0  0
  158.3900  212.8160  157.2080 C   0  0  2  0  0  3  0  0  0  0  0  0
  159.2070  213.9000  156.5030 C   0  0  0  0  0  0  0  0  0  0  0  0
  156.6310  212.5210  155.4160 C   0  0  2  0  0  3  0  0  0  0  0  0
  155.3070  212.4860  156.1570 C   0  0  0  0  0  1  0  0  0  0  0  0
  156.5110  211.8390  154.2030 O   0  0  0  0  0  1  0  0  0  0  0  0
  160.6040  211.1310  153.8140 C   0  0  0  0  0  2  0  0  0  0  0  0
  160.3700  210.6910  152.3720 C   0  0  1  0  0  3  0  0  0  0  0  0
  158.9630  212.6300  151.6700 C   0  0  0  0  0  3  0  0  0  0  0  0
  160.1170  211.8630  151.4750 C   0  0  0  0  0  0  0  0  0  0  0  0
  158.7020  213.7310  150.8480 C   0  0  0  0  0  3  0  0  0  0  0  0
  161.0090  212.2020  150.4460 C   0  0  0  0  0  3  0  0  0  0  0  0
  160.7480  213.3020  149.6230 C   0  0  0  0  0  3  0  0  0  0  0  0
  159.5950  214.0660  149.8240 C   0  0  0  0  0  3  0  0  0  0  0  0
  162.6850  210.1780  152.0340 O   0  0  0  0  0  0  0  0  0  0  0  0
  161.4840  209.8310  151.8620 C   0  0  0  0  0  0  0  0  0  0  0  0
  161.1690  208.6380  151.2030 O   0  0  0  0  0  0  0  0  0  0  0  0
  162.9790  207.5830  150.2890 F   0  0  0  0  0  0  0  0  0  0  0  0
  162.0620  209.3230  149.1940 F   0  0  0  0  0  0  0  0  0  0  0  0
  160.9240  207.3040  149.2720 N   0  0  0  0  0  1  0  0  0  0  0  0
  161.7910  208.2230  149.9890 C   0  0  0  0  0  0  0  0  0  0  0  0
  3  1  1  6  0  0  0
  3  5  1  0  0  0  0
  4 11  1  6  0  0  0
  4  5  1  0  0  0  0
  6  2  1  1  0  0  0
  6  8  1  0  0  0  0
  7 20  1  6  0  0  0
  7  6  1  0  0  0  0
  7  4  1  0  0  0  0
  8  3  1  0  0  0  0
  9 11  2  0  0  0  0
 11 10  1  0  0  0  0
 13 15  1  0  0  0  0
 14 16  1  0  0  0  0
 15 10  1  6  0  0  0
 16 13  1  0  0  0  0
 16 15  1  0  0  0  0
 16 12  1  0  0  0  0
 17 18  1  1  0  0  0
 17 10  1  0  0  0  0
 19 17  1  0  0  0  0
 21 20  1  1  0  0  0
 23 22  1  0  0  0  0
 23 21  1  0  0  0  0
 24 22  2  0  0  0  0
 25 23  2  0  0  0  0
 26 27  2  0  0  0  0
 26 25  1  0  0  0  0
 27 24  1  0  0  0  0
 29 28  2  0  0  0  0
 29 21  1  0  0  0  0
 30 29  1  0  0  0  0
 32 34  1  0  0  0  0
 33 34  1  0  0  0  0
 34 31  1  0  0  0  0
 34 30  1  0  0  0  0
M  END
>  <MODEL>
1

>  <REMARK>
 VINA RESULT:      -3.9      0.000      0.000
  Name = 
  9 active torsions:
  status: ('A' for Active; 'I' for Inactive)
    1  A    between atoms: O_4  and  C_27
    2  A    between atoms: O_4  and  C_29
    3  A    between atoms: C_7  and  C_9
    4  A    between atoms: C_7  and  C_30
    5  A    between atoms: C_9  and  C_11
    6  A    between atoms: C_9  and  C_27
    7  A    between atoms: C_14  and  N_26
    8  A    between atoms: C_18  and  C_34
    9  A    between atoms: C_23  and  N_26
                            x       y       z     vdW  Elec       q    Type
                         _______ _______ _______ _____ _____    ______ ____

>  <TORSDO>
F 9

$$$$
=
 OpenBabel11072414143D

 34 36  0  0  1  0  0  0  0  0999 V2000
  159.3250  206.2040  147.6760 C   0  0  0  0  0  1  0  0  0  0  0  0
  163.4570  208.0930  148.6360 C   0  0  0  0  0  1  0  0  0  0  0  0
  160.8150  206.2870  147.3770 C   0  0  2  0  0  3  0  0  0  0  0  0
  161.6750  205.7660  149.5380 C   0  0  1  0  0  3  0  0  0  0  0  0
  161.5860  205.3900  148.1650 O   0  0  0  0  0  0  0  0  0  0  0  0
  161.9370  208.1390  148.7390 C   0  0  2  0  0  3  0  0  0  0  0  0
  161.4050  207.2460  149.8610 C   0  0  2  0  0  3  0  0  0  0  0  0
  161.3270  207.7340  147.4000 C   0  0  0  0  0  2  0  0  0  0  0  0
  160.1810  205.3050  151.3400 O   0  0  0  0  0  0  0  0  0  0  0  0
  161.0330  203.4010  150.2870 N   0  0  0  0  0  0  0  0  0  0  0  0
  160.9030  204.8300  150.4240 C   0  0  0  0  0  0  0  0  0  0  0  0
  161.5820  200.5610  147.7920 C   0  0  0  0  0  1  0  0  0  0  0  0
  160.8270  202.9500  147.8390 C   0  0  0  0  0  2  0  0  0  0  0  0
  159.4580  201.3030  149.1190 C   0  0  0  0  0  1  0  0  0  0  0  0
  161.6680  202.7890  149.1060 C   0  0  2  0  0  3  0  0  0  0  0  0
  160.8330  201.6300  148.5580 C   0  0  0  0  0  0  0  0  0  0  0  0
  160.8950  202.6000  151.5070 C   0  0  2  0  0  3  0  0  0  0  0  0
  160.8310  203.4970  152.7290 C   0  0  0  0  0  1  0  0  0  0  0  0
  161.9520  201.6970  151.6380 O   0  0  0  0  0  1  0  0  0  0  0  0
  161.9730  207.6230  151.2250 C   0  0  0  0  0  2  0  0  0  0  0  0
  161.0890  208.6520  151.9210 C   0  0  1  0  0  3  0  0  0  0  0  0
  161.0460  206.9560  153.7530 C   0  0  0  0  0  3  0  0  0  0  0  0
  160.8300  208.2780  153.3480 C   0  0  0  0  0  0  0  0  0  0  0  0
  160.8130  206.5790  155.0790 C   0  0  0  0  0  3  0  0  0  0  0  0
  160.3750  209.2230  154.2800 C   0  0  0  0  0  3  0  0  0  0  0  0
  160.1410  208.8460  155.6060 C   0  0  0  0  0  3  0  0  0  0  0  0
  160.3610  207.5240  156.0050 C   0  0  0  0  0  3  0  0  0  0  0  0
  162.8260  210.2830  152.1650 O   0  0  0  0  0  0  0  0  0  0  0  0
  161.6430  210.0380  151.8020 C   0  0  0  0  0  0  0  0  0  0  0  0
  160.8300  211.0480  151.2750 O   0  0  0  0  0  0  0  0  0  0  0  0
  160.6390  212.1730  153.2550 F   0  0  0  0  0  0  0  0  0  0  0  0
  158.8090  211.2100  152.3660 F   0  0  0  0  0  0  0  0  0  0  0  0
  159.6890  213.1100  151.3700 N   0  0  0  0  0  1  0  0  0  0  0  0
  159.9870  211.8740  152.0730 C   0  0  0  0  0  0  0  0  0  0  0  0
  3  8  1  0  0  0  0
  3  1  1  1  0  0  0
  3  5  1  0  0  0  0
  4  7  1  0  0  0  0
  4 11  1  1  0  0  0
  5  4  1  0  0  0  0
  6  2  1  6  0  0  0
  6  7  1  0  0  0  0
  7 20  1  1  0  0  0
  8  6  1  0  0  0  0
 10 11  1  0  0  0  0
 10 17  1  0  0  0  0
 11  9  2  0  0  0  0
 12 16  1  0  0  0  0
 13 16  1  0  0  0  0
 13 15  1  0  0  0  0
 15 10  1  1  0  0  0
 16 15  1  0  0  0  0
 16 14  1  0  0  0  0
 17 19  1  0  0  0  0
 17 18  1  1  0  0  0
 21 20  1  1  0  0  0
 21 23  1  0  0  0  0
 22 24  1  0  0  0  0
 23 22  2  0  0  0  0
 23 25  1  0  0  0  0
 24 27  2  0  0  0  0
 25 26  2  0  0  0  0
 26 27  1  0  0  0  0
 29 21  1  0  0  0  0
 29 28  2  0  0  0  0
 30 29  1  0  0  0  0
 30 34  1  0  0  0  0
 33 34  1  0  0  0  0
 34 32  1  0  0  0  0
 34 31  1  0  0  0  0
M  END
>  <MODEL>
2

>  <REMARK>
 VINA RESULT:      -3.3      4.054      8.932
  Name = 
  9 active torsions:
  status: ('A' for Active; 'I' for Inactive)
    1  A    between atoms: O_4  and  C_27
    2  A    between atoms: O_4  and  C_29
    3  A    between atoms: C_7  and  C_9
    4  A    between atoms: C_7  and  C_30
    5  A    between atoms: C_9  and  C_11
    6  A    between atoms: C_9  and  C_27
    7  A    between atoms: C_14  and  N_26
    8  A    between atoms: C_18  and  C_34
    9  A    between atoms: C_23  and  N_26
                            x       y       z     vdW  Elec       q    Type
                         _______ _______ _______ _____ _____    ______ ____

>  <TORSDO>
F 9

$$$$
=
 OpenBabel11072414143D

 34 36  0  0  1  0  0  0  0  0999 V2000
  163.6200  205.6730  152.4940 C   0  0  0  0  0  1  0  0  0  0  0  0
  159.6800  207.5040  154.1340 C   0  0  0  0  0  1  0  0  0  0  0  0
  162.2560  205.4570  153.1340 C   0  0  2  0  0  3  0  0  0  0  0  0
  160.8850  206.5110  151.4950 C   0  0  1  0  0  3  0  0  0  0  0  0
  161.2170  205.3040  152.1780 O   0  0  0  0  0  0  0  0  0  0  0  0
  161.1330  207.6820  153.7090 C   0  0  2  0  0  3  0  0  0  0  0  0
  161.2810  207.8230  152.1930 C   0  0  2  0  0  3  0  0  0  0  0  0
  161.9570  206.5030  154.2180 C   0  0  0  0  0  2  0  0  0  0  0  0
  161.9250  207.4570  149.5670 O   0  0  0  0  0  0  0  0  0  0  0  0
  160.9600  205.3580  149.2080 N   0  0  0  0  0  0  0  0  0  0  0  0
  161.3090  206.4710  150.0540 C   0  0  0  0  0  0  0  0  0  0  0  0
  159.9060  201.6960  148.9450 C   0  0  0  0  0  1  0  0  0  0  0  0
  161.5780  203.1270  150.1450 C   0  0  0  0  0  2  0  0  0  0  0  0
  161.7180  203.0650  147.6540 C   0  0  0  0  0  1  0  0  0  0  0  0
  160.4530  204.0910  149.7620 C   0  0  2  0  0  3  0  0  0  0  0  0
  160.8160  202.9030  148.8680 C   0  0  0  0  0  0  0  0  0  0  0  0
  160.7340  205.6470  147.7880 C   0  0  2  0  0  3  0  0  0  0  0  0
  162.0060  206.1630  147.1410 C   0  0  0  0  0  1  0  0  0  0  0  0
  159.7080  206.5780  147.6220 O   0  0  0  0  0  1  0  0  0  0  0  0
  160.4880  209.0020  151.6380 C   0  0  0  0  0  2  0  0  0  0  0  0
  161.1340  210.3280  152.0270 C   0  0  1  0  0  3  0  0  0  0  0  0
  162.0340  210.8840  149.7660 C   0  0  0  0  0  3  0  0  0  0  0  0
  161.2360  211.2530  150.8540 C   0  0  0  0  0  0  0  0  0  0  0  0
  162.1470  211.7280  148.6570 C   0  0  0  0  0  3  0  0  0  0  0  0
  160.5530  212.4790  150.8280 C   0  0  0  0  0  3  0  0  0  0  0  0
  160.6660  213.3230  149.7190 C   0  0  0  0  0  3  0  0  0  0  0  0
  161.4630  212.9480  148.6340 C   0  0  0  0  0  3  0  0  0  0  0  0
  159.1780  211.0780  153.1900 O   0  0  0  0  0  0  0  0  0  0  0  0
  160.4360  210.9720  153.1840 C   0  0  0  0  0  0  0  0  0  0  0  0
  161.2000  211.4450  154.2560 O   0  0  0  0  0  0  0  0  0  0  0  0
  162.2970  210.0190  155.6660 F   0  0  0  0  0  0  0  0  0  0  0  0
  160.0480  210.0910  155.7190 F   0  0  0  0  0  0  0  0  0  0  0  0
  161.2610  211.8730  156.5760 N   0  0  0  0  0  1  0  0  0  0  0  0
  161.1950  210.8460  155.5490 C   0  0  0  0  0  0  0  0  0  0  0  0
  3  1  1  6  0  0  0
  3  8  1  0  0  0  0
  4 11  1  6  0  0  0
  4  5  1  0  0  0  0
  4  7  1  0  0  0  0
  5  3  1  0  0  0  0
  6  2  1  6  0  0  0
  6  8  1  0  0  0  0
  7 20  1  6  0  0  0
  7  6  1  0  0  0  0
  9 11  2  0  0  0  0
 10 11  1  0  0  0  0
 14 16  1  0  0  0  0
 15 10  1  6  0  0  0
 15 13  1  0  0  0  0
 16 12  1  0  0  0  0
 16 15  1  0  0  0  0
 16 13  1  0  0  0  0
 17 18  1  1  0  0  0
 17 10  1  0  0  0  0
 19 17  1  0  0  0  0
 21 20  1  6  0  0  0
 21 29  1  0  0  0  0
 22 23  1  0  0  0  0
 23 21  1  0  0  0  0
 24 22  2  0  0  0  0
 25 23  2  0  0  0  0
 26 25  1  0  0  0  0
 27 24  1  0  0  0  0
 27 26  2  0  0  0  0
 29 28  2  0  0  0  0
 29 30  1  0  0  0  0
 30 34  1  0  0  0  0
 34 31  1  0  0  0  0
 34 32  1  0  0  0  0
 34 33  1  0  0  0  0
M  END
>  <MODEL>
3

>  <REMARK>
 VINA RESULT:      -2.6      3.456      7.633
  Name = 
  9 active torsions:
  status: ('A' for Active; 'I' for Inactive)
    1  A    between atoms: O_4  and  C_27
    2  A    between atoms: O_4  and  C_29
    3  A    between atoms: C_7  and  C_9
    4  A    between atoms: C_7  and  C_30
    5  A    between atoms: C_9  and  C_11
    6  A    between atoms: C_9  and  C_27
    7  A    between atoms: C_14  and  N_26
    8  A    between atoms: C_18  and  C_34
    9  A    between atoms: C_23  and  N_26
                            x       y       z     vdW  Elec       q    Type
                         _______ _______ _______ _____ _____    ______ ____

>  <TORSDO>
F 9

$$$$
=
 OpenBabel11072414143D

 34 36  0  0  1  0  0  0  0  0999 V2000
  163.1690  210.3330  151.5650 C   0  0  0  0  0  1  0  0  0  0  0  0
  161.1610  208.4270  147.8370 C   0  0  0  0  0  1  0  0  0  0  0  0
  161.9480  210.2190  150.6650 C   0  0  2  0  0  3  0  0  0  0  0  0
  161.5620  207.8730  150.8260 C   0  0  1  0  0  3  0  0  0  0  0  0
  161.0600  209.1860  151.0680 O   0  0  0  0  0  0  0  0  0  0  0  0
  162.4240  208.7460  148.6280 C   0  0  2  0  0  3  0  0  0  0  0  0
  162.6660  207.7480  149.7620 C   0  0  2  0  0  3  0  0  0  0  0  0
  162.3310  210.1660  149.1790 C   0  0  0  0  0  2  0  0  0  0  0  0
  162.7410  206.2190  152.0780 O   0  0  0  0  0  0  0  0  0  0  0  0
  161.2490  207.4990  153.3420 N   0  0  0  0  0  0  0  0  0  0  0  0
  161.9080  207.1640  152.1050 C   0  0  0  0  0  0  0  0  0  0  0  0
  159.4070  210.1550  155.3790 C   0  0  0  0  0  1  0  0  0  0  0  0
  161.3120  209.9610  153.7620 C   0  0  0  0  0  2  0  0  0  0  0  0
  161.5270  208.7300  155.9210 C   0  0  0  0  0  1  0  0  0  0  0  0
  160.4490  208.7280  153.4860 C   0  0  2  0  0  3  0  0  0  0  0  0
  160.5680  209.3120  154.8950 C   0  0  0  0  0  0  0  0  0  0  0  0
  161.0540  206.4140  154.3080 C   0  0  2  0  0  3  0  0  0  0  0  0
  161.0530  205.0690  153.6060 C   0  0  0  0  0  1  0  0  0  0  0  0
  159.8600  206.5790  155.0140 O   0  0  0  0  0  1  0  0  0  0  0  0
  162.7840  206.3130  149.2590 C   0  0  0  0  0  2  0  0  0  0  0  0
  161.4440  205.8020  148.7410 C   0  0  1  0  0  3  0  0  0  0  0  0
  162.6510  205.0300  146.6960 C   0  0  0  0  0  3  0  0  0  0  0  0
  161.4850  205.5560  147.2640 C   0  0  0  0  0  0  0  0  0  0  0  0
  162.7170  204.7890  145.3200 C   0  0  0  0  0  3  0  0  0  0  0  0
  160.3830  205.8430  146.4440 C   0  0  0  0  0  3  0  0  0  0  0  0
  160.4500  205.6030  145.0680 C   0  0  0  0  0  3  0  0  0  0  0  0
  161.6170  205.0760  144.5060 C   0  0  0  0  0  3  0  0  0  0  0  0
  160.0820  204.7030  150.3760 O   0  0  0  0  0  0  0  0  0  0  0  0
  160.9760  204.5950  149.4920 C   0  0  0  0  0  0  0  0  0  0  0  0
  161.5420  203.3510  149.1920 O   0  0  0  0  0  0  0  0  0  0  0  0
  160.5100  202.5280  147.3260 F   0  0  0  0  0  0  0  0  0  0  0  0
  159.6140  202.1010  149.3470 F   0  0  0  0  0  0  0  0  0  0  0  0
  161.5810  201.0380  148.7290 N   0  0  0  0  0  1  0  0  0  0  0  0
  160.8000  202.2610  148.6510 C   0  0  0  0  0  0  0  0  0  0  0  0
  3  5  1  0  0  0  0
  3  1  1  1  0  0  0
  4  5  1  0  0  0  0
  4 11  1  1  0  0  0
  6  2  1  1  0  0  0
  6  8  1  0  0  0  0
  6  7  1  0  0  0  0
  7 20  1  6  0  0  0
  7  4  1  0  0  0  0
  8  3  1  0  0  0  0
  9 11  2  0  0  0  0
 10 17  1  0  0  0  0
 11 10  1  0  0  0  0
 13 16  1  0  0  0  0
 15 10  1  1  0  0  0
 15 13  1  0  0  0  0
 15 16  1  0  0  0  0
 16 12  1  0  0  0  0
 16 14  1  0  0  0  0
 17 18  1  6  0  0  0
 17 19  1  0  0  0  0
 21 20  1  1  0  0  0
 21 29  1  0  0  0  0
 22 23  1  0  0  0  0
 23 21  1  0  0  0  0
 24 22  2  0  0  0  0
 25 23  2  0  0  0  0
 26 25  1  0  0  0  0
 27 26  2  0  0  0  0
 27 24  1  0  0  0  0
 29 28  2  0  0  0  0
 30 29  1  0  0  0  0
 31 34  1  0  0  0  0
 34 33  1  0  0  0  0
 34 30  1  0  0  0  0
 34 32  1  0  0  0  0
M  END
>  <MODEL>
4

>  <REMARK>
 VINA RESULT:      -2.6      3.811      7.173
  Name = 
  9 active torsions:
  status: ('A' for Active; 'I' for Inactive)
    1  A    between atoms: O_4  and  C_27
    2  A    between atoms: O_4  and  C_29
    3  A    between atoms: C_7  and  C_9
    4  A    between atoms: C_7  and  C_30
    5  A    between atoms: C_9  and  C_11
    6  A    between atoms: C_9  and  C_27
    7  A    between atoms: C_14  and  N_26
    8  A    between atoms: C_18  and  C_34
    9  A    between atoms: C_23  and  N_26
                            x       y       z     vdW  Elec       q    Type
                         _______ _______ _______ _____ _____    ______ ____

>  <TORSDO>
F 9

$$$$
=
 OpenBabel11072414143D

 34 36  0  0  1  0  0  0  0  0999 V2000
  157.0460  212.7750  156.7780 C   0  0  0  0  0  1  0  0  0  0  0  0
  157.7650  211.7540  152.3060 C   0  0  0  0  0  1  0  0  0  0  0  0
  156.6730  211.9410  155.5610 C   0  0  2  0  0  3  0  0  0  0  0  0
  158.7970  210.9720  155.0850 C   0  0  1  0  0  3  0  0  0  0  0  0
  157.4380  210.7490  155.4540 O   0  0  0  0  0  0  0  0  0  0  0  0
  157.9430  212.7110  153.4780 C   0  0  2  0  0  3  0  0  0  0  0  0
  159.1060  212.3060  154.3850 C   0  0  2  0  0  3  0  0  0  0  0  0
  156.6440  212.7810  154.2760 C   0  0  0  0  0  2  0  0  0  0  0  0
  159.6840  211.3930  157.2610 O   0  0  0  0  0  0  0  0  0  0  0  0
  160.7430  209.6560  156.1090 N   0  0  0  0  0  0  0  0  0  0  0  0
  159.7370  210.6830  156.2210 C   0  0  0  0  0  0  0  0  0  0  0  0
  160.9530  206.0880  154.7610 C   0  0  0  0  0  1  0  0  0  0  0  0
  159.3340  207.9990  154.8810 C   0  0  0  0  0  2  0  0  0  0  0  0
  160.0970  207.0200  157.0460 C   0  0  0  0  0  1  0  0  0  0  0  0
  160.7100  208.6510  155.0320 C   0  0  2  0  0  3  0  0  0  0  0  0
  160.4340  207.2500  155.5810 C   0  0  0  0  0  0  0  0  0  0  0  0
  162.0010  209.8750  156.8300 C   0  0  2  0  0  3  0  0  0  0  0  0
  162.8530  210.9070  156.1130 C   0  0  0  0  0  1  0  0  0  0  0  0
  162.7170  208.6840  156.9650 O   0  0  0  0  0  1  0  0  0  0  0  0
  160.4330  212.2400  153.6360 C   0  0  0  0  0  2  0  0  0  0  0  0
  160.2880  211.4580  152.3350 C   0  0  1  0  0  3  0  0  0  0  0  0
  160.0520  213.6220  151.1120 C   0  0  0  0  0  3  0  0  0  0  0  0
  160.5670  212.3210  151.1430 C   0  0  0  0  0  0  0  0  0  0  0  0
  160.2980  214.4490  150.0120 C   0  0  0  0  0  3  0  0  0  0  0  0
  161.3270  211.8500  150.0610 C   0  0  0  0  0  3  0  0  0  0  0  0
  161.5720  212.6770  148.9610 C   0  0  0  0  0  3  0  0  0  0  0  0
  161.0580  213.9770  148.9370 C   0  0  0  0  0  3  0  0  0  0  0  0
  162.3030  210.2440  152.7860 O   0  0  0  0  0  0  0  0  0  0  0  0
  161.1260  210.2170  152.3310 C   0  0  0  0  0  0  0  0  0  0  0  0
  160.5800  209.0340  151.8240 O   0  0  0  0  0  0  0  0  0  0  0  0
  160.4770  207.1800  150.4900 F   0  0  0  0  0  0  0  0  0  0  0  0
  162.1280  207.3400  152.0120 F   0  0  0  0  0  0  0  0  0  0  0  0
  162.1840  208.6930  150.1290 N   0  0  0  0  0  1  0  0  0  0  0  0
  161.3410  208.0530  151.1240 C   0  0  0  0  0  0  0  0  0  0  0  0
  3  1  1  1  0  0  0
  4  5  1  0  0  0  0
  4 11  1  1  0  0  0
  5  3  1  0  0  0  0
  6  2  1  6  0  0  0
  6  8  1  0  0  0  0
  6  7  1  0  0  0  0
  7 20  1  6  0  0  0
  7  4  1  0  0  0  0
  8  3  1  0  0  0  0
 10 11  1  0  0  0  0
 10 17  1  0  0  0  0
 11  9  2  0  0  0  0
 12 16  1  0  0  0  0
 13 15  1  0  0  0  0
 13 16  1  0  0  0  0
 15 16  1  0  0  0  0
 15 10  1  1  0  0  0
 16 14  1  0  0  0  0
 17 18  1  6  0  0  0
 17 19  1  0  0  0  0
 21 20  1  1  0  0  0
 22 23  1  0  0  0  0
 23 21  1  0  0  0  0
 24 22  2  0  0  0  0
 25 23  2  0  0  0  0
 26 25  1  0  0  0  0
 27 26  2  0  0  0  0
 27 24  1  0  0  0  0
 29 21  1  0  0  0  0
 29 28  2  0  0  0  0
 30 29  1  0  0  0  0
 31 34  1  0  0  0  0
 33 34  1  0  0  0  0
 34 30  1  0  0  0  0
 34 32  1  0  0  0  0
M  END
>  <MODEL>
5

>  <REMARK>
 VINA RESULT:      -2.6      1.662      4.450
  Name = 
  9 active torsions:
  status: ('A' for Active; 'I' for Inactive)
    1  A    between atoms: O_4  and  C_27
    2  A    between atoms: O_4  and  C_29
    3  A    between atoms: C_7  and  C_9
    4  A    between atoms: C_7  and  C_30
    5  A    between atoms: C_9  and  C_11
    6  A    between atoms: C_9  and  C_27
    7  A    between atoms: C_14  and  N_26
    8  A    between atoms: C_18  and  C_34
    9  A    between atoms: C_23  and  N_26
                            x       y       z     vdW  Elec       q    Type
                         _______ _______ _______ _____ _____    ______ ____

>  <TORSDO>
F 9

$$$$
=
 OpenBabel11072414143D

 34 36  0  0  1  0  0  0  0  0999 V2000
  157.6040  209.6080  155.0320 C   0  0  0  0  0  1  0  0  0  0  0  0
  161.9760  208.2160  155.7470 C   0  0  0  0  0  1  0  0  0  0  0  0
  158.8960  209.7430  155.8260 C   0  0  2  0  0  3  0  0  0  0  0  0
  160.4020  210.2200  154.0420 C   0  0  1  0  0  3  0  0  0  0  0  0
  159.8000  210.6750  155.2520 O   0  0  0  0  0  0  0  0  0  0  0  0
  160.6010  207.9640  155.1400 C   0  0  2  0  0  3  0  0  0  0  0  0
  160.4100  208.6990  153.8120 C   0  0  2  0  0  3  0  0  0  0  0  0
  159.5230  208.3770  156.1380 C   0  0  0  0  0  2  0  0  0  0  0  0
  160.4740  210.8330  151.7370 O   0  0  0  0  0  0  0  0  0  0  0  0
  158.8230  211.9320  152.9730 N   0  0  0  0  0  0  0  0  0  0  0  0
  159.9000  210.9820  152.8480 C   0  0  0  0  0  0  0  0  0  0  0  0
  157.8230  213.3000  156.3970 C   0  0  0  0  0  1  0  0  0  0  0  0
  156.8930  213.0680  154.0810 C   0  0  0  0  0  2  0  0  0  0  0  0
  158.9530  214.4530  154.3430 C   0  0  0  0  0  1  0  0  0  0  0  0
  157.9690  211.9840  154.1730 C   0  0  2  0  0  3  0  0  0  0  0  0
  158.1210  213.3140  154.9130 C   0  0  0  0  0  0  0  0  0  0  0  0
  158.8520  213.0940  152.0790 C   0  0  2  0  0  3  0  0  0  0  0  0
  157.8050  212.9550  150.9910 C   0  0  0  0  0  1  0  0  0  0  0  0
  160.1140  213.2520  151.5030 O   0  0  0  0  0  1  0  0  0  0  0  0
  161.4540  208.3050  152.7730 C   0  0  0  0  0  2  0  0  0  0  0  0
  161.0060  207.0800  151.9830 C   0  0  1  0  0  3  0  0  0  0  0  0
  160.5100  206.4770  149.6110 C   0  0  0  0  0  3  0  0  0  0  0  0
  161.2400  207.2580  150.5150 C   0  0  0  0  0  0  0  0  0  0  0  0
  160.7070  206.6230  148.2350 C   0  0  0  0  0  3  0  0  0  0  0  0
  162.1760  208.1850  150.0300 C   0  0  0  0  0  3  0  0  0  0  0  0
  162.3740  208.3300  148.6540 C   0  0  0  0  0  3  0  0  0  0  0  0
  161.6390  207.5490  147.7560 C   0  0  0  0  0  3  0  0  0  0  0  0
  162.8080  205.8400  152.9580 O   0  0  0  0  0  0  0  0  0  0  0  0
  161.6330  205.8220  152.4970 C   0  0  0  0  0  0  0  0  0  0  0  0
  160.8940  204.6350  152.4650 O   0  0  0  0  0  0  0  0  0  0  0  0
  162.0060  204.0610  150.5530 F   0  0  0  0  0  0  0  0  0  0  0  0
  159.8410  203.4840  150.7710 F   0  0  0  0  0  0  0  0  0  0  0  0
  161.4430  202.3820  152.0350 N   0  0  0  0  0  1  0  0  0  0  0  0
  161.0380  203.6470  151.4480 C   0  0  0  0  0  0  0  0  0  0  0  0
  3  1  1  6  0  0  0
  3  8  1  0  0  0  0
  4 11  1  6  0  0  0
  4  5  1  0  0  0  0
  5  3  1  0  0  0  0
  6  2  1  1  0  0  0
  6  8  1  0  0  0  0
  7 20  1  6  0  0  0
  7  4  1  0  0  0  0
  7  6  1  0  0  0  0
  9 11  2  0  0  0  0
 11 10  1  0  0  0  0
 13 15  1  0  0  0  0
 13 16  1  0  0  0  0
 14 16  1  0  0  0  0
 15 10  1  6  0  0  0
 15 16  1  0  0  0  0
 16 12  1  0  0  0  0
 17 18  1  6  0  0  0
 17 10  1  0  0  0  0
 19 17  1  0  0  0  0
 21 29  1  0  0  0  0
 21 20  1  1  0  0  0
 22 23  1  0  0  0  0
 23 21  1  0  0  0  0
 24 22  2  0  0  0  0
 25 23  2  0  0  0  0
 26 25  1  0  0  0  0
 27 24  1  0  0  0  0
 27 26  2  0  0  0  0
 29 28  2  0  0  0  0
 30 29  1  0  0  0  0
 31 34  1  0  0  0  0
 32 34  1  0  0  0  0
 34 33  1  0  0  0  0
 34 30  1  0  0  0  0
M  END
>  <MODEL>
6

>  <REMARK>
 VINA RESULT:      -2.4      2.598      4.217
  Name = 
  9 active torsions:
  status: ('A' for Active; 'I' for Inactive)
    1  A    between atoms: O_4  and  C_27
    2  A    between atoms: O_4  and  C_29
    3  A    between atoms: C_7  and  C_9
    4  A    between atoms: C_7  and  C_30
    5  A    between atoms: C_9  and  C_11
    6  A    between atoms: C_9  and  C_27
    7  A    between atoms: C_14  and  N_26
    8  A    between atoms: C_18  and  C_34
    9  A    between atoms: C_23  and  N_26
                            x       y       z     vdW  Elec       q    Type
                         _______ _______ _______ _____ _____    ______ ____

>  <TORSDO>
F 9

$$$$
=
 OpenBabel11072414143D

 34 36  0  0  1  0  0  0  0  0999 V2000
  162.1110  203.2260  151.6320 C   0  0  0  0  0  1  0  0  0  0  0  0
  160.5110  207.2970  153.1910 C   0  0  0  0  0  1  0  0  0  0  0  0
  160.9220  204.0810  152.0450 C   0  0  2  0  0  3  0  0  0  0  0  0
  161.2200  205.9120  150.5490 C   0  0  1  0  0  3  0  0  0  0  0  0
  160.3850  204.8350  150.9670 O   0  0  0  0  0  0  0  0  0  0  0  0
  161.6760  206.3360  152.9880 C   0  0  2  0  0  3  0  0  0  0  0  0
  162.2530  206.4140  151.5740 C   0  0  2  0  0  3  0  0  0  0  0  0
  161.2190  204.9140  153.3000 C   0  0  0  0  0  2  0  0  0  0  0  0
  162.6470  206.4870  148.7250 O   0  0  0  0  0  0  0  0  0  0  0  0
  161.4210  204.5230  148.4060 N   0  0  0  0  0  0  0  0  0  0  0  0
  161.8240  205.6580  149.1970 C   0  0  0  0  0  0  0  0  0  0  0  0
  159.2570  201.3840  148.1710 C   0  0  0  0  0  1  0  0  0  0  0  0
  161.4700  202.1200  149.0880 C   0  0  0  0  0  2  0  0  0  0  0  0
  161.1520  202.2910  146.6190 C   0  0  0  0  0  1  0  0  0  0  0  0
  160.6510  203.4080  148.9840 C   0  0  2  0  0  3  0  0  0  0  0  0
  160.4680  202.2710  147.9770 C   0  0  0  0  0  0  0  0  0  0  0  0
  161.4370  204.6870  146.9490 C   0  0  2  0  0  3  0  0  0  0  0  0
  162.8590  204.8530  146.4470 C   0  0  0  0  0  1  0  0  0  0  0  0
  160.6680  205.7850  146.5590 O   0  0  0  0  0  1  0  0  0  0  0  0
  162.7410  207.8150  151.2200 C   0  0  0  0  0  2  0  0  0  0  0  0
  161.5710  208.7370  150.8950 C   0  0  1  0  0  3  0  0  0  0  0  0
  160.0270  210.3040  152.0760 C   0  0  0  0  0  3  0  0  0  0  0  0
  161.2720  209.6670  152.0300 C   0  0  0  0  0  0  0  0  0  0  0  0
  159.7210  211.1770  153.1240 C   0  0  0  0  0  3  0  0  0  0  0  0
  162.2140  209.9130  153.0410 C   0  0  0  0  0  3  0  0  0  0  0  0
  161.9080  210.7870  154.0890 C   0  0  0  0  0  3  0  0  0  0  0  0
  160.6610  211.4180  154.1310 C   0  0  0  0  0  3  0  0  0  0  0  0
  161.4930  208.9340  148.5090 O   0  0  0  0  0  0  0  0  0  0  0  0
  161.7820  209.4770  149.6110 C   0  0  0  0  0  0  0  0  0  0  0  0
  162.2950  210.7780  149.6570 O   0  0  0  0  0  0  0  0  0  0  0  0
  161.1630  212.7550  149.4780 F   0  0  0  0  0  0  0  0  0  0  0  0
  161.0880  211.2960  147.7660 F   0  0  0  0  0  0  0  0  0  0  0  0
  163.0520  212.4570  148.1830 N   0  0  0  0  0  1  0  0  0  0  0  0
  161.8870  211.8160  148.7690 C   0  0  0  0  0  0  0  0  0  0  0  0
  3  1  1  6  0  0  0
  3  8  1  0  0  0  0
  4 11  1  6  0  0  0
  4  5  1  0  0  0  0
  4  7  1  0  0  0  0
  5  3  1  0  0  0  0
  6  2  1  6  0  0  0
  6  8  1  0  0  0  0
  7 20  1  6  0  0  0
  7  6  1  0  0  0  0
  9 11  2  0  0  0  0
 10 11  1  0  0  0  0
 14 16  1  0  0  0  0
 15 10  1  6  0  0  0
 15 13  1  0  0  0  0
 16 12  1  0  0  0  0
 16 15  1  0  0  0  0
 16 13  1  0  0  0  0
 17 18  1  1  0  0  0
 17 10  1  0  0  0  0
 19 17  1  0  0  0  0
 21 20  1  1  0  0  0
 21 23  1  0  0  0  0
 22 24  1  0  0  0  0
 23 22  2  0  0  0  0
 23 25  1  0  0  0  0
 24 27  2  0  0  0  0
 25 26  2  0  0  0  0
 26 27  1  0  0  0  0
 28 29  2  0  0  0  0
 29 30  1  0  0  0  0
 29 21  1  0  0  0  0
 32 34  1  0  0  0  0
 33 34  1  0  0  0  0
 34 31  1  0  0  0  0
 34 30  1  0  0  0  0
M  END
>  <MODEL>
7

>  <REMARK>
 VINA RESULT:      -2.3      4.010      8.311
  Name = 
  9 active torsions:
  status: ('A' for Active; 'I' for Inactive)
    1  A    between atoms: O_4  and  C_27
    2  A    between atoms: O_4  and  C_29
    3  A    between atoms: C_7  and  C_9
    4  A    between atoms: C_7  and  C_30
    5  A    between atoms: C_9  and  C_11
    6  A    between atoms: C_9  and  C_27
    7  A    between atoms: C_14  and  N_26
    8  A    between atoms: C_18  and  C_34
    9  A    between atoms: C_23  and  N_26
                            x       y       z     vdW  Elec       q    Type
                         _______ _______ _______ _____ _____    ______ ____

>  <TORSDO>
F 9

$$$$
=
 OpenBabel11072414143D

 34 36  0  0  1  0  0  0  0  0999 V2000
  160.0150  207.8020  157.1880 C   0  0  0  0  0  1  0  0  0  0  0  0
  162.6520  210.9090  154.9620 C   0  0  0  0  0  1  0  0  0  0  0  0
  160.9460  209.0040  157.2610 C   0  0  2  0  0  3  0  0  0  0  0  0
  159.7460  210.5100  155.8570 C   0  0  1  0  0  3  0  0  0  0  0  0
  160.2560  210.2410  157.1620 O   0  0  0  0  0  0  0  0  0  0  0  0
  161.9070  209.5800  154.9610 C   0  0  2  0  0  3  0  0  0  0  0  0
  160.4110  209.7540  154.6940 C   0  0  2  0  0  3  0  0  0  0  0  0
  162.1320  208.8720  156.2950 C   0  0  0  0  0  2  0  0  0  0  0  0
  157.6970  209.4170  155.3100 O   0  0  0  0  0  0  0  0  0  0  0  0
  157.4330  211.5270  156.2810 N   0  0  0  0  0  0  0  0  0  0  0  0
  158.2460  210.4320  155.8170 C   0  0  0  0  0  0  0  0  0  0  0  0
  159.8300  214.4410  156.8770 C   0  0  0  0  0  1  0  0  0  0  0  0
  157.3700  213.9810  156.7460 C   0  0  0  0  0  2  0  0  0  0  0  0
  158.7150  213.5460  154.6910 C   0  0  0  0  0  1  0  0  0  0  0  0
  157.9960  212.6260  157.0840 C   0  0  2  0  0  3  0  0  0  0  0  0
  158.7320  213.6420  156.2080 C   0  0  0  0  0  0  0  0  0  0  0  0
  156.1480  211.7350  155.6050 C   0  0  2  0  0  3  0  0  0  0  0  0
  155.2110  210.5730  155.8740 C   0  0  0  0  0  1  0  0  0  0  0  0
  156.3240  211.8920  154.2290 O   0  0  0  0  0  1  0  0  0  0  0  0
  160.1330  210.4410  153.3610 C   0  0  0  0  0  2  0  0  0  0  0  0
  161.2370  210.1440  152.3520 C   0  0  1  0  0  3  0  0  0  0  0  0
  161.2190  208.4010  150.5650 C   0  0  0  0  0  3  0  0  0  0  0  0
  161.2230  208.7070  151.9300 C   0  0  0  0  0  0  0  0  0  0  0  0
  161.2070  207.0680  150.1420 C   0  0  0  0  0  3  0  0  0  0  0  0
  161.2110  207.6680  152.8740 C   0  0  0  0  0  3  0  0  0  0  0  0
  161.1980  206.3350  152.4510 C   0  0  0  0  0  3  0  0  0  0  0  0
  161.1970  206.0350  151.0850 C   0  0  0  0  0  3  0  0  0  0  0  0
  160.2250  211.8800  151.0470 O   0  0  0  0  0  0  0  0  0  0  0  0
  161.1830  211.0690  151.1760 C   0  0  0  0  0  0  0  0  0  0  0  0
  162.2140  211.0210  150.2310 O   0  0  0  0  0  0  0  0  0  0  0  0
  161.5210  212.7960  148.9680 F   0  0  0  0  0  0  0  0  0  0  0  0
  161.2840  210.7130  148.1480 F   0  0  0  0  0  0  0  0  0  0  0  0
  163.4040  211.6430  148.2910 N   0  0  0  0  0  1  0  0  0  0  0  0
  162.0930  211.5390  148.9090 C   0  0  0  0  0  0  0  0  0  0  0  0
  3  1  1  6  0  0  0
  4 11  1  1  0  0  0
  4  5  1  0  0  0  0
  5  3  1  0  0  0  0
  6  2  1  1  0  0  0
  6  8  1  0  0  0  0
  7 20  1  6  0  0  0
  7  6  1  0  0  0  0
  7  4  1  0  0  0  0
  8  3  1  0  0  0  0
  9 11  2  0  0  0  0
 11 10  1  0  0  0  0
 13 15  1  0  0  0  0
 14 16  1  0  0  0  0
 15 10  1  6  0  0  0
 16 13  1  0  0  0  0
 16 12  1  0  0  0  0
 16 15  1  0  0  0  0
 17 18  1  6  0  0  0
 17 10  1  0  0  0  0
 19 17  1  0  0  0  0
 21 20  1  1  0  0  0
 22 23  1  0  0  0  0
 23 21  1  0  0  0  0
 23 25  2  0  0  0  0
 24 22  2  0  0  0  0
 24 27  1  0  0  0  0
 26 25  1  0  0  0  0
 27 26  2  0  0  0  0
 28 29  2  0  0  0  0
 29 21  1  0  0  0  0
 30 29  1  0  0  0  0
 32 34  1  0  0  0  0
 33 34  1  0  0  0  0
 34 31  1  0  0  0  0
 34 30  1  0  0  0  0
M  END
>  <MODEL>
8

>  <REMARK>
 VINA RESULT:      -2.2      1.842      3.192
  Name = 
  9 active torsions:
  status: ('A' for Active; 'I' for Inactive)
    1  A    between atoms: O_4  and  C_27
    2  A    between atoms: O_4  and  C_29
    3  A    between atoms: C_7  and  C_9
    4  A    between atoms: C_7  and  C_30
    5  A    between atoms: C_9  and  C_11
    6  A    between atoms: C_9  and  C_27
    7  A    between atoms: C_14  and  N_26
    8  A    between atoms: C_18  and  C_34
    9  A    between atoms: C_23  and  N_26
                            x       y       z     vdW  Elec       q    Type
                         _______ _______ _______ _____ _____    ______ ____

>  <TORSDO>
F 9

$$$$
=
 OpenBabel11072414143D

 34 36  0  0  1  0  0  0  0  0999 V2000
  161.1370  208.1680  148.2650 C   0  0  0  0  0  1  0  0  0  0  0  0
  163.0630  210.3120  151.9070 C   0  0  0  0  0  1  0  0  0  0  0  0
  162.3990  208.6060  148.9960 C   0  0  2  0  0  3  0  0  0  0  0  0
  162.0240  207.5440  151.0950 C   0  0  1  0  0  3  0  0  0  0  0  0
  162.8510  207.6460  149.9390 O   0  0  0  0  0  0  0  0  0  0  0  0
  161.8430  210.0540  151.0310 C   0  0  2  0  0  3  0  0  0  0  0  0
  161.1260  208.7550  151.4030 C   0  0  2  0  0  3  0  0  0  0  0  0
  162.2690  210.0260  149.5650 C   0  0  0  0  0  2  0  0  0  0  0  0
  160.5790  205.9590  152.1440 O   0  0  0  0  0  0  0  0  0  0  0  0
  161.3890  205.2880  150.0570 N   0  0  0  0  0  0  0  0  0  0  0  0
  161.2720  206.2430  151.1300 C   0  0  0  0  0  0  0  0  0  0  0  0
  162.9840  204.4660  146.6840 C   0  0  0  0  0  1  0  0  0  0  0  0
  160.9670  205.6250  147.6180 C   0  0  0  0  0  2  0  0  0  0  0  0
  161.2030  203.1900  148.1060 C   0  0  0  0  0  1  0  0  0  0  0  0
  161.9860  205.6500  148.7590 C   0  0  2  0  0  3  0  0  0  0  0  0
  161.9310  204.4820  147.7720 C   0  0  0  0  0  0  0  0  0  0  0  0
  161.2820  203.8700  150.4120 C   0  0  2  0  0  3  0  0  0  0  0  0
  159.9330  203.5800  151.0450 C   0  0  0  0  0  1  0  0  0  0  0  0
  162.3040  203.4920  151.2850 O   0  0  0  0  0  1  0  0  0  0  0  0
  160.6640  208.7410  152.8560 C   0  0  0  0  0  2  0  0  0  0  0  0
  161.0440  210.0370  153.5640 C   0  0  1  0  0  3  0  0  0  0  0  0
  158.7590  210.6560  154.3570 C   0  0  0  0  0  3  0  0  0  0  0  0
  159.8930  210.9950  153.6110 C   0  0  0  0  0  0  0  0  0  0  0  0
  157.6700  211.5310  154.4200 C   0  0  0  0  0  3  0  0  0  0  0  0
  159.9300  212.2170  152.9220 C   0  0  0  0  0  3  0  0  0  0  0  0
  158.8410  213.0920  152.9840 C   0  0  0  0  0  3  0  0  0  0  0  0
  157.7110  212.7490  153.7330 C   0  0  0  0  0  3  0  0  0  0  0  0
  162.2030  210.7100  155.5490 O   0  0  0  0  0  0  0  0  0  0  0  0
  161.6130  209.7850  154.9260 C   0  0  0  0  0  0  0  0  0  0  0  0
  161.4720  208.5140  155.4920 O   0  0  0  0  0  0  0  0  0  0  0  0
  159.3310  207.7220  155.6120 F   0  0  0  0  0  0  0  0  0  0  0  0
  160.0120  209.2570  157.1110 F   0  0  0  0  0  0  0  0  0  0  0  0
  160.8230  207.0890  157.2570 N   0  0  0  0  0  1  0  0  0  0  0  0
  160.4040  208.1580  156.3670 C   0  0  0  0  0  0  0  0  0  0  0  0
  3  1  1  1  0  0  0
  3  8  1  0  0  0  0
  3  5  1  0  0  0  0
  4 11  1  6  0  0  0
  4  7  1  0  0  0  0
  5  4  1  0  0  0  0
  6  7  1  0  0  0  0
  6  2  1  1  0  0  0
  7 20  1  1  0  0  0
  8  6  1  0  0  0  0
 10 17  1  0  0  0  0
 10 11  1  0  0  0  0
 11  9  2  0  0  0  0
 12 16  1  0  0  0  0
 13 16  1  0  0  0  0
 13 15  1  0  0  0  0
 15 10  1  1  0  0  0
 16 14  1  0  0  0  0
 16 15  1  0  0  0  0
 17 18  1  1  0  0  0
 17 19  1  0  0  0  0
 21 20  1  1  0  0  0
 21 23  1  0  0  0  0
 21 29  1  0  0  0  0
 22 24  1  0  0  0  0
 23 22  2  0  0  0  0
 25 26  2  0  0  0  0
 25 23  1  0  0  0  0
 26 27  1  0  0  0  0
 27 24  2  0  0  0  0
 29 30  1  0  0  0  0
 29 28  2  0  0  0  0
 30 34  1  0  0  0  0
 31 34  1  0  0  0  0
 34 32  1  0  0  0  0
 34 33  1  0  0  0  0
M  END
>  <MODEL>
9

>  <REMARK>
 VINA RESULT:      -1.9      3.334      7.828
  Name = 
  9 active torsions:
  status: ('A' for Active; 'I' for Inactive)
    1  A    between atoms: O_4  and  C_27
    2  A    between atoms: O_4  and  C_29
    3  A    between atoms: C_7  and  C_9
    4  A    between atoms: C_7  and  C_30
    5  A    between atoms: C_9  and  C_11
    6  A    between atoms: C_9  and  C_27
    7  A    between atoms: C_14  and  N_26
    8  A    between atoms: C_18  and  C_34
    9  A    between atoms: C_23  and  N_26
                            x       y       z     vdW  Elec       q    Type
                         _______ _______ _______ _____ _____    ______ ____

>  <TORSDO>
F 9

$$$$
