=
 OpenBabel11072413253D

 41 45  0  0  1  0  0  0  0  0999 V2000
  160.9890  209.4340  152.0170 C   0  0  0  0  0  0  0  0  0  0  0  0
  160.6010  208.8000  153.1530 F   0  0  0  0  0  0  0  0  0  0  0  0
  161.7450  208.7980  151.1080 C   0  0  0  0  0  0  0  0  0  0  0  0
  162.1340  209.4790  149.8230 C   0  0  2  0  0  3  0  0  0  0  0  0
  162.1860  211.0030  150.0030 C   0  0  2  0  0  3  0  0  0  0  0  0
  160.6200  210.7750  151.8310 O   0  0  0  0  0  0  0  0  0  0  0  0
  160.8730  211.4760  150.6130 C   0  0  0  0  0  2  0  0  0  0  0  0
  161.2300  209.1360  148.8320 F   0  0  0  0  0  0  0  0  0  0  0  0
  162.4390  211.7160  148.6850 C   0  0  0  0  0  2  0  0  0  0  0  0
  161.7160  214.4530  149.1090 O   0  0  0  0  0  1  0  0  0  0  0  0
  160.4750  213.0420  144.4130 C   0  0  0  0  0  0  0  0  0  0  0  0
  160.7050  213.6260  148.0300 P   0  0  1  0  0  0  0  0  0  0  0  0
  161.1840  211.8690  147.9490 N   0  0  0  0  0  0  0  0  0  0  0  0
  159.2230  213.7000  148.3150 O   0  0  0  0  0  0  0  0  0  0  0  0
  161.3310  212.5780  146.7290 C   0  0  1  0  0  0  0  0  0  0  0  0
  161.6750  213.5450  144.0950 C   0  0  0  0  0  3  0  0  0  0  0  0
  160.2850  212.2260  145.6750 C   0  0  0  0  0  2  0  0  0  0  0  0
  162.8410  213.4260  144.9950 C   0  0  0  0  0  3  0  0  0  0  0  0
  162.7050  212.9550  146.2340 C   0  0  0  0  0  3  0  0  0  0  0  0
  159.3930  213.2190  143.4910 N   0  0  0  0  0  2  0  0  0  0  0  0
  159.8580  211.6850  139.5460 C   0  0  0  0  0  2  0  0  0  0  0  0
  159.4500  213.1610  139.6690 C   0  0  0  0  0  2  0  0  0  0  0  0
  159.3340  212.6560  142.1460 C   0  0  0  0  0  3  0  0  0  0  0  0
  159.5990  213.7270  141.0860 C   0  0  0  0  0  2  0  0  0  0  0  0
  160.2710  211.4420  142.0150 C   0  0  0  0  0  2  0  0  0  0  0  0
  160.8710  211.2880  140.6140 C   0  0  0  0  0  2  0  0  0  0  0  0
  162.1440  207.3730  151.3160 C   0  0  0  0  0  2  0  0  0  0  0  0
  160.9240  206.4720  151.2570 C   0  0  0  0  0  2  0  0  0  0  0  0
  161.1880  203.9830  150.7180 N   0  0  0  0  0  2  0  0  0  0  0  0
  160.8780  204.0780  149.3190 C   0  0  0  0  0  0  0  0  0  0  0  0
  160.8360  205.1980  148.7440 O   0  0  0  0  0  0  0  0  0  0  0  0
  161.3080  205.0790  151.6350 C   0  0  0  0  0  0  0  0  0  0  0  0
  161.6990  204.8540  152.8090 O   0  0  0  0  0  0  0  0  0  0  0  0
  160.6360  202.9250  148.5710 O   0  0  0  0  0  0  0  0  0  0  0  0
  161.4610  202.5370  147.4780 C   0  0  0  0  0  2  0  0  0  0  0  0
  160.7820  202.8420  146.1500 C   0  0  2  0  0  3  0  0  0  0  0  0
  160.4670  201.6420  145.5130 O   0  0  0  0  0  1  0  0  0  0  0  0
  161.7040  203.6620  145.2630 C   0  0  1  0  0  3  0  0  0  0  0  0
  161.0240  204.9670  144.8930 C   0  0  1  0  0  3  0  0  0  0  0  0
  162.0850  204.9450  145.9720 C   0  0  0  0  0  2  0  0  0  0  0  0
  161.5800  205.4490  143.7090 O   0  0  0  0  0  1  0  0  0  0  0  0
  1  2  1  0  0  0  0
  3 27  1  0  0  0  0
  3  1  2  0  0  0  0
  4  8  1  6  0  0  0
  4  5  1  0  0  0  0
  4  3  1  0  0  0  0
  5  9  1  6  0  0  0
  5  7  1  0  0  0  0
  6  1  1  0  0  0  0
  7  6  1  0  0  0  0
 11 17  1  0  0  0  0
 12 14  2  6  0  0  0
 12 10  1  0  0  0  0
 13 12  1  0  0  0  0
 13  9  1  0  0  0  0
 15 17  1  6  0  0  0
 15 13  1  0  0  0  0
 15 12  1  0  0  0  0
 16 11  2  0  0  0  0
 16 18  1  0  0  0  0
 18 19  2  0  0  0  0
 19 15  1  0  0  0  0
 20 11  1  0  0  0  0
 21 22  1  0  0  0  0
 21 26  1  0  0  0  0
 22 24  1  0  0  0  0
 23 20  1  0  0  0  0
 24 23  1  0  0  0  0
 25 23  1  0  0  0  0
 26 25  1  0  0  0  0
 28 27  1  0  0  0  0
 28 32  1  0  0  0  0
 29 32  1  0  0  0  0
 30 29  1  0  0  0  0
 31 30  2  0  0  0  0
 32 33  2  0  0  0  0
 34 30  1  0  0  0  0
 35 34  1  0  0  0  0
 36 37  1  6  0  0  0
 36 35  1  0  0  0  0
 38 40  1  0  0  0  0
 38 36  1  1  0  0  0
 39 41  1  6  0  0  0
 39 38  1  0  0  0  0
 39 40  1  0  0  0  0
M  END
>  <MODEL>
1

>  <REMARK>
 VINA RESULT:      -7.2      0.000      0.000
  Name = 
  11 active torsions:
  status: ('A' for Active; 'I' for Inactive)
    1  A    between atoms: N_3  and  C_4
    2  A    between atoms: N_3  and  C_22
    3  A    between atoms: C_6  and  C_14
    4  A    between atoms: C_6  and  N_15
    5  A    between atoms: C_7  and  C_30
    6  A    between atoms: C_7  and  C_31
    7  A    between atoms: C_8  and  C_13
    8  A    between atoms: C_8  and  C_20
    9  A    between atoms: C_10  and  C_31
   10  A    between atoms: O_16  and  C_20
   11  A    between atoms: O_16  and  C_27
                            x       y       z     vdW  Elec       q    Type
                         _______ _______ _______ _____ _____    ______ ____

>  <TORSDO>
F 11

$$$$
=
 OpenBabel11072413253D

 41 45  0  0  1  0  0  0  0  0999 V2000
  160.1290  209.5180  155.7220 C   0  0  0  0  0  0  0  0  0  0  0  0
  159.6640  209.7560  156.9750 F   0  0  0  0  0  0  0  0  0  0  0  0
  160.1870  210.5110  154.8200 C   0  0  0  0  0  0  0  0  0  0  0  0
  160.7500  210.2650  153.4450 C   0  0  2  0  0  3  0  0  0  0  0  0
  160.5690  208.7980  153.0320 C   0  0  2  0  0  3  0  0  0  0  0  0
  160.5080  208.2120  155.3770 O   0  0  0  0  0  0  0  0  0  0  0  0
  161.1270  207.8990  154.1280 C   0  0  0  0  0  2  0  0  0  0  0  0
  162.0910  210.6130  153.4320 F   0  0  0  0  0  0  0  0  0  0  0  0
  161.2560  208.4980  151.7090 C   0  0  0  0  0  2  0  0  0  0  0  0
  162.8000  208.0770  149.3370 O   0  0  0  0  0  1  0  0  0  0  0  0
  160.9440  203.6750  150.9970 C   0  0  0  0  0  0  0  0  0  0  0  0
  161.5150  206.9910  149.5300 P   0  0  1  0  0  0  0  0  0  0  0  0
  160.5310  207.4450  150.9970 N   0  0  0  0  0  0  0  0  0  0  0  0
  160.5750  206.8550  148.3550 O   0  0  0  0  0  0  0  0  0  0  0  0
  161.1620  206.1760  151.0770 C   0  0  1  0  0  0  0  0  0  0  0  0
  162.1240  203.5750  151.6240 C   0  0  0  0  0  3  0  0  0  0  0  0
  160.2060  204.9950  150.9390 C   0  0  0  0  0  2  0  0  0  0  0  0
  162.8130  204.7500  152.1960 C   0  0  0  0  0  3  0  0  0  0  0  0
  162.3660  205.9840  151.9670 C   0  0  0  0  0  3  0  0  0  0  0  0
  160.3560  202.4860  150.4540 N   0  0  0  0  0  2  0  0  0  0  0  0
  160.9720  201.3070  146.4090 C   0  0  0  0  0  2  0  0  0  0  0  0
  161.0440  202.8120  146.7080 C   0  0  0  0  0  2  0  0  0  0  0  0
  160.3510  202.1200  149.0410 C   0  0  0  0  0  3  0  0  0  0  0  0
  161.1220  203.1420  148.2040 C   0  0  0  0  0  2  0  0  0  0  0  0
  160.8570  200.6810  148.8430 C   0  0  0  0  0  2  0  0  0  0  0  0
  161.6070  200.4790  147.5220 C   0  0  0  0  0  2  0  0  0  0  0  0
  159.7730  211.8980  155.1890 C   0  0  0  0  0  2  0  0  0  0  0  0
  158.4140  212.2170  154.5930 C   0  0  0  0  0  2  0  0  0  0  0  0
  158.5360  214.2520  153.0440 N   0  0  0  0  0  2  0  0  0  0  0  0
  158.7090  213.5230  151.8200 C   0  0  0  0  0  0  0  0  0  0  0  0
  158.5110  212.2800  151.7760 O   0  0  0  0  0  0  0  0  0  0  0  0
  158.3070  213.6850  154.3410 C   0  0  0  0  0  0  0  0  0  0  0  0
  158.0580  214.4510  155.3080 O   0  0  0  0  0  0  0  0  0  0  0  0
  159.0820  214.1880  150.6500 O   0  0  0  0  0  0  0  0  0  0  0  0
  158.4820  213.9110  149.3900 C   0  0  0  0  0  2  0  0  0  0  0  0
  159.5400  213.7630  148.3060 C   0  0  2  0  0  3  0  0  0  0  0  0
  159.0110  213.0200  147.2510 O   0  0  0  0  0  1  0  0  0  0  0  0
  160.7660  213.0550  148.8600 C   0  0  1  0  0  3  0  0  0  0  0  0
  161.5370  212.4110  147.7240 C   0  0  1  0  0  3  0  0  0  0  0  0
  162.0200  213.7140  148.3230 C   0  0  0  0  0  2  0  0  0  0  0  0
  162.2990  211.3580  148.2310 O   0  0  0  0  0  1  0  0  0  0  0  0
  1  2  1  0  0  0  0
  3 27  1  0  0  0  0
  3  1  2  0  0  0  0
  4  8  1  1  0  0  0
  4  3  1  0  0  0  0
  5  9  1  6  0  0  0
  5  4  1  0  0  0  0
  5  7  1  0  0  0  0
  6  1  1  0  0  0  0
  7  6  1  0  0  0  0
 10 12  1  0  0  0  0
 11 16  2  0  0  0  0
 12 14  2  6  0  0  0
 12 13  1  0  0  0  0
 12 15  1  0  0  0  0
 13 15  1  0  0  0  0
 13  9  1  0  0  0  0
 15 17  1  6  0  0  0
 15 19  1  0  0  0  0
 16 18  1  0  0  0  0
 17 11  1  0  0  0  0
 19 18  2  0  0  0  0
 20 11  1  0  0  0  0
 21 22  1  0  0  0  0
 21 26  1  0  0  0  0
 22 24  1  0  0  0  0
 23 20  1  0  0  0  0
 24 23  1  0  0  0  0
 25 23  1  0  0  0  0
 26 25  1  0  0  0  0
 28 27  1  0  0  0  0
 29 32  1  0  0  0  0
 30 29  1  0  0  0  0
 31 30  2  0  0  0  0
 32 28  1  0  0  0  0
 32 33  2  0  0  0  0
 34 30  1  0  0  0  0
 35 34  1  0  0  0  0
 36 37  1  6  0  0  0
 36 35  1  0  0  0  0
 38 36  1  6  0  0  0
 39 41  1  1  0  0  0
 39 40  1  0  0  0  0
 39 38  1  0  0  0  0
 40 38  1  0  0  0  0
M  END
>  <MODEL>
2

>  <REMARK>
 VINA RESULT:      -7.2      4.200      9.270
  Name = 
  11 active torsions:
  status: ('A' for Active; 'I' for Inactive)
    1  A    between atoms: N_3  and  C_4
    2  A    between atoms: N_3  and  C_22
    3  A    between atoms: C_6  and  C_14
    4  A    between atoms: C_6  and  N_15
    5  A    between atoms: C_7  and  C_30
    6  A    between atoms: C_7  and  C_31
    7  A    between atoms: C_8  and  C_13
    8  A    between atoms: C_8  and  C_20
    9  A    between atoms: C_10  and  C_31
   10  A    between atoms: O_16  and  C_20
   11  A    between atoms: O_16  and  C_27
                            x       y       z     vdW  Elec       q    Type
                         _______ _______ _______ _____ _____    ______ ____

>  <TORSDO>
F 11

$$$$
=
 OpenBabel11072413253D

 41 45  0  0  1  0  0  0  0  0999 V2000
  160.8910  205.9900  149.7400 C   0  0  0  0  0  0  0  0  0  0  0  0
  160.6230  205.1080  148.7440 F   0  0  0  0  0  0  0  0  0  0  0  0
  160.8190  205.6060  151.0250 C   0  0  0  0  0  0  0  0  0  0  0  0
  161.1660  206.5660  152.1310 C   0  0  2  0  0  3  0  0  0  0  0  0
  160.9140  208.0170  151.6990 C   0  0  2  0  0  3  0  0  0  0  0  0
  161.2040  207.3160  149.4040 O   0  0  0  0  0  0  0  0  0  0  0  0
  161.6250  208.2730  150.3770 C   0  0  0  0  0  2  0  0  0  0  0  0
  162.4920  206.3880  152.4920 F   0  0  0  0  0  0  0  0  0  0  0  0
  161.3900  209.0080  152.7500 C   0  0  0  0  0  2  0  0  0  0  0  0
  162.5720  210.7460  154.6920 O   0  0  0  0  0  0  0  0  0  0  0  0
  158.1950  212.6890  153.0660 C   0  0  0  0  0  0  0  0  0  0  0  0
  160.8780  210.7710  154.6770 P   0  0  1  0  0  0  0  0  0  0  0  0
  160.2480  209.5300  153.5000 N   0  0  0  0  0  0  0  0  0  0  0  0
  160.1960  210.5500  156.0070 O   0  0  0  0  0  1  0  0  0  0  0  0
  159.9270  210.8720  153.1710 C   0  0  1  0  0  0  0  0  0  0  0  0
  158.9720  213.3480  152.1960 C   0  0  0  0  0  3  0  0  0  0  0  0
  158.4630  211.2370  153.4000 C   0  0  0  0  0  2  0  0  0  0  0  0
  160.1800  212.7390  151.6020 C   0  0  0  0  0  3  0  0  0  0  0  0
  160.6360  211.5630  152.0330 C   0  0  0  0  0  3  0  0  0  0  0  0
  157.0530  213.3630  153.6100 N   0  0  0  0  0  2  0  0  0  0  0  0
  155.0350  212.5080  157.2610 C   0  0  0  0  0  2  0  0  0  0  0  0
  156.3470  211.7520  157.0040 C   0  0  0  0  0  2  0  0  0  0  0  0
  156.2690  212.9020  154.7510 C   0  0  0  0  0  3  0  0  0  0  0  0
  157.1710  212.3200  155.8410 C   0  0  0  0  0  2  0  0  0  0  0  0
  155.3450  214.0160  155.2710 C   0  0  0  0  0  2  0  0  0  0  0  0
  155.1150  213.9540  156.7850 C   0  0  0  0  0  2  0  0  0  0  0  0
  160.4750  204.1960  151.3780 C   0  0  0  0  0  2  0  0  0  0  0  0
  161.5760  203.2560  150.9200 C   0  0  0  0  0  2  0  0  0  0  0  0
  160.7710  201.4510  149.2920 N   0  0  0  0  0  2  0  0  0  0  0  0
  161.2080  202.1010  148.0890 C   0  0  0  0  0  0  0  0  0  0  0  0
  161.9900  203.0870  148.1360 O   0  0  0  0  0  0  0  0  0  0  0  0
  161.0000  201.9090  150.6320 C   0  0  0  0  0  0  0  0  0  0  0  0
  160.6580  201.1750  151.5960 O   0  0  0  0  0  0  0  0  0  0  0  0
  160.7850  201.6350  146.8430 O   0  0  0  0  0  0  0  0  0  0  0  0
  161.1610  202.2660  145.6240 C   0  0  0  0  0  2  0  0  0  0  0  0
  160.0210  203.1160  145.0800 C   0  0  2  0  0  3  0  0  0  0  0  0
  159.3520  202.4000  144.0870 O   0  0  0  0  0  1  0  0  0  0  0  0
  160.5620  204.4110  144.4960 C   0  0  1  0  0  3  0  0  0  0  0  0
  160.5570  205.4890  145.5620 C   0  0  1  0  0  3  0  0  0  0  0  0
  161.8490  204.7880  145.2000 C   0  0  0  0  0  2  0  0  0  0  0  0
  160.5210  206.7390  144.9440 O   0  0  0  0  0  1  0  0  0  0  0  0
  1  3  2  0  0  0  0
  2  1  1  0  0  0  0
  3 27  1  0  0  0  0
  3  4  1  0  0  0  0
  4  8  1  6  0  0  0
  5  4  1  0  0  0  0
  5  9  1  1  0  0  0
  6  1  1  0  0  0  0
  6  7  1  0  0  0  0
  7  5  1  0  0  0  0
  9 13  1  0  0  0  0
 11 17  1  0  0  0  0
 11 20  1  0  0  0  0
 12 10  2  6  0  0  0
 12 14  1  0  0  0  0
 13 12  1  0  0  0  0
 15 19  1  6  0  0  0
 15 17  1  0  0  0  0
 15 13  1  0  0  0  0
 15 12  1  0  0  0  0
 16 11  2  0  0  0  0
 18 19  2  0  0  0  0
 18 16  1  0  0  0  0
 20 23  1  0  0  0  0
 22 21  1  0  0  0  0
 23 25  1  0  0  0  0
 23 24  1  0  0  0  0
 24 22  1  0  0  0  0
 25 26  1  0  0  0  0
 26 21  1  0  0  0  0
 28 27  1  0  0  0  0
 29 32  1  0  0  0  0
 30 31  2  0  0  0  0
 30 29  1  0  0  0  0
 32 28  1  0  0  0  0
 32 33  2  0  0  0  0
 34 30  1  0  0  0  0
 35 34  1  0  0  0  0
 36 37  1  6  0  0  0
 36 35  1  0  0  0  0
 38 36  1  1  0  0  0
 38 40  1  0  0  0  0
 38 39  1  0  0  0  0
 39 41  1  6  0  0  0
 40 39  1  0  0  0  0
M  END
>  <MODEL>
3

>  <REMARK>
 VINA RESULT:      -6.7      5.159      7.776
  Name = 
  11 active torsions:
  status: ('A' for Active; 'I' for Inactive)
    1  A    between atoms: N_3  and  C_4
    2  A    between atoms: N_3  and  C_22
    3  A    between atoms: C_6  and  C_14
    4  A    between atoms: C_6  and  N_15
    5  A    between atoms: C_7  and  C_30
    6  A    between atoms: C_7  and  C_31
    7  A    between atoms: C_8  and  C_13
    8  A    between atoms: C_8  and  C_20
    9  A    between atoms: C_10  and  C_31
   10  A    between atoms: O_16  and  C_20
   11  A    between atoms: O_16  and  C_27
                            x       y       z     vdW  Elec       q    Type
                         _______ _______ _______ _____ _____    ______ ____

>  <TORSDO>
F 11

$$$$
=
 OpenBabel11072413253D

 41 45  0  0  1  0  0  0  0  0999 V2000
  160.7460  203.5670  150.7960 C   0  0  0  0  0  0  0  0  0  0  0  0
  160.4730  202.5340  149.9580 F   0  0  0  0  0  0  0  0  0  0  0  0
  161.0860  204.7690  150.3020 C   0  0  0  0  0  0  0  0  0  0  0  0
  161.3380  205.9320  151.2240 C   0  0  2  0  0  3  0  0  0  0  0  0
  161.8240  205.4480  152.5980 C   0  0  2  0  0  3  0  0  0  0  0  0
  160.7060  203.3450  152.1800 O   0  0  0  0  0  0  0  0  0  0  0  0
  160.8520  204.4030  153.1290 C   0  0  0  0  0  2  0  0  0  0  0  0
  160.1760  206.6750  151.3520 F   0  0  0  0  0  0  0  0  0  0  0  0
  161.9500  206.5960  153.5860 C   0  0  0  0  0  2  0  0  0  0  0  0
  162.0560  207.7360  156.2090 O   0  0  0  0  0  1  0  0  0  0  0  0
  159.6330  210.8650  153.0600 C   0  0  0  0  0  0  0  0  0  0  0  0
  160.6810  208.1690  155.3190 P   0  0  1  0  0  0  0  0  0  0  0  0
  160.6620  207.2770  153.7290 N   0  0  0  0  0  0  0  0  0  0  0  0
  159.3500  207.9490  156.0000 O   0  0  0  0  0  0  0  0  0  0  0  0
  160.7570  208.6880  153.6140 C   0  0  1  0  0  0  0  0  0  0  0  0
  160.8420  211.4240  152.9100 C   0  0  0  0  0  3  0  0  0  0  0  0
  159.4780  209.3610  153.1250 C   0  0  0  0  0  2  0  0  0  0  0  0
  162.0840  210.6240  152.9070 C   0  0  0  0  0  3  0  0  0  0  0  0
  162.0640  209.3290  153.2180 C   0  0  0  0  0  3  0  0  0  0  0  0
  158.4820  211.7180  153.0700 N   0  0  0  0  0  2  0  0  0  0  0  0
  155.9950  212.5990  156.4130 C   0  0  0  0  0  2  0  0  0  0  0  0
  157.2170  211.7070  156.6780 C   0  0  0  0  0  2  0  0  0  0  0  0
  157.5280  211.8290  154.1690 C   0  0  0  0  0  3  0  0  0  0  0  0
  158.2260  211.6820  155.5230 C   0  0  0  0  0  2  0  0  0  0  0  0
  156.7070  213.1250  154.0580 C   0  0  0  0  0  2  0  0  0  0  0  0
  156.3120  213.7100  155.4180 C   0  0  0  0  0  2  0  0  0  0  0  0
  161.1360  204.9980  148.8270 C   0  0  0  0  0  2  0  0  0  0  0  0
  160.7960  206.4420  148.5060 C   0  0  0  0  0  2  0  0  0  0  0  0
  162.3630  208.3690  147.8850 N   0  0  0  0  0  2  0  0  0  0  0  0
  162.0420  209.2150  149.0000 C   0  0  0  0  0  0  0  0  0  0  0  0
  161.3970  208.7660  149.9840 O   0  0  0  0  0  0  0  0  0  0  0  0
  161.8760  207.0380  147.6650 C   0  0  0  0  0  0  0  0  0  0  0  0
  162.3340  206.3710  146.7010 O   0  0  0  0  0  0  0  0  0  0  0  0
  162.4590  210.5470  149.0170 O   0  0  0  0  0  0  0  0  0  0  0  0
  161.5810  211.6260  148.7180 C   0  0  0  0  0  2  0  0  0  0  0  0
  162.0760  212.4100  147.5110 C   0  0  2  0  0  3  0  0  0  0  0  0
  163.2050  213.1430  147.8770 O   0  0  0  0  0  1  0  0  0  0  0  0
  160.9940  213.3560  147.0170 C   0  0  1  0  0  3  0  0  0  0  0  0
  160.6000  212.9820  145.6020 C   0  0  1  0  0  3  0  0  0  0  0  0
  159.7170  212.5810  146.7640 C   0  0  0  0  0  2  0  0  0  0  0  0
  160.0540  214.0990  144.9710 O   0  0  0  0  0  1  0  0  0  0  0  0
  1  6  1  0  0  0  0
  2  1  1  0  0  0  0
  3  1  2  0  0  0  0
  3  4  1  0  0  0  0
  4  8  1  1  0  0  0
  4  5  1  0  0  0  0
  5  7  1  0  0  0  0
  5  9  1  1  0  0  0
  6  7  1  0  0  0  0
  9 13  1  0  0  0  0
 11 20  1  0  0  0  0
 11 17  1  0  0  0  0
 12 14  2  1  0  0  0
 12 10  1  0  0  0  0
 13 12  1  0  0  0  0
 15 17  1  6  0  0  0
 15 13  1  0  0  0  0
 15 12  1  0  0  0  0
 16 11  2  0  0  0  0
 18 16  1  0  0  0  0
 18 19  2  0  0  0  0
 19 15  1  0  0  0  0
 20 23  1  0  0  0  0
 21 22  1  0  0  0  0
 23 24  1  0  0  0  0
 24 22  1  0  0  0  0
 25 23  1  0  0  0  0
 25 26  1  0  0  0  0
 26 21  1  0  0  0  0
 27  3  1  0  0  0  0
 28 27  1  0  0  0  0
 29 30  1  0  0  0  0
 30 34  1  0  0  0  0
 30 31  2  0  0  0  0
 32 29  1  0  0  0  0
 32 28  1  0  0  0  0
 33 32  2  0  0  0  0
 35 34  1  0  0  0  0
 36 37  1  1  0  0  0
 36 35  1  0  0  0  0
 38 36  1  1  0  0  0
 39 41  1  6  0  0  0
 39 40  1  0  0  0  0
 39 38  1  0  0  0  0
 40 38  1  0  0  0  0
M  END
>  <MODEL>
4

>  <REMARK>
 VINA RESULT:      -6.5      3.755      9.086
  Name = 
  11 active torsions:
  status: ('A' for Active; 'I' for Inactive)
    1  A    between atoms: N_3  and  C_4
    2  A    between atoms: N_3  and  C_22
    3  A    between atoms: C_6  and  C_14
    4  A    between atoms: C_6  and  N_15
    5  A    between atoms: C_7  and  C_30
    6  A    between atoms: C_7  and  C_31
    7  A    between atoms: C_8  and  C_13
    8  A    between atoms: C_8  and  C_20
    9  A    between atoms: C_10  and  C_31
   10  A    between atoms: O_16  and  C_20
   11  A    between atoms: O_16  and  C_27
                            x       y       z     vdW  Elec       q    Type
                         _______ _______ _______ _____ _____    ______ ____

>  <TORSDO>
F 11

$$$$
=
 OpenBabel11072413253D

 41 45  0  0  1  0  0  0  0  0999 V2000
  161.7640  207.4270  150.7180 C   0  0  0  0  0  0  0  0  0  0  0  0
  161.6070  206.2080  151.2940 F   0  0  0  0  0  0  0  0  0  0  0  0
  161.5890  208.5460  151.4390 C   0  0  0  0  0  0  0  0  0  0  0  0
  161.8120  209.9000  150.8200 C   0  0  2  0  0  3  0  0  0  0  0  0
  161.5620  209.8590  149.3060 C   0  0  2  0  0  3  0  0  0  0  0  0
  162.0710  207.4960  149.3510 O   0  0  0  0  0  0  0  0  0  0  0  0
  162.3800  208.7270  148.6970 C   0  0  0  0  0  2  0  0  0  0  0  0
  163.1050  210.3180  151.0890 F   0  0  0  0  0  0  0  0  0  0  0  0
  161.9180  211.1790  148.6410 C   0  0  0  0  0  2  0  0  0  0  0  0
  161.2170  213.7780  149.6130 O   0  0  0  0  0  1  0  0  0  0  0  0
  160.8450  213.6560  144.5700 C   0  0  0  0  0  0  0  0  0  0  0  0
  160.4030  213.3220  148.1990 P   0  0  1  0  0  0  0  0  0  0  0  0
  160.8310  211.6050  147.7600 N   0  0  0  0  0  0  0  0  0  0  0  0
  158.8970  213.4410  148.2290 O   0  0  0  0  0  0  0  0  0  0  0  0
  161.2300  212.5760  146.8060 C   0  0  1  0  0  0  0  0  0  0  0  0
  162.1000  214.1250  144.6070 C   0  0  0  0  0  3  0  0  0  0  0  0
  160.3930  212.5760  145.5290 C   0  0  0  0  0  2  0  0  0  0  0  0
  163.0700  213.6990  145.6370 C   0  0  0  0  0  3  0  0  0  0  0  0
  162.6850  212.9530  146.6720 C   0  0  0  0  0  3  0  0  0  0  0  0
  159.9650  214.1390  143.5480 N   0  0  0  0  0  2  0  0  0  0  0  0
  159.2800  211.9090  139.9850 C   0  0  0  0  0  2  0  0  0  0  0  0
  159.0520  213.4260  139.9050 C   0  0  0  0  0  2  0  0  0  0  0  0
  159.5190  213.3680  142.3910 C   0  0  0  0  0  3  0  0  0  0  0  0
  159.6040  214.1990  141.1090 C   0  0  0  0  0  2  0  0  0  0  0  0
  160.2790  212.0350  142.2910 C   0  0  0  0  0  2  0  0  0  0  0  0
  160.4900  211.5650  140.8470 C   0  0  0  0  0  2  0  0  0  0  0  0
  161.2520  208.4680  152.8930 C   0  0  0  0  0  2  0  0  0  0  0  0
  161.2030  209.8590  153.4970 C   0  0  0  0  0  2  0  0  0  0  0  0
  159.7840  211.0170  155.2860 N   0  0  0  0  0  2  0  0  0  0  0  0
  159.6950  212.2920  154.6340 C   0  0  0  0  0  0  0  0  0  0  0  0
  160.0350  212.4250  153.4290 O   0  0  0  0  0  0  0  0  0  0  0  0
  160.3970  209.8350  154.7540 C   0  0  0  0  0  0  0  0  0  0  0  0
  160.2980  208.7540  155.3910 O   0  0  0  0  0  0  0  0  0  0  0  0
  159.2110  213.4050  155.3240 O   0  0  0  0  0  0  0  0  0  0  0  0
  157.8200  213.6450  155.5050 C   0  0  0  0  0  2  0  0  0  0  0  0
  157.0060  212.9710  154.4100 C   0  0  2  0  0  3  0  0  0  0  0  0
  156.5080  213.9460  153.5460 O   0  0  0  0  0  1  0  0  0  0  0  0
  155.8510  212.1900  155.0160 C   0  0  1  0  0  3  0  0  0  0  0  0
  156.2040  210.7160  155.0640 C   0  0  1  0  0  3  0  0  0  0  0  0
  156.2930  211.5580  156.3190 C   0  0  0  0  0  2  0  0  0  0  0  0
  155.0280  209.9680  155.0920 O   0  0  0  0  0  1  0  0  0  0  0  0
  1  2  1  0  0  0  0
  1  3  2  0  0  0  0
  3 27  1  0  0  0  0
  4  8  1  6  0  0  0
  4  3  1  0  0  0  0
  5  9  1  6  0  0  0
  5  4  1  0  0  0  0
  6  1  1  0  0  0  0
  7  5  1  0  0  0  0
  7  6  1  0  0  0  0
 11 16  2  0  0  0  0
 11 17  1  0  0  0  0
 12 14  2  6  0  0  0
 12 10  1  0  0  0  0
 13 12  1  0  0  0  0
 13  9  1  0  0  0  0
 15 17  1  6  0  0  0
 15 13  1  0  0  0  0
 15 12  1  0  0  0  0
 16 18  1  0  0  0  0
 18 19  2  0  0  0  0
 19 15  1  0  0  0  0
 20 11  1  0  0  0  0
 21 26  1  0  0  0  0
 22 21  1  0  0  0  0
 22 24  1  0  0  0  0
 23 20  1  0  0  0  0
 24 23  1  0  0  0  0
 25 23  1  0  0  0  0
 26 25  1  0  0  0  0
 27 28  1  0  0  0  0
 28 32  1  0  0  0  0
 30 29  1  0  0  0  0
 30 34  1  0  0  0  0
 31 30  2  0  0  0  0
 32 29  1  0  0  0  0
 32 33  2  0  0  0  0
 34 35  1  0  0  0  0
 36 37  1  6  0  0  0
 36 35  1  0  0  0  0
 38 36  1  6  0  0  0
 38 39  1  0  0  0  0
 38 40  1  0  0  0  0
 39 41  1  1  0  0  0
 39 40  1  0  0  0  0
M  END
>  <MODEL>
5

>  <REMARK>
 VINA RESULT:      -6.1      3.267      6.822
  Name = 
  11 active torsions:
  status: ('A' for Active; 'I' for Inactive)
    1  A    between atoms: N_3  and  C_4
    2  A    between atoms: N_3  and  C_22
    3  A    between atoms: C_6  and  C_14
    4  A    between atoms: C_6  and  N_15
    5  A    between atoms: C_7  and  C_30
    6  A    between atoms: C_7  and  C_31
    7  A    between atoms: C_8  and  C_13
    8  A    between atoms: C_8  and  C_20
    9  A    between atoms: C_10  and  C_31
   10  A    between atoms: O_16  and  C_20
   11  A    between atoms: O_16  and  C_27
                            x       y       z     vdW  Elec       q    Type
                         _______ _______ _______ _____ _____    ______ ____

>  <TORSDO>
F 11

$$$$
=
 OpenBabel11072413253D

 41 45  0  0  1  0  0  0  0  0999 V2000
  162.0180  207.2920  149.0750 C   0  0  0  0  0  0  0  0  0  0  0  0
  162.0210  205.9350  149.1280 F   0  0  0  0  0  0  0  0  0  0  0  0
  161.4410  208.0090  150.0530 C   0  0  0  0  0  0  0  0  0  0  0  0
  161.4810  209.5130  150.0250 C   0  0  2  0  0  3  0  0  0  0  0  0
  161.5820  210.0340  148.5840 C   0  0  2  0  0  3  0  0  0  0  0  0
  162.5910  207.9270  147.9630 O   0  0  0  0  0  0  0  0  0  0  0  0
  162.7470  209.3440  147.8870 C   0  0  0  0  0  2  0  0  0  0  0  0
  162.5550  209.9560  150.7790 F   0  0  0  0  0  0  0  0  0  0  0  0
  161.7650  211.5420  148.5430 C   0  0  0  0  0  2  0  0  0  0  0  0
  161.8340  214.3090  149.2710 O   0  0  0  0  0  1  0  0  0  0  0  0
  160.8590  213.8430  144.3300 C   0  0  0  0  0  0  0  0  0  0  0  0
  160.7750  213.9520  147.9980 P   0  0  1  0  0  0  0  0  0  0  0  0
  160.7190  212.1510  147.7210 N   0  0  0  0  0  0  0  0  0  0  0  0
  159.3570  214.4510  148.1510 O   0  0  0  0  0  0  0  0  0  0  0  0
  161.2280  212.9010  146.6300 C   0  0  1  0  0  0  0  0  0  0  0  0
  162.1860  213.9800  144.1990 C   0  0  0  0  0  3  0  0  0  0  0  0
  160.2730  213.0010  145.4430 C   0  0  0  0  0  2  0  0  0  0  0  0
  163.1360  213.4140  145.1780 C   0  0  0  0  0  3  0  0  0  0  0  0
  162.7050  212.8830  146.3220 C   0  0  0  0  0  3  0  0  0  0  0  0
  160.0090  214.4410  143.3430 N   0  0  0  0  0  2  0  0  0  0  0  0
  159.7160  212.4710  139.5800 C   0  0  0  0  0  2  0  0  0  0  0  0
  160.3340  213.8770  139.5770 C   0  0  0  0  0  2  0  0  0  0  0  0
  159.7170  213.8740  142.0310 C   0  0  0  0  0  3  0  0  0  0  0  0
  160.6910  214.3990  140.9740 C   0  0  0  0  0  2  0  0  0  0  0  0
  159.6730  212.3380  142.0920 C   0  0  0  0  0  2  0  0  0  0  0  0
  160.1510  211.6660  140.8000 C   0  0  0  0  0  2  0  0  0  0  0  0
  160.8230  207.3280  151.2300 C   0  0  0  0  0  2  0  0  0  0  0  0
  161.8750  207.0480  152.2880 C   0  0  0  0  0  2  0  0  0  0  0  0
  160.9300  204.8630  153.2300 N   0  0  0  0  0  2  0  0  0  0  0  0
  161.2610  204.0350  152.1050 C   0  0  0  0  0  0  0  0  0  0  0  0
  162.0440  204.4480  151.2100 O   0  0  0  0  0  0  0  0  0  0  0  0
  161.2750  206.2450  153.3950 C   0  0  0  0  0  0  0  0  0  0  0  0
  161.0190  206.8140  154.4880 O   0  0  0  0  0  0  0  0  0  0  0  0
  160.7300  202.7480  151.9960 O   0  0  0  0  0  0  0  0  0  0  0  0
  161.1580  201.8280  150.9990 C   0  0  0  0  0  2  0  0  0  0  0  0
  160.3370  201.9870  149.7270 C   0  0  2  0  0  3  0  0  0  0  0  0
  159.2580  201.1040  149.7670 O   0  0  0  0  0  1  0  0  0  0  0  0
  161.1930  201.6880  148.5070 C   0  0  1  0  0  3  0  0  0  0  0  0
  160.4650  202.1340  147.2540 C   0  0  1  0  0  3  0  0  0  0  0  0
  161.5790  202.9840  147.8250 C   0  0  0  0  0  2  0  0  0  0  0  0
  160.9480  201.4100  146.1650 O   0  0  0  0  0  1  0  0  0  0  0  0
  1  2  1  0  0  0  0
  1  3  2  0  0  0  0
  3 27  1  0  0  0  0
  4  3  1  0  0  0  0
  4  8  1  1  0  0  0
  5  9  1  1  0  0  0
  5  4  1  0  0  0  0
  6  1  1  0  0  0  0
  7  6  1  0  0  0  0
  7  5  1  0  0  0  0
 11 17  1  0  0  0  0
 12 14  2  6  0  0  0
 12 10  1  0  0  0  0
 13 12  1  0  0  0  0
 13  9  1  0  0  0  0
 15 17  1  6  0  0  0
 15 13  1  0  0  0  0
 15 12  1  0  0  0  0
 16 11  2  0  0  0  0
 16 18  1  0  0  0  0
 18 19  2  0  0  0  0
 19 15  1  0  0  0  0
 20 11  1  0  0  0  0
 21 26  1  0  0  0  0
 22 21  1  0  0  0  0
 22 24  1  0  0  0  0
 23 25  1  0  0  0  0
 23 20  1  0  0  0  0
 24 23  1  0  0  0  0
 26 25  1  0  0  0  0
 27 28  1  0  0  0  0
 28 32  1  0  0  0  0
 29 32  1  0  0  0  0
 30 29  1  0  0  0  0
 31 30  2  0  0  0  0
 32 33  2  0  0  0  0
 34 30  1  0  0  0  0
 35 34  1  0  0  0  0
 36 37  1  1  0  0  0
 36 35  1  0  0  0  0
 38 36  1  1  0  0  0
 39 41  1  6  0  0  0
 39 40  1  0  0  0  0
 39 38  1  0  0  0  0
 40 38  1  0  0  0  0
M  END
>  <MODEL>
6

>  <REMARK>
 VINA RESULT:      -5.7      1.886      2.537
  Name = 
  11 active torsions:
  status: ('A' for Active; 'I' for Inactive)
    1  A    between atoms: N_3  and  C_4
    2  A    between atoms: N_3  and  C_22
    3  A    between atoms: C_6  and  C_14
    4  A    between atoms: C_6  and  N_15
    5  A    between atoms: C_7  and  C_30
    6  A    between atoms: C_7  and  C_31
    7  A    between atoms: C_8  and  C_13
    8  A    between atoms: C_8  and  C_20
    9  A    between atoms: C_10  and  C_31
   10  A    between atoms: O_16  and  C_20
   11  A    between atoms: O_16  and  C_27
                            x       y       z     vdW  Elec       q    Type
                         _______ _______ _______ _____ _____    ______ ____

>  <TORSDO>
F 11

$$$$
=
 OpenBabel11072413253D

 41 45  0  0  1  0  0  0  0  0999 V2000
  160.8620  205.3730  152.4920 C   0  0  0  0  0  0  0  0  0  0  0  0
  160.6520  204.1790  151.8810 F   0  0  0  0  0  0  0  0  0  0  0  0
  161.2910  206.4310  151.7850 C   0  0  0  0  0  0  0  0  0  0  0  0
  161.4750  207.7710  152.4470 C   0  0  2  0  0  3  0  0  0  0  0  0
  161.7890  207.6070  153.9400 C   0  0  2  0  0  3  0  0  0  0  0  0
  160.6610  205.4700  153.8770 O   0  0  0  0  0  0  0  0  0  0  0  0
  160.7320  206.7130  154.5760 C   0  0  0  0  0  2  0  0  0  0  0  0
  160.3300  208.5290  152.2690 F   0  0  0  0  0  0  0  0  0  0  0  0
  161.8390  208.9480  154.6540 C   0  0  0  0  0  2  0  0  0  0  0  0
  162.2560  211.0950  156.5010 O   0  0  0  0  0  0  0  0  0  0  0  0
  158.2480  212.0800  153.5770 C   0  0  0  0  0  0  0  0  0  0  0  0
  160.6340  210.8470  156.0790 P   0  0  1  0  0  0  0  0  0  0  0  0
  160.4860  209.3760  155.0120 N   0  0  0  0  0  0  0  0  0  0  0  0
  159.6620  210.6980  157.2260 O   0  0  0  0  0  1  0  0  0  0  0  0
  160.1010  210.5940  154.3950 C   0  0  1  0  0  0  0  0  0  0  0  0
  159.1390  212.7340  152.8180 C   0  0  0  0  0  3  0  0  0  0  0  0
  158.5950  210.7470  154.2040 C   0  0  0  0  0  2  0  0  0  0  0  0
  160.5240  212.2520  152.6400 C   0  0  0  0  0  3  0  0  0  0  0  0
  160.9920  211.2330  153.3590 C   0  0  0  0  0  3  0  0  0  0  0  0
  156.9310  212.6290  153.7110 N   0  0  0  0  0  2  0  0  0  0  0  0
  154.9050  214.0000  157.1960 C   0  0  0  0  0  2  0  0  0  0  0  0
  156.4400  213.9890  157.2500 C   0  0  0  0  0  2  0  0  0  0  0  0
  156.2550  212.8900  154.9780 C   0  0  0  0  0  3  0  0  0  0  0  0
  157.1050  213.7850  155.8830 C   0  0  0  0  0  2  0  0  0  0  0  0
  154.8420  213.4500  154.7420 C   0  0  0  0  0  2  0  0  0  0  0  0
  154.3910  214.4330  155.8280 C   0  0  0  0  0  2  0  0  0  0  0  0
  161.5130  206.3200  150.3120 C   0  0  0  0  0  2  0  0  0  0  0  0
  160.8940  207.5070  149.5960 C   0  0  0  0  0  2  0  0  0  0  0  0
  162.0560  207.3230  147.3230 N   0  0  0  0  0  2  0  0  0  0  0  0
  161.3080  206.1970  146.8400 C   0  0  0  0  0  0  0  0  0  0  0  0
  160.2610  205.8190  147.4280 O   0  0  0  0  0  0  0  0  0  0  0  0
  161.8370  208.0180  148.5580 C   0  0  0  0  0  0  0  0  0  0  0  0
  162.4970  209.0620  148.7980 O   0  0  0  0  0  0  0  0  0  0  0  0
  161.7220  205.5140  145.6950 O   0  0  0  0  0  0  0  0  0  0  0  0
  162.4170  204.2740  145.7550 C   0  0  0  0  0  2  0  0  0  0  0  0
  161.4410  203.1060  145.7920 C   0  0  2  0  0  3  0  0  0  0  0  0
  160.4800  203.2850  144.7960 O   0  0  0  0  0  1  0  0  0  0  0  0
  160.7590  203.0310  147.1480 C   0  0  1  0  0  3  0  0  0  0  0  0
  160.7610  201.5970  147.6390 C   0  0  1  0  0  3  0  0  0  0  0  0
  161.7590  202.5890  148.1960 C   0  0  0  0  0  2  0  0  0  0  0  0
  159.7200  201.4260  148.5510 O   0  0  0  0  0  1  0  0  0  0  0  0
  1  6  1  0  0  0  0
  2  1  1  0  0  0  0
  3  4  1  0  0  0  0
  3  1  2  0  0  0  0
  4  8  1  1  0  0  0
  4  5  1  0  0  0  0
  5  7  1  0  0  0  0
  5  9  1  1  0  0  0
  6  7  1  0  0  0  0
  9 13  1  0  0  0  0
 11 20  1  0  0  0  0
 11 17  1  0  0  0  0
 12 10  2  1  0  0  0
 12 14  1  0  0  0  0
 13 12  1  0  0  0  0
 15 19  1  6  0  0  0
 15 13  1  0  0  0  0
 15 12  1  0  0  0  0
 16 11  2  0  0  0  0
 17 15  1  0  0  0  0
 18 16  1  0  0  0  0
 18 19  2  0  0  0  0
 20 23  1  0  0  0  0
 21 22  1  0  0  0  0
 23 24  1  0  0  0  0
 24 22  1  0  0  0  0
 25 23  1  0  0  0  0
 25 26  1  0  0  0  0
 26 21  1  0  0  0  0
 27  3  1  0  0  0  0
 28 27  1  0  0  0  0
 29 32  1  0  0  0  0
 30 29  1  0  0  0  0
 30 31  2  0  0  0  0
 32 33  2  0  0  0  0
 32 28  1  0  0  0  0
 34 35  1  0  0  0  0
 34 30  1  0  0  0  0
 35 36  1  0  0  0  0
 36 37  1  6  0  0  0
 38 36  1  6  0  0  0
 38 39  1  0  0  0  0
 38 40  1  0  0  0  0
 39 40  1  0  0  0  0
 39 41  1  1  0  0  0
M  END
>  <MODEL>
7

>  <REMARK>
 VINA RESULT:      -5.7      4.992      8.236
  Name = 
  11 active torsions:
  status: ('A' for Active; 'I' for Inactive)
    1  A    between atoms: N_3  and  C_4
    2  A    between atoms: N_3  and  C_22
    3  A    between atoms: C_6  and  C_14
    4  A    between atoms: C_6  and  N_15
    5  A    between atoms: C_7  and  C_30
    6  A    between atoms: C_7  and  C_31
    7  A    between atoms: C_8  and  C_13
    8  A    between atoms: C_8  and  C_20
    9  A    between atoms: C_10  and  C_31
   10  A    between atoms: O_16  and  C_20
   11  A    between atoms: O_16  and  C_27
                            x       y       z     vdW  Elec       q    Type
                         _______ _______ _______ _____ _____    ______ ____

>  <TORSDO>
F 11

$$$$
=
 OpenBabel11072413253D

 41 45  0  0  1  0  0  0  0  0999 V2000
  161.2430  207.6720  149.3560 C   0  0  0  0  0  0  0  0  0  0  0  0
  161.0820  207.3080  148.0580 F   0  0  0  0  0  0  0  0  0  0  0  0
  161.8280  208.8400  149.6660 C   0  0  0  0  0  0  0  0  0  0  0  0
  161.9620  209.2720  151.1020 C   0  0  2  0  0  3  0  0  0  0  0  0
  162.0240  208.0570  152.0370 C   0  0  2  0  0  3  0  0  0  0  0  0
  160.8270  206.7890  150.3630 O   0  0  0  0  0  0  0  0  0  0  0  0
  160.8400  207.1440  151.7460 C   0  0  0  0  0  2  0  0  0  0  0  0
  160.8950  210.0900  151.4350 F   0  0  0  0  0  0  0  0  0  0  0  0
  162.0180  208.4730  153.4990 C   0  0  0  0  0  2  0  0  0  0  0  0
  161.9190  207.1910  156.0570 O   0  0  0  0  0  1  0  0  0  0  0  0
  159.1190  211.4030  156.1210 C   0  0  0  0  0  0  0  0  0  0  0  0
  160.5100  208.0390  155.6490 P   0  0  1  0  0  0  0  0  0  0  0  0
  160.6450  208.6910  153.9520 N   0  0  0  0  0  0  0  0  0  0  0  0
  159.2150  207.2690  155.7590 O   0  0  0  0  0  0  0  0  0  0  0  0
  160.5370  209.6840  154.9600 C   0  0  1  0  0  0  0  0  0  0  0  0
  160.2360  211.9700  156.5950 C   0  0  0  0  0  3  0  0  0  0  0  0
  159.1810  210.3840  155.0030 C   0  0  0  0  0  2  0  0  0  0  0  0
  161.5810  211.5640  156.1360 C   0  0  0  0  0  3  0  0  0  0  0  0
  161.7440  210.5010  155.3500 C   0  0  0  0  0  3  0  0  0  0  0  0
  157.8570  211.8430  156.6360 N   0  0  0  0  0  2  0  0  0  0  0  0
  154.8360  214.4170  155.0920 C   0  0  0  0  0  2  0  0  0  0  0  0
  155.2200  213.2070  154.2270 C   0  0  0  0  0  2  0  0  0  0  0  0
  156.9860  212.8270  155.9990 C   0  0  0  0  0  3  0  0  0  0  0  0
  156.0730  212.1670  154.9640 C   0  0  0  0  0  2  0  0  0  0  0  0
  156.2090  213.6380  157.0500 C   0  0  0  0  0  2  0  0  0  0  0  0
  154.8170  214.0670  156.5760 C   0  0  0  0  0  2  0  0  0  0  0  0
  162.2780  209.7740  148.5890 C   0  0  0  0  0  2  0  0  0  0  0  0
  161.9170  211.2040  148.9480 C   0  0  0  0  0  2  0  0  0  0  0  0
  162.1860  212.8420  146.9990 N   0  0  0  0  0  2  0  0  0  0  0  0
  160.8030  212.8780  146.6150 C   0  0  0  0  0  0  0  0  0  0  0  0
  159.9130  212.4020  147.3680 O   0  0  0  0  0  0  0  0  0  0  0  0
  162.7330  212.1490  148.1300 C   0  0  0  0  0  0  0  0  0  0  0  0
  163.9500  212.3020  148.4100 O   0  0  0  0  0  0  0  0  0  0  0  0
  160.4220  213.4600  145.4050 O   0  0  0  0  0  0  0  0  0  0  0  0
  161.3320  213.6420  144.3260 C   0  0  0  0  0  2  0  0  0  0  0  0
  160.8960  212.8420  143.1070 C   0  0  2  0  0  3  0  0  0  0  0  0
  160.0680  211.7980  143.5200 O   0  0  0  0  0  1  0  0  0  0  0  0
  162.1090  212.2740  142.3870 C   0  0  1  0  0  3  0  0  0  0  0  0
  161.8260  212.1980  140.8990 C   0  0  1  0  0  3  0  0  0  0  0  0
  162.6800  213.3190  141.4510 C   0  0  0  0  0  2  0  0  0  0  0  0
  162.6500  211.2280  140.3290 O   0  0  0  0  0  1  0  0  0  0  0  0
  1  3  2  0  0  0  0
  1  6  1  0  0  0  0
  2  1  1  0  0  0  0
  3  4  1  0  0  0  0
  4  8  1  1  0  0  0
  4  5  1  0  0  0  0
  5  9  1  1  0  0  0
  6  7  1  0  0  0  0
  7  5  1  0  0  0  0
  9 13  1  0  0  0  0
 11 16  2  0  0  0  0
 11 20  1  0  0  0  0
 12 14  2  1  0  0  0
 12 10  1  0  0  0  0
 13 15  1  0  0  0  0
 13 12  1  0  0  0  0
 15 17  1  1  0  0  0
 15 19  1  0  0  0  0
 15 12  1  0  0  0  0
 17 11  1  0  0  0  0
 18 16  1  0  0  0  0
 19 18  2  0  0  0  0
 21 26  1  0  0  0  0
 22 24  1  0  0  0  0
 22 21  1  0  0  0  0
 23 20  1  0  0  0  0
 23 25  1  0  0  0  0
 24 23  1  0  0  0  0
 26 25  1  0  0  0  0
 27 28  1  0  0  0  0
 27  3  1  0  0  0  0
 29 32  1  0  0  0  0
 30 29  1  0  0  0  0
 30 31  2  0  0  0  0
 32 33  2  0  0  0  0
 32 28  1  0  0  0  0
 34 30  1  0  0  0  0
 35 34  1  0  0  0  0
 36 37  1  1  0  0  0
 36 35  1  0  0  0  0
 38 36  1  1  0  0  0
 39 41  1  6  0  0  0
 39 40  1  0  0  0  0
 39 38  1  0  0  0  0
 40 38  1  0  0  0  0
M  END
>  <MODEL>
8

>  <REMARK>
 VINA RESULT:      -5.7      4.525      9.839
  Name = 
  11 active torsions:
  status: ('A' for Active; 'I' for Inactive)
    1  A    between atoms: N_3  and  C_4
    2  A    between atoms: N_3  and  C_22
    3  A    between atoms: C_6  and  C_14
    4  A    between atoms: C_6  and  N_15
    5  A    between atoms: C_7  and  C_30
    6  A    between atoms: C_7  and  C_31
    7  A    between atoms: C_8  and  C_13
    8  A    between atoms: C_8  and  C_20
    9  A    between atoms: C_10  and  C_31
   10  A    between atoms: O_16  and  C_20
   11  A    between atoms: O_16  and  C_27
                            x       y       z     vdW  Elec       q    Type
                         _______ _______ _______ _____ _____    ______ ____

>  <TORSDO>
F 11

$$$$
=
 OpenBabel11072413253D

 41 45  0  0  1  0  0  0  0  0999 V2000
  160.3530  207.8210  154.9400 C   0  0  0  0  0  0  0  0  0  0  0  0
  160.5970  206.5060  155.1780 F   0  0  0  0  0  0  0  0  0  0  0  0
  160.9370  208.4420  153.9020 C   0  0  0  0  0  0  0  0  0  0  0  0
  160.6300  209.8850  153.6020 C   0  0  2  0  0  3  0  0  0  0  0  0
  160.2210  210.6360  154.8770 C   0  0  2  0  0  3  0  0  0  0  0  0
  159.5150  208.5240  155.8180 O   0  0  0  0  0  0  0  0  0  0  0  0
  159.1030  209.8690  155.5700 C   0  0  0  0  0  2  0  0  0  0  0  0
  159.6220  209.9490  152.6540 F   0  0  0  0  0  0  0  0  0  0  0  0
  159.7720  212.0560  154.5730 C   0  0  0  0  0  2  0  0  0  0  0  0
  158.3280  214.4230  155.2820 O   0  0  0  0  0  1  0  0  0  0  0  0
  157.9790  213.6100  150.3030 C   0  0  0  0  0  0  0  0  0  0  0  0
  157.6800  213.5840  153.9610 P   0  0  1  0  0  0  0  0  0  0  0  0
  158.6010  212.0330  153.6950 N   0  0  0  0  0  0  0  0  0  0  0  0
  156.2080  213.2520  154.0390 O   0  0  0  0  0  0  0  0  0  0  0  0
  158.6840  212.9610  152.6250 C   0  0  1  0  0  0  0  0  0  0  0  0
  159.0350  214.4320  150.2360 C   0  0  0  0  0  3  0  0  0  0  0  0
  157.8780  212.5630  151.3920 C   0  0  0  0  0  2  0  0  0  0  0  0
  160.0940  214.4370  151.2670 C   0  0  0  0  0  3  0  0  0  0  0  0
  159.9580  213.7360  152.3910 C   0  0  0  0  0  3  0  0  0  0  0  0
  156.9880  213.6850  149.2700 N   0  0  0  0  0  2  0  0  0  0  0  0
  157.3260  214.3050  145.0710 C   0  0  0  0  0  2  0  0  0  0  0  0
  158.3740  213.3890  145.7210 C   0  0  0  0  0  2  0  0  0  0  0  0
  157.2450  214.0600  147.8840 C   0  0  0  0  0  3  0  0  0  0  0  0
  158.0220  212.9630  147.1510 C   0  0  0  0  0  2  0  0  0  0  0  0
  155.9410  214.4490  147.1660 C   0  0  0  0  0  2  0  0  0  0  0  0
  155.9420  214.0960  145.6750 C   0  0  0  0  0  2  0  0  0  0  0  0
  161.8370  207.6910  152.9760 C   0  0  0  0  0  2  0  0  0  0  0  0
  161.1230  207.4050  151.6670 C   0  0  0  0  0  2  0  0  0  0  0  0
  161.7030  207.7610  149.1990 N   0  0  0  0  0  2  0  0  0  0  0  0
  160.9220  206.6730  148.6820 C   0  0  0  0  0  0  0  0  0  0  0  0
  160.0730  206.0890  149.4060 O   0  0  0  0  0  0  0  0  0  0  0  0
  161.7550  208.1910  150.5660 C   0  0  0  0  0  0  0  0  0  0  0  0
  162.3950  209.2350  150.8550 O   0  0  0  0  0  0  0  0  0  0  0  0
  161.0800  206.2580  147.3580 O   0  0  0  0  0  0  0  0  0  0  0  0
  162.3270  205.8030  146.8450 C   0  0  0  0  0  2  0  0  0  0  0  0
  162.1740  205.2990  145.4170 C   0  0  2  0  0  3  0  0  0  0  0  0
  161.0580  205.9040  144.8370 O   0  0  0  0  0  1  0  0  0  0  0  0
  161.9950  203.7890  145.4080 C   0  0  1  0  0  3  0  0  0  0  0  0
  160.7730  203.4180  146.2260 C   0  0  1  0  0  3  0  0  0  0  0  0
  160.6950  203.4350  144.7150 C   0  0  0  0  0  2  0  0  0  0  0  0
  160.9040  202.1020  146.6680 O   0  0  0  0  0  1  0  0  0  0  0  0
  1  2  1  0  0  0  0
  1  6  1  0  0  0  0
  3  1  2  0  0  0  0
  4  8  1  6  0  0  0
  4  3  1  0  0  0  0
  4  5  1  0  0  0  0
  5  9  1  6  0  0  0
  5  7  1  0  0  0  0
  7  6  1  0  0  0  0
 11 17  1  0  0  0  0
 12 14  2  6  0  0  0
 12 10  1  0  0  0  0
 13 12  1  0  0  0  0
 13  9  1  0  0  0  0
 15 17  1  6  0  0  0
 15 13  1  0  0  0  0
 15 12  1  0  0  0  0
 16 11  2  0  0  0  0
 16 18  1  0  0  0  0
 18 19  2  0  0  0  0
 19 15  1  0  0  0  0
 20 11  1  0  0  0  0
 21 26  1  0  0  0  0
 21 22  1  0  0  0  0
 22 24  1  0  0  0  0
 23 20  1  0  0  0  0
 24 23  1  0  0  0  0
 25 23  1  0  0  0  0
 26 25  1  0  0  0  0
 27  3  1  0  0  0  0
 28 27  1  0  0  0  0
 29 32  1  0  0  0  0
 30 29  1  0  0  0  0
 30 31  2  0  0  0  0
 32 33  2  0  0  0  0
 32 28  1  0  0  0  0
 34 30  1  0  0  0  0
 35 34  1  0  0  0  0
 36 37  1  1  0  0  0
 36 35  1  0  0  0  0
 38 36  1  1  0  0  0
 38 39  1  0  0  0  0
 39 41  1  6  0  0  0
 40 38  1  0  0  0  0
 40 39  1  0  0  0  0
M  END
>  <MODEL>
9

>  <REMARK>
 VINA RESULT:      -5.6      3.647      5.138
  Name = 
  11 active torsions:
  status: ('A' for Active; 'I' for Inactive)
    1  A    between atoms: N_3  and  C_4
    2  A    between atoms: N_3  and  C_22
    3  A    between atoms: C_6  and  C_14
    4  A    between atoms: C_6  and  N_15
    5  A    between atoms: C_7  and  C_30
    6  A    between atoms: C_7  and  C_31
    7  A    between atoms: C_8  and  C_13
    8  A    between atoms: C_8  and  C_20
    9  A    between atoms: C_10  and  C_31
   10  A    between atoms: O_16  and  C_20
   11  A    between atoms: O_16  and  C_27
                            x       y       z     vdW  Elec       q    Type
                         _______ _______ _______ _____ _____    ______ ____

>  <TORSDO>
F 11

$$$$
