=
 OpenBabel11072415243D

 25 27  0  0  1  0  0  0  0  0999 V2000
  161.4900  208.3180  152.9300 C   0  0  0  0  0  0  0  0  0  0  0  0
  160.9500  204.9550  152.2180 C   0  0  0  0  0  0  0  0  0  0  0  0
  160.8940  206.4990  150.3700 C   0  0  0  0  0  0  0  0  0  0  0  0
  161.1300  206.2120  151.7150 C   0  0  0  0  0  0  0  0  0  0  0  0
  161.5250  206.0940  153.9910 C   0  0  0  0  0  3  0  0  0  0  0  0
  160.5280  203.9260  151.4400 N   0  0  0  0  0  0  0  0  0  0  0  0
  161.1920  204.8920  153.6180 N   0  0  0  0  0  0  0  0  0  0  0  0
  162.6860  210.3950  153.1700 C   0  0  0  0  0  1  0  0  0  0  0  0
  161.5510  207.0190  152.8460 C   0  0  0  0  0  0  0  0  0  0  0  0
  160.4600  205.4320  149.5580 C   0  0  0  0  0  3  0  0  0  0  0  0
  161.4230  209.6200  153.0060 C   0  0  0  0  0  0  0  0  0  0  0  0
  160.2840  204.1480  150.1140 C   0  0  0  0  0  3  0  0  0  0  0  0
  158.8760  212.2490  152.1900 O   0  0  0  0  0  0  0  0  0  0  0  0
  157.0250  212.8150  153.4390 O   0  0  0  0  0  0  0  0  0  0  0  0
  160.0840  210.2970  152.9980 C   0  0  1  0  0  3  0  0  0  0  0  0
  158.3200  210.9690  154.2590 C   0  0  0  0  0  2  0  0  0  0  0  0
  159.7000  210.6850  154.2980 O   0  0  0  0  0  0  0  0  0  0  0  0
  158.0400  212.0880  153.2970 C   0  0  0  0  0  0  0  0  0  0  0  0
  160.1100  211.5350  152.0910 C   0  0  0  0  0  2  0  0  0  0  0  0
  161.8560  209.4710  148.4260 O   0  0  0  0  0  0  0  0  0  0  0  0
  161.8930  208.2630  148.7740 C   0  0  0  0  0  0  0  0  0  0  0  0
  161.0780  207.8320  149.8730 N   0  0  0  0  0  2  0  0  0  0  0  0
  162.8220  207.3400  148.0580 C   0  0  0  0  0  2  0  0  0  0  0  0
  162.0900  206.6500  146.9240 C   0  0  0  0  0  2  0  0  0  0  0  0
  162.6700  205.4040  146.6880 O   0  0  0  0  0  1  0  0  0  0  0  0
  1 11  2  0  0  0  0
  2  7  1  0  0  0  0
  3  4  2  0  0  0  0
  4  2  1  0  0  0  0
  4  9  1  0  0  0  0
  6  2  2  0  0  0  0
  7  5  2  0  0  0  0
  9  1  2  0  0  0  0
  9  5  1  0  0  0  0
 10 12  2  0  0  0  0
 10  3  1  0  0  0  0
 11  8  1  0  0  0  0
 12  6  1  0  0  0  0
 13 18  1  0  0  0  0
 15 11  1  1  0  0  0
 15 17  1  0  0  0  0
 16 17  1  0  0  0  0
 18 14  2  0  0  0  0
 18 16  1  0  0  0  0
 19 13  1  0  0  0  0
 19 15  1  0  0  0  0
 20 21  2  0  0  0  0
 21 22  1  0  0  0  0
 22  3  1  0  0  0  0
 23 21  1  0  0  0  0
 24 23  1  0  0  0  0
 25 24  1  0  0  0  0
M  END
>  <MODEL>
1

>  <REMARK>
 VINA RESULT:      -5.7      0.000      0.000
  Name = 
  4 active torsions:
  status: ('A' for Active; 'I' for Inactive)
    1  A    between atoms: C_6  and  C_24
    2  A    between atoms: C_7  and  C_10
    3  A    between atoms: C_7  and  C_17
    4  A    between atoms: C_8  and  N_16
                            x       y       z     vdW  Elec       q    Type
                         _______ _______ _______ _____ _____    ______ ____

>  <TORSDO>
F 4

$$$$
=
 OpenBabel11072415243D

 25 27  0  0  1  0  0  0  0  0999 V2000
  161.1260  208.3310  153.8490 C   0  0  0  0  0  0  0  0  0  0  0  0
  161.2750  205.8160  151.4480 C   0  0  0  0  0  0  0  0  0  0  0  0
  161.5390  208.0860  150.6890 C   0  0  0  0  0  0  0  0  0  0  0  0
  161.4180  207.1480  151.7140 C   0  0  0  0  0  0  0  0  0  0  0  0
  161.1600  205.8760  153.6290 C   0  0  0  0  0  3  0  0  0  0  0  0
  161.2370  205.3400  150.1780 N   0  0  0  0  0  0  0  0  0  0  0  0
  161.1140  205.0420  152.6310 N   0  0  0  0  0  0  0  0  0  0  0  0
  161.9090  209.9600  155.4420 C   0  0  0  0  0  1  0  0  0  0  0  0
  161.3850  207.2540  153.1610 C   0  0  0  0  0  0  0  0  0  0  0  0
  161.5040  207.5950  149.3690 C   0  0  0  0  0  3  0  0  0  0  0  0
  160.8630  209.4140  154.5300 C   0  0  0  0  0  0  0  0  0  0  0  0
  161.3540  206.2130  149.1330 C   0  0  0  0  0  3  0  0  0  0  0  0
  158.1860  211.7010  153.2410 O   0  0  0  0  0  0  0  0  0  0  0  0
  156.3840  212.5220  154.4190 O   0  0  0  0  0  0  0  0  0  0  0  0
  159.5030  210.0390  154.4350 C   0  0  1  0  0  3  0  0  0  0  0  0
  157.7840  210.9670  155.5920 C   0  0  0  0  0  2  0  0  0  0  0  0
  159.1730  210.7310  155.6180 O   0  0  0  0  0  0  0  0  0  0  0  0
  157.4150  211.8040  154.4010 C   0  0  0  0  0  0  0  0  0  0  0  0
  159.4370  211.0110  153.2480 C   0  0  0  0  0  2  0  0  0  0  0  0
  161.8140  211.7530  150.5470 O   0  0  0  0  0  0  0  0  0  0  0  0
  161.7990  210.5820  150.0880 C   0  0  0  0  0  0  0  0  0  0  0  0
  161.6730  209.4810  150.9990 N   0  0  0  0  0  2  0  0  0  0  0  0
  161.9640  210.3880  148.6170 C   0  0  0  0  0  2  0  0  0  0  0  0
  161.9350  211.7310  147.9150 C   0  0  0  0  0  2  0  0  0  0  0  0
  160.7440  211.8540  147.1990 O   0  0  0  0  0  1  0  0  0  0  0  0
  1 11  2  0  0  0  0
  2  4  1  0  0  0  0
  2  7  1  0  0  0  0
  3 22  1  0  0  0  0
  3  4  2  0  0  0  0
  4  9  1  0  0  0  0
  6  2  2  0  0  0  0
  7  5  2  0  0  0  0
  9  5  1  0  0  0  0
  9  1  2  0  0  0  0
 10  3  1  0  0  0  0
 11  8  1  0  0  0  0
 12 10  2  0  0  0  0
 12  6  1  0  0  0  0
 13 19  1  0  0  0  0
 13 18  1  0  0  0  0
 15 11  1  1  0  0  0
 15 17  1  0  0  0  0
 16 17  1  0  0  0  0
 18 14  2  0  0  0  0
 18 16  1  0  0  0  0
 19 15  1  0  0  0  0
 21 20  2  0  0  0  0
 21 22  1  0  0  0  0
 23 21  1  0  0  0  0
 24 23  1  0  0  0  0
 25 24  1  0  0  0  0
M  END
>  <MODEL>
2

>  <REMARK>
 VINA RESULT:      -5.7      2.045      2.452
  Name = 
  4 active torsions:
  status: ('A' for Active; 'I' for Inactive)
    1  A    between atoms: C_6  and  C_24
    2  A    between atoms: C_7  and  C_10
    3  A    between atoms: C_7  and  C_17
    4  A    between atoms: C_8  and  N_16
                            x       y       z     vdW  Elec       q    Type
                         _______ _______ _______ _____ _____    ______ ____

>  <TORSDO>
F 4

$$$$
=
 OpenBabel11072415243D

 25 27  0  0  1  0  0  0  0  0999 V2000
  160.5470  210.3890  152.5560 C   0  0  0  0  0  0  0  0  0  0  0  0
  158.0850  212.1370  154.2860 C   0  0  0  0  0  0  0  0  0  0  0  0
  159.7530  210.9930  155.5930 C   0  0  0  0  0  0  0  0  0  0  0  0
  159.2490  211.4280  154.3660 C   0  0  0  0  0  0  0  0  0  0  0  0
  158.6520  211.9210  152.1870 C   0  0  0  0  0  3  0  0  0  0  0  0
  157.3580  212.4490  155.3890 N   0  0  0  0  0  0  0  0  0  0  0  0
  157.7240  212.4340  152.9420 N   0  0  0  0  0  0  0  0  0  0  0  0
  162.6760  209.9520  151.5180 C   0  0  0  0  0  1  0  0  0  0  0  0
  159.7010  211.2780  152.9950 C   0  0  0  0  0  0  0  0  0  0  0  0
  159.0030  211.3180  156.7400 C   0  0  0  0  0  3  0  0  0  0  0  0
  161.3940  209.4930  152.1240 C   0  0  0  0  0  0  0  0  0  0  0  0
  157.8050  212.0510  156.6170 C   0  0  0  0  0  3  0  0  0  0  0  0
  161.3630  205.9810  153.4370 O   0  0  0  0  0  0  0  0  0  0  0  0
  161.0380  204.0530  152.2180 O   0  0  0  0  0  0  0  0  0  0  0  0
  161.0300  208.0390  152.1810 C   0  0  1  0  0  3  0  0  0  0  0  0
  160.8380  206.1100  151.0000 C   0  0  0  0  0  2  0  0  0  0  0  0
  161.5130  207.3460  151.0530 O   0  0  0  0  0  0  0  0  0  0  0  0
  161.1130  205.3070  152.2390 C   0  0  0  0  0  0  0  0  0  0  0  0
  161.5980  207.3910  153.4510 C   0  0  0  0  0  2  0  0  0  0  0  0
  162.3310  208.4350  156.1870 O   0  0  0  0  0  0  0  0  0  0  0  0
  161.2170  209.0010  156.3320 C   0  0  0  0  0  0  0  0  0  0  0  0
  160.9710  210.2360  155.6450 N   0  0  0  0  0  2  0  0  0  0  0  0
  160.2170  208.3870  157.2550 C   0  0  0  0  0  2  0  0  0  0  0  0
  159.9510  206.9530  156.8430 C   0  0  0  0  0  2  0  0  0  0  0  0
  159.0730  206.9380  155.7600 O   0  0  0  0  0  1  0  0  0  0  0  0
  1  9  2  0  0  0  0
  2  4  1  0  0  0  0
  2  6  2  0  0  0  0
  3 22  1  0  0  0  0
  3 10  1  0  0  0  0
  4  3  2  0  0  0  0
  5  7  2  0  0  0  0
  5  9  1  0  0  0  0
  6 12  1  0  0  0  0
  7  2  1  0  0  0  0
  8 11  1  0  0  0  0
  9  4  1  0  0  0  0
 11  1  2  0  0  0  0
 12 10  2  0  0  0  0
 13 19  1  0  0  0  0
 14 18  2  0  0  0  0
 15 11  1  6  0  0  0
 15 19  1  0  0  0  0
 16 17  1  0  0  0  0
 16 18  1  0  0  0  0
 17 15  1  0  0  0  0
 18 13  1  0  0  0  0
 20 21  2  0  0  0  0
 21 23  1  0  0  0  0
 22 21  1  0  0  0  0
 24 23  1  0  0  0  0
 25 24  1  0  0  0  0
M  END
>  <MODEL>
3

>  <REMARK>
 VINA RESULT:      -5.1      3.578      7.313
  Name = 
  4 active torsions:
  status: ('A' for Active; 'I' for Inactive)
    1  A    between atoms: C_6  and  C_24
    2  A    between atoms: C_7  and  C_10
    3  A    between atoms: C_7  and  C_17
    4  A    between atoms: C_8  and  N_16
                            x       y       z     vdW  Elec       q    Type
                         _______ _______ _______ _____ _____    ______ ____

>  <TORSDO>
F 4

$$$$
=
 OpenBabel11072415243D

 25 27  0  0  1  0  0  0  0  0999 V2000
  159.9240  210.3160  155.3380 C   0  0  0  0  0  0  0  0  0  0  0  0
  160.6440  206.9540  154.8010 C   0  0  0  0  0  0  0  0  0  0  0  0
  160.9340  208.4560  152.9420 C   0  0  0  0  0  0  0  0  0  0  0  0
  160.6690  208.2200  154.2920 C   0  0  0  0  0  0  0  0  0  0  0  0
  160.1190  208.1720  156.5370 C   0  0  0  0  0  3  0  0  0  0  0  0
  160.8680  205.8630  154.0240 N   0  0  0  0  0  0  0  0  0  0  0  0
  160.3010  206.9330  156.1820 N   0  0  0  0  0  0  0  0  0  0  0  0
  160.3140  212.6420  155.8290 C   0  0  0  0  0  1  0  0  0  0  0  0
  160.3600  209.0890  155.4120 C   0  0  0  0  0  0  0  0  0  0  0  0
  161.1720  207.3280  152.1330 C   0  0  0  0  0  3  0  0  0  0  0  0
  159.4860  211.5430  155.2540 C   0  0  0  0  0  0  0  0  0  0  0  0
  161.1350  206.0350  152.6950 C   0  0  0  0  0  3  0  0  0  0  0  0
  156.9180  213.2940  153.1550 O   0  0  0  0  0  0  0  0  0  0  0  0
  154.6480  213.3800  153.5370 O   0  0  0  0  0  0  0  0  0  0  0  0
  158.1390  211.8110  154.6510 C   0  0  1  0  0  3  0  0  0  0  0  0
  155.9150  212.0250  155.0570 C   0  0  0  0  0  2  0  0  0  0  0  0
  157.1920  212.1460  155.6400 O   0  0  0  0  0  0  0  0  0  0  0  0
  155.7790  212.9630  153.8930 C   0  0  0  0  0  0  0  0  0  0  0  0
  158.2230  212.9530  153.6290 C   0  0  0  0  0  2  0  0  0  0  0  0
  161.3760  211.4850  150.8980 O   0  0  0  0  0  0  0  0  0  0  0  0
  161.5570  210.2850  151.2320 C   0  0  0  0  0  0  0  0  0  0  0  0
  160.9400  209.7970  152.4310 N   0  0  0  0  0  2  0  0  0  0  0  0
  162.4490  209.4350  150.3890 C   0  0  0  0  0  2  0  0  0  0  0  0
  161.9010  209.3570  148.9770 C   0  0  0  0  0  2  0  0  0  0  0  0
  162.2480  208.1300  148.4140 O   0  0  0  0  0  1  0  0  0  0  0  0
  1  9  2  0  0  0  0
  2  7  1  0  0  0  0
  3  4  2  0  0  0  0
  4  2  1  0  0  0  0
  4  9  1  0  0  0  0
  6  2  2  0  0  0  0
  7  5  2  0  0  0  0
  9  5  1  0  0  0  0
 10 12  2  0  0  0  0
 10  3  1  0  0  0  0
 11  1  2  0  0  0  0
 11  8  1  0  0  0  0
 12  6  1  0  0  0  0
 13 19  1  0  0  0  0
 13 18  1  0  0  0  0
 14 18  2  0  0  0  0
 15 11  1  1  0  0  0
 15 17  1  0  0  0  0
 16 17  1  0  0  0  0
 18 16  1  0  0  0  0
 19 15  1  0  0  0  0
 20 21  2  0  0  0  0
 21 22  1  0  0  0  0
 22  3  1  0  0  0  0
 23 21  1  0  0  0  0
 24 23  1  0  0  0  0
 25 24  1  0  0  0  0
M  END
>  <MODEL>
4

>  <REMARK>
 VINA RESULT:      -5.0      2.168      3.220
  Name = 
  4 active torsions:
  status: ('A' for Active; 'I' for Inactive)
    1  A    between atoms: C_6  and  C_24
    2  A    between atoms: C_7  and  C_10
    3  A    between atoms: C_7  and  C_17
    4  A    between atoms: C_8  and  N_16
                            x       y       z     vdW  Elec       q    Type
                         _______ _______ _______ _____ _____    ______ ____

>  <TORSDO>
F 4

$$$$
=
 OpenBabel11072415243D

 25 27  0  0  1  0  0  0  0  0999 V2000
  159.2250  212.7390  141.5810 C   0  0  0  0  0  0  0  0  0  0  0  0
  161.3970  213.0540  144.2830 C   0  0  0  0  0  0  0  0  0  0  0  0
  162.0540  214.0890  142.2100 C   0  0  0  0  0  0  0  0  0  0  0  0
  161.1170  213.4180  142.9970 C   0  0  0  0  0  0  0  0  0  0  0  0
  159.3860  212.2520  143.9920 C   0  0  0  0  0  3  0  0  0  0  0  0
  162.5980  213.3180  144.8570 N   0  0  0  0  0  0  0  0  0  0  0  0
  160.3280  212.3340  144.8860 N   0  0  0  0  0  0  0  0  0  0  0  0
  157.4850  213.3270  140.0230 C   0  0  0  0  0  1  0  0  0  0  0  0
  159.7690  212.9410  142.7490 C   0  0  0  0  0  0  0  0  0  0  0  0
  163.3000  214.3690  142.8040 C   0  0  0  0  0  3  0  0  0  0  0  0
  158.6900  212.5370  140.4070 C   0  0  0  0  0  0  0  0  0  0  0  0
  163.5530  213.9760  144.1350 C   0  0  0  0  0  3  0  0  0  0  0  0
  158.7040  209.4250  138.3150 O   0  0  0  0  0  0  0  0  0  0  0  0
  160.5090  208.0620  137.8780 O   0  0  0  0  0  0  0  0  0  0  0  0
  159.2500  211.4750  139.5080 C   0  0  1  0  0  3  0  0  0  0  0  0
  160.9730  210.0390  139.1540 C   0  0  0  0  0  2  0  0  0  0  0  0
  160.2700  210.7450  140.1510 O   0  0  0  0  0  0  0  0  0  0  0  0
  160.0550  209.0940  138.4340 C   0  0  0  0  0  0  0  0  0  0  0  0
  158.1450  210.5080  139.0620 C   0  0  0  0  0  2  0  0  0  0  0  0
  161.7280  214.2190  138.5470 O   0  0  0  0  0  0  0  0  0  0  0  0
  162.1880  213.8200  139.6480 C   0  0  0  0  0  0  0  0  0  0  0  0
  161.7370  214.4460  140.8570 N   0  0  0  0  0  2  0  0  0  0  0  0
  163.2240  212.7450  139.6420 C   0  0  0  0  0  2  0  0  0  0  0  0
  164.4080  213.1760  138.7990 C   0  0  0  0  0  2  0  0  0  0  0  0
  164.9810  214.3180  139.3560 O   0  0  0  0  0  1  0  0  0  0  0  0
  1  9  2  0  0  0  0
  2  6  2  0  0  0  0
  2  7  1  0  0  0  0
  3 10  1  0  0  0  0
  3  4  2  0  0  0  0
  4  2  1  0  0  0  0
  5  7  2  0  0  0  0
  8 11  1  0  0  0  0
  9  4  1  0  0  0  0
  9  5  1  0  0  0  0
 10 12  2  0  0  0  0
 11  1  2  0  0  0  0
 12  6  1  0  0  0  0
 13 18  1  0  0  0  0
 13 19  1  0  0  0  0
 14 18  2  0  0  0  0
 15 17  1  0  0  0  0
 15 11  1  1  0  0  0
 16 17  1  0  0  0  0
 18 16  1  0  0  0  0
 19 15  1  0  0  0  0
 20 21  2  0  0  0  0
 21 22  1  0  0  0  0
 22  3  1  0  0  0  0
 23 21  1  0  0  0  0
 24 25  1  0  0  0  0
 24 23  1  0  0  0  0
M  END
>  <MODEL>
5

>  <REMARK>
 VINA RESULT:      -4.9      9.950     12.594
  Name = 
  4 active torsions:
  status: ('A' for Active; 'I' for Inactive)
    1  A    between atoms: C_6  and  C_24
    2  A    between atoms: C_7  and  C_10
    3  A    between atoms: C_7  and  C_17
    4  A    between atoms: C_8  and  N_16
                            x       y       z     vdW  Elec       q    Type
                         _______ _______ _______ _____ _____    ______ ____

>  <TORSDO>
F 4

$$$$
=
 OpenBabel11072415243D

 25 27  0  0  1  0  0  0  0  0999 V2000
  160.2090  210.5830  156.1360 C   0  0  0  0  0  0  0  0  0  0  0  0
  160.6940  207.4920  154.6130 C   0  0  0  0  0  0  0  0  0  0  0  0
  161.0170  209.4550  153.2560 C   0  0  0  0  0  0  0  0  0  0  0  0
  160.7830  208.8490  154.4910 C   0  0  0  0  0  0  0  0  0  0  0  0
  160.3070  208.1750  156.6510 C   0  0  0  0  0  3  0  0  0  0  0  0
  160.8220  206.6660  153.5430 N   0  0  0  0  0  0  0  0  0  0  0  0
  160.3980  207.0860  155.9440 N   0  0  0  0  0  0  0  0  0  0  0  0
  160.7630  212.6400  157.2590 C   0  0  0  0  0  1  0  0  0  0  0  0
  160.5670  209.3670  155.8290 C   0  0  0  0  0  0  0  0  0  0  0  0
  161.1550  208.6020  152.1440 C   0  0  0  0  0  3  0  0  0  0  0  0
  159.8470  211.8020  156.4340 C   0  0  0  0  0  0  0  0  0  0  0  0
  161.0550  207.2050  152.3090 C   0  0  0  0  0  3  0  0  0  0  0  0
  157.1840  214.3150  155.6250 O   0  0  0  0  0  0  0  0  0  0  0  0
  154.9050  214.0100  155.7750 O   0  0  0  0  0  0  0  0  0  0  0  0
  158.5010  212.3030  156.0030 C   0  0  1  0  0  3  0  0  0  0  0  0
  156.2540  212.0860  156.2540 C   0  0  0  0  0  2  0  0  0  0  0  0
  157.4920  211.8980  156.9010 O   0  0  0  0  0  0  0  0  0  0  0  0
  156.0610  213.5320  155.9010 C   0  0  0  0  0  0  0  0  0  0  0  0
  158.5010  213.8350  155.9060 C   0  0  0  0  0  2  0  0  0  0  0  0
  160.2700  213.0420  152.9090 O   0  0  0  0  0  0  0  0  0  0  0  0
  160.0320  211.8070  152.8640 C   0  0  0  0  0  0  0  0  0  0  0  0
  161.0910  210.8850  153.1560 N   0  0  0  0  0  2  0  0  0  0  0  0
  158.6680  211.3560  152.4580 C   0  0  0  0  0  2  0  0  0  0  0  0
  157.7670  212.5590  152.2610 C   0  0  0  0  0  2  0  0  0  0  0  0
  157.8150  212.9600  150.9260 O   0  0  0  0  0  1  0  0  0  0  0  0
  1 11  2  0  0  0  0
  2  7  1  0  0  0  0
  3  4  2  0  0  0  0
  4  2  1  0  0  0  0
  4  9  1  0  0  0  0
  6  2  2  0  0  0  0
  7  5  2  0  0  0  0
  9  1  2  0  0  0  0
  9  5  1  0  0  0  0
 10 12  2  0  0  0  0
 10  3  1  0  0  0  0
 11  8  1  0  0  0  0
 12  6  1  0  0  0  0
 13 18  1  0  0  0  0
 13 19  1  0  0  0  0
 14 18  2  0  0  0  0
 15 11  1  1  0  0  0
 15 17  1  0  0  0  0
 16 17  1  0  0  0  0
 18 16  1  0  0  0  0
 19 15  1  0  0  0  0
 21 20  2  0  0  0  0
 21 22  1  0  0  0  0
 22  3  1  0  0  0  0
 23 21  1  0  0  0  0
 24 23  1  0  0  0  0
 25 24  1  0  0  0  0
M  END
>  <MODEL>
6

>  <REMARK>
 VINA RESULT:      -4.8      3.446      4.956
  Name = 
  4 active torsions:
  status: ('A' for Active; 'I' for Inactive)
    1  A    between atoms: C_6  and  C_24
    2  A    between atoms: C_7  and  C_10
    3  A    between atoms: C_7  and  C_17
    4  A    between atoms: C_8  and  N_16
                            x       y       z     vdW  Elec       q    Type
                         _______ _______ _______ _____ _____    ______ ____

>  <TORSDO>
F 4

$$$$
=
 OpenBabel11072415243D

 25 27  0  0  1  0  0  0  0  0999 V2000
  159.8950  211.9900  152.0340 C   0  0  0  0  0  0  0  0  0  0  0  0
  161.2480  213.3290  149.1200 C   0  0  0  0  0  0  0  0  0  0  0  0
  161.9050  211.0900  149.7170 C   0  0  0  0  0  0  0  0  0  0  0  0
  161.1190  212.2260  149.9150 C   0  0  0  0  0  0  0  0  0  0  0  0
  159.7340  213.9610  150.5620 C   0  0  0  0  0  3  0  0  0  0  0  0
  162.1470  213.3790  148.1040 N   0  0  0  0  0  0  0  0  0  0  0  0
  160.3940  214.3920  149.5270 N   0  0  0  0  0  0  0  0  0  0  0  0
  158.4020  210.7220  153.4360 C   0  0  0  0  0  1  0  0  0  0  0  0
  160.0940  212.5710  150.8830 C   0  0  0  0  0  0  0  0  0  0  0  0
  162.8360  211.1360  148.6610 C   0  0  0  0  0  3  0  0  0  0  0  0
  159.7040  211.4050  153.1850 C   0  0  0  0  0  0  0  0  0  0  0  0
  162.9410  212.2930  147.8620 C   0  0  0  0  0  3  0  0  0  0  0  0
  162.8620  210.5300  155.0080 O   0  0  0  0  0  0  0  0  0  0  0  0
  163.2780  210.7970  157.2580 O   0  0  0  0  0  0  0  0  0  0  0  0
  160.7600  211.4920  154.2470 C   0  0  1  0  0  3  0  0  0  0  0  0
  161.1660  211.6230  156.4770 C   0  0  0  0  0  2  0  0  0  0  0  0
  160.2370  211.1740  155.5170 O   0  0  0  0  0  0  0  0  0  0  0  0
  162.4870  210.9340  156.2910 C   0  0  0  0  0  0  0  0  0  0  0  0
  161.9230  210.5420  153.9300 C   0  0  0  0  0  2  0  0  0  0  0  0
  161.6440  207.6970  151.1180 O   0  0  0  0  0  0  0  0  0  0  0  0
  161.6800  208.5680  150.2100 C   0  0  0  0  0  0  0  0  0  0  0  0
  161.7580  209.9510  150.5780 N   0  0  0  0  0  2  0  0  0  0  0  0
  161.5890  208.1220  148.7880 C   0  0  0  0  0  2  0  0  0  0  0  0
  161.5240  206.6090  148.7260 C   0  0  0  0  0  2  0  0  0  0  0  0
  160.5120  206.2240  147.8480 O   0  0  0  0  0  1  0  0  0  0  0  0
  1 11  2  0  0  0  0
  2  7  1  0  0  0  0
  2  4  1  0  0  0  0
  3  4  2  0  0  0  0
  3 22  1  0  0  0  0
  4  9  1  0  0  0  0
  5  9  1  0  0  0  0
  6  2  2  0  0  0  0
  7  5  2  0  0  0  0
  9  1  2  0  0  0  0
 10  3  1  0  0  0  0
 11  8  1  0  0  0  0
 12  6  1  0  0  0  0
 12 10  2  0  0  0  0
 13 18  1  0  0  0  0
 15 11  1  6  0  0  0
 15 17  1  0  0  0  0
 17 16  1  0  0  0  0
 18 16  1  0  0  0  0
 18 14  2  0  0  0  0
 19 15  1  0  0  0  0
 19 13  1  0  0  0  0
 21 22  1  0  0  0  0
 21 20  2  0  0  0  0
 23 21  1  0  0  0  0
 24 23  1  0  0  0  0
 25 24  1  0  0  0  0
M  END
>  <MODEL>
7

>  <REMARK>
 VINA RESULT:      -4.4      3.082      5.647
  Name = 
  4 active torsions:
  status: ('A' for Active; 'I' for Inactive)
    1  A    between atoms: C_6  and  C_24
    2  A    between atoms: C_7  and  C_10
    3  A    between atoms: C_7  and  C_17
    4  A    between atoms: C_8  and  N_16
                            x       y       z     vdW  Elec       q    Type
                         _______ _______ _______ _____ _____    ______ ____

>  <TORSDO>
F 4

$$$$
=
 OpenBabel11072415243D

 25 27  0  0  1  0  0  0  0  0999 V2000
  161.2430  213.1370  138.2120 C   0  0  0  0  0  0  0  0  0  0  0  0
  158.0140  214.2340  138.9060 C   0  0  0  0  0  0  0  0  0  0  0  0
  159.4910  213.8930  140.7770 C   0  0  0  0  0  0  0  0  0  0  0  0
  159.2550  213.9570  139.4030 C   0  0  0  0  0  0  0  0  0  0  0  0
  159.1860  213.9060  137.0930 C   0  0  0  0  0  3  0  0  0  0  0  0
  156.9490  214.4530  139.7190 N   0  0  0  0  0  0  0  0  0  0  0  0
  157.9800  214.1980  137.4840 N   0  0  0  0  0  0  0  0  0  0  0  0
  163.6130  213.2610  137.8030 C   0  0  0  0  0  1  0  0  0  0  0  0
  160.0980  213.7610  138.2380 C   0  0  0  0  0  0  0  0  0  0  0  0
  158.3900  214.1240  141.6240 C   0  0  0  0  0  3  0  0  0  0  0  0
  162.3870  212.5080  138.1950 C   0  0  0  0  0  0  0  0  0  0  0  0
  157.1220  214.4060  141.0740 C   0  0  0  0  0  3  0  0  0  0  0  0
  162.0730  208.8280  137.5440 O   0  0  0  0  0  0  0  0  0  0  0  0
  161.5870  207.1890  139.0880 O   0  0  0  0  0  0  0  0  0  0  0  0
  162.4320  211.0400  138.4960 C   0  0  1  0  0  3  0  0  0  0  0  0
  161.8350  209.4100  139.9590 C   0  0  0  0  0  2  0  0  0  0  0  0
  161.4890  210.6900  139.4830 O   0  0  0  0  0  0  0  0  0  0  0  0
  161.7920  208.4050  138.8450 C   0  0  0  0  0  0  0  0  0  0  0  0
  162.1600  210.2190  137.2270 C   0  0  0  0  0  2  0  0  0  0  0  0
  162.3970  212.3980  142.4710 O   0  0  0  0  0  0  0  0  0  0  0  0
  161.1760  212.5840  142.2280 C   0  0  0  0  0  0  0  0  0  0  0  0
  160.8030  213.5850  141.2710 N   0  0  0  0  0  2  0  0  0  0  0  0
  160.1670  211.7880  142.9870 C   0  0  0  0  0  2  0  0  0  0  0  0
  160.0650  212.3080  144.4070 C   0  0  0  0  0  2  0  0  0  0  0  0
  158.7260  212.3330  144.7960 O   0  0  0  0  0  1  0  0  0  0  0  0
  1  9  2  0  0  0  0
  2  4  1  0  0  0  0
  2  6  2  0  0  0  0
  3 22  1  0  0  0  0
  3 10  1  0  0  0  0
  4  3  2  0  0  0  0
  5  7  2  0  0  0  0
  5  9  1  0  0  0  0
  6 12  1  0  0  0  0
  7  2  1  0  0  0  0
  8 11  1  0  0  0  0
  9  4  1  0  0  0  0
 11  1  2  0  0  0  0
 12 10  2  0  0  0  0
 13 18  1  0  0  0  0
 15 11  1  6  0  0  0
 15 17  1  0  0  0  0
 17 16  1  0  0  0  0
 18 14  2  0  0  0  0
 18 16  1  0  0  0  0
 19 13  1  0  0  0  0
 19 15  1  0  0  0  0
 21 20  2  0  0  0  0
 21 23  1  0  0  0  0
 22 21  1  0  0  0  0
 23 24  1  0  0  0  0
 24 25  1  0  0  0  0
M  END
>  <MODEL>
8

>  <REMARK>
 VINA RESULT:      -4.2      9.940     14.018
  Name = 
  4 active torsions:
  status: ('A' for Active; 'I' for Inactive)
    1  A    between atoms: C_6  and  C_24
    2  A    between atoms: C_7  and  C_10
    3  A    between atoms: C_7  and  C_17
    4  A    between atoms: C_8  and  N_16
                            x       y       z     vdW  Elec       q    Type
                         _______ _______ _______ _____ _____    ______ ____

>  <TORSDO>
F 4

$$$$
=
 OpenBabel11072415243D

 25 27  0  0  1  0  0  0  0  0999 V2000
  160.1620  210.3020  153.4500 C   0  0  0  0  0  0  0  0  0  0  0  0
  160.0780  212.4700  150.7290 C   0  0  0  0  0  0  0  0  0  0  0  0
  161.6720  210.6670  150.6560 C   0  0  0  0  0  0  0  0  0  0  0  0
  160.5950  211.3220  151.2560 C   0  0  0  0  0  0  0  0  0  0  0  0
  158.8780  212.1960  152.5340 C   0  0  0  0  0  3  0  0  0  0  0  0
  160.5850  213.0360  149.6050 N   0  0  0  0  0  0  0  0  0  0  0  0
  159.0240  213.0030  151.5230 N   0  0  0  0  0  0  0  0  0  0  0  0
  159.6960  208.3420  154.7700 C   0  0  0  0  0  1  0  0  0  0  0  0
  159.8130  211.0620  152.4500 C   0  0  0  0  0  0  0  0  0  0  0  0
  162.2000  211.2480  149.4870 C   0  0  0  0  0  3  0  0  0  0  0  0
  160.5210  209.5410  154.4490 C   0  0  0  0  0  0  0  0  0  0  0  0
  161.6390  212.4360  148.9730 C   0  0  0  0  0  3  0  0  0  0  0  0
  162.3930  211.2000  157.2440 O   0  0  0  0  0  0  0  0  0  0  0  0
  164.6000  211.8600  157.2280 O   0  0  0  0  0  0  0  0  0  0  0  0
  161.7040  209.9250  155.2870 C   0  0  1  0  0  3  0  0  0  0  0  0
  163.8380  210.7020  155.2700 C   0  0  0  0  0  2  0  0  0  0  0  0
  162.6270  210.6950  154.5500 O   0  0  0  0  0  0  0  0  0  0  0  0
  163.6390  211.3180  156.6250 C   0  0  0  0  0  0  0  0  0  0  0  0
  161.2560  210.7230  156.5200 C   0  0  0  0  0  2  0  0  0  0  0  0
  162.7030  207.2060  151.3640 O   0  0  0  0  0  0  0  0  0  0  0  0
  162.0870  208.1230  150.7620 C   0  0  0  0  0  0  0  0  0  0  0  0
  162.2050  209.4700  151.2410 N   0  0  0  0  0  2  0  0  0  0  0  0
  161.2170  207.7590  149.6050 C   0  0  0  0  0  2  0  0  0  0  0  0
  162.0320  207.7670  148.3270 C   0  0  0  0  0  2  0  0  0  0  0  0
  162.1210  206.4690  147.8260 O   0  0  0  0  0  1  0  0  0  0  0  0
  1 11  2  0  0  0  0
  2  4  1  0  0  0  0
  2  7  1  0  0  0  0
  3 22  1  0  0  0  0
  3  4  2  0  0  0  0
  4  9  1  0  0  0  0
  6  2  2  0  0  0  0
  7  5  2  0  0  0  0
  9  5  1  0  0  0  0
  9  1  2  0  0  0  0
 10  3  1  0  0  0  0
 11  8  1  0  0  0  0
 12 10  2  0  0  0  0
 12  6  1  0  0  0  0
 15 11  1  6  0  0  0
 15 19  1  0  0  0  0
 16 18  1  0  0  0  0
 17 16  1  0  0  0  0
 17 15  1  0  0  0  0
 18 14  2  0  0  0  0
 18 13  1  0  0  0  0
 19 13  1  0  0  0  0
 21 22  1  0  0  0  0
 21 20  2  0  0  0  0
 23 21  1  0  0  0  0
 24 23  1  0  0  0  0
 25 24  1  0  0  0  0
M  END
>  <MODEL>
9

>  <REMARK>
 VINA RESULT:      -3.7      3.032      5.383
  Name = 
  4 active torsions:
  status: ('A' for Active; 'I' for Inactive)
    1  A    between atoms: C_6  and  C_24
    2  A    between atoms: C_7  and  C_10
    3  A    between atoms: C_7  and  C_17
    4  A    between atoms: C_8  and  N_16
                            x       y       z     vdW  Elec       q    Type
                         _______ _______ _______ _____ _____    ______ ____

>  <TORSDO>
F 4

$$$$
