=
 OpenBabel11072414233D

 26 28  0  0  1  0  0  0  0  0999 V2000
  161.1630  206.5470  147.7890 C   0  0  2  0  0  3  0  0  0  0  0  0
  160.6080  204.0630  150.6130 C   0  0  0  0  0  3  0  0  0  0  0  0
  161.1980  204.0170  147.8590 C   0  0  0  0  0  3  0  0  0  0  0  0
  161.0230  200.5810  149.3180 C   0  0  0  0  0  3  0  0  0  0  0  0
  161.0190  205.2460  148.5210 C   0  0  0  0  0  0  0  0  0  0  0  0
  160.7250  201.5030  150.5100 C   0  0  0  0  0  2  0  0  0  0  0  0
  160.7220  205.2630  149.8970 C   0  0  0  0  0  3  0  0  0  0  0  0
  161.2430  201.4620  148.0810 C   0  0  0  0  0  3  0  0  0  0  0  0
  160.7960  202.8600  149.9330 C   0  0  0  0  0  0  0  0  0  0  0  0
  161.0800  202.8380  148.5940 C   0  0  0  0  0  0  0  0  0  0  0  0
  162.3840  206.0930  145.7780 O   0  0  0  0  0  1  0  0  0  0  0  0
  160.1210  206.3590  145.5320 O   0  0  0  0  0  0  0  0  0  0  0  0
  161.2690  206.3290  146.3130 C   0  0  0  0  0  0  0  0  0  0  0  0
  162.3160  207.2950  148.2780 N   0  0  0  0  0  2  0  0  0  0  0  0
  161.8400  208.3490  149.1670 C   0  0  0  0  0  2  0  0  0  0  0  0
  162.3100  208.1130  150.5990 C   0  0  0  0  0  2  0  0  0  0  0  0
  161.3410  210.0950  151.7100 C   0  0  0  0  0  3  0  0  0  0  0  0
  161.0820  206.5700  152.8650 F   0  0  0  0  0  0  0  0  0  0  0  0
  160.6330  208.5990  154.0340 C   0  0  2  0  0  3  0  0  0  0  0  0
  161.2810  208.5910  151.6120 C   0  0  2  0  0  3  0  0  0  0  0  0
  161.4720  207.8950  152.9650 C   0  0  2  0  0  3  0  0  0  0  0  0
  161.2120  210.7540  152.8700 C   0  0  0  0  0  3  0  0  0  0  0  0
  161.1030  210.0450  154.1940 C   0  0  0  0  0  2  0  0  0  0  0  0
  159.6820  207.1000  155.7180 O   0  0  0  0  0  0  0  0  0  0  0  0
  161.7220  208.0400  156.0450 O   0  0  0  0  0  0  0  0  0  0  0  0
  160.7230  207.9000  155.3100 N   0  0  0  0  0  0  0  0  0  0  0  0
  1 13  1  6  0  0  0
  1 14  1  0  0  0  0
  1  5  1  0  0  0  0
  3  5  2  0  0  0  0
  3 10  1  0  0  0  0
  4  6  1  0  0  0  0
  5  7  1  0  0  0  0
  7  2  2  0  0  0  0
  8 10  1  0  0  0  0
  8  4  2  0  0  0  0
  9  6  1  0  0  0  0
  9  2  1  0  0  0  0
 10  9  2  0  0  0  0
 11 13  1  0  0  0  0
 12 13  2  0  0  0  0
 14 15  1  0  0  0  0
 15 16  1  0  0  0  0
 17 22  2  0  0  0  0
 19 23  1  0  0  0  0
 19 26  1  1  0  0  0
 20 16  1  6  0  0  0
 20 17  1  0  0  0  0
 20 21  1  0  0  0  0
 21 18  1  6  0  0  0
 21 19  1  0  0  0  0
 22 23  1  0  0  0  0
 26 24  2  0  0  0  0
 26 25  2  0  0  0  0
M  END
>  <MODEL>
1

>  <REMARK>
 VINA RESULT:      -9.0      0.000      0.000
  Name = 
  7 active torsions:
  status: ('A' for Active; 'I' for Inactive)
    1  A    between atoms: CA_1  and  C_11
    2  A    between atoms: CA_1  and  N_19
    3  A    between atoms: CA_1  and  C_21
    4  A    between atoms: C_5  and  C_13
    5  A    between atoms: C_5  and  C_26
    6  A    between atoms: C_10  and  N_23
    7  A    between atoms: N_19  and  C_26
                            x       y       z     vdW  Elec       q    Type
                         _______ _______ _______ _____ _____    ______ ____

>  <TORSDO>
F 7

$$$$
=
 OpenBabel11072414233D

 26 28  0  0  1  0  0  0  0  0999 V2000
  161.3500  207.0290  149.7520 C   0  0  2  0  0  3  0  0  0  0  0  0
  160.8490  203.6220  151.3640 C   0  0  0  0  0  3  0  0  0  0  0  0
  161.2010  204.6950  148.7830 C   0  0  0  0  0  3  0  0  0  0  0  0
  160.8920  200.9710  148.7290 C   0  0  0  0  0  3  0  0  0  0  0  0
  161.1700  205.5480  149.9030 C   0  0  0  0  0  0  0  0  0  0  0  0
  160.7650  201.3300  150.2180 C   0  0  0  0  0  3  0  0  0  0  0  0
  160.9920  205.0070  151.1900 C   0  0  0  0  0  2  0  0  0  0  0  0
  161.0740  202.2760  147.9410 C   0  0  0  0  0  3  0  0  0  0  0  0
  160.8890  202.8010  150.2370 C   0  0  0  0  0  0  0  0  0  0  0  0
  161.0570  203.3230  148.9830 C   0  0  0  0  0  0  0  0  0  0  0  0
  162.8130  207.8560  148.0430 O   0  0  0  0  0  1  0  0  0  0  0  0
  160.7350  207.1920  147.3420 O   0  0  0  0  0  0  0  0  0  0  0  0
  161.6790  207.3930  148.3390 C   0  0  0  0  0  0  0  0  0  0  0  0
  162.3790  207.5240  150.6600 N   0  0  0  0  0  2  0  0  0  0  0  0
  161.9500  208.8170  151.1820 C   0  0  0  0  0  2  0  0  0  0  0  0
  160.7510  208.6620  152.1120 C   0  0  0  0  0  2  0  0  0  0  0  0
  160.8060  207.2740  154.1550 C   0  0  0  0  0  3  0  0  0  0  0  0
  161.2220  210.9650  153.9820 F   0  0  0  0  0  0  0  0  0  0  0  0
  160.7800  209.5620  155.8590 C   0  0  2  0  0  3  0  0  0  0  0  0
  161.1770  208.6150  153.5720 C   0  0  2  0  0  3  0  0  0  0  0  0
  160.5890  209.7920  154.3590 C   0  0  2  0  0  3  0  0  0  0  0  0
  160.3330  207.1290  155.4010 C   0  0  0  0  0  3  0  0  0  0  0  0
  160.0280  208.3030  156.2920 C   0  0  0  0  0  2  0  0  0  0  0  0
  158.9640  210.9110  156.7910 O   0  0  0  0  0  0  0  0  0  0  0  0
  161.1240  211.5280  157.1090 O   0  0  0  0  0  0  0  0  0  0  0  0
  160.3140  210.7110  156.6250 N   0  0  0  0  0  0  0  0  0  0  0  0
  1 13  1  6  0  0  0
  1  5  1  0  0  0  0
  1 14  1  0  0  0  0
  3 10  1  0  0  0  0
  3  5  2  0  0  0  0
  4  6  2  0  0  0  0
  5  7  1  0  0  0  0
  6  9  1  0  0  0  0
  7  2  1  0  0  0  0
  8  4  1  0  0  0  0
  8 10  2  0  0  0  0
  9  2  2  0  0  0  0
 10  9  1  0  0  0  0
 11 13  1  0  0  0  0
 12 13  2  0  0  0  0
 14 15  1  0  0  0  0
 15 16  1  0  0  0  0
 17 22  2  0  0  0  0
 19 23  1  0  0  0  0
 19 26  1  1  0  0  0
 20 16  1  6  0  0  0
 20 17  1  0  0  0  0
 20 21  1  0  0  0  0
 21 18  1  6  0  0  0
 21 19  1  0  0  0  0
 22 23  1  0  0  0  0
 26 24  2  0  0  0  0
 26 25  2  0  0  0  0
M  END
>  <MODEL>
2

>  <REMARK>
 VINA RESULT:      -8.9      1.997      2.503
  Name = 
  7 active torsions:
  status: ('A' for Active; 'I' for Inactive)
    1  A    between atoms: CA_1  and  C_11
    2  A    between atoms: CA_1  and  N_19
    3  A    between atoms: CA_1  and  C_21
    4  A    between atoms: C_5  and  C_13
    5  A    between atoms: C_5  and  C_26
    6  A    between atoms: C_10  and  N_23
    7  A    between atoms: N_19  and  C_26
                            x       y       z     vdW  Elec       q    Type
                         _______ _______ _______ _____ _____    ______ ____

>  <TORSDO>
F 7

$$$$
=
 OpenBabel11072414233D

 26 28  0  0  1  0  0  0  0  0999 V2000
  161.1460  203.4630  150.2130 C   0  0  2  0  0  3  0  0  0  0  0  0
  160.5060  206.2640  147.7220 C   0  0  0  0  0  3  0  0  0  0  0  0
  161.4990  203.6280  147.7120 C   0  0  0  0  0  3  0  0  0  0  0  0
  161.4330  205.1200  144.2860 C   0  0  0  0  0  3  0  0  0  0  0  0
  161.0890  204.2210  148.9210 C   0  0  0  0  0  0  0  0  0  0  0  0
  160.8890  206.2400  145.1870 C   0  0  0  0  0  3  0  0  0  0  0  0
  160.5960  205.5400  148.9200 C   0  0  0  0  0  2  0  0  0  0  0  0
  161.7660  203.9150  145.1770 C   0  0  0  0  0  3  0  0  0  0  0  0
  160.9140  205.6480  146.5390 C   0  0  0  0  0  0  0  0  0  0  0  0
  161.3990  204.3680  146.5340 C   0  0  0  0  0  0  0  0  0  0  0  0
  161.4100  201.0970  150.4830 O   0  0  0  0  0  1  0  0  0  0  0  0
  159.5250  201.7690  149.3680 O   0  0  0  0  0  0  0  0  0  0  0  0
  160.7160  202.0430  150.0260 C   0  0  0  0  0  0  0  0  0  0  0  0
  160.3300  204.1130  151.2340 N   0  0  0  0  0  2  0  0  0  0  0  0
  161.1540  204.3200  152.4200 C   0  0  0  0  0  2  0  0  0  0  0  0
  162.0400  205.5520  152.2630 C   0  0  0  0  0  2  0  0  0  0  0  0
  161.7460  207.8240  151.3390 C   0  0  0  0  0  3  0  0  0  0  0  0
  160.4690  206.5870  154.6050 F   0  0  0  0  0  0  0  0  0  0  0  0
  160.6850  208.8190  153.7950 C   0  0  2  0  0  3  0  0  0  0  0  0
  161.2320  206.8380  152.3590 C   0  0  2  0  0  3  0  0  0  0  0  0
  161.2420  207.3940  153.7880 C   0  0  2  0  0  3  0  0  0  0  0  0
  161.8540  209.1370  151.5890 C   0  0  0  0  0  3  0  0  0  0  0  0
  161.5740  209.7280  152.9450 C   0  0  0  0  0  2  0  0  0  0  0  0
  161.7500  209.6430  155.8380 O   0  0  0  0  0  0  0  0  0  0  0  0
  159.4900  209.4770  155.7130 O   0  0  0  0  0  0  0  0  0  0  0  0
  160.5970  209.3360  155.1540 N   0  0  0  0  0  0  0  0  0  0  0  0
  1 13  1  6  0  0  0
  1 14  1  0  0  0  0
  2  7  1  0  0  0  0
  3  5  2  0  0  0  0
  4  8  1  0  0  0  0
  4  6  2  0  0  0  0
  5  1  1  0  0  0  0
  6  9  1  0  0  0  0
  7  5  1  0  0  0  0
  8 10  2  0  0  0  0
  9  2  2  0  0  0  0
 10  9  1  0  0  0  0
 10  3  1  0  0  0  0
 12 13  2  0  0  0  0
 13 11  1  0  0  0  0
 14 15  1  0  0  0  0
 16 15  1  0  0  0  0
 17 22  2  0  0  0  0
 17 20  1  0  0  0  0
 19 26  1  1  0  0  0
 20 16  1  1  0  0  0
 20 21  1  0  0  0  0
 21 19  1  0  0  0  0
 21 18  1  1  0  0  0
 22 23  1  0  0  0  0
 23 19  1  0  0  0  0
 26 25  2  0  0  0  0
 26 24  2  0  0  0  0
M  END
>  <MODEL>
3

>  <REMARK>
 VINA RESULT:      -8.8      2.453      3.848
  Name = 
  7 active torsions:
  status: ('A' for Active; 'I' for Inactive)
    1  A    between atoms: CA_1  and  C_11
    2  A    between atoms: CA_1  and  N_19
    3  A    between atoms: CA_1  and  C_21
    4  A    between atoms: C_5  and  C_13
    5  A    between atoms: C_5  and  C_26
    6  A    between atoms: C_10  and  N_23
    7  A    between atoms: N_19  and  C_26
                            x       y       z     vdW  Elec       q    Type
                         _______ _______ _______ _____ _____    ______ ____

>  <TORSDO>
F 7

$$$$
=
 OpenBabel11072414233D

 26 28  0  0  1  0  0  0  0  0999 V2000
  161.0580  203.3000  150.1480 C   0  0  2  0  0  3  0  0  0  0  0  0
  160.5310  206.2010  147.7480 C   0  0  0  0  0  3  0  0  0  0  0  0
  161.4230  203.5310  147.6540 C   0  0  0  0  0  3  0  0  0  0  0  0
  161.4210  205.1340  144.2780 C   0  0  0  0  0  3  0  0  0  0  0  0
  161.0340  204.1010  148.8810 C   0  0  0  0  0  0  0  0  0  0  0  0
  160.9180  206.2440  145.2130 C   0  0  0  0  0  3  0  0  0  0  0  0
  160.5910  205.4360  148.9220 C   0  0  0  0  0  2  0  0  0  0  0  0
  161.7060  203.8890  145.1300 C   0  0  0  0  0  3  0  0  0  0  0  0
  160.9180  205.6080  146.5460 C   0  0  0  0  0  0  0  0  0  0  0  0
  161.3540  204.3120  146.5010 C   0  0  0  0  0  0  0  0  0  0  0  0
  161.4600  200.9380  150.1830 O   0  0  0  0  0  1  0  0  0  0  0  0
  159.4200  201.5910  149.3690 O   0  0  0  0  0  0  0  0  0  0  0  0
  160.6720  201.8780  149.8970 C   0  0  0  0  0  0  0  0  0  0  0  0
  160.1880  203.8950  151.1570 N   0  0  0  0  0  2  0  0  0  0  0  0
  160.9840  204.1720  152.3480 C   0  0  0  0  0  2  0  0  0  0  0  0
  162.3380  204.7680  151.9750 C   0  0  0  0  0  2  0  0  0  0  0  0
  161.4220  206.5330  153.4410 C   0  0  0  0  0  3  0  0  0  0  0  0
  163.3850  207.0490  150.3260 F   0  0  0  0  0  0  0  0  0  0  0  0
  162.0520  208.5890  151.5660 C   0  0  2  0  0  3  0  0  0  0  0  0
  162.4260  206.2380  152.3540 C   0  0  2  0  0  3  0  0  0  0  0  0
  162.2570  207.1380  151.1240 C   0  0  2  0  0  3  0  0  0  0  0  0
  160.7110  207.6680  153.4860 C   0  0  0  0  0  3  0  0  0  0  0  0
  160.7720  208.7040  152.3950 C   0  0  0  0  0  2  0  0  0  0  0  0
  161.9940  208.9460  149.1460 O   0  0  0  0  0  0  0  0  0  0  0  0
  161.9400  210.7170  150.5650 O   0  0  0  0  0  0  0  0  0  0  0  0
  161.9830  209.4780  150.4140 N   0  0  0  0  0  0  0  0  0  0  0  0
  1 13  1  6  0  0  0
  1 14  1  0  0  0  0
  2  7  1  0  0  0  0
  3  5  2  0  0  0  0
  4  8  1  0  0  0  0
  4  6  2  0  0  0  0
  5  7  1  0  0  0  0
  5  1  1  0  0  0  0
  6  9  1  0  0  0  0
  8 10  2  0  0  0  0
  9  2  2  0  0  0  0
 10  9  1  0  0  0  0
 10  3  1  0  0  0  0
 12 13  2  0  0  0  0
 13 11  1  0  0  0  0
 14 15  1  0  0  0  0
 16 15  1  0  0  0  0
 17 22  2  0  0  0  0
 19 26  1  6  0  0  0
 19 23  1  0  0  0  0
 20 16  1  6  0  0  0
 20 17  1  0  0  0  0
 21 18  1  6  0  0  0
 21 19  1  0  0  0  0
 21 20  1  0  0  0  0
 23 22  1  0  0  0  0
 24 26  2  0  0  0  0
 26 25  2  0  0  0  0
M  END
>  <MODEL>
4

>  <REMARK>
 VINA RESULT:      -8.7      2.948      4.527
  Name = 
  7 active torsions:
  status: ('A' for Active; 'I' for Inactive)
    1  A    between atoms: CA_1  and  C_11
    2  A    between atoms: CA_1  and  N_19
    3  A    between atoms: CA_1  and  C_21
    4  A    between atoms: C_5  and  C_13
    5  A    between atoms: C_5  and  C_26
    6  A    between atoms: C_10  and  N_23
    7  A    between atoms: N_19  and  C_26
                            x       y       z     vdW  Elec       q    Type
                         _______ _______ _______ _____ _____    ______ ____

>  <TORSDO>
F 7

$$$$
=
 OpenBabel11072414233D

 26 28  0  0  1  0  0  0  0  0999 V2000
  162.1410  208.1600  150.1390 C   0  0  2  0  0  3  0  0  0  0  0  0
  161.3670  206.1270  153.2570 C   0  0  0  0  0  3  0  0  0  0  0  0
  161.2370  208.8110  152.4120 C   0  0  0  0  0  3  0  0  0  0  0  0
  160.0020  208.3770  155.9120 C   0  0  0  0  0  3  0  0  0  0  0  0
  161.7170  207.8190  151.5360 C   0  0  0  0  0  0  0  0  0  0  0  0
  160.4040  206.9570  155.4850 C   0  0  0  0  0  2  0  0  0  0  0  0
  161.7820  206.4800  151.9650 C   0  0  0  0  0  3  0  0  0  0  0  0
  160.2910  209.3250  154.7400 C   0  0  0  0  0  3  0  0  0  0  0  0
  160.8900  207.1300  154.1010 C   0  0  0  0  0  0  0  0  0  0  0  0
  160.8300  208.4350  153.6910 C   0  0  0  0  0  0  0  0  0  0  0  0
  162.6890  210.3650  150.9010 O   0  0  0  0  0  1  0  0  0  0  0  0
  161.9650  210.2100  148.7320 O   0  0  0  0  0  0  0  0  0  0  0  0
  162.2750  209.6380  149.9590 C   0  0  0  0  0  0  0  0  0  0  0  0
  161.2060  207.6100  149.1630 N   0  0  0  0  0  2  0  0  0  0  0  0
  161.9720  206.9590  148.1060 C   0  0  0  0  0  2  0  0  0  0  0  0
  161.0940  206.0060  147.3000 C   0  0  0  0  0  2  0  0  0  0  0  0
  161.5590  203.9700  145.9800 C   0  0  0  0  0  3  0  0  0  0  0  0
  161.2200  204.1740  149.6770 F   0  0  0  0  0  0  0  0  0  0  0  0
  161.1910  202.2700  148.2420 C   0  0  2  0  0  3  0  0  0  0  0  0
  161.6160  204.5780  147.3600 C   0  0  2  0  0  3  0  0  0  0  0  0
  160.8590  203.7550  148.4080 C   0  0  2  0  0  3  0  0  0  0  0  0
  161.2080  202.6950  145.7620 C   0  0  0  0  0  3  0  0  0  0  0  0
  160.7350  201.7870  146.8650 C   0  0  0  0  0  2  0  0  0  0  0  0
  159.1900  201.3330  149.2920 O   0  0  0  0  0  0  0  0  0  0  0  0
  161.2380  200.9460  150.1880 O   0  0  0  0  0  0  0  0  0  0  0  0
  160.5570  201.4760  149.2860 N   0  0  0  0  0  0  0  0  0  0  0  0
  1 14  1  6  0  0  0
  1  5  1  0  0  0  0
  2  9  1  0  0  0  0
  3 10  1  0  0  0  0
  5  7  1  0  0  0  0
  5  3  2  0  0  0  0
  6  4  1  0  0  0  0
  7  2  2  0  0  0  0
  8  4  2  0  0  0  0
  9  6  1  0  0  0  0
 10  9  2  0  0  0  0
 10  8  1  0  0  0  0
 12 13  2  0  0  0  0
 13  1  1  0  0  0  0
 13 11  1  0  0  0  0
 15 14  1  0  0  0  0
 16 15  1  0  0  0  0
 17 20  1  0  0  0  0
 19 21  1  0  0  0  0
 19 26  1  1  0  0  0
 20 16  1  6  0  0  0
 20 21  1  0  0  0  0
 21 18  1  1  0  0  0
 22 17  2  0  0  0  0
 22 23  1  0  0  0  0
 23 19  1  0  0  0  0
 26 24  2  0  0  0  0
 26 25  2  0  0  0  0
M  END
>  <MODEL>
5

>  <REMARK>
 VINA RESULT:      -8.3      3.037      7.004
  Name = 
  7 active torsions:
  status: ('A' for Active; 'I' for Inactive)
    1  A    between atoms: CA_1  and  C_11
    2  A    between atoms: CA_1  and  N_19
    3  A    between atoms: CA_1  and  C_21
    4  A    between atoms: C_5  and  C_13
    5  A    between atoms: C_5  and  C_26
    6  A    between atoms: C_10  and  N_23
    7  A    between atoms: N_19  and  C_26
                            x       y       z     vdW  Elec       q    Type
                         _______ _______ _______ _____ _____    ______ ____

>  <TORSDO>
F 7

$$$$
=
 OpenBabel11072414233D

 26 28  0  0  1  0  0  0  0  0999 V2000
  161.8790  207.7680  150.1420 C   0  0  2  0  0  3  0  0  0  0  0  0
  161.2840  205.9640  153.4360 C   0  0  0  0  0  3  0  0  0  0  0  0
  161.1130  208.5840  152.4130 C   0  0  0  0  0  3  0  0  0  0  0  0
  160.0860  208.4050  156.0020 C   0  0  0  0  0  3  0  0  0  0  0  0
  161.5380  207.5290  151.5820 C   0  0  0  0  0  0  0  0  0  0  0  0
  160.4580  206.9550  155.6520 C   0  0  0  0  0  2  0  0  0  0  0  0
  161.6230  206.2230  152.1000 C   0  0  0  0  0  3  0  0  0  0  0  0
  160.3080  209.2660  154.7510 C   0  0  0  0  0  3  0  0  0  0  0  0
  160.8620  207.0280  154.2340 C   0  0  0  0  0  0  0  0  0  0  0  0
  160.7810  208.3010  153.7370 C   0  0  0  0  0  0  0  0  0  0  0  0
  161.9390  209.6950  148.7180 O   0  0  0  0  0  0  0  0  0  0  0  0
  162.4730  210.0620  150.9160 O   0  0  0  0  0  1  0  0  0  0  0  0
  162.1050  209.2220  149.8740 C   0  0  0  0  0  0  0  0  0  0  0  0
  160.8360  207.2440  149.2660 N   0  0  0  0  0  2  0  0  0  0  0  0
  161.4680  206.7240  148.0580 C   0  0  0  0  0  2  0  0  0  0  0  0
  162.1140  205.3670  148.3170 C   0  0  0  0  0  2  0  0  0  0  0  0
  160.9400  203.6860  149.6950 C   0  0  0  0  0  3  0  0  0  0  0  0
  161.2440  203.6810  145.9890 F   0  0  0  0  0  0  0  0  0  0  0  0
  160.5800  201.9350  147.4710 C   0  0  2  0  0  3  0  0  0  0  0  0
  161.0870  204.2460  148.3020 C   0  0  2  0  0  3  0  0  0  0  0  0
  161.4480  203.1780  147.2630 C   0  0  2  0  0  3  0  0  0  0  0  0
  160.7850  202.3770  149.9400 C   0  0  0  0  0  3  0  0  0  0  0  0
  160.8500  201.3380  148.8530 C   0  0  0  0  0  2  0  0  0  0  0  0
  161.5700  199.8190  146.7460 O   0  0  0  0  0  0  0  0  0  0  0  0
  160.4260  201.1090  145.2720 O   0  0  0  0  0  0  0  0  0  0  0  0
  160.8390  200.9410  146.4380 N   0  0  0  0  0  0  0  0  0  0  0  0
  1 14  1  6  0  0  0
  1  5  1  0  0  0  0
  2  9  1  0  0  0  0
  3 10  1  0  0  0  0
  5  7  1  0  0  0  0
  5  3  2  0  0  0  0
  6  4  1  0  0  0  0
  7  2  2  0  0  0  0
  8  4  2  0  0  0  0
  9  6  1  0  0  0  0
 10  9  2  0  0  0  0
 10  8  1  0  0  0  0
 11 13  2  0  0  0  0
 13  1  1  0  0  0  0
 13 12  1  0  0  0  0
 15 16  1  0  0  0  0
 15 14  1  0  0  0  0
 17 22  2  0  0  0  0
 19 26  1  6  0  0  0
 19 23  1  0  0  0  0
 20 16  1  1  0  0  0
 20 17  1  0  0  0  0
 21 18  1  6  0  0  0
 21 19  1  0  0  0  0
 21 20  1  0  0  0  0
 23 22  1  0  0  0  0
 25 26  2  0  0  0  0
 26 24  2  0  0  0  0
M  END
>  <MODEL>
6

>  <REMARK>
 VINA RESULT:      -8.2      3.141      7.448
  Name = 
  7 active torsions:
  status: ('A' for Active; 'I' for Inactive)
    1  A    between atoms: CA_1  and  C_11
    2  A    between atoms: CA_1  and  N_19
    3  A    between atoms: CA_1  and  C_21
    4  A    between atoms: C_5  and  C_13
    5  A    between atoms: C_5  and  C_26
    6  A    between atoms: C_10  and  N_23
    7  A    between atoms: N_19  and  C_26
                            x       y       z     vdW  Elec       q    Type
                         _______ _______ _______ _____ _____    ______ ____

>  <TORSDO>
F 7

$$$$
=
 OpenBabel11072414233D

 26 28  0  0  1  0  0  0  0  0999 V2000
  161.3160  207.0520  150.1110 C   0  0  2  0  0  3  0  0  0  0  0  0
  160.9110  203.5300  151.4840 C   0  0  0  0  0  3  0  0  0  0  0  0
  161.1620  204.7930  148.9790 C   0  0  0  0  0  3  0  0  0  0  0  0
  160.8950  201.0790  148.6610 C   0  0  0  0  0  3  0  0  0  0  0  0
  161.1590  205.5620  150.1580 C   0  0  0  0  0  0  0  0  0  0  0  0
  160.8150  201.3260  150.1760 C   0  0  0  0  0  3  0  0  0  0  0  0
  161.0310  204.9250  151.4070 C   0  0  0  0  0  2  0  0  0  0  0  0
  161.0350  202.4400  147.9660 C   0  0  0  0  0  3  0  0  0  0  0  0
  160.9220  202.7940  150.2990 C   0  0  0  0  0  0  0  0  0  0  0  0
  161.0410  203.4080  149.0820 C   0  0  0  0  0  0  0  0  0  0  0  0
  160.9680  207.9380  147.9110 O   0  0  0  0  0  0  0  0  0  0  0  0
  163.1410  207.4710  148.4660 O   0  0  0  0  0  1  0  0  0  0  0  0
  161.7860  207.5040  148.7650 C   0  0  0  0  0  0  0  0  0  0  0  0
  162.2290  207.5130  151.1510 N   0  0  0  0  0  2  0  0  0  0  0  0
  161.9990  208.9370  151.3690 C   0  0  0  0  0  2  0  0  0  0  0  0
  160.7210  209.1700  152.1690 C   0  0  0  0  0  2  0  0  0  0  0  0
  161.7950  210.4080  154.0180 C   0  0  0  0  0  3  0  0  0  0  0  0
  158.5740  211.2600  152.3680 F   0  0  0  0  0  0  0  0  0  0  0  0
  159.4920  212.0420  154.4240 C   0  0  2  0  0  3  0  0  0  0  0  0
  160.7640  210.4920  152.9190 C   0  0  2  0  0  3  0  0  0  0  0  0
  159.3730  210.8830  153.4330 C   0  0  2  0  0  3  0  0  0  0  0  0
  161.6140  210.9540  155.2280 C   0  0  0  0  0  3  0  0  0  0  0  0
  160.3200  211.6090  155.6340 C   0  0  0  0  0  2  0  0  0  0  0  0
  157.5020  211.7890  155.8260 O   0  0  0  0  0  0  0  0  0  0  0  0
  157.6420  213.4960  154.3380 O   0  0  0  0  0  0  0  0  0  0  0  0
  158.1750  212.4940  154.8560 N   0  0  0  0  0  0  0  0  0  0  0  0
  1 13  1  6  0  0  0
  1  5  1  0  0  0  0
  1 14  1  0  0  0  0
  3 10  1  0  0  0  0
  3  5  2  0  0  0  0
  4  6  2  0  0  0  0
  5  7  1  0  0  0  0
  6  9  1  0  0  0  0
  7  2  1  0  0  0  0
  8  4  1  0  0  0  0
  8 10  2  0  0  0  0
  9  2  2  0  0  0  0
 10  9  1  0  0  0  0
 11 13  2  0  0  0  0
 12 13  1  0  0  0  0
 14 15  1  0  0  0  0
 15 16  1  0  0  0  0
 17 22  2  0  0  0  0
 19 26  1  1  0  0  0
 19 23  1  0  0  0  0
 20 16  1  1  0  0  0
 20 21  1  0  0  0  0
 20 17  1  0  0  0  0
 21 18  1  6  0  0  0
 21 19  1  0  0  0  0
 22 23  1  0  0  0  0
 25 26  2  0  0  0  0
 26 24  2  0  0  0  0
M  END
>  <MODEL>
7

>  <REMARK>
 VINA RESULT:      -8.1      2.674      3.126
  Name = 
  7 active torsions:
  status: ('A' for Active; 'I' for Inactive)
    1  A    between atoms: CA_1  and  C_11
    2  A    between atoms: CA_1  and  N_19
    3  A    between atoms: CA_1  and  C_21
    4  A    between atoms: C_5  and  C_13
    5  A    between atoms: C_5  and  C_26
    6  A    between atoms: C_10  and  N_23
    7  A    between atoms: N_19  and  C_26
                            x       y       z     vdW  Elec       q    Type
                         _______ _______ _______ _____ _____    ______ ____

>  <TORSDO>
F 7

$$$$
=
 OpenBabel11072414233D

 26 28  0  0  1  0  0  0  0  0999 V2000
  161.2640  206.6190  151.5470 C   0  0  2  0  0  3  0  0  0  0  0  0
  160.5840  209.6850  153.6900 C   0  0  0  0  0  3  0  0  0  0  0  0
  160.8310  206.8990  154.0260 C   0  0  0  0  0  3  0  0  0  0  0  0
  160.1850  208.6550  157.2610 C   0  0  0  0  0  3  0  0  0  0  0  0
  160.9640  207.4690  152.7450 C   0  0  0  0  0  0  0  0  0  0  0  0
  160.2060  209.7890  156.2240 C   0  0  0  0  0  3  0  0  0  0  0  0
  160.8370  208.8610  152.5830 C   0  0  0  0  0  3  0  0  0  0  0  0
  160.4220  207.3310  156.5200 C   0  0  0  0  0  2  0  0  0  0  0  0
  160.4630  209.0930  154.9470 C   0  0  0  0  0  0  0  0  0  0  0  0
  160.5810  207.7390  155.1100 C   0  0  0  0  0  0  0  0  0  0  0  0
  163.0940  205.1680  152.0870 O   0  0  0  0  0  0  0  0  0  0  0  0
  161.0080  204.2280  152.2040 O   0  0  0  0  0  1  0  0  0  0  0  0
  161.8490  205.3030  151.9510 C   0  0  0  0  0  0  0  0  0  0  0  0
  162.1570  207.3130  150.6260 N   0  0  0  0  0  2  0  0  0  0  0  0
  161.3890  207.7100  149.4500 C   0  0  0  0  0  2  0  0  0  0  0  0
  160.6150  206.5280  148.8770 C   0  0  0  0  0  2  0  0  0  0  0  0
  162.0870  206.1140  146.9360 C   0  0  0  0  0  3  0  0  0  0  0  0
  160.6590  203.5430  149.2120 F   0  0  0  0  0  0  0  0  0  0  0  0
  161.6750  203.2940  147.0690 C   0  0  2  0  0  3  0  0  0  0  0  0
  161.5420  205.5210  148.2120 C   0  0  2  0  0  3  0  0  0  0  0  0
  160.8360  204.1780  147.9940 C   0  0  2  0  0  3  0  0  0  0  0  0
  162.2570  205.3970  145.8160 C   0  0  0  0  0  3  0  0  0  0  0  0
  161.8190  203.9620  145.7010 C   0  0  0  0  0  2  0  0  0  0  0  0
  161.2080  201.0520  147.9300 O   0  0  0  0  0  0  0  0  0  0  0  0
  160.4570  201.6680  145.8790 O   0  0  0  0  0  0  0  0  0  0  0  0
  161.0720  201.9760  146.9210 N   0  0  0  0  0  0  0  0  0  0  0  0
  1 14  1  6  0  0  0
  1 13  1  0  0  0  0
  1  5  1  0  0  0  0
  2  9  1  0  0  0  0
  3 10  1  0  0  0  0
  5  3  2  0  0  0  0
  6  4  2  0  0  0  0
  7  5  1  0  0  0  0
  7  2  2  0  0  0  0
  8  4  1  0  0  0  0
  9 10  2  0  0  0  0
  9  6  1  0  0  0  0
 10  8  1  0  0  0  0
 13 11  2  0  0  0  0
 13 12  1  0  0  0  0
 15 14  1  0  0  0  0
 16 15  1  0  0  0  0
 17 20  1  0  0  0  0
 19 26  1  6  0  0  0
 19 21  1  0  0  0  0
 20 16  1  6  0  0  0
 21 20  1  0  0  0  0
 21 18  1  1  0  0  0
 22 17  2  0  0  0  0
 23 22  1  0  0  0  0
 23 19  1  0  0  0  0
 25 26  2  0  0  0  0
 26 24  2  0  0  0  0
M  END
>  <MODEL>
8

>  <REMARK>
 VINA RESULT:      -7.9      2.869      7.572
  Name = 
  7 active torsions:
  status: ('A' for Active; 'I' for Inactive)
    1  A    between atoms: CA_1  and  C_11
    2  A    between atoms: CA_1  and  N_19
    3  A    between atoms: CA_1  and  C_21
    4  A    between atoms: C_5  and  C_13
    5  A    between atoms: C_5  and  C_26
    6  A    between atoms: C_10  and  N_23
    7  A    between atoms: N_19  and  C_26
                            x       y       z     vdW  Elec       q    Type
                         _______ _______ _______ _____ _____    ______ ____

>  <TORSDO>
F 7

$$$$
=
 OpenBabel11072414233D

 26 28  0  0  1  0  0  0  0  0999 V2000
  161.3350  204.2000  150.5500 C   0  0  2  0  0  3  0  0  0  0  0  0
  160.3780  206.4950  147.6730 C   0  0  0  0  0  3  0  0  0  0  0  0
  161.6100  203.9890  148.0420 C   0  0  0  0  0  3  0  0  0  0  0  0
  161.3220  204.8970  144.4280 C   0  0  0  0  0  3  0  0  0  0  0  0
  161.1770  204.7320  149.1570 C   0  0  0  0  0  0  0  0  0  0  0  0
  160.6990  206.0960  145.1610 C   0  0  0  0  0  3  0  0  0  0  0  0
  160.5640  205.9850  148.9660 C   0  0  0  0  0  2  0  0  0  0  0  0
  161.7860  203.8860  145.4850 C   0  0  0  0  0  3  0  0  0  0  0  0
  160.8120  205.7340  146.5880 C   0  0  0  0  0  0  0  0  0  0  0  0
  161.4130  204.5180  146.7670 C   0  0  0  0  0  0  0  0  0  0  0  0
  161.5720  201.9910  151.4490 O   0  0  0  0  0  1  0  0  0  0  0  0
  160.0410  202.2220  149.7600 O   0  0  0  0  0  0  0  0  0  0  0  0
  161.0040  202.7430  150.6130 C   0  0  0  0  0  0  0  0  0  0  0  0
  160.5110  204.9520  151.4900 N   0  0  0  0  0  2  0  0  0  0  0  0
  161.3890  205.5790  152.4730 C   0  0  0  0  0  2  0  0  0  0  0  0
  161.2360  207.0970  152.4540 C   0  0  0  0  0  2  0  0  0  0  0  0
  160.5830  206.8530  154.8240 C   0  0  0  0  0  3  0  0  0  0  0  0
  161.9280  209.9210  153.2090 F   0  0  0  0  0  0  0  0  0  0  0  0
  160.8260  209.6550  155.3070 C   0  0  2  0  0  3  0  0  0  0  0  0
  161.3720  207.6900  153.8480 C   0  0  2  0  0  3  0  0  0  0  0  0
  160.9660  209.1690  153.8630 C   0  0  2  0  0  3  0  0  0  0  0  0
  159.8760  207.3850  155.8320 C   0  0  0  0  0  3  0  0  0  0  0  0
  159.7200  208.8710  156.0140 C   0  0  0  0  0  2  0  0  0  0  0  0
  159.6480  211.6180  154.4440 O   0  0  0  0  0  0  0  0  0  0  0  0
  161.0940  211.8250  156.1800 O   0  0  0  0  0  0  0  0  0  0  0  0
  160.5330  211.0820  155.3490 N   0  0  0  0  0  0  0  0  0  0  0  0
  1 13  1  6  0  0  0
  1 14  1  0  0  0  0
  2  7  1  0  0  0  0
  3  5  2  0  0  0  0
  4  6  2  0  0  0  0
  4  8  1  0  0  0  0
  5  1  1  0  0  0  0
  6  9  1  0  0  0  0
  7  5  1  0  0  0  0
  8 10  2  0  0  0  0
  9 10  1  0  0  0  0
  9  2  2  0  0  0  0
 10  3  1  0  0  0  0
 12 13  2  0  0  0  0
 13 11  1  0  0  0  0
 14 15  1  0  0  0  0
 16 15  1  0  0  0  0
 17 22  2  0  0  0  0
 19 26  1  6  0  0  0
 19 23  1  0  0  0  0
 20 16  1  6  0  0  0
 20 21  1  0  0  0  0
 20 17  1  0  0  0  0
 21 18  1  1  0  0  0
 21 19  1  0  0  0  0
 22 23  1  0  0  0  0
 24 26  2  0  0  0  0
 26 25  2  0  0  0  0
M  END
>  <MODEL>
9

>  <REMARK>
 VINA RESULT:      -7.9      2.778      4.115
  Name = 
  7 active torsions:
  status: ('A' for Active; 'I' for Inactive)
    1  A    between atoms: CA_1  and  C_11
    2  A    between atoms: CA_1  and  N_19
    3  A    between atoms: CA_1  and  C_21
    4  A    between atoms: C_5  and  C_13
    5  A    between atoms: C_5  and  C_26
    6  A    between atoms: C_10  and  N_23
    7  A    between atoms: N_19  and  C_26
                            x       y       z     vdW  Elec       q    Type
                         _______ _______ _______ _____ _____    ______ ____

>  <TORSDO>
F 7

$$$$
