=
 OpenBabel11072412293D

 33 36  0  0  1  0  0  0  0  0999 V2000
  163.3360  212.6340  147.8330 C   0  0  0  0  0  2  0  0  0  0  0  0
  160.2330  211.5930  152.1770 C   0  0  0  0  0  0  0  0  0  0  0  0
  162.0320  211.8860  148.0420 C   0  0  2  0  0  3  0  0  0  0  0  0
  160.0860  210.7540  154.4420 N   0  0  0  0  0  0  0  0  0  0  0  0
  159.3220  211.2510  153.3080 C   0  0  0  0  0  2  0  0  0  0  0  0
  161.0020  212.5180  147.1120 C   0  0  1  0  0  3  0  0  0  0  0  0
  159.5560  213.2890  150.4450 C   0  0  0  0  0  2  0  0  0  0  0  0
  159.8620  213.0240  147.9800 C   0  0  0  0  0  2  0  0  0  0  0  0
  160.8260  208.7530  153.2470 C   0  0  0  0  0  0  0  0  0  0  0  0
  160.2710  213.0380  151.7770 C   0  0  0  0  0  2  0  0  0  0  0  0
  160.9350  209.2210  151.9890 C   0  0  0  0  0  3  0  0  0  0  0  0
  160.0430  212.3670  149.3290 C   0  0  1  0  0  3  0  0  0  0  0  0
  161.3780  209.2120  155.6400 N   0  0  0  0  0  1  0  0  0  0  0  0
  160.7510  209.6380  154.4340 C   0  0  0  0  0  0  0  0  0  0  0  0
  162.9740  213.9460  147.1690 C   0  0  0  0  0  2  0  0  0  0  0  0
  161.8260  210.8740  150.3270 C   0  0  0  0  0  2  0  0  0  0  0  0
  160.9460  210.6320  151.5410 C   0  0  0  0  0  0  0  0  0  0  0  0
  161.6800  213.6930  146.4170 C   0  0  1  0  0  3  0  0  0  0  0  0
  161.5260  212.0970  149.4550 C   0  0  1  0  0  3  0  0  0  0  0  0
  160.9180  213.4060  144.0390 C   0  0  0  0  0  0  0  0  0  0  0  0
  161.9670  213.3920  145.0130 N   0  0  0  0  0  0  0  0  0  0  0  0
  161.1990  213.1080  142.7110 O   0  0  0  0  0  0  0  0  0  0  0  0
  159.7360  213.6860  144.3740 O   0  0  0  0  0  1  0  0  0  0  0  0
  163.2370  213.1380  144.6100 O   0  0  0  0  0  1  0  0  0  0  0  0
  160.8610  207.3700  153.4840 O   0  0  0  0  0  0  0  0  0  0  0  0
  161.7730  206.4800  152.8480 C   0  0  0  0  0  2  0  0  0  0  0  0
  161.1850  205.0800  152.7820 C   0  0  0  0  0  2  0  0  0  0  0  0
  161.7530  204.3330  151.5800 C   0  0  0  0  0  2  0  0  0  0  0  0
  160.6940  202.5520  150.2560 N   0  0  0  0  0  1  0  0  0  0  0  0
  160.6930  203.9810  150.5320 C   0  0  2  0  0  3  0  0  0  0  0  0
  160.5020  205.9870  149.2490 O   0  0  0  0  0  1  0  0  0  0  0  0
  160.8450  204.7740  149.2700 C   0  0  0  0  0  0  0  0  0  0  0  0
  161.3940  204.1950  148.1310 O   0  0  0  0  0  0  0  0  0  0  0  0
  2  5  1  0  0  0  0
  3  1  1  1  0  0  0
  3 19  1  0  0  0  0
  5  4  1  0  0  0  0
  6  8  1  1  0  0  0
  6  3  1  0  0  0  0
  7 10  1  0  0  0  0
  9 25  1  0  0  0  0
  9 14  1  0  0  0  0
 10  2  1  0  0  0  0
 11  9  2  0  0  0  0
 12  8  1  6  0  0  0
 12 19  1  0  0  0  0
 12  7  1  0  0  0  0
 14  4  2  0  0  0  0
 14 13  1  0  0  0  0
 15  1  1  0  0  0  0
 16 17  1  0  0  0  0
 17 11  1  0  0  0  0
 17  2  2  0  0  0  0
 18 21  1  6  0  0  0
 18  6  1  0  0  0  0
 18 15  1  0  0  0  0
 19 16  1  1  0  0  0
 20 23  1  0  0  0  0
 20 21  1  0  0  0  0
 22 20  2  0  0  0  0
 24 21  1  0  0  0  0
 26 25  1  0  0  0  0
 27 26  1  0  0  0  0
 28 27  1  0  0  0  0
 30 29  1  6  0  0  0
 30 28  1  0  0  0  0
 31 32  1  0  0  0  0
 32 30  1  0  0  0  0
 33 32  2  0  0  0  0
M  END
>  <MODEL>
1

>  <REMARK>
 VINA RESULT:      -6.3      0.000      0.000
  Name = 
  7 active torsions:
  status: ('A' for Active; 'I' for Inactive)
    1  A    between atoms: C_5  and  C_6
    2  A    between atoms: C_5  and  C_13
    3  A    between atoms: C_6  and  CA_24
    4  A    between atoms: N_9  and  C_32
    5  A    between atoms: C_13  and  O_22
    6  A    between atoms: C_18  and  O_22
    7  A    between atoms: CA_24  and  C_29
                            x       y       z     vdW  Elec       q    Type
                         _______ _______ _______ _____ _____    ______ ____

>  <TORSDO>
F 7

$$$$
=
 OpenBabel11072412293D

 33 36  0  0  1  0  0  0  0  0999 V2000
  162.7580  213.2580  147.6300 C   0  0  0  0  0  2  0  0  0  0  0  0
  159.3150  213.1840  151.8390 C   0  0  0  0  0  0  0  0  0  0  0  0
  161.5010  212.4690  147.9500 C   0  0  2  0  0  3  0  0  0  0  0  0
  159.0010  213.0170  154.2330 N   0  0  0  0  0  0  0  0  0  0  0  0
  158.3220  213.0870  152.9490 C   0  0  0  0  0  2  0  0  0  0  0  0
  160.5260  212.6980  146.7990 C   0  0  1  0  0  3  0  0  0  0  0  0
  158.6900  214.2350  149.6400 C   0  0  0  0  0  2  0  0  0  0  0  0
  159.2670  213.3100  147.3910 C   0  0  0  0  0  2  0  0  0  0  0  0
  160.0130  210.8470  153.7390 C   0  0  0  0  0  0  0  0  0  0  0  0
  159.2820  214.4510  151.0360 C   0  0  0  0  0  2  0  0  0  0  0  0
  160.2150  210.9440  152.4110 C   0  0  0  0  0  3  0  0  0  0  0  0
  159.3590  213.0880  148.8840 C   0  0  1  0  0  3  0  0  0  0  0  0
  160.2790  212.0250  155.9260 N   0  0  0  0  0  1  0  0  0  0  0  0
  159.7480  212.0210  154.6040 C   0  0  0  0  0  0  0  0  0  0  0  0
  162.3660  214.2800  146.5840 C   0  0  0  0  0  2  0  0  0  0  0  0
  161.1410  212.1370  150.4090 C   0  0  0  0  0  2  0  0  0  0  0  0
  160.1620  212.1610  151.5710 C   0  0  0  0  0  0  0  0  0  0  0  0
  161.1790  213.6900  145.8430 C   0  0  1  0  0  3  0  0  0  0  0  0
  160.8380  213.0210  149.1960 C   0  0  1  0  0  3  0  0  0  0  0  0
  160.6820  212.5080  143.6820 C   0  0  0  0  0  0  0  0  0  0  0  0
  161.6320  213.0310  144.6160 N   0  0  0  0  0  0  0  0  0  0  0  0
  161.1210  211.8750  142.5250 O   0  0  0  0  0  0  0  0  0  0  0  0
  159.4450  212.6140  143.8970 O   0  0  0  0  0  1  0  0  0  0  0  0
  162.9540  212.9470  144.3280 O   0  0  0  0  0  1  0  0  0  0  0  0
  160.1310  209.6000  154.3740 O   0  0  0  0  0  0  0  0  0  0  0  0
  161.2760  208.7600  154.2660 C   0  0  0  0  0  2  0  0  0  0  0  0
  160.8780  207.3880  153.7490 C   0  0  0  0  0  2  0  0  0  0  0  0
  161.7540  207.0060  152.5610 C   0  0  0  0  0  2  0  0  0  0  0  0
  160.9110  205.5710  150.7500 N   0  0  0  0  0  1  0  0  0  0  0  0
  160.9840  206.9400  151.2390 C   0  0  2  0  0  3  0  0  0  0  0  0
  162.3490  208.7690  150.5350 O   0  0  0  0  0  1  0  0  0  0  0  0
  161.5490  207.8560  150.1960 C   0  0  0  0  0  0  0  0  0  0  0  0
  161.2260  207.6860  148.8540 O   0  0  0  0  0  0  0  0  0  0  0  0
  2  5  1  0  0  0  0
  3  1  1  6  0  0  0
  3 19  1  0  0  0  0
  4 14  2  0  0  0  0
  5  4  1  0  0  0  0
  6  8  1  1  0  0  0
  6  3  1  0  0  0  0
  7 10  1  0  0  0  0
  9 25  1  0  0  0  0
  9 14  1  0  0  0  0
 10  2  1  0  0  0  0
 11  9  2  0  0  0  0
 12  8  1  6  0  0  0
 12 19  1  0  0  0  0
 12  7  1  0  0  0  0
 14 13  1  0  0  0  0
 15  1  1  0  0  0  0
 16 17  1  0  0  0  0
 17  2  2  0  0  0  0
 17 11  1  0  0  0  0
 18 21  1  6  0  0  0
 18 15  1  0  0  0  0
 18  6  1  0  0  0  0
 19 16  1  1  0  0  0
 20 23  1  0  0  0  0
 20 21  1  0  0  0  0
 22 20  2  0  0  0  0
 24 21  1  0  0  0  0
 26 25  1  0  0  0  0
 27 26  1  0  0  0  0
 28 27  1  0  0  0  0
 30 29  1  6  0  0  0
 30 28  1  0  0  0  0
 32 31  1  0  0  0  0
 32 30  1  0  0  0  0
 33 32  2  0  0  0  0
M  END
>  <MODEL>
2

>  <REMARK>
 VINA RESULT:      -6.3      1.731      2.093
  Name = 
  7 active torsions:
  status: ('A' for Active; 'I' for Inactive)
    1  A    between atoms: C_5  and  C_6
    2  A    between atoms: C_5  and  C_13
    3  A    between atoms: C_6  and  CA_24
    4  A    between atoms: N_9  and  C_32
    5  A    between atoms: C_13  and  O_22
    6  A    between atoms: C_18  and  O_22
    7  A    between atoms: CA_24  and  C_29
                            x       y       z     vdW  Elec       q    Type
                         _______ _______ _______ _____ _____    ______ ____

>  <TORSDO>
F 7

$$$$
=
 OpenBabel11072412293D

 33 36  0  0  1  0  0  0  0  0999 V2000
  162.4060  209.0920  150.4980 C   0  0  0  0  0  2  0  0  0  0  0  0
  161.5130  203.7920  151.3300 C   0  0  0  0  0  0  0  0  0  0  0  0
  161.1640  208.2620  150.7660 C   0  0  2  0  0  3  0  0  0  0  0  0
  161.8340  201.5130  150.5820 N   0  0  0  0  0  0  0  0  0  0  0  0
  161.1680  202.3580  151.5610 C   0  0  0  0  0  2  0  0  0  0  0  0
  160.4910  208.8530  152.0010 C   0  0  1  0  0  3  0  0  0  0  0  0
  161.4050  205.4610  153.2110 C   0  0  0  0  0  2  0  0  0  0  0  0
  160.4150  207.7490  153.0440 C   0  0  0  0  0  2  0  0  0  0  0  0
  160.5760  202.4500  148.7070 C   0  0  0  0  0  0  0  0  0  0  0  0
  162.2750  204.4700  152.4300 C   0  0  0  0  0  2  0  0  0  0  0  0
  160.4170  203.7270  149.1050 C   0  0  0  0  0  3  0  0  0  0  0  0
  160.6860  206.4590  152.3040 C   0  0  1  0  0  3  0  0  0  0  0  0
  162.2240  200.5870  148.4670 N   0  0  0  0  0  1  0  0  0  0  0  0
  161.5730  201.5340  149.3090 C   0  0  0  0  0  0  0  0  0  0  0  0
  162.7110  209.8330  151.7840 C   0  0  0  0  0  2  0  0  0  0  0  0
  161.3470  205.9070  149.9250 C   0  0  0  0  0  2  0  0  0  0  0  0
  161.1190  204.4310  150.2020 C   0  0  0  0  0  0  0  0  0  0  0  0
  161.3840  209.9790  152.5080 C   0  0  1  0  0  3  0  0  0  0  0  0
  161.5500  206.8400  151.1220 C   0  0  1  0  0  3  0  0  0  0  0  0
  160.0920  212.0040  153.2450 C   0  0  0  0  0  0  0  0  0  0  0  0
  160.8020  211.2920  152.2260 N   0  0  0  0  0  0  0  0  0  0  0  0
  159.5330  213.2460  152.9650 O   0  0  0  0  0  0  0  0  0  0  0  0
  159.9650  211.5160  154.4000 O   0  0  0  0  0  1  0  0  0  0  0  0
  160.9640  211.8700  151.0100 O   0  0  0  0  0  1  0  0  0  0  0  0
  159.8330  201.9600  147.6210 O   0  0  0  0  0  0  0  0  0  0  0  0
  160.4180  201.4050  146.4460 C   0  0  0  0  0  2  0  0  0  0  0  0
  160.3220  202.3910  145.2940 C   0  0  0  0  0  2  0  0  0  0  0  0
  161.4310  203.4320  145.4070 C   0  0  0  0  0  2  0  0  0  0  0  0
  161.4070  205.3140  143.8240 N   0  0  0  0  0  1  0  0  0  0  0  0
  160.9500  204.8590  145.1280 C   0  0  2  0  0  3  0  0  0  0  0  0
  160.5040  206.6490  146.6460 O   0  0  0  0  0  0  0  0  0  0  0  0
  161.3470  205.8220  146.2050 C   0  0  0  0  0  0  0  0  0  0  0  0
  162.6270  205.7880  146.7490 O   0  0  0  0  0  1  0  0  0  0  0  0
  1 15  1  0  0  0  0
  2  5  1  0  0  0  0
  2 10  1  0  0  0  0
  3  1  1  1  0  0  0
  3 19  1  0  0  0  0
  3  6  1  0  0  0  0
  4  5  1  0  0  0  0
  6 18  1  0  0  0  0
  6  8  1  1  0  0  0
  9 11  2  0  0  0  0
  9 14  1  0  0  0  0
 10  7  1  0  0  0  0
 11 17  1  0  0  0  0
 12  8  1  1  0  0  0
 12  7  1  0  0  0  0
 13 14  1  0  0  0  0
 14  4  2  0  0  0  0
 15 18  1  0  0  0  0
 16 17  1  0  0  0  0
 17  2  2  0  0  0  0
 18 21  1  6  0  0  0
 19 16  1  6  0  0  0
 19 12  1  0  0  0  0
 20 23  1  0  0  0  0
 21 20  1  0  0  0  0
 22 20  2  0  0  0  0
 24 21  1  0  0  0  0
 25  9  1  0  0  0  0
 26 25  1  0  0  0  0
 27 28  1  0  0  0  0
 27 26  1  0  0  0  0
 30 29  1  6  0  0  0
 30 28  1  0  0  0  0
 30 32  1  0  0  0  0
 32 31  2  0  0  0  0
 32 33  1  0  0  0  0
M  END
>  <MODEL>
3

>  <REMARK>
 VINA RESULT:      -6.2      4.078      7.445
  Name = 
  7 active torsions:
  status: ('A' for Active; 'I' for Inactive)
    1  A    between atoms: C_5  and  C_6
    2  A    between atoms: C_5  and  C_13
    3  A    between atoms: C_6  and  CA_24
    4  A    between atoms: N_9  and  C_32
    5  A    between atoms: C_13  and  O_22
    6  A    between atoms: C_18  and  O_22
    7  A    between atoms: CA_24  and  C_29
                            x       y       z     vdW  Elec       q    Type
                         _______ _______ _______ _____ _____    ______ ____

>  <TORSDO>
F 7

$$$$
=
 OpenBabel11072412293D

 33 36  0  0  1  0  0  0  0  0999 V2000
  162.2290  210.6280  154.3120 C   0  0  0  0  0  2  0  0  0  0  0  0
  161.1740  205.7710  152.1060 C   0  0  0  0  0  0  0  0  0  0  0  0
  160.9530  209.8970  153.9350 C   0  0  2  0  0  3  0  0  0  0  0  0
  161.5960  204.1900  150.3230 N   0  0  0  0  0  0  0  0  0  0  0  0
  160.7860  204.4630  151.5000 C   0  0  0  0  0  2  0  0  0  0  0  0
  160.0940  209.8220  155.1920 C   0  0  1  0  0  3  0  0  0  0  0  0
  160.7740  206.2270  154.5480 C   0  0  0  0  0  2  0  0  0  0  0  0
  159.8420  208.3510  155.4780 C   0  0  0  0  0  2  0  0  0  0  0  0
  160.6660  206.0720  149.0710 C   0  0  0  0  0  0  0  0  0  0  0  0
  161.7520  205.7090  153.4880 C   0  0  0  0  0  2  0  0  0  0  0  0
  160.4540  206.9670  150.0550 C   0  0  0  0  0  3  0  0  0  0  0  0
  160.2190  207.6110  154.2150 C   0  0  1  0  0  3  0  0  0  0  0  0
  162.3170  204.4610  148.1110 N   0  0  0  0  0  1  0  0  0  0  0  0
  161.5450  204.8900  149.2290 C   0  0  0  0  0  0  0  0  0  0  0  0
  162.3260  210.5650  155.8230 C   0  0  0  0  0  2  0  0  0  0  0  0
  161.2540  208.3120  152.0140 C   0  0  0  0  0  2  0  0  0  0  0  0
  160.9730  206.9340  151.4410 C   0  0  0  0  0  0  0  0  0  0  0  0
  160.9010  210.4360  156.3300 C   0  0  1  0  0  3  0  0  0  0  0  0
  161.2660  208.4680  153.5370 C   0  0  1  0  0  3  0  0  0  0  0  0
  158.9700  211.9910  156.7420 C   0  0  0  0  0  0  0  0  0  0  0  0
  160.3810  211.7530  156.7050 N   0  0  0  0  0  0  0  0  0  0  0  0
  158.4870  213.2470  157.0890 O   0  0  0  0  0  1  0  0  0  0  0  0
  158.1560  211.0710  156.4620 O   0  0  0  0  0  0  0  0  0  0  0  0
  161.2280  212.7500  157.0630 O   0  0  0  0  0  1  0  0  0  0  0  0
  160.1050  206.2860  147.8010 O   0  0  0  0  0  0  0  0  0  0  0  0
  160.8720  206.5510  146.6310 C   0  0  0  0  0  2  0  0  0  0  0  0
  160.0750  206.1970  145.3860 C   0  0  0  0  0  2  0  0  0  0  0  0
  160.8120  205.1310  144.5820 C   0  0  0  0  0  2  0  0  0  0  0  0
  162.9220  203.9730  145.0880 N   0  0  0  0  0  1  0  0  0  0  0  0
  161.5200  204.0940  145.4600 C   0  0  2  0  0  3  0  0  0  0  0  0
  160.0390  202.4810  144.5070 O   0  0  0  0  0  0  0  0  0  0  0  0
  160.8380  202.7600  145.4400 C   0  0  0  0  0  0  0  0  0  0  0  0
  161.1060  201.8130  146.4230 O   0  0  0  0  0  1  0  0  0  0  0  0
  1 15  1  0  0  0  0
  2 10  1  0  0  0  0
  3  1  1  1  0  0  0
  3  6  1  0  0  0  0
  4  5  1  0  0  0  0
  5  2  1  0  0  0  0
  6  8  1  1  0  0  0
  6 18  1  0  0  0  0
  9 14  1  0  0  0  0
  9 11  2  0  0  0  0
 10  7  1  0  0  0  0
 11 17  1  0  0  0  0
 12  7  1  1  0  0  0
 12  8  1  0  0  0  0
 13 14  1  0  0  0  0
 14  4  2  0  0  0  0
 15 18  1  0  0  0  0
 17 16  1  0  0  0  0
 17  2  2  0  0  0  0
 18 21  1  6  0  0  0
 19 16  1  6  0  0  0
 19  3  1  0  0  0  0
 19 12  1  0  0  0  0
 20 22  1  0  0  0  0
 21 20  1  0  0  0  0
 21 24  1  0  0  0  0
 23 20  2  0  0  0  0
 25  9  1  0  0  0  0
 26 25  1  0  0  0  0
 27 26  1  0  0  0  0
 28 27  1  0  0  0  0
 28 30  1  0  0  0  0
 30 29  1  6  0  0  0
 31 32  2  0  0  0  0
 32 30  1  0  0  0  0
 32 33  1  0  0  0  0
M  END
>  <MODEL>
4

>  <REMARK>
 VINA RESULT:      -5.5      4.870      8.007
  Name = 
  7 active torsions:
  status: ('A' for Active; 'I' for Inactive)
    1  A    between atoms: C_5  and  C_6
    2  A    between atoms: C_5  and  C_13
    3  A    between atoms: C_6  and  CA_24
    4  A    between atoms: N_9  and  C_32
    5  A    between atoms: C_13  and  O_22
    6  A    between atoms: C_18  and  O_22
    7  A    between atoms: CA_24  and  C_29
                            x       y       z     vdW  Elec       q    Type
                         _______ _______ _______ _____ _____    ______ ____

>  <TORSDO>
F 7

$$$$
=
 OpenBabel11072412293D

 33 36  0  0  1  0  0  0  0  0999 V2000
  159.9830  206.9530  149.4980 C   0  0  0  0  0  2  0  0  0  0  0  0
  160.9100  208.1210  154.7280 C   0  0  0  0  0  0  0  0  0  0  0  0
  161.1500  207.5660  150.2490 C   0  0  2  0  0  3  0  0  0  0  0  0
  160.1460  209.1910  156.7600 N   0  0  0  0  0  0  0  0  0  0  0  0
  161.2530  208.4830  156.1340 C   0  0  0  0  0  2  0  0  0  0  0  0
  162.3780  206.7180  149.9340 C   0  0  1  0  0  3  0  0  0  0  0  0
  162.0260  206.1720  153.5920 C   0  0  0  0  0  2  0  0  0  0  0  0
  162.9100  206.1870  151.2550 C   0  0  0  0  0  2  0  0  0  0  0  0
  160.3430  211.1130  155.2620 C   0  0  0  0  0  0  0  0  0  0  0  0
  160.8340  206.6540  154.4260 C   0  0  0  0  0  2  0  0  0  0  0  0
  160.7420  210.5210  154.1210 C   0  0  0  0  0  3  0  0  0  0  0  0
  162.2430  207.0100  152.3330 C   0  0  1  0  0  3  0  0  0  0  0  0
  158.7070  210.9970  157.1470 N   0  0  0  0  0  1  0  0  0  0  0  0
  159.7370  210.3670  156.3900 C   0  0  0  0  0  0  0  0  0  0  0  0
  160.3980  205.5400  149.1410 C   0  0  0  0  0  2  0  0  0  0  0  0
  160.4550  208.8010  152.3180 C   0  0  0  0  0  2  0  0  0  0  0  0
  160.7180  209.0790  153.7880 C   0  0  0  0  0  0  0  0  0  0  0  0
  161.9140  205.5560  149.0620 C   0  0  1  0  0  3  0  0  0  0  0  0
  160.9240  207.4610  151.7450 C   0  0  1  0  0  3  0  0  0  0  0  0
  162.3370  204.6140  146.7710 C   0  0  0  0  0  0  0  0  0  0  0  0
  162.3420  205.7270  147.6720 N   0  0  0  0  0  0  0  0  0  0  0  0
  162.7540  204.7830  145.4560 O   0  0  0  0  0  0  0  0  0  0  0  0
  161.9580  203.4760  147.1580 O   0  0  0  0  0  1  0  0  0  0  0  0
  162.7050  206.9480  147.2090 O   0  0  0  0  0  1  0  0  0  0  0  0
  160.4190  212.5100  155.3880 O   0  0  0  0  0  0  0  0  0  0  0  0
  159.3030  213.3810  155.2320 C   0  0  0  0  0  2  0  0  0  0  0  0
  158.9990  213.5910  153.7580 C   0  0  0  0  0  2  0  0  0  0  0  0
  157.7260  212.8420  153.3780 C   0  0  0  0  0  2  0  0  0  0  0  0
  156.3710  211.2240  154.6410 N   0  0  0  0  0  1  0  0  0  0  0  0
  156.7800  212.6190  154.5620 C   0  0  2  0  0  3  0  0  0  0  0  0
  155.1910  214.0720  155.5950 O   0  0  0  0  0  1  0  0  0  0  0  0
  155.5920  213.5290  154.5300 C   0  0  0  0  0  0  0  0  0  0  0  0
  154.9460  213.8100  153.3300 O   0  0  0  0  0  0  0  0  0  0  0  0
  2  5  1  0  0  0  0
  3  1  1  6  0  0  0
  3 19  1  0  0  0  0
  5  4  1  0  0  0  0
  6  3  1  0  0  0  0
  6  8  1  1  0  0  0
  7 10  1  0  0  0  0
  9 25  1  0  0  0  0
  9 14  1  0  0  0  0
 10  2  1  0  0  0  0
 11  9  2  0  0  0  0
 12  8  1  6  0  0  0
 12  7  1  0  0  0  0
 14  4  2  0  0  0  0
 14 13  1  0  0  0  0
 15  1  1  0  0  0  0
 16 17  1  0  0  0  0
 17 11  1  0  0  0  0
 17  2  2  0  0  0  0
 18 21  1  6  0  0  0
 18 15  1  0  0  0  0
 18  6  1  0  0  0  0
 19 16  1  1  0  0  0
 19 12  1  0  0  0  0
 20 23  1  0  0  0  0
 20 21  1  0  0  0  0
 22 20  2  0  0  0  0
 24 21  1  0  0  0  0
 26 25  1  0  0  0  0
 27 26  1  0  0  0  0
 28 27  1  0  0  0  0
 28 30  1  0  0  0  0
 30 29  1  6  0  0  0
 32 30  1  0  0  0  0
 32 31  1  0  0  0  0
 33 32  2  0  0  0  0
M  END
>  <MODEL>
5

>  <REMARK>
 VINA RESULT:      -5.5      4.639      7.623
  Name = 
  7 active torsions:
  status: ('A' for Active; 'I' for Inactive)
    1  A    between atoms: C_5  and  C_6
    2  A    between atoms: C_5  and  C_13
    3  A    between atoms: C_6  and  CA_24
    4  A    between atoms: N_9  and  C_32
    5  A    between atoms: C_13  and  O_22
    6  A    between atoms: C_18  and  O_22
    7  A    between atoms: CA_24  and  C_29
                            x       y       z     vdW  Elec       q    Type
                         _______ _______ _______ _____ _____    ______ ____

>  <TORSDO>
F 7

$$$$
=
 OpenBabel11072412293D

 33 36  0  0  1  0  0  0  0  0999 V2000
  161.6540  203.6160  151.2430 C   0  0  0  0  0  2  0  0  0  0  0  0
  161.7020  208.9430  152.3360 C   0  0  0  0  0  0  0  0  0  0  0  0
  160.6670  204.7470  151.0170 C   0  0  2  0  0  3  0  0  0  0  0  0
  162.0370  210.7020  153.9640 N   0  0  0  0  0  0  0  0  0  0  0  0
  161.6200  210.4090  152.6020 C   0  0  0  0  0  2  0  0  0  0  0  0
  160.3550  204.7740  149.5240 C   0  0  1  0  0  3  0  0  0  0  0  0
  161.9980  208.0730  149.9940 C   0  0  0  0  0  2  0  0  0  0  0  0
  160.7440  206.1500  149.0080 C   0  0  0  0  0  2  0  0  0  0  0  0
  160.1490  209.5030  154.9510 C   0  0  0  0  0  0  0  0  0  0  0  0
  162.6870  208.5190  151.2880 C   0  0  0  0  0  2  0  0  0  0  0  0
  159.9750  208.5060  154.0630 C   0  0  0  0  0  3  0  0  0  0  0  0
  160.9170  207.0200  150.2320 C   0  0  1  0  0  3  0  0  0  0  0  0
  161.8440  210.7500  156.2980 N   0  0  0  0  0  1  0  0  0  0  0  0
  161.3860  210.3160  155.0210 C   0  0  0  0  0  0  0  0  0  0  0  0
  162.2600  203.3000  149.8910 C   0  0  0  0  0  2  0  0  0  0  0  0
  160.8520  206.5760  152.7230 C   0  0  0  0  0  2  0  0  0  0  0  0
  160.8990  208.0700  152.9920 C   0  0  0  0  0  0  0  0  0  0  0  0
  161.2230  203.7120  148.8600 C   0  0  1  0  0  3  0  0  0  0  0  0
  161.3110  206.0790  151.3490 C   0  0  1  0  0  3  0  0  0  0  0  0
  160.5050  202.0500  147.1160 C   0  0  0  0  0  0  0  0  0  0  0  0
  160.4300  202.5490  148.4560 N   0  0  0  0  0  0  0  0  0  0  0  0
  159.7410  200.9520  146.7400 O   0  0  0  0  0  1  0  0  0  0  0  0
  161.2600  202.5990  146.2690 O   0  0  0  0  0  0  0  0  0  0  0  0
  159.6480  201.9020  149.3560 O   0  0  0  0  0  1  0  0  0  0  0  0
  159.1640  209.7550  155.9190 O   0  0  0  0  0  0  0  0  0  0  0  0
  158.6260  211.0470  156.1850 C   0  0  0  0  0  2  0  0  0  0  0  0
  157.2280  211.1670  155.6020 C   0  0  0  0  0  2  0  0  0  0  0  0
  157.1200  212.4370  154.7660 C   0  0  0  0  0  2  0  0  0  0  0  0
  158.5830  214.4100  154.6450 N   0  0  0  0  0  1  0  0  0  0  0  0
  158.4800  212.9920  154.3320 C   0  0  2  0  0  3  0  0  0  0  0  0
  158.5320  211.6020  152.3910 O   0  0  0  0  0  1  0  0  0  0  0  0
  158.7730  212.7360  152.8860 C   0  0  0  0  0  0  0  0  0  0  0  0
  159.2760  213.7470  152.0750 O   0  0  0  0  0  0  0  0  0  0  0  0
  2  5  1  0  0  0  0
  2 17  2  0  0  0  0
  3  1  1  6  0  0  0
  3 19  1  0  0  0  0
  4 14  2  0  0  0  0
  5  4  1  0  0  0  0
  6  8  1  6  0  0  0
  6  3  1  0  0  0  0
  7 12  1  0  0  0  0
  7 10  1  0  0  0  0
  9 14  1  0  0  0  0
  9 25  1  0  0  0  0
 10  2  1  0  0  0  0
 11  9  2  0  0  0  0
 12  8  1  6  0  0  0
 12 19  1  0  0  0  0
 14 13  1  0  0  0  0
 15  1  1  0  0  0  0
 16 17  1  0  0  0  0
 17 11  1  0  0  0  0
 18 21  1  1  0  0  0
 18  6  1  0  0  0  0
 18 15  1  0  0  0  0
 19 16  1  1  0  0  0
 20 21  1  0  0  0  0
 21 24  1  0  0  0  0
 22 20  1  0  0  0  0
 23 20  2  0  0  0  0
 25 26  1  0  0  0  0
 27 26  1  0  0  0  0
 28 27  1  0  0  0  0
 30 29  1  6  0  0  0
 30 28  1  0  0  0  0
 31 32  1  0  0  0  0
 32 30  1  0  0  0  0
 33 32  2  0  0  0  0
M  END
>  <MODEL>
6

>  <REMARK>
 VINA RESULT:      -5.4      4.505      8.054
  Name = 
  7 active torsions:
  status: ('A' for Active; 'I' for Inactive)
    1  A    between atoms: C_5  and  C_6
    2  A    between atoms: C_5  and  C_13
    3  A    between atoms: C_6  and  CA_24
    4  A    between atoms: N_9  and  C_32
    5  A    between atoms: C_13  and  O_22
    6  A    between atoms: C_18  and  O_22
    7  A    between atoms: CA_24  and  C_29
                            x       y       z     vdW  Elec       q    Type
                         _______ _______ _______ _____ _____    ______ ____

>  <TORSDO>
F 7

$$$$
=
 OpenBabel11072412293D

 33 36  0  0  1  0  0  0  0  0999 V2000
  159.9800  206.9530  149.5070 C   0  0  0  0  0  2  0  0  0  0  0  0
  160.8790  208.1470  154.7360 C   0  0  0  0  0  0  0  0  0  0  0  0
  161.1500  207.5540  150.2640 C   0  0  2  0  0  3  0  0  0  0  0  0
  160.1140  209.2450  156.7520 N   0  0  0  0  0  0  0  0  0  0  0  0
  161.2150  208.5150  156.1430 C   0  0  0  0  0  2  0  0  0  0  0  0
  162.3670  206.6840  149.9660 C   0  0  1  0  0  3  0  0  0  0  0  0
  161.9740  206.1730  153.6250 C   0  0  0  0  0  2  0  0  0  0  0  0
  162.8790  206.1550  151.2960 C   0  0  0  0  0  2  0  0  0  0  0  0
  160.3540  211.1520  155.2420 C   0  0  0  0  0  0  0  0  0  0  0  0
  160.7830  206.6790  154.4450 C   0  0  0  0  0  2  0  0  0  0  0  0
  160.7540  210.5450  154.1090 C   0  0  0  0  0  3  0  0  0  0  0  0
  162.2150  206.9980  152.3620 C   0  0  1  0  0  3  0  0  0  0  0  0
  158.7000  211.0760  157.1130 N   0  0  0  0  0  1  0  0  0  0  0  0
  159.7260  210.4250  156.3710 C   0  0  0  0  0  0  0  0  0  0  0  0
  160.3760  205.5320  149.1650 C   0  0  0  0  0  2  0  0  0  0  0  0
  160.4560  208.8160  152.3170 C   0  0  0  0  0  2  0  0  0  0  0  0
  160.7100  209.1010  153.7870 C   0  0  0  0  0  0  0  0  0  0  0  0
  161.8930  205.5230  149.1000 C   0  0  1  0  0  3  0  0  0  0  0  0
  160.9090  207.4640  151.7580 C   0  0  1  0  0  3  0  0  0  0  0  0
  162.3390  204.5530  146.8240 C   0  0  0  0  0  0  0  0  0  0  0  0
  162.3350  205.6760  147.7120 N   0  0  0  0  0  0  0  0  0  0  0  0
  162.7700  204.7050  145.5120 O   0  0  0  0  0  0  0  0  0  0  0  0
  161.9540  203.4200  147.2220 O   0  0  0  0  0  1  0  0  0  0  0  0
  162.7060  206.8910  147.2370 O   0  0  0  0  0  1  0  0  0  0  0  0
  160.4510  212.5480  155.3580 O   0  0  0  0  0  0  0  0  0  0  0  0
  159.3340  213.4290  155.2840 C   0  0  0  0  0  2  0  0  0  0  0  0
  158.4000  213.0040  154.1630 C   0  0  0  0  0  2  0  0  0  0  0  0
  158.7050  213.8030  152.9010 C   0  0  0  0  0  2  0  0  0  0  0  0
  160.0810  212.7270  151.1690 N   0  0  0  0  0  1  0  0  0  0  0  0
  158.7190  212.9460  151.6310 C   0  0  2  0  0  3  0  0  0  0  0  0
  156.7710  214.0730  150.8310 O   0  0  0  0  0  1  0  0  0  0  0  0
  157.8640  213.5160  150.5410 C   0  0  0  0  0  0  0  0  0  0  0  0
  158.2820  213.4690  149.2160 O   0  0  0  0  0  0  0  0  0  0  0  0
  2  5  1  0  0  0  0
  3  1  1  6  0  0  0
  3 19  1  0  0  0  0
  5  4  1  0  0  0  0
  6  3  1  0  0  0  0
  6  8  1  1  0  0  0
  7 10  1  0  0  0  0
  9 25  1  0  0  0  0
  9 14  1  0  0  0  0
 10  2  1  0  0  0  0
 11  9  2  0  0  0  0
 12  8  1  6  0  0  0
 12  7  1  0  0  0  0
 14  4  2  0  0  0  0
 14 13  1  0  0  0  0
 15  1  1  0  0  0  0
 16 17  1  0  0  0  0
 17 11  1  0  0  0  0
 17  2  2  0  0  0  0
 18 21  1  6  0  0  0
 18 15  1  0  0  0  0
 18  6  1  0  0  0  0
 19 16  1  1  0  0  0
 19 12  1  0  0  0  0
 20 23  1  0  0  0  0
 20 21  1  0  0  0  0
 22 20  2  0  0  0  0
 24 21  1  0  0  0  0
 26 25  1  0  0  0  0
 27 26  1  0  0  0  0
 28 27  1  0  0  0  0
 30 29  1  6  0  0  0
 30 28  1  0  0  0  0
 32 31  1  0  0  0  0
 32 30  1  0  0  0  0
 33 32  2  0  0  0  0
M  END
>  <MODEL>
7

>  <REMARK>
 VINA RESULT:      -5.4      3.940      7.261
  Name = 
  7 active torsions:
  status: ('A' for Active; 'I' for Inactive)
    1  A    between atoms: C_5  and  C_6
    2  A    between atoms: C_5  and  C_13
    3  A    between atoms: C_6  and  CA_24
    4  A    between atoms: N_9  and  C_32
    5  A    between atoms: C_13  and  O_22
    6  A    between atoms: C_18  and  O_22
    7  A    between atoms: CA_24  and  C_29
                            x       y       z     vdW  Elec       q    Type
                         _______ _______ _______ _____ _____    ______ ____

>  <TORSDO>
F 7

$$$$
=
 OpenBabel11072412293D

 33 36  0  0  1  0  0  0  0  0999 V2000
  162.4980  210.5160  152.5700 C   0  0  0  0  0  2  0  0  0  0  0  0
  161.7440  205.7120  150.1350 C   0  0  0  0  0  0  0  0  0  0  0  0
  161.2700  209.7330  152.1430 C   0  0  2  0  0  3  0  0  0  0  0  0
  162.2740  204.2400  148.2890 N   0  0  0  0  0  0  0  0  0  0  0  0
  161.4380  204.4140  149.4660 C   0  0  0  0  0  2  0  0  0  0  0  0
  160.4030  209.5520  153.3850 C   0  0  1  0  0  3  0  0  0  0  0  0
  161.2930  206.0340  152.5900 C   0  0  0  0  0  2  0  0  0  0  0  0
  160.2320  208.0580  153.6010 C   0  0  0  0  0  2  0  0  0  0  0  0
  161.2510  206.1230  147.1100 C   0  0  0  0  0  0  0  0  0  0  0  0
  162.3100  205.6200  151.5210 C   0  0  0  0  0  2  0  0  0  0  0  0
  160.9790  206.9580  148.1310 C   0  0  0  0  0  3  0  0  0  0  0  0
  160.6650  207.3980  152.3110 C   0  0  1  0  0  3  0  0  0  0  0  0
  163.0010  204.6520  146.1010 N   0  0  0  0  0  1  0  0  0  0  0  0
  162.1950  204.9860  147.2270 C   0  0  0  0  0  0  0  0  0  0  0  0
  162.5830  210.3910  154.0770 C   0  0  0  0  0  2  0  0  0  0  0  0
  161.6810  208.2560  150.1580 C   0  0  0  0  0  2  0  0  0  0  0  0
  161.4850  206.8920  149.5200 C   0  0  0  0  0  0  0  0  0  0  0  0
  161.1620  210.1580  154.5600 C   0  0  1  0  0  3  0  0  0  0  0  0
  161.6680  208.3430  151.6870 C   0  0  1  0  0  3  0  0  0  0  0  0
  160.3930  211.7140  156.3780 C   0  0  0  0  0  0  0  0  0  0  0  0
  160.5650  211.4260  154.9860 N   0  0  0  0  0  0  0  0  0  0  0  0
  159.8160  212.9150  156.7730 O   0  0  0  0  0  0  0  0  0  0  0  0
  160.7610  210.8860  157.2550 O   0  0  0  0  0  1  0  0  0  0  0  0
  160.2060  212.3600  154.0710 O   0  0  0  0  0  1  0  0  0  0  0  0
  160.6930  206.3610  145.8440 O   0  0  0  0  0  0  0  0  0  0  0  0
  159.6890  205.5420  145.2540 C   0  0  0  0  0  2  0  0  0  0  0  0
  160.3020  204.2600  144.7160 C   0  0  0  0  0  2  0  0  0  0  0  0
  159.6800  203.0540  145.4120 C   0  0  0  0  0  2  0  0  0  0  0  0
  159.9300  200.8050  144.4510 N   0  0  0  0  0  1  0  0  0  0  0  0
  160.5450  201.7930  145.3250 C   0  0  2  0  0  3  0  0  0  0  0  0
  160.4600  201.8020  147.7120 O   0  0  0  0  0  1  0  0  0  0  0  0
  160.8510  201.2100  146.6700 C   0  0  0  0  0  0  0  0  0  0  0  0
  161.5300  200.0010  146.7800 O   0  0  0  0  0  0  0  0  0  0  0  0
  1 15  1  0  0  0  0
  2 10  1  0  0  0  0
  3  1  1  1  0  0  0
  3  6  1  0  0  0  0
  4  5  1  0  0  0  0
  5  2  1  0  0  0  0
  6  8  1  1  0  0  0
  6 18  1  0  0  0  0
  9 14  1  0  0  0  0
  9 11  2  0  0  0  0
 10  7  1  0  0  0  0
 11 17  1  0  0  0  0
 12  7  1  1  0  0  0
 12  8  1  0  0  0  0
 13 14  1  0  0  0  0
 14  4  2  0  0  0  0
 15 18  1  0  0  0  0
 17  2  2  0  0  0  0
 17 16  1  0  0  0  0
 18 21  1  6  0  0  0
 19 16  1  6  0  0  0
 19  3  1  0  0  0  0
 19 12  1  0  0  0  0
 20 22  2  0  0  0  0
 20 23  1  0  0  0  0
 21 20  1  0  0  0  0
 24 21  1  0  0  0  0
 25  9  1  0  0  0  0
 26 25  1  0  0  0  0
 27 26  1  0  0  0  0
 27 28  1  0  0  0  0
 30 29  1  6  0  0  0
 30 28  1  0  0  0  0
 30 32  1  0  0  0  0
 32 33  2  0  0  0  0
 32 31  1  0  0  0  0
M  END
>  <MODEL>
8

>  <REMARK>
 VINA RESULT:      -5.3      4.381      7.851
  Name = 
  7 active torsions:
  status: ('A' for Active; 'I' for Inactive)
    1  A    between atoms: C_5  and  C_6
    2  A    between atoms: C_5  and  C_13
    3  A    between atoms: C_6  and  CA_24
    4  A    between atoms: N_9  and  C_32
    5  A    between atoms: C_13  and  O_22
    6  A    between atoms: C_18  and  O_22
    7  A    between atoms: CA_24  and  C_29
                            x       y       z     vdW  Elec       q    Type
                         _______ _______ _______ _____ _____    ______ ____

>  <TORSDO>
F 7

$$$$
=
 OpenBabel11072412293D

 33 36  0  0  1  0  0  0  0  0999 V2000
  161.7990  203.6550  151.1150 C   0  0  0  0  0  2  0  0  0  0  0  0
  161.6830  208.9510  152.3450 C   0  0  0  0  0  0  0  0  0  0  0  0
  160.7470  204.7420  150.9940 C   0  0  2  0  0  3  0  0  0  0  0  0
  162.0590  210.6860  153.9900 N   0  0  0  0  0  0  0  0  0  0  0  0
  161.5540  210.4050  152.6550 C   0  0  0  0  0  2  0  0  0  0  0  0
  160.3210  204.7890  149.5300 C   0  0  1  0  0  3  0  0  0  0  0  0
  161.8400  208.1510  149.9640 C   0  0  0  0  0  2  0  0  0  0  0  0
  160.6050  206.1930  149.0230 C   0  0  0  0  0  2  0  0  0  0  0  0
  160.3090  209.3740  155.0820 C   0  0  0  0  0  0  0  0  0  0  0  0
  162.6040  208.5990  151.2140 C   0  0  0  0  0  2  0  0  0  0  0  0
  160.1140  208.3910  154.1830 C   0  0  0  0  0  3  0  0  0  0  0  0
  160.8300  207.0420  150.2540 C   0  0  1  0  0  3  0  0  0  0  0  0
  162.0420  210.6700  156.3310 N   0  0  0  0  0  1  0  0  0  0  0  0
  161.5090  210.2440  155.0810 C   0  0  0  0  0  0  0  0  0  0  0  0
  162.3140  203.4000  149.7130 C   0  0  0  0  0  2  0  0  0  0  0  0
  160.9750  206.5370  152.7300 C   0  0  0  0  0  2  0  0  0  0  0  0
  160.9740  208.0260  153.0350 C   0  0  0  0  0  0  0  0  0  0  0  0
  161.1840  203.7850  148.7750 C   0  0  1  0  0  3  0  0  0  0  0  0
  161.3510  206.0950  151.3130 C   0  0  1  0  0  3  0  0  0  0  0  0
  160.4730  202.0890  147.0620 C   0  0  0  0  0  0  0  0  0  0  0  0
  160.4180  202.5950  148.4000 N   0  0  0  0  0  0  0  0  0  0  0  0
  159.7330  200.9650  146.7130 O   0  0  0  0  0  1  0  0  0  0  0  0
  161.1860  202.6550  146.1910 O   0  0  0  0  0  0  0  0  0  0  0  0
  159.6810  201.9310  149.3250 O   0  0  0  0  0  1  0  0  0  0  0  0
  159.3900  209.5570  156.1280 O   0  0  0  0  0  0  0  0  0  0  0  0
  158.6540  210.7580  156.3360 C   0  0  0  0  0  2  0  0  0  0  0  0
  158.1490  211.3040  155.0110 C   0  0  0  0  0  2  0  0  0  0  0  0
  156.6420  211.5300  155.0820 C   0  0  0  0  0  2  0  0  0  0  0  0
  157.2700  213.2990  153.4930 N   0  0  0  0  0  1  0  0  0  0  0  0
  156.1760  212.7480  154.2800 C   0  0  2  0  0  3  0  0  0  0  0  0
  154.5600  214.4530  154.7090 O   0  0  0  0  0  0  0  0  0  0  0  0
  155.5470  213.8000  155.1410 C   0  0  0  0  0  0  0  0  0  0  0  0
  156.0200  214.0380  156.4270 O   0  0  0  0  0  1  0  0  0  0  0  0
  2  5  1  0  0  0  0
  2 17  2  0  0  0  0
  3  1  1  6  0  0  0
  3 19  1  0  0  0  0
  4 14  2  0  0  0  0
  5  4  1  0  0  0  0
  6  8  1  6  0  0  0
  6  3  1  0  0  0  0
  7 12  1  0  0  0  0
  7 10  1  0  0  0  0
  9 25  1  0  0  0  0
 10  2  1  0  0  0  0
 11  9  2  0  0  0  0
 12  8  1  6  0  0  0
 12 19  1  0  0  0  0
 14  9  1  0  0  0  0
 14 13  1  0  0  0  0
 15  1  1  0  0  0  0
 16 17  1  0  0  0  0
 17 11  1  0  0  0  0
 18 21  1  1  0  0  0
 18  6  1  0  0  0  0
 18 15  1  0  0  0  0
 19 16  1  1  0  0  0
 20 21  1  0  0  0  0
 21 24  1  0  0  0  0
 22 20  1  0  0  0  0
 23 20  2  0  0  0  0
 25 26  1  0  0  0  0
 27 28  1  0  0  0  0
 27 26  1  0  0  0  0
 30 29  1  1  0  0  0
 30 28  1  0  0  0  0
 30 32  1  0  0  0  0
 31 32  2  0  0  0  0
 32 33  1  0  0  0  0
M  END
>  <MODEL>
9

>  <REMARK>
 VINA RESULT:      -5.2      5.024      8.401
  Name = 
  7 active torsions:
  status: ('A' for Active; 'I' for Inactive)
    1  A    between atoms: C_5  and  C_6
    2  A    between atoms: C_5  and  C_13
    3  A    between atoms: C_6  and  CA_24
    4  A    between atoms: N_9  and  C_32
    5  A    between atoms: C_13  and  O_22
    6  A    between atoms: C_18  and  O_22
    7  A    between atoms: CA_24  and  C_29
                            x       y       z     vdW  Elec       q    Type
                         _______ _______ _______ _____ _____    ______ ____

>  <TORSDO>
F 7

$$$$
