=
 OpenBabel11072413563D

 46 52  0  0  1  0  0  0  0  0999 V2000
  162.5230  210.0880  154.6710 C   0  0  2  0  0  3  0  0  0  0  0  0
  161.3050  207.5230  153.7250 C   0  0  0  0  0  2  0  0  0  0  0  0
  159.6520  209.0690  154.7910 C   0  0  2  0  0  3  0  0  0  0  0  0
  162.1970  208.1610  149.5410 C   0  0  1  0  0  3  0  0  0  0  0  0
  162.9440  206.9270  149.0680 C   0  0  0  0  0  1  0  0  0  0  0  0
  160.4130  208.9460  151.1230 C   0  0  0  0  0  2  0  0  0  0  0  0
  162.3430  211.2610  148.8590 C   0  0  0  0  0  0  0  0  0  0  0  0
  159.7850  211.1920  156.2390 C   0  0  0  0  0  3  0  0  0  0  0  0
  162.0350  212.4130  149.7600 C   0  0  1  0  0  3  0  0  0  0  0  0
  160.8930  211.3840  153.2140 C   0  0  0  0  0  2  0  0  0  0  0  0
  157.5930  210.3900  155.5080 C   0  0  0  0  0  2  0  0  0  0  0  0
  160.5160  207.1130  152.4990 C   0  0  1  0  0  3  0  0  0  0  0  0
  163.4930  211.1550  148.3530 O   0  0  0  0  0  0  0  0  0  0  0  0
  160.3170  209.8070  156.0030 C   0  0  2  0  0  3  0  0  0  0  0  0
  161.7370  208.9340  148.3080 C   0  0  0  0  0  2  0  0  0  0  0  0
  160.6010  208.8640  153.5840 C   0  0  2  0  0  0  0  0  0  0  0  0
  161.0050  207.7600  150.4190 C   0  0  2  0  0  3  0  0  0  0  0  0
  160.0580  212.3970  150.9570 C   0  0  0  0  0  0  0  0  0  0  0  0
  159.8760  208.4250  152.3680 N   0  0  1  0  0  0  0  0  0  0  0  0
  158.8490  212.5620  151.2710 O   0  0  0  0  0  0  0  0  0  0  0  0
  158.4970  211.4600  156.0330 C   0  0  0  0  0  0  0  0  0  0  0  0
  161.0870  211.8830  151.8220 C   0  0  0  0  0  0  0  0  0  0  0  0
  161.6040  210.0400  153.4330 C   0  0  2  0  0  3  0  0  0  0  0  0
  160.6060  212.7330  149.6970 N   0  0  0  0  0  0  0  0  0  0  0  0
  161.3840  210.2630  148.6660 O   0  0  0  0  0  0  0  0  0  0  0  0
  161.3980  206.8760  151.4270 O   0  0  0  0  0  0  0  0  0  0  0  0
  158.2950  209.6700  154.3610 C   0  0  0  0  0  2  0  0  0  0  0  0
  161.8530  209.8030  156.0300 C   0  0  1  0  0  3  0  0  0  0  0  0
  162.2460  211.9420  151.1780 C   0  0  0  0  0  3  0  0  0  0  0  0
  157.6000  213.8700  156.3670 N   0  0  0  0  0  0  0  0  0  0  0  0
  158.0010  212.7940  156.2180 C   0  0  0  0  0  0  0  0  0  0  0  0
  163.5070  211.2540  154.7120 C   0  0  0  0  0  2  0  0  0  0  0  0
  164.2870  211.2060  155.8690 O   0  0  0  0  0  1  0  0  0  0  0  0
  162.3140  208.5870  156.5340 O   0  0  0  0  0  0  0  0  0  0  0  0
  161.2390  208.0700  157.2590 C   0  0  0  0  0  2  0  0  0  0  0  0
  161.2080  206.5620  157.1110 C   0  0  0  0  0  1  0  0  0  0  0  0
  160.0160  213.7270  148.8100 C   0  0  0  0  0  2  0  0  0  0  0  0
  157.8710  213.8950  147.5450 C   0  0  0  0  0  2  0  0  0  0  0  0
  157.0650  213.4110  146.3660 C   0  0  0  0  0  3  0  0  0  0  0  0
  157.5910  212.6540  145.3910 C   0  0  0  0  0  3  0  0  0  0  0  0
  159.1400  213.0680  147.7540 C   0  0  1  0  0  3  0  0  0  0  0  0
  159.8900  212.8940  146.4260 C   0  0  1  0  0  3  0  0  0  0  0  0
  159.0050  212.1300  145.4380 C   0  0  0  0  0  2  0  0  0  0  0  0
  160.2580  214.1320  145.8860 O   0  0  0  0  0  0  0  0  0  0  0  0
  161.5220  213.9180  145.3320 C   0  0  0  0  0  2  0  0  0  0  0  0
  162.5830  214.1930  146.3770 C   0  0  0  0  0  1  0  0  0  0  0  0
  1 32  1  1  0  0  0
  1 28  1  0  0  0  0
  3 27  1  6  0  0  0
  3 14  1  0  0  0  0
  4  5  1  6  0  0  0
  4 17  1  0  0  0  0
  7  9  1  0  0  0  0
  9 29  1  1  0  0  0
 11 21  1  0  0  0  0
 12  2  1  1  0  0  0
 13  7  2  0  0  0  0
 14 28  1  0  0  0  0
 14  8  1  6  0  0  0
 15 25  1  0  0  0  0
 15  4  1  0  0  0  0
 16  2  1  1  0  0  0
 16  3  1  0  0  0  0
 17  6  1  1  0  0  0
 17 26  1  0  0  0  0
 18 20  2  0  0  0  0
 18 22  1  0  0  0  0
 19  6  1  6  0  0  0
 19 12  1  0  0  0  0
 19 16  1  0  0  0  0
 21 31  1  0  0  0  0
 21  8  2  0  0  0  0
 22 10  1  0  0  0  0
 23 10  1  1  0  0  0
 23 16  1  0  0  0  0
 23  1  1  0  0  0  0
 24  9  1  0  0  0  0
 24 18  1  0  0  0  0
 25  7  1  0  0  0  0
 26 12  1  0  0  0  0
 27 11  1  0  0  0  0
 28 34  1  6  0  0  0
 29 22  2  0  0  0  0
 31 30  3  0  0  0  0
 32 33  1  0  0  0  0
 34 35  1  0  0  0  0
 36 35  1  0  0  0  0
 37 24  1  0  0  0  0
 38 41  1  0  0  0  0
 39 38  1  0  0  0  0
 40 43  1  0  0  0  0
 40 39  2  0  0  0  0
 41 37  1  1  0  0  0
 42 44  1  6  0  0  0
 42 41  1  0  0  0  0
 43 42  1  0  0  0  0
 45 44  1  0  0  0  0
 45 46  1  0  0  0  0
M  END
>  <MODEL>
1

>  <REMARK>
 VINA RESULT:       4.8      0.000      0.000
  Name = 
  8 active torsions:
  status: ('A' for Active; 'I' for Inactive)
    1  A    between atoms: C_2  and  C_21
    2  A    between atoms: C_6  and  O_15
    3  A    between atoms: O_15  and  C_43
    4  A    between atoms: C_20  and  C_28
    5  A    between atoms: C_28  and  N_36
    6  A    between atoms: C_29  and  O_45
    7  A    between atoms: C_33  and  C_38
    8  A    between atoms: C_40  and  O_45
                            x       y       z     vdW  Elec       q    Type
                         _______ _______ _______ _____ _____    ______ ____

>  <TORSDO>
F 8

$$$$
