=
 OpenBabel11072412213D

 27 30  0  0  1  0  0  0  0  0999 V2000
  161.6100  207.3490  148.1410 C   0  0  0  0  0  3  0  0  0  0  0  0
  161.3940  206.1190  148.7660 C   0  0  0  0  0  0  0  0  0  0  0  0
  161.8570  207.1060  150.8730 C   0  0  0  0  0  0  0  0  0  0  0  0
  162.0750  208.3400  150.2430 C   0  0  0  0  0  0  0  0  0  0  0  0
  162.4250  209.4970  150.9980 N   0  0  0  0  0  1  0  0  0  0  0  0
  161.9440  208.4310  148.8930 N   0  0  0  0  0  0  0  0  0  0  0  0
  161.5220  206.0280  150.1180 N   0  0  0  0  0  0  0  0  0  0  0  0
  161.0320  204.9240  147.9460 C   0  0  2  0  0  3  0  0  0  0  0  0
  160.5710  203.4640  151.0370 C   0  0  0  0  0  1  0  0  0  0  0  0
  161.6500  202.5310  147.7940 N   0  0  0  0  0  2  0  0  0  0  0  0
  161.3660  203.6280  148.7010 C   0  0  2  0  0  3  0  0  0  0  0  0
  160.2300  203.1830  149.5870 C   0  0  1  0  0  3  0  0  0  0  0  0
  161.1220  201.3530  148.4640 C   0  0  0  0  0  2  0  0  0  0  0  0
  160.0680  201.7540  149.3870 N   0  0  0  0  0  2  0  0  0  0  0  0
  161.6750  205.0160  146.5620 C   0  0  0  0  0  2  0  0  0  0  0  0
  161.1940  205.4690  144.2050 C   0  0  0  0  0  2  0  0  0  0  0  0
  160.3840  206.2800  145.0160 O   0  0  0  0  0  0  0  0  0  0  0  0
  160.6210  204.9710  145.4730 C   0  0  2  0  0  3  0  0  0  0  0  0
  162.0080  206.9210  152.6500 S   0  0  0  0  0  0  0  0  0  0  0  0
  160.7790  208.1770  152.9660 C   0  0  0  0  0  3  0  0  0  0  0  0
  160.9210  208.9840  153.9680 N   0  0  0  0  0  0  0  0  0  0  0  0
  157.6820  211.5230  154.5990 C   0  0  0  0  0  3  0  0  0  0  0  0
  159.6140  211.0760  153.2550 C   0  0  0  0  0  2  0  0  0  0  0  0
  158.4660  211.0950  155.8100 C   0  0  0  0  0  2  0  0  0  0  0  0
  159.4100  210.0380  155.4390 N   0  0  0  0  0  0  0  0  0  0  0  0
  159.9740  210.0130  154.2690 C   0  0  0  0  0  0  0  0  0  0  0  0
  158.2360  211.4960  153.4340 N   0  0  0  0  0  0  0  0  0  0  0  0
  1  2  2  0  0  0  0
  1  6  1  0  0  0  0
  2  7  1  0  0  0  0
  3 19  1  0  0  0  0
  4  3  1  0  0  0  0
  4  5  1  0  0  0  0
  6  4  2  0  0  0  0
  7  3  2  0  0  0  0
  8 15  1  6  0  0  0
  8  2  1  0  0  0  0
 10 13  1  0  0  0  0
 10 11  1  0  0  0  0
 11  8  1  6  0  0  0
 11 12  1  0  0  0  0
 12  9  1  1  0  0  0
 13 14  1  0  0  0  0
 14 12  1  0  0  0  0
 16 17  1  0  0  0  0
 16 18  1  0  0  0  0
 17 18  1  0  0  0  0
 18 15  1  1  0  0  0
 19 20  1  0  0  0  0
 20 21  2  0  0  0  0
 21 26  1  0  0  0  0
 22 24  1  0  0  0  0
 23 27  1  0  0  0  0
 23 26  1  0  0  0  0
 25 24  1  0  0  0  0
 26 25  2  0  0  0  0
 27 22  2  0  0  0  0
M  END
>  <MODEL>
1

>  <REMARK>
 VINA RESULT:      -7.2      0.000      0.000
  Name = 
  7 active torsions:
  status: ('A' for Active; 'I' for Inactive)
    1  A    between atoms: C_7  and  C_8
    2  A    between atoms: C_8  and  C_9
    3  A    between atoms: C_8  and  C_12
    4  A    between atoms: C_9  and  C_27
    5  A    between atoms: C_10  and  S_23
    6  A    between atoms: C_16  and  N_26
    7  A    between atoms: C_21  and  S_23
                            x       y       z     vdW  Elec       q    Type
                         _______ _______ _______ _____ _____    ______ ____

>  <TORSDO>
F 7

$$$$
=
 OpenBabel11072412213D

 27 30  0  0  1  0  0  0  0  0999 V2000
  161.2030  206.6960  153.2810 C   0  0  0  0  0  3  0  0  0  0  0  0
  161.1910  207.1710  151.9680 C   0  0  0  0  0  0  0  0  0  0  0  0
  160.8640  209.3800  152.7690 C   0  0  0  0  0  0  0  0  0  0  0  0
  160.8750  208.9000  154.0870 C   0  0  0  0  0  0  0  0  0  0  0  0
  160.7160  209.7860  155.1910 N   0  0  0  0  0  1  0  0  0  0  0  0
  161.0470  207.5700  154.3090 N   0  0  0  0  0  0  0  0  0  0  0  0
  161.0220  208.5030  151.7440 N   0  0  0  0  0  0  0  0  0  0  0  0
  161.3550  206.2160  150.8310 C   0  0  2  0  0  3  0  0  0  0  0  0
  162.3260  208.8210  148.7890 C   0  0  0  0  0  1  0  0  0  0  0  0
  160.2030  205.9880  148.6510 N   0  0  0  0  0  2  0  0  0  0  0  0
  160.9670  206.8820  149.5030 C   0  0  2  0  0  3  0  0  0  0  0  0
  162.1770  207.3150  148.7130 C   0  0  1  0  0  3  0  0  0  0  0  0
  160.6210  206.3210  147.2990 C   0  0  0  0  0  2  0  0  0  0  0  0
  161.9530  206.9110  147.3360 N   0  0  0  0  0  2  0  0  0  0  0  0
  160.6000  204.9180  151.1160 C   0  0  0  0  0  2  0  0  0  0  0  0
  160.8620  202.5380  150.6060 C   0  0  0  0  0  2  0  0  0  0  0  0
  161.0210  202.7450  151.9860 O   0  0  0  0  0  0  0  0  0  0  0  0
  161.5480  203.7350  151.1360 C   0  0  2  0  0  3  0  0  0  0  0  0
  160.6480  211.1230  152.4080 S   0  0  0  0  0  0  0  0  0  0  0  0
  159.0530  211.1750  153.2090 C   0  0  0  0  0  3  0  0  0  0  0  0
  158.7280  212.1920  153.9400 N   0  0  0  0  0  0  0  0  0  0  0  0
  155.4200  212.7500  156.4060 C   0  0  0  0  0  3  0  0  0  0  0  0
  156.9070  211.1510  155.4190 C   0  0  0  0  0  2  0  0  0  0  0  0
  155.4580  213.5280  155.1190 C   0  0  0  0  0  2  0  0  0  0  0  0
  156.7770  213.3920  154.4960 N   0  0  0  0  0  0  0  0  0  0  0  0
  157.4650  212.2940  154.6010 C   0  0  0  0  0  0  0  0  0  0  0  0
  156.1050  211.6610  156.5170 N   0  0  0  0  0  0  0  0  0  0  0  0
  1  6  1  0  0  0  0
  2  1  2  0  0  0  0
  3  4  1  0  0  0  0
  4  6  2  0  0  0  0
  4  5  1  0  0  0  0
  7  2  1  0  0  0  0
  7  3  2  0  0  0  0
  8 15  1  1  0  0  0
  8  2  1  0  0  0  0
 10 11  1  0  0  0  0
 11  8  1  1  0  0  0
 12  9  1  6  0  0  0
 12 11  1  0  0  0  0
 13 14  1  0  0  0  0
 13 10  1  0  0  0  0
 14 12  1  0  0  0  0
 16 18  1  0  0  0  0
 16 17  1  0  0  0  0
 18 15  1  1  0  0  0
 18 17  1  0  0  0  0
 19  3  1  0  0  0  0
 19 20  1  0  0  0  0
 20 21  2  0  0  0  0
 21 26  1  0  0  0  0
 22 27  2  0  0  0  0
 23 27  1  0  0  0  0
 24 22  1  0  0  0  0
 25 26  2  0  0  0  0
 25 24  1  0  0  0  0
 26 23  1  0  0  0  0
M  END
>  <MODEL>
2

>  <REMARK>
 VINA RESULT:      -7.0      2.579      4.622
  Name = 
  7 active torsions:
  status: ('A' for Active; 'I' for Inactive)
    1  A    between atoms: C_7  and  C_8
    2  A    between atoms: C_8  and  C_9
    3  A    between atoms: C_8  and  C_12
    4  A    between atoms: C_9  and  C_27
    5  A    between atoms: C_10  and  S_23
    6  A    between atoms: C_16  and  N_26
    7  A    between atoms: C_21  and  S_23
                            x       y       z     vdW  Elec       q    Type
                         _______ _______ _______ _____ _____    ______ ____

>  <TORSDO>
F 7

$$$$
=
 OpenBabel11072412213D

 27 30  0  0  1  0  0  0  0  0999 V2000
  160.8500  207.5530  154.1800 C   0  0  0  0  0  3  0  0  0  0  0  0
  160.8680  208.7730  153.5020 C   0  0  0  0  0  0  0  0  0  0  0  0
  161.4930  207.6570  151.5040 C   0  0  0  0  0  0  0  0  0  0  0  0
  161.4760  206.4320  152.1870 C   0  0  0  0  0  0  0  0  0  0  0  0
  161.7860  205.2140  151.5170 N   0  0  0  0  0  1  0  0  0  0  0  0
  161.1520  206.4110  153.5080 N   0  0  0  0  0  0  0  0  0  0  0  0
  161.1880  208.7960  152.1790 N   0  0  0  0  0  0  0  0  0  0  0  0
  160.5430  210.0340  154.2340 C   0  0  2  0  0  3  0  0  0  0  0  0
  157.3490  211.3290  154.3890 C   0  0  0  0  0  1  0  0  0  0  0  0
  160.2890  211.7370  152.4540 N   0  0  0  0  0  2  0  0  0  0  0  0
  159.5820  210.9070  153.4120 C   0  0  2  0  0  3  0  0  0  0  0  0
  158.7750  211.8340  154.2860 C   0  0  1  0  0  3  0  0  0  0  0  0
  159.5240  212.9730  152.4020 C   0  0  0  0  0  2  0  0  0  0  0  0
  158.7900  213.1390  153.6500 N   0  0  0  0  0  2  0  0  0  0  0  0
  161.8270  210.7520  154.6500 C   0  0  0  0  0  2  0  0  0  0  0  0
  163.3670  210.8110  156.5520 C   0  0  0  0  0  2  0  0  0  0  0  0
  162.5740  209.6530  156.6220 O   0  0  0  0  0  0  0  0  0  0  0  0
  161.9420  210.8220  156.1600 C   0  0  2  0  0  3  0  0  0  0  0  0
  161.9050  207.7520  149.7620 S   0  0  0  0  0  0  0  0  0  0  0  0
  161.9730  209.5370  149.7920 C   0  0  0  0  0  3  0  0  0  0  0  0
  162.0290  210.2010  148.6830 N   0  0  0  0  0  0  0  0  0  0  0  0
  161.8280  214.2960  147.9550 C   0  0  0  0  0  3  0  0  0  0  0  0
  163.2420  212.3630  148.0120 C   0  0  0  0  0  2  0  0  0  0  0  0
  161.1300  213.7810  149.1840 C   0  0  0  0  0  2  0  0  0  0  0  0
  161.1040  212.3170  149.1620 N   0  0  0  0  0  0  0  0  0  0  0  0
  162.0790  211.6300  148.6430 C   0  0  0  0  0  0  0  0  0  0  0  0
  162.7930  213.6160  147.4330 N   0  0  0  0  0  0  0  0  0  0  0  0
  2  1  2  0  0  0  0
  2  8  1  0  0  0  0
  3  7  2  0  0  0  0
  3  4  1  0  0  0  0
  4  6  2  0  0  0  0
  5  4  1  0  0  0  0
  6  1  1  0  0  0  0
  7  2  1  0  0  0  0
  8 15  1  6  0  0  0
 10 11  1  0  0  0  0
 11  8  1  1  0  0  0
 11 12  1  0  0  0  0
 12  9  1  6  0  0  0
 13 10  1  0  0  0  0
 13 14  1  0  0  0  0
 14 12  1  0  0  0  0
 16 17  1  0  0  0  0
 18 15  1  6  0  0  0
 18 16  1  0  0  0  0
 18 17  1  0  0  0  0
 19 20  1  0  0  0  0
 19  3  1  0  0  0  0
 21 20  2  0  0  0  0
 22 24  1  0  0  0  0
 23 26  1  0  0  0  0
 25 24  1  0  0  0  0
 26 21  1  0  0  0  0
 26 25  2  0  0  0  0
 27 22  2  0  0  0  0
 27 23  1  0  0  0  0
M  END
>  <MODEL>
3

>  <REMARK>
 VINA RESULT:      -7.0      4.232      8.222
  Name = 
  7 active torsions:
  status: ('A' for Active; 'I' for Inactive)
    1  A    between atoms: C_7  and  C_8
    2  A    between atoms: C_8  and  C_9
    3  A    between atoms: C_8  and  C_12
    4  A    between atoms: C_9  and  C_27
    5  A    between atoms: C_10  and  S_23
    6  A    between atoms: C_16  and  N_26
    7  A    between atoms: C_21  and  S_23
                            x       y       z     vdW  Elec       q    Type
                         _______ _______ _______ _____ _____    ______ ____

>  <TORSDO>
F 7

$$$$
=
 OpenBabel11072412213D

 27 30  0  0  1  0  0  0  0  0999 V2000
  160.6450  203.3060  147.5890 C   0  0  0  0  0  3  0  0  0  0  0  0
  160.7430  204.4770  148.3420 C   0  0  0  0  0  0  0  0  0  0  0  0
  161.1510  203.1900  150.2930 C   0  0  0  0  0  0  0  0  0  0  0  0
  161.0510  202.0150  149.5350 C   0  0  0  0  0  0  0  0  0  0  0  0
  161.2120  200.7350  150.1400 N   0  0  0  0  0  1  0  0  0  0  0  0
  160.8020  202.1030  148.2010 N   0  0  0  0  0  0  0  0  0  0  0  0
  160.9950  204.3910  149.6770 N   0  0  0  0  0  0  0  0  0  0  0  0
  160.5650  205.8040  147.6790 C   0  0  2  0  0  3  0  0  0  0  0  0
  163.5830  204.7160  146.4130 C   0  0  0  0  0  1  0  0  0  0  0  0
  160.5920  206.2060  145.2360 N   0  0  0  0  0  2  0  0  0  0  0  0
  161.4050  205.8860  146.3960 C   0  0  2  0  0  3  0  0  0  0  0  0
  162.1070  204.5860  146.0970 C   0  0  1  0  0  3  0  0  0  0  0  0
  161.2040  205.4660  144.1430 C   0  0  0  0  0  2  0  0  0  0  0  0
  161.9290  204.3220  144.6800 N   0  0  0  0  0  2  0  0  0  0  0  0
  160.8390  206.9340  148.6720 C   0  0  0  0  0  2  0  0  0  0  0  0
  162.6890  208.1780  149.6840 C   0  0  0  0  0  2  0  0  0  0  0  0
  162.1360  208.9260  148.6320 O   0  0  0  0  0  0  0  0  0  0  0  0
  162.2120  207.5340  148.4420 C   0  0  2  0  0  3  0  0  0  0  0  0
  161.4840  203.1440  152.0540 S   0  0  0  0  0  0  0  0  0  0  0  0
  161.1560  204.8890  152.2450 C   0  0  0  0  0  3  0  0  0  0  0  0
  161.2080  205.4330  153.4180 N   0  0  0  0  0  0  0  0  0  0  0  0
  161.1920  209.5370  154.1180 C   0  0  0  0  0  3  0  0  0  0  0  0
  160.6830  207.3740  155.0140 C   0  0  0  0  0  2  0  0  0  0  0  0
  160.6880  209.0650  152.7820 C   0  0  0  0  0  2  0  0  0  0  0  0
  160.9760  207.6380  152.6190 N   0  0  0  0  0  0  0  0  0  0  0  0
  160.9620  206.8250  153.6330 C   0  0  0  0  0  0  0  0  0  0  0  0
  161.1850  208.7320  155.1270 N   0  0  0  0  0  0  0  0  0  0  0  0
  1  6  2  0  0  0  0
  1  2  1  0  0  0  0
  2  7  2  0  0  0  0
  3 19  1  0  0  0  0
  4  5  1  0  0  0  0
  4  3  2  0  0  0  0
  6  4  1  0  0  0  0
  7  3  1  0  0  0  0
  8  2  1  0  0  0  0
  8 15  1  1  0  0  0
 10 11  1  0  0  0  0
 11  8  1  1  0  0  0
 12 11  1  0  0  0  0
 12  9  1  6  0  0  0
 13 14  1  0  0  0  0
 13 10  1  0  0  0  0
 14 12  1  0  0  0  0
 17 16  1  0  0  0  0
 18 17  1  0  0  0  0
 18 15  1  1  0  0  0
 18 16  1  0  0  0  0
 19 20  1  0  0  0  0
 20 21  2  0  0  0  0
 21 26  1  0  0  0  0
 22 27  2  0  0  0  0
 23 27  1  0  0  0  0
 24 22  1  0  0  0  0
 25 24  1  0  0  0  0
 25 26  2  0  0  0  0
 26 23  1  0  0  0  0
M  END
>  <MODEL>
4

>  <REMARK>
 VINA RESULT:      -6.9      2.315      4.639
  Name = 
  7 active torsions:
  status: ('A' for Active; 'I' for Inactive)
    1  A    between atoms: C_7  and  C_8
    2  A    between atoms: C_8  and  C_9
    3  A    between atoms: C_8  and  C_12
    4  A    between atoms: C_9  and  C_27
    5  A    between atoms: C_10  and  S_23
    6  A    between atoms: C_16  and  N_26
    7  A    between atoms: C_21  and  S_23
                            x       y       z     vdW  Elec       q    Type
                         _______ _______ _______ _____ _____    ______ ____

>  <TORSDO>
F 7

$$$$
=
 OpenBabel11072412213D

 27 30  0  0  1  0  0  0  0  0999 V2000
  161.1610  207.0730  150.7330 C   0  0  0  0  0  3  0  0  0  0  0  0
  161.7050  207.0620  149.4470 C   0  0  0  0  0  0  0  0  0  0  0  0
  162.0960  209.3980  149.5900 C   0  0  0  0  0  0  0  0  0  0  0  0
  161.5490  209.4060  150.8820 C   0  0  0  0  0  0  0  0  0  0  0  0
  161.4660  210.6120  151.6350 N   0  0  0  0  0  1  0  0  0  0  0  0
  161.0970  208.2420  151.4220 N   0  0  0  0  0  0  0  0  0  0  0  0
  162.1600  208.2250  148.9070 N   0  0  0  0  0  0  0  0  0  0  0  0
  161.7730  205.7810  148.6810 C   0  0  2  0  0  3  0  0  0  0  0  0
  163.3570  204.7410  145.7980 C   0  0  0  0  0  1  0  0  0  0  0  0
  160.5260  206.6570  146.7290 N   0  0  0  0  0  2  0  0  0  0  0  0
  161.7710  206.0530  147.1690 C   0  0  2  0  0  3  0  0  0  0  0  0
  161.9530  204.7890  146.3680 C   0  0  1  0  0  3  0  0  0  0  0  0
  160.2970  206.1060  145.4030 C   0  0  0  0  0  2  0  0  0  0  0  0
  160.9840  204.8260  145.2870 N   0  0  0  0  0  2  0  0  0  0  0  0
  160.6690  204.8290  149.1400 C   0  0  0  0  0  2  0  0  0  0  0  0
  160.4550  202.3910  149.2060 C   0  0  0  0  0  2  0  0  0  0  0  0
  160.3020  202.9140  150.5000 O   0  0  0  0  0  0  0  0  0  0  0  0
  161.2570  203.5400  149.6780 C   0  0  2  0  0  3  0  0  0  0  0  0
  162.7140  210.8960  148.8250 S   0  0  0  0  0  0  0  0  0  0  0  0
  161.1090  211.3190  148.1660 C   0  0  0  0  0  3  0  0  0  0  0  0
  160.9200  212.4740  147.6140 N   0  0  0  0  0  0  0  0  0  0  0  0
  157.0660  212.9430  146.1090 C   0  0  0  0  0  3  0  0  0  0  0  0
  159.3980  212.8190  145.5750 C   0  0  0  0  0  2  0  0  0  0  0  0
  157.4240  213.7300  147.3400 C   0  0  0  0  0  2  0  0  0  0  0  0
  158.7170  213.2770  147.8590 N   0  0  0  0  0  0  0  0  0  0  0  0
  159.6600  212.8670  147.0640 C   0  0  0  0  0  0  0  0  0  0  0  0
  157.9990  212.5300  145.3180 N   0  0  0  0  0  0  0  0  0  0  0  0
  1  6  1  0  0  0  0
  2  1  2  0  0  0  0
  3  4  1  0  0  0  0
  4  6  2  0  0  0  0
  4  5  1  0  0  0  0
  7  2  1  0  0  0  0
  7  3  2  0  0  0  0
  8 15  1  6  0  0  0
  8  2  1  0  0  0  0
 10 11  1  0  0  0  0
 11  8  1  1  0  0  0
 12  9  1  6  0  0  0
 12 11  1  0  0  0  0
 13 10  1  0  0  0  0
 14 13  1  0  0  0  0
 14 12  1  0  0  0  0
 16 18  1  0  0  0  0
 16 17  1  0  0  0  0
 18 15  1  6  0  0  0
 18 17  1  0  0  0  0
 19  3  1  0  0  0  0
 20 19  1  0  0  0  0
 21 20  2  0  0  0  0
 22 24  1  0  0  0  0
 23 26  1  0  0  0  0
 24 25  1  0  0  0  0
 26 21  1  0  0  0  0
 26 25  2  0  0  0  0
 27 23  1  0  0  0  0
 27 22  2  0  0  0  0
M  END
>  <MODEL>
5

>  <REMARK>
 VINA RESULT:      -6.9      3.889      5.472
  Name = 
  7 active torsions:
  status: ('A' for Active; 'I' for Inactive)
    1  A    between atoms: C_7  and  C_8
    2  A    between atoms: C_8  and  C_9
    3  A    between atoms: C_8  and  C_12
    4  A    between atoms: C_9  and  C_27
    5  A    between atoms: C_10  and  S_23
    6  A    between atoms: C_16  and  N_26
    7  A    between atoms: C_21  and  S_23
                            x       y       z     vdW  Elec       q    Type
                         _______ _______ _______ _____ _____    ______ ____

>  <TORSDO>
F 7

$$$$
=
 OpenBabel11072412213D

 27 30  0  0  1  0  0  0  0  0999 V2000
  161.2080  204.8930  151.7700 C   0  0  0  0  0  3  0  0  0  0  0  0
  161.5450  205.4610  150.5400 C   0  0  0  0  0  0  0  0  0  0  0  0
  161.7770  207.5800  151.5820 C   0  0  0  0  0  0  0  0  0  0  0  0
  161.4380  207.0070  152.8160 C   0  0  0  0  0  0  0  0  0  0  0  0
  161.3820  207.7960  154.0010 N   0  0  0  0  0  1  0  0  0  0  0  0
  161.1640  205.6760  152.8790 N   0  0  0  0  0  0  0  0  0  0  0  0
  161.8220  206.7920  150.4760 N   0  0  0  0  0  0  0  0  0  0  0  0
  161.5900  204.6080  149.3150 C   0  0  2  0  0  3  0  0  0  0  0  0
  163.3440  204.7980  146.3510 C   0  0  0  0  0  1  0  0  0  0  0  0
  160.4700  206.2450  147.8330 N   0  0  0  0  0  2  0  0  0  0  0  0
  161.6820  205.4770  148.0520 C   0  0  2  0  0  3  0  0  0  0  0  0
  161.9080  204.6490  146.8120 C   0  0  1  0  0  3  0  0  0  0  0  0
  160.3210  206.2940  146.3870 C   0  0  0  0  0  2  0  0  0  0  0  0
  161.0080  205.1550  145.7910 N   0  0  0  0  0  2  0  0  0  0  0  0
  160.4160  203.6290  149.3080 C   0  0  0  0  0  2  0  0  0  0  0  0
  160.5850  201.4370  148.2300 C   0  0  0  0  0  2  0  0  0  0  0  0
  159.7960  201.3350  149.3880 O   0  0  0  0  0  0  0  0  0  0  0  0
  160.9030  202.2010  149.4550 C   0  0  2  0  0  3  0  0  0  0  0  0
  162.1550  209.3260  151.4320 S   0  0  0  0  0  0  0  0  0  0  0  0
  160.6980  209.8040  152.3480 C   0  0  0  0  0  3  0  0  0  0  0  0
  160.6480  210.9590  152.9290 N   0  0  0  0  0  0  0  0  0  0  0  0
  156.9550  211.8500  154.6320 C   0  0  0  0  0  3  0  0  0  0  0  0
  158.7780  212.6750  153.3150 C   0  0  0  0  0  2  0  0  0  0  0  0
  157.9500  211.1190  155.4910 C   0  0  0  0  0  2  0  0  0  0  0  0
  159.0880  210.6890  154.6750 N   0  0  0  0  0  0  0  0  0  0  0  0
  159.5080  211.3990  153.6700 C   0  0  0  0  0  0  0  0  0  0  0  0
  157.3660  212.5530  153.6310 N   0  0  0  0  0  0  0  0  0  0  0  0
  1  6  1  0  0  0  0
  2  1  2  0  0  0  0
  3  4  1  0  0  0  0
  4  6  2  0  0  0  0
  4  5  1  0  0  0  0
  7  2  1  0  0  0  0
  7  3  2  0  0  0  0
  8 15  1  6  0  0  0
  8  2  1  0  0  0  0
 10 11  1  0  0  0  0
 11  8  1  1  0  0  0
 12  9  1  6  0  0  0
 12 11  1  0  0  0  0
 13 10  1  0  0  0  0
 14 13  1  0  0  0  0
 14 12  1  0  0  0  0
 16 17  1  0  0  0  0
 16 18  1  0  0  0  0
 17 18  1  0  0  0  0
 18 15  1  6  0  0  0
 19  3  1  0  0  0  0
 19 20  1  0  0  0  0
 20 21  2  0  0  0  0
 21 26  1  0  0  0  0
 22 24  1  0  0  0  0
 23 27  1  0  0  0  0
 23 26  1  0  0  0  0
 25 24  1  0  0  0  0
 26 25  2  0  0  0  0
 27 22  2  0  0  0  0
M  END
>  <MODEL>
6

>  <REMARK>
 VINA RESULT:      -6.9      2.211      3.481
  Name = 
  7 active torsions:
  status: ('A' for Active; 'I' for Inactive)
    1  A    between atoms: C_7  and  C_8
    2  A    between atoms: C_8  and  C_9
    3  A    between atoms: C_8  and  C_12
    4  A    between atoms: C_9  and  C_27
    5  A    between atoms: C_10  and  S_23
    6  A    between atoms: C_16  and  N_26
    7  A    between atoms: C_21  and  S_23
                            x       y       z     vdW  Elec       q    Type
                         _______ _______ _______ _____ _____    ______ ____

>  <TORSDO>
F 7

$$$$
=
 OpenBabel11072412213D

 27 30  0  0  1  0  0  0  0  0999 V2000
  161.4800  210.3260  151.5010 C   0  0  0  0  0  3  0  0  0  0  0  0
  160.8690  210.0290  152.7210 C   0  0  0  0  0  0  0  0  0  0  0  0
  161.5470  207.7650  152.5120 C   0  0  0  0  0  0  0  0  0  0  0  0
  162.1600  208.0660  151.2870 C   0  0  0  0  0  0  0  0  0  0  0  0
  162.8330  207.0580  150.5370 N   0  0  0  0  0  1  0  0  0  0  0  0
  162.1120  209.3390  150.8130 N   0  0  0  0  0  0  0  0  0  0  0  0
  160.9180  208.7550  153.1980 N   0  0  0  0  0  0  0  0  0  0  0  0
  160.1660  211.1070  153.4810 C   0  0  2  0  0  3  0  0  0  0  0  0
  161.9700  210.5170  156.3610 C   0  0  0  0  0  1  0  0  0  0  0  0
  158.5910  210.9360  155.3830 N   0  0  0  0  0  2  0  0  0  0  0  0
  159.9510  210.6870  154.9430 C   0  0  2  0  0  3  0  0  0  0  0  0
  160.8620  211.4340  155.8840 C   0  0  1  0  0  3  0  0  0  0  0  0
  158.7200  211.3180  156.7810 C   0  0  0  0  0  2  0  0  0  0  0  0
  160.0530  211.8580  157.0130 N   0  0  0  0  0  2  0  0  0  0  0  0
  158.8820  211.5130  152.7580 C   0  0  0  0  0  2  0  0  0  0  0  0
  158.2000  213.2750  151.2020 C   0  0  0  0  0  2  0  0  0  0  0  0
  159.5990  213.2760  151.3330 O   0  0  0  0  0  0  0  0  0  0  0  0
  158.8580  213.0060  152.4980 C   0  0  2  0  0  3  0  0  0  0  0  0
  161.5790  206.1080  153.1950 S   0  0  0  0  0  0  0  0  0  0  0  0
  161.1130  205.3700  151.6360 C   0  0  0  0  0  3  0  0  0  0  0  0
  161.3510  204.1170  151.4170 N   0  0  0  0  0  0  0  0  0  0  0  0
  160.9790  201.9760  147.8650 C   0  0  0  0  0  3  0  0  0  0  0  0
  161.1870  204.1480  148.8550 C   0  0  0  0  0  2  0  0  0  0  0  0
  160.0800  201.5800  149.0040 C   0  0  0  0  0  2  0  0  0  0  0  0
  160.4980  202.2690  150.2280 N   0  0  0  0  0  0  0  0  0  0  0  0
  160.9970  203.4690  150.1930 C   0  0  0  0  0  0  0  0  0  0  0  0
  161.4800  203.1650  147.8270 N   0  0  0  0  0  0  0  0  0  0  0  0
  1  2  1  0  0  0  0
  2  7  2  0  0  0  0
  2  8  1  0  0  0  0
  3 19  1  0  0  0  0
  3  7  1  0  0  0  0
  4  3  2  0  0  0  0
  5  4  1  0  0  0  0
  6  4  1  0  0  0  0
  6  1  2  0  0  0  0
  8 15  1  6  0  0  0
 10 13  1  0  0  0  0
 11  8  1  6  0  0  0
 11 10  1  0  0  0  0
 11 12  1  0  0  0  0
 12  9  1  1  0  0  0
 12 14  1  0  0  0  0
 13 14  1  0  0  0  0
 16 17  1  0  0  0  0
 16 18  1  0  0  0  0
 17 18  1  0  0  0  0
 18 15  1  6  0  0  0
 20 19  1  0  0  0  0
 21 20  2  0  0  0  0
 22 24  1  0  0  0  0
 23 26  1  0  0  0  0
 24 25  1  0  0  0  0
 26 25  2  0  0  0  0
 26 21  1  0  0  0  0
 27 22  2  0  0  0  0
 27 23  1  0  0  0  0
M  END
>  <MODEL>
7

>  <REMARK>
 VINA RESULT:      -6.8      2.566      8.557
  Name = 
  7 active torsions:
  status: ('A' for Active; 'I' for Inactive)
    1  A    between atoms: C_7  and  C_8
    2  A    between atoms: C_8  and  C_9
    3  A    between atoms: C_8  and  C_12
    4  A    between atoms: C_9  and  C_27
    5  A    between atoms: C_10  and  S_23
    6  A    between atoms: C_16  and  N_26
    7  A    between atoms: C_21  and  S_23
                            x       y       z     vdW  Elec       q    Type
                         _______ _______ _______ _____ _____    ______ ____

>  <TORSDO>
F 7

$$$$
=
 OpenBabel11072412213D

 27 30  0  0  1  0  0  0  0  0999 V2000
  161.7010  209.7400  152.2220 C   0  0  0  0  0  3  0  0  0  0  0  0
  160.9910  208.8800  153.0620 C   0  0  0  0  0  0  0  0  0  0  0  0
  161.4820  207.0610  151.6200 C   0  0  0  0  0  0  0  0  0  0  0  0
  162.1950  207.9270  150.7770 C   0  0  0  0  0  0  0  0  0  0  0  0
  162.8240  207.4440  149.5940 N   0  0  0  0  0  1  0  0  0  0  0  0
  162.2880  209.2440  151.1010 N   0  0  0  0  0  0  0  0  0  0  0  0
  160.8980  207.5610  152.7400 N   0  0  0  0  0  0  0  0  0  0  0  0
  160.3370  209.4180  154.2930 C   0  0  2  0  0  3  0  0  0  0  0  0
  158.5600  211.9010  152.6880 C   0  0  0  0  0  1  0  0  0  0  0  0
  160.7890  211.5740  155.4230 N   0  0  0  0  0  2  0  0  0  0  0  0
  160.2420  210.9500  154.2320 C   0  0  2  0  0  3  0  0  0  0  0  0
  158.8150  211.4220  154.1030 C   0  0  1  0  0  3  0  0  0  0  0  0
  159.9510  212.7420  155.6440 C   0  0  0  0  0  2  0  0  0  0  0  0
  158.6460  212.5230  155.0340 N   0  0  0  0  0  2  0  0  0  0  0  0
  161.0450  208.8910  155.5410 C   0  0  0  0  0  2  0  0  0  0  0  0
  160.4800  207.1180  157.1320 C   0  0  0  0  0  2  0  0  0  0  0  0
  159.4910  207.1920  156.1370 O   0  0  0  0  0  0  0  0  0  0  0  0
  160.0400  208.4130  156.5710 C   0  0  2  0  0  3  0  0  0  0  0  0
  161.3260  205.3140  151.2530 S   0  0  0  0  0  0  0  0  0  0  0  0
  161.0810  205.6180  149.5100 C   0  0  0  0  0  3  0  0  0  0  0  0
  161.4950  204.7560  148.6380 N   0  0  0  0  0  0  0  0  0  0  0  0
  160.4090  204.9050  144.6210 C   0  0  0  0  0  3  0  0  0  0  0  0
  161.9310  203.9870  146.2280 C   0  0  0  0  0  2  0  0  0  0  0  0
  160.4590  206.2090  145.3690 C   0  0  0  0  0  2  0  0  0  0  0  0
  160.6280  205.9530  146.8020 N   0  0  0  0  0  0  0  0  0  0  0  0
  161.3220  204.9410  147.2310 C   0  0  0  0  0  0  0  0  0  0  0  0
  161.0920  203.8960  145.0460 N   0  0  0  0  0  0  0  0  0  0  0  0
  1  2  1  0  0  0  0
  2  8  1  0  0  0  0
  3  7  1  0  0  0  0
  4  6  1  0  0  0  0
  4  3  2  0  0  0  0
  5  4  1  0  0  0  0
  6  1  2  0  0  0  0
  7  2  2  0  0  0  0
  8 15  1  1  0  0  0
 10 13  1  0  0  0  0
 11  8  1  1  0  0  0
 11 10  1  0  0  0  0
 12  9  1  6  0  0  0
 12 11  1  0  0  0  0
 12 14  1  0  0  0  0
 14 13  1  0  0  0  0
 17 18  1  0  0  0  0
 17 16  1  0  0  0  0
 18 15  1  6  0  0  0
 18 16  1  0  0  0  0
 19  3  1  0  0  0  0
 20 19  1  0  0  0  0
 21 20  2  0  0  0  0
 22 27  2  0  0  0  0
 22 24  1  0  0  0  0
 23 26  1  0  0  0  0
 24 25  1  0  0  0  0
 25 26  2  0  0  0  0
 26 21  1  0  0  0  0
 27 23  1  0  0  0  0
M  END
>  <MODEL>
8

>  <REMARK>
 VINA RESULT:      -6.8      2.847      8.934
  Name = 
  7 active torsions:
  status: ('A' for Active; 'I' for Inactive)
    1  A    between atoms: C_7  and  C_8
    2  A    between atoms: C_8  and  C_9
    3  A    between atoms: C_8  and  C_12
    4  A    between atoms: C_9  and  C_27
    5  A    between atoms: C_10  and  S_23
    6  A    between atoms: C_16  and  N_26
    7  A    between atoms: C_21  and  S_23
                            x       y       z     vdW  Elec       q    Type
                         _______ _______ _______ _____ _____    ______ ____

>  <TORSDO>
F 7

$$$$
=
 OpenBabel11072412213D

 27 30  0  0  1  0  0  0  0  0999 V2000
  162.2410  208.0760  148.3320 C   0  0  0  0  0  3  0  0  0  0  0  0
  161.9420  206.9430  149.0910 C   0  0  0  0  0  0  0  0  0  0  0  0
  161.7050  208.2980  151.0240 C   0  0  0  0  0  0  0  0  0  0  0  0
  162.0070  209.4350  150.2600 C   0  0  0  0  0  0  0  0  0  0  0  0
  162.0400  210.7290  150.8530 N   0  0  0  0  0  1  0  0  0  0  0  0
  162.2650  209.2950  148.9320 N   0  0  0  0  0  0  0  0  0  0  0  0
  161.6800  207.0810  150.4190 N   0  0  0  0  0  0  0  0  0  0  0  0
  161.9200  205.5980  148.4400 C   0  0  2  0  0  3  0  0  0  0  0  0
  163.4560  204.3510  145.6150 C   0  0  0  0  0  1  0  0  0  0  0  0
  160.5960  206.2650  146.4570 N   0  0  0  0  0  2  0  0  0  0  0  0
  161.8690  205.7360  146.9110 C   0  0  2  0  0  3  0  0  0  0  0  0
  162.0670  204.4110  146.2190 C   0  0  1  0  0  3  0  0  0  0  0  0
  160.3480  205.5930  145.1910 C   0  0  0  0  0  2  0  0  0  0  0  0
  161.0690  204.3270  145.1670 N   0  0  0  0  0  2  0  0  0  0  0  0
  160.7910  204.7470  149.0220 C   0  0  0  0  0  2  0  0  0  0  0  0
  160.4170  202.4290  149.7170 C   0  0  0  0  0  2  0  0  0  0  0  0
  160.4560  203.2610  150.8480 O   0  0  0  0  0  0  0  0  0  0  0  0
  161.3480  203.5750  149.8060 C   0  0  2  0  0  3  0  0  0  0  0  0
  161.3500  208.4140  152.7770 S   0  0  0  0  0  0  0  0  0  0  0  0
  160.0810  209.6460  152.5200 C   0  0  0  0  0  3  0  0  0  0  0  0
  159.7520  210.4450  153.4830 N   0  0  0  0  0  0  0  0  0  0  0  0
  157.2450  213.7700  153.4760 C   0  0  0  0  0  3  0  0  0  0  0  0
  157.5640  211.5340  154.2730 C   0  0  0  0  0  2  0  0  0  0  0  0
  157.8310  213.3480  152.1560 C   0  0  0  0  0  2  0  0  0  0  0  0
  158.8540  212.3220  152.3740 N   0  0  0  0  0  0  0  0  0  0  0  0
  158.7490  211.4540  153.3360 C   0  0  0  0  0  0  0  0  0  0  0  0
  157.1420  212.9130  154.4360 N   0  0  0  0  0  0  0  0  0  0  0  0
  1  6  2  0  0  0  0
  1  2  1  0  0  0  0
  2  7  2  0  0  0  0
  3 19  1  0  0  0  0
  4  5  1  0  0  0  0
  4  3  2  0  0  0  0
  6  4  1  0  0  0  0
  7  3  1  0  0  0  0
  8 15  1  1  0  0  0
  8  2  1  0  0  0  0
 10 11  1  0  0  0  0
 11  8  1  1  0  0  0
 12  9  1  6  0  0  0
 12 11  1  0  0  0  0
 13 10  1  0  0  0  0
 14 13  1  0  0  0  0
 14 12  1  0  0  0  0
 16 18  1  0  0  0  0
 16 17  1  0  0  0  0
 18 15  1  6  0  0  0
 18 17  1  0  0  0  0
 20 19  1  0  0  0  0
 20 21  2  0  0  0  0
 22 27  2  0  0  0  0
 23 27  1  0  0  0  0
 24 25  1  0  0  0  0
 24 22  1  0  0  0  0
 25 26  2  0  0  0  0
 26 21  1  0  0  0  0
 26 23  1  0  0  0  0
M  END
>  <MODEL>
9

>  <REMARK>
 VINA RESULT:      -6.8      2.118      3.439
  Name = 
  7 active torsions:
  status: ('A' for Active; 'I' for Inactive)
    1  A    between atoms: C_7  and  C_8
    2  A    between atoms: C_8  and  C_9
    3  A    between atoms: C_8  and  C_12
    4  A    between atoms: C_9  and  C_27
    5  A    between atoms: C_10  and  S_23
    6  A    between atoms: C_16  and  N_26
    7  A    between atoms: C_21  and  S_23
                            x       y       z     vdW  Elec       q    Type
                         _______ _______ _______ _____ _____    ______ ____

>  <TORSDO>
F 7

$$$$
