=
 OpenBabel11072414013D

 61 67  0  0  1  0  0  0  0  0999 V2000
  160.8780  209.1900  153.1420 N   0  0  0  0  0  0  0  0  0  0  0  0
  162.2400  207.9480  150.6250 C   0  0  0  0  0  3  0  0  0  0  0  0
  161.9460  209.9760  148.6800 C   0  0  0  0  0  3  0  0  0  0  0  0
  161.5590  211.2580  152.1270 O   0  0  0  0  0  0  0  0  0  0  0  0
  162.0170  209.2790  150.9800 C   0  0  0  0  0  0  0  0  0  0  0  0
  161.8860  209.8850  152.3210 C   0  0  2  0  0  3  0  0  0  0  0  0
  162.1540  208.6450  148.2850 C   0  0  0  0  0  3  0  0  0  0  0  0
  161.8750  210.2500  150.0490 C   0  0  0  0  0  0  0  0  0  0  0  0
  162.3020  207.6330  149.2540 C   0  0  0  0  0  3  0  0  0  0  0  0
  161.7280  211.5460  150.7460 C   0  0  1  0  0  3  0  0  0  0  0  0
  160.6240  213.3080  149.3410 C   0  0  0  0  0  0  0  0  0  0  0  0
  160.5500  212.3190  150.2410 C   0  0  0  0  0  3  0  0  0  0  0  0
  162.4680  213.2480  147.7910 O   0  0  0  0  0  0  0  0  0  0  0  0
  161.8900  213.8090  148.7590 C   0  0  0  0  0  3  0  0  0  0  0  0
  159.3580  214.0130  148.9870 C   0  0  0  0  0  2  0  0  0  0  0  0
  158.1770  213.4680  149.7880 C   0  0  1  0  0  3  0  0  0  0  0  0
  157.7890  214.4530  150.8730 C   0  0  0  0  0  1  0  0  0  0  0  0
  156.9710  213.1520  148.8960 C   0  0  1  0  0  3  0  0  0  0  0  0
  155.8090  213.7900  149.3480 O   0  0  0  0  0  1  0  0  0  0  0  0
  157.2290  213.4760  147.4520 C   0  0  0  0  0  3  0  0  0  0  0  0
  157.8040  212.6050  146.6180 C   0  0  0  0  0  3  0  0  0  0  0  0
  158.0460  212.9500  145.1850 C   0  0  0  0  0  2  0  0  0  0  0  0
  160.1600  211.9890  145.5550 O   0  0  0  0  0  0  0  0  0  0  0  0
  159.3820  212.4440  144.7300 C   0  0  0  0  0  0  0  0  0  0  0  0
  159.7920  212.5140  143.2860 C   0  0  0  0  0  0  0  0  0  0  0  0
  158.6930  212.8460  142.5130 F   0  0  0  0  0  0  0  0  0  0  0  0
  160.2730  211.2800  142.8840 F   0  0  0  0  0  0  0  0  0  0  0  0
  160.7800  213.4670  143.0970 F   0  0  0  0  0  0  0  0  0  0  0  0
  161.4380  207.9400  153.6590 C   0  0  2  0  0  3  0  0  0  0  0  0
  160.4340  206.7970  153.5700 C   0  0  2  0  0  3  0  0  0  0  0  0
  160.6520  207.5100  154.8870 C   0  0  0  0  0  2  0  0  0  0  0  0
  161.2020  205.4850  153.5830 C   0  0  0  0  0  2  0  0  0  0  0  0
  161.0140  202.7010  150.9460 C   0  0  1  0  0  3  0  0  0  0  0  0
  161.0340  201.4960  146.0920 C   0  0  0  0  0  3  0  0  0  0  0  0
  161.1260  200.7860  147.2920 C   0  0  0  0  0  0  0  0  0  0  0  0
  160.7900  205.4760  151.0770 N   0  0  0  0  0  2  0  0  0  0  0  0
  161.2710  200.7480  149.8340 C   0  0  0  0  0  2  0  0  0  0  0  0
  161.1950  203.4180  152.2460 C   0  0  0  0  0  3  0  0  0  0  0  0
  161.1090  203.5550  147.3040 N   0  0  0  0  0  0  0  0  0  0  0  0
  161.0430  202.8930  146.1140 C   0  0  0  0  0  0  0  0  0  0  0  0
  161.3620  203.6350  149.7810 C   0  0  2  0  0  3  0  0  0  0  0  0
  160.5060  204.8180  149.8590 N   0  0  0  0  0  2  0  0  0  0  0  0
  161.8130  201.5470  150.8690 O   0  0  0  0  0  0  0  0  0  0  0  0
  161.1070  199.3970  147.2720 O   0  0  0  0  0  1  0  0  0  0  0  0
  161.0430  204.7460  152.2930 C   0  0  0  0  0  0  0  0  0  0  0  0
  161.1850  202.8880  148.4900 C   0  0  0  0  0  0  0  0  0  0  0  0
  161.2310  201.4800  148.5050 C   0  0  0  0  0  0  0  0  0  0  0  0
  160.9120  203.6410  144.8300 C   0  0  0  0  0  2  0  0  0  0  0  0
  160.2970  204.9440  145.0490 N   0  0  0  0  0  2  0  0  0  0  0  0
  160.4360  207.3100  145.6160 O   0  0  0  0  0  0  0  0  0  0  0  0
  162.2740  205.9520  145.7800 O   0  0  0  0  0  1  0  0  0  0  0  0
  161.0510  206.0690  145.4990 C   0  0  0  0  0  0  0  0  0  0  0  0
  160.5280  210.0070  154.3060 C   0  0  0  0  0  2  0  0  0  0  0  0
  159.1500  210.6230  154.1240 C   0  0  0  0  0  2  0  0  0  0  0  0
  159.7380  211.9240  156.0330 O   0  0  0  0  0  1  0  0  0  0  0  0
  159.0780  211.9830  154.8010 C   0  0  2  0  0  3  0  0  0  0  0  0
  156.8170  211.2540  155.4090 N   0  0  0  0  0  2  0  0  0  0  0  0
  156.0280  212.9000  156.9640 C   0  0  0  0  0  2  0  0  0  0  0  0
  157.6220  212.3960  154.9920 C   0  0  1  0  0  3  0  0  0  0  0  0
  155.6160  211.8120  156.0000 C   0  0  0  0  0  2  0  0  0  0  0  0
  157.5030  213.6890  156.2710 S   0  0  0  0  0  0  0  0  0  0  0  0
  1 53  1  0  0  0  0
  2  5  1  0  0  0  0
  3  8  1  0  0  0  0
  4  6  1  0  0  0  0
  5  6  1  0  0  0  0
  6  1  1  1  0  0  0
  7  3  2  0  0  0  0
  7  9  1  0  0  0  0
  8 10  1  0  0  0  0
  8  5  2  0  0  0  0
  9  2  2  0  0  0  0
 10 12  1  6  0  0  0
 10  4  1  0  0  0  0
 11 12  2  0  0  0  0
 13 14  2  0  0  0  0
 14 11  1  0  0  0  0
 15 11  1  0  0  0  0
 15 16  1  0  0  0  0
 16 17  1  1  0  0  0
 18 19  1  1  0  0  0
 18 16  1  0  0  0  0
 20 18  1  0  0  0  0
 21 20  2  0  0  0  0
 22 21  1  0  0  0  0
 24 22  1  0  0  0  0
 24 23  2  0  0  0  0
 25 24  1  0  0  0  0
 26 25  1  0  0  0  0
 27 25  1  0  0  0  0
 28 25  1  0  0  0  0
 29  1  1  6  0  0  0
 29 31  1  0  0  0  0
 30 32  1  1  0  0  0
 30 29  1  0  0  0  0
 30 31  1  0  0  0  0
 33 38  1  1  0  0  0
 34 40  2  0  0  0  0
 34 35  1  0  0  0  0
 35 47  2  0  0  0  0
 36 45  1  0  0  0  0
 37 43  1  0  0  0  0
 38 45  2  0  0  0  0
 39 46  2  0  0  0  0
 40 39  1  0  0  0  0
 41 46  1  6  0  0  0
 41 42  1  0  0  0  0
 41 33  1  0  0  0  0
 42 36  1  0  0  0  0
 43 33  1  0  0  0  0
 44 35  1  0  0  0  0
 45 32  1  0  0  0  0
 46 47  1  0  0  0  0
 47 37  1  0  0  0  0
 48 49  1  0  0  0  0
 48 40  1  0  0  0  0
 49 52  1  0  0  0  0
 52 50  2  0  0  0  0
 52 51  1  0  0  0  0
 54 53  1  0  0  0  0
 54 56  1  0  0  0  0
 56 55  1  1  0  0  0
 57 60  1  0  0  0  0
 59 56  1  1  0  0  0
 59 57  1  0  0  0  0
 59 61  1  0  0  0  0
 60 58  1  0  0  0  0
 61 58  1  0  0  0  0
M  END
>  <MODEL>
1

>  <REMARK>
 VINA RESULT:      -6.5      0.000      0.000
  Name = 
  19 active torsions:
  status: ('A' for Active; 'I' for Inactive)
    1  A    between atoms: C_1  and  C_14
    2  A    between atoms: C_12  and  N_37
    3  A    between atoms: C_13  and  C_39
    4  A    between atoms: C_13  and  C_42
    5  A    between atoms: C_14  and  C_19
    6  A    between atoms: N_15  and  C_18
    7  A    between atoms: C_16  and  C_33
    8  A    between atoms: C_16  and  C_54
    9  A    between atoms: C_18  and  C_32
   10  A    between atoms: C_19  and  C_42
   11  A    between atoms: C_20  and  C_53
   12  A    between atoms: C_27  and  C_54
   13  A    between atoms: C_29  and  C_59
   14  A    between atoms: C_31  and  N_37
   15  A    between atoms: C_33  and  N_37
   16  A    between atoms: C_44  and  C_51
   17  A    between atoms: C_50  and  C_53
   18  A    between atoms: C_50  and  C_58
   19  A    between atoms: C_51  and  C_52
                            x       y       z     vdW  Elec       q    Type
                         _______ _______ _______ _____ _____    ______ ____

>  <TORSDO>
F 19

$$$$
=
 OpenBabel11072414013D

 61 67  0  0  1  0  0  0  0  0999 V2000
  161.8730  208.7000  150.9600 N   0  0  0  0  0  0  0  0  0  0  0  0
  162.5090  207.8790  148.0180 C   0  0  0  0  0  3  0  0  0  0  0  0
  161.4250  205.2770  147.8380 C   0  0  0  0  0  3  0  0  0  0  0  0
  160.0210  207.1980  150.6680 O   0  0  0  0  0  0  0  0  0  0  0  0
  161.5230  207.4320  148.8980 C   0  0  0  0  0  0  0  0  0  0  0  0
  160.8810  208.1360  150.0270 C   0  0  2  0  0  3  0  0  0  0  0  0
  162.4270  205.6870  146.9440 C   0  0  0  0  0  3  0  0  0  0  0  0
  161.0050  206.1860  148.8140 C   0  0  0  0  0  0  0  0  0  0  0  0
  162.9670  206.9850  147.0320 C   0  0  0  0  0  3  0  0  0  0  0  0
  159.9420  206.0520  149.8320 C   0  0  1  0  0  3  0  0  0  0  0  0
  161.2140  204.5120  151.3500 C   0  0  0  0  0  0  0  0  0  0  0  0
  160.1100  204.8130  150.6530 C   0  0  0  0  0  3  0  0  0  0  0  0
  163.0370  205.6640  152.4240 O   0  0  0  0  0  0  0  0  0  0  0  0
  162.4400  205.3410  151.3640 C   0  0  0  0  0  3  0  0  0  0  0  0
  161.2370  203.2060  152.0730 C   0  0  0  0  0  2  0  0  0  0  0  0
  161.9300  202.1270  151.2450 C   0  0  1  0  0  3  0  0  0  0  0  0
  162.8960  201.3470  152.1140 C   0  0  0  0  0  1  0  0  0  0  0  0
  160.9280  201.1790  150.5760 C   0  0  1  0  0  3  0  0  0  0  0  0
  159.6330  201.7140  150.5670 O   0  0  0  0  0  1  0  0  0  0  0  0
  161.3510  200.7870  149.1890 C   0  0  0  0  0  3  0  0  0  0  0  0
  160.9010  201.4210  148.1020 C   0  0  0  0  0  3  0  0  0  0  0  0
  161.3410  201.0140  146.7330 C   0  0  0  0  0  2  0  0  0  0  0  0
  161.4240  203.0260  145.5200 O   0  0  0  0  0  0  0  0  0  0  0  0
  160.8310  201.9730  145.7000 C   0  0  0  0  0  0  0  0  0  0  0  0
  159.5900  201.6770  144.9050 C   0  0  0  0  0  0  0  0  0  0  0  0
  159.2550  202.7840  144.1460 F   0  0  0  0  0  0  0  0  0  0  0  0
  158.5490  201.3880  145.7700 F   0  0  0  0  0  0  0  0  0  0  0  0
  159.7890  200.5960  144.0610 F   0  0  0  0  0  0  0  0  0  0  0  0
  161.8050  210.1620  150.9310 C   0  0  2  0  0  3  0  0  0  0  0  0
  162.0540  210.7070  149.5300 C   0  0  2  0  0  3  0  0  0  0  0  0
  163.1680  210.7190  150.5540 C   0  0  0  0  0  2  0  0  0  0  0  0
  161.4450  212.0970  149.4440 C   0  0  0  0  0  2  0  0  0  0  0  0
  159.8770  213.1740  146.1080 C   0  0  1  0  0  3  0  0  0  0  0  0
  160.4750  213.7760  141.1800 C   0  0  0  0  0  3  0  0  0  0  0  0
  159.3890  213.7970  142.0580 C   0  0  0  0  0  0  0  0  0  0  0  0
  162.4050  212.6550  147.1600 N   0  0  0  0  0  2  0  0  0  0  0  0
  158.4320  213.5080  144.4010 C   0  0  0  0  0  2  0  0  0  0  0  0
  160.0340  212.7300  147.5280 C   0  0  0  0  0  3  0  0  0  0  0  0
  161.9070  213.0890  142.9660 N   0  0  0  0  0  0  0  0  0  0  0  0
  161.7360  213.4010  141.6500 C   0  0  0  0  0  0  0  0  0  0  0  0
  161.0570  212.6680  145.2690 C   0  0  2  0  0  3  0  0  0  0  0  0
  162.2970  213.1780  145.8510 N   0  0  0  0  0  2  0  0  0  0  0  0
  158.6760  212.7110  145.5450 O   0  0  0  0  0  0  0  0  0  0  0  0
  158.1370  214.1810  141.5940 O   0  0  0  0  0  1  0  0  0  0  0  0
  161.2600  212.5250  148.0240 C   0  0  0  0  0  0  0  0  0  0  0  0
  160.8680  213.1150  143.8480 C   0  0  0  0  0  0  0  0  0  0  0  0
  159.5730  213.4380  143.4000 C   0  0  0  0  0  0  0  0  0  0  0  0
  162.8960  213.4120  140.7110 C   0  0  0  0  0  2  0  0  0  0  0  0
  162.5510  212.7590  139.4540 N   0  0  0  0  0  2  0  0  0  0  0  0
  162.1580  210.7620  138.1150 O   0  0  0  0  0  0  0  0  0  0  0  0
  162.9550  210.6030  140.2570 O   0  0  0  0  0  1  0  0  0  0  0  0
  162.5740  211.3400  139.3090 C   0  0  0  0  0  0  0  0  0  0  0  0
  161.5620  208.2910  152.3320 C   0  0  0  0  0  2  0  0  0  0  0  0
  161.5380  209.5020  153.2510 C   0  0  0  0  0  2  0  0  0  0  0  0
  159.5150  210.6530  153.7620 O   0  0  0  0  0  1  0  0  0  0  0  0
  160.2650  209.5170  154.0830 C   0  0  2  0  0  3  0  0  0  0  0  0
  161.4610  208.3640  155.8860 N   0  0  0  0  0  2  0  0  0  0  0  0
  162.6390  210.0930  157.0570 C   0  0  0  0  0  2  0  0  0  0  0  0
  160.6100  209.5040  155.5680 C   0  0  1  0  0  3  0  0  0  0  0  0
  162.0970  208.6850  157.1490 C   0  0  0  0  0  2  0  0  0  0  0  0
  161.4940  211.0330  156.0160 S   0  0  0  0  0  0  0  0  0  0  0  0
  1 53  1  0  0  0  0
  2  5  1  0  0  0  0
  3  8  1  0  0  0  0
  5  6  1  0  0  0  0
  6  4  1  0  0  0  0
  6  1  1  1  0  0  0
  7  9  1  0  0  0  0
  7  3  2  0  0  0  0
  8  5  2  0  0  0  0
  8 10  1  0  0  0  0
  9  2  2  0  0  0  0
 10 12  1  1  0  0  0
 10  4  1  0  0  0  0
 11 14  1  0  0  0  0
 11 15  1  0  0  0  0
 12 11  2  0  0  0  0
 14 13  2  0  0  0  0
 16 15  1  0  0  0  0
 16 17  1  1  0  0  0
 18 19  1  6  0  0  0
 18 16  1  0  0  0  0
 20 18  1  0  0  0  0
 21 20  2  0  0  0  0
 22 21  1  0  0  0  0
 23 24  2  0  0  0  0
 24 22  1  0  0  0  0
 25 24  1  0  0  0  0
 25 27  1  0  0  0  0
 26 25  1  0  0  0  0
 28 25  1  0  0  0  0
 29  1  1  6  0  0  0
 30 32  1  1  0  0  0
 30 31  1  0  0  0  0
 30 29  1  0  0  0  0
 31 29  1  0  0  0  0
 33 38  1  1  0  0  0
 34 40  2  0  0  0  0
 34 35  1  0  0  0  0
 35 47  2  0  0  0  0
 36 45  1  0  0  0  0
 37 43  1  0  0  0  0
 38 45  2  0  0  0  0
 39 46  2  0  0  0  0
 40 39  1  0  0  0  0
 41 46  1  6  0  0  0
 41 42  1  0  0  0  0
 41 33  1  0  0  0  0
 42 36  1  0  0  0  0
 43 33  1  0  0  0  0
 44 35  1  0  0  0  0
 45 32  1  0  0  0  0
 47 46  1  0  0  0  0
 47 37  1  0  0  0  0
 48 40  1  0  0  0  0
 49 48  1  0  0  0  0
 50 52  2  0  0  0  0
 52 49  1  0  0  0  0
 52 51  1  0  0  0  0
 53 54  1  0  0  0  0
 54 56  1  0  0  0  0
 56 55  1  1  0  0  0
 57 60  1  0  0  0  0
 58 60  1  0  0  0  0
 59 56  1  6  0  0  0
 59 57  1  0  0  0  0
 59 61  1  0  0  0  0
 61 58  1  0  0  0  0
M  END
>  <MODEL>
2

>  <REMARK>
 VINA RESULT:      -4.1      4.002      9.307
  Name = 
  19 active torsions:
  status: ('A' for Active; 'I' for Inactive)
    1  A    between atoms: C_1  and  C_14
    2  A    between atoms: C_12  and  N_37
    3  A    between atoms: C_13  and  C_39
    4  A    between atoms: C_13  and  C_42
    5  A    between atoms: C_14  and  C_19
    6  A    between atoms: N_15  and  C_18
    7  A    between atoms: C_16  and  C_33
    8  A    between atoms: C_16  and  C_54
    9  A    between atoms: C_18  and  C_32
   10  A    between atoms: C_19  and  C_42
   11  A    between atoms: C_20  and  C_53
   12  A    between atoms: C_27  and  C_54
   13  A    between atoms: C_29  and  C_59
   14  A    between atoms: C_31  and  N_37
   15  A    between atoms: C_33  and  N_37
   16  A    between atoms: C_44  and  C_51
   17  A    between atoms: C_50  and  C_53
   18  A    between atoms: C_50  and  C_58
   19  A    between atoms: C_51  and  C_52
                            x       y       z     vdW  Elec       q    Type
                         _______ _______ _______ _____ _____    ______ ____

>  <TORSDO>
F 19

$$$$
