=
 OpenBabel11072412373D

 31 32  0  0  1  0  0  0  0  0999 V2000
  161.0100  206.8210  149.0300 C   0  0  0  0  0  2  0  0  0  0  0  0
  162.3860  207.8040  150.8290 C   0  0  0  0  0  0  0  0  0  0  0  0
  162.0200  210.0470  149.1140 C   0  0  0  0  0  0  0  0  0  0  0  0
  161.9270  209.2580  152.6460 O   0  0  0  0  0  0  0  0  0  0  0  0
  162.2770  208.8730  148.6040 N   0  0  0  0  0  0  0  0  0  0  0  0
  162.2810  207.6040  149.3450 C   0  0  2  0  0  3  0  0  0  0  0  0
  161.8170  210.2020  150.5210 N   0  0  0  0  0  2  0  0  0  0  0  0
  162.0290  209.1020  151.4010 C   0  0  0  0  0  0  0  0  0  0  0  0
  162.7350  206.8490  151.5730 O   0  0  0  0  0  0  0  0  0  0  0  0
  161.9790  211.2400  148.2590 C   0  0  0  0  0  3  0  0  0  0  0  0
  161.0890  213.5390  149.1190 C   0  0  0  0  0  3  0  0  0  0  0  0
  161.5350  212.3910  148.6880 C   0  0  0  0  0  0  0  0  0  0  0  0
  159.7870  213.6520  149.7800 C   0  0  0  0  0  0  0  0  0  0  0  0
  158.7390  213.5870  149.0830 O   0  0  0  0  0  0  0  0  0  0  0  0
  159.7110  213.8380  151.1630 O   0  0  0  0  0  0  0  0  0  0  0  0
  159.7170  212.7440  152.0680 C   0  0  0  0  0  1  0  0  0  0  0  0
  161.2850  205.4090  148.5070 C   0  0  1  0  0  3  0  0  0  0  0  0
  161.8700  206.2980  146.1960 C   0  0  0  0  0  2  0  0  0  0  0  0
  159.9980  203.6100  144.2410 O   0  0  0  0  0  1  0  0  0  0  0  0
  160.8420  204.2190  145.1610 C   0  0  0  0  0  0  0  0  0  0  0  0
  162.3000  205.4020  147.3550 C   0  0  2  0  0  3  0  0  0  0  0  0
  161.7050  203.4570  145.8420 C   0  0  0  0  0  3  0  0  0  0  0  0
  160.6950  205.6970  145.4230 C   0  0  2  0  0  3  0  0  0  0  0  0
  160.5330  206.3850  144.2210 O   0  0  0  0  0  1  0  0  0  0  0  0
  162.6820  204.0090  146.8420 C   0  0  0  0  0  2  0  0  0  0  0  0
  161.6450  204.5390  149.5470 O   0  0  0  0  0  0  0  0  0  0  0  0
  160.5180  203.7430  149.7780 C   0  0  1  0  0  3  0  0  0  0  0  0
  160.7760  202.3210  149.3120 C   0  0  0  0  0  1  0  0  0  0  0  0
  160.1190  203.7740  151.2540 C   0  0  0  0  0  2  0  0  0  0  0  0
  161.1210  204.8120  153.1680 O   0  0  0  0  0  1  0  0  0  0  0  0
  161.3170  203.8310  152.1960 C   0  0  0  0  0  2  0  0  0  0  0  0
  2  8  1  0  0  0  0
  2  9  2  0  0  0  0
  3  7  1  0  0  0  0
  5  3  2  0  0  0  0
  5  6  1  0  0  0  0
  6  1  1  1  0  0  0
  6  2  1  0  0  0  0
  7  8  1  0  0  0  0
  8  4  2  0  0  0  0
 10 12  2  0  0  0  0
 10  3  1  0  0  0  0
 11 13  1  0  0  0  0
 12 11  2  0  0  0  0
 13 15  1  0  0  0  0
 14 13  2  0  0  0  0
 15 16  1  0  0  0  0
 17  1  1  1  0  0  0
 17 26  1  0  0  0  0
 18 21  1  0  0  0  0
 19 20  1  0  0  0  0
 20 23  1  0  0  0  0
 20 22  2  0  0  0  0
 21 17  1  1  0  0  0
 22 25  1  0  0  0  0
 23 24  1  6  0  0  0
 23 18  1  0  0  0  0
 25 21  1  0  0  0  0
 26 27  1  0  0  0  0
 27 28  1  1  0  0  0
 27 29  1  0  0  0  0
 29 31  1  0  0  0  0
 31 30  1  0  0  0  0
M  END
>  <MODEL>
1

>  <REMARK>
 VINA RESULT:      -7.0      0.000      0.000
  Name = 
  10 active torsions:
  status: ('A' for Active; 'I' for Inactive)
    1  A    between atoms: C_2  and  C_15
    2  A    between atoms: C_2  and  C_20
    3  A    between atoms: C_2  and  O_25
    4  A    between atoms: C_4  and  C_13
    5  A    between atoms: O_6  and  C_10
    6  A    between atoms: C_7  and  C_11
    7  A    between atoms: C_10  and  C_18
    8  A    between atoms: C_13  and  C_19
    9  A    between atoms: C_16  and  C_20
   10  A    between atoms: C_19  and  O_25
                            x       y       z     vdW  Elec       q    Type
                         _______ _______ _______ _____ _____    ______ ____

>  <TORSDO>
F 10

$$$$
=
 OpenBabel11072412373D

 31 32  0  0  1  0  0  0  0  0999 V2000
  160.5590  209.0560  152.8890 C   0  0  0  0  0  2  0  0  0  0  0  0
  162.1950  209.1330  151.0420 C   0  0  0  0  0  0  0  0  0  0  0  0
  161.0490  206.5530  150.6680 C   0  0  0  0  0  0  0  0  0  0  0  0
  162.0170  209.4300  148.6950 O   0  0  0  0  0  0  0  0  0  0  0  0
  161.3380  206.9690  151.8710 N   0  0  0  0  0  0  0  0  0  0  0  0
  161.7320  208.3390  152.2290 C   0  0  2  0  0  3  0  0  0  0  0  0
  161.2050  207.4190  149.5410 N   0  0  0  0  0  2  0  0  0  0  0  0
  161.8080  208.7000  149.6990 C   0  0  0  0  0  0  0  0  0  0  0  0
  162.8710  210.1830  151.2070 O   0  0  0  0  0  0  0  0  0  0  0  0
  160.6010  205.1740  150.4430 C   0  0  0  0  0  3  0  0  0  0  0  0
  161.4830  203.7310  148.4530 C   0  0  0  0  0  3  0  0  0  0  0  0
  161.0420  204.4500  149.4490 C   0  0  0  0  0  0  0  0  0  0  0  0
  161.4610  204.2360  147.0780 C   0  0  0  0  0  0  0  0  0  0  0  0
  161.4280  203.4140  146.1240 O   0  0  0  0  0  0  0  0  0  0  0  0
  161.4840  205.6110  146.8310 O   0  0  0  0  0  0  0  0  0  0  0  0
  160.6090  206.2190  145.8930 C   0  0  0  0  0  1  0  0  0  0  0  0
  160.9850  210.0040  154.0130 C   0  0  1  0  0  3  0  0  0  0  0  0
  160.1440  212.2150  154.9480 C   0  0  0  0  0  2  0  0  0  0  0  0
  156.4320  211.4620  154.4940 O   0  0  0  0  0  1  0  0  0  0  0  0
  157.7880  211.5980  154.2270 C   0  0  0  0  0  0  0  0  0  0  0  0
  160.6260  211.4660  153.7090 C   0  0  2  0  0  3  0  0  0  0  0  0
  158.2040  211.5030  152.9600 C   0  0  0  0  0  3  0  0  0  0  0  0
  158.7500  211.7580  155.3790 C   0  0  2  0  0  3  0  0  0  0  0  0
  158.2360  212.6580  156.3120 O   0  0  0  0  0  1  0  0  0  0  0  0
  159.6420  211.6590  152.5500 C   0  0  0  0  0  2  0  0  0  0  0  0
  160.4950  209.5760  155.2560 O   0  0  0  0  0  0  0  0  0  0  0  0
  161.5670  208.9270  155.8790 C   0  0  1  0  0  3  0  0  0  0  0  0
  162.5060  209.9450  156.5030 C   0  0  0  0  0  1  0  0  0  0  0  0
  161.0690  207.9260  156.9220 C   0  0  0  0  0  2  0  0  0  0  0  0
  160.2590  206.4920  155.1820 O   0  0  0  0  0  1  0  0  0  0  0  0
  159.9270  207.0520  156.4150 C   0  0  0  0  0  2  0  0  0  0  0  0
  2  9  2  0  0  0  0
  2  6  1  0  0  0  0
  3  5  2  0  0  0  0
  4  8  2  0  0  0  0
  5  6  1  0  0  0  0
  6  1  1  6  0  0  0
  7  8  1  0  0  0  0
  7  3  1  0  0  0  0
  8  2  1  0  0  0  0
 10  3  1  0  0  0  0
 11 12  2  0  0  0  0
 12 10  2  0  0  0  0
 13 11  1  0  0  0  0
 14 13  2  0  0  0  0
 15 13  1  0  0  0  0
 16 15  1  0  0  0  0
 17  1  1  6  0  0  0
 17 26  1  0  0  0  0
 18 23  1  0  0  0  0
 20 19  1  0  0  0  0
 20 23  1  0  0  0  0
 21 17  1  1  0  0  0
 21 18  1  0  0  0  0
 22 20  2  0  0  0  0
 23 24  1  1  0  0  0
 25 22  1  0  0  0  0
 25 21  1  0  0  0  0
 26 27  1  0  0  0  0
 27 28  1  1  0  0  0
 27 29  1  0  0  0  0
 30 31  1  0  0  0  0
 31 29  1  0  0  0  0
M  END
>  <MODEL>
2

>  <REMARK>
 VINA RESULT:      -6.8      3.130      8.327
  Name = 
  10 active torsions:
  status: ('A' for Active; 'I' for Inactive)
    1  A    between atoms: C_2  and  C_15
    2  A    between atoms: C_2  and  C_20
    3  A    between atoms: C_2  and  O_25
    4  A    between atoms: C_4  and  C_13
    5  A    between atoms: O_6  and  C_10
    6  A    between atoms: C_7  and  C_11
    7  A    between atoms: C_10  and  C_18
    8  A    between atoms: C_13  and  C_19
    9  A    between atoms: C_16  and  C_20
   10  A    between atoms: C_19  and  O_25
                            x       y       z     vdW  Elec       q    Type
                         _______ _______ _______ _____ _____    ______ ____

>  <TORSDO>
F 10

$$$$
=
 OpenBabel11072412373D

 31 32  0  0  1  0  0  0  0  0999 V2000
  162.2310  205.7500  149.8050 C   0  0  0  0  0  2  0  0  0  0  0  0
  161.5910  208.1050  150.1780 C   0  0  0  0  0  0  0  0  0  0  0  0
  161.2060  207.0030  152.7740 C   0  0  0  0  0  0  0  0  0  0  0  0
  162.6410  209.9490  151.2370 O   0  0  0  0  0  0  0  0  0  0  0  0
  160.8210  206.3360  151.7200 N   0  0  0  0  0  0  0  0  0  0  0  0
  161.1420  206.6810  150.3280 C   0  0  2  0  0  3  0  0  0  0  0  0
  161.9140  208.2370  152.6370 N   0  0  0  0  0  2  0  0  0  0  0  0
  162.0870  208.8250  151.3510 C   0  0  0  0  0  0  0  0  0  0  0  0
  161.5810  208.6560  149.0450 O   0  0  0  0  0  0  0  0  0  0  0  0
  160.8800  206.5220  154.1220 C   0  0  0  0  0  3  0  0  0  0  0  0
  160.0300  208.1210  156.0040 C   0  0  0  0  0  3  0  0  0  0  0  0
  160.4540  207.3200  155.0640 C   0  0  0  0  0  0  0  0  0  0  0  0
  160.7490  209.3520  156.3380 C   0  0  0  0  0  0  0  0  0  0  0  0
  160.1060  210.3270  156.8120 O   0  0  0  0  0  0  0  0  0  0  0  0
  162.1270  209.4450  156.1250 O   0  0  0  0  0  0  0  0  0  0  0  0
  162.7870  210.6970  156.0200 C   0  0  0  0  0  1  0  0  0  0  0  0
  161.8270  205.0040  148.5310 C   0  0  1  0  0  3  0  0  0  0  0  0
  161.5480  206.5210  146.5080 C   0  0  0  0  0  2  0  0  0  0  0  0
  160.1050  203.8520  144.1960 O   0  0  0  0  0  1  0  0  0  0  0  0
  160.9380  204.4960  145.1020 C   0  0  0  0  0  0  0  0  0  0  0  0
  162.4870  205.5950  147.2770 C   0  0  2  0  0  3  0  0  0  0  0  0
  162.1210  203.9440  145.3880 C   0  0  0  0  0  3  0  0  0  0  0  0
  160.4430  205.7400  145.7960 C   0  0  2  0  0  3  0  0  0  0  0  0
  159.8010  206.5770  144.8830 O   0  0  0  0  0  1  0  0  0  0  0  0
  163.1140  204.5630  146.3320 C   0  0  0  0  0  2  0  0  0  0  0  0
  162.0460  203.6240  148.6550 O   0  0  0  0  0  0  0  0  0  0  0  0
  160.7760  203.0380  148.6210 C   0  0  1  0  0  3  0  0  0  0  0  0
  160.8280  201.7160  147.8750 C   0  0  0  0  0  1  0  0  0  0  0  0
  160.2230  202.8500  150.0340 C   0  0  0  0  0  2  0  0  0  0  0  0
  161.5680  203.0960  152.0020 O   0  0  0  0  0  1  0  0  0  0  0  0
  161.2230  202.2030  150.9870 C   0  0  0  0  0  2  0  0  0  0  0  0
  2  6  1  0  0  0  0
  2  8  1  0  0  0  0
  3 10  1  0  0  0  0
  4  8  2  0  0  0  0
  5  3  2  0  0  0  0
  6  1  1  1  0  0  0
  6  5  1  0  0  0  0
  7  3  1  0  0  0  0
  8  7  1  0  0  0  0
  9  2  2  0  0  0  0
 10 12  2  0  0  0  0
 11 13  1  0  0  0  0
 12 11  2  0  0  0  0
 13 14  2  0  0  0  0
 15 13  1  0  0  0  0
 16 15  1  0  0  0  0
 17 26  1  0  0  0  0
 17  1  1  1  0  0  0
 18 21  1  0  0  0  0
 19 20  1  0  0  0  0
 20 22  2  0  0  0  0
 20 23  1  0  0  0  0
 21 17  1  1  0  0  0
 22 25  1  0  0  0  0
 23 24  1  6  0  0  0
 23 18  1  0  0  0  0
 25 21  1  0  0  0  0
 27 28  1  1  0  0  0
 27 26  1  0  0  0  0
 27 29  1  0  0  0  0
 29 31  1  0  0  0  0
 31 30  1  0  0  0  0
M  END
>  <MODEL>
3

>  <REMARK>
 VINA RESULT:      -6.6      2.760      4.052
  Name = 
  10 active torsions:
  status: ('A' for Active; 'I' for Inactive)
    1  A    between atoms: C_2  and  C_15
    2  A    between atoms: C_2  and  C_20
    3  A    between atoms: C_2  and  O_25
    4  A    between atoms: C_4  and  C_13
    5  A    between atoms: O_6  and  C_10
    6  A    between atoms: C_7  and  C_11
    7  A    between atoms: C_10  and  C_18
    8  A    between atoms: C_13  and  C_19
    9  A    between atoms: C_16  and  C_20
   10  A    between atoms: C_19  and  O_25
                            x       y       z     vdW  Elec       q    Type
                         _______ _______ _______ _____ _____    ______ ____

>  <TORSDO>
F 10

$$$$
=
 OpenBabel11072412373D

 31 32  0  0  1  0  0  0  0  0999 V2000
  160.3960  206.2180  150.2650 C   0  0  0  0  0  2  0  0  0  0  0  0
  161.2470  205.8670  152.5560 C   0  0  0  0  0  0  0  0  0  0  0  0
  161.8300  208.6250  152.1590 C   0  0  0  0  0  0  0  0  0  0  0  0
  160.4590  206.4580  154.7140 O   0  0  0  0  0  0  0  0  0  0  0  0
  162.0470  207.7690  151.1970 N   0  0  0  0  0  0  0  0  0  0  0  0
  161.6030  206.3680  151.1860 C   0  0  2  0  0  3  0  0  0  0  0  0
  161.2050  208.2110  153.3760 N   0  0  0  0  0  2  0  0  0  0  0  0
  160.9370  206.8320  153.6110 C   0  0  0  0  0  0  0  0  0  0  0  0
  161.1740  204.6290  152.7780 O   0  0  0  0  0  0  0  0  0  0  0  0
  162.2650  210.0210  152.0270 C   0  0  0  0  0  3  0  0  0  0  0  0
  161.6830  211.4680  149.9330 C   0  0  0  0  0  3  0  0  0  0  0  0
  161.9740  210.7470  150.9810 C   0  0  0  0  0  0  0  0  0  0  0  0
  161.9540  210.9870  148.5760 C   0  0  0  0  0  0  0  0  0  0  0  0
  162.1590  209.7570  148.3910 O   0  0  0  0  0  0  0  0  0  0  0  0
  161.9910  211.8820  147.5040 O   0  0  0  0  0  0  0  0  0  0  0  0
  162.5650  213.1750  147.6260 C   0  0  0  0  0  1  0  0  0  0  0  0
  160.7360  205.5510  148.9300 C   0  0  1  0  0  3  0  0  0  0  0  0
  160.4580  206.4830  146.5790 C   0  0  0  0  0  2  0  0  0  0  0  0
  162.7270  203.9410  144.8640 O   0  0  0  0  0  1  0  0  0  0  0  0
  162.2640  204.8950  145.7610 C   0  0  0  0  0  0  0  0  0  0  0  0
  161.2410  206.5600  147.8870 C   0  0  2  0  0  3  0  0  0  0  0  0
  163.1300  205.4440  146.6180 C   0  0  0  0  0  3  0  0  0  0  0  0
  160.7890  205.2120  145.7960 C   0  0  2  0  0  3  0  0  0  0  0  0
  160.2900  205.3260  144.4980 O   0  0  0  0  0  1  0  0  0  0  0  0
  162.7480  206.5030  147.6140 C   0  0  0  0  0  2  0  0  0  0  0  0
  161.6150  204.4730  149.1060 O   0  0  0  0  0  0  0  0  0  0  0  0
  160.8240  203.3230  149.0050 C   0  0  1  0  0  3  0  0  0  0  0  0
  161.2920  202.4640  147.8440 C   0  0  0  0  0  1  0  0  0  0  0  0
  160.8390  202.5330  150.3150 C   0  0  0  0  0  2  0  0  0  0  0  0
  159.1240  200.9460  149.7820 O   0  0  0  0  0  1  0  0  0  0  0  0
  160.4690  201.0650  150.1330 C   0  0  0  0  0  2  0  0  0  0  0  0
  2  9  2  0  0  0  0
  2  8  1  0  0  0  0
  3  7  1  0  0  0  0
  5  3  2  0  0  0  0
  6  1  1  6  0  0  0
  6  5  1  0  0  0  0
  6  2  1  0  0  0  0
  7  8  1  0  0  0  0
  8  4  2  0  0  0  0
 10  3  1  0  0  0  0
 11 12  2  0  0  0  0
 12 10  2  0  0  0  0
 13 11  1  0  0  0  0
 14 13  2  0  0  0  0
 15 16  1  0  0  0  0
 15 13  1  0  0  0  0
 17 26  1  0  0  0  0
 17  1  1  1  0  0  0
 18 21  1  0  0  0  0
 19 20  1  0  0  0  0
 20 23  1  0  0  0  0
 20 22  2  0  0  0  0
 21 17  1  1  0  0  0
 22 25  1  0  0  0  0
 23 24  1  6  0  0  0
 23 18  1  0  0  0  0
 25 21  1  0  0  0  0
 27 28  1  6  0  0  0
 27 26  1  0  0  0  0
 27 29  1  0  0  0  0
 30 31  1  0  0  0  0
 31 29  1  0  0  0  0
M  END
>  <MODEL>
4

>  <REMARK>
 VINA RESULT:      -6.4      2.093      3.018
  Name = 
  10 active torsions:
  status: ('A' for Active; 'I' for Inactive)
    1  A    between atoms: C_2  and  C_15
    2  A    between atoms: C_2  and  C_20
    3  A    between atoms: C_2  and  O_25
    4  A    between atoms: C_4  and  C_13
    5  A    between atoms: O_6  and  C_10
    6  A    between atoms: C_7  and  C_11
    7  A    between atoms: C_10  and  C_18
    8  A    between atoms: C_13  and  C_19
    9  A    between atoms: C_16  and  C_20
   10  A    between atoms: C_19  and  O_25
                            x       y       z     vdW  Elec       q    Type
                         _______ _______ _______ _____ _____    ______ ____

>  <TORSDO>
F 10

$$$$
=
 OpenBabel11072412373D

 31 32  0  0  1  0  0  0  0  0999 V2000
  160.8330  207.9860  151.6400 C   0  0  0  0  0  2  0  0  0  0  0  0
  161.7730  207.3180  149.4580 C   0  0  0  0  0  0  0  0  0  0  0  0
  160.7680  204.8330  150.4190 C   0  0  0  0  0  0  0  0  0  0  0  0
  160.8230  206.7620  147.3560 O   0  0  0  0  0  0  0  0  0  0  0  0
  161.3980  205.6390  151.2310 N   0  0  0  0  0  0  0  0  0  0  0  0
  161.7810  207.0260  150.9300 C   0  0  2  0  0  3  0  0  0  0  0  0
  160.4840  205.2290  149.0750 N   0  0  0  0  0  2  0  0  0  0  0  0
  161.0070  206.4510  148.5620 C   0  0  0  0  0  0  0  0  0  0  0  0
  162.3840  208.3240  149.0090 O   0  0  0  0  0  0  0  0  0  0  0  0
  160.3770  203.4880  150.8560 C   0  0  0  0  0  3  0  0  0  0  0  0
  161.2860  201.3300  149.7000 C   0  0  0  0  0  3  0  0  0  0  0  0
  160.8310  202.4070  150.2800 C   0  0  0  0  0  0  0  0  0  0  0  0
  161.2150  201.1570  148.2470 C   0  0  0  0  0  0  0  0  0  0  0  0
  161.5140  200.0400  147.7480 O   0  0  0  0  0  0  0  0  0  0  0  0
  160.8280  202.2220  147.4290 O   0  0  0  0  0  0  0  0  0  0  0  0
  160.8270  202.1170  146.0130 C   0  0  0  0  0  1  0  0  0  0  0  0
  161.3710  208.4800  152.9850 C   0  0  1  0  0  3  0  0  0  0  0  0
  161.9070  210.6680  154.1680 C   0  0  0  0  0  2  0  0  0  0  0  0
  158.6350  212.4190  153.2850 O   0  0  0  0  0  1  0  0  0  0  0  0
  159.8160  211.6990  153.1600 C   0  0  0  0  0  0  0  0  0  0  0  0
  162.0280  209.8650  152.8760 C   0  0  2  0  0  3  0  0  0  0  0  0
  160.2870  211.4490  151.9340 C   0  0  0  0  0  3  0  0  0  0  0  0
  160.4750  211.1510  154.4020 C   0  0  2  0  0  3  0  0  0  0  0  0
  160.4700  212.1120  155.4130 O   0  0  0  0  0  1  0  0  0  0  0  0
  161.5670  210.7030  151.6780 C   0  0  0  0  0  2  0  0  0  0  0  0
  160.3840  208.4300  153.9810 O   0  0  0  0  0  0  0  0  0  0  0  0
  160.4550  207.1390  154.5150 C   0  0  1  0  0  3  0  0  0  0  0  0
  161.8700  206.6000  154.3970 C   0  0  0  0  0  1  0  0  0  0  0  0
  159.9800  207.1210  155.9690 C   0  0  0  0  0  2  0  0  0  0  0  0
  161.3830  208.6390  157.1810 O   0  0  0  0  0  1  0  0  0  0  0  0
  160.1020  208.4780  156.6550 C   0  0  0  0  0  2  0  0  0  0  0  0
  2  6  1  0  0  0  0
  3 10  1  0  0  0  0
  3  5  2  0  0  0  0
  4  8  2  0  0  0  0
  6  5  1  0  0  0  0
  6  1  1  1  0  0  0
  7  3  1  0  0  0  0
  8  7  1  0  0  0  0
  8  2  1  0  0  0  0
  9  2  2  0  0  0  0
 11 12  2  0  0  0  0
 12 10  2  0  0  0  0
 13 11  1  0  0  0  0
 14 13  2  0  0  0  0
 15 13  1  0  0  0  0
 16 15  1  0  0  0  0
 17  1  1  6  0  0  0
 17 26  1  0  0  0  0
 18 23  1  0  0  0  0
 20 19  1  0  0  0  0
 20 23  1  0  0  0  0
 21 17  1  1  0  0  0
 21 18  1  0  0  0  0
 22 20  2  0  0  0  0
 23 24  1  1  0  0  0
 25 22  1  0  0  0  0
 25 21  1  0  0  0  0
 26 27  1  0  0  0  0
 27 28  1  1  0  0  0
 27 29  1  0  0  0  0
 29 31  1  0  0  0  0
 31 30  1  0  0  0  0
M  END
>  <MODEL>
5

>  <REMARK>
 VINA RESULT:      -6.3      2.967      8.493
  Name = 
  10 active torsions:
  status: ('A' for Active; 'I' for Inactive)
    1  A    between atoms: C_2  and  C_15
    2  A    between atoms: C_2  and  C_20
    3  A    between atoms: C_2  and  O_25
    4  A    between atoms: C_4  and  C_13
    5  A    between atoms: O_6  and  C_10
    6  A    between atoms: C_7  and  C_11
    7  A    between atoms: C_10  and  C_18
    8  A    between atoms: C_13  and  C_19
    9  A    between atoms: C_16  and  C_20
   10  A    between atoms: C_19  and  O_25
                            x       y       z     vdW  Elec       q    Type
                         _______ _______ _______ _____ _____    ______ ____

>  <TORSDO>
F 10

$$$$
=
 OpenBabel11072412373D

 31 32  0  0  1  0  0  0  0  0999 V2000
  160.5490  205.9880  149.9960 C   0  0  0  0  0  2  0  0  0  0  0  0
  161.6230  205.9370  152.2170 C   0  0  0  0  0  0  0  0  0  0  0  0
  161.1910  208.7300  151.8670 C   0  0  0  0  0  0  0  0  0  0  0  0
  160.8310  206.2050  154.4370 O   0  0  0  0  0  0  0  0  0  0  0  0
  161.6230  208.0080  150.8690 N   0  0  0  0  0  0  0  0  0  0  0  0
  161.6900  206.5390  150.8440 C   0  0  2  0  0  3  0  0  0  0  0  0
  160.8330  208.1170  153.1080 N   0  0  0  0  0  2  0  0  0  0  0  0
  161.0730  206.7290  153.3180 C   0  0  0  0  0  0  0  0  0  0  0  0
  161.9970  204.7490  152.4060 O   0  0  0  0  0  0  0  0  0  0  0  0
  161.1080  210.1910  151.7500 C   0  0  0  0  0  3  0  0  0  0  0  0
  160.4540  211.7130  153.7690 C   0  0  0  0  0  3  0  0  0  0  0  0
  160.7820  210.9540  152.7590 C   0  0  0  0  0  0  0  0  0  0  0  0
  159.2520  211.4500  154.5630 C   0  0  0  0  0  0  0  0  0  0  0  0
  159.3670  211.2480  155.8010 O   0  0  0  0  0  0  0  0  0  0  0  0
  157.9960  211.4170  153.9510 O   0  0  0  0  0  0  0  0  0  0  0  0
  156.8130  211.7820  154.6460 C   0  0  0  0  0  1  0  0  0  0  0  0
  161.0290  205.1500  148.8080 C   0  0  1  0  0  3  0  0  0  0  0  0
  161.2180  206.8480  146.9230 C   0  0  0  0  0  2  0  0  0  0  0  0
  160.9250  204.3280  144.0750 O   0  0  0  0  0  1  0  0  0  0  0  0
  161.3410  204.9430  145.2490 C   0  0  0  0  0  0  0  0  0  0  0  0
  161.9730  205.9350  147.8860 C   0  0  2  0  0  3  0  0  0  0  0  0
  162.4320  204.4770  145.8640 C   0  0  0  0  0  3  0  0  0  0  0  0
  160.5010  206.0510  145.8330 C   0  0  2  0  0  3  0  0  0  0  0  0
  160.0820  206.9200  144.8260 O   0  0  0  0  0  1  0  0  0  0  0  0
  162.9900  205.0780  147.1240 C   0  0  0  0  0  2  0  0  0  0  0  0
  161.5810  203.9320  149.2320 O   0  0  0  0  0  0  0  0  0  0  0  0
  160.6330  202.9560  148.9020 C   0  0  1  0  0  3  0  0  0  0  0  0
  161.2020  202.0020  147.8660 C   0  0  0  0  0  1  0  0  0  0  0  0
  160.1700  202.2010  150.1490 C   0  0  0  0  0  2  0  0  0  0  0  0
  161.9840  201.7030  151.6340 O   0  0  0  0  0  1  0  0  0  0  0  0
  161.1790  201.1640  150.6300 C   0  0  0  0  0  2  0  0  0  0  0  0
  2  9  2  0  0  0  0
  2  8  1  0  0  0  0
  3  7  1  0  0  0  0
  5  3  2  0  0  0  0
  6  1  1  6  0  0  0
  6  5  1  0  0  0  0
  6  2  1  0  0  0  0
  7  8  1  0  0  0  0
  8  4  2  0  0  0  0
 10  3  1  0  0  0  0
 10 12  2  0  0  0  0
 11 13  1  0  0  0  0
 12 11  2  0  0  0  0
 13 14  2  0  0  0  0
 15 13  1  0  0  0  0
 15 16  1  0  0  0  0
 17 26  1  0  0  0  0
 17  1  1  1  0  0  0
 18 21  1  0  0  0  0
 19 20  1  0  0  0  0
 20 23  1  0  0  0  0
 20 22  2  0  0  0  0
 21 17  1  6  0  0  0
 22 25  1  0  0  0  0
 23 24  1  6  0  0  0
 23 18  1  0  0  0  0
 25 21  1  0  0  0  0
 27 28  1  6  0  0  0
 27 26  1  0  0  0  0
 27 29  1  0  0  0  0
 29 31  1  0  0  0  0
 31 30  1  0  0  0  0
M  END
>  <MODEL>
6

>  <REMARK>
 VINA RESULT:      -6.1      2.418      2.997
  Name = 
  10 active torsions:
  status: ('A' for Active; 'I' for Inactive)
    1  A    between atoms: C_2  and  C_15
    2  A    between atoms: C_2  and  C_20
    3  A    between atoms: C_2  and  O_25
    4  A    between atoms: C_4  and  C_13
    5  A    between atoms: O_6  and  C_10
    6  A    between atoms: C_7  and  C_11
    7  A    between atoms: C_10  and  C_18
    8  A    between atoms: C_13  and  C_19
    9  A    between atoms: C_16  and  C_20
   10  A    between atoms: C_19  and  O_25
                            x       y       z     vdW  Elec       q    Type
                         _______ _______ _______ _____ _____    ______ ____

>  <TORSDO>
F 10

$$$$
=
 OpenBabel11072412373D

 31 32  0  0  1  0  0  0  0  0999 V2000
  161.6050  204.9010  149.0890 C   0  0  0  0  0  2  0  0  0  0  0  0
  161.2050  207.3190  149.3790 C   0  0  0  0  0  0  0  0  0  0  0  0
  161.5080  206.4730  152.0810 C   0  0  0  0  0  0  0  0  0  0  0  0
  162.5950  209.1650  149.9180 O   0  0  0  0  0  0  0  0  0  0  0  0
  160.8140  205.7490  151.2460 N   0  0  0  0  0  0  0  0  0  0  0  0
  160.7490  205.9500  149.7910 C   0  0  2  0  0  3  0  0  0  0  0  0
  162.2080  207.6360  151.6300 N   0  0  0  0  0  2  0  0  0  0  0  0
  162.0420  208.0980  150.2920 C   0  0  0  0  0  0  0  0  0  0  0  0
  160.9060  207.7710  148.2420 O   0  0  0  0  0  0  0  0  0  0  0  0
  161.5490  206.1330  153.5080 C   0  0  0  0  0  3  0  0  0  0  0  0
  160.2470  207.5100  155.3040 C   0  0  0  0  0  3  0  0  0  0  0  0
  160.8980  206.8200  154.4080 C   0  0  0  0  0  0  0  0  0  0  0  0
  160.3720  208.9680  155.3840 C   0  0  0  0  0  0  0  0  0  0  0  0
  159.8300  209.5770  156.3450 O   0  0  0  0  0  0  0  0  0  0  0  0
  161.0760  209.6700  154.4030 O   0  0  0  0  0  0  0  0  0  0  0  0
  160.4200  210.2760  153.2990 C   0  0  0  0  0  1  0  0  0  0  0  0
  160.7920  203.9550  148.2010 C   0  0  1  0  0  3  0  0  0  0  0  0
  162.7760  204.2080  146.6300 C   0  0  0  0  0  2  0  0  0  0  0  0
  160.8310  205.8280  143.7760 O   0  0  0  0  0  1  0  0  0  0  0  0
  161.1930  204.9460  144.7850 C   0  0  0  0  0  0  0  0  0  0  0  0
  161.6510  203.2960  147.1110 C   0  0  2  0  0  3  0  0  0  0  0  0
  160.5410  203.7830  144.8850 C   0  0  0  0  0  3  0  0  0  0  0  0
  162.2440  205.3650  145.7840 C   0  0  2  0  0  3  0  0  0  0  0  0
  163.3070  205.9880  145.1300 O   0  0  0  0  0  1  0  0  0  0  0  0
  160.8640  202.7410  145.9190 C   0  0  0  0  0  2  0  0  0  0  0  0
  160.0830  203.0170  148.9670 O   0  0  0  0  0  0  0  0  0  0  0  0
  161.0490  202.1470  149.4830 C   0  0  1  0  0  3  0  0  0  0  0  0
  161.0470  202.2030  151.0010 C   0  0  0  0  0  1  0  0  0  0  0  0
  160.8210  200.7190  148.9850 C   0  0  0  0  0  2  0  0  0  0  0  0
  161.4420  199.5900  146.9650 O   0  0  0  0  0  1  0  0  0  0  0  0
  161.9560  200.2030  148.1070 C   0  0  0  0  0  2  0  0  0  0  0  0
  2  6  1  0  0  0  0
  2  8  1  0  0  0  0
  3 10  1  0  0  0  0
  4  8  2  0  0  0  0
  5  3  2  0  0  0  0
  6  1  1  6  0  0  0
  6  5  1  0  0  0  0
  7  3  1  0  0  0  0
  8  7  1  0  0  0  0
  9  2  2  0  0  0  0
 10 12  2  0  0  0  0
 11 13  1  0  0  0  0
 12 11  2  0  0  0  0
 13 14  2  0  0  0  0
 15 13  1  0  0  0  0
 16 15  1  0  0  0  0
 17 26  1  0  0  0  0
 17  1  1  1  0  0  0
 18 21  1  0  0  0  0
 19 20  1  0  0  0  0
 20 22  2  0  0  0  0
 20 23  1  0  0  0  0
 21 17  1  1  0  0  0
 22 25  1  0  0  0  0
 23 24  1  6  0  0  0
 23 18  1  0  0  0  0
 25 21  1  0  0  0  0
 26 27  1  0  0  0  0
 27 28  1  1  0  0  0
 29 27  1  0  0  0  0
 30 31  1  0  0  0  0
 31 29  1  0  0  0  0
M  END
>  <MODEL>
7

>  <REMARK>
 VINA RESULT:      -6.0      2.851      4.410
  Name = 
  10 active torsions:
  status: ('A' for Active; 'I' for Inactive)
    1  A    between atoms: C_2  and  C_15
    2  A    between atoms: C_2  and  C_20
    3  A    between atoms: C_2  and  O_25
    4  A    between atoms: C_4  and  C_13
    5  A    between atoms: O_6  and  C_10
    6  A    between atoms: C_7  and  C_11
    7  A    between atoms: C_10  and  C_18
    8  A    between atoms: C_13  and  C_19
    9  A    between atoms: C_16  and  C_20
   10  A    between atoms: C_19  and  O_25
                            x       y       z     vdW  Elec       q    Type
                         _______ _______ _______ _____ _____    ______ ____

>  <TORSDO>
F 10

$$$$
=
 OpenBabel11072412373D

 31 32  0  0  1  0  0  0  0  0999 V2000
  161.9480  204.5490  148.2910 C   0  0  0  0  0  2  0  0  0  0  0  0
  161.1120  206.8600  148.0550 C   0  0  0  0  0  0  0  0  0  0  0  0
  161.3150  206.6230  150.8860 C   0  0  0  0  0  0  0  0  0  0  0  0
  162.1080  209.0020  148.2740 O   0  0  0  0  0  0  0  0  0  0  0  0
  160.8340  205.6340  150.1820 N   0  0  0  0  0  0  0  0  0  0  0  0
  160.8650  205.5350  148.7160 C   0  0  2  0  0  3  0  0  0  0  0  0
  161.8400  207.7870  150.2420 N   0  0  0  0  0  2  0  0  0  0  0  0
  161.7170  207.9430  148.8310 C   0  0  0  0  0  0  0  0  0  0  0  0
  160.8410  207.0190  146.8360 O   0  0  0  0  0  0  0  0  0  0  0  0
  161.2870  206.5790  152.3520 C   0  0  0  0  0  3  0  0  0  0  0  0
  160.7730  208.6910  153.7990 C   0  0  0  0  0  3  0  0  0  0  0  0
  161.0290  207.6340  153.0780 C   0  0  0  0  0  0  0  0  0  0  0  0
  161.4970  209.9480  153.5940 C   0  0  0  0  0  0  0  0  0  0  0  0
  162.3490  210.3110  154.4480 O   0  0  0  0  0  0  0  0  0  0  0  0
  161.2380  210.7360  152.4690 O   0  0  0  0  0  0  0  0  0  0  0  0
  160.0370  211.4810  152.3360 C   0  0  0  0  0  1  0  0  0  0  0  0
  161.3900  203.1980  147.8370 C   0  0  1  0  0  3  0  0  0  0  0  0
  162.0410  203.9520  145.4960 C   0  0  0  0  0  2  0  0  0  0  0  0
  158.5660  203.5830  143.9680 O   0  0  0  0  0  1  0  0  0  0  0  0
  159.7320  203.2970  144.6670 C   0  0  0  0  0  0  0  0  0  0  0  0
  161.9320  202.7760  146.4630 C   0  0  2  0  0  3  0  0  0  0  0  0
  159.9470  202.0410  145.0670 C   0  0  0  0  0  3  0  0  0  0  0  0
  160.6660  204.4260  145.0250 C   0  0  2  0  0  3  0  0  0  0  0  0
  160.8220  205.2850  143.9370 O   0  0  0  0  0  1  0  0  0  0  0  0
  161.1840  201.6100  145.8070 C   0  0  0  0  0  2  0  0  0  0  0  0
  161.5790  202.2110  148.8160 O   0  0  0  0  0  0  0  0  0  0  0  0
  160.4300  202.2510  149.6150 C   0  0  1  0  0  3  0  0  0  0  0  0
  159.3320  201.4040  148.9950 C   0  0  0  0  0  1  0  0  0  0  0  0
  160.7390  201.7920  151.0400 C   0  0  0  0  0  2  0  0  0  0  0  0
  160.4450  203.4580  152.7380 O   0  0  0  0  0  1  0  0  0  0  0  0
  161.3890  202.8780  151.8910 C   0  0  0  0  0  2  0  0  0  0  0  0
  2  6  1  0  0  0  0
  2  8  1  0  0  0  0
  3 10  1  0  0  0  0
  4  8  2  0  0  0  0
  5  3  2  0  0  0  0
  6  1  1  1  0  0  0
  6  5  1  0  0  0  0
  7  3  1  0  0  0  0
  8  7  1  0  0  0  0
  9  2  2  0  0  0  0
 10 12  2  0  0  0  0
 12 11  2  0  0  0  0
 13 11  1  0  0  0  0
 13 14  2  0  0  0  0
 15 13  1  0  0  0  0
 16 15  1  0  0  0  0
 17  1  1  1  0  0  0
 17 26  1  0  0  0  0
 18 21  1  0  0  0  0
 19 20  1  0  0  0  0
 20 23  1  0  0  0  0
 20 22  2  0  0  0  0
 21 17  1  1  0  0  0
 22 25  1  0  0  0  0
 23 24  1  6  0  0  0
 23 18  1  0  0  0  0
 25 21  1  0  0  0  0
 26 27  1  0  0  0  0
 27 28  1  6  0  0  0
 27 29  1  0  0  0  0
 29 31  1  0  0  0  0
 31 30  1  0  0  0  0
M  END
>  <MODEL>
8

>  <REMARK>
 VINA RESULT:      -6.0      2.329      3.590
  Name = 
  10 active torsions:
  status: ('A' for Active; 'I' for Inactive)
    1  A    between atoms: C_2  and  C_15
    2  A    between atoms: C_2  and  C_20
    3  A    between atoms: C_2  and  O_25
    4  A    between atoms: C_4  and  C_13
    5  A    between atoms: O_6  and  C_10
    6  A    between atoms: C_7  and  C_11
    7  A    between atoms: C_10  and  C_18
    8  A    between atoms: C_13  and  C_19
    9  A    between atoms: C_16  and  C_20
   10  A    between atoms: C_19  and  O_25
                            x       y       z     vdW  Elec       q    Type
                         _______ _______ _______ _____ _____    ______ ____

>  <TORSDO>
F 10

$$$$
=
 OpenBabel11072412373D

 31 32  0  0  1  0  0  0  0  0999 V2000
  160.4500  209.2370  152.2720 C   0  0  0  0  0  2  0  0  0  0  0  0
  162.3370  209.7650  150.7700 C   0  0  0  0  0  0  0  0  0  0  0  0
  161.2060  207.4970  149.4720 C   0  0  0  0  0  0  0  0  0  0  0  0
  162.5050  210.7690  148.6280 O   0  0  0  0  0  0  0  0  0  0  0  0
  161.3270  207.5110  150.7720 N   0  0  0  0  0  0  0  0  0  0  0  0
  161.6920  208.6810  151.5840 C   0  0  2  0  0  3  0  0  0  0  0  0
  161.5400  208.6520  148.6980 N   0  0  0  0  0  2  0  0  0  0  0  0
  162.1390  209.7840  149.3210 C   0  0  0  0  0  0  0  0  0  0  0  0
  163.0020  210.6710  151.3390 O   0  0  0  0  0  0  0  0  0  0  0  0
  160.7680  206.2820  148.7760 C   0  0  0  0  0  3  0  0  0  0  0  0
  160.3360  204.0350  150.0340 C   0  0  0  0  0  3  0  0  0  0  0  0
  160.5500  205.1570  149.4040 C   0  0  0  0  0  0  0  0  0  0  0  0
  161.3360  203.4650  150.9390 C   0  0  0  0  0  0  0  0  0  0  0  0
  162.0070  204.2370  151.6750 O   0  0  0  0  0  0  0  0  0  0  0  0
  161.5470  202.0840  150.9780 O   0  0  0  0  0  0  0  0  0  0  0  0
  160.8140  201.1900  150.1550 C   0  0  0  0  0  1  0  0  0  0  0  0
  160.7620  209.9710  153.5780 C   0  0  1  0  0  3  0  0  0  0  0  0
  160.1110  212.0750  154.8530 C   0  0  0  0  0  2  0  0  0  0  0  0
  156.3420  211.5180  154.6560 O   0  0  0  0  0  1  0  0  0  0  0  0
  157.6740  211.6390  154.2830 C   0  0  0  0  0  0  0  0  0  0  0  0
  160.4460  211.4720  153.4910 C   0  0  2  0  0  3  0  0  0  0  0  0
  157.9730  211.6910  152.9810 C   0  0  0  0  0  3  0  0  0  0  0  0
  158.7390  211.6170  155.3510 C   0  0  2  0  0  3  0  0  0  0  0  0
  158.3530  212.4090  156.4320 O   0  0  0  0  0  1  0  0  0  0  0  0
  159.3750  211.8460  152.4610 C   0  0  0  0  0  2  0  0  0  0  0  0
  160.1410  209.3530  154.6740 O   0  0  0  0  0  0  0  0  0  0  0  0
  161.0750  208.4340  155.1650 C   0  0  1  0  0  3  0  0  0  0  0  0
  161.6460  208.9220  156.4850 C   0  0  0  0  0  1  0  0  0  0  0  0
  160.4500  207.0470  155.3150 C   0  0  0  0  0  2  0  0  0  0  0  0
  162.1850  206.2810  153.8500 O   0  0  0  0  0  1  0  0  0  0  0  0
  160.8490  206.0860  154.2000 C   0  0  0  0  0  2  0  0  0  0  0  0
  2  9  2  0  0  0  0
  2  6  1  0  0  0  0
  3  5  2  0  0  0  0
  4  8  2  0  0  0  0
  5  6  1  0  0  0  0
  6  1  1  6  0  0  0
  7  8  1  0  0  0  0
  7  3  1  0  0  0  0
  8  2  1  0  0  0  0
 10 12  2  0  0  0  0
 10  3  1  0  0  0  0
 11 13  1  0  0  0  0
 12 11  2  0  0  0  0
 13 15  1  0  0  0  0
 13 14  2  0  0  0  0
 16 15  1  0  0  0  0
 17  1  1  6  0  0  0
 17 26  1  0  0  0  0
 18 23  1  0  0  0  0
 20 19  1  0  0  0  0
 20 23  1  0  0  0  0
 21 17  1  1  0  0  0
 21 18  1  0  0  0  0
 22 20  2  0  0  0  0
 23 24  1  1  0  0  0
 25 22  1  0  0  0  0
 25 21  1  0  0  0  0
 26 27  1  0  0  0  0
 27 29  1  0  0  0  0
 27 28  1  1  0  0  0
 30 31  1  0  0  0  0
 31 29  1  0  0  0  0
M  END
>  <MODEL>
9

>  <REMARK>
 VINA RESULT:      -5.7      3.008      8.274
  Name = 
  10 active torsions:
  status: ('A' for Active; 'I' for Inactive)
    1  A    between atoms: C_2  and  C_15
    2  A    between atoms: C_2  and  C_20
    3  A    between atoms: C_2  and  O_25
    4  A    between atoms: C_4  and  C_13
    5  A    between atoms: O_6  and  C_10
    6  A    between atoms: C_7  and  C_11
    7  A    between atoms: C_10  and  C_18
    8  A    between atoms: C_13  and  C_19
    9  A    between atoms: C_16  and  C_20
   10  A    between atoms: C_19  and  O_25
                            x       y       z     vdW  Elec       q    Type
                         _______ _______ _______ _____ _____    ______ ____

>  <TORSDO>
F 10

$$$$
