=
 OpenBabel11072410243D

 51 55  0  0  1  0  0  0  0  0999 V2000
  162.3520  207.8750  149.2880 C   0  0  0  0  0  3  0  0  0  0  0  0
  160.3050  206.1280  148.5310 C   0  0  0  0  0  3  0  0  0  0  0  0
  160.2460  206.7840  149.7640 C   0  0  0  0  0  3  0  0  0  0  0  0
  161.3810  206.3580  147.6610 C   0  0  0  0  0  0  0  0  0  0  0  0
  162.4110  207.2190  148.0560 C   0  0  0  0  0  3  0  0  0  0  0  0
  161.2710  207.6640  150.1470 C   0  0  0  0  0  0  0  0  0  0  0  0
  162.8950  205.0440  146.1380 C   0  0  0  0  0  2  0  0  0  0  0  0
  161.7730  204.1190  146.5370 C   0  0  2  0  0  0  0  0  0  0  0  0
  161.4970  205.6140  146.3600 C   0  0  1  0  0  3  0  0  0  0  0  0
  162.0370  203.5010  147.9060 C   0  0  0  0  0  2  0  0  0  0  0  0
  160.7870  203.3450  148.6310 N   0  0  0  0  0  2  0  0  0  0  0  0
  159.4070  201.3760  149.7270 O   0  0  0  0  0  0  0  0  0  0  0  0
  160.8140  201.8020  149.4120 S   0  0  0  0  0  0  0  0  0  0  0  0
  161.4590  200.7770  148.5200 O   0  0  0  0  0  0  0  0  0  0  0  0
  161.7330  201.9320  150.9360 C   0  0  0  0  0  2  0  0  0  0  0  0
  162.5850  205.3660  152.3860 C   0  0  0  0  0  2  0  0  0  0  0  0
  161.2980  205.6370  153.1160 C   0  0  0  0  0  3  0  0  0  0  0  0
  161.5040  203.2510  151.5950 C   0  0  0  0  0  0  0  0  0  0  0  0
  160.3610  204.6870  153.2080 C   0  0  0  0  0  3  0  0  0  0  0  0
  162.3480  204.4330  151.1940 C   0  0  0  0  0  2  0  0  0  0  0  0
  160.5420  203.3950  152.5170 C   0  0  0  0  0  3  0  0  0  0  0  0
  161.3660  203.2120  145.3840 C   0  0  0  0  0  2  0  0  0  0  0  0
  160.3290  202.1880  145.8160 C   0  0  2  0  0  3  0  0  0  0  0  0
  160.7920  200.8110  145.3790 C   0  0  0  0  0  1  0  0  0  0  0  0
  159.1570  203.4880  144.0410 C   0  0  0  0  0  1  0  0  0  0  0  0
  158.9840  202.5010  145.1810 C   0  0  0  0  0  2  0  0  0  0  0  0
  161.2390  208.3350  151.3750 O   0  0  0  0  0  0  0  0  0  0  0  0
  160.8850  209.7090  151.4980 C   0  0  0  0  0  2  0  0  0  0  0  0
  160.2660  209.9780  152.8640 C   0  0  1  0  0  3  0  0  0  0  0  0
  162.4430  210.3570  153.7120 O   0  0  0  0  0  0  0  0  0  0  0  0
  161.3120  209.9590  153.9400 C   0  0  0  0  0  3  0  0  0  0  0  0
  159.4940  211.2990  152.8340 C   0  0  1  0  0  3  0  0  0  0  0  0
  157.8740  212.1660  155.9540 C   0  0  0  0  0  0  0  0  0  0  0  0
  157.9330  211.4190  154.8660 C   0  0  0  0  0  0  0  0  0  0  0  0
  158.9170  213.0040  156.0860 N   0  0  0  0  0  2  0  0  0  0  0  0
  155.8970  211.6980  155.3370 C   0  0  0  0  0  3  0  0  0  0  0  0
  156.5980  212.3660  156.2920 N   0  0  0  0  0  0  0  0  0  0  0  0
  159.7070  212.6980  155.0150 C   0  0  0  0  0  3  0  0  0  0  0  0
  156.0700  213.3190  157.2500 C   0  0  0  0  0  1  0  0  0  0  0  0
  159.0950  211.7250  154.2130 C   0  0  0  0  0  0  0  0  0  0  0  0
  156.7070  211.1120  154.4040 N   0  0  0  0  0  0  0  0  0  0  0  0
  160.2230  212.3120  152.1970 O   0  0  0  0  0  0  0  0  0  0  0  0
  159.2970  212.9900  151.3960 C   0  0  0  0  0  2  0  0  0  0  0  0
  160.0100  213.9080  150.4120 C   0  0  0  0  0  2  0  0  0  0  0  0
  159.1820  214.1290  149.1520 C   0  0  2  0  0  3  0  0  0  0  0  0
  158.0380  213.3290  149.2080 O   0  0  0  0  0  1  0  0  0  0  0  0
  159.3380  212.7210  147.1520 N   0  0  0  0  0  1  0  0  0  0  0  0
  160.0020  213.7680  147.9140 C   0  0  2  0  0  3  0  0  0  0  0  0
  161.3780  213.3170  148.2910 C   0  0  0  0  0  0  0  0  0  0  0  0
  162.3330  214.1370  148.3380 O   0  0  0  0  0  0  0  0  0  0  0  0
  161.6090  211.9750  148.5680 O   0  0  0  0  0  1  0  0  0  0  0  0
  1  6  1  0  0  0  0
  2  3  1  0  0  0  0
  3  6  2  0  0  0  0
  4  5  1  0  0  0  0
  4  2  2  0  0  0  0
  5  1  2  0  0  0  0
  6 27  1  0  0  0  0
  7  9  1  0  0  0  0
  7  8  1  0  0  0  0
  8 22  1  6  0  0  0
  8 10  1  0  0  0  0
  9  8  1  0  0  0  0
  9  4  1  1  0  0  0
 10 11  1  0  0  0  0
 11 13  1  0  0  0  0
 13 12  2  0  0  0  0
 13 15  1  0  0  0  0
 14 13  2  0  0  0  0
 15 18  1  0  0  0  0
 16 17  1  0  0  0  0
 17 19  2  0  0  0  0
 18 21  2  0  0  0  0
 20 18  1  0  0  0  0
 20 16  1  0  0  0  0
 21 19  1  0  0  0  0
 22 23  1  0  0  0  0
 23 24  1  6  0  0  0
 25 26  1  0  0  0  0
 26 23  1  0  0  0  0
 27 28  1  0  0  0  0
 29 28  1  6  0  0  0
 29 31  1  0  0  0  0
 30 31  2  0  0  0  0
 32 42  1  1  0  0  0
 32 29  1  0  0  0  0
 32 40  1  0  0  0  0
 33 35  1  0  0  0  0
 33 37  1  0  0  0  0
 34 33  2  0  0  0  0
 36 37  1  0  0  0  0
 37 39  1  0  0  0  0
 38 35  1  0  0  0  0
 40 34  1  0  0  0  0
 40 38  2  0  0  0  0
 41 34  1  0  0  0  0
 41 36  2  0  0  0  0
 43 42  1  0  0  0  0
 44 43  1  0  0  0  0
 45 46  1  1  0  0  0
 45 44  1  0  0  0  0
 48 47  1  1  0  0  0
 48 49  1  0  0  0  0
 48 45  1  0  0  0  0
 49 50  2  0  0  0  0
 49 51  1  0  0  0  0
M  END
>  <MODEL>
1

>  <REMARK>
 VINA RESULT:      -5.6      0.000      0.000
  Name = 
  21 active torsions:
  status: ('A' for Active; 'I' for Inactive)
    1  A    between atoms: C_2  and  C_15
    2  A    between atoms: C_2  and  CA_19
    3  A    between atoms: C_4  and  C_37
    4  A    between atoms: C_4  and  C_48
    5  A    between atoms: C_9  and  C_20
    6  A    between atoms: C_9  and  O_41
    7  A    between atoms: C_14  and  CA_19
    8  A    between atoms: C_15  and  C_38
    9  A    between atoms: C_20  and  C_26
   10  A    between atoms: C_20  and  C_47
   11  A    between atoms: O_21  and  C_38
   12  A    between atoms: O_21  and  C_47
   13  A    between atoms: C_30  and  C_33
   14  A    between atoms: C_32  and  C_50
   15  A    between atoms: C_33  and  S_44
   16  A    between atoms: C_39  and  C_47
   17  A    between atoms: C_40  and  O_41
   18  A    between atoms: C_43  and  C_48
   19  A    between atoms: C_43  and  C_51
   20  A    between atoms: S_44  and  N_49
   21  A    between atoms: N_49  and  C_51
                            x       y       z     vdW  Elec       q    Type
                         _______ _______ _______ _____ _____    ______ ____

>  <TORSDO>
F 21

$$$$
=
 OpenBabel11072410243D

 51 55  0  0  1  0  0  0  0  0999 V2000
  162.2250  209.4970  152.1410 C   0  0  0  0  0  3  0  0  0  0  0  0
  160.5060  207.4330  151.3660 C   0  0  0  0  0  3  0  0  0  0  0  0
  160.5380  207.8550  152.6970 C   0  0  0  0  0  3  0  0  0  0  0  0
  161.3220  208.0550  150.4090 C   0  0  0  0  0  0  0  0  0  0  0  0
  162.1940  209.0750  150.8090 C   0  0  0  0  0  3  0  0  0  0  0  0
  161.3980  208.8930  153.0910 C   0  0  0  0  0  0  0  0  0  0  0  0
  162.6420  206.8300  148.6500 C   0  0  0  0  0  2  0  0  0  0  0  0
  161.3700  206.0490  148.8590 C   0  0  2  0  0  0  0  0  0  0  0  0
  161.3520  207.5740  148.9860 C   0  0  1  0  0  3  0  0  0  0  0  0
  161.4850  205.1370  150.0770 C   0  0  0  0  0  2  0  0  0  0  0  0
  160.3520  204.2280  150.1270 N   0  0  0  0  0  2  0  0  0  0  0  0
  161.6640  202.6290  151.7720 O   0  0  0  0  0  0  0  0  0  0  0  0
  160.9590  202.6390  150.4440 S   0  0  0  0  0  0  0  0  0  0  0  0
  159.8300  201.6450  150.4700 O   0  0  0  0  0  0  0  0  0  0  0  0
  162.1220  202.1910  149.1680 C   0  0  0  0  0  2  0  0  0  0  0  0
  161.3920  199.7500  146.3160 C   0  0  0  0  0  2  0  0  0  0  0  0
  160.4260  200.5930  145.5300 C   0  0  0  0  0  3  0  0  0  0  0  0
  161.4260  201.6240  147.9760 C   0  0  0  0  0  0  0  0  0  0  0  0
  160.2060  201.8670  145.8730 C   0  0  0  0  0  3  0  0  0  0  0  0
  161.3610  200.1290  147.8000 C   0  0  0  0  0  2  0  0  0  0  0  0
  160.8410  202.4320  147.0800 C   0  0  0  0  0  3  0  0  0  0  0  0
  160.8530  205.4690  147.5500 C   0  0  0  0  0  2  0  0  0  0  0  0
  161.6010  206.0330  146.3530 C   0  0  2  0  0  3  0  0  0  0  0  0
  160.5940  206.6030  145.3730 C   0  0  0  0  0  1  0  0  0  0  0  0
  161.8760  204.6730  144.2830 C   0  0  0  0  0  1  0  0  0  0  0  0
  162.4120  204.9400  145.6770 C   0  0  0  0  0  2  0  0  0  0  0  0
  161.4510  209.3370  154.4170 O   0  0  0  0  0  0  0  0  0  0  0  0
  160.3030  209.4070  155.2580 C   0  0  0  0  0  2  0  0  0  0  0  0
  160.1090  210.8260  155.7760 C   0  0  1  0  0  3  0  0  0  0  0  0
  162.4370  210.8570  156.2000 O   0  0  0  0  0  0  0  0  0  0  0  0
  161.4300  211.5090  155.9760 C   0  0  0  0  0  3  0  0  0  0  0  0
  159.1940  211.6060  154.8280 C   0  0  1  0  0  3  0  0  0  0  0  0
  156.7070  213.4000  156.7530 C   0  0  0  0  0  0  0  0  0  0  0  0
  157.3710  212.2860  156.4990 C   0  0  2  0  0  3  0  0  0  0  0  0
  157.1350  214.4530  156.0370 N   0  0  0  0  0  0  0  0  0  0  0  0
  155.4200  211.7430  157.0850 C   0  0  0  0  0  3  0  0  0  0  0  0
  155.4610  213.1020  157.1320 N   0  0  0  0  0  0  0  0  0  0  0  0
  158.1890  213.9500  155.3300 C   0  0  0  0  0  3  0  0  0  0  0  0
  154.3310  214.0020  157.2580 C   0  0  0  0  0  1  0  0  0  0  0  0
  158.3400  212.5790  155.5790 C   0  0  0  0  0  0  0  0  0  0  0  0
  156.6000  211.1960  156.6620 N   0  0  0  0  0  0  0  0  0  0  0  0
  159.9240  212.2600  153.8260 O   0  0  0  0  0  0  0  0  0  0  0  0
  159.2040  212.0490  152.6450 C   0  0  0  0  0  2  0  0  0  0  0  0
  160.0670  212.3620  151.4280 C   0  0  0  0  0  2  0  0  0  0  0  0
  159.9700  213.8310  151.0380 C   0  0  2  0  0  3  0  0  0  0  0  0
  158.9950  214.4530  151.8230 O   0  0  0  0  0  1  0  0  0  0  0  0
  158.2600  213.4440  149.3260 N   0  0  0  0  0  1  0  0  0  0  0  0
  159.6000  213.9600  149.5610 C   0  0  2  0  0  3  0  0  0  0  0  0
  160.5770  213.2270  148.6950 C   0  0  0  0  0  0  0  0  0  0  0  0
  160.1750  212.4540  147.7850 O   0  0  0  0  0  0  0  0  0  0  0  0
  161.9400  213.3830  148.9140 O   0  0  0  0  0  1  0  0  0  0  0  0
  1  6  1  0  0  0  0
  2  3  1  0  0  0  0
  3  6  2  0  0  0  0
  4  5  1  0  0  0  0
  4  2  2  0  0  0  0
  5  1  2  0  0  0  0
  6 27  1  0  0  0  0
  7  8  1  0  0  0  0
  7  9  1  0  0  0  0
  8 22  1  6  0  0  0
  8  9  1  0  0  0  0
  8 10  1  0  0  0  0
  9  4  1  1  0  0  0
 10 11  1  0  0  0  0
 11 13  1  0  0  0  0
 13 14  2  0  0  0  0
 13 12  2  0  0  0  0
 15 13  1  0  0  0  0
 16 20  1  0  0  0  0
 17 19  2  0  0  0  0
 17 16  1  0  0  0  0
 18 15  1  0  0  0  0
 19 21  1  0  0  0  0
 20 18  1  0  0  0  0
 21 18  2  0  0  0  0
 23 24  1  6  0  0  0
 23 22  1  0  0  0  0
 25 26  1  0  0  0  0
 26 23  1  0  0  0  0
 27 28  1  0  0  0  0
 29 28  1  6  0  0  0
 29 31  1  0  0  0  0
 31 30  2  0  0  0  0
 32 42  1  6  0  0  0
 32 40  1  0  0  0  0
 32 29  1  0  0  0  0
 33 37  1  0  0  0  0
 34 40  1  6  0  0  0
 34 41  1  0  0  0  0
 34 33  1  0  0  0  0
 35 33  2  0  0  0  0
 36 37  1  0  0  0  0
 37 39  1  0  0  0  0
 38 40  2  0  0  0  0
 38 35  1  0  0  0  0
 41 36  2  0  0  0  0
 43 42  1  0  0  0  0
 44 43  1  0  0  0  0
 45 44  1  0  0  0  0
 45 46  1  1  0  0  0
 48 47  1  1  0  0  0
 48 45  1  0  0  0  0
 49 51  1  0  0  0  0
 49 48  1  0  0  0  0
 50 49  2  0  0  0  0
M  END
>  <MODEL>
2

>  <REMARK>
 VINA RESULT:      -5.0      1.694      3.523
  Name = 
  21 active torsions:
  status: ('A' for Active; 'I' for Inactive)
    1  A    between atoms: C_2  and  C_15
    2  A    between atoms: C_2  and  CA_19
    3  A    between atoms: C_4  and  C_37
    4  A    between atoms: C_4  and  C_48
    5  A    between atoms: C_9  and  C_20
    6  A    between atoms: C_9  and  O_41
    7  A    between atoms: C_14  and  CA_19
    8  A    between atoms: C_15  and  C_38
    9  A    between atoms: C_20  and  C_26
   10  A    between atoms: C_20  and  C_47
   11  A    between atoms: O_21  and  C_38
   12  A    between atoms: O_21  and  C_47
   13  A    between atoms: C_30  and  C_33
   14  A    between atoms: C_32  and  C_50
   15  A    between atoms: C_33  and  S_44
   16  A    between atoms: C_39  and  C_47
   17  A    between atoms: C_40  and  O_41
   18  A    between atoms: C_43  and  C_48
   19  A    between atoms: C_43  and  C_51
   20  A    between atoms: S_44  and  N_49
   21  A    between atoms: N_49  and  C_51
                            x       y       z     vdW  Elec       q    Type
                         _______ _______ _______ _____ _____    ______ ____

>  <TORSDO>
F 21

$$$$
=
 OpenBabel11072410243D

 51 55  0  0  1  0  0  0  0  0999 V2000
  161.2070  208.6550  154.1340 C   0  0  0  0  0  3  0  0  0  0  0  0
  159.8900  208.1970  156.5560 C   0  0  0  0  0  3  0  0  0  0  0  0
  160.0980  207.1430  155.6620 C   0  0  0  0  0  3  0  0  0  0  0  0
  160.3570  209.4840  156.2510 C   0  0  0  0  0  0  0  0  0  0  0  0
  160.9990  209.7080  155.0270 C   0  0  0  0  0  3  0  0  0  0  0  0
  160.7610  207.3680  154.4450 C   0  0  0  0  0  0  0  0  0  0  0  0
  161.0300  211.8170  156.9160 C   0  0  0  0  0  2  0  0  0  0  0  0
  159.6030  211.8970  156.4360 C   0  0  2  0  0  0  0  0  0  0  0  0
  160.0870  210.6430  157.1670 C   0  0  1  0  0  3  0  0  0  0  0  0
  159.5440  211.9740  154.9140 C   0  0  0  0  0  2  0  0  0  0  0  0
  159.4630  213.3610  154.4880 N   0  0  0  0  0  2  0  0  0  0  0  0
  158.2760  212.0410  152.5300 O   0  0  0  0  0  0  0  0  0  0  0  0
  158.4580  213.4290  153.0810 S   0  0  0  0  0  0  0  0  0  0  0  0
  157.1140  214.0090  153.4280 O   0  0  0  0  0  0  0  0  0  0  0  0
  159.2470  214.4440  151.8450 C   0  0  0  0  0  2  0  0  0  0  0  0
  156.4510  213.5890  149.3820 C   0  0  0  0  0  2  0  0  0  0  0  0
  157.1970  213.8140  148.0950 C   0  0  0  0  0  3  0  0  0  0  0  0
  158.5360  214.3550  150.5370 C   0  0  0  0  0  0  0  0  0  0  0  0
  158.5110  214.0650  148.1100 C   0  0  0  0  0  3  0  0  0  0  0  0
  157.0330  214.4520  150.5050 C   0  0  0  0  0  2  0  0  0  0  0  0
  159.2230  214.2130  149.3950 C   0  0  0  0  0  3  0  0  0  0  0  0
  158.7970  212.8940  157.2570 C   0  0  0  0  0  2  0  0  0  0  0  0
  157.3040  212.6220  157.1620 C   0  0  2  0  0  3  0  0  0  0  0  0
  157.0840  211.4170  156.2680 C   0  0  0  0  0  1  0  0  0  0  0  0
  155.1140  213.5190  156.3830 C   0  0  0  0  0  1  0  0  0  0  0  0
  156.5860  213.8290  156.5810 C   0  0  0  0  0  2  0  0  0  0  0  0
  160.9840  206.3320  153.5300 O   0  0  0  0  0  0  0  0  0  0  0  0
  162.0910  206.3170  152.6330 C   0  0  0  0  0  2  0  0  0  0  0  0
  161.7990  205.4080  151.4450 C   0  0  1  0  0  3  0  0  0  0  0  0
  161.6010  203.0650  151.7100 O   0  0  0  0  0  0  0  0  0  0  0  0
  161.0920  204.1600  151.8860 C   0  0  0  0  0  3  0  0  0  0  0  0
  161.0050  206.1760  150.3850 C   0  0  1  0  0  3  0  0  0  0  0  0
  162.3400  209.4800  149.7430 C   0  0  0  0  0  0  0  0  0  0  0  0
  161.7720  208.6170  150.5670 C   0  0  2  0  0  3  0  0  0  0  0  0
  162.6800  208.9450  148.5580 N   0  0  0  0  0  0  0  0  0  0  0  0
  161.0130  210.5290  151.0270 C   0  0  0  0  0  3  0  0  0  0  0  0
  161.8870  210.7100  150.0020 N   0  0  0  0  0  0  0  0  0  0  0  0
  162.3440  207.6290  148.6950 C   0  0  0  0  0  3  0  0  0  0  0  0
  162.0430  211.9030  149.1920 C   0  0  0  0  0  1  0  0  0  0  0  0
  161.7410  207.4020  149.9400 C   0  0  0  0  0  0  0  0  0  0  0  0
  160.8930  209.2160  151.3910 N   0  0  0  0  0  0  0  0  0  0  0  0
  160.6880  205.3650  149.2870 O   0  0  0  0  0  0  0  0  0  0  0  0
  160.3720  206.2510  148.2500 C   0  0  0  0  0  2  0  0  0  0  0  0
  160.5770  205.5840  146.8950 C   0  0  0  0  0  2  0  0  0  0  0  0
  161.5980  204.4560  146.9760 C   0  0  2  0  0  3  0  0  0  0  0  0
  162.8820  205.0020  147.0460 O   0  0  0  0  0  1  0  0  0  0  0  0
  160.6820  204.2010  144.7170 N   0  0  0  0  0  1  0  0  0  0  0  0
  161.4870  203.5580  145.7450 C   0  0  2  0  0  3  0  0  0  0  0  0
  160.8840  202.2330  146.0970 C   0  0  0  0  0  0  0  0  0  0  0  0
  160.3780  201.5010  145.2050 O   0  0  0  0  0  0  0  0  0  0  0  0
  160.8600  201.8200  147.4230 O   0  0  0  0  0  1  0  0  0  0  0  0
  1  6  2  0  0  0  0
  1  5  1  0  0  0  0
  3  2  2  0  0  0  0
  4  2  1  0  0  0  0
  5  4  2  0  0  0  0
  6  3  1  0  0  0  0
  7  9  1  0  0  0  0
  8 10  1  6  0  0  0
  8  7  1  0  0  0  0
  8  9  1  0  0  0  0
  8 22  1  0  0  0  0
  9  4  1  6  0  0  0
 11 10  1  0  0  0  0
 12 13  2  0  0  0  0
 13 14  2  0  0  0  0
 13 11  1  0  0  0  0
 15 13  1  0  0  0  0
 16 20  1  0  0  0  0
 17 19  2  0  0  0  0
 17 16  1  0  0  0  0
 18 15  1  0  0  0  0
 19 21  1  0  0  0  0
 20 18  1  0  0  0  0
 21 18  2  0  0  0  0
 23 24  1  6  0  0  0
 23 22  1  0  0  0  0
 25 26  1  0  0  0  0
 26 23  1  0  0  0  0
 27  6  1  0  0  0  0
 28 27  1  0  0  0  0
 29 31  1  1  0  0  0
 29 28  1  0  0  0  0
 30 31  2  0  0  0  0
 32 42  1  6  0  0  0
 32 29  1  0  0  0  0
 33 37  1  0  0  0  0
 34 33  1  6  0  0  0
 34 41  1  0  0  0  0
 35 38  1  0  0  0  0
 35 33  2  0  0  0  0
 36 41  2  0  0  0  0
 37 36  1  0  0  0  0
 38 40  2  0  0  0  0
 39 37  1  0  0  0  0
 40 32  1  0  0  0  0
 40 34  1  0  0  0  0
 43 42  1  0  0  0  0
 44 45  1  0  0  0  0
 44 43  1  0  0  0  0
 45 46  1  6  0  0  0
 48 47  1  6  0  0  0
 48 49  1  0  0  0  0
 48 45  1  0  0  0  0
 49 51  1  0  0  0  0
 50 49  2  0  0  0  0
M  END
>  <MODEL>
3

>  <REMARK>
 VINA RESULT:      -4.9      2.953     10.304
  Name = 
  21 active torsions:
  status: ('A' for Active; 'I' for Inactive)
    1  A    between atoms: C_2  and  C_15
    2  A    between atoms: C_2  and  CA_19
    3  A    between atoms: C_4  and  C_37
    4  A    between atoms: C_4  and  C_48
    5  A    between atoms: C_9  and  C_20
    6  A    between atoms: C_9  and  O_41
    7  A    between atoms: C_14  and  CA_19
    8  A    between atoms: C_15  and  C_38
    9  A    between atoms: C_20  and  C_26
   10  A    between atoms: C_20  and  C_47
   11  A    between atoms: O_21  and  C_38
   12  A    between atoms: O_21  and  C_47
   13  A    between atoms: C_30  and  C_33
   14  A    between atoms: C_32  and  C_50
   15  A    between atoms: C_33  and  S_44
   16  A    between atoms: C_39  and  C_47
   17  A    between atoms: C_40  and  O_41
   18  A    between atoms: C_43  and  C_48
   19  A    between atoms: C_43  and  C_51
   20  A    between atoms: S_44  and  N_49
   21  A    between atoms: N_49  and  C_51
                            x       y       z     vdW  Elec       q    Type
                         _______ _______ _______ _____ _____    ______ ____

>  <TORSDO>
F 21

$$$$
=
 OpenBabel11072410243D

 51 55  0  0  1  0  0  0  0  0999 V2000
  160.7480  207.2680  149.8650 C   0  0  0  0  0  3  0  0  0  0  0  0
  162.1570  209.5510  150.6500 C   0  0  0  0  0  3  0  0  0  0  0  0
  162.1560  209.1550  149.3100 C   0  0  0  0  0  3  0  0  0  0  0  0
  161.4370  208.8160  151.6030 C   0  0  0  0  0  0  0  0  0  0  0  0
  160.7500  207.6630  151.2050 C   0  0  0  0  0  3  0  0  0  0  0  0
  161.4480  208.0100  148.9100 C   0  0  0  0  0  0  0  0  0  0  0  0
  161.7730  210.6670  153.2750 C   0  0  0  0  0  2  0  0  0  0  0  0
  160.3690  210.1550  153.4730 C   0  0  2  0  0  0  0  0  0  0  0  0
  161.4790  209.1850  153.0590 C   0  0  1  0  0  3  0  0  0  0  0  0
  159.4150  210.7740  152.4560 C   0  0  0  0  0  2  0  0  0  0  0  0
  159.8740  212.1040  152.0890 N   0  0  0  0  0  2  0  0  0  0  0  0
  157.4690  212.5360  153.0950 O   0  0  0  0  0  0  0  0  0  0  0  0
  158.5450  213.1960  152.2780 S   0  0  0  0  0  0  0  0  0  0  0  0
  158.9980  214.4530  152.9680 O   0  0  0  0  0  0  0  0  0  0  0  0
  157.8860  213.6000  150.6700 C   0  0  0  0  0  2  0  0  0  0  0  0
  160.0170  212.9290  147.5670 C   0  0  0  0  0  2  0  0  0  0  0  0
  161.1750  213.8380  147.8780 C   0  0  0  0  0  3  0  0  0  0  0  0
  158.9770  213.7980  149.6720 C   0  0  0  0  0  0  0  0  0  0  0  0
  161.2510  214.4530  149.0640 C   0  0  0  0  0  3  0  0  0  0  0  0
  158.7330  213.4370  148.2300 C   0  0  0  0  0  2  0  0  0  0  0  0
  160.1560  214.3150  150.0450 C   0  0  0  0  0  3  0  0  0  0  0  0
  159.9810  210.1550  154.9450 C   0  0  0  0  0  2  0  0  0  0  0  0
  161.2030  210.0850  155.8470 C   0  0  2  0  0  3  0  0  0  0  0  0
  161.4040  208.6480  156.2860 C   0  0  0  0  0  1  0  0  0  0  0  0
  160.6050  212.3710  156.6410 C   0  0  0  0  0  1  0  0  0  0  0  0
  161.0060  210.9710  157.0670 C   0  0  0  0  0  2  0  0  0  0  0  0
  161.4280  207.5900  147.5750 O   0  0  0  0  0  0  0  0  0  0  0  0
  160.4430  206.7000  147.0580 C   0  0  0  0  0  2  0  0  0  0  0  0
  161.1070  205.4940  146.4050 C   0  0  1  0  0  3  0  0  0  0  0  0
  162.8380  205.7490  144.8110 O   0  0  0  0  0  0  0  0  0  0  0  0
  162.5100  205.8180  145.9840 C   0  0  0  0  0  3  0  0  0  0  0  0
  161.0510  204.2920  147.3510 C   0  0  1  0  0  3  0  0  0  0  0  0
  160.5520  200.9370  146.0860 C   0  0  0  0  0  0  0  0  0  0  0  0
  160.7070  201.7630  147.1060 C   0  0  2  0  0  3  0  0  0  0  0  0
  160.4650  201.5620  144.8990 N   0  0  0  0  0  0  0  0  0  0  0  0
  161.6340  199.9400  147.6170 C   0  0  0  0  0  3  0  0  0  0  0  0
  161.1250  199.7640  146.3680 N   0  0  0  0  0  0  0  0  0  0  0  0
  160.5120  202.8850  145.2330 C   0  0  0  0  0  3  0  0  0  0  0  0
  161.4130  198.6730  145.4570 C   0  0  0  0  0  1  0  0  0  0  0  0
  160.6960  203.0390  146.6140 C   0  0  0  0  0  0  0  0  0  0  0  0
  161.4140  201.1990  148.1020 N   0  0  0  0  0  0  0  0  0  0  0  0
  162.2530  204.1290  148.0520 O   0  0  0  0  0  0  0  0  0  0  0  0
  162.0090  204.6410  149.3320 C   0  0  0  0  0  2  0  0  0  0  0  0
  161.1360  203.6840  150.1350 C   0  0  0  0  0  2  0  0  0  0  0  0
  161.7630  203.3520  151.4830 C   0  0  2  0  0  3  0  0  0  0  0  0
  161.8030  201.9650  151.6430 O   0  0  0  0  0  1  0  0  0  0  0  0
  159.5990  204.2900  152.1510 N   0  0  0  0  0  1  0  0  0  0  0  0
  160.9440  203.9770  152.6110 C   0  0  2  0  0  3  0  0  0  0  0  0
  161.5980  205.2210  153.1270 C   0  0  0  0  0  0  0  0  0  0  0  0
  161.0560  205.9010  154.0380 O   0  0  0  0  0  1  0  0  0  0  0  0
  162.8020  205.6420  152.5770 O   0  0  0  0  0  0  0  0  0  0  0  0
  1  5  1  0  0  0  0
  2  4  1  0  0  0  0
  3  2  2  0  0  0  0
  5  4  2  0  0  0  0
  6  3  1  0  0  0  0
  6  1  2  0  0  0  0
  7  8  1  0  0  0  0
  8 10  1  6  0  0  0
  8 22  1  0  0  0  0
  9  4  1  6  0  0  0
  9  7  1  0  0  0  0
  9  8  1  0  0  0  0
 11 13  1  0  0  0  0
 11 10  1  0  0  0  0
 13 14  2  0  0  0  0
 13 12  2  0  0  0  0
 15 13  1  0  0  0  0
 16 17  1  0  0  0  0
 16 20  1  0  0  0  0
 17 19  2  0  0  0  0
 18 21  2  0  0  0  0
 18 15  1  0  0  0  0
 19 21  1  0  0  0  0
 20 18  1  0  0  0  0
 22 23  1  0  0  0  0
 23 24  1  1  0  0  0
 23 26  1  0  0  0  0
 25 26  1  0  0  0  0
 27  6  1  0  0  0  0
 28 27  1  0  0  0  0
 29 31  1  1  0  0  0
 29 28  1  0  0  0  0
 29 32  1  0  0  0  0
 30 31  2  0  0  0  0
 32 42  1  6  0  0  0
 33 37  1  0  0  0  0
 34 33  1  6  0  0  0
 34 41  1  0  0  0  0
 35 38  1  0  0  0  0
 35 33  2  0  0  0  0
 36 41  2  0  0  0  0
 37 36  1  0  0  0  0
 38 40  2  0  0  0  0
 39 37  1  0  0  0  0
 40 34  1  0  0  0  0
 40 32  1  0  0  0  0
 42 43  1  0  0  0  0
 43 44  1  0  0  0  0
 44 45  1  0  0  0  0
 45 46  1  1  0  0  0
 45 48  1  0  0  0  0
 48 47  1  6  0  0  0
 48 49  1  0  0  0  0
 49 50  1  0  0  0  0
 51 49  2  0  0  0  0
M  END
>  <MODEL>
4

>  <REMARK>
 VINA RESULT:      -4.7      3.016     10.952
  Name = 
  21 active torsions:
  status: ('A' for Active; 'I' for Inactive)
    1  A    between atoms: C_2  and  C_15
    2  A    between atoms: C_2  and  CA_19
    3  A    between atoms: C_4  and  C_37
    4  A    between atoms: C_4  and  C_48
    5  A    between atoms: C_9  and  C_20
    6  A    between atoms: C_9  and  O_41
    7  A    between atoms: C_14  and  CA_19
    8  A    between atoms: C_15  and  C_38
    9  A    between atoms: C_20  and  C_26
   10  A    between atoms: C_20  and  C_47
   11  A    between atoms: O_21  and  C_38
   12  A    between atoms: O_21  and  C_47
   13  A    between atoms: C_30  and  C_33
   14  A    between atoms: C_32  and  C_50
   15  A    between atoms: C_33  and  S_44
   16  A    between atoms: C_39  and  C_47
   17  A    between atoms: C_40  and  O_41
   18  A    between atoms: C_43  and  C_48
   19  A    between atoms: C_43  and  C_51
   20  A    between atoms: S_44  and  N_49
   21  A    between atoms: N_49  and  C_51
                            x       y       z     vdW  Elec       q    Type
                         _______ _______ _______ _____ _____    ______ ____

>  <TORSDO>
F 21

$$$$
=
 OpenBabel11072410243D

 51 55  0  0  1  0  0  0  0  0999 V2000
  160.3150  206.5680  148.9890 C   0  0  0  0  0  3  0  0  0  0  0  0
  162.3230  208.4870  149.2980 C   0  0  0  0  0  3  0  0  0  0  0  0
  162.1580  207.8380  148.0720 C   0  0  0  0  0  3  0  0  0  0  0  0
  161.4710  208.1920  150.3730 C   0  0  0  0  0  0  0  0  0  0  0  0
  160.4810  207.2160  150.2150 C   0  0  0  0  0  3  0  0  0  0  0  0
  161.1490  206.8740  147.9110 C   0  0  0  0  0  0  0  0  0  0  0  0
  162.7520  209.9100  151.6950 C   0  0  0  0  0  2  0  0  0  0  0  0
  161.3000  210.3140  151.7510 C   0  0  2  0  0  0  0  0  0  0  0  0
  161.6730  208.8300  151.7190 C   0  0  1  0  0  3  0  0  0  0  0  0
  160.8980  211.0750  150.4910 C   0  0  0  0  0  2  0  0  0  0  0  0
  162.0490  211.7710  149.9420 N   0  0  0  0  0  2  0  0  0  0  0  0
  162.7520  213.1630  147.8080 O   0  0  0  0  0  0  0  0  0  0  0  0
  161.5580  212.5300  148.4670 S   0  0  0  0  0  0  0  0  0  0  0  0
  160.9530  211.5150  147.5350 O   0  0  0  0  0  0  0  0  0  0  0  0
  160.3570  213.7980  148.8320 C   0  0  0  0  0  2  0  0  0  0  0  0
  157.3110  212.6600  146.8190 C   0  0  0  0  0  2  0  0  0  0  0  0
  157.4130  213.6300  145.6740 C   0  0  0  0  0  3  0  0  0  0  0  0
  159.2900  213.8480  147.7900 C   0  0  0  0  0  0  0  0  0  0  0  0
  158.4760  214.4340  145.5620 C   0  0  0  0  0  3  0  0  0  0  0  0
  157.9400  213.2470  148.0870 C   0  0  0  0  0  2  0  0  0  0  0  0
  159.5160  214.4410  146.6100 C   0  0  0  0  0  3  0  0  0  0  0  0
  160.9380  210.8940  153.1110 C   0  0  0  0  0  2  0  0  0  0  0  0
  159.5000  211.3880  153.1450 C   0  0  2  0  0  3  0  0  0  0  0  0
  159.5020  212.9000  153.0350 C   0  0  0  0  0  1  0  0  0  0  0  0
  159.3000  211.8510  155.5850 C   0  0  0  0  0  1  0  0  0  0  0  0
  158.8310  210.9690  154.4440 C   0  0  0  0  0  2  0  0  0  0  0  0
  160.9590  206.2080  146.6950 O   0  0  0  0  0  0  0  0  0  0  0  0
  162.0320  205.8720  145.8200 C   0  0  0  0  0  2  0  0  0  0  0  0
  162.1940  204.3590  145.7350 C   0  0  1  0  0  3  0  0  0  0  0  0
  164.3460  204.6390  146.6790 O   0  0  0  0  0  0  0  0  0  0  0  0
  163.6210  203.9590  145.9720 C   0  0  0  0  0  3  0  0  0  0  0  0
  161.2340  203.6770  146.7120 C   0  0  1  0  0  3  0  0  0  0  0  0
  160.4310  200.2850  145.7340 C   0  0  0  0  0  0  0  0  0  0  0  0
  160.8620  201.1400  146.6440 C   0  0  2  0  0  3  0  0  0  0  0  0
  160.0000  200.8750  144.6060 N   0  0  0  0  0  0  0  0  0  0  0  0
  161.9170  199.3350  146.9160 C   0  0  0  0  0  3  0  0  0  0  0  0
  161.0730  199.1220  145.8720 N   0  0  0  0  0  0  0  0  0  0  0  0
  160.1250  202.2080  144.8760 C   0  0  0  0  0  3  0  0  0  0  0  0
  161.1000  198.0060  144.9450 C   0  0  0  0  0  1  0  0  0  0  0  0
  160.6960  202.4020  146.1420 C   0  0  0  0  0  0  0  0  0  0  0  0
  161.8320  200.6080  147.4100 N   0  0  0  0  0  0  0  0  0  0  0  0
  161.8380  203.4460  147.9560 O   0  0  0  0  0  0  0  0  0  0  0  0
  160.8600  203.7570  148.9070 C   0  0  0  0  0  2  0  0  0  0  0  0
  160.8320  202.7070  150.0110 C   0  0  0  0  0  2  0  0  0  0  0  0
  161.7780  203.0680  151.1500 C   0  0  2  0  0  3  0  0  0  0  0  0
  162.3320  201.8980  151.6760 O   0  0  0  0  0  1  0  0  0  0  0  0
  159.6500  204.0760  151.8290 N   0  0  0  0  0  1  0  0  0  0  0  0
  161.0200  203.8160  152.2460 C   0  0  2  0  0  3  0  0  0  0  0  0
  161.6950  205.1110  152.5800 C   0  0  0  0  0  0  0  0  0  0  0  0
  162.7250  205.4780  151.9550 O   0  0  0  0  0  0  0  0  0  0  0  0
  161.1930  205.9010  153.6060 O   0  0  0  0  0  1  0  0  0  0  0  0
  1  5  1  0  0  0  0
  2  4  1  0  0  0  0
  3  2  2  0  0  0  0
  5  4  2  0  0  0  0
  6  3  1  0  0  0  0
  6  1  2  0  0  0  0
  7  9  1  0  0  0  0
  7  8  1  0  0  0  0
  8 10  1  6  0  0  0
  8 22  1  0  0  0  0
  9  4  1  6  0  0  0
  9  8  1  0  0  0  0
 11 10  1  0  0  0  0
 12 13  2  0  0  0  0
 13 15  1  0  0  0  0
 13 11  1  0  0  0  0
 14 13  2  0  0  0  0
 16 20  1  0  0  0  0
 17 16  1  0  0  0  0
 18 20  1  0  0  0  0
 18 15  1  0  0  0  0
 19 17  2  0  0  0  0
 19 21  1  0  0  0  0
 21 18  2  0  0  0  0
 22 23  1  0  0  0  0
 23 24  1  1  0  0  0
 23 26  1  0  0  0  0
 26 25  1  0  0  0  0
 27  6  1  0  0  0  0
 28 27  1  0  0  0  0
 29 28  1  1  0  0  0
 29 31  1  0  0  0  0
 29 32  1  0  0  0  0
 31 30  2  0  0  0  0
 32 42  1  1  0  0  0
 33 37  1  0  0  0  0
 34 33  1  6  0  0  0
 34 41  1  0  0  0  0
 35 38  1  0  0  0  0
 35 33  2  0  0  0  0
 36 41  2  0  0  0  0
 37 36  1  0  0  0  0
 38 40  2  0  0  0  0
 39 37  1  0  0  0  0
 40 34  1  0  0  0  0
 40 32  1  0  0  0  0
 42 43  1  0  0  0  0
 43 44  1  0  0  0  0
 44 45  1  0  0  0  0
 45 46  1  1  0  0  0
 45 48  1  0  0  0  0
 48 47  1  6  0  0  0
 48 49  1  0  0  0  0
 49 51  1  0  0  0  0
 50 49  2  0  0  0  0
M  END
>  <MODEL>
5

>  <REMARK>
 VINA RESULT:      -4.5      3.034     11.078
  Name = 
  21 active torsions:
  status: ('A' for Active; 'I' for Inactive)
    1  A    between atoms: C_2  and  C_15
    2  A    between atoms: C_2  and  CA_19
    3  A    between atoms: C_4  and  C_37
    4  A    between atoms: C_4  and  C_48
    5  A    between atoms: C_9  and  C_20
    6  A    between atoms: C_9  and  O_41
    7  A    between atoms: C_14  and  CA_19
    8  A    between atoms: C_15  and  C_38
    9  A    between atoms: C_20  and  C_26
   10  A    between atoms: C_20  and  C_47
   11  A    between atoms: O_21  and  C_38
   12  A    between atoms: O_21  and  C_47
   13  A    between atoms: C_30  and  C_33
   14  A    between atoms: C_32  and  C_50
   15  A    between atoms: C_33  and  S_44
   16  A    between atoms: C_39  and  C_47
   17  A    between atoms: C_40  and  O_41
   18  A    between atoms: C_43  and  C_48
   19  A    between atoms: C_43  and  C_51
   20  A    between atoms: S_44  and  N_49
   21  A    between atoms: N_49  and  C_51
                            x       y       z     vdW  Elec       q    Type
                         _______ _______ _______ _____ _____    ______ ____

>  <TORSDO>
F 21

$$$$
=
 OpenBabel11072410243D

 51 55  0  0  1  0  0  0  0  0999 V2000
  160.8180  208.3010  153.8050 C   0  0  0  0  0  3  0  0  0  0  0  0
  161.2690  211.0410  154.1220 C   0  0  0  0  0  3  0  0  0  0  0  0
  161.7970  210.3680  153.0170 C   0  0  0  0  0  3  0  0  0  0  0  0
  160.4950  210.3500  155.0660 C   0  0  0  0  0  0  0  0  0  0  0  0
  160.2910  208.9740  154.9100 C   0  0  0  0  0  3  0  0  0  0  0  0
  161.5720  208.9920  152.8530 C   0  0  0  0  0  0  0  0  0  0  0  0
  160.0680  212.5600  156.1920 C   0  0  0  0  0  2  0  0  0  0  0  0
  158.7280  211.8890  156.0320 C   0  0  2  0  0  0  0  0  0  0  0  0
  159.9730  211.0400  156.2940 C   0  0  1  0  0  3  0  0  0  0  0  0
  158.1760  212.1040  154.6260 C   0  0  0  0  0  2  0  0  0  0  0  0
  158.6320  213.3810  154.1020 N   0  0  0  0  0  2  0  0  0  0  0  0
  158.3170  211.9600  151.8970 O   0  0  0  0  0  0  0  0  0  0  0  0
  158.3700  213.3790  152.3920 S   0  0  0  0  0  0  0  0  0  0  0  0
  157.0760  214.0710  152.0620 O   0  0  0  0  0  0  0  0  0  0  0  0
  159.7220  214.2230  151.5910 C   0  0  0  0  0  2  0  0  0  0  0  0
  158.4150  213.2780  148.1240 C   0  0  0  0  0  2  0  0  0  0  0  0
  159.7270  212.9680  147.4570 C   0  0  0  0  0  3  0  0  0  0  0  0
  159.7690  213.9060  150.1340 C   0  0  0  0  0  0  0  0  0  0  0  0
  160.8580  212.9420  148.1700 C   0  0  0  0  0  3  0  0  0  0  0  0
  158.6070  214.2920  149.2560 C   0  0  0  0  0  2  0  0  0  0  0  0
  160.8430  213.3060  149.6010 C   0  0  0  0  0  3  0  0  0  0  0  0
  157.8260  212.1600  157.2280 C   0  0  0  0  0  2  0  0  0  0  0  0
  156.3560  212.0250  156.8640 C   0  0  2  0  0  3  0  0  0  0  0  0
  156.2510  211.5320  155.4340 C   0  0  0  0  0  1  0  0  0  0  0  0
  154.9050  213.6970  155.7190 C   0  0  0  0  0  1  0  0  0  0  0  0
  155.6560  213.3680  156.9960 C   0  0  0  0  0  2  0  0  0  0  0  0
  162.0880  208.2900  151.7570 O   0  0  0  0  0  0  0  0  0  0  0  0
  161.4590  207.1340  151.2120 C   0  0  0  0  0  2  0  0  0  0  0  0
  161.1920  207.3260  149.7240 C   0  0  1  0  0  3  0  0  0  0  0  0
  161.5850  209.4340  148.7220 O   0  0  0  0  0  0  0  0  0  0  0  0
  162.0700  208.4020  149.1560 C   0  0  0  0  0  3  0  0  0  0  0  0
  161.3620  205.9950  148.9880 C   0  0  1  0  0  3  0  0  0  0  0  0
  160.9250  202.8220  150.6770 C   0  0  0  0  0  0  0  0  0  0  0  0
  161.3000  203.5080  149.6120 C   0  0  0  0  0  0  0  0  0  0  0  0
  160.5740  203.5980  151.7170 N   0  0  0  0  0  2  0  0  0  0  0  0
  160.4830  201.6840  148.9400 C   0  0  0  0  0  3  0  0  0  0  0  0
  160.4020  201.6540  150.2970 N   0  0  0  0  0  0  0  0  0  0  0  0
  160.8120  204.8640  151.2640 C   0  0  0  0  0  3  0  0  0  0  0  0
  159.6440  200.7140  151.1020 C   0  0  0  0  0  1  0  0  0  0  0  0
  161.2400  204.8370  149.9290 C   0  0  0  0  0  0  0  0  0  0  0  0
  161.0180  202.8520  148.4710 N   0  0  0  0  0  0  0  0  0  0  0  0
  160.4520  205.8680  147.9300 O   0  0  0  0  0  0  0  0  0  0  0  0
  160.8500  206.8190  146.9830 C   0  0  0  0  0  2  0  0  0  0  0  0
  161.8190  206.2050  145.9800 C   0  0  0  0  0  2  0  0  0  0  0  0
  161.8240  204.6840  146.0680 C   0  0  2  0  0  3  0  0  0  0  0  0
  163.0930  204.2500  146.4610 O   0  0  0  0  0  1  0  0  0  0  0  0
  160.9730  205.1060  143.8090 N   0  0  0  0  0  1  0  0  0  0  0  0
  161.4710  204.0780  144.7110 C   0  0  2  0  0  3  0  0  0  0  0  0
  160.4430  202.9980  144.8540 C   0  0  0  0  0  0  0  0  0  0  0  0
  159.3390  203.0790  144.2520 O   0  0  0  0  0  0  0  0  0  0  0  0
  160.7010  201.9100  145.6780 O   0  0  0  0  0  1  0  0  0  0  0  0
  1  5  1  0  0  0  0
  2  4  1  0  0  0  0
  3  2  2  0  0  0  0
  5  4  2  0  0  0  0
  6  3  1  0  0  0  0
  6  1  2  0  0  0  0
  7  9  1  0  0  0  0
  8 10  1  6  0  0  0
  8  7  1  0  0  0  0
  8  9  1  0  0  0  0
  8 22  1  0  0  0  0
  9  4  1  6  0  0  0
 11 10  1  0  0  0  0
 12 13  2  0  0  0  0
 13 11  1  0  0  0  0
 14 13  2  0  0  0  0
 15 13  1  0  0  0  0
 16 20  1  0  0  0  0
 17 16  1  0  0  0  0
 17 19  2  0  0  0  0
 18 15  1  0  0  0  0
 19 21  1  0  0  0  0
 20 18  1  0  0  0  0
 21 18  2  0  0  0  0
 23 24  1  6  0  0  0
 23 26  1  0  0  0  0
 23 22  1  0  0  0  0
 25 26  1  0  0  0  0
 27  6  1  0  0  0  0
 28 27  1  0  0  0  0
 29 31  1  6  0  0  0
 29 28  1  0  0  0  0
 30 31  2  0  0  0  0
 32 42  1  6  0  0  0
 32 29  1  0  0  0  0
 32 40  1  0  0  0  0
 33 35  1  0  0  0  0
 34 40  1  0  0  0  0
 34 33  2  0  0  0  0
 36 37  1  0  0  0  0
 37 33  1  0  0  0  0
 37 39  1  0  0  0  0
 38 35  1  0  0  0  0
 40 38  2  0  0  0  0
 41 36  2  0  0  0  0
 41 34  1  0  0  0  0
 43 42  1  0  0  0  0
 44 45  1  0  0  0  0
 44 43  1  0  0  0  0
 45 46  1  6  0  0  0
 48 47  1  6  0  0  0
 48 49  1  0  0  0  0
 48 45  1  0  0  0  0
 49 51  1  0  0  0  0
 50 49  2  0  0  0  0
M  END
>  <MODEL>
6

>  <REMARK>
 VINA RESULT:      -4.0      2.689     10.567
  Name = 
  21 active torsions:
  status: ('A' for Active; 'I' for Inactive)
    1  A    between atoms: C_2  and  C_15
    2  A    between atoms: C_2  and  CA_19
    3  A    between atoms: C_4  and  C_37
    4  A    between atoms: C_4  and  C_48
    5  A    between atoms: C_9  and  C_20
    6  A    between atoms: C_9  and  O_41
    7  A    between atoms: C_14  and  CA_19
    8  A    between atoms: C_15  and  C_38
    9  A    between atoms: C_20  and  C_26
   10  A    between atoms: C_20  and  C_47
   11  A    between atoms: O_21  and  C_38
   12  A    between atoms: O_21  and  C_47
   13  A    between atoms: C_30  and  C_33
   14  A    between atoms: C_32  and  C_50
   15  A    between atoms: C_33  and  S_44
   16  A    between atoms: C_39  and  C_47
   17  A    between atoms: C_40  and  O_41
   18  A    between atoms: C_43  and  C_48
   19  A    between atoms: C_43  and  C_51
   20  A    between atoms: S_44  and  N_49
   21  A    between atoms: N_49  and  C_51
                            x       y       z     vdW  Elec       q    Type
                         _______ _______ _______ _____ _____    ______ ____

>  <TORSDO>
F 21

$$$$
=
 OpenBabel11072410243D

 51 55  0  0  1  0  0  0  0  0999 V2000
  160.4620  206.9130  149.7320 C   0  0  0  0  0  3  0  0  0  0  0  0
  162.8340  207.1640  148.2760 C   0  0  0  0  0  3  0  0  0  0  0  0
  162.7050  207.7910  149.5180 C   0  0  0  0  0  3  0  0  0  0  0  0
  161.7820  206.3910  147.7630 C   0  0  0  0  0  0  0  0  0  0  0  0
  160.5900  206.2870  148.4900 C   0  0  0  0  0  3  0  0  0  0  0  0
  161.5160  207.6660  150.2540 C   0  0  0  0  0  0  0  0  0  0  0  0
  163.2010  205.0390  146.1830 C   0  0  0  0  0  2  0  0  0  0  0  0
  161.9520  204.2350  146.4400 C   0  0  2  0  0  0  0  0  0  0  0  0
  161.8750  205.7630  146.4020 C   0  0  1  0  0  3  0  0  0  0  0  0
  162.0610  203.4630  147.7510 C   0  0  0  0  0  2  0  0  0  0  0  0
  160.7350  203.1750  148.2710 N   0  0  0  0  0  2  0  0  0  0  0  0
  159.4620  201.3540  149.7030 O   0  0  0  0  0  0  0  0  0  0  0  0
  160.8270  201.7050  149.1780 S   0  0  0  0  0  0  0  0  0  0  0  0
  161.3300  200.5860  148.3080 O   0  0  0  0  0  0  0  0  0  0  0  0
  161.9350  201.9350  150.5580 C   0  0  0  0  0  2  0  0  0  0  0  0
  162.4300  205.2240  152.4440 C   0  0  0  0  0  2  0  0  0  0  0  0
  161.0920  205.3040  153.1270 C   0  0  0  0  0  3  0  0  0  0  0  0
  161.5670  203.1430  151.3520 C   0  0  0  0  0  0  0  0  0  0  0  0
  160.2330  204.2810  153.0550 C   0  0  0  0  0  3  0  0  0  0  0  0
  162.3270  204.4260  151.1400 C   0  0  0  0  0  2  0  0  0  0  0  0
  160.5540  203.1000  152.2290 C   0  0  0  0  0  3  0  0  0  0  0  0
  161.4980  203.5000  145.1870 C   0  0  0  0  0  2  0  0  0  0  0  0
  160.0540  203.0380  145.2990 C   0  0  2  0  0  3  0  0  0  0  0  0
  160.0240  201.5220  145.2880 C   0  0  0  0  0  1  0  0  0  0  0  0
  157.7600  203.5580  144.4760 C   0  0  0  0  0  1  0  0  0  0  0  0
  159.2380  203.5760  144.1350 C   0  0  0  0  0  2  0  0  0  0  0  0
  161.3580  208.2830  151.5010 O   0  0  0  0  0  0  0  0  0  0  0  0
  160.1120  208.8040  151.9550 C   0  0  0  0  0  2  0  0  0  0  0  0
  160.2880  209.5130  153.2920 C   0  0  1  0  0  3  0  0  0  0  0  0
  160.3230  208.3250  155.3380 O   0  0  0  0  0  0  0  0  0  0  0  0
  160.9110  208.5980  154.3050 C   0  0  0  0  0  3  0  0  0  0  0  0
  161.0990  210.7960  153.0980 C   0  0  1  0  0  3  0  0  0  0  0  0
  160.2490  212.6830  150.1270 C   0  0  0  0  0  0  0  0  0  0  0  0
  160.8190  211.6320  150.6890 C   0  0  0  0  0  0  0  0  0  0  0  0
  159.5810  213.4600  150.9970 N   0  0  0  0  0  2  0  0  0  0  0  0
  161.9760  212.1590  149.0070 C   0  0  0  0  0  3  0  0  0  0  0  0
  160.9500  213.0510  149.0520 N   0  0  0  0  0  0  0  0  0  0  0  0
  159.7060  212.7910  152.1810 C   0  0  0  0  0  3  0  0  0  0  0  0
  160.8360  214.2830  148.2950 C   0  0  0  0  0  1  0  0  0  0  0  0
  160.5090  211.6520  152.0210 C   0  0  0  0  0  0  0  0  0  0  0  0
  161.9410  211.2660  150.0430 N   0  0  0  0  0  0  0  0  0  0  0  0
  161.2180  211.5190  154.2930 O   0  0  0  0  0  0  0  0  0  0  0  0
  159.9670  211.4210  154.9130 C   0  0  0  0  0  2  0  0  0  0  0  0
  159.7530  212.5850  155.8740 C   0  0  0  0  0  2  0  0  0  0  0  0
  158.3080  212.6560  156.3510 C   0  0  2  0  0  3  0  0  0  0  0  0
  158.0530  211.5820  157.2080 O   0  0  0  0  0  1  0  0  0  0  0  0
  157.1330  213.9340  154.6220 N   0  0  0  0  0  1  0  0  0  0  0  0
  157.3560  212.5990  155.1580 C   0  0  2  0  0  3  0  0  0  0  0  0
  156.0440  211.9890  155.5430 C   0  0  0  0  0  0  0  0  0  0  0  0
  155.6660  210.9020  155.0310 O   0  0  0  0  0  0  0  0  0  0  0  0
  155.2250  212.6430  156.4560 O   0  0  0  0  0  1  0  0  0  0  0  0
  1  6  1  0  0  0  0
  2  3  1  0  0  0  0
  3  6  2  0  0  0  0
  4  2  2  0  0  0  0
  4  5  1  0  0  0  0
  5  1  2  0  0  0  0
  6 27  1  0  0  0  0
  7  9  1  0  0  0  0
  7  8  1  0  0  0  0
  8 22  1  6  0  0  0
  8 10  1  0  0  0  0
  9  8  1  0  0  0  0
  9  4  1  1  0  0  0
 10 11  1  0  0  0  0
 11 13  1  0  0  0  0
 13 12  2  0  0  0  0
 13 15  1  0  0  0  0
 14 13  2  0  0  0  0
 15 18  1  0  0  0  0
 16 17  1  0  0  0  0
 18 21  2  0  0  0  0
 19 17  2  0  0  0  0
 20 18  1  0  0  0  0
 20 16  1  0  0  0  0
 21 19  1  0  0  0  0
 22 23  1  0  0  0  0
 23 24  1  6  0  0  0
 26 25  1  0  0  0  0
 26 23  1  0  0  0  0
 27 28  1  0  0  0  0
 29 28  1  6  0  0  0
 29 31  1  0  0  0  0
 31 30  2  0  0  0  0
 32 29  1  0  0  0  0
 32 42  1  1  0  0  0
 33 34  2  0  0  0  0
 33 35  1  0  0  0  0
 34 40  1  0  0  0  0
 35 38  1  0  0  0  0
 36 37  1  0  0  0  0
 36 41  2  0  0  0  0
 37 33  1  0  0  0  0
 39 37  1  0  0  0  0
 40 38  2  0  0  0  0
 40 32  1  0  0  0  0
 41 34  1  0  0  0  0
 42 43  1  0  0  0  0
 43 44  1  0  0  0  0
 44 45  1  0  0  0  0
 45 46  1  1  0  0  0
 48 47  1  1  0  0  0
 48 49  1  0  0  0  0
 48 45  1  0  0  0  0
 49 51  1  0  0  0  0
 50 49  2  0  0  0  0
M  END
>  <MODEL>
7

>  <REMARK>
 VINA RESULT:      -3.9      1.937      4.517
  Name = 
  21 active torsions:
  status: ('A' for Active; 'I' for Inactive)
    1  A    between atoms: C_2  and  C_15
    2  A    between atoms: C_2  and  CA_19
    3  A    between atoms: C_4  and  C_37
    4  A    between atoms: C_4  and  C_48
    5  A    between atoms: C_9  and  C_20
    6  A    between atoms: C_9  and  O_41
    7  A    between atoms: C_14  and  CA_19
    8  A    between atoms: C_15  and  C_38
    9  A    between atoms: C_20  and  C_26
   10  A    between atoms: C_20  and  C_47
   11  A    between atoms: O_21  and  C_38
   12  A    between atoms: O_21  and  C_47
   13  A    between atoms: C_30  and  C_33
   14  A    between atoms: C_32  and  C_50
   15  A    between atoms: C_33  and  S_44
   16  A    between atoms: C_39  and  C_47
   17  A    between atoms: C_40  and  O_41
   18  A    between atoms: C_43  and  C_48
   19  A    between atoms: C_43  and  C_51
   20  A    between atoms: S_44  and  N_49
   21  A    between atoms: N_49  and  C_51
                            x       y       z     vdW  Elec       q    Type
                         _______ _______ _______ _____ _____    ______ ____

>  <TORSDO>
F 21

$$$$
=
 OpenBabel11072410243D

 51 55  0  0  1  0  0  0  0  0999 V2000
  160.9000  206.9340  149.4230 C   0  0  0  0  0  3  0  0  0  0  0  0
  162.0350  209.2090  150.5850 C   0  0  0  0  0  3  0  0  0  0  0  0
  162.1050  209.0190  149.2020 C   0  0  0  0  0  3  0  0  0  0  0  0
  161.3780  208.2690  151.3930 C   0  0  0  0  0  0  0  0  0  0  0  0
  160.8300  207.1230  150.8050 C   0  0  0  0  0  3  0  0  0  0  0  0
  161.5350  207.8790  148.6140 C   0  0  0  0  0  0  0  0  0  0  0  0
  162.0100  209.7120  153.3560 C   0  0  0  0  0  2  0  0  0  0  0  0
  160.5060  209.6060  153.3630 C   0  0  2  0  0  0  0  0  0  0  0  0
  161.3470  208.4190  152.8880 C   0  0  1  0  0  3  0  0  0  0  0  0
  159.8850  210.6000  152.3860 C   0  0  0  0  0  2  0  0  0  0  0  0
  160.4570  211.9210  152.5910 N   0  0  0  0  0  2  0  0  0  0  0  0
  158.1090  212.3860  151.4710 O   0  0  0  0  0  0  0  0  0  0  0  0
  159.2880  213.0910  152.0830 S   0  0  0  0  0  0  0  0  0  0  0  0
  158.8260  213.9100  153.2580 O   0  0  0  0  0  0  0  0  0  0  0  0
  160.0220  214.1610  150.8600 C   0  0  0  0  0  2  0  0  0  0  0  0
  161.4970  212.6640  147.6650 C   0  0  0  0  0  2  0  0  0  0  0  0
  160.2410  212.5950  146.8390 C   0  0  0  0  0  3  0  0  0  0  0  0
  160.0400  213.5140  149.5150 C   0  0  0  0  0  0  0  0  0  0  0  0
  159.1050  213.1400  147.2890 C   0  0  0  0  0  3  0  0  0  0  0  0
  161.1690  212.5830  149.1590 C   0  0  0  0  0  2  0  0  0  0  0  0
  159.0510  213.7360  148.6380 C   0  0  0  0  0  3  0  0  0  0  0  0
  159.9610  209.5280  154.7820 C   0  0  0  0  0  2  0  0  0  0  0  0
  160.8380  208.6610  155.6720 C   0  0  2  0  0  3  0  0  0  0  0  0
  160.1110  207.3610  155.9550 C   0  0  0  0  0  1  0  0  0  0  0  0
  162.3690  210.2450  156.8380 C   0  0  0  0  0  1  0  0  0  0  0  0
  161.1320  209.3790  156.9800 C   0  0  0  0  0  2  0  0  0  0  0  0
  161.5900  207.6630  147.2320 O   0  0  0  0  0  0  0  0  0  0  0  0
  161.2050  206.4330  146.6250 C   0  0  0  0  0  2  0  0  0  0  0  0
  162.3740  205.8300  145.8560 C   0  0  1  0  0  3  0  0  0  0  0  0
  164.3720  204.6670  146.3640 O   0  0  0  0  0  0  0  0  0  0  0  0
  163.3830  205.2370  146.7960 C   0  0  0  0  0  3  0  0  0  0  0  0
  161.8580  204.8060  144.8420 C   0  0  1  0  0  3  0  0  0  0  0  0
  160.4590  202.3190  147.0690 C   0  0  0  0  0  0  0  0  0  0  0  0
  160.9220  203.5390  146.8660 C   0  0  2  0  0  3  0  0  0  0  0  0
  160.3700  201.5850  145.9470 N   0  0  0  0  0  0  0  0  0  0  0  0
  161.4660  202.9700  148.8220 C   0  0  0  0  0  3  0  0  0  0  0  0
  160.7800  201.9180  148.3020 N   0  0  0  0  0  0  0  0  0  0  0  0
  160.7570  202.4550  144.9680 C   0  0  0  0  0  3  0  0  0  0  0  0
  160.6990  200.5770  148.8500 C   0  0  0  0  0  1  0  0  0  0  0  0
  161.1400  203.6840  145.5230 C   0  0  0  0  0  0  0  0  0  0  0  0
  161.6000  204.0010  147.9320 N   0  0  0  0  0  0  0  0  0  0  0  0
  161.0380  205.4030  143.8760 O   0  0  0  0  0  0  0  0  0  0  0  0
  161.8120  205.4530  142.7110 C   0  0  0  0  0  2  0  0  0  0  0  0
  161.5810  206.7650  141.9690 C   0  0  0  0  0  2  0  0  0  0  0  0
  161.8750  206.6240  140.4810 C   0  0  2  0  0  3  0  0  0  0  0  0
  163.0080  205.8250  140.3090 O   0  0  0  0  0  1  0  0  0  0  0  0
  161.5710  209.0450  140.7140 N   0  0  0  0  0  1  0  0  0  0  0  0
  162.1160  208.0000  139.8610 C   0  0  2  0  0  3  0  0  0  0  0  0
  161.4990  208.0930  138.5000 C   0  0  0  0  0  0  0  0  0  0  0  0
  160.2470  208.0910  138.3620 O   0  0  0  0  0  1  0  0  0  0  0  0
  162.3160  208.1580  137.3780 O   0  0  0  0  0  0  0  0  0  0  0  0
  1  5  1  0  0  0  0
  2  4  1  0  0  0  0
  3  2  2  0  0  0  0
  5  4  2  0  0  0  0
  6  3  1  0  0  0  0
  6  1  2  0  0  0  0
  7  8  1  0  0  0  0
  8 10  1  6  0  0  0
  8 22  1  0  0  0  0
  9  4  1  6  0  0  0
  9  7  1  0  0  0  0
  9  8  1  0  0  0  0
 10 11  1  0  0  0  0
 12 13  2  0  0  0  0
 13 11  1  0  0  0  0
 13 14  2  0  0  0  0
 15 13  1  0  0  0  0
 16 20  1  0  0  0  0
 17 19  2  0  0  0  0
 17 16  1  0  0  0  0
 18 15  1  0  0  0  0
 19 21  1  0  0  0  0
 20 18  1  0  0  0  0
 21 18  2  0  0  0  0
 22 23  1  0  0  0  0
 23 24  1  1  0  0  0
 23 26  1  0  0  0  0
 25 26  1  0  0  0  0
 27  6  1  0  0  0  0
 28 27  1  0  0  0  0
 29 28  1  1  0  0  0
 29 31  1  0  0  0  0
 30 31  2  0  0  0  0
 32 42  1  6  0  0  0
 32 40  1  0  0  0  0
 32 29  1  0  0  0  0
 33 37  1  0  0  0  0
 34 40  1  6  0  0  0
 34 33  1  0  0  0  0
 34 41  1  0  0  0  0
 35 33  2  0  0  0  0
 37 36  1  0  0  0  0
 37 39  1  0  0  0  0
 38 40  2  0  0  0  0
 38 35  1  0  0  0  0
 41 36  2  0  0  0  0
 43 42  1  0  0  0  0
 44 43  1  0  0  0  0
 45 46  1  1  0  0  0
 45 44  1  0  0  0  0
 48 45  1  0  0  0  0
 48 47  1  1  0  0  0
 49 48  1  0  0  0  0
 50 49  1  0  0  0  0
 51 49  2  0  0  0  0
M  END
>  <MODEL>
8

>  <REMARK>
 VINA RESULT:      -3.1      4.268     10.595
  Name = 
  21 active torsions:
  status: ('A' for Active; 'I' for Inactive)
    1  A    between atoms: C_2  and  C_15
    2  A    between atoms: C_2  and  CA_19
    3  A    between atoms: C_4  and  C_37
    4  A    between atoms: C_4  and  C_48
    5  A    between atoms: C_9  and  C_20
    6  A    between atoms: C_9  and  O_41
    7  A    between atoms: C_14  and  CA_19
    8  A    between atoms: C_15  and  C_38
    9  A    between atoms: C_20  and  C_26
   10  A    between atoms: C_20  and  C_47
   11  A    between atoms: O_21  and  C_38
   12  A    between atoms: O_21  and  C_47
   13  A    between atoms: C_30  and  C_33
   14  A    between atoms: C_32  and  C_50
   15  A    between atoms: C_33  and  S_44
   16  A    between atoms: C_39  and  C_47
   17  A    between atoms: C_40  and  O_41
   18  A    between atoms: C_43  and  C_48
   19  A    between atoms: C_43  and  C_51
   20  A    between atoms: S_44  and  N_49
   21  A    between atoms: N_49  and  C_51
                            x       y       z     vdW  Elec       q    Type
                         _______ _______ _______ _____ _____    ______ ____

>  <TORSDO>
F 21

$$$$
=
 OpenBabel11072410243D

 51 55  0  0  1  0  0  0  0  0999 V2000
  160.7330  206.8250  149.5450 C   0  0  0  0  0  3  0  0  0  0  0  0
  162.0550  209.0930  150.5020 C   0  0  0  0  0  3  0  0  0  0  0  0
  161.9560  208.8690  149.1270 C   0  0  0  0  0  3  0  0  0  0  0  0
  161.4760  208.1920  151.4080 C   0  0  0  0  0  0  0  0  0  0  0  0
  160.8330  207.0490  150.9200 C   0  0  0  0  0  3  0  0  0  0  0  0
  161.2910  207.7320  148.6410 C   0  0  0  0  0  0  0  0  0  0  0  0
  162.0880  209.7880  153.2560 C   0  0  0  0  0  2  0  0  0  0  0  0
  160.6490  209.3980  153.4790 C   0  0  2  0  0  0  0  0  0  0  0  0
  161.6270  208.3790  152.8910 C   0  0  1  0  0  3  0  0  0  0  0  0
  159.7170  210.2270  152.5990 C   0  0  0  0  0  2  0  0  0  0  0  0
  160.2680  211.5590  152.4080 N   0  0  0  0  0  2  0  0  0  0  0  0
  159.3520  214.0370  152.4070 O   0  0  0  0  0  0  0  0  0  0  0  0
  159.1390  212.6980  153.0570 S   0  0  0  0  0  0  0  0  0  0  0  0
  157.7290  212.2380  152.8040 O   0  0  0  0  0  0  0  0  0  0  0  0
  159.4110  212.8570  154.8130 C   0  0  0  0  0  2  0  0  0  0  0  0
  156.1360  211.4580  156.2060 C   0  0  0  0  0  2  0  0  0  0  0  0
  155.5070  212.7460  156.6600 C   0  0  0  0  0  3  0  0  0  0  0  0
  158.1210  212.8410  155.5630 C   0  0  0  0  0  0  0  0  0  0  0  0
  156.0810  213.9190  156.3680 C   0  0  0  0  0  3  0  0  0  0  0  0
  157.6640  211.5650  156.2200 C   0  0  0  0  0  2  0  0  0  0  0  0
  157.3840  213.9550  155.6760 C   0  0  0  0  0  3  0  0  0  0  0  0
  160.3340  209.2620  154.9620 C   0  0  0  0  0  2  0  0  0  0  0  0
  161.5990  209.2650  155.8050 C   0  0  2  0  0  3  0  0  0  0  0  0
  161.5560  208.0820  156.7540 C   0  0  0  0  0  1  0  0  0  0  0  0
  163.1490  210.8780  156.9040 C   0  0  0  0  0  1  0  0  0  0  0  0
  161.6980  210.5560  156.6010 C   0  0  0  0  0  2  0  0  0  0  0  0
  161.1750  207.4800  147.2690 O   0  0  0  0  0  0  0  0  0  0  0  0
  161.0490  206.1680  146.7290 C   0  0  0  0  0  2  0  0  0  0  0  0
  162.2640  205.8250  145.8760 C   0  0  1  0  0  3  0  0  0  0  0  0
  164.2240  204.6300  146.4510 O   0  0  0  0  0  0  0  0  0  0  0  0
  163.4590  205.5370  146.7360 C   0  0  0  0  0  3  0  0  0  0  0  0
  161.9310  204.6600  144.9410 C   0  0  1  0  0  3  0  0  0  0  0  0
  160.5200  202.2790  147.2740 C   0  0  0  0  0  0  0  0  0  0  0  0
  160.9820  203.4890  147.0160 C   0  0  2  0  0  3  0  0  0  0  0  0
  160.4410  201.4930  146.1870 N   0  0  0  0  0  0  0  0  0  0  0  0
  161.5130  203.0160  149.0010 C   0  0  0  0  0  3  0  0  0  0  0  0
  160.8330  201.9380  148.5270 N   0  0  0  0  0  0  0  0  0  0  0  0
  160.8330  202.3150  145.1710 C   0  0  0  0  0  3  0  0  0  0  0  0
  160.7500  200.6250  149.1390 C   0  0  0  0  0  1  0  0  0  0  0  0
  161.2100  203.5700  145.6700 C   0  0  0  0  0  0  0  0  0  0  0  0
  161.6510  204.0030  148.0640 N   0  0  0  0  0  0  0  0  0  0  0  0
  161.1920  205.0840  143.8280 O   0  0  0  0  0  0  0  0  0  0  0  0
  162.1330  205.6030  142.9320 C   0  0  0  0  0  2  0  0  0  0  0  0
  161.4390  206.3430  141.7950 C   0  0  0  0  0  2  0  0  0  0  0  0
  162.3920  206.6080  140.6370 C   0  0  2  0  0  3  0  0  0  0  0  0
  163.2480  207.6590  140.9760 O   0  0  0  0  0  1  0  0  0  0  0  0
  162.3350  206.5700  138.1870 N   0  0  0  0  0  1  0  0  0  0  0  0
  161.6040  206.9720  139.3790 C   0  0  2  0  0  3  0  0  0  0  0  0
  161.3250  208.4420  139.3240 C   0  0  0  0  0  0  0  0  0  0  0  0
  160.1900  208.8920  139.6320 O   0  0  0  0  0  1  0  0  0  0  0  0
  162.3220  209.3140  138.9050 O   0  0  0  0  0  0  0  0  0  0  0  0
  1  5  1  0  0  0  0
  2  4  1  0  0  0  0
  3  2  2  0  0  0  0
  5  4  2  0  0  0  0
  6  3  1  0  0  0  0
  6  1  2  0  0  0  0
  7  8  1  0  0  0  0
  8 10  1  6  0  0  0
  8 22  1  0  0  0  0
  9  4  1  6  0  0  0
  9  7  1  0  0  0  0
  9  8  1  0  0  0  0
 11 10  1  0  0  0  0
 11 13  1  0  0  0  0
 12 13  2  0  0  0  0
 13 15  1  0  0  0  0
 14 13  2  0  0  0  0
 15 18  1  0  0  0  0
 16 20  1  0  0  0  0
 16 17  1  0  0  0  0
 18 21  2  0  0  0  0
 18 20  1  0  0  0  0
 19 17  2  0  0  0  0
 21 19  1  0  0  0  0
 22 23  1  0  0  0  0
 23 26  1  0  0  0  0
 23 24  1  1  0  0  0
 26 25  1  0  0  0  0
 27  6  1  0  0  0  0
 28 27  1  0  0  0  0
 29 28  1  1  0  0  0
 29 31  1  0  0  0  0
 30 31  2  0  0  0  0
 32 42  1  6  0  0  0
 32 40  1  0  0  0  0
 32 29  1  0  0  0  0
 33 37  1  0  0  0  0
 34 40  1  6  0  0  0
 34 33  1  0  0  0  0
 34 41  1  0  0  0  0
 35 33  2  0  0  0  0
 37 36  1  0  0  0  0
 37 39  1  0  0  0  0
 38 40  2  0  0  0  0
 38 35  1  0  0  0  0
 41 36  2  0  0  0  0
 43 42  1  0  0  0  0
 44 43  1  0  0  0  0
 45 46  1  1  0  0  0
 45 44  1  0  0  0  0
 48 47  1  6  0  0  0
 48 45  1  0  0  0  0
 49 48  1  0  0  0  0
 49 50  1  0  0  0  0
 51 49  2  0  0  0  0
M  END
>  <MODEL>
9

>  <REMARK>
 VINA RESULT:      -3.1      4.164     10.653
  Name = 
  21 active torsions:
  status: ('A' for Active; 'I' for Inactive)
    1  A    between atoms: C_2  and  C_15
    2  A    between atoms: C_2  and  CA_19
    3  A    between atoms: C_4  and  C_37
    4  A    between atoms: C_4  and  C_48
    5  A    between atoms: C_9  and  C_20
    6  A    between atoms: C_9  and  O_41
    7  A    between atoms: C_14  and  CA_19
    8  A    between atoms: C_15  and  C_38
    9  A    between atoms: C_20  and  C_26
   10  A    between atoms: C_20  and  C_47
   11  A    between atoms: O_21  and  C_38
   12  A    between atoms: O_21  and  C_47
   13  A    between atoms: C_30  and  C_33
   14  A    between atoms: C_32  and  C_50
   15  A    between atoms: C_33  and  S_44
   16  A    between atoms: C_39  and  C_47
   17  A    between atoms: C_40  and  O_41
   18  A    between atoms: C_43  and  C_48
   19  A    between atoms: C_43  and  C_51
   20  A    between atoms: S_44  and  N_49
   21  A    between atoms: N_49  and  C_51
                            x       y       z     vdW  Elec       q    Type
                         _______ _______ _______ _____ _____    ______ ____

>  <TORSDO>
F 21

$$$$
