=
 OpenBabel11072411053D

 46 50  0  0  1  0  0  0  0  0999 V2000
  160.7640  209.6920  151.6210 C   0  0  2  0  0  3  0  0  0  0  0  0
  161.0170  211.8730  150.5450 C   0  0  0  0  0  0  0  0  0  0  0  0
  161.0380  211.1690  151.6460 C   0  0  0  0  0  3  0  0  0  0  0  0
  160.9860  212.5830  149.4480 C   0  0  0  0  0  0  0  0  0  0  0  0
  160.2660  213.8140  149.4410 N   0  0  0  0  0  1  0  0  0  0  0  0
  162.9210  212.0930  148.0920 N   0  0  0  0  0  2  0  0  0  0  0  0
  161.6310  212.1080  148.2100 C   0  0  0  0  0  0  0  0  0  0  0  0
  160.8630  211.7030  147.1650 F   0  0  0  0  0  0  0  0  0  0  0  0
  160.4690  209.1430  152.9470 N   0  0  0  0  0  2  0  0  0  0  0  0
  159.6660  207.2010  156.1160 C   0  0  0  0  0  2  0  0  0  0  0  0
  160.4680  207.1010  154.8230 C   0  0  0  0  0  2  0  0  0  0  0  0
  159.1320  208.6160  156.3690 C   0  0  0  0  0  2  0  0  0  0  0  0
  161.6720  208.0500  154.8800 C   0  0  1  0  0  3  0  0  0  0  0  0
  161.6590  209.1390  153.8080 C   0  0  2  0  0  0  0  0  0  0  0  0
  161.2970  209.4790  155.2790 C   0  0  1  0  0  0  0  0  0  0  0  0
  159.7790  209.7060  155.4950 C   0  0  2  0  0  3  0  0  0  0  0  0
  161.9230  210.5170  154.3680 C   0  0  0  0  0  2  0  0  0  0  0  0
  160.0890  211.3140  157.2610 O   0  0  0  0  0  1  0  0  0  0  0  0
  159.4620  211.1020  156.0290 C   0  0  2  0  0  3  0  0  0  0  0  0
  158.0520  211.2540  156.1680 O   0  0  0  0  0  0  0  0  0  0  0  0
  155.6020  213.9460  155.3630 C   0  0  0  0  0  2  0  0  0  0  0  0
  157.5800  212.3050  153.9580 C   0  0  0  0  0  2  0  0  0  0  0  0
  157.3150  212.1920  155.4400 C   0  0  0  0  0  0  0  0  0  0  0  0
  156.9400  213.5450  153.3340 C   0  0  0  0  0  2  0  0  0  0  0  0
  156.3910  212.9050  156.0270 N   0  0  0  0  0  0  0  0  0  0  0  0
  155.5230  213.7050  153.8580 C   0  0  0  0  0  2  0  0  0  0  0  0
  161.8950  208.9260  150.9370 C   0  0  0  0  0  2  0  0  0  0  0  0
  161.3950  207.5960  150.3710 C   0  0  2  0  0  3  0  0  0  0  0  0
  162.9380  206.4130  151.7720 O   0  0  0  0  0  0  0  0  0  0  0  0
  160.8760  205.3770  151.4520 N   0  0  0  0  0  2  0  0  0  0  0  0
  161.7950  206.4450  151.2430 C   0  0  0  0  0  0  0  0  0  0  0  0
  161.2030  204.2920  152.2720 N   0  0  0  0  0  2  0  0  0  0  0  0
  161.2730  203.0050  151.7280 N   0  0  0  0  0  0  0  0  0  0  0  0
  160.7250  202.7510  150.5870 C   0  0  0  0  0  3  0  0  0  0  0  0
  160.7910  201.3800  150.0060 C   0  0  0  0  0  2  0  0  0  0  0  0
  161.5260  200.2790  147.9160 C   0  0  0  0  0  1  0  0  0  0  0  0
  160.7520  201.4520  148.4950 C   0  0  0  0  0  2  0  0  0  0  0  0
  161.8710  207.3660  148.9350 C   0  0  2  0  0  3  0  0  0  0  0  0
  162.0250  208.5790  148.2510 O   0  0  0  0  0  1  0  0  0  0  0  0
  160.9190  206.4530  148.1750 C   0  0  0  0  0  2  0  0  0  0  0  0
  161.7290  205.4260  147.4000 C   0  0  0  0  0  2  0  0  0  0  0  0
  161.5130  203.3150  145.6410 C   0  0  0  0  0  1  0  0  0  0  0  0
  161.7580  205.7570  145.8990 C   0  0  2  0  0  3  0  0  0  0  0  0
  160.4170  206.2420  145.3850 C   0  0  0  0  0  2  0  0  0  0  0  0
  160.4900  205.0490  144.4530 C   0  0  0  0  0  2  0  0  0  0  0  0
  161.7740  204.5950  144.9860 N   0  0  0  0  0  0  0  0  0  0  0  0
  1 27  1  1  0  0  0
  1  3  1  0  0  0  0
  1  9  1  0  0  0  0
  2  3  2  0  0  0  0
  4  2  2  0  0  0  0
  5  4  1  0  0  0  0
  6  7  2  0  0  0  0
  7  4  1  0  0  0  0
  8  7  1  0  0  0  0
 10 12  1  0  0  0  0
 11 10  1  0  0  0  0
 13 11  1  6  0  0  0
 13 15  1  0  0  0  0
 14  9  1  6  0  0  0
 14 17  1  0  0  0  0
 14 13  1  0  0  0  0
 14 15  1  0  0  0  0
 15 17  1  1  0  0  0
 15 16  1  0  0  0  0
 16 19  1  1  0  0  0
 16 12  1  0  0  0  0
 19 20  1  0  0  0  0
 19 18  1  1  0  0  0
 21 25  1  0  0  0  0
 22 23  1  0  0  0  0
 23 25  2  0  0  0  0
 23 20  1  0  0  0  0
 24 26  1  0  0  0  0
 24 22  1  0  0  0  0
 26 21  1  0  0  0  0
 28 27  1  1  0  0  0
 28 31  1  0  0  0  0
 30 32  1  0  0  0  0
 31 30  1  0  0  0  0
 31 29  2  0  0  0  0
 33 32  1  0  0  0  0
 34 33  2  0  0  0  0
 35 34  1  0  0  0  0
 36 37  1  0  0  0  0
 37 35  1  0  0  0  0
 38 39  1  6  0  0  0
 38 28  1  0  0  0  0
 40 38  1  0  0  0  0
 41 40  1  0  0  0  0
 43 41  1  1  0  0  0
 44 43  1  0  0  0  0
 45 46  1  0  0  0  0
 45 44  1  0  0  0  0
 46 42  1  0  0  0  0
 46 43  1  0  0  0  0
M  END
>  <MODEL>
1

>  <REMARK>
 VINA RESULT:      -7.1      0.000      0.000
  Name = 
  18 active torsions:
  status: ('A' for Active; 'I' for Inactive)
    1  A    between atoms: C_3  and  C_8
    2  A    between atoms: C_3  and  C_14
    3  A    between atoms: C_3  and  C_35
    4  A    between atoms: N_7  and  N_20
    5  A    between atoms: N_7  and  N_22
    6  A    between atoms: C_8  and  C_43
    7  A    between atoms: N_12  and  C_19
    8  A    between atoms: N_12  and  C_43
    9  A    between atoms: C_14  and  C_42
   10  A    between atoms: C_15  and  O_32
   11  A    between atoms: C_16  and  C_36
   12  A    between atoms: C_21  and  C_39
   13  A    between atoms: C_23  and  C_43
   14  A    between atoms: O_32  and  C_41
   15  A    between atoms: C_34  and  C_37
   16  A    between atoms: C_36  and  C_42
   17  A    between atoms: C_38  and  C_39
   18  A    between atoms: C_41  and  C_45
                            x       y       z     vdW  Elec       q    Type
                         _______ _______ _______ _____ _____    ______ ____

>  <TORSDO>
F 18

$$$$
=
 OpenBabel11072411053D

 46 50  0  0  1  0  0  0  0  0999 V2000
  160.5230  208.7590  152.5930 C   0  0  2  0  0  3  0  0  0  0  0  0
  161.2880  208.6040  154.9100 C   0  0  0  0  0  0  0  0  0  0  0  0
  161.0640  208.0010  153.7710 C   0  0  0  0  0  3  0  0  0  0  0  0
  161.5030  209.2000  156.0530 C   0  0  0  0  0  0  0  0  0  0  0  0
  161.0310  208.5880  157.2510 N   0  0  0  0  0  1  0  0  0  0  0  0
  161.8440  211.3840  157.0200 N   0  0  0  0  0  2  0  0  0  0  0  0
  162.1710  210.5130  156.1180 C   0  0  0  0  0  0  0  0  0  0  0  0
  163.1250  210.8280  155.2050 F   0  0  0  0  0  0  0  0  0  0  0  0
  160.7000  208.0450  151.3250 N   0  0  0  0  0  2  0  0  0  0  0  0
  161.3590  207.6230  147.6040 C   0  0  0  0  0  2  0  0  0  0  0  0
  161.6900  208.5340  148.7810 C   0  0  0  0  0  2  0  0  0  0  0  0
  160.6960  206.3120  148.0430 C   0  0  0  0  0  2  0  0  0  0  0  0
  162.6530  207.8220  149.7380 C   0  0  1  0  0  3  0  0  0  0  0  0
  162.0890  207.6030  151.1430 C   0  0  2  0  0  0  0  0  0  0  0  0
  162.1820  206.4210  150.1400 C   0  0  1  0  0  0  0  0  0  0  0  0
  160.8080  206.0150  149.5490 C   0  0  2  0  0  3  0  0  0  0  0  0
  162.2730  206.1870  151.6350 C   0  0  0  0  0  2  0  0  0  0  0  0
  160.2780  204.3750  151.2300 O   0  0  0  0  0  1  0  0  0  0  0  0
  160.4420  204.5630  149.8550 C   0  0  2  0  0  3  0  0  0  0  0  0
  161.4620  203.6970  149.3640 O   0  0  0  0  0  0  0  0  0  0  0  0
  161.2720  202.7500  145.7640 C   0  0  0  0  0  2  0  0  0  0  0  0
  161.0190  201.4520  148.3760 C   0  0  0  0  0  2  0  0  0  0  0  0
  161.3090  202.9240  148.2100 C   0  0  0  0  0  0  0  0  0  0  0  0
  161.1650  200.6660  147.0730 C   0  0  0  0  0  2  0  0  0  0  0  0
  161.3680  203.4820  147.0300 N   0  0  0  0  0  0  0  0  0  0  0  0
  160.5130  201.4380  145.9390 C   0  0  0  0  0  2  0  0  0  0  0  0
  161.0990  210.1730  152.5250 C   0  0  0  0  0  2  0  0  0  0  0  0
  160.0550  211.1670  152.0150 C   0  0  2  0  0  3  0  0  0  0  0  0
  160.2480  213.2300  150.8100 O   0  0  0  0  0  0  0  0  0  0  0  0
  161.5300  211.4660  149.9920 N   0  0  0  0  0  2  0  0  0  0  0  0
  160.6080  212.0280  150.9200 C   0  0  0  0  0  0  0  0  0  0  0  0
  162.0840  212.2380  148.9640 N   0  0  0  0  0  2  0  0  0  0  0  0
  161.6200  212.0870  147.6540 N   0  0  0  0  0  0  0  0  0  0  0  0
  160.4380  212.4940  147.3310 C   0  0  0  0  0  3  0  0  0  0  0  0
  159.9370  212.3290  145.9370 C   0  0  0  0  0  2  0  0  0  0  0  0
  157.4680  212.4680  145.8660 C   0  0  0  0  0  1  0  0  0  0  0  0
  158.7590  213.2490  145.6940 C   0  0  0  0  0  2  0  0  0  0  0  0
  159.4900  212.0360  153.1410 C   0  0  2  0  0  3  0  0  0  0  0  0
  160.4140  212.1770  154.1850 O   0  0  0  0  0  1  0  0  0  0  0  0
  158.1810  211.4720  153.6740 C   0  0  0  0  0  2  0  0  0  0  0  0
  158.1120  211.7060  155.1740 C   0  0  0  0  0  2  0  0  0  0  0  0
  155.6410  211.4380  156.3650 C   0  0  0  0  0  1  0  0  0  0  0  0
  157.3470  212.9980  155.5020 C   0  0  2  0  0  3  0  0  0  0  0  0
  157.8270  213.6470  156.7850 C   0  0  0  0  0  2  0  0  0  0  0  0
  156.3990  213.4600  157.2590 C   0  0  0  0  0  2  0  0  0  0  0  0
  155.9730  212.8180  156.0170 N   0  0  0  0  0  0  0  0  0  0  0  0
  1 27  1  6  0  0  0
  1  3  1  0  0  0  0
  2  4  2  0  0  0  0
  3  2  2  0  0  0  0
  4  7  1  0  0  0  0
  4  5  1  0  0  0  0
  7  6  2  0  0  0  0
  8  7  1  0  0  0  0
  9  1  1  0  0  0  0
 10 12  1  0  0  0  0
 10 11  1  0  0  0  0
 12 16  1  0  0  0  0
 13 11  1  6  0  0  0
 13 15  1  0  0  0  0
 13 14  1  0  0  0  0
 14  9  1  1  0  0  0
 14 17  1  0  0  0  0
 15 14  1  0  0  0  0
 15 17  1  1  0  0  0
 16 19  1  6  0  0  0
 16 15  1  0  0  0  0
 19 18  1  1  0  0  0
 20 19  1  0  0  0  0
 21 26  1  0  0  0  0
 21 25  1  0  0  0  0
 23 22  1  0  0  0  0
 23 20  1  0  0  0  0
 24 22  1  0  0  0  0
 25 23  2  0  0  0  0
 26 24  1  0  0  0  0
 28 27  1  1  0  0  0
 28 38  1  0  0  0  0
 29 31  2  0  0  0  0
 30 31  1  0  0  0  0
 31 28  1  0  0  0  0
 32 30  1  0  0  0  0
 33 32  1  0  0  0  0
 34 33  2  0  0  0  0
 35 34  1  0  0  0  0
 37 36  1  0  0  0  0
 37 35  1  0  0  0  0
 38 40  1  0  0  0  0
 38 39  1  1  0  0  0
 40 41  1  0  0  0  0
 43 41  1  1  0  0  0
 43 46  1  0  0  0  0
 43 44  1  0  0  0  0
 44 45  1  0  0  0  0
 46 42  1  0  0  0  0
 46 45  1  0  0  0  0
M  END
>  <MODEL>
2

>  <REMARK>
 VINA RESULT:      -6.1      2.563      9.846
  Name = 
  18 active torsions:
  status: ('A' for Active; 'I' for Inactive)
    1  A    between atoms: C_3  and  C_8
    2  A    between atoms: C_3  and  C_14
    3  A    between atoms: C_3  and  C_35
    4  A    between atoms: N_7  and  N_20
    5  A    between atoms: N_7  and  N_22
    6  A    between atoms: C_8  and  C_43
    7  A    between atoms: N_12  and  C_19
    8  A    between atoms: N_12  and  C_43
    9  A    between atoms: C_14  and  C_42
   10  A    between atoms: C_15  and  O_32
   11  A    between atoms: C_16  and  C_36
   12  A    between atoms: C_21  and  C_39
   13  A    between atoms: C_23  and  C_43
   14  A    between atoms: O_32  and  C_41
   15  A    between atoms: C_34  and  C_37
   16  A    between atoms: C_36  and  C_42
   17  A    between atoms: C_38  and  C_39
   18  A    between atoms: C_41  and  C_45
                            x       y       z     vdW  Elec       q    Type
                         _______ _______ _______ _____ _____    ______ ____

>  <TORSDO>
F 18

$$$$
=
 OpenBabel11072411053D

 46 50  0  0  1  0  0  0  0  0999 V2000
  160.3430  209.9580  152.9520 C   0  0  2  0  0  3  0  0  0  0  0  0
  161.8210  210.7390  154.7360 C   0  0  0  0  0  0  0  0  0  0  0  0
  161.6300  210.5440  153.4580 C   0  0  0  0  0  3  0  0  0  0  0  0
  162.0200  210.9250  156.0150 C   0  0  0  0  0  0  0  0  0  0  0  0
  163.2500  210.4920  156.5930 N   0  0  0  0  0  1  0  0  0  0  0  0
  159.9500  210.8280  157.2500 N   0  0  0  0  0  2  0  0  0  0  0  0
  160.9790  211.5190  156.8730 C   0  0  0  0  0  0  0  0  0  0  0  0
  161.0840  212.8180  157.2570 F   0  0  0  0  0  0  0  0  0  0  0  0
  160.5410  208.7320  152.1730 N   0  0  0  0  0  2  0  0  0  0  0  0
  161.6530  208.2140  148.5740 C   0  0  0  0  0  2  0  0  0  0  0  0
  161.8240  209.1660  149.7530 C   0  0  0  0  0  2  0  0  0  0  0  0
  160.9620  206.9040  148.9700 C   0  0  0  0  0  2  0  0  0  0  0  0
  162.6750  208.5020  150.8410 C   0  0  1  0  0  3  0  0  0  0  0  0
  161.9490  208.3130  152.1740 C   0  0  2  0  0  0  0  0  0  0  0  0
  162.1820  207.1040  151.2260 C   0  0  1  0  0  0  0  0  0  0  0  0
  160.8970  206.6530  150.4880 C   0  0  2  0  0  3  0  0  0  0  0  0
  162.0950  206.9160  152.7290 C   0  0  0  0  0  2  0  0  0  0  0  0
  160.3360  205.0210  152.1670 O   0  0  0  0  0  1  0  0  0  0  0  0
  160.5200  205.2040  150.7930 C   0  0  2  0  0  3  0  0  0  0  0  0
  161.5420  204.3320  150.3180 O   0  0  0  0  0  0  0  0  0  0  0  0
  160.5750  200.8040  149.6000 C   0  0  0  0  0  2  0  0  0  0  0  0
  161.4380  203.1740  148.1130 C   0  0  0  0  0  2  0  0  0  0  0  0
  161.2690  203.1570  149.6140 C   0  0  0  0  0  0  0  0  0  0  0  0
  160.8370  201.9450  147.4330 C   0  0  0  0  0  2  0  0  0  0  0  0
  160.9290  202.0690  150.2510 N   0  0  0  0  0  0  0  0  0  0  0  0
  161.2090  200.6980  148.2160 C   0  0  0  0  0  2  0  0  0  0  0  0
  159.5260  210.9890  152.1750 C   0  0  0  0  0  2  0  0  0  0  0  0
  159.6900  212.3860  152.7770 C   0  0  2  0  0  3  0  0  0  0  0  0
  158.0970  211.6300  154.3990 O   0  0  0  0  0  0  0  0  0  0  0  0
  159.0190  213.7300  154.8030 N   0  0  0  0  0  2  0  0  0  0  0  0
  158.8890  212.5380  154.0340 C   0  0  0  0  0  0  0  0  0  0  0  0
  158.3030  213.9060  155.9920 N   0  0  0  0  0  2  0  0  0  0  0  0
  156.9500  213.5590  156.0470 N   0  0  0  0  0  0  0  0  0  0  0  0
  156.4770  212.9440  157.0790 C   0  0  0  0  0  3  0  0  0  0  0  0
  155.0360  212.5670  157.1390 C   0  0  0  0  0  2  0  0  0  0  0  0
  155.0900  210.4420  155.8740 C   0  0  0  0  0  1  0  0  0  0  0  0
  154.8950  211.0640  157.2460 C   0  0  0  0  0  2  0  0  0  0  0  0
  159.3260  213.4880  151.7790 C   0  0  2  0  0  3  0  0  0  0  0  0
  158.2040  213.1340  151.0180 O   0  0  0  0  0  1  0  0  0  0  0  0
  160.4970  213.8150  150.8630 C   0  0  0  0  0  2  0  0  0  0  0  0
  160.1250  213.4580  149.4330 C   0  0  0  0  0  2  0  0  0  0  0  0
  159.6550  212.5580  146.8710 C   0  0  0  0  0  1  0  0  0  0  0  0
  161.2760  212.7250  148.7240 C   0  0  2  0  0  3  0  0  0  0  0  0
  162.2960  213.6790  148.1360 C   0  0  0  0  0  2  0  0  0  0  0  0
  161.9430  213.0330  146.8110 C   0  0  0  0  0  2  0  0  0  0  0  0
  160.9490  212.1410  147.4060 N   0  0  0  0  0  0  0  0  0  0  0  0
  1 27  1  6  0  0  0
  1  3  1  0  0  0  0
  2  4  2  0  0  0  0
  3  2  2  0  0  0  0
  4  5  1  0  0  0  0
  4  7  1  0  0  0  0
  7  6  2  0  0  0  0
  7  8  1  0  0  0  0
  9  1  1  0  0  0  0
 10 12  1  0  0  0  0
 10 11  1  0  0  0  0
 12 16  1  0  0  0  0
 13 11  1  6  0  0  0
 13 15  1  0  0  0  0
 13 14  1  0  0  0  0
 14  9  1  6  0  0  0
 14 17  1  0  0  0  0
 15 14  1  0  0  0  0
 15 17  1  1  0  0  0
 16 19  1  6  0  0  0
 16 15  1  0  0  0  0
 19 18  1  1  0  0  0
 20 19  1  0  0  0  0
 21 25  1  0  0  0  0
 22 23  1  0  0  0  0
 23 25  2  0  0  0  0
 23 20  1  0  0  0  0
 24 22  1  0  0  0  0
 24 26  1  0  0  0  0
 26 21  1  0  0  0  0
 28 27  1  6  0  0  0
 28 31  1  0  0  0  0
 30 32  1  0  0  0  0
 31 29  2  0  0  0  0
 31 30  1  0  0  0  0
 32 33  1  0  0  0  0
 33 34  2  0  0  0  0
 34 35  1  0  0  0  0
 35 37  1  0  0  0  0
 36 37  1  0  0  0  0
 38 39  1  6  0  0  0
 38 28  1  0  0  0  0
 40 38  1  0  0  0  0
 41 40  1  0  0  0  0
 42 46  1  0  0  0  0
 43 41  1  6  0  0  0
 44 43  1  0  0  0  0
 45 46  1  0  0  0  0
 45 44  1  0  0  0  0
 46 43  1  0  0  0  0
M  END
>  <MODEL>
3

>  <REMARK>
 VINA RESULT:      -5.8      2.862      9.133
  Name = 
  18 active torsions:
  status: ('A' for Active; 'I' for Inactive)
    1  A    between atoms: C_3  and  C_8
    2  A    between atoms: C_3  and  C_14
    3  A    between atoms: C_3  and  C_35
    4  A    between atoms: N_7  and  N_20
    5  A    between atoms: N_7  and  N_22
    6  A    between atoms: C_8  and  C_43
    7  A    between atoms: N_12  and  C_19
    8  A    between atoms: N_12  and  C_43
    9  A    between atoms: C_14  and  C_42
   10  A    between atoms: C_15  and  O_32
   11  A    between atoms: C_16  and  C_36
   12  A    between atoms: C_21  and  C_39
   13  A    between atoms: C_23  and  C_43
   14  A    between atoms: O_32  and  C_41
   15  A    between atoms: C_34  and  C_37
   16  A    between atoms: C_36  and  C_42
   17  A    between atoms: C_38  and  C_39
   18  A    between atoms: C_41  and  C_45
                            x       y       z     vdW  Elec       q    Type
                         _______ _______ _______ _____ _____    ______ ____

>  <TORSDO>
F 18

$$$$
=
 OpenBabel11072411053D

 46 50  0  0  1  0  0  0  0  0999 V2000
  160.6040  210.5720  152.4320 C   0  0  2  0  0  3  0  0  0  0  0  0
  161.4090  210.4550  154.7370 C   0  0  0  0  0  0  0  0  0  0  0  0
  161.5120  210.9940  153.5510 C   0  0  0  0  0  3  0  0  0  0  0  0
  161.3160  209.9110  155.9230 C   0  0  0  0  0  0  0  0  0  0  0  0
  162.5050  209.4660  156.5740 N   0  0  0  0  0  1  0  0  0  0  0  0
  159.4010  210.6630  157.1810 N   0  0  0  0  0  2  0  0  0  0  0  0
  160.0080  209.6980  156.5670 C   0  0  0  0  0  0  0  0  0  0  0  0
  159.4380  208.4650  156.5410 F   0  0  0  0  0  0  0  0  0  0  0  0
  159.5510  211.5520  152.1500 N   0  0  0  0  0  2  0  0  0  0  0  0
  156.6830  213.0900  154.1140 C   0  0  0  0  0  2  0  0  0  0  0  0
  158.0810  212.5100  154.2970 C   0  0  0  0  0  2  0  0  0  0  0  0
  156.3350  213.3370  152.6420 C   0  0  0  0  0  2  0  0  0  0  0  0
  159.1260  213.4770  153.7280 C   0  0  1  0  0  3  0  0  0  0  0  0
  159.9440  212.9030  152.5710 C   0  0  2  0  0  0  0  0  0  0  0  0
  158.8140  213.9330  152.2990 C   0  0  1  0  0  0  0  0  0  0  0  0
  157.5420  213.2940  151.6870 C   0  0  2  0  0  3  0  0  0  0  0  0
  160.0200  213.8360  151.3850 C   0  0  0  0  0  2  0  0  0  0  0  0
  155.8900  214.4010  150.3300 O   0  0  0  0  0  1  0  0  0  0  0  0
  157.1880  213.8800  150.3210 C   0  0  2  0  0  3  0  0  0  0  0  0
  157.3000  212.8700  149.3220 O   0  0  0  0  0  0  0  0  0  0  0  0
  159.7800  213.9970  146.7780 C   0  0  0  0  0  2  0  0  0  0  0  0
  157.2150  212.5870  146.8470 C   0  0  0  0  0  2  0  0  0  0  0  0
  157.9140  213.0900  148.0870 C   0  0  0  0  0  0  0  0  0  0  0  0
  158.1070  212.6210  145.6060 C   0  0  0  0  0  2  0  0  0  0  0  0
  159.0340  213.7580  148.0170 N   0  0  0  0  0  0  0  0  0  0  0  0
  158.8630  213.9370  145.5600 C   0  0  0  0  0  2  0  0  0  0  0  0
  160.0230  209.1800  152.6780 C   0  0  0  0  0  2  0  0  0  0  0  0
  160.6880  208.1390  151.7760 C   0  0  2  0  0  3  0  0  0  0  0  0
  161.7250  207.0720  153.6540 O   0  0  0  0  0  0  0  0  0  0  0  0
  160.8650  205.6370  152.0340 N   0  0  0  0  0  2  0  0  0  0  0  0
  161.1220  206.9360  152.5570 C   0  0  0  0  0  0  0  0  0  0  0  0
  161.2380  204.4870  152.7380 N   0  0  0  0  0  2  0  0  0  0  0  0
  161.5430  203.3130  152.0410 N   0  0  0  0  0  0  0  0  0  0  0  0
  160.6750  202.7870  151.2430 C   0  0  0  0  0  3  0  0  0  0  0  0
  160.9920  201.5320  150.5030 C   0  0  0  0  0  2  0  0  0  0  0  0
  161.2260  200.9440  148.1110 C   0  0  0  0  0  1  0  0  0  0  0  0
  160.2950  201.5290  149.1590 C   0  0  0  0  0  2  0  0  0  0  0  0
  161.8680  208.7230  150.9970 C   0  0  2  0  0  3  0  0  0  0  0  0
  161.4540  209.7550  150.1460 O   0  0  0  0  0  1  0  0  0  0  0  0
  162.5950  207.6480  150.2020 C   0  0  0  0  0  2  0  0  0  0  0  0
  162.1410  207.7100  148.7520 C   0  0  0  0  0  2  0  0  0  0  0  0
  162.1570  206.4320  146.3110 C   0  0  0  0  0  1  0  0  0  0  0  0
  161.0110  206.7050  148.4790 C   0  0  2  0  0  3  0  0  0  0  0  0
  161.2670  205.3550  149.1180 C   0  0  0  0  0  2  0  0  0  0  0  0
  161.1980  204.8170  147.7020 C   0  0  0  0  0  2  0  0  0  0  0  0
  160.9730  206.1370  147.1140 N   0  0  0  0  0  0  0  0  0  0  0  0
  1 27  1  1  0  0  0
  1  3  1  0  0  0  0
  2  4  2  0  0  0  0
  3  2  2  0  0  0  0
  4  7  1  0  0  0  0
  4  5  1  0  0  0  0
  7  6  2  0  0  0  0
  8  7  1  0  0  0  0
  9  1  1  0  0  0  0
 10 11  1  0  0  0  0
 12 10  1  0  0  0  0
 13 11  1  6  0  0  0
 14  9  1  6  0  0  0
 14 13  1  0  0  0  0
 15 17  1  6  0  0  0
 15 14  1  0  0  0  0
 15 13  1  0  0  0  0
 16 19  1  6  0  0  0
 16 15  1  0  0  0  0
 16 12  1  0  0  0  0
 17 14  1  0  0  0  0
 19 18  1  1  0  0  0
 20 19  1  0  0  0  0
 21 25  1  0  0  0  0
 22 23  1  0  0  0  0
 23 20  1  0  0  0  0
 24 22  1  0  0  0  0
 25 23  2  0  0  0  0
 26 24  1  0  0  0  0
 26 21  1  0  0  0  0
 28 31  1  0  0  0  0
 28 27  1  1  0  0  0
 30 31  1  0  0  0  0
 30 32  1  0  0  0  0
 31 29  2  0  0  0  0
 33 32  1  0  0  0  0
 34 33  2  0  0  0  0
 35 34  1  0  0  0  0
 36 37  1  0  0  0  0
 37 35  1  0  0  0  0
 38 39  1  6  0  0  0
 38 28  1  0  0  0  0
 40 38  1  0  0  0  0
 41 40  1  0  0  0  0
 42 46  1  0  0  0  0
 43 41  1  6  0  0  0
 43 44  1  0  0  0  0
 45 44  1  0  0  0  0
 46 45  1  0  0  0  0
 46 43  1  0  0  0  0
M  END
>  <MODEL>
4

>  <REMARK>
 VINA RESULT:      -5.5      2.895      5.492
  Name = 
  18 active torsions:
  status: ('A' for Active; 'I' for Inactive)
    1  A    between atoms: C_3  and  C_8
    2  A    between atoms: C_3  and  C_14
    3  A    between atoms: C_3  and  C_35
    4  A    between atoms: N_7  and  N_20
    5  A    between atoms: N_7  and  N_22
    6  A    between atoms: C_8  and  C_43
    7  A    between atoms: N_12  and  C_19
    8  A    between atoms: N_12  and  C_43
    9  A    between atoms: C_14  and  C_42
   10  A    between atoms: C_15  and  O_32
   11  A    between atoms: C_16  and  C_36
   12  A    between atoms: C_21  and  C_39
   13  A    between atoms: C_23  and  C_43
   14  A    between atoms: O_32  and  C_41
   15  A    between atoms: C_34  and  C_37
   16  A    between atoms: C_36  and  C_42
   17  A    between atoms: C_38  and  C_39
   18  A    between atoms: C_41  and  C_45
                            x       y       z     vdW  Elec       q    Type
                         _______ _______ _______ _____ _____    ______ ____

>  <TORSDO>
F 18

$$$$
=
 OpenBabel11072411053D

 46 50  0  0  1  0  0  0  0  0999 V2000
  161.3040  207.8640  152.7100 C   0  0  2  0  0  3  0  0  0  0  0  0
  161.4910  205.4400  152.4580 C   0  0  0  0  0  0  0  0  0  0  0  0
  161.4770  206.4760  153.2550 C   0  0  0  0  0  3  0  0  0  0  0  0
  161.5170  204.4020  151.6620 C   0  0  0  0  0  0  0  0  0  0  0  0
  162.5460  203.4290  151.8300 N   0  0  0  0  0  1  0  0  0  0  0  0
  160.2750  203.0880  150.0660 N   0  0  0  0  0  2  0  0  0  0  0  0
  160.5420  204.2520  150.5670 C   0  0  0  0  0  0  0  0  0  0  0  0
  159.9320  205.3520  150.0550 F   0  0  0  0  0  0  0  0  0  0  0  0
  160.8530  208.8240  153.7220 N   0  0  0  0  0  2  0  0  0  0  0  0
  159.5150  209.2030  157.2610 C   0  0  0  0  0  2  0  0  0  0  0  0
  160.3950  208.2980  156.4060 C   0  0  0  0  0  2  0  0  0  0  0  0
  159.1780  210.5260  156.5640 C   0  0  0  0  0  2  0  0  0  0  0  0
  161.7180  209.0060  156.0880 C   0  0  1  0  0  3  0  0  0  0  0  0
  161.9550  209.2450  154.5970 C   0  0  2  0  0  0  0  0  0  0  0  0
  161.5290  210.4160  155.5230 C   0  0  1  0  0  0  0  0  0  0  0  0
  160.0500  210.8360  155.3330 C   0  0  2  0  0  3  0  0  0  0  0  0
  162.3750  210.6630  154.2890 C   0  0  0  0  0  2  0  0  0  0  0  0
  160.1570  213.1530  155.9780 O   0  0  0  0  0  1  0  0  0  0  0  0
  159.9020  212.2950  154.9040 C   0  0  2  0  0  3  0  0  0  0  0  0
  158.5860  212.5180  154.4050 O   0  0  0  0  0  0  0  0  0  0  0  0
  156.7760  214.3460  151.7070 C   0  0  0  0  0  2  0  0  0  0  0  0
  159.4740  213.3310  152.2230 C   0  0  0  0  0  2  0  0  0  0  0  0
  158.3330  213.1780  153.2000 C   0  0  0  0  0  0  0  0  0  0  0  0
  159.1610  214.3110  151.0920 C   0  0  0  0  0  2  0  0  0  0  0  0
  157.1300  213.6000  152.9180 N   0  0  0  0  0  0  0  0  0  0  0  0
  157.7570  214.0570  150.5740 C   0  0  0  0  0  2  0  0  0  0  0  0
  160.3930  207.8750  151.4830 C   0  0  0  0  0  2  0  0  0  0  0  0
  161.0660  208.5800  150.3050 C   0  0  2  0  0  3  0  0  0  0  0  0
  163.0190  207.2060  150.1020 O   0  0  0  0  0  0  0  0  0  0  0  0
  161.6540  207.2930  148.2170 N   0  0  0  0  0  2  0  0  0  0  0  0
  161.9740  207.6510  149.5580 C   0  0  0  0  0  0  0  0  0  0  0  0
  162.4650  206.4160  147.4880 N   0  0  0  0  0  2  0  0  0  0  0  0
  161.9000  205.6060  146.4990 N   0  0  0  0  0  0  0  0  0  0  0  0
  162.0000  204.3200  146.5740 C   0  0  0  0  0  3  0  0  0  0  0  0
  161.4050  203.4530  145.5190 C   0  0  0  0  0  2  0  0  0  0  0  0
  160.0380  201.4340  145.0970 C   0  0  0  0  0  1  0  0  0  0  0  0
  160.8570  202.1840  146.1350 C   0  0  0  0  0  2  0  0  0  0  0  0
  161.8290  209.8310  150.7430 C   0  0  2  0  0  3  0  0  0  0  0  0
  160.9970  210.7130  151.4450 O   0  0  0  0  0  1  0  0  0  0  0  0
  162.4600  210.5420  149.5530 C   0  0  0  0  0  2  0  0  0  0  0  0
  161.7060  211.8360  149.2900 C   0  0  0  0  0  2  0  0  0  0  0  0
  160.4400  212.0970  146.8560 C   0  0  0  0  0  1  0  0  0  0  0  0
  162.4110  212.6830  148.2190 C   0  0  2  0  0  3  0  0  0  0  0  0
  162.1960  214.1700  148.4210 C   0  0  0  0  0  2  0  0  0  0  0  0
  161.5710  214.1340  147.0410 C   0  0  0  0  0  2  0  0  0  0  0  0
  161.7730  212.6950  146.8860 N   0  0  0  0  0  0  0  0  0  0  0  0
  1 27  1  6  0  0  0
  1  3  1  0  0  0  0
  1  9  1  0  0  0  0
  2  3  2  0  0  0  0
  4  5  1  0  0  0  0
  4  2  2  0  0  0  0
  6  7  2  0  0  0  0
  7  4  1  0  0  0  0
  8  7  1  0  0  0  0
 11 10  1  0  0  0  0
 12 10  1  0  0  0  0
 13 11  1  6  0  0  0
 14  9  1  6  0  0  0
 14 15  1  0  0  0  0
 14 13  1  0  0  0  0
 15 17  1  1  0  0  0
 15 13  1  0  0  0  0
 16 19  1  1  0  0  0
 16 15  1  0  0  0  0
 16 12  1  0  0  0  0
 17 14  1  0  0  0  0
 19 18  1  1  0  0  0
 20 19  1  0  0  0  0
 21 25  1  0  0  0  0
 22 23  1  0  0  0  0
 23 20  1  0  0  0  0
 24 22  1  0  0  0  0
 25 23  2  0  0  0  0
 26 24  1  0  0  0  0
 26 21  1  0  0  0  0
 28 38  1  0  0  0  0
 28 27  1  1  0  0  0
 30 31  1  0  0  0  0
 31 29  2  0  0  0  0
 31 28  1  0  0  0  0
 32 30  1  0  0  0  0
 33 34  2  0  0  0  0
 33 32  1  0  0  0  0
 35 37  1  0  0  0  0
 35 34  1  0  0  0  0
 36 37  1  0  0  0  0
 38 39  1  6  0  0  0
 40 38  1  0  0  0  0
 41 40  1  0  0  0  0
 42 46  1  0  0  0  0
 43 44  1  0  0  0  0
 43 41  1  1  0  0  0
 45 44  1  0  0  0  0
 46 45  1  0  0  0  0
 46 43  1  0  0  0  0
M  END
>  <MODEL>
5

>  <REMARK>
 VINA RESULT:      -5.4      2.181      5.081
  Name = 
  18 active torsions:
  status: ('A' for Active; 'I' for Inactive)
    1  A    between atoms: C_3  and  C_8
    2  A    between atoms: C_3  and  C_14
    3  A    between atoms: C_3  and  C_35
    4  A    between atoms: N_7  and  N_20
    5  A    between atoms: N_7  and  N_22
    6  A    between atoms: C_8  and  C_43
    7  A    between atoms: N_12  and  C_19
    8  A    between atoms: N_12  and  C_43
    9  A    between atoms: C_14  and  C_42
   10  A    between atoms: C_15  and  O_32
   11  A    between atoms: C_16  and  C_36
   12  A    between atoms: C_21  and  C_39
   13  A    between atoms: C_23  and  C_43
   14  A    between atoms: O_32  and  C_41
   15  A    between atoms: C_34  and  C_37
   16  A    between atoms: C_36  and  C_42
   17  A    between atoms: C_38  and  C_39
   18  A    between atoms: C_41  and  C_45
                            x       y       z     vdW  Elec       q    Type
                         _______ _______ _______ _____ _____    ______ ____

>  <TORSDO>
F 18

$$$$
=
 OpenBabel11072411053D

 46 50  0  0  1  0  0  0  0  0999 V2000
  162.8230  206.8740  149.6680 C   0  0  2  0  0  3  0  0  0  0  0  0
  161.9490  206.8790  147.3840 C   0  0  0  0  0  0  0  0  0  0  0  0
  162.3360  207.5660  148.4270 C   0  0  0  0  0  3  0  0  0  0  0  0
  161.5510  206.1960  146.3430 C   0  0  0  0  0  0  0  0  0  0  0  0
  160.3190  206.5470  145.7160 N   0  0  0  0  0  1  0  0  0  0  0  0
  163.4550  204.7140  146.3790 N   0  0  0  0  0  2  0  0  0  0  0  0
  162.3200  205.0400  145.8460 C   0  0  0  0  0  0  0  0  0  0  0  0
  161.8470  204.3200  144.7960 F   0  0  0  0  0  0  0  0  0  0  0  0
  162.1680  205.5820  149.8960 N   0  0  0  0  0  2  0  0  0  0  0  0
  161.5240  202.8140  152.4200 C   0  0  0  0  0  2  0  0  0  0  0  0
  161.7930  204.3120  152.3320 C   0  0  0  0  0  2  0  0  0  0  0  0
  161.2070  202.1900  151.0560 C   0  0  0  0  0  2  0  0  0  0  0  0
  160.5620  205.0300  151.7660 C   0  0  1  0  0  3  0  0  0  0  0  0
  160.8150  205.7520  150.4420 C   0  0  2  0  0  0  0  0  0  0  0  0
  160.0400  204.4060  150.4690 C   0  0  1  0  0  0  0  0  0  0  0  0
  160.8790  203.2110  149.9510 C   0  0  2  0  0  3  0  0  0  0  0  0
  159.7690  205.4440  149.3970 C   0  0  0  0  0  2  0  0  0  0  0  0
  159.4960  201.4180  149.1340 O   0  0  0  0  0  1  0  0  0  0  0  0
  160.2470  202.5290  148.7390 C   0  0  2  0  0  3  0  0  0  0  0  0
  161.2670  202.1270  147.8280 O   0  0  0  0  0  0  0  0  0  0  0  0
  160.0810  200.7410  144.5770 C   0  0  0  0  0  2  0  0  0  0  0  0
  161.5800  199.8270  146.9210 C   0  0  0  0  0  2  0  0  0  0  0  0
  161.0380  201.2300  146.7820 C   0  0  0  0  0  0  0  0  0  0  0  0
  161.5280  199.0380  145.6120 C   0  0  0  0  0  2  0  0  0  0  0  0
  160.3320  201.5910  145.7440 N   0  0  0  0  0  0  0  0  0  0  0  0
  160.1860  199.2620  144.9370 C   0  0  0  0  0  2  0  0  0  0  0  0
  162.7160  207.7800  150.8920 C   0  0  0  0  0  2  0  0  0  0  0  0
  161.6260  208.8360  150.7010 C   0  0  2  0  0  3  0  0  0  0  0  0
  163.0490  210.7020  151.1880 O   0  0  0  0  0  0  0  0  0  0  0  0
  161.8020  210.8760  149.2280 N   0  0  0  0  0  0  0  0  0  0  0  0
  162.2140  210.1820  150.4020 C   0  0  0  0  0  0  0  0  0  0  0  0
  162.3370  212.1270  148.9020 N   0  0  0  0  0  0  0  0  0  0  0  0
  161.8590  212.8180  147.7850 N   0  0  0  0  0  0  0  0  0  0  0  0
  160.7600  212.4530  147.2150 C   0  0  0  0  0  3  0  0  0  0  0  0
  160.2490  213.1830  146.0200 C   0  0  0  0  0  2  0  0  0  0  0  0
  160.3610  212.4400  143.6630 C   0  0  0  0  0  1  0  0  0  0  0  0
  159.6950  212.2030  145.0080 C   0  0  0  0  0  2  0  0  0  0  0  0
  160.6890  208.9210  151.9080 C   0  0  2  0  0  3  0  0  0  0  0  0
  160.2400  210.2330  152.1110 O   0  0  0  0  0  1  0  0  0  0  0  0
  161.3610  208.3970  153.1700 C   0  0  0  0  0  2  0  0  0  0  0  0
  160.2930  208.0540  154.1950 C   0  0  0  0  0  2  0  0  0  0  0  0
  160.0830  206.9530  156.7130 C   0  0  0  0  0  1  0  0  0  0  0  0
  160.3370  209.0210  155.3900 C   0  0  2  0  0  3  0  0  0  0  0  0
  161.7500  209.4300  155.7540 C   0  0  0  0  0  2  0  0  0  0  0  0
  161.4410  208.8160  157.1040 C   0  0  0  0  0  2  0  0  0  0  0  0
  160.0900  208.4150  156.7160 N   0  0  0  0  0  0  0  0  0  0  0  0
  1  3  1  6  0  0  0
  1  9  1  0  0  0  0
  1 27  1  0  0  0  0
  2  3  2  0  0  0  0
  4  2  2  0  0  0  0
  5  4  1  0  0  0  0
  7  4  1  0  0  0  0
  7  6  2  0  0  0  0
  8  7  1  0  0  0  0
 11 10  1  0  0  0  0
 12 10  1  0  0  0  0
 13 11  1  6  0  0  0
 14  9  1  6  0  0  0
 14 15  1  0  0  0  0
 14 13  1  0  0  0  0
 15 17  1  6  0  0  0
 15 13  1  0  0  0  0
 16 19  1  6  0  0  0
 16 15  1  0  0  0  0
 16 12  1  0  0  0  0
 17 14  1  0  0  0  0
 19 18  1  1  0  0  0
 20 19  1  0  0  0  0
 21 26  1  0  0  0  0
 21 25  1  0  0  0  0
 23 22  1  0  0  0  0
 23 20  1  0  0  0  0
 24 22  1  0  0  0  0
 25 23  2  0  0  0  0
 26 24  1  0  0  0  0
 28 27  1  1  0  0  0
 28 38  1  0  0  0  0
 30 31  1  0  0  0  0
 31 28  1  0  0  0  0
 31 29  2  0  0  0  0
 32 30  2  0  0  0  0
 33 32  1  0  0  0  0
 34 33  2  0  0  0  0
 35 34  1  0  0  0  0
 36 37  1  0  0  0  0
 37 35  1  0  0  0  0
 38 39  1  1  0  0  0
 38 40  1  0  0  0  0
 40 41  1  0  0  0  0
 42 46  1  0  0  0  0
 43 41  1  6  0  0  0
 43 44  1  0  0  0  0
 43 46  1  0  0  0  0
 44 45  1  0  0  0  0
 46 45  1  0  0  0  0
M  END
>  <MODEL>
6

>  <REMARK>
 VINA RESULT:      -5.1      3.152      9.795
  Name = 
  18 active torsions:
  status: ('A' for Active; 'I' for Inactive)
    1  A    between atoms: C_3  and  C_8
    2  A    between atoms: C_3  and  C_14
    3  A    between atoms: C_3  and  C_35
    4  A    between atoms: N_7  and  N_20
    5  A    between atoms: N_7  and  N_22
    6  A    between atoms: C_8  and  C_43
    7  A    between atoms: N_12  and  C_19
    8  A    between atoms: N_12  and  C_43
    9  A    between atoms: C_14  and  C_42
   10  A    between atoms: C_15  and  O_32
   11  A    between atoms: C_16  and  C_36
   12  A    between atoms: C_21  and  C_39
   13  A    between atoms: C_23  and  C_43
   14  A    between atoms: O_32  and  C_41
   15  A    between atoms: C_34  and  C_37
   16  A    between atoms: C_36  and  C_42
   17  A    between atoms: C_38  and  C_39
   18  A    between atoms: C_41  and  C_45
                            x       y       z     vdW  Elec       q    Type
                         _______ _______ _______ _____ _____    ______ ____

>  <TORSDO>
F 18

$$$$
=
 OpenBabel11072411053D

 46 50  0  0  1  0  0  0  0  0999 V2000
  161.2330  205.7530  149.2530 C   0  0  2  0  0  3  0  0  0  0  0  0
  160.9240  203.3420  149.5090 C   0  0  0  0  0  0  0  0  0  0  0  0
  161.2120  204.3480  148.7250 C   0  0  0  0  0  3  0  0  0  0  0  0
  160.6260  202.3340  150.2870 C   0  0  0  0  0  0  0  0  0  0  0  0
  159.6810  201.3660  149.8330 N   0  0  0  0  0  1  0  0  0  0  0  0
  162.3890  201.7280  151.8180 N   0  0  0  0  0  2  0  0  0  0  0  0
  161.2020  202.2130  151.6390 C   0  0  0  0  0  0  0  0  0  0  0  0
  160.4690  202.5920  152.7180 F   0  0  0  0  0  0  0  0  0  0  0  0
  161.0780  205.8190  150.7100 N   0  0  0  0  0  2  0  0  0  0  0  0
  160.4570  206.2430  154.4360 C   0  0  0  0  0  2  0  0  0  0  0  0
  160.9960  205.2420  153.4210 C   0  0  0  0  0  2  0  0  0  0  0  0
  160.2580  207.6410  153.8380 C   0  0  0  0  0  2  0  0  0  0  0  0
  162.3530  205.7180  152.8880 C   0  0  1  0  0  3  0  0  0  0  0  0
  162.3730  205.9900  151.3830 C   0  0  2  0  0  0  0  0  0  0  0  0
  162.3350  207.1670  152.3950 C   0  0  1  0  0  0  0  0  0  0  0  0
  160.9490  207.8540  152.4780 C   0  0  2  0  0  3  0  0  0  0  0  0
  162.9890  207.3240  151.0360 C   0  0  0  0  0  2  0  0  0  0  0  0
  162.3270  209.7820  152.0530 O   0  0  0  0  0  1  0  0  0  0  0  0
  161.0030  209.3370  152.1130 C   0  0  2  0  0  3  0  0  0  0  0  0
  160.2780  210.0960  153.0780 O   0  0  0  0  0  0  0  0  0  0  0  0
  157.7420  212.8260  153.1670 C   0  0  0  0  0  2  0  0  0  0  0  0
  160.1330  212.1210  151.6310 C   0  0  0  0  0  2  0  0  0  0  0  0
  159.5960  211.2730  152.7590 C   0  0  0  0  0  0  0  0  0  0  0  0
  159.4910  213.5060  151.5710 C   0  0  0  0  0  2  0  0  0  0  0  0
  158.4990  211.5920  153.3930 N   0  0  0  0  0  0  0  0  0  0  0  0
  157.9900  213.3790  151.7660 C   0  0  0  0  0  2  0  0  0  0  0  0
  160.2090  206.6340  148.5410 C   0  0  0  0  0  2  0  0  0  0  0  0
  160.8320  207.3340  147.3320 C   0  0  2  0  0  3  0  0  0  0  0  0
  162.4780  206.1080  146.0950 O   0  0  0  0  0  0  0  0  0  0  0  0
  160.2640  205.6980  145.4980 N   0  0  0  0  0  2  0  0  0  0  0  0
  161.2570  206.3470  146.2870 C   0  0  0  0  0  0  0  0  0  0  0  0
  160.6160  204.7580  144.5240 N   0  0  0  0  0  2  0  0  0  0  0  0
  160.8320  203.4260  144.8880 N   0  0  0  0  0  0  0  0  0  0  0  0
  159.8580  202.5780  144.8650 C   0  0  0  0  0  3  0  0  0  0  0  0
  160.0830  201.1580  145.2590 C   0  0  0  0  0  2  0  0  0  0  0  0
  161.5720  199.7690  146.6630 C   0  0  0  0  0  1  0  0  0  0  0  0
  160.8350  201.0940  146.5710 C   0  0  0  0  0  2  0  0  0  0  0  0
  162.0080  208.2290  147.7280 C   0  0  2  0  0  3  0  0  0  0  0  0
  163.0590  207.4760  148.2700 O   0  0  0  0  0  1  0  0  0  0  0  0
  161.5770  209.3090  148.7110 C   0  0  0  0  0  2  0  0  0  0  0  0
  162.3880  210.5680  148.4510 C   0  0  0  0  0  2  0  0  0  0  0  0
  163.5940  212.9810  147.8860 C   0  0  0  0  0  1  0  0  0  0  0  0
  161.4880  211.8150  148.4280 C   0  0  2  0  0  3  0  0  0  0  0  0
  160.7290  211.9590  147.1240 C   0  0  0  0  0  2  0  0  0  0  0  0
  161.4520  213.2850  147.0010 C   0  0  0  0  0  2  0  0  0  0  0  0
  162.1850  213.1070  148.2530 N   0  0  0  0  0  0  0  0  0  0  0  0
  1 27  1  6  0  0  0
  1  9  1  0  0  0  0
  2  4  2  0  0  0  0
  3  1  1  0  0  0  0
  3  2  2  0  0  0  0
  4  7  1  0  0  0  0
  5  4  1  0  0  0  0
  7  6  2  0  0  0  0
  7  8  1  0  0  0  0
 11 10  1  0  0  0  0
 12 10  1  0  0  0  0
 13 11  1  6  0  0  0
 14  9  1  6  0  0  0
 14 15  1  0  0  0  0
 14 13  1  0  0  0  0
 15 17  1  1  0  0  0
 15 16  1  0  0  0  0
 15 13  1  0  0  0  0
 16 19  1  1  0  0  0
 16 12  1  0  0  0  0
 17 14  1  0  0  0  0
 19 18  1  1  0  0  0
 19 20  1  0  0  0  0
 21 25  1  0  0  0  0
 22 23  1  0  0  0  0
 23 20  1  0  0  0  0
 23 25  2  0  0  0  0
 24 22  1  0  0  0  0
 24 26  1  0  0  0  0
 26 21  1  0  0  0  0
 28 38  1  0  0  0  0
 28 27  1  1  0  0  0
 29 31  2  0  0  0  0
 30 31  1  0  0  0  0
 31 28  1  0  0  0  0
 32 33  1  0  0  0  0
 32 30  1  0  0  0  0
 34 33  2  0  0  0  0
 34 35  1  0  0  0  0
 35 37  1  0  0  0  0
 37 36  1  0  0  0  0
 38 39  1  1  0  0  0
 38 40  1  0  0  0  0
 41 40  1  0  0  0  0
 42 46  1  0  0  0  0
 43 41  1  6  0  0  0
 44 43  1  0  0  0  0
 45 44  1  0  0  0  0
 45 46  1  0  0  0  0
 46 43  1  0  0  0  0
M  END
>  <MODEL>
7

>  <REMARK>
 VINA RESULT:      -4.7      2.623      6.040
  Name = 
  18 active torsions:
  status: ('A' for Active; 'I' for Inactive)
    1  A    between atoms: C_3  and  C_8
    2  A    between atoms: C_3  and  C_14
    3  A    between atoms: C_3  and  C_35
    4  A    between atoms: N_7  and  N_20
    5  A    between atoms: N_7  and  N_22
    6  A    between atoms: C_8  and  C_43
    7  A    between atoms: N_12  and  C_19
    8  A    between atoms: N_12  and  C_43
    9  A    between atoms: C_14  and  C_42
   10  A    between atoms: C_15  and  O_32
   11  A    between atoms: C_16  and  C_36
   12  A    between atoms: C_21  and  C_39
   13  A    between atoms: C_23  and  C_43
   14  A    between atoms: O_32  and  C_41
   15  A    between atoms: C_34  and  C_37
   16  A    between atoms: C_36  and  C_42
   17  A    between atoms: C_38  and  C_39
   18  A    between atoms: C_41  and  C_45
                            x       y       z     vdW  Elec       q    Type
                         _______ _______ _______ _____ _____    ______ ____

>  <TORSDO>
F 18

$$$$
=
 OpenBabel11072411053D

 46 50  0  0  1  0  0  0  0  0999 V2000
  160.7530  208.2640  152.3860 C   0  0  2  0  0  3  0  0  0  0  0  0
  160.7390  207.3060  154.6350 C   0  0  0  0  0  0  0  0  0  0  0  0
  160.8320  207.1120  153.3460 C   0  0  0  0  0  3  0  0  0  0  0  0
  160.6350  207.4940  155.9250 C   0  0  0  0  0  0  0  0  0  0  0  0
  159.7620  206.6550  156.6780 N   0  0  0  0  0  1  0  0  0  0  0  0
  160.7170  209.5050  157.2560 N   0  0  0  0  0  2  0  0  0  0  0  0
  161.3560  208.5890  156.5990 C   0  0  0  0  0  0  0  0  0  0  0  0
  162.7100  208.6570  156.5120 F   0  0  0  0  0  0  0  0  0  0  0  0
  160.0050  209.4050  152.9230 N   0  0  0  0  0  2  0  0  0  0  0  0
  157.9140  212.3120  154.1990 C   0  0  0  0  0  2  0  0  0  0  0  0
  158.4950  210.9740  154.6400 C   0  0  0  0  0  2  0  0  0  0  0  0
  158.4880  212.7920  152.8610 C   0  0  0  0  0  2  0  0  0  0  0  0
  160.0150  211.0930  154.8020 C   0  0  1  0  0  3  0  0  0  0  0  0
  160.8160  210.1860  153.8670 C   0  0  2  0  0  0  0  0  0  0  0  0
  160.7070  211.7090  153.5830 C   0  0  1  0  0  0  0  0  0  0  0  0
  159.7550  212.0430  152.4070 C   0  0  2  0  0  3  0  0  0  0  0  0
  161.9250  210.9170  153.1470 C   0  0  0  0  0  2  0  0  0  0  0  0
  159.9420  214.0750  151.1310 O   0  0  0  0  0  1  0  0  0  0  0  0
  160.4580  212.7840  151.2710 C   0  0  2  0  0  3  0  0  0  0  0  0
  160.2980  212.0610  150.0540 O   0  0  0  0  0  0  0  0  0  0  0  0
  160.4530  213.4850  146.6130 C   0  0  0  0  0  2  0  0  0  0  0  0
  162.3000  212.4040  148.6110 C   0  0  0  0  0  2  0  0  0  0  0  0
  160.8110  212.5070  148.8330 C   0  0  0  0  0  0  0  0  0  0  0  0
  162.7730  213.1820  147.3820 C   0  0  0  0  0  2  0  0  0  0  0  0
  160.0080  212.9500  147.9030 N   0  0  0  0  0  0  0  0  0  0  0  0
  161.8210  212.9320  146.2250 C   0  0  0  0  0  2  0  0  0  0  0  0
  160.2060  207.8250  151.0290 C   0  0  0  0  0  2  0  0  0  0  0  0
  161.2330  206.9860  150.2670 C   0  0  2  0  0  3  0  0  0  0  0  0
  162.8750  205.9110  151.6420 O   0  0  0  0  0  0  0  0  0  0  0  0
  160.9290  204.6890  151.2630 N   0  0  0  0  0  2  0  0  0  0  0  0
  161.7390  205.8500  151.1030 C   0  0  0  0  0  0  0  0  0  0  0  0
  161.3550  203.6120  152.0470 N   0  0  0  0  0  2  0  0  0  0  0  0
  161.5200  202.3510  151.4660 N   0  0  0  0  0  0  0  0  0  0  0  0
  160.7130  201.9500  150.5410 C   0  0  0  0  0  3  0  0  0  0  0  0
  160.8810  200.6040  149.9230 C   0  0  0  0  0  2  0  0  0  0  0  0
  161.0990  202.2070  148.0520 C   0  0  0  0  0  1  0  0  0  0  0  0
  161.1850  200.7420  148.4470 C   0  0  0  0  0  2  0  0  0  0  0  0
  162.4010  207.8320  149.7560 C   0  0  2  0  0  3  0  0  0  0  0  0
  162.0590  209.1890  149.7000 O   0  0  0  0  0  1  0  0  0  0  0  0
  162.8760  207.3550  148.3910 C   0  0  0  0  0  2  0  0  0  0  0  0
  161.6700  206.9530  147.5580 C   0  0  0  0  0  2  0  0  0  0  0  0
  160.4410  206.1970  145.2100 C   0  0  0  0  0  1  0  0  0  0  0  0
  161.7210  205.4620  147.1870 C   0  0  2  0  0  3  0  0  0  0  0  0
  163.0400  205.0660  146.5520 C   0  0  0  0  0  2  0  0  0  0  0  0
  162.1950  204.6590  145.3620 C   0  0  0  0  0  2  0  0  0  0  0  0
  160.9420  205.0700  145.9940 N   0  0  0  0  0  0  0  0  0  0  0  0
  1 27  1  6  0  0  0
  1  9  1  0  0  0  0
  1  3  1  0  0  0  0
  2  4  2  0  0  0  0
  3  2  2  0  0  0  0
  4  7  1  0  0  0  0
  4  5  1  0  0  0  0
  7  6  2  0  0  0  0
  8  7  1  0  0  0  0
 10 11  1  0  0  0  0
 12 10  1  0  0  0  0
 13 11  1  6  0  0  0
 14  9  1  6  0  0  0
 14 13  1  0  0  0  0
 15 17  1  1  0  0  0
 15 14  1  0  0  0  0
 15 13  1  0  0  0  0
 16 19  1  6  0  0  0
 16 12  1  0  0  0  0
 16 15  1  0  0  0  0
 17 14  1  0  0  0  0
 19 18  1  6  0  0  0
 20 19  1  0  0  0  0
 21 25  1  0  0  0  0
 22 23  1  0  0  0  0
 23 20  1  0  0  0  0
 24 22  1  0  0  0  0
 25 23  2  0  0  0  0
 26 21  1  0  0  0  0
 26 24  1  0  0  0  0
 28 27  1  1  0  0  0
 28 31  1  0  0  0  0
 30 32  1  0  0  0  0
 31 30  1  0  0  0  0
 31 29  2  0  0  0  0
 33 32  1  0  0  0  0
 34 33  2  0  0  0  0
 35 34  1  0  0  0  0
 36 37  1  0  0  0  0
 37 35  1  0  0  0  0
 38 39  1  6  0  0  0
 38 28  1  0  0  0  0
 40 38  1  0  0  0  0
 41 40  1  0  0  0  0
 42 46  1  0  0  0  0
 43 41  1  6  0  0  0
 44 43  1  0  0  0  0
 45 46  1  0  0  0  0
 45 44  1  0  0  0  0
 46 43  1  0  0  0  0
M  END
>  <MODEL>
8

>  <REMARK>
 VINA RESULT:      -4.5      2.532      5.213
  Name = 
  18 active torsions:
  status: ('A' for Active; 'I' for Inactive)
    1  A    between atoms: C_3  and  C_8
    2  A    between atoms: C_3  and  C_14
    3  A    between atoms: C_3  and  C_35
    4  A    between atoms: N_7  and  N_20
    5  A    between atoms: N_7  and  N_22
    6  A    between atoms: C_8  and  C_43
    7  A    between atoms: N_12  and  C_19
    8  A    between atoms: N_12  and  C_43
    9  A    between atoms: C_14  and  C_42
   10  A    between atoms: C_15  and  O_32
   11  A    between atoms: C_16  and  C_36
   12  A    between atoms: C_21  and  C_39
   13  A    between atoms: C_23  and  C_43
   14  A    between atoms: O_32  and  C_41
   15  A    between atoms: C_34  and  C_37
   16  A    between atoms: C_36  and  C_42
   17  A    between atoms: C_38  and  C_39
   18  A    between atoms: C_41  and  C_45
                            x       y       z     vdW  Elec       q    Type
                         _______ _______ _______ _____ _____    ______ ____

>  <TORSDO>
F 18

$$$$
=
 OpenBabel11072411053D

 46 50  0  0  1  0  0  0  0  0999 V2000
  160.7900  208.5980  152.6730 C   0  0  2  0  0  3  0  0  0  0  0  0
  160.7520  207.6170  154.9110 C   0  0  0  0  0  0  0  0  0  0  0  0
  160.8370  207.4340  153.6200 C   0  0  0  0  0  3  0  0  0  0  0  0
  160.6570  207.7940  156.2030 C   0  0  0  0  0  0  0  0  0  0  0  0
  159.7610  206.9730  156.9490 N   0  0  0  0  0  1  0  0  0  0  0  0
  160.8720  210.0140  157.1240 N   0  0  0  0  0  2  0  0  0  0  0  0
  161.4110  208.8600  156.8880 C   0  0  0  0  0  0  0  0  0  0  0  0
  162.7000  208.6410  157.2550 F   0  0  0  0  0  0  0  0  0  0  0  0
  160.9760  208.2050  151.2730 N   0  0  0  0  0  2  0  0  0  0  0  0
  161.1880  206.9150  147.7030 C   0  0  0  0  0  2  0  0  0  0  0  0
  161.6070  208.0930  148.5750 C   0  0  0  0  0  2  0  0  0  0  0  0
  160.6670  205.7300  148.5250 C   0  0  0  0  0  2  0  0  0  0  0  0
  162.7240  207.6630  149.5330 C   0  0  1  0  0  3  0  0  0  0  0  0
  162.3560  207.7740  151.0120 C   0  0  2  0  0  0  0  0  0  0  0  0
  162.3950  206.3880  150.3130 C   0  0  1  0  0  0  0  0  0  0  0  0
  160.9860  205.8100  150.0290 C   0  0  2  0  0  3  0  0  0  0  0  0
  162.6880  206.5250  151.7950 C   0  0  0  0  0  2  0  0  0  0  0  0
  161.9690  203.8450  151.0150 O   0  0  0  0  0  1  0  0  0  0  0  0
  160.7520  204.4650  150.7150 C   0  0  2  0  0  3  0  0  0  0  0  0
  159.9740  203.6230  149.8690 O   0  0  0  0  0  0  0  0  0  0  0  0
  161.4230  201.8020  146.9570 C   0  0  0  0  0  2  0  0  0  0  0  0
  160.7580  201.2590  149.7560 C   0  0  0  0  0  2  0  0  0  0  0  0
  160.5310  202.5990  149.0980 C   0  0  0  0  0  0  0  0  0  0  0  0
  161.6300  200.3250  148.9170 C   0  0  0  0  0  2  0  0  0  0  0  0
  160.7940  202.7940  147.8340 N   0  0  0  0  0  0  0  0  0  0  0  0
  161.1860  200.3830  147.4660 C   0  0  0  0  0  2  0  0  0  0  0  0
  161.7740  209.6930  153.0830 C   0  0  0  0  0  2  0  0  0  0  0  0
  161.1050  211.0680  153.0680 C   0  0  2  0  0  3  0  0  0  0  0  0
  159.1020  210.4330  154.2210 O   0  0  0  0  0  0  0  0  0  0  0  0
  160.2760  212.2150  155.1560 N   0  0  0  0  0  2  0  0  0  0  0  0
  160.1010  211.1990  154.1720 C   0  0  0  0  0  0  0  0  0  0  0  0
  159.3720  212.3620  156.2130 N   0  0  0  0  0  2  0  0  0  0  0  0
  158.0140  212.0970  156.0090 N   0  0  0  0  0  0  0  0  0  0  0  0
  157.1640  213.0670  155.9430 C   0  0  0  0  0  3  0  0  0  0  0  0
  155.7150  212.7890  155.7330 C   0  0  0  0  0  2  0  0  0  0  0  0
  155.2670  210.3570  155.6400 C   0  0  0  0  0  1  0  0  0  0  0  0
  155.2940  211.5800  156.5410 C   0  0  0  0  0  2  0  0  0  0  0  0
  160.4550  211.3770  151.7180 C   0  0  2  0  0  3  0  0  0  0  0  0
  161.4200  211.5630  150.7200 O   0  0  0  0  0  1  0  0  0  0  0  0
  159.5480  212.5970  151.8040 C   0  0  0  0  0  2  0  0  0  0  0  0
  159.9100  213.5650  150.6890 C   0  0  0  0  0  2  0  0  0  0  0  0
  159.4730  213.3070  147.9810 C   0  0  0  0  0  1  0  0  0  0  0  0
  158.6570  214.2440  150.1130 C   0  0  2  0  0  3  0  0  0  0  0  0
  157.4010  213.4250  150.3310 C   0  0  0  0  0  2  0  0  0  0  0  0
  157.2940  213.4260  148.8190 C   0  0  0  0  0  2  0  0  0  0  0  0
  158.5220  214.1990  148.6410 N   0  0  0  0  0  0  0  0  0  0  0  0
  1 27  1  1  0  0  0
  1  3  1  0  0  0  0
  2  4  2  0  0  0  0
  3  2  2  0  0  0  0
  4  7  1  0  0  0  0
  4  5  1  0  0  0  0
  7  6  2  0  0  0  0
  7  8  1  0  0  0  0
  9  1  1  0  0  0  0
 10 12  1  0  0  0  0
 10 11  1  0  0  0  0
 12 16  1  0  0  0  0
 13 11  1  6  0  0  0
 13 15  1  0  0  0  0
 13 14  1  0  0  0  0
 14  9  1  1  0  0  0
 14 17  1  0  0  0  0
 15 14  1  0  0  0  0
 15 17  1  1  0  0  0
 16 15  1  0  0  0  0
 16 19  1  6  0  0  0
 19 18  1  6  0  0  0
 20 19  1  0  0  0  0
 21 26  1  0  0  0  0
 21 25  1  0  0  0  0
 23 22  1  0  0  0  0
 23 20  1  0  0  0  0
 24 22  1  0  0  0  0
 25 23  2  0  0  0  0
 26 24  1  0  0  0  0
 28 27  1  6  0  0  0
 28 31  1  0  0  0  0
 30 32  1  0  0  0  0
 31 29  2  0  0  0  0
 31 30  1  0  0  0  0
 33 32  1  0  0  0  0
 34 33  2  0  0  0  0
 35 34  1  0  0  0  0
 35 37  1  0  0  0  0
 36 37  1  0  0  0  0
 38 39  1  6  0  0  0
 38 40  1  0  0  0  0
 38 28  1  0  0  0  0
 41 40  1  0  0  0  0
 42 46  1  0  0  0  0
 43 44  1  0  0  0  0
 43 41  1  6  0  0  0
 45 44  1  0  0  0  0
 46 45  1  0  0  0  0
 46 43  1  0  0  0  0
M  END
>  <MODEL>
9

>  <REMARK>
 VINA RESULT:      -4.4      2.742      9.440
  Name = 
  18 active torsions:
  status: ('A' for Active; 'I' for Inactive)
    1  A    between atoms: C_3  and  C_8
    2  A    between atoms: C_3  and  C_14
    3  A    between atoms: C_3  and  C_35
    4  A    between atoms: N_7  and  N_20
    5  A    between atoms: N_7  and  N_22
    6  A    between atoms: C_8  and  C_43
    7  A    between atoms: N_12  and  C_19
    8  A    between atoms: N_12  and  C_43
    9  A    between atoms: C_14  and  C_42
   10  A    between atoms: C_15  and  O_32
   11  A    between atoms: C_16  and  C_36
   12  A    between atoms: C_21  and  C_39
   13  A    between atoms: C_23  and  C_43
   14  A    between atoms: O_32  and  C_41
   15  A    between atoms: C_34  and  C_37
   16  A    between atoms: C_36  and  C_42
   17  A    between atoms: C_38  and  C_39
   18  A    between atoms: C_41  and  C_45
                            x       y       z     vdW  Elec       q    Type
                         _______ _______ _______ _____ _____    ______ ____

>  <TORSDO>
F 18

$$$$
