=
 OpenBabel11072414383D

 26 31  0  0  1  0  0  0  0  0999 V2000
  160.6640  208.4330  151.7460 O   0  0  0  0  0  0  0  0  0  0  0  0
  161.7480  207.9470  152.4530 N   0  0  0  0  0  0  0  0  0  0  0  0
  160.5050  208.3110  153.0930 C   0  0  1  0  0  3  0  0  0  0  0  0
  160.6360  209.6240  153.7350 N   0  0  0  0  0  0  0  0  0  0  0  0
  161.4070  210.8290  155.6040 O   0  0  0  0  0  0  0  0  0  0  0  0
  161.1530  209.7030  155.0870 C   0  0  0  0  0  0  0  0  0  0  0  0
  158.4590  211.4210  153.3330 S   0  0  0  0  0  0  0  0  0  0  0  0
  160.0630  212.5010  151.5070 N   0  0  0  0  0  0  0  0  0  0  0  0
  160.7730  211.4270  152.0970 C   0  0  0  0  0  3  0  0  0  0  0  0
  160.1100  210.7790  153.0390 C   0  0  0  0  0  0  0  0  0  0  0  0
  158.7180  212.6750  152.0290 C   0  0  0  0  0  3  0  0  0  0  0  0
  160.8080  208.6090  157.2140 C   0  0  1  0  0  3  0  0  0  0  0  0
  162.2700  208.6580  157.0580 N   0  0  0  0  0  2  0  0  0  0  0  0
  161.4190  208.4430  155.8790 C   0  0  2  0  0  0  0  0  0  0  0  0
  160.1800  207.6530  156.2310 C   0  0  0  0  0  2  0  0  0  0  0  0
  161.7350  206.5000  152.3070 C   0  0  0  0  0  2  0  0  0  0  0  0
  162.1010  206.1020  150.8840 C   0  0  0  0  0  2  0  0  0  0  0  0
  160.8620  205.7640  150.0630 C   0  0  2  0  0  3  0  0  0  0  0  0
  161.1500  208.1550  148.6360 F   0  0  0  0  0  0  0  0  0  0  0  0
  161.7790  204.5330  147.9660 C   0  0  0  0  0  3  0  0  0  0  0  0
  160.3490  204.3960  150.4490 C   0  0  0  0  0  3  0  0  0  0  0  0
  161.4940  203.3590  148.5340 C   0  0  0  0  0  3  0  0  0  0  0  0
  160.1580  206.2790  147.8010 O   0  0  0  0  0  0  0  0  0  0  0  0
  161.3360  207.0570  147.8140 C   0  0  2  0  0  3  0  0  0  0  0  0
  161.2260  205.7870  148.5720 C   0  0  1  0  0  0  0  0  0  0  0  0
  160.6730  203.2900  149.7620 C   0  0  0  0  0  3  0  0  0  0  0  0
  1  2  1  0  0  0  0
  1  3  1  0  0  0  0
  2  3  1  0  0  0  0
  3  4  1  1  0  0  0
  4  6  1  0  0  0  0
  6  5  2  0  0  0  0
  8 11  2  0  0  0  0
  8  9  1  0  0  0  0
  9 10  2  0  0  0  0
 10  7  1  0  0  0  0
 10  4  1  0  0  0  0
 11  7  1  0  0  0  0
 12 15  1  1  0  0  0
 13 12  1  0  0  0  0
 14  6  1  6  0  0  0
 14 15  1  0  0  0  0
 14 13  1  0  0  0  0
 14 12  1  0  0  0  0
 16  2  1  0  0  0  0
 17 16  1  0  0  0  0
 18 21  1  0  0  0  0
 18 17  1  1  0  0  0
 20 22  2  0  0  0  0
 22 26  1  0  0  0  0
 23 24  1  0  0  0  0
 23 25  1  0  0  0  0
 24 25  1  0  0  0  0
 24 19  1  1  0  0  0
 25 20  1  6  0  0  0
 25 18  1  0  0  0  0
 26 21  2  0  0  0  0
M  END
>  <MODEL>
1

>  <REMARK>
 VINA RESULT:      -7.1      0.000      0.000
  Name = 
  6 active torsions:
  status: ('A' for Active; 'I' for Inactive)
    1  A    between atoms: C_1  and  C_7
    2  A    between atoms: C_1  and  N_18
    3  A    between atoms: C_4  and  C_7
    4  A    between atoms: C_13  and  C_24
    5  A    between atoms: N_15  and  C_20
    6  A    between atoms: N_15  and  C_21
                            x       y       z     vdW  Elec       q    Type
                         _______ _______ _______ _____ _____    ______ ____

>  <TORSDO>
F 6

$$$$
=
 OpenBabel11072414383D

 26 31  0  0  1  0  0  0  0  0999 V2000
  161.8540  207.7720  149.1700 O   0  0  0  0  0  0  0  0  0  0  0  0
  161.1280  207.4710  150.3080 N   0  0  0  0  0  0  0  0  0  0  0  0
  162.1400  206.5870  149.7780 C   0  0  1  0  0  3  0  0  0  0  0  0
  161.5110  205.4830  149.0470 N   0  0  0  0  0  0  0  0  0  0  0  0
  160.5000  203.3600  149.1820 O   0  0  0  0  0  0  0  0  0  0  0  0
  161.1700  204.2660  149.7580 C   0  0  0  0  0  0  0  0  0  0  0  0
  162.6330  204.9960  146.4710 S   0  0  0  0  0  0  0  0  0  0  0  0
  160.4550  206.2520  145.6030 N   0  0  0  0  0  0  0  0  0  0  0  0
  160.3680  206.2030  147.0150 C   0  0  0  0  0  3  0  0  0  0  0  0
  161.3820  205.6000  147.6100 C   0  0  0  0  0  0  0  0  0  0  0  0
  161.6660  205.6530  145.0660 C   0  0  0  0  0  3  0  0  0  0  0  0
  160.5950  203.1950  151.8470 C   0  0  1  0  0  3  0  0  0  0  0  0
  160.6250  204.6310  152.1660 N   0  0  0  0  0  2  0  0  0  0  0  0
  161.5860  204.0800  151.2000 C   0  0  2  0  0  0  0  0  0  0  0  0
  161.9770  202.6660  151.5590 C   0  0  0  0  0  2  0  0  0  0  0  0
  161.7430  208.1990  151.4070 C   0  0  0  0  0  2  0  0  0  0  0  0
  160.7660  208.3490  152.5640 C   0  0  0  0  0  2  0  0  0  0  0  0
  161.4700  208.2170  153.9090 C   0  0  2  0  0  3  0  0  0  0  0  0
  162.6440  210.7320  153.5490 F   0  0  0  0  0  0  0  0  0  0  0  0
  159.8550  209.3380  155.6090 C   0  0  0  0  0  3  0  0  0  0  0  0
  161.0430  206.9350  154.5870 C   0  0  0  0  0  3  0  0  0  0  0  0
  159.3840  208.1360  155.9490 C   0  0  0  0  0  3  0  0  0  0  0  0
  162.1960  209.8100  155.5860 O   0  0  0  0  0  0  0  0  0  0  0  0
  161.7630  210.7410  154.6170 C   0  0  2  0  0  3  0  0  0  0  0  0
  161.1060  209.4220  154.7880 C   0  0  1  0  0  0  0  0  0  0  0  0
  160.0580  206.9010  155.4970 C   0  0  0  0  0  3  0  0  0  0  0  0
  1  3  1  0  0  0  0
  1  2  1  0  0  0  0
  2 16  1  0  0  0  0
  3  4  1  6  0  0  0
  3  2  1  0  0  0  0
  4  6  1  0  0  0  0
  5  6  2  0  0  0  0
  7 10  1  0  0  0  0
  8  9  1  0  0  0  0
  9 10  2  0  0  0  0
 10  4  1  0  0  0  0
 11  8  2  0  0  0  0
 11  7  1  0  0  0  0
 12 15  1  1  0  0  0
 12 13  1  0  0  0  0
 14  6  1  6  0  0  0
 14 15  1  0  0  0  0
 14 12  1  0  0  0  0
 14 13  1  0  0  0  0
 16 17  1  0  0  0  0
 18 17  1  6  0  0  0
 18 21  1  0  0  0  0
 18 25  1  0  0  0  0
 20 22  2  0  0  0  0
 21 26  2  0  0  0  0
 24 19  1  6  0  0  0
 24 25  1  0  0  0  0
 24 23  1  0  0  0  0
 25 23  1  0  0  0  0
 25 20  1  1  0  0  0
 26 22  1  0  0  0  0
M  END
>  <MODEL>
2

>  <REMARK>
 VINA RESULT:      -6.8      3.429      7.098
  Name = 
  6 active torsions:
  status: ('A' for Active; 'I' for Inactive)
    1  A    between atoms: C_1  and  C_7
    2  A    between atoms: C_1  and  N_18
    3  A    between atoms: C_4  and  C_7
    4  A    between atoms: C_13  and  C_24
    5  A    between atoms: N_15  and  C_20
    6  A    between atoms: N_15  and  C_21
                            x       y       z     vdW  Elec       q    Type
                         _______ _______ _______ _____ _____    ______ ____

>  <TORSDO>
F 6

$$$$
=
 OpenBabel11072414383D

 26 31  0  0  1  0  0  0  0  0999 V2000
  160.4220  205.9810  150.4470 O   0  0  0  0  0  0  0  0  0  0  0  0
  161.6270  206.5840  150.1350 N   0  0  0  0  0  0  0  0  0  0  0  0
  160.7240  206.0860  149.1230 C   0  0  1  0  0  3  0  0  0  0  0  0
  161.2010  204.7970  148.6130 N   0  0  0  0  0  0  0  0  0  0  0  0
  162.2550  203.6500  146.8470 O   0  0  0  0  0  0  0  0  0  0  0  0
  161.7080  204.7150  147.2570 C   0  0  0  0  0  0  0  0  0  0  0  0
  161.6100  203.5280  151.1340 S   0  0  0  0  0  0  0  0  0  0  0  0
  160.4070  201.4640  149.9660 N   0  0  0  0  0  0  0  0  0  0  0  0
  160.4470  202.5110  149.0140 C   0  0  0  0  0  3  0  0  0  0  0  0
  161.0170  203.6240  149.4420 C   0  0  0  0  0  0  0  0  0  0  0  0
  161.0290  201.7980  151.2370 C   0  0  0  0  0  3  0  0  0  0  0  0
  161.2440  205.4110  144.9900 C   0  0  1  0  0  3  0  0  0  0  0  0
  162.6090  205.8920  145.2500 N   0  0  0  0  0  2  0  0  0  0  0  0
  161.6140  205.9070  146.3320 C   0  0  2  0  0  0  0  0  0  0  0  0
  160.2260  206.1750  145.7990 C   0  0  0  0  0  2  0  0  0  0  0  0
  161.4150  208.0200  150.2150 C   0  0  0  0  0  2  0  0  0  0  0  0
  161.8540  208.5530  151.5710 C   0  0  0  0  0  2  0  0  0  0  0  0
  160.6630  208.7650  152.4990 C   0  0  2  0  0  3  0  0  0  0  0  0
  160.9210  206.1400  153.4380 F   0  0  0  0  0  0  0  0  0  0  0  0
  161.7110  209.5520  154.7430 C   0  0  0  0  0  3  0  0  0  0  0  0
  160.1850  210.1950  152.4000 C   0  0  0  0  0  3  0  0  0  0  0  0
  161.4450  210.8190  154.4180 C   0  0  0  0  0  3  0  0  0  0  0  0
  160.0340  207.8540  154.6560 O   0  0  0  0  0  0  0  0  0  0  0  0
  161.1820  207.0580  154.4420 C   0  0  2  0  0  3  0  0  0  0  0  0
  161.0870  208.4510  153.9410 C   0  0  1  0  0  0  0  0  0  0  0  0
  160.5780  211.1420  153.2650 C   0  0  0  0  0  3  0  0  0  0  0  0
  2 16  1  0  0  0  0
  2  1  1  0  0  0  0
  3  4  1  1  0  0  0
  3  2  1  0  0  0  0
  3  1  1  0  0  0  0
  4 10  1  0  0  0  0
  5  6  2  0  0  0  0
  6  4  1  0  0  0  0
  7 11  1  0  0  0  0
  8 11  2  0  0  0  0
  9 10  2  0  0  0  0
  9  8  1  0  0  0  0
 10  7  1  0  0  0  0
 12 13  1  0  0  0  0
 12 15  1  6  0  0  0
 12 14  1  0  0  0  0
 13 14  1  0  0  0  0
 14  6  1  1  0  0  0
 15 14  1  0  0  0  0
 16 17  1  0  0  0  0
 18 17  1  6  0  0  0
 18 25  1  0  0  0  0
 21 18  1  0  0  0  0
 21 26  2  0  0  0  0
 22 20  2  0  0  0  0
 24 19  1  6  0  0  0
 24 23  1  0  0  0  0
 25 24  1  0  0  0  0
 25 23  1  0  0  0  0
 25 20  1  1  0  0  0
 26 22  1  0  0  0  0
M  END
>  <MODEL>
3

>  <REMARK>
 VINA RESULT:      -6.6      3.488      8.214
  Name = 
  6 active torsions:
  status: ('A' for Active; 'I' for Inactive)
    1  A    between atoms: C_1  and  C_7
    2  A    between atoms: C_1  and  N_18
    3  A    between atoms: C_4  and  C_7
    4  A    between atoms: C_13  and  C_24
    5  A    between atoms: N_15  and  C_20
    6  A    between atoms: N_15  and  C_21
                            x       y       z     vdW  Elec       q    Type
                         _______ _______ _______ _____ _____    ______ ____

>  <TORSDO>
F 6

$$$$
=
 OpenBabel11072414383D

 26 31  0  0  1  0  0  0  0  0999 V2000
  161.5490  208.2650  148.5690 O   0  0  0  0  0  0  0  0  0  0  0  0
  161.1210  207.9380  149.8430 N   0  0  0  0  0  0  0  0  0  0  0  0
  162.1630  207.2040  149.1640 C   0  0  1  0  0  3  0  0  0  0  0  0
  161.6260  205.9490  148.6280 N   0  0  0  0  0  0  0  0  0  0  0  0
  160.4980  203.9350  149.0950 O   0  0  0  0  0  0  0  0  0  0  0  0
  161.0940  204.9580  149.5430 C   0  0  0  0  0  0  0  0  0  0  0  0
  160.5340  206.1580  146.0020 S   0  0  0  0  0  0  0  0  0  0  0  0
  162.7420  204.8570  145.2910 N   0  0  0  0  0  0  0  0  0  0  0  0
  162.8090  205.0480  146.6930 C   0  0  0  0  0  3  0  0  0  0  0  0
  161.7770  205.6910  147.2120 C   0  0  0  0  0  0  0  0  0  0  0  0
  161.5310  205.3800  144.6820 C   0  0  0  0  0  3  0  0  0  0  0  0
  161.6480  203.8640  151.6250 C   0  0  1  0  0  3  0  0  0  0  0  0
  160.2710  204.3440  151.8170 N   0  0  0  0  0  2  0  0  0  0  0  0
  161.2200  205.1500  151.0370 C   0  0  2  0  0  0  0  0  0  0  0  0
  162.6280  205.0080  151.5680 C   0  0  0  0  0  2  0  0  0  0  0  0
  161.7830  208.8520  150.7600 C   0  0  0  0  0  2  0  0  0  0  0  0
  161.8140  208.2730  152.1660 C   0  0  0  0  0  2  0  0  0  0  0  0
  160.6010  208.7130  152.9780 C   0  0  2  0  0  3  0  0  0  0  0  0
  160.6410  206.2830  154.3660 F   0  0  0  0  0  0  0  0  0  0  0  0
  161.6000  209.8180  155.1070 C   0  0  0  0  0  3  0  0  0  0  0  0
  160.2240  210.1300  152.6090 C   0  0  0  0  0  3  0  0  0  0  0  0
  161.4340  211.0230  154.5560 C   0  0  0  0  0  3  0  0  0  0  0  0
  159.8180  208.2310  155.2210 O   0  0  0  0  0  0  0  0  0  0  0  0
  160.9180  207.3450  155.2100 C   0  0  2  0  0  3  0  0  0  0  0  0
  160.9390  208.6320  154.4730 C   0  0  1  0  0  0  0  0  0  0  0  0
  160.6410  211.1890  153.3190 C   0  0  0  0  0  3  0  0  0  0  0  0
  1  3  1  0  0  0  0
  1  2  1  0  0  0  0
  2 16  1  0  0  0  0
  3  4  1  6  0  0  0
  3  2  1  0  0  0  0
  4  6  1  0  0  0  0
  5  6  2  0  0  0  0
  7 10  1  0  0  0  0
  8  9  1  0  0  0  0
  9 10  2  0  0  0  0
 10  4  1  0  0  0  0
 11  8  2  0  0  0  0
 11  7  1  0  0  0  0
 12 15  1  1  0  0  0
 12 13  1  0  0  0  0
 14  6  1  6  0  0  0
 14 15  1  0  0  0  0
 14 12  1  0  0  0  0
 14 13  1  0  0  0  0
 16 17  1  0  0  0  0
 18 17  1  6  0  0  0
 18 25  1  0  0  0  0
 21 18  1  0  0  0  0
 21 26  2  0  0  0  0
 22 20  2  0  0  0  0
 24 19  1  6  0  0  0
 24 23  1  0  0  0  0
 25 20  1  1  0  0  0
 25 24  1  0  0  0  0
 25 23  1  0  0  0  0
 26 22  1  0  0  0  0
M  END
>  <MODEL>
4

>  <REMARK>
 VINA RESULT:      -6.6      3.353      7.203
  Name = 
  6 active torsions:
  status: ('A' for Active; 'I' for Inactive)
    1  A    between atoms: C_1  and  C_7
    2  A    between atoms: C_1  and  N_18
    3  A    between atoms: C_4  and  C_7
    4  A    between atoms: C_13  and  C_24
    5  A    between atoms: N_15  and  C_20
    6  A    between atoms: N_15  and  C_21
                            x       y       z     vdW  Elec       q    Type
                         _______ _______ _______ _____ _____    ______ ____

>  <TORSDO>
F 6

$$$$
=
 OpenBabel11072414383D

 26 31  0  0  1  0  0  0  0  0999 V2000
  162.3290  208.0830  150.5580 O   0  0  0  0  0  0  0  0  0  0  0  0
  161.0960  208.0250  149.9360 N   0  0  0  0  0  0  0  0  0  0  0  0
  162.0560  209.0670  149.6560 C   0  0  1  0  0  3  0  0  0  0  0  0
  161.6790  210.2990  150.3560 N   0  0  0  0  0  0  0  0  0  0  0  0
  161.0910  212.5700  150.1580 O   0  0  0  0  0  0  0  0  0  0  0  0
  161.5510  211.5310  149.6030 C   0  0  0  0  0  0  0  0  0  0  0  0
  160.0170  210.1950  152.6700 S   0  0  0  0  0  0  0  0  0  0  0  0
  162.3270  210.3260  153.9830 N   0  0  0  0  0  0  0  0  0  0  0  0
  162.6360  210.3280  152.6010 C   0  0  0  0  0  3  0  0  0  0  0  0
  161.5860  210.2630  151.8000 C   0  0  0  0  0  0  0  0  0  0  0  0
  160.9020  210.2810  154.2670 C   0  0  0  0  0  3  0  0  0  0  0  0
  161.9480  212.9950  147.7220 C   0  0  1  0  0  3  0  0  0  0  0  0
  160.8770  212.0950  147.2670 N   0  0  0  0  0  2  0  0  0  0  0  0
  161.9390  211.5790  148.1420 C   0  0  2  0  0  0  0  0  0  0  0  0
  163.2580  212.2630  147.8690 C   0  0  0  0  0  2  0  0  0  0  0  0
  161.2090  207.0520  148.8610 C   0  0  0  0  0  2  0  0  0  0  0  0
  160.5190  205.7500  149.2410 C   0  0  0  0  0  2  0  0  0  0  0  0
  161.5300  204.6440  149.5240 C   0  0  2  0  0  3  0  0  0  0  0  0
  161.4750  205.2840  152.2490 F   0  0  0  0  0  0  0  0  0  0  0  0
  160.0850  202.5620  150.0980 C   0  0  0  0  0  3  0  0  0  0  0  0
  161.8330  203.8890  148.2510 C   0  0  0  0  0  3  0  0  0  0  0  0
  160.2320  202.1200  148.8470 C   0  0  0  0  0  3  0  0  0  0  0  0
  161.9570  203.2100  151.4310 O   0  0  0  0  0  0  0  0  0  0  0  0
  160.9610  204.0180  152.0220 C   0  0  2  0  0  3  0  0  0  0  0  0
  160.9490  203.6890  150.5760 C   0  0  1  0  0  0  0  0  0  0  0  0
  161.2060  202.7480  147.9290 C   0  0  0  0  0  3  0  0  0  0  0  0
  2  1  1  0  0  0  0
  3  2  1  0  0  0  0
  3  4  1  1  0  0  0
  3  1  1  0  0  0  0
  4 10  1  0  0  0  0
  6  5  2  0  0  0  0
  6  4  1  0  0  0  0
  7 11  1  0  0  0  0
  8 11  2  0  0  0  0
  9  8  1  0  0  0  0
 10  9  2  0  0  0  0
 10  7  1  0  0  0  0
 12 15  1  6  0  0  0
 12 14  1  0  0  0  0
 13 12  1  0  0  0  0
 13 14  1  0  0  0  0
 14  6  1  1  0  0  0
 15 14  1  0  0  0  0
 16 17  1  0  0  0  0
 16  2  1  0  0  0  0
 18 17  1  6  0  0  0
 18 25  1  0  0  0  0
 21 18  1  0  0  0  0
 22 20  2  0  0  0  0
 23 24  1  0  0  0  0
 24 19  1  6  0  0  0
 25 20  1  6  0  0  0
 25 23  1  0  0  0  0
 25 24  1  0  0  0  0
 26 21  2  0  0  0  0
 26 22  1  0  0  0  0
M  END
>  <MODEL>
5

>  <REMARK>
 VINA RESULT:      -6.6      2.866      5.073
  Name = 
  6 active torsions:
  status: ('A' for Active; 'I' for Inactive)
    1  A    between atoms: C_1  and  C_7
    2  A    between atoms: C_1  and  N_18
    3  A    between atoms: C_4  and  C_7
    4  A    between atoms: C_13  and  C_24
    5  A    between atoms: N_15  and  C_20
    6  A    between atoms: N_15  and  C_21
                            x       y       z     vdW  Elec       q    Type
                         _______ _______ _______ _____ _____    ______ ____

>  <TORSDO>
F 6

$$$$
=
 OpenBabel11072414383D

 26 31  0  0  1  0  0  0  0  0999 V2000
  161.4500  204.5370  146.6840 O   0  0  0  0  0  0  0  0  0  0  0  0
  161.0090  205.1250  147.8560 N   0  0  0  0  0  0  0  0  0  0  0  0
  161.8560  203.9550  147.8470 C   0  0  1  0  0  3  0  0  0  0  0  0
  161.0580  202.7540  148.1120 N   0  0  0  0  0  0  0  0  0  0  0  0
  159.8340  201.5190  149.7000 O   0  0  0  0  0  0  0  0  0  0  0  0
  160.6390  202.4670  149.4700 C   0  0  0  0  0  0  0  0  0  0  0  0
  161.5440  200.1750  146.9980 S   0  0  0  0  0  0  0  0  0  0  0  0
  160.0920  201.0940  144.9690 N   0  0  0  0  0  0  0  0  0  0  0  0
  160.1480  202.1260  145.9360 C   0  0  0  0  0  3  0  0  0  0  0  0
  160.8380  201.8260  147.0230 C   0  0  0  0  0  0  0  0  0  0  0  0
  160.8310  199.8980  145.3380 C   0  0  0  0  0  3  0  0  0  0  0  0
  160.4880  202.8290  151.8550 C   0  0  1  0  0  3  0  0  0  0  0  0
  160.0830  204.1130  151.2620 N   0  0  0  0  0  2  0  0  0  0  0  0
  161.1360  203.3150  150.6200 C   0  0  2  0  0  0  0  0  0  0  0  0
  161.9560  202.5620  151.6410 C   0  0  0  0  0  2  0  0  0  0  0  0
  161.8730  206.2660  148.1090 C   0  0  0  0  0  2  0  0  0  0  0  0
  161.2350  207.2090  149.1190 C   0  0  0  0  0  2  0  0  0  0  0  0
  162.2570  207.7190  150.1290 C   0  0  2  0  0  3  0  0  0  0  0  0
  162.2120  210.2390  148.9120 F   0  0  0  0  0  0  0  0  0  0  0  0
  160.8310  208.7430  152.0460 C   0  0  0  0  0  3  0  0  0  0  0  0
  162.5590  206.6380  151.1420 C   0  0  0  0  0  3  0  0  0  0  0  0
  160.9750  207.6170  152.7490 C   0  0  0  0  0  3  0  0  0  0  0  0
  162.7060  209.8890  151.1110 O   0  0  0  0  0  0  0  0  0  0  0  0
  161.7070  210.2970  150.2000 C   0  0  2  0  0  3  0  0  0  0  0  0
  161.6900  208.9570  150.8360 C   0  0  1  0  0  0  0  0  0  0  0  0
  161.9390  206.5780  152.3300 C   0  0  0  0  0  3  0  0  0  0  0  0
  1  3  1  0  0  0  0
  1  2  1  0  0  0  0
  2 16  1  0  0  0  0
  3  2  1  0  0  0  0
  3  4  1  6  0  0  0
  4  6  1  0  0  0  0
  6  5  2  0  0  0  0
  7 10  1  0  0  0  0
  8 11  2  0  0  0  0
  8  9  1  0  0  0  0
  9 10  2  0  0  0  0
 10  4  1  0  0  0  0
 11  7  1  0  0  0  0
 12 15  1  1  0  0  0
 13 12  1  0  0  0  0
 14  6  1  6  0  0  0
 14 13  1  0  0  0  0
 14 15  1  0  0  0  0
 14 12  1  0  0  0  0
 16 17  1  0  0  0  0
 18 17  1  6  0  0  0
 18 25  1  0  0  0  0
 18 21  1  0  0  0  0
 20 22  2  0  0  0  0
 21 26  2  0  0  0  0
 24 19  1  6  0  0  0
 24 25  1  0  0  0  0
 24 23  1  0  0  0  0
 25 23  1  0  0  0  0
 25 20  1  1  0  0  0
 26 22  1  0  0  0  0
M  END
>  <MODEL>
6

>  <REMARK>
 VINA RESULT:      -6.4      4.360      7.924
  Name = 
  6 active torsions:
  status: ('A' for Active; 'I' for Inactive)
    1  A    between atoms: C_1  and  C_7
    2  A    between atoms: C_1  and  N_18
    3  A    between atoms: C_4  and  C_7
    4  A    between atoms: C_13  and  C_24
    5  A    between atoms: N_15  and  C_20
    6  A    between atoms: N_15  and  C_21
                            x       y       z     vdW  Elec       q    Type
                         _______ _______ _______ _____ _____    ______ ____

>  <TORSDO>
F 6

$$$$
=
 OpenBabel11072414383D

 26 31  0  0  1  0  0  0  0  0999 V2000
  161.0800  202.2620  149.5530 O   0  0  0  0  0  0  0  0  0  0  0  0
  161.3730  203.6140  149.5270 N   0  0  0  0  0  0  0  0  0  0  0  0
  160.4550  203.0010  148.5950 C   0  0  1  0  0  3  0  0  0  0  0  0
  161.1130  202.8020  147.3000 N   0  0  0  0  0  0  0  0  0  0  0  0
  162.3490  203.7830  145.5520 O   0  0  0  0  0  0  0  0  0  0  0  0
  161.6560  203.9480  146.5970 C   0  0  0  0  0  0  0  0  0  0  0  0
  160.1330  201.1150  145.2200 S   0  0  0  0  0  0  0  0  0  0  0  0
  161.4650  199.2170  146.5250 N   0  0  0  0  0  0  0  0  0  0  0  0
  161.6690  200.4270  147.2330 C   0  0  0  0  0  3  0  0  0  0  0  0
  161.0700  201.4820  146.7080 C   0  0  0  0  0  0  0  0  0  0  0  0
  160.6060  199.3540  145.3600 C   0  0  0  0  0  3  0  0  0  0  0  0
  161.9070  206.3000  146.1010 C   0  0  1  0  0  3  0  0  0  0  0  0
  162.6600  206.1050  147.3490 N   0  0  0  0  0  2  0  0  0  0  0  0
  161.4220  205.3470  147.1200 C   0  0  2  0  0  0  0  0  0  0  0  0
  160.4230  206.1530  146.3230 C   0  0  0  0  0  2  0  0  0  0  0  0
  160.5630  204.2420  150.5590 C   0  0  0  0  0  2  0  0  0  0  0  0
  160.5900  205.7560  150.4140 C   0  0  0  0  0  2  0  0  0  0  0  0
  161.7860  206.3650  151.1350 C   0  0  2  0  0  3  0  0  0  0  0  0
  161.9880  208.3320  149.1530 F   0  0  0  0  0  0  0  0  0  0  0  0
  160.7650  208.1870  152.6810 C   0  0  0  0  0  3  0  0  0  0  0  0
  162.0340  205.6270  152.4310 C   0  0  0  0  0  3  0  0  0  0  0  0
  160.8140  207.3380  153.7100 C   0  0  0  0  0  3  0  0  0  0  0  0
  162.6730  208.6150  151.3100 O   0  0  0  0  0  0  0  0  0  0  0  0
  161.6500  208.8870  150.3750 C   0  0  2  0  0  3  0  0  0  0  0  0
  161.5010  207.8460  151.4220 C   0  0  1  0  0  0  0  0  0  0  0  0
  161.5530  206.0610  153.6050 C   0  0  0  0  0  3  0  0  0  0  0  0
  2  1  1  0  0  0  0
  2 16  1  0  0  0  0
  3  4  1  6  0  0  0
  3  2  1  0  0  0  0
  3  1  1  0  0  0  0
  5  6  2  0  0  0  0
  6  4  1  0  0  0  0
  7 11  1  0  0  0  0
  7 10  1  0  0  0  0
  8  9  1  0  0  0  0
 10  9  2  0  0  0  0
 10  4  1  0  0  0  0
 11  8  2  0  0  0  0
 12 15  1  1  0  0  0
 12 14  1  0  0  0  0
 12 13  1  0  0  0  0
 14  6  1  6  0  0  0
 14 13  1  0  0  0  0
 15 14  1  0  0  0  0
 17 16  1  0  0  0  0
 18 17  1  1  0  0  0
 18 25  1  0  0  0  0
 18 21  1  0  0  0  0
 20 22  2  0  0  0  0
 21 26  2  0  0  0  0
 23 25  1  0  0  0  0
 24 19  1  6  0  0  0
 24 23  1  0  0  0  0
 24 25  1  0  0  0  0
 25 20  1  1  0  0  0
 26 22  1  0  0  0  0
M  END
>  <MODEL>
7

>  <REMARK>
 VINA RESULT:      -6.4      4.555      8.619
  Name = 
  6 active torsions:
  status: ('A' for Active; 'I' for Inactive)
    1  A    between atoms: C_1  and  C_7
    2  A    between atoms: C_1  and  N_18
    3  A    between atoms: C_4  and  C_7
    4  A    between atoms: C_13  and  C_24
    5  A    between atoms: N_15  and  C_20
    6  A    between atoms: N_15  and  C_21
                            x       y       z     vdW  Elec       q    Type
                         _______ _______ _______ _____ _____    ______ ____

>  <TORSDO>
F 6

$$$$
=
 OpenBabel11072414383D

 26 31  0  0  1  0  0  0  0  0999 V2000
  160.3760  201.6600  149.0090 O   0  0  0  0  0  0  0  0  0  0  0  0
  161.3200  202.6100  149.3560 N   0  0  0  0  0  0  0  0  0  0  0  0
  160.3570  202.8240  148.3000 C   0  0  1  0  0  3  0  0  0  0  0  0
  160.9920  202.6250  146.9930 N   0  0  0  0  0  0  0  0  0  0  0  0
  162.2820  203.5800  145.2700 O   0  0  0  0  0  0  0  0  0  0  0  0
  161.6080  203.7560  146.3260 C   0  0  0  0  0  0  0  0  0  0  0  0
  161.7020  199.8640  146.9520 S   0  0  0  0  0  0  0  0  0  0  0  0
  160.1810  199.8010  144.7710 N   0  0  0  0  0  0  0  0  0  0  0  0
  160.1460  201.1290  145.2610 C   0  0  0  0  0  3  0  0  0  0  0  0
  160.8560  201.3320  146.3570 C   0  0  0  0  0  0  0  0  0  0  0  0
  161.0200  198.9070  145.5520 C   0  0  0  0  0  3  0  0  0  0  0  0
  162.0520  206.0970  145.9250 C   0  0  1  0  0  3  0  0  0  0  0  0
  162.7610  205.7980  147.1780 N   0  0  0  0  0  2  0  0  0  0  0  0
  161.4730  205.1490  146.8990 C   0  0  2  0  0  0  0  0  0  0  0  0
  160.5560  206.0590  146.1160 C   0  0  0  0  0  2  0  0  0  0  0  0
  160.8120  203.3010  150.5310 C   0  0  0  0  0  2  0  0  0  0  0  0
  161.6490  204.5370  150.8290 C   0  0  0  0  0  2  0  0  0  0  0  0
  160.7710  205.7360  151.1660 C   0  0  2  0  0  3  0  0  0  0  0  0
  161.1020  205.2170  153.8970 F   0  0  0  0  0  0  0  0  0  0  0  0
  162.4370  207.7100  151.4540 C   0  0  0  0  0  3  0  0  0  0  0  0
  160.3780  206.4570  149.8970 C   0  0  0  0  0  3  0  0  0  0  0  0
  162.1760  208.1070  150.2070 C   0  0  0  0  0  3  0  0  0  0  0  0
  160.6920  207.2860  153.0290 O   0  0  0  0  0  0  0  0  0  0  0  0
  161.6840  206.4230  153.5440 C   0  0  2  0  0  3  0  0  0  0  0  0
  161.5480  206.6850  152.0900 C   0  0  1  0  0  0  0  0  0  0  0  0
  161.0520  207.5250  149.4430 C   0  0  0  0  0  3  0  0  0  0  0  0
  1  2  1  0  0  0  0
  2 16  1  0  0  0  0
  3  4  1  6  0  0  0
  3  1  1  0  0  0  0
  3  2  1  0  0  0  0
  5  6  2  0  0  0  0
  6  4  1  0  0  0  0
  8  9  1  0  0  0  0
  8 11  2  0  0  0  0
  9 10  2  0  0  0  0
 10  7  1  0  0  0  0
 10  4  1  0  0  0  0
 11  7  1  0  0  0  0
 12 15  1  1  0  0  0
 12 14  1  0  0  0  0
 12 13  1  0  0  0  0
 14  6  1  6  0  0  0
 14 13  1  0  0  0  0
 15 14  1  0  0  0  0
 16 17  1  0  0  0  0
 18 17  1  6  0  0  0
 18 25  1  0  0  0  0
 21 18  1  0  0  0  0
 22 20  2  0  0  0  0
 23 24  1  0  0  0  0
 24 19  1  6  0  0  0
 25 20  1  6  0  0  0
 25 23  1  0  0  0  0
 25 24  1  0  0  0  0
 26 21  2  0  0  0  0
 26 22  1  0  0  0  0
M  END
>  <MODEL>
8

>  <REMARK>
 VINA RESULT:      -6.3      5.066      8.915
  Name = 
  6 active torsions:
  status: ('A' for Active; 'I' for Inactive)
    1  A    between atoms: C_1  and  C_7
    2  A    between atoms: C_1  and  N_18
    3  A    between atoms: C_4  and  C_7
    4  A    between atoms: C_13  and  C_24
    5  A    between atoms: N_15  and  C_20
    6  A    between atoms: N_15  and  C_21
                            x       y       z     vdW  Elec       q    Type
                         _______ _______ _______ _____ _____    ______ ____

>  <TORSDO>
F 6

$$$$
=
 OpenBabel11072414383D

 26 31  0  0  1  0  0  0  0  0999 V2000
  160.5000  210.7820  154.0840 O   0  0  0  0  0  0  0  0  0  0  0  0
  159.8190  210.1840  153.0400 N   0  0  0  0  0  0  0  0  0  0  0  0
  160.1890  211.5810  153.0250 C   0  0  1  0  0  3  0  0  0  0  0  0
  159.0250  212.4120  153.3490 N   0  0  0  0  0  0  0  0  0  0  0  0
  157.2530  213.7220  152.5180 O   0  0  0  0  0  0  0  0  0  0  0  0
  158.3390  213.1170  152.2830 C   0  0  0  0  0  0  0  0  0  0  0  0
  157.3650  211.7110  155.5590 S   0  0  0  0  0  0  0  0  0  0  0  0
  158.7850  213.5580  156.8420 N   0  0  0  0  0  0  0  0  0  0  0  0
  159.2920  213.4910  155.5210 C   0  0  0  0  0  3  0  0  0  0  0  0
  158.6910  212.6070  154.7440 C   0  0  0  0  0  0  0  0  0  0  0  0
  157.6710  212.6580  157.0920 C   0  0  0  0  0  3  0  0  0  0  0  0
  158.6820  214.4530  150.2990 C   0  0  1  0  0  3  0  0  0  0  0  0
  157.8810  213.3090  149.8380 N   0  0  0  0  0  2  0  0  0  0  0  0
  158.9000  213.1120  150.8790 C   0  0  2  0  0  0  0  0  0  0  0  0
  160.0800  214.0320  150.6750 C   0  0  0  0  0  2  0  0  0  0  0  0
  160.8080  209.4820  152.2370 C   0  0  0  0  0  2  0  0  0  0  0  0
  160.7350  207.9830  152.4880 C   0  0  0  0  0  2  0  0  0  0  0  0
  161.8400  207.2390  151.7460 C   0  0  2  0  0  3  0  0  0  0  0  0
  161.5840  205.0850  153.5160 F   0  0  0  0  0  0  0  0  0  0  0  0
  160.5920  205.7940  149.9830 C   0  0  0  0  0  3  0  0  0  0  0  0
  162.2830  208.0430  150.5460 C   0  0  0  0  0  3  0  0  0  0  0  0
  160.8460  206.7170  149.0530 C   0  0  0  0  0  3  0  0  0  0  0  0
  162.3190  204.8930  151.3650 O   0  0  0  0  0  0  0  0  0  0  0  0
  161.2170  204.7220  152.2310 C   0  0  2  0  0  3  0  0  0  0  0  0
  161.3100  205.8700  151.2960 C   0  0  1  0  0  0  0  0  0  0  0  0
  161.7940  207.8210  149.3170 C   0  0  0  0  0  3  0  0  0  0  0  0
  2  1  1  0  0  0  0
  3  2  1  0  0  0  0
  3  4  1  1  0  0  0
  3  1  1  0  0  0  0
  4 10  1  0  0  0  0
  6  5  2  0  0  0  0
  6  4  1  0  0  0  0
  7 11  1  0  0  0  0
  8 11  2  0  0  0  0
  9  8  1  0  0  0  0
 10  9  2  0  0  0  0
 10  7  1  0  0  0  0
 12 15  1  6  0  0  0
 12 14  1  0  0  0  0
 13 12  1  0  0  0  0
 13 14  1  0  0  0  0
 14  6  1  1  0  0  0
 15 14  1  0  0  0  0
 16 17  1  0  0  0  0
 16  2  1  0  0  0  0
 18 17  1  6  0  0  0
 21 18  1  0  0  0  0
 22 26  1  0  0  0  0
 22 20  2  0  0  0  0
 23 24  1  0  0  0  0
 24 19  1  1  0  0  0
 25 20  1  6  0  0  0
 25 23  1  0  0  0  0
 25 18  1  0  0  0  0
 25 24  1  0  0  0  0
 26 21  2  0  0  0  0
M  END
>  <MODEL>
9

>  <REMARK>
 VINA RESULT:      -6.3      2.855      5.060
  Name = 
  6 active torsions:
  status: ('A' for Active; 'I' for Inactive)
    1  A    between atoms: C_1  and  C_7
    2  A    between atoms: C_1  and  N_18
    3  A    between atoms: C_4  and  C_7
    4  A    between atoms: C_13  and  C_24
    5  A    between atoms: N_15  and  C_20
    6  A    between atoms: N_15  and  C_21
                            x       y       z     vdW  Elec       q    Type
                         _______ _______ _______ _____ _____    ______ ____

>  <TORSDO>
F 6

$$$$
