=
 OpenBabel11072414093D

 28 31  0  0  1  0  0  0  0  0999 V2000
  162.0630  207.4780  149.2840 C   0  0  2  0  0  3  0  0  0  0  0  0
  161.9240  208.6470  148.4260 C   0  0  0  0  0  2  0  0  0  0  0  0
  161.2680  207.3870  148.0510 N   0  0  0  0  0  0  0  0  0  0  0  0
  162.1200  206.7530  147.0600 C   0  0  0  0  0  2  0  0  0  0  0  0
  159.9520  206.0800  145.8700 C   0  0  0  0  0  2  0  0  0  0  0  0
  161.0850  206.0020  144.8540 C   0  0  0  0  0  2  0  0  0  0  0  0
  161.3420  205.6850  146.3100 C   0  0  0  0  0  0  0  0  0  0  0  0
  161.6500  203.9490  146.6590 S   0  0  0  0  0  0  0  0  0  0  0  0
  161.2180  203.1370  145.4700 O   0  0  0  0  0  0  0  0  0  0  0  0
  163.1300  203.7580  146.8500 O   0  0  0  0  0  0  0  0  0  0  0  0
  160.8220  202.0700  150.6640 C   0  0  0  0  0  2  0  0  0  0  0  0
  160.6470  203.5770  150.5070 C   0  0  0  0  0  2  0  0  0  0  0  0
  160.3580  201.3520  149.4010 C   0  0  0  0  0  2  0  0  0  0  0  0
  161.3700  204.0470  149.2480 C   0  0  0  0  0  2  0  0  0  0  0  0
  161.0930  201.9210  148.1910 C   0  0  0  0  0  2  0  0  0  0  0  0
  160.8310  203.3570  148.0740 N   0  0  0  0  0  0  0  0  0  0  0  0
  161.1240  207.5980  150.4690 C   0  0  0  0  0  2  0  0  0  0  0  0
  161.7850  207.0460  151.7190 C   0  0  0  0  0  2  0  0  0  0  0  0
  160.8160  206.7500  152.6820 O   0  0  0  0  0  0  0  0  0  0  0  0
  161.1100  209.4910  155.0720 C   0  0  1  0  0  3  0  0  0  0  0  0
  160.4500  208.2840  156.2680 S   0  0  0  0  0  0  0  0  0  0  0  0
  160.4300  206.9570  155.0240 C   0  0  0  0  0  2  0  0  0  0  0  0
  160.9860  208.9000  153.6870 C   0  0  0  0  0  2  0  0  0  0  0  0
  161.2380  207.4200  153.8310 C   0  0  2  0  0  3  0  0  0  0  0  0
  160.3570  210.7340  155.1420 N   0  0  0  0  0  2  0  0  0  0  0  0
  161.6240  211.6400  156.8860 O   0  0  0  0  0  0  0  0  0  0  0  0
  159.8300  212.9960  156.1170 C   0  0  0  0  0  1  0  0  0  0  0  0
  160.6590  211.7640  156.0850 C   0  0  0  0  0  0  0  0  0  0  0  0
  1 17  1  1  0  0  0
  2  1  1  0  0  0  0
  3  2  1  0  0  0  0
  3  1  1  0  0  0  0
  4  3  1  0  0  0  0
  5  7  1  0  0  0  0
  6  5  1  0  0  0  0
  6  7  1  0  0  0  0
  7  8  1  0  0  0  0
  7  4  1  0  0  0  0
  8 10  2  0  0  0  0
  8 16  1  0  0  0  0
  9  8  2  0  0  0  0
 12 11  1  0  0  0  0
 13 11  1  0  0  0  0
 14 12  1  0  0  0  0
 15 13  1  0  0  0  0
 16 15  1  0  0  0  0
 16 14  1  0  0  0  0
 17 18  1  0  0  0  0
 18 19  1  0  0  0  0
 20 25  1  6  0  0  0
 20 21  1  0  0  0  0
 22 21  1  0  0  0  0
 23 24  1  0  0  0  0
 23 20  1  0  0  0  0
 24 19  1  6  0  0  0
 24 22  1  0  0  0  0
 25 28  1  0  0  0  0
 28 27  1  0  0  0  0
 28 26  2  0  0  0  0
M  END
>  <MODEL>
1

>  <REMARK>
 VINA RESULT:      -6.9      0.000      0.000
  Name = 
  9 active torsions:
  status: ('A' for Active; 'I' for Inactive)
    1  A    between atoms: C_1  and  C_13
    2  A    between atoms: C_2  and  O_12
    3  A    between atoms: C_2  and  C_13
    4  A    between atoms: C_3  and  N_19
    5  A    between atoms: C_4  and  C_27
    6  A    between atoms: C_4  and  N_28
    7  A    between atoms: S_9  and  N_23
    8  A    between atoms: S_9  and  C_27
    9  A    between atoms: O_12  and  C_22
                            x       y       z     vdW  Elec       q    Type
                         _______ _______ _______ _____ _____    ______ ____

>  <TORSDO>
F 9

$$$$
=
 OpenBabel11072414093D

 28 31  0  0  1  0  0  0  0  0999 V2000
  160.8350  205.3450  151.9190 C   0  0  2  0  0  3  0  0  0  0  0  0
  161.4030  204.1420  151.3230 C   0  0  0  0  0  2  0  0  0  0  0  0
  161.6600  205.4510  150.7070 N   0  0  0  0  0  0  0  0  0  0  0  0
  160.7350  205.5750  149.5920 C   0  0  0  0  0  2  0  0  0  0  0  0
  161.2800  207.7230  148.3060 C   0  0  0  0  0  2  0  0  0  0  0  0
  162.5960  207.1140  148.7750 C   0  0  0  0  0  2  0  0  0  0  0  0
  161.4300  206.2240  148.4080 C   0  0  0  0  0  0  0  0  0  0  0  0
  161.6440  205.2950  146.8830 S   0  0  0  0  0  0  0  0  0  0  0  0
  161.0570  206.0910  145.7510 O   0  0  0  0  0  0  0  0  0  0  0  0
  163.1170  205.1280  146.6310 O   0  0  0  0  0  0  0  0  0  0  0  0
  161.0450  200.8380  146.7150 C   0  0  0  0  0  2  0  0  0  0  0  0
  160.8750  201.5530  148.0510 C   0  0  0  0  0  2  0  0  0  0  0  0
  160.4960  201.7000  145.5820 C   0  0  0  0  0  2  0  0  0  0  0  0
  161.5240  202.9320  147.9770 C   0  0  0  0  0  2  0  0  0  0  0  0
  161.1620  203.0730  145.6190 C   0  0  0  0  0  2  0  0  0  0  0  0
  160.9070  203.7200  146.9070 N   0  0  0  0  0  0  0  0  0  0  0  0
  161.6660  205.7630  153.1170 C   0  0  0  0  0  2  0  0  0  0  0  0
  161.1020  207.0330  153.7280 C   0  0  0  0  0  2  0  0  0  0  0  0
  160.6890  207.9070  152.7190 O   0  0  0  0  0  0  0  0  0  0  0  0
  160.5410  211.4870  153.4110 C   0  0  1  0  0  3  0  0  0  0  0  0
  161.0060  210.9990  155.1040 S   0  0  0  0  0  0  0  0  0  0  0  0
  161.1440  209.2470  154.6360 C   0  0  0  0  0  2  0  0  0  0  0  0
  160.2030  210.2350  152.6340 C   0  0  0  0  0  2  0  0  0  0  0  0
  161.1430  209.1620  153.1250 C   0  0  2  0  0  3  0  0  0  0  0  0
  159.3850  212.3710  153.4390 N   0  0  0  0  0  2  0  0  0  0  0  0
  159.8940  213.4340  151.4200 O   0  0  0  0  0  0  0  0  0  0  0  0
  157.9430  214.2230  152.5260 C   0  0  0  0  0  1  0  0  0  0  0  0
  159.1280  213.3340  152.4160 C   0  0  0  0  0  0  0  0  0  0  0  0
  1 17  1  1  0  0  0
  2  1  1  0  0  0  0
  3  2  1  0  0  0  0
  3  1  1  0  0  0  0
  4  3  1  0  0  0  0
  5  7  1  0  0  0  0
  5  6  1  0  0  0  0
  7  6  1  0  0  0  0
  7  4  1  0  0  0  0
  8 16  1  0  0  0  0
  8  7  1  0  0  0  0
  9  8  2  0  0  0  0
 10  8  2  0  0  0  0
 11 12  1  0  0  0  0
 13 15  1  0  0  0  0
 13 11  1  0  0  0  0
 14 12  1  0  0  0  0
 15 16  1  0  0  0  0
 16 14  1  0  0  0  0
 17 18  1  0  0  0  0
 19 18  1  0  0  0  0
 20 25  1  1  0  0  0
 20 21  1  0  0  0  0
 22 21  1  0  0  0  0
 23 24  1  0  0  0  0
 23 20  1  0  0  0  0
 24 19  1  1  0  0  0
 24 22  1  0  0  0  0
 26 28  2  0  0  0  0
 28 27  1  0  0  0  0
 28 25  1  0  0  0  0
M  END
>  <MODEL>
2

>  <REMARK>
 VINA RESULT:      -6.9      2.370      3.208
  Name = 
  9 active torsions:
  status: ('A' for Active; 'I' for Inactive)
    1  A    between atoms: C_1  and  C_13
    2  A    between atoms: C_2  and  O_12
    3  A    between atoms: C_2  and  C_13
    4  A    between atoms: C_3  and  N_19
    5  A    between atoms: C_4  and  C_27
    6  A    between atoms: C_4  and  N_28
    7  A    between atoms: S_9  and  N_23
    8  A    between atoms: S_9  and  C_27
    9  A    between atoms: O_12  and  C_22
                            x       y       z     vdW  Elec       q    Type
                         _______ _______ _______ _____ _____    ______ ____

>  <TORSDO>
F 9

$$$$
=
 OpenBabel11072414093D

 28 31  0  0  1  0  0  0  0  0999 V2000
  162.0160  207.1430  149.3670 C   0  0  2  0  0  3  0  0  0  0  0  0
  162.0160  208.3840  148.6040 C   0  0  0  0  0  2  0  0  0  0  0  0
  161.2760  207.2200  148.1000 N   0  0  0  0  0  0  0  0  0  0  0  0
  162.1190  206.5930  147.0950 C   0  0  0  0  0  2  0  0  0  0  0  0
  159.8280  206.0470  146.0840 C   0  0  0  0  0  2  0  0  0  0  0  0
  160.7920  206.3150  144.9350 C   0  0  0  0  0  2  0  0  0  0  0  0
  161.2860  205.6770  146.2140 C   0  0  0  0  0  0  0  0  0  0  0  0
  161.7290  203.9410  146.0670 S   0  0  0  0  0  0  0  0  0  0  0  0
  160.7730  203.2830  145.1110 O   0  0  0  0  0  0  0  0  0  0  0  0
  163.1140  203.8520  145.4870 O   0  0  0  0  0  0  0  0  0  0  0  0
  160.3150  201.7050  149.7070 C   0  0  0  0  0  2  0  0  0  0  0  0
  161.1110  200.9540  148.6450 C   0  0  0  0  0  2  0  0  0  0  0  0
  160.8650  203.1180  149.8750 C   0  0  0  0  0  2  0  0  0  0  0  0
  161.1140  201.7560  147.3470 C   0  0  0  0  0  2  0  0  0  0  0  0
  160.8780  203.8240  148.5220 C   0  0  0  0  0  2  0  0  0  0  0  0
  161.7060  203.0760  147.5740 N   0  0  0  0  0  0  0  0  0  0  0  0
  161.0340  207.2510  150.5180 C   0  0  0  0  0  2  0  0  0  0  0  0
  161.7760  207.5190  151.8160 C   0  0  0  0  0  2  0  0  0  0  0  0
  160.8700  207.8670  152.8220 O   0  0  0  0  0  0  0  0  0  0  0  0
  160.4830  211.4700  153.2440 C   0  0  1  0  0  3  0  0  0  0  0  0
  160.7920  211.1190  155.0050 S   0  0  0  0  0  0  0  0  0  0  0  0
  161.0600  209.3500  154.6760 C   0  0  0  0  0  2  0  0  0  0  0  0
  160.2870  210.1550  152.5260 C   0  0  0  0  0  2  0  0  0  0  0  0
  161.2200  209.1680  153.1830 C   0  0  2  0  0  3  0  0  0  0  0  0
  159.2900  212.2910  153.0940 N   0  0  0  0  0  2  0  0  0  0  0  0
  159.9830  213.2930  151.0980 O   0  0  0  0  0  0  0  0  0  0  0  0
  157.8780  214.0210  151.9290 C   0  0  0  0  0  1  0  0  0  0  0  0
  159.1100  213.1930  152.0020 C   0  0  0  0  0  0  0  0  0  0  0  0
  1 17  1  1  0  0  0
  2  1  1  0  0  0  0
  3  2  1  0  0  0  0
  3  1  1  0  0  0  0
  4  3  1  0  0  0  0
  5  7  1  0  0  0  0
  6  5  1  0  0  0  0
  6  7  1  0  0  0  0
  7  4  1  0  0  0  0
  8  7  1  0  0  0  0
  8 16  1  0  0  0  0
  9  8  2  0  0  0  0
 10  8  2  0  0  0  0
 11 13  1  0  0  0  0
 12 11  1  0  0  0  0
 14 16  1  0  0  0  0
 14 12  1  0  0  0  0
 15 13  1  0  0  0  0
 16 15  1  0  0  0  0
 17 18  1  0  0  0  0
 18 19  1  0  0  0  0
 20 25  1  1  0  0  0
 20 21  1  0  0  0  0
 22 21  1  0  0  0  0
 23 24  1  0  0  0  0
 23 20  1  0  0  0  0
 24 19  1  1  0  0  0
 24 22  1  0  0  0  0
 26 28  2  0  0  0  0
 27 28  1  0  0  0  0
 28 25  1  0  0  0  0
M  END
>  <MODEL>
3

>  <REMARK>
 VINA RESULT:      -6.8      2.042      2.351
  Name = 
  9 active torsions:
  status: ('A' for Active; 'I' for Inactive)
    1  A    between atoms: C_1  and  C_13
    2  A    between atoms: C_2  and  O_12
    3  A    between atoms: C_2  and  C_13
    4  A    between atoms: C_3  and  N_19
    5  A    between atoms: C_4  and  C_27
    6  A    between atoms: C_4  and  N_28
    7  A    between atoms: S_9  and  N_23
    8  A    between atoms: S_9  and  C_27
    9  A    between atoms: O_12  and  C_22
                            x       y       z     vdW  Elec       q    Type
                         _______ _______ _______ _____ _____    ______ ____

>  <TORSDO>
F 9

$$$$
=
 OpenBabel11072414093D

 28 31  0  0  1  0  0  0  0  0999 V2000
  160.8510  206.1330  152.5860 C   0  0  2  0  0  3  0  0  0  0  0  0
  162.0320  206.8420  152.1080 C   0  0  0  0  0  2  0  0  0  0  0  0
  161.5900  207.0180  153.4980 N   0  0  0  0  0  0  0  0  0  0  0  0
  160.8510  208.2680  153.5450 C   0  0  0  0  0  2  0  0  0  0  0  0
  160.0130  207.5980  155.8720 C   0  0  0  0  0  2  0  0  0  0  0  0
  161.4840  207.9750  155.9970 C   0  0  0  0  0  2  0  0  0  0  0  0
  160.6000  208.6720  154.9880 C   0  0  0  0  0  0  0  0  0  0  0  0
  160.2180  210.3840  155.3790 S   0  0  0  0  0  0  0  0  0  0  0  0
  159.9150  210.4840  156.8480 O   0  0  0  0  0  0  0  0  0  0  0  0
  161.4330  211.2210  155.0870 O   0  0  0  0  0  0  0  0  0  0  0  0
  156.9140  213.0890  153.9570 C   0  0  0  0  0  2  0  0  0  0  0  0
  158.1370  212.8900  153.0670 C   0  0  0  0  0  2  0  0  0  0  0  0
  156.5500  211.7810  154.6520 C   0  0  0  0  0  2  0  0  0  0  0  0
  159.2810  212.3110  153.8940 C   0  0  0  0  0  2  0  0  0  0  0  0
  157.7650  211.2510  155.4080 C   0  0  0  0  0  2  0  0  0  0  0  0
  158.8760  211.0310  154.4810 N   0  0  0  0  0  0  0  0  0  0  0  0
  161.2110  204.6930  152.8990 C   0  0  0  0  0  2  0  0  0  0  0  0
  161.7310  204.0010  151.6510 C   0  0  0  0  0  2  0  0  0  0  0  0
  161.2400  202.6940  151.5890 O   0  0  0  0  0  0  0  0  0  0  0  0
  160.8250  203.2530  148.0070 C   0  0  1  0  0  3  0  0  0  0  0  0
  160.8890  201.4350  147.8950 S   0  0  0  0  0  0  0  0  0  0  0  0
  160.9990  201.2590  149.7030 C   0  0  0  0  0  2  0  0  0  0  0  0
  161.2110  203.6550  149.4120 C   0  0  0  0  0  2  0  0  0  0  0  0
  160.6540  202.5930  150.3270 C   0  0  2  0  0  3  0  0  0  0  0  0
  161.7500  203.8500  147.0560 N   0  0  0  0  0  2  0  0  0  0  0  0
  160.5730  205.8610  146.8650 O   0  0  0  0  0  0  0  0  0  0  0  0
  162.5290  205.6920  145.5240 C   0  0  0  0  0  1  0  0  0  0  0  0
  161.5570  205.1570  146.5120 C   0  0  0  0  0  0  0  0  0  0  0  0
  1 17  1  1  0  0  0
  1  3  1  0  0  0  0
  2  1  1  0  0  0  0
  2  3  1  0  0  0  0
  3  4  1  0  0  0  0
  4  7  1  0  0  0  0
  5  6  1  0  0  0  0
  7  8  1  0  0  0  0
  7  5  1  0  0  0  0
  7  6  1  0  0  0  0
  8  9  2  0  0  0  0
 10  8  2  0  0  0  0
 11 13  1  0  0  0  0
 12 14  1  0  0  0  0
 12 11  1  0  0  0  0
 13 15  1  0  0  0  0
 14 16  1  0  0  0  0
 16  8  1  0  0  0  0
 16 15  1  0  0  0  0
 18 17  1  0  0  0  0
 19 18  1  0  0  0  0
 20 25  1  6  0  0  0
 20 23  1  0  0  0  0
 21 20  1  0  0  0  0
 21 22  1  0  0  0  0
 22 24  1  0  0  0  0
 23 24  1  0  0  0  0
 24 19  1  1  0  0  0
 27 28  1  0  0  0  0
 28 26  2  0  0  0  0
 28 25  1  0  0  0  0
M  END
>  <MODEL>
4

>  <REMARK>
 VINA RESULT:      -6.7      2.306      9.540
  Name = 
  9 active torsions:
  status: ('A' for Active; 'I' for Inactive)
    1  A    between atoms: C_1  and  C_13
    2  A    between atoms: C_2  and  O_12
    3  A    between atoms: C_2  and  C_13
    4  A    between atoms: C_3  and  N_19
    5  A    between atoms: C_4  and  C_27
    6  A    between atoms: C_4  and  N_28
    7  A    between atoms: S_9  and  N_23
    8  A    between atoms: S_9  and  C_27
    9  A    between atoms: O_12  and  C_22
                            x       y       z     vdW  Elec       q    Type
                         _______ _______ _______ _____ _____    ______ ____

>  <TORSDO>
F 9

$$$$
=
 OpenBabel11072414093D

 28 31  0  0  1  0  0  0  0  0999 V2000
  161.0220  207.2470  152.3160 C   0  0  2  0  0  3  0  0  0  0  0  0
  161.7160  208.1060  151.3660 C   0  0  0  0  0  2  0  0  0  0  0  0
  161.5540  208.5430  152.7590 N   0  0  0  0  0  0  0  0  0  0  0  0
  160.4280  209.4620  152.7790 C   0  0  0  0  0  2  0  0  0  0  0  0
  160.1720  209.2300  155.3180 C   0  0  0  0  0  2  0  0  0  0  0  0
  161.5170  209.8910  155.0450 C   0  0  0  0  0  2  0  0  0  0  0  0
  160.3400  210.1490  154.1310 C   0  0  0  0  0  0  0  0  0  0  0  0
  159.6470  211.8040  154.2460 S   0  0  0  0  0  0  0  0  0  0  0  0
  160.3290  212.5320  155.3700 O   0  0  0  0  0  0  0  0  0  0  0  0
  159.9420  212.5310  152.9630 O   0  0  0  0  0  0  0  0  0  0  0  0
  155.5510  212.9910  155.6810 C   0  0  0  0  0  2  0  0  0  0  0  0
  155.8880  213.1520  154.2020 C   0  0  0  0  0  2  0  0  0  0  0  0
  156.1850  211.7170  156.2310 C   0  0  0  0  0  2  0  0  0  0  0  0
  157.4010  213.1060  154.0160 C   0  0  0  0  0  2  0  0  0  0  0  0
  157.6860  211.7350  155.9540 C   0  0  0  0  0  2  0  0  0  0  0  0
  157.9300  211.8330  154.5130 N   0  0  0  0  0  0  0  0  0  0  0  0
  161.9550  206.1460  152.7850 C   0  0  0  0  0  2  0  0  0  0  0  0
  161.9680  205.0080  151.7800 C   0  0  0  0  0  2  0  0  0  0  0  0
  161.0190  204.0450  152.1340 O   0  0  0  0  0  0  0  0  0  0  0  0
  160.8530  203.5240  148.5270 C   0  0  1  0  0  3  0  0  0  0  0  0
  160.8820  201.7530  148.9590 S   0  0  0  0  0  0  0  0  0  0  0  0
  160.8700  202.1180  150.7410 C   0  0  0  0  0  2  0  0  0  0  0  0
  161.1550  204.3210  149.7740 C   0  0  0  0  0  2  0  0  0  0  0  0
  160.5140  203.5780  150.9200 C   0  0  2  0  0  3  0  0  0  0  0  0
  161.8520  203.8120  147.5090 N   0  0  0  0  0  2  0  0  0  0  0  0
  160.7950  205.7460  146.7290 O   0  0  0  0  0  0  0  0  0  0  0  0
  162.7980  205.1510  145.5970 C   0  0  0  0  0  1  0  0  0  0  0  0
  161.7540  204.9350  146.6320 C   0  0  0  0  0  0  0  0  0  0  0  0
  1  3  1  0  0  0  0
  1 17  1  1  0  0  0
  2  1  1  0  0  0  0
  2  3  1  0  0  0  0
  3  4  1  0  0  0  0
  4  7  1  0  0  0  0
  6  5  1  0  0  0  0
  7  8  1  0  0  0  0
  7  6  1  0  0  0  0
  7  5  1  0  0  0  0
  8 16  1  0  0  0  0
  8  9  2  0  0  0  0
 10  8  2  0  0  0  0
 11 13  1  0  0  0  0
 12 11  1  0  0  0  0
 14 12  1  0  0  0  0
 14 16  1  0  0  0  0
 15 13  1  0  0  0  0
 16 15  1  0  0  0  0
 18 19  1  0  0  0  0
 18 17  1  0  0  0  0
 20 25  1  6  0  0  0
 20 21  1  0  0  0  0
 20 23  1  0  0  0  0
 21 22  1  0  0  0  0
 22 24  1  0  0  0  0
 23 24  1  0  0  0  0
 24 19  1  1  0  0  0
 27 28  1  0  0  0  0
 28 26  2  0  0  0  0
 28 25  1  0  0  0  0
M  END
>  <MODEL>
5

>  <REMARK>
 VINA RESULT:      -6.6      2.511      9.572
  Name = 
  9 active torsions:
  status: ('A' for Active; 'I' for Inactive)
    1  A    between atoms: C_1  and  C_13
    2  A    between atoms: C_2  and  O_12
    3  A    between atoms: C_2  and  C_13
    4  A    between atoms: C_3  and  N_19
    5  A    between atoms: C_4  and  C_27
    6  A    between atoms: C_4  and  N_28
    7  A    between atoms: S_9  and  N_23
    8  A    between atoms: S_9  and  C_27
    9  A    between atoms: O_12  and  C_22
                            x       y       z     vdW  Elec       q    Type
                         _______ _______ _______ _____ _____    ______ ____

>  <TORSDO>
F 9

$$$$
=
 OpenBabel11072414093D

 28 31  0  0  1  0  0  0  0  0999 V2000
  161.0100  206.2750  152.2290 C   0  0  2  0  0  3  0  0  0  0  0  0
  162.3040  206.9430  152.2080 C   0  0  0  0  0  2  0  0  0  0  0  0
  161.5060  206.9390  153.4420 N   0  0  0  0  0  0  0  0  0  0  0  0
  160.8350  208.2270  153.5070 C   0  0  0  0  0  2  0  0  0  0  0  0
  159.8290  207.5560  155.7670 C   0  0  0  0  0  2  0  0  0  0  0  0
  161.3230  207.7770  155.9690 C   0  0  0  0  0  2  0  0  0  0  0  0
  160.5600  208.5980  154.9540 C   0  0  0  0  0  0  0  0  0  0  0  0
  160.3310  210.3240  155.4020 S   0  0  0  0  0  0  0  0  0  0  0  0
  160.1130  210.4090  156.8870 O   0  0  0  0  0  0  0  0  0  0  0  0
  161.5910  211.0740  155.0650 O   0  0  0  0  0  0  0  0  0  0  0  0
  156.9480  213.1250  154.4190 C   0  0  0  0  0  2  0  0  0  0  0  0
  158.2220  213.1870  153.5820 C   0  0  0  0  0  2  0  0  0  0  0  0
  156.6280  211.6780  154.7840 C   0  0  0  0  0  2  0  0  0  0  0  0
  159.3560  212.4890  154.3270 C   0  0  0  0  0  2  0  0  0  0  0  0
  157.8340  211.0480  155.4760 C   0  0  0  0  0  2  0  0  0  0  0  0
  158.9990  211.0930  154.5910 N   0  0  0  0  0  0  0  0  0  0  0  0
  161.2090  204.7780  152.3700 C   0  0  0  0  0  2  0  0  0  0  0  0
  161.1120  204.1060  151.0120 C   0  0  0  0  0  2  0  0  0  0  0  0
  160.6080  205.0050  150.0680 O   0  0  0  0  0  0  0  0  0  0  0  0
  161.8380  203.8610  146.8290 C   0  0  1  0  0  3  0  0  0  0  0  0
  161.8390  205.6330  146.4020 S   0  0  0  0  0  0  0  0  0  0  0  0
  161.3130  206.1080  148.0770 C   0  0  0  0  0  2  0  0  0  0  0  0
  161.1250  203.6930  148.1520 C   0  0  0  0  0  2  0  0  0  0  0  0
  161.4750  204.9050  148.9800 C   0  0  2  0  0  3  0  0  0  0  0  0
  161.1480  203.0940  145.8020 N   0  0  0  0  0  2  0  0  0  0  0  0
  160.9760  201.1470  147.0850 O   0  0  0  0  0  0  0  0  0  0  0  0
  160.0810  201.0040  144.8880 C   0  0  0  0  0  1  0  0  0  0  0  0
  160.7570  201.7340  145.9920 C   0  0  0  0  0  0  0  0  0  0  0  0
  1 17  1  1  0  0  0
  1  3  1  0  0  0  0
  2  1  1  0  0  0  0
  2  3  1  0  0  0  0
  3  4  1  0  0  0  0
  4  7  1  0  0  0  0
  5  6  1  0  0  0  0
  7  8  1  0  0  0  0
  7  5  1  0  0  0  0
  7  6  1  0  0  0  0
  8  9  2  0  0  0  0
 10  8  2  0  0  0  0
 11 13  1  0  0  0  0
 12 14  1  0  0  0  0
 12 11  1  0  0  0  0
 13 15  1  0  0  0  0
 14 16  1  0  0  0  0
 16  8  1  0  0  0  0
 16 15  1  0  0  0  0
 18 17  1  0  0  0  0
 19 18  1  0  0  0  0
 20 25  1  6  0  0  0
 20 23  1  0  0  0  0
 21 20  1  0  0  0  0
 21 22  1  0  0  0  0
 22 24  1  0  0  0  0
 23 24  1  0  0  0  0
 24 19  1  1  0  0  0
 25 28  1  0  0  0  0
 27 28  1  0  0  0  0
 28 26  2  0  0  0  0
M  END
>  <MODEL>
6

>  <REMARK>
 VINA RESULT:      -6.5      2.261     10.006
  Name = 
  9 active torsions:
  status: ('A' for Active; 'I' for Inactive)
    1  A    between atoms: C_1  and  C_13
    2  A    between atoms: C_2  and  O_12
    3  A    between atoms: C_2  and  C_13
    4  A    between atoms: C_3  and  N_19
    5  A    between atoms: C_4  and  C_27
    6  A    between atoms: C_4  and  N_28
    7  A    between atoms: S_9  and  N_23
    8  A    between atoms: S_9  and  C_27
    9  A    between atoms: O_12  and  C_22
                            x       y       z     vdW  Elec       q    Type
                         _______ _______ _______ _____ _____    ______ ____

>  <TORSDO>
F 9

$$$$
=
 OpenBabel11072414093D

 28 31  0  0  1  0  0  0  0  0999 V2000
  162.1370  205.6420  147.1360 C   0  0  2  0  0  3  0  0  0  0  0  0
  161.9730  205.6240  145.6880 C   0  0  0  0  0  2  0  0  0  0  0  0
  161.1930  204.6990  146.5210 N   0  0  0  0  0  0  0  0  0  0  0  0
  161.8730  203.4160  146.4660 C   0  0  0  0  0  2  0  0  0  0  0  0
  159.6960  202.2640  145.7590 C   0  0  0  0  0  2  0  0  0  0  0  0
  160.8300  201.2600  145.5890 C   0  0  0  0  0  2  0  0  0  0  0  0
  160.8800  202.2890  146.6960 C   0  0  0  0  0  0  0  0  0  0  0  0
  160.6550  201.6240  148.3510 S   0  0  0  0  0  0  0  0  0  0  0  0
  159.1940  201.3350  148.5570 O   0  0  0  0  0  0  0  0  0  0  0  0
  161.4130  200.3290  148.4500 O   0  0  0  0  0  0  0  0  0  0  0  0
  160.8220  204.0750  152.1220 C   0  0  0  0  0  2  0  0  0  0  0  0
  161.6990  202.8320  152.0130 C   0  0  0  0  0  2  0  0  0  0  0  0
  160.7540  204.7920  150.7770 C   0  0  0  0  0  2  0  0  0  0  0  0
  161.1870  201.9440  150.8830 C   0  0  0  0  0  2  0  0  0  0  0  0
  160.2840  203.8160  149.7030 C   0  0  0  0  0  2  0  0  0  0  0  0
  161.2050  202.6820  149.6170 N   0  0  0  0  0  0  0  0  0  0  0  0
  161.3590  206.8040  147.7240 C   0  0  0  0  0  2  0  0  0  0  0  0
  162.3140  207.8290  148.3110 C   0  0  0  0  0  2  0  0  0  0  0  0
  162.6180  207.4980  149.6340 O   0  0  0  0  0  0  0  0  0  0  0  0
  161.0380  208.8220  152.6440 C   0  0  1  0  0  3  0  0  0  0  0  0
  161.2740  210.4420  151.8420 S   0  0  0  0  0  0  0  0  0  0  0  0
  161.9650  209.6770  150.3440 C   0  0  0  0  0  2  0  0  0  0  0  0
  161.7970  207.7850  151.8490 C   0  0  0  0  0  2  0  0  0  0  0  0
  161.6810  208.1920  150.4000 C   0  0  2  0  0  3  0  0  0  0  0  0
  161.5440  208.8560  154.0090 N   0  0  0  0  0  2  0  0  0  0  0  0
  160.2310  207.0710  154.7550 O   0  0  0  0  0  0  0  0  0  0  0  0
  161.6250  208.0700  156.4000 C   0  0  0  0  0  1  0  0  0  0  0  0
  161.0850  207.9590  155.0210 C   0  0  0  0  0  0  0  0  0  0  0  0
  1 17  1  1  0  0  0
  2  3  1  0  0  0  0
  2  1  1  0  0  0  0
  3  1  1  0  0  0  0
  4  3  1  0  0  0  0
  4  7  1  0  0  0  0
  5  7  1  0  0  0  0
  6  5  1  0  0  0  0
  6  7  1  0  0  0  0
  7  8  1  0  0  0  0
  8 10  2  0  0  0  0
  8  9  2  0  0  0  0
  8 16  1  0  0  0  0
 12 11  1  0  0  0  0
 13 11  1  0  0  0  0
 14 12  1  0  0  0  0
 15 13  1  0  0  0  0
 16 15  1  0  0  0  0
 16 14  1  0  0  0  0
 17 18  1  0  0  0  0
 18 19  1  0  0  0  0
 20 25  1  1  0  0  0
 21 20  1  0  0  0  0
 22 24  1  0  0  0  0
 22 21  1  0  0  0  0
 23 20  1  0  0  0  0
 24 19  1  6  0  0  0
 24 23  1  0  0  0  0
 25 28  1  0  0  0  0
 26 28  2  0  0  0  0
 28 27  1  0  0  0  0
M  END
>  <MODEL>
7

>  <REMARK>
 VINA RESULT:      -6.4      2.585      3.640
  Name = 
  9 active torsions:
  status: ('A' for Active; 'I' for Inactive)
    1  A    between atoms: C_1  and  C_13
    2  A    between atoms: C_2  and  O_12
    3  A    between atoms: C_2  and  C_13
    4  A    between atoms: C_3  and  N_19
    5  A    between atoms: C_4  and  C_27
    6  A    between atoms: C_4  and  N_28
    7  A    between atoms: S_9  and  N_23
    8  A    between atoms: S_9  and  C_27
    9  A    between atoms: O_12  and  C_22
                            x       y       z     vdW  Elec       q    Type
                         _______ _______ _______ _____ _____    ______ ____

>  <TORSDO>
F 9

$$$$
=
 OpenBabel11072414093D

 28 31  0  0  1  0  0  0  0  0999 V2000
  160.8700  206.3390  151.7170 C   0  0  2  0  0  3  0  0  0  0  0  0
  161.4950  205.0220  151.6980 C   0  0  0  0  0  2  0  0  0  0  0  0
  161.7940  205.9850  150.6290 N   0  0  0  0  0  0  0  0  0  0  0  0
  160.9660  205.6160  149.4930 C   0  0  0  0  0  2  0  0  0  0  0  0
  161.3010  207.7180  148.0660 C   0  0  0  0  0  2  0  0  0  0  0  0
  162.6790  207.1820  148.4370 C   0  0  0  0  0  2  0  0  0  0  0  0
  161.5220  206.2320  148.2210 C   0  0  0  0  0  0  0  0  0  0  0  0
  161.6340  205.2390  146.7270 S   0  0  0  0  0  0  0  0  0  0  0  0
  160.9400  205.9710  145.6120 O   0  0  0  0  0  0  0  0  0  0  0  0
  163.0860  205.0890  146.3630 O   0  0  0  0  0  0  0  0  0  0  0  0
  161.1470  200.7680  146.9120 C   0  0  0  0  0  2  0  0  0  0  0  0
  160.9670  201.5820  148.1900 C   0  0  0  0  0  2  0  0  0  0  0  0
  160.5710  201.5250  145.7200 C   0  0  0  0  0  2  0  0  0  0  0  0
  161.5800  202.9670  148.0030 C   0  0  0  0  0  2  0  0  0  0  0  0
  161.2020  202.9130  145.6440 C   0  0  0  0  0  2  0  0  0  0  0  0
  160.9380  203.6530  146.8800 N   0  0  0  0  0  0  0  0  0  0  0  0
  161.5930  207.2340  152.7050 C   0  0  0  0  0  2  0  0  0  0  0  0
  160.8420  208.5430  152.8730 C   0  0  0  0  0  2  0  0  0  0  0  0
  161.6470  209.6120  152.4680 O   0  0  0  0  0  0  0  0  0  0  0  0
  159.3310  211.6400  154.4260 C   0  0  1  0  0  3  0  0  0  0  0  0
  160.5990  211.5130  155.7300 S   0  0  0  0  0  0  0  0  0  0  0  0
  161.7230  210.5850  154.6410 C   0  0  0  0  0  2  0  0  0  0  0  0
  159.7000  210.6870  153.3130 C   0  0  0  0  0  2  0  0  0  0  0  0
  161.2060  210.6980  153.2240 C   0  0  2  0  0  3  0  0  0  0  0  0
  158.0230  211.2870  154.9580 N   0  0  0  0  0  2  0  0  0  0  0  0
  157.5760  213.4140  155.8220 O   0  0  0  0  0  0  0  0  0  0  0  0
  155.8880  211.7830  156.1990 C   0  0  0  0  0  1  0  0  0  0  0  0
  157.2010  212.2210  155.6590 C   0  0  0  0  0  0  0  0  0  0  0  0
  1 17  1  1  0  0  0
  2  1  1  0  0  0  0
  3  2  1  0  0  0  0
  3  1  1  0  0  0  0
  4  3  1  0  0  0  0
  5  7  1  0  0  0  0
  5  6  1  0  0  0  0
  7  6  1  0  0  0  0
  7  4  1  0  0  0  0
  8 16  1  0  0  0  0
  8  7  1  0  0  0  0
  9  8  2  0  0  0  0
 10  8  2  0  0  0  0
 11 12  1  0  0  0  0
 13 11  1  0  0  0  0
 14 12  1  0  0  0  0
 15 13  1  0  0  0  0
 15 16  1  0  0  0  0
 16 14  1  0  0  0  0
 17 18  1  0  0  0  0
 19 18  1  0  0  0  0
 20 25  1  1  0  0  0
 20 21  1  0  0  0  0
 22 21  1  0  0  0  0
 23 20  1  0  0  0  0
 24 19  1  6  0  0  0
 24 23  1  0  0  0  0
 24 22  1  0  0  0  0
 25 28  1  0  0  0  0
 28 26  2  0  0  0  0
 28 27  1  0  0  0  0
M  END
>  <MODEL>
8

>  <REMARK>
 VINA RESULT:      -6.4      2.243      3.090
  Name = 
  9 active torsions:
  status: ('A' for Active; 'I' for Inactive)
    1  A    between atoms: C_1  and  C_13
    2  A    between atoms: C_2  and  O_12
    3  A    between atoms: C_2  and  C_13
    4  A    between atoms: C_3  and  N_19
    5  A    between atoms: C_4  and  C_27
    6  A    between atoms: C_4  and  N_28
    7  A    between atoms: S_9  and  N_23
    8  A    between atoms: S_9  and  C_27
    9  A    between atoms: O_12  and  C_22
                            x       y       z     vdW  Elec       q    Type
                         _______ _______ _______ _____ _____    ______ ____

>  <TORSDO>
F 9

$$$$
=
 OpenBabel11072414093D

 28 31  0  0  1  0  0  0  0  0999 V2000
  161.4380  207.3040  154.2200 C   0  0  2  0  0  3  0  0  0  0  0  0
  160.8340  207.8900  153.0300 C   0  0  0  0  0  2  0  0  0  0  0  0
  160.8970  206.4290  153.1710 N   0  0  0  0  0  0  0  0  0  0  0  0
  162.0340  205.9840  152.3830 C   0  0  0  0  0  2  0  0  0  0  0  0
  161.8940  203.6660  151.2980 C   0  0  0  0  0  2  0  0  0  0  0  0
  160.4710  204.1440  151.5600 C   0  0  0  0  0  2  0  0  0  0  0  0
  161.5590  205.1360  151.2150 C   0  0  0  0  0  0  0  0  0  0  0  0
  161.4140  205.8730  149.5820 S   0  0  0  0  0  0  0  0  0  0  0  0
  159.9740  206.2370  149.3460 O   0  0  0  0  0  0  0  0  0  0  0  0
  162.2320  207.1360  149.5560 O   0  0  0  0  0  0  0  0  0  0  0  0
  161.6710  203.7060  145.6460 C   0  0  0  0  0  2  0  0  0  0  0  0
  162.6940  204.7940  145.9550 C   0  0  0  0  0  2  0  0  0  0  0  0
  161.3500  202.9100  146.9080 C   0  0  0  0  0  2  0  0  0  0  0  0
  162.1840  205.6640  147.1000 C   0  0  0  0  0  2  0  0  0  0  0  0
  160.9000  203.8650  148.0110 C   0  0  0  0  0  2  0  0  0  0  0  0
  161.9540  204.8410  148.2900 N   0  0  0  0  0  0  0  0  0  0  0  0
  160.4540  207.3580  155.3730 C   0  0  0  0  0  2  0  0  0  0  0  0
  160.0990  208.7990  155.6920 C   0  0  0  0  0  2  0  0  0  0  0  0
  161.2420  209.4940  156.0990 O   0  0  0  0  0  0  0  0  0  0  0  0
  159.2720  212.4370  155.2220 C   0  0  1  0  0  3  0  0  0  0  0  0
  160.0420  213.1750  156.7000 S   0  0  0  0  0  0  0  0  0  0  0  0
  161.0530  211.6920  156.9980 C   0  0  0  0  0  2  0  0  0  0  0  0
  159.5930  210.9610  155.2070 C   0  0  0  0  0  2  0  0  0  0  0  0
  160.9900  210.8240  155.7600 C   0  0  2  0  0  3  0  0  0  0  0  0
  157.8280  212.6220  155.2590 N   0  0  0  0  0  2  0  0  0  0  0  0
  157.6640  213.3710  153.0500 O   0  0  0  0  0  0  0  0  0  0  0  0
  155.6180  213.2980  154.2580 C   0  0  0  0  0  1  0  0  0  0  0  0
  157.0870  213.1070  154.1390 C   0  0  0  0  0  0  0  0  0  0  0  0
  1 17  1  1  0  0  0
  2  3  1  0  0  0  0
  2  1  1  0  0  0  0
  3  1  1  0  0  0  0
  4  3  1  0  0  0  0
  5  6  1  0  0  0  0
  7  5  1  0  0  0  0
  7  6  1  0  0  0  0
  7  4  1  0  0  0  0
  8  7  1  0  0  0  0
  9  8  2  0  0  0  0
 10  8  2  0  0  0  0
 11 12  1  0  0  0  0
 11 13  1  0  0  0  0
 12 14  1  0  0  0  0
 13 15  1  0  0  0  0
 14 16  1  0  0  0  0
 15 16  1  0  0  0  0
 16  8  1  0  0  0  0
 17 18  1  0  0  0  0
 18 19  1  0  0  0  0
 20 25  1  1  0  0  0
 20 21  1  0  0  0  0
 21 22  1  0  0  0  0
 23 20  1  0  0  0  0
 23 24  1  0  0  0  0
 24 19  1  1  0  0  0
 24 22  1  0  0  0  0
 26 28  2  0  0  0  0
 28 27  1  0  0  0  0
 28 25  1  0  0  0  0
M  END
>  <MODEL>
9

>  <REMARK>
 VINA RESULT:      -6.1      2.671      4.589
  Name = 
  9 active torsions:
  status: ('A' for Active; 'I' for Inactive)
    1  A    between atoms: C_1  and  C_13
    2  A    between atoms: C_2  and  O_12
    3  A    between atoms: C_2  and  C_13
    4  A    between atoms: C_3  and  N_19
    5  A    between atoms: C_4  and  C_27
    6  A    between atoms: C_4  and  N_28
    7  A    between atoms: S_9  and  N_23
    8  A    between atoms: S_9  and  C_27
    9  A    between atoms: O_12  and  C_22
                            x       y       z     vdW  Elec       q    Type
                         _______ _______ _______ _____ _____    ______ ____

>  <TORSDO>
F 9

$$$$
