=
 OpenBabel11072412273D

 33 37  0  0  1  0  0  0  0  0999 V2000
  160.4670  208.9580  152.2860 C   0  0  1  0  0  3  0  0  0  0  0  0
  162.5300  206.6480  151.9880 C   0  0  0  0  0  2  0  0  0  0  0  0
  159.8980  210.2350  152.3170 O   0  0  0  0  0  1  0  0  0  0  0  0
  161.8020  209.0080  151.5950 C   0  0  0  0  0  0  0  0  0  0  0  0
  162.3780  207.7750  150.9570 C   0  0  2  0  0  3  0  0  0  0  0  0
  161.1770  206.1480  152.4880 C   0  0  0  0  0  2  0  0  0  0  0  0
  160.6660  208.4020  153.7020 C   0  0  2  0  0  3  0  0  0  0  0  0
  162.4600  210.0360  151.6000 O   0  0  0  0  0  0  0  0  0  0  0  0
  160.7130  206.8640  153.7580 C   0  0  0  0  0  2  0  0  0  0  0  0
  162.1480  207.9980  148.4490 C   0  0  0  0  0  2  0  0  0  0  0  0
  161.3730  204.4820  145.9540 C   0  0  0  0  0  3  0  0  0  0  0  0
  161.5900  207.3450  149.7100 C   0  0  1  0  0  3  0  0  0  0  0  0
  160.8630  203.9470  150.3970 C   0  0  0  0  0  2  0  0  0  0  0  0
  161.6990  205.8470  149.4720 C   0  0  2  0  0  3  0  0  0  0  0  0
  161.7850  203.1070  149.4920 C   0  0  0  0  0  2  0  0  0  0  0  0
  161.8770  205.6810  148.0390 N   0  0  0  0  0  0  0  0  0  0  0  0
  162.0730  206.9470  147.3580 C   0  0  0  0  0  2  0  0  0  0  0  0
  161.1050  202.0540  147.3130 C   0  0  0  0  0  0  0  0  0  0  0  0
  160.5160  205.2080  149.8670 O   0  0  0  0  0  0  0  0  0  0  0  0
  160.8960  202.1160  145.9350 C   0  0  0  0  0  3  0  0  0  0  0  0
  161.5860  204.4510  147.3400 C   0  0  0  0  0  0  0  0  0  0  0  0
  160.9380  200.4950  148.1090 Cl  0  0  0  0  0  0  0  0  0  0  0  0
  161.0320  203.3250  145.2550 C   0  0  0  0  0  3  0  0  0  0  0  0
  161.4550  203.2160  148.0290 C   0  0  0  0  0  0  0  0  0  0  0  0
  158.4730  211.8570  156.4590 C   0  0  0  0  0  0  0  0  0  0  0  0
  160.5730  211.2470  154.6190 C   0  0  0  0  0  2  0  0  0  0  0  0
  159.4860  212.8720  156.1550 C   0  0  0  0  0  0  0  0  0  0  0  0
  159.6220  208.8790  154.6010 N   0  0  0  0  0  2  0  0  0  0  0  0
  157.4970  212.1250  157.2600 N   0  0  0  0  0  2  0  0  0  0  0  0
  159.4390  214.0960  156.7400 F   0  0  0  0  0  0  0  0  0  0  0  0
  159.5650  210.2200  155.0950 C   0  0  0  0  0  0  0  0  0  0  0  0
  158.6070  210.5420  155.9140 N   0  0  0  0  0  0  0  0  0  0  0  0
  160.4760  212.5770  155.3170 C   0  0  0  0  0  3  0  0  0  0  0  0
  1  3  1  1  0  0  0
  1  7  1  0  0  0  0
  2  6  1  0  0  0  0
  4  8  2  0  0  0  0
  4  1  1  0  0  0  0
  5  4  1  0  0  0  0
  5  2  1  1  0  0  0
  6  9  1  0  0  0  0
  7  9  1  0  0  0  0
  7 28  1  1  0  0  0
 11 21  1  0  0  0  0
 12 10  1  6  0  0  0
 12  5  1  0  0  0  0
 14 12  1  0  0  0  0
 14 19  1  6  0  0  0
 15 13  1  0  0  0  0
 16 14  1  0  0  0  0
 17 16  1  0  0  0  0
 17 10  1  0  0  0  0
 18 24  1  0  0  0  0
 18 22  1  0  0  0  0
 19 13  1  0  0  0  0
 20 18  2  0  0  0  0
 21 24  2  0  0  0  0
 21 16  1  0  0  0  0
 23 20  1  0  0  0  0
 23 11  2  0  0  0  0
 24 15  1  0  0  0  0
 25 29  2  0  0  0  0
 26 31  1  0  0  0  0
 26 33  1  0  0  0  0
 27 25  1  0  0  0  0
 27 30  1  0  0  0  0
 28 31  1  0  0  0  0
 31 32  2  0  0  0  0
 32 25  1  0  0  0  0
 33 27  2  0  0  0  0
M  END
>  <MODEL>
1

>  <REMARK>
 VINA RESULT:      -9.6      0.000      0.000
  Name = 
  2 active torsions:
  status: ('A' for Active; 'I' for Inactive)
    1  A    between atoms: C_8  and  C_16
    2  A    between atoms: N_19  and  C_27
                            x       y       z     vdW  Elec       q    Type
                         _______ _______ _______ _____ _____    ______ ____

>  <TORSDO>
F 2

$$$$
=
 OpenBabel11072412273D

 33 37  0  0  1  0  0  0  0  0999 V2000
  161.2790  205.3230  151.3800 C   0  0  1  0  0  3  0  0  0  0  0  0
  162.1140  208.3180  151.2840 C   0  0  0  0  0  2  0  0  0  0  0  0
  161.2700  203.9550  151.6710 O   0  0  0  0  0  1  0  0  0  0  0  0
  162.2330  206.0360  152.2990 C   0  0  0  0  0  0  0  0  0  0  0  0
  162.0660  207.5020  152.5840 C   0  0  2  0  0  3  0  0  0  0  0  0
  160.9150  208.0280  150.3850 C   0  0  0  0  0  2  0  0  0  0  0  0
  161.7060  205.5820  149.9300 C   0  0  2  0  0  3  0  0  0  0  0  0
  163.1890  205.4440  152.7750 O   0  0  0  0  0  0  0  0  0  0  0  0
  161.1920  206.9200  149.3670 C   0  0  0  0  0  2  0  0  0  0  0  0
  160.9340  207.1840  154.8210 C   0  0  0  0  0  2  0  0  0  0  0  0
  158.8150  210.4990  156.7480 C   0  0  0  0  0  3  0  0  0  0  0  0
  160.8150  207.7920  153.4270 C   0  0  1  0  0  3  0  0  0  0  0  0
  159.9620  211.0820  152.4320 C   0  0  0  0  0  2  0  0  0  0  0  0
  160.6280  209.2840  153.6510 C   0  0  2  0  0  3  0  0  0  0  0  0
  160.3530  212.0110  153.5970 C   0  0  0  0  0  2  0  0  0  0  0  0
  160.2250  209.4330  155.0400 N   0  0  0  0  0  0  0  0  0  0  0  0
  160.3140  208.1860  155.7760 C   0  0  0  0  0  2  0  0  0  0  0  0
  158.7660  212.9060  155.3280 C   0  0  0  0  0  0  0  0  0  0  0  0
  159.6090  209.7730  152.8210 O   0  0  0  0  0  0  0  0  0  0  0  0
  158.0600  212.7800  156.5250 C   0  0  0  0  0  3  0  0  0  0  0  0
  159.5320  210.5950  155.5460 C   0  0  0  0  0  0  0  0  0  0  0  0
  158.7090  214.4510  154.4900 Cl  0  0  0  0  0  0  0  0  0  0  0  0
  158.0860  211.5820  157.2360 C   0  0  0  0  0  3  0  0  0  0  0  0
  159.5100  211.8200  154.8280 C   0  0  0  0  0  0  0  0  0  0  0  0
  160.9840  203.5130  145.5080 C   0  0  0  0  0  0  0  0  0  0  0  0
  162.0300  205.7410  146.9620 C   0  0  0  0  0  2  0  0  0  0  0  0
  161.4850  204.6820  144.7790 C   0  0  0  0  0  0  0  0  0  0  0  0
  161.2690  204.4990  149.0560 N   0  0  0  0  0  2  0  0  0  0  0  0
  160.5400  202.4820  144.8700 N   0  0  0  0  0  2  0  0  0  0  0  0
  161.4540  204.7170  143.4230 F   0  0  0  0  0  0  0  0  0  0  0  0
  161.3690  204.5530  147.6310 C   0  0  0  0  0  0  0  0  0  0  0  0
  160.9270  203.5450  146.9370 N   0  0  0  0  0  0  0  0  0  0  0  0
  161.9490  205.7270  145.4580 C   0  0  0  0  0  3  0  0  0  0  0  0
  1  3  1  1  0  0  0
  1  4  1  0  0  0  0
  4  5  1  0  0  0  0
  4  8  2  0  0  0  0
  5  2  1  6  0  0  0
  5 12  1  0  0  0  0
  6  2  1  0  0  0  0
  7 28  1  6  0  0  0
  7  1  1  0  0  0  0
  9  7  1  0  0  0  0
  9  6  1  0  0  0  0
 10 17  1  0  0  0  0
 11 23  1  0  0  0  0
 12 14  1  0  0  0  0
 12 10  1  1  0  0  0
 13 19  1  0  0  0  0
 13 15  1  0  0  0  0
 14 19  1  6  0  0  0
 14 16  1  0  0  0  0
 15 24  1  0  0  0  0
 16 21  1  0  0  0  0
 16 17  1  0  0  0  0
 18 20  1  0  0  0  0
 20 23  2  0  0  0  0
 21 11  2  0  0  0  0
 22 18  1  0  0  0  0
 24 18  2  0  0  0  0
 24 21  1  0  0  0  0
 25 32  1  0  0  0  0
 26 31  1  0  0  0  0
 27 33  2  0  0  0  0
 27 25  1  0  0  0  0
 29 25  2  0  0  0  0
 30 27  1  0  0  0  0
 31 28  1  0  0  0  0
 32 31  2  0  0  0  0
 33 26  1  0  0  0  0
M  END
>  <MODEL>
2

>  <REMARK>
 VINA RESULT:      -9.5      4.250      9.957
  Name = 
  2 active torsions:
  status: ('A' for Active; 'I' for Inactive)
    1  A    between atoms: C_8  and  C_16
    2  A    between atoms: N_19  and  C_27
                            x       y       z     vdW  Elec       q    Type
                         _______ _______ _______ _____ _____    ______ ____

>  <TORSDO>
F 2

$$$$
=
 OpenBabel11072412273D

 33 37  0  0  1  0  0  0  0  0999 V2000
  160.5720  210.5620  154.8420 C   0  0  1  0  0  3  0  0  0  0  0  0
  161.1720  207.5400  155.2680 C   0  0  0  0  0  2  0  0  0  0  0  0
  160.7420  211.9290  154.6010 O   0  0  0  0  0  1  0  0  0  0  0  0
  161.8190  209.8150  154.4570 C   0  0  0  0  0  0  0  0  0  0  0  0
  161.7570  208.3550  154.1060 C   0  0  2  0  0  3  0  0  0  0  0  0
  159.7030  207.8730  155.5150 C   0  0  0  0  0  2  0  0  0  0  0  0
  160.2710  210.2900  156.3210 C   0  0  2  0  0  3  0  0  0  0  0  0
  162.9050  210.3720  154.4860 O   0  0  0  0  0  0  0  0  0  0  0  0
  159.5140  208.9720  156.5630 C   0  0  0  0  0  2  0  0  0  0  0  0
  161.4930  209.0870  151.7010 C   0  0  0  0  0  2  0  0  0  0  0  0
  161.1810  206.1290  148.4840 C   0  0  0  0  0  3  0  0  0  0  0  0
  161.0290  208.1090  152.7750 C   0  0  1  0  0  3  0  0  0  0  0  0
  160.7580  204.5780  152.6910 C   0  0  0  0  0  2  0  0  0  0  0  0
  161.3340  206.7250  152.2220 C   0  0  2  0  0  3  0  0  0  0  0  0
  161.7800  204.0810  151.6510 C   0  0  0  0  0  2  0  0  0  0  0  0
  161.5280  206.9000  150.7920 N   0  0  0  0  0  0  0  0  0  0  0  0
  161.5540  208.2980  150.4070 C   0  0  0  0  0  2  0  0  0  0  0  0
  161.2390  203.4500  149.2790 C   0  0  0  0  0  0  0  0  0  0  0  0
  160.2460  205.8680  152.4380 O   0  0  0  0  0  0  0  0  0  0  0  0
  161.0200  203.7820  147.9420 C   0  0  0  0  0  3  0  0  0  0  0  0
  161.4000  205.8250  149.8360 C   0  0  0  0  0  0  0  0  0  0  0  0
  161.2810  201.7460  149.7140 Cl  0  0  0  0  0  0  0  0  0  0  0  0
  160.9940  205.1180  147.5430 C   0  0  0  0  0  3  0  0  0  0  0  0
  161.4340  204.4630  150.2380 C   0  0  0  0  0  0  0  0  0  0  0  0
  156.4950  213.4650  156.4450 C   0  0  0  0  0  0  0  0  0  0  0  0
  157.6930  211.2270  155.1310 C   0  0  0  0  0  2  0  0  0  0  0  0
  155.9160  212.9670  155.1950 C   0  0  0  0  0  0  0  0  0  0  0  0
  159.5140  211.3890  156.9100 N   0  0  0  0  0  2  0  0  0  0  0  0
  155.9490  214.4530  157.0730 N   0  0  0  0  0  2  0  0  0  0  0  0
  154.8210  213.5580  154.6540 F   0  0  0  0  0  0  0  0  0  0  0  0
  158.3000  211.8940  156.3500 C   0  0  0  0  0  0  0  0  0  0  0  0
  157.7120  212.8960  156.9360 N   0  0  0  0  0  0  0  0  0  0  0  0
  156.4900  211.9400  154.5720 C   0  0  0  0  0  3  0  0  0  0  0  0
  1  3  1  1  0  0  0
  1  7  1  0  0  0  0
  2  6  1  0  0  0  0
  4  8  2  0  0  0  0
  4  1  1  0  0  0  0
  5  4  1  0  0  0  0
  5  2  1  1  0  0  0
  6  9  1  0  0  0  0
  7  9  1  0  0  0  0
  7 28  1  6  0  0  0
 11 21  1  0  0  0  0
 12 10  1  6  0  0  0
 12  5  1  0  0  0  0
 14 19  1  6  0  0  0
 14 12  1  0  0  0  0
 15 13  1  0  0  0  0
 16 14  1  0  0  0  0
 17 16  1  0  0  0  0
 17 10  1  0  0  0  0
 18 22  1  0  0  0  0
 18 24  1  0  0  0  0
 19 13  1  0  0  0  0
 20 18  2  0  0  0  0
 21 24  2  0  0  0  0
 21 16  1  0  0  0  0
 23 20  1  0  0  0  0
 23 11  2  0  0  0  0
 24 15  1  0  0  0  0
 25 32  1  0  0  0  0
 25 29  2  0  0  0  0
 26 31  1  0  0  0  0
 27 25  1  0  0  0  0
 30 27  1  0  0  0  0
 31 28  1  0  0  0  0
 31 32  2  0  0  0  0
 33 26  1  0  0  0  0
 33 27  2  0  0  0  0
M  END
>  <MODEL>
3

>  <REMARK>
 VINA RESULT:      -9.3      1.999      3.121
  Name = 
  2 active torsions:
  status: ('A' for Active; 'I' for Inactive)
    1  A    between atoms: C_8  and  C_16
    2  A    between atoms: N_19  and  C_27
                            x       y       z     vdW  Elec       q    Type
                         _______ _______ _______ _____ _____    ______ ____

>  <TORSDO>
F 2

$$$$
=
 OpenBabel11072412273D

 33 37  0  0  1  0  0  0  0  0999 V2000
  160.9530  210.7820  151.1040 C   0  0  1  0  0  3  0  0  0  0  0  0
  161.8380  208.0620  152.3260 C   0  0  0  0  0  2  0  0  0  0  0  0
  160.9900  212.0340  150.4810 O   0  0  0  0  0  1  0  0  0  0  0  0
  162.2510  210.0580  150.8770 C   0  0  0  0  0  0  0  0  0  0  0  0
  162.3110  208.5580  150.9530 C   0  0  2  0  0  3  0  0  0  0  0  0
  160.3530  208.3350  152.5490 C   0  0  0  0  0  2  0  0  0  0  0  0
  160.7220  210.9180  152.6140 C   0  0  2  0  0  3  0  0  0  0  0  0
  163.2820  210.6840  150.6900 O   0  0  0  0  0  0  0  0  0  0  0  0
  160.0950  209.6680  153.2560 C   0  0  0  0  0  2  0  0  0  0  0  0
  162.2380  208.2020  148.4510 C   0  0  0  0  0  2  0  0  0  0  0  0
  161.3890  204.2440  146.7780 C   0  0  0  0  0  3  0  0  0  0  0  0
  161.5700  207.8880  149.7850 C   0  0  1  0  0  3  0  0  0  0  0  0
  160.5950  204.7800  151.1790 C   0  0  0  0  0  2  0  0  0  0  0  0
  161.5990  206.3720  149.9050 C   0  0  2  0  0  3  0  0  0  0  0  0
  161.5130  203.7100  150.5580 C   0  0  0  0  0  2  0  0  0  0  0  0
  161.8470  205.8690  148.5640 N   0  0  0  0  0  0  0  0  0  0  0  0
  162.1600  206.9320  147.6270 C   0  0  0  0  0  2  0  0  0  0  0  0
  160.8940  202.2130  148.6350 C   0  0  0  0  0  0  0  0  0  0  0  0
  160.3580  205.8990  150.3530 O   0  0  0  0  0  0  0  0  0  0  0  0
  160.7670  201.9630  147.2690 C   0  0  0  0  0  3  0  0  0  0  0  0
  161.5200  204.5260  148.1460 C   0  0  0  0  0  0  0  0  0  0  0  0
  160.5850  200.8920  149.7540 Cl  0  0  0  0  0  0  0  0  0  0  0  0
  161.0170  202.9730  146.3410 C   0  0  0  0  0  3  0  0  0  0  0  0
  161.2740  203.4920  149.0880 C   0  0  0  0  0  0  0  0  0  0  0  0
  157.3950  213.3670  155.3130 C   0  0  0  0  0  0  0  0  0  0  0  0
  158.9970  211.0140  155.0550 C   0  0  0  0  0  2  0  0  0  0  0  0
  157.2150  212.2620  156.2600 C   0  0  0  0  0  0  0  0  0  0  0  0
  159.8860  212.0760  152.9120 N   0  0  0  0  0  2  0  0  0  0  0  0
  156.7050  214.4520  155.4340 N   0  0  0  0  0  2  0  0  0  0  0  0
  156.2960  212.3440  157.2540 F   0  0  0  0  0  0  0  0  0  0  0  0
  159.0170  212.1450  154.0460 C   0  0  0  0  0  0  0  0  0  0  0  0
  158.2910  213.2120  154.2110 N   0  0  0  0  0  0  0  0  0  0  0  0
  157.9460  211.1590  156.1230 C   0  0  0  0  0  3  0  0  0  0  0  0
  1  3  1  6  0  0  0
  1  7  1  0  0  0  0
  2  6  1  0  0  0  0
  4  5  1  0  0  0  0
  4  1  1  0  0  0  0
  5  2  1  1  0  0  0
  6  9  1  0  0  0  0
  7 28  1  6  0  0  0
  7  9  1  0  0  0  0
  8  4  2  0  0  0  0
 11 21  1  0  0  0  0
 12 10  1  6  0  0  0
 12 14  1  0  0  0  0
 12  5  1  0  0  0  0
 14 19  1  6  0  0  0
 15 13  1  0  0  0  0
 16 14  1  0  0  0  0
 17 10  1  0  0  0  0
 17 16  1  0  0  0  0
 18 24  1  0  0  0  0
 18 22  1  0  0  0  0
 19 13  1  0  0  0  0
 20 18  2  0  0  0  0
 21 16  1  0  0  0  0
 21 24  2  0  0  0  0
 23 11  2  0  0  0  0
 23 20  1  0  0  0  0
 24 15  1  0  0  0  0
 25 29  2  0  0  0  0
 25 27  1  0  0  0  0
 26 33  1  0  0  0  0
 27 30  1  0  0  0  0
 28 31  1  0  0  0  0
 31 32  2  0  0  0  0
 31 26  1  0  0  0  0
 32 25  1  0  0  0  0
 33 27  2  0  0  0  0
M  END
>  <MODEL>
4

>  <REMARK>
 VINA RESULT:      -9.3      1.682      1.983
  Name = 
  2 active torsions:
  status: ('A' for Active; 'I' for Inactive)
    1  A    between atoms: C_8  and  C_16
    2  A    between atoms: N_19  and  C_27
                            x       y       z     vdW  Elec       q    Type
                         _______ _______ _______ _____ _____    ______ ____

>  <TORSDO>
F 2

$$$$
=
 OpenBabel11072412273D

 33 37  0  0  1  0  0  0  0  0999 V2000
  160.6920  207.6890  151.8300 C   0  0  1  0  0  3  0  0  0  0  0  0
  162.0920  204.9140  151.7270 C   0  0  0  0  0  2  0  0  0  0  0  0
  160.4510  209.0620  151.7050 O   0  0  0  0  0  1  0  0  0  0  0  0
  161.9020  207.3060  151.0240 C   0  0  0  0  0  0  0  0  0  0  0  0
  162.0830  205.8930  150.5440 C   0  0  2  0  0  3  0  0  0  0  0  0
  160.7340  204.8450  152.4190 C   0  0  0  0  0  2  0  0  0  0  0  0
  160.9300  207.2970  153.2940 C   0  0  2  0  0  3  0  0  0  0  0  0
  162.7800  208.1250  150.8030 O   0  0  0  0  0  0  0  0  0  0  0  0
  160.6170  205.8200  153.5930 C   0  0  0  0  0  2  0  0  0  0  0  0
  161.1240  206.4800  148.2810 C   0  0  0  0  0  2  0  0  0  0  0  0
  160.3040  203.3570  145.3210 C   0  0  0  0  0  3  0  0  0  0  0  0
  161.0640  205.5130  149.4590 C   0  0  1  0  0  3  0  0  0  0  0  0
  161.1630  201.9730  149.5200 C   0  0  0  0  0  2  0  0  0  0  0  0
  161.3620  204.1420  148.8720 C   0  0  2  0  0  3  0  0  0  0  0  0
  161.9250  201.5300  148.2560 C   0  0  0  0  0  2  0  0  0  0  0  0
  161.1560  204.2670  147.4380 N   0  0  0  0  0  0  0  0  0  0  0  0
  160.9300  205.6410  147.0320 C   0  0  0  0  0  2  0  0  0  0  0  0
  160.8560  200.7370  146.1250 C   0  0  0  0  0  0  0  0  0  0  0  0
  160.4670  203.1930  149.3850 O   0  0  0  0  0  0  0  0  0  0  0  0
  160.2610  200.9820  144.8870 C   0  0  0  0  0  3  0  0  0  0  0  0
  160.8990  203.1400  146.5720 C   0  0  0  0  0  0  0  0  0  0  0  0
  161.1930  199.0690  146.5670 Cl  0  0  0  0  0  0  0  0  0  0  0  0
  159.9880  202.2880  144.4820 C   0  0  0  0  0  3  0  0  0  0  0  0
  161.1840  201.8090  146.9770 C   0  0  0  0  0  0  0  0  0  0  0  0
  160.4130  211.0200  156.4910 C   0  0  0  0  0  0  0  0  0  0  0  0
  162.1630  209.6210  154.7160 C   0  0  0  0  0  2  0  0  0  0  0  0
  161.8360  211.3730  156.4510 C   0  0  0  0  0  0  0  0  0  0  0  0
  160.1510  208.1400  154.1940 N   0  0  0  0  0  2  0  0  0  0  0  0
  159.6000  211.6640  157.2610 N   0  0  0  0  0  2  0  0  0  0  0  0
  162.3300  212.3520  157.2490 F   0  0  0  0  0  0  0  0  0  0  0  0
  160.7110  209.2350  154.9230 C   0  0  0  0  0  0  0  0  0  0  0  0
  159.9390  209.9120  155.7220 N   0  0  0  0  0  0  0  0  0  0  0  0
  162.6520  210.7030  155.6410 C   0  0  0  0  0  3  0  0  0  0  0  0
  1  3  1  1  0  0  0
  1  7  1  0  0  0  0
  2  6  1  0  0  0  0
  4  1  1  0  0  0  0
  5  4  1  0  0  0  0
  5  2  1  1  0  0  0
  6  9  1  0  0  0  0
  7  9  1  0  0  0  0
  7 28  1  1  0  0  0
  8  4  2  0  0  0  0
 11 21  1  0  0  0  0
 12 10  1  6  0  0  0
 12  5  1  0  0  0  0
 14 19  1  1  0  0  0
 14 12  1  0  0  0  0
 15 13  1  0  0  0  0
 16 14  1  0  0  0  0
 17 16  1  0  0  0  0
 17 10  1  0  0  0  0
 18 22  1  0  0  0  0
 18 24  1  0  0  0  0
 19 13  1  0  0  0  0
 20 18  2  0  0  0  0
 21 24  2  0  0  0  0
 21 16  1  0  0  0  0
 23 20  1  0  0  0  0
 23 11  2  0  0  0  0
 24 15  1  0  0  0  0
 25 29  2  0  0  0  0
 26 31  1  0  0  0  0
 26 33  1  0  0  0  0
 27 25  1  0  0  0  0
 27 30  1  0  0  0  0
 28 31  1  0  0  0  0
 31 32  2  0  0  0  0
 32 25  1  0  0  0  0
 33 27  2  0  0  0  0
M  END
>  <MODEL>
5

>  <REMARK>
 VINA RESULT:      -9.1      1.621      1.925
  Name = 
  2 active torsions:
  status: ('A' for Active; 'I' for Inactive)
    1  A    between atoms: C_8  and  C_16
    2  A    between atoms: N_19  and  C_27
                            x       y       z     vdW  Elec       q    Type
                         _______ _______ _______ _____ _____    ______ ____

>  <TORSDO>
F 2

$$$$
=
 OpenBabel11072412273D

 33 37  0  0  1  0  0  0  0  0999 V2000
  159.6430  210.0610  154.1040 C   0  0  1  0  0  3  0  0  0  0  0  0
  162.6730  210.7110  153.8310 C   0  0  0  0  0  2  0  0  0  0  0  0
  158.2810  209.9310  153.8150 O   0  0  0  0  0  1  0  0  0  0  0  0
  160.4150  210.3030  152.8360 C   0  0  0  0  0  0  0  0  0  0  0  0
  161.8760  209.9610  152.7550 C   0  0  2  0  0  3  0  0  0  0  0  0
  162.3120  210.2430  155.2380 C   0  0  0  0  0  2  0  0  0  0  0  0
  159.8990  211.2260  155.0670 C   0  0  2  0  0  3  0  0  0  0  0  0
  159.8780  210.8390  151.8800 O   0  0  0  0  0  0  0  0  0  0  0  0
  161.2020  211.0820  155.8750 C   0  0  0  0  0  2  0  0  0  0  0  0
  161.2330  207.7570  153.8150 C   0  0  0  0  0  2  0  0  0  0  0  0
  160.6620  204.1760  151.3580 C   0  0  0  0  0  3  0  0  0  0  0  0
  162.1190  208.4430  152.7790 C   0  0  1  0  0  3  0  0  0  0  0  0
  162.6360  207.6940  149.3560 C   0  0  0  0  0  2  0  0  0  0  0  0
  161.7580  207.8010  151.4490 C   0  0  2  0  0  3  0  0  0  0  0  0
  161.3630  206.9800  148.8630 C   0  0  0  0  0  2  0  0  0  0  0  0
  161.0680  206.5630  151.7760 N   0  0  0  0  0  0  0  0  0  0  0  0
  160.7950  206.4440  153.1960 C   0  0  0  0  0  2  0  0  0  0  0  0
  161.1030  204.4930  148.6150 C   0  0  0  0  0  0  0  0  0  0  0  0
  162.9210  207.5040  150.7250 O   0  0  0  0  0  0  0  0  0  0  0  0
  160.8200  203.2320  149.1420 C   0  0  0  0  0  3  0  0  0  0  0  0
  160.9480  205.4550  150.8570 C   0  0  0  0  0  0  0  0  0  0  0  0
  161.3560  204.6310  146.8810 Cl  0  0  0  0  0  0  0  0  0  0  0  0
  160.5960  203.0720  150.5080 C   0  0  0  0  0  3  0  0  0  0  0  0
  161.1670  205.6150  149.4640 C   0  0  0  0  0  0  0  0  0  0  0  0
  155.4580  212.9660  156.3320 C   0  0  0  0  0  0  0  0  0  0  0  0
  157.4270  212.7110  154.2760 C   0  0  0  0  0  2  0  0  0  0  0  0
  155.2710  213.6710  155.0600 C   0  0  0  0  0  0  0  0  0  0  0  0
  158.7830  211.3950  155.9910 N   0  0  0  0  0  2  0  0  0  0  0  0
  154.5630  213.0410  157.2600 N   0  0  0  0  0  2  0  0  0  0  0  0
  154.1760  214.4450  154.8510 F   0  0  0  0  0  0  0  0  0  0  0  0
  157.6010  212.1320  155.6660 C   0  0  0  0  0  0  0  0  0  0  0  0
  156.6710  212.2470  156.5680 N   0  0  0  0  0  0  0  0  0  0  0  0
  156.2010  213.5700  154.1140 C   0  0  0  0  0  3  0  0  0  0  0  0
  1  3  1  6  0  0  0
  1  7  1  0  0  0  0
  2  6  1  0  0  0  0
  4  1  1  0  0  0  0
  5 12  1  0  0  0  0
  5  4  1  0  0  0  0
  5  2  1  1  0  0  0
  6  9  1  0  0  0  0
  7  9  1  0  0  0  0
  7 28  1  1  0  0  0
  8  4  2  0  0  0  0
 12 10  1  1  0  0  0
 13 19  1  0  0  0  0
 14 19  1  6  0  0  0
 14 16  1  0  0  0  0
 14 12  1  0  0  0  0
 15 13  1  0  0  0  0
 15 24  1  0  0  0  0
 16 17  1  0  0  0  0
 17 10  1  0  0  0  0
 18 20  2  0  0  0  0
 18 24  1  0  0  0  0
 20 23  1  0  0  0  0
 21 11  1  0  0  0  0
 21 16  1  0  0  0  0
 22 18  1  0  0  0  0
 23 11  2  0  0  0  0
 24 21  2  0  0  0  0
 25 32  1  0  0  0  0
 25 29  2  0  0  0  0
 26 31  1  0  0  0  0
 27 25  1  0  0  0  0
 30 27  1  0  0  0  0
 31 28  1  0  0  0  0
 31 32  2  0  0  0  0
 33 26  1  0  0  0  0
 33 27  2  0  0  0  0
M  END
>  <MODEL>
6

>  <REMARK>
 VINA RESULT:      -7.8      2.259      3.891
  Name = 
  2 active torsions:
  status: ('A' for Active; 'I' for Inactive)
    1  A    between atoms: C_8  and  C_16
    2  A    between atoms: N_19  and  C_27
                            x       y       z     vdW  Elec       q    Type
                         _______ _______ _______ _____ _____    ______ ____

>  <TORSDO>
F 2

$$$$
=
 OpenBabel11072412273D

 33 37  0  0  1  0  0  0  0  0999 V2000
  160.8460  204.8410  150.3130 C   0  0  1  0  0  3  0  0  0  0  0  0
  162.6520  207.2270  151.1620 C   0  0  0  0  0  2  0  0  0  0  0  0
  160.3210  203.5510  150.1900 O   0  0  0  0  0  1  0  0  0  0  0  0
  161.8010  204.8970  151.4740 C   0  0  0  0  0  0  0  0  0  0  0  0
  162.0940  206.2020  152.1590 C   0  0  2  0  0  3  0  0  0  0  0  0
  161.6110  207.6370  150.1240 C   0  0  0  0  0  2  0  0  0  0  0  0
  161.5920  205.2620  149.0410 C   0  0  2  0  0  3  0  0  0  0  0  0
  162.3960  203.8920  151.8320 O   0  0  0  0  0  0  0  0  0  0  0  0
  161.6750  206.7870  148.8530 C   0  0  0  0  0  2  0  0  0  0  0  0
  160.8450  206.1470  154.3560 C   0  0  0  0  0  2  0  0  0  0  0  0
  159.2760  209.8320  156.1300 C   0  0  0  0  0  3  0  0  0  0  0  0
  160.8840  206.7280  152.9460 C   0  0  1  0  0  3  0  0  0  0  0  0
  160.6610  210.0900  151.8520 C   0  0  0  0  0  2  0  0  0  0  0  0
  160.9550  208.2360  153.1330 C   0  0  2  0  0  3  0  0  0  0  0  0
  161.1680  210.9670  153.0130 C   0  0  0  0  0  2  0  0  0  0  0  0
  160.5360  208.4900  154.5020 N   0  0  0  0  0  0  0  0  0  0  0  0
  160.3770  207.2670  155.2650 C   0  0  0  0  0  2  0  0  0  0  0  0
  159.7030  212.1720  154.6620 C   0  0  0  0  0  0  0  0  0  0  0  0
  160.0690  208.8740  152.2530 O   0  0  0  0  0  0  0  0  0  0  0  0
  158.9430  212.2040  155.8320 C   0  0  0  0  0  3  0  0  0  0  0  0
  160.0410  209.7690  154.9560 C   0  0  0  0  0  0  0  0  0  0  0  0
  159.9490  213.6800  153.7910 Cl  0  0  0  0  0  0  0  0  0  0  0  0
  158.7320  211.0390  156.5680 C   0  0  0  0  0  3  0  0  0  0  0  0
  160.2610  210.9590  154.2140 C   0  0  0  0  0  0  0  0  0  0  0  0
  160.5320  201.4720  146.0640 C   0  0  0  0  0  0  0  0  0  0  0  0
  161.7330  202.3210  148.5150 C   0  0  0  0  0  2  0  0  0  0  0  0
  161.2810  200.5070  146.8750 C   0  0  0  0  0  0  0  0  0  0  0  0
  160.9800  204.6690  147.8570 N   0  0  0  0  0  2  0  0  0  0  0  0
  159.9540  201.1000  144.9710 N   0  0  0  0  0  2  0  0  0  0  0  0
  161.4120  199.2180  146.4730 F   0  0  0  0  0  0  0  0  0  0  0  0
  161.0590  203.2750  147.5480 C   0  0  0  0  0  0  0  0  0  0  0  0
  160.5020  202.8470  146.4530 N   0  0  0  0  0  0  0  0  0  0  0  0
  161.8590  200.9110  148.0030 C   0  0  0  0  0  3  0  0  0  0  0  0
  1  3  1  6  0  0  0
  1  4  1  0  0  0  0
  4  8  2  0  0  0  0
  4  5  1  0  0  0  0
  5  2  1  6  0  0  0
  5 12  1  0  0  0  0
  6  2  1  0  0  0  0
  7 28  1  6  0  0  0
  7  1  1  0  0  0  0
  9  7  1  0  0  0  0
  9  6  1  0  0  0  0
 10 17  1  0  0  0  0
 11 23  1  0  0  0  0
 12 14  1  0  0  0  0
 12 10  1  1  0  0  0
 13 19  1  0  0  0  0
 13 15  1  0  0  0  0
 14 19  1  6  0  0  0
 14 16  1  0  0  0  0
 15 24  1  0  0  0  0
 16 21  1  0  0  0  0
 16 17  1  0  0  0  0
 18 20  1  0  0  0  0
 20 23  2  0  0  0  0
 21 11  2  0  0  0  0
 22 18  1  0  0  0  0
 24 18  2  0  0  0  0
 24 21  1  0  0  0  0
 25 32  1  0  0  0  0
 25 27  1  0  0  0  0
 27 33  2  0  0  0  0
 29 25  2  0  0  0  0
 30 27  1  0  0  0  0
 31 28  1  0  0  0  0
 31 26  1  0  0  0  0
 32 31  2  0  0  0  0
 33 26  1  0  0  0  0
M  END
>  <MODEL>
7

>  <REMARK>
 VINA RESULT:      -7.5      4.364     10.016
  Name = 
  2 active torsions:
  status: ('A' for Active; 'I' for Inactive)
    1  A    between atoms: C_8  and  C_16
    2  A    between atoms: N_19  and  C_27
                            x       y       z     vdW  Elec       q    Type
                         _______ _______ _______ _____ _____    ______ ____

>  <TORSDO>
F 2

$$$$
=
 OpenBabel11072412273D

 33 37  0  0  1  0  0  0  0  0999 V2000
  161.5730  208.5830  150.5020 C   0  0  1  0  0  3  0  0  0  0  0  0
  161.7840  205.7220  151.7050 C   0  0  0  0  0  2  0  0  0  0  0  0
  161.8850  209.7640  149.8200 O   0  0  0  0  0  1  0  0  0  0  0  0
  162.5390  207.4970  150.1130 C   0  0  0  0  0  0  0  0  0  0  0  0
  162.1560  206.0500  150.2520 C   0  0  2  0  0  3  0  0  0  0  0  0
  160.5060  206.4340  152.1400 C   0  0  0  0  0  2  0  0  0  0  0  0
  161.6410  208.7820  152.0210 C   0  0  2  0  0  3  0  0  0  0  0  0
  163.6660  207.7800  149.7400 O   0  0  0  0  0  0  0  0  0  0  0  0
  160.7790  207.7820  152.8120 C   0  0  0  0  0  2  0  0  0  0  0  0
  161.0190  206.5970  148.0620 C   0  0  0  0  0  2  0  0  0  0  0  0
  160.0580  203.4320  145.1890 C   0  0  0  0  0  3  0  0  0  0  0  0
  161.0700  205.6380  149.2470 C   0  0  1  0  0  3  0  0  0  0  0  0
  161.2570  202.1020  149.3220 C   0  0  0  0  0  2  0  0  0  0  0  0
  161.3550  204.2700  148.6480 C   0  0  2  0  0  3  0  0  0  0  0  0
  161.9340  201.6670  148.0080 C   0  0  0  0  0  2  0  0  0  0  0  0
  161.0420  204.3790  147.2330 N   0  0  0  0  0  0  0  0  0  0  0  0
  160.7540  205.7440  146.8360 C   0  0  0  0  0  2  0  0  0  0  0  0
  160.7300  200.8320  145.9660 C   0  0  0  0  0  0  0  0  0  0  0  0
  160.5240  203.3040  149.2320 O   0  0  0  0  0  0  0  0  0  0  0  0
  160.0390  201.0540  144.7750 C   0  0  0  0  0  3  0  0  0  0  0  0
  160.7490  203.2390  146.3950 C   0  0  0  0  0  0  0  0  0  0  0  0
  161.1380  199.1760  146.3930 Cl  0  0  0  0  0  0  0  0  0  0  0  0
  159.7060  202.3500  144.3830 C   0  0  0  0  0  3  0  0  0  0  0  0
  161.0940  201.9180  146.7860 C   0  0  0  0  0  0  0  0  0  0  0  0
  159.7340  212.1350  155.0990 C   0  0  0  0  0  0  0  0  0  0  0  0
  160.4990  209.4080  154.7130 C   0  0  0  0  0  2  0  0  0  0  0  0
  159.4150  211.1420  156.1290 C   0  0  0  0  0  0  0  0  0  0  0  0
  161.2510  210.1390  152.3870 N   0  0  0  0  0  2  0  0  0  0  0  0
  159.4280  213.3780  155.2700 N   0  0  0  0  0  2  0  0  0  0  0  0
  158.7590  211.5030  157.2600 F   0  0  0  0  0  0  0  0  0  0  0  0
  160.6650  210.4740  153.6480 C   0  0  0  0  0  0  0  0  0  0  0  0
  160.3270  211.7100  153.8700 N   0  0  0  0  0  0  0  0  0  0  0  0
  159.7510  209.8690  155.9360 C   0  0  0  0  0  3  0  0  0  0  0  0
  1  3  1  6  0  0  0
  1  7  1  0  0  0  0
  2  6  1  0  0  0  0
  4  5  1  0  0  0  0
  4  1  1  0  0  0  0
  5  2  1  1  0  0  0
  6  9  1  0  0  0  0
  7 28  1  6  0  0  0
  7  9  1  0  0  0  0
  8  4  2  0  0  0  0
 11 21  1  0  0  0  0
 12 10  1  6  0  0  0
 12  5  1  0  0  0  0
 14 19  1  1  0  0  0
 14 12  1  0  0  0  0
 15 13  1  0  0  0  0
 16 14  1  0  0  0  0
 17 16  1  0  0  0  0
 17 10  1  0  0  0  0
 18 22  1  0  0  0  0
 18 24  1  0  0  0  0
 19 13  1  0  0  0  0
 20 18  2  0  0  0  0
 21 24  2  0  0  0  0
 21 16  1  0  0  0  0
 23 20  1  0  0  0  0
 23 11  2  0  0  0  0
 24 15  1  0  0  0  0
 25 29  2  0  0  0  0
 25 27  1  0  0  0  0
 26 33  1  0  0  0  0
 27 30  1  0  0  0  0
 28 31  1  0  0  0  0
 31 32  2  0  0  0  0
 31 26  1  0  0  0  0
 32 25  1  0  0  0  0
 33 27  2  0  0  0  0
M  END
>  <MODEL>
8

>  <REMARK>
 VINA RESULT:      -6.7      1.677      2.143
  Name = 
  2 active torsions:
  status: ('A' for Active; 'I' for Inactive)
    1  A    between atoms: C_8  and  C_16
    2  A    between atoms: N_19  and  C_27
                            x       y       z     vdW  Elec       q    Type
                         _______ _______ _______ _____ _____    ______ ____

>  <TORSDO>
F 2

$$$$
