=
 OpenBabel11072412393D

 31 36  0  0  1  0  0  0  0  0999 V2000
  160.5800  205.2160  149.3120 C   0  0  1  0  0  3  0  0  0  0  0  0
  161.3290  205.3380  152.0270 N   0  0  0  0  0  2  0  0  0  0  0  0
  161.6780  206.4150  151.0990 C   0  0  1  0  0  0  0  0  0  0  0  0
  160.1160  204.2230  150.3940 C   0  0  0  0  0  2  0  0  0  0  0  0
  162.3650  207.6420  151.6840 C   0  0  1  0  0  3  0  0  0  0  0  0
  163.1650  206.5850  150.9080 C   0  0  0  0  0  2  0  0  0  0  0  0
  160.0410  204.8720  151.7030 N   0  0  0  0  0  2  0  0  0  0  0  0
  160.8850  206.5430  149.8700 N   0  0  0  0  0  2  0  0  0  0  0  0
  161.6890  206.2080  146.8050 C   0  0  0  0  0  2  0  0  0  0  0  0
  161.3990  203.5500  147.5670 C   0  0  0  0  0  0  0  0  0  0  0  0
  161.2520  203.8230  146.1930 C   0  0  0  0  0  0  0  0  0  0  0  0
  161.5550  205.2010  145.6620 C   0  0  1  0  0  3  0  0  0  0  0  0
  160.9480  202.7750  145.3120 C   0  0  0  0  0  3  0  0  0  0  0  0
  161.7760  204.6640  148.5100 C   0  0  1  0  0  3  0  0  0  0  0  0
  161.2000  202.2520  148.0490 C   0  0  0  0  0  3  0  0  0  0  0  0
  162.4960  205.6850  147.8370 O   0  0  0  0  0  0  0  0  0  0  0  0
  160.4710  205.6800  144.7140 C   0  0  0  0  0  1  0  0  0  0  0  0
  160.7490  201.4810  145.7990 C   0  0  0  0  0  3  0  0  0  0  0  0
  160.8700  201.2200  147.1660 C   0  0  0  0  0  3  0  0  0  0  0  0
  161.7210  209.9580  148.6280 C   0  0  0  0  0  2  0  0  0  0  0  0
  162.4270  208.8600  149.4190 C   0  0  0  0  0  2  0  0  0  0  0  0
  162.1090  208.9070  150.8910 C   0  0  0  0  0  0  0  0  0  0  0  0
  161.3090  211.2900  150.7110 C   0  0  0  0  0  2  0  0  0  0  0  0
  161.6470  210.0370  151.4730 C   0  0  0  0  0  3  0  0  0  0  0  0
  161.9370  211.3120  149.3180 C   0  0  2  0  0  3  0  0  0  0  0  0
  162.6150  214.4530  145.9360 N   0  0  0  0  0  1  0  0  0  0  0  0
  160.6580  212.0230  147.3850 C   0  0  0  0  0  2  0  0  0  0  0  0
  162.3670  213.1440  146.5110 C   0  0  2  0  0  3  0  0  0  0  0  0
  161.0490  212.7590  146.2570 O   0  0  0  0  0  0  0  0  0  0  0  0
  161.4270  212.4590  148.5500 N   0  0  2  0  0  0  0  0  0  0  0  0
  162.5380  213.2040  148.0020 C   0  0  0  0  0  2  0  0  0  0  0  0
  1  8  1  0  0  0  0
  1  4  1  1  0  0  0
  3  6  1  6  0  0  0
  3  5  1  0  0  0  0
  3  2  1  0  0  0  0
  4  7  1  0  0  0  0
  5 22  1  6  0  0  0
  6  5  1  0  0  0  0
  7  2  1  0  0  0  0
  8  3  1  0  0  0  0
  9 16  1  0  0  0  0
 10 15  1  0  0  0  0
 11 10  2  0  0  0  0
 12 17  1  6  0  0  0
 12 11  1  0  0  0  0
 12  9  1  0  0  0  0
 13 18  2  0  0  0  0
 13 11  1  0  0  0  0
 14 10  1  6  0  0  0
 14  1  1  0  0  0  0
 16 14  1  0  0  0  0
 18 19  1  0  0  0  0
 19 15  2  0  0  0  0
 20 21  1  0  0  0  0
 21 22  1  0  0  0  0
 22 24  2  0  0  0  0
 23 24  1  0  0  0  0
 25 20  1  6  0  0  0
 25 23  1  0  0  0  0
 28 26  1  6  0  0  0
 28 31  1  0  0  0  0
 29 28  1  0  0  0  0
 29 27  1  0  0  0  0
 30 27  1  6  0  0  0
 30 25  1  0  0  0  0
 31 30  1  0  0  0  0
M  END
>  <MODEL>
1

>  <REMARK>
 VINA RESULT:      -7.8      0.000      0.000
  Name = 
  3 active torsions:
  status: ('A' for Active; 'I' for Inactive)
    1  A    between atoms: C_5  and  C_15
    2  A    between atoms: C_7  and  C_25
    3  A    between atoms: N_26  and  C_31
                            x       y       z     vdW  Elec       q    Type
                         _______ _______ _______ _____ _____    ______ ____

>  <TORSDO>
F 3

$$$$
=
 OpenBabel11072412393D

 31 36  0  0  1  0  0  0  0  0999 V2000
  160.4500  205.1470  149.7200 C   0  0  1  0  0  3  0  0  0  0  0  0
  161.1950  204.6650  152.3960 N   0  0  0  0  0  2  0  0  0  0  0  0
  161.4770  205.9500  151.7540 C   0  0  1  0  0  0  0  0  0  0  0  0
  160.0480  203.9000  150.5290 C   0  0  0  0  0  2  0  0  0  0  0  0
  162.0900  207.0420  152.6210 C   0  0  1  0  0  3  0  0  0  0  0  0
  162.9510  206.2470  151.6270 C   0  0  0  0  0  2  0  0  0  0  0  0
  159.9370  204.2140  151.9540 N   0  0  0  0  0  2  0  0  0  0  0  0
  160.6750  206.3190  150.5800 N   0  0  0  0  0  2  0  0  0  0  0  0
  161.3420  206.6250  147.3700 C   0  0  0  0  0  2  0  0  0  0  0  0
  161.4040  203.8690  147.7330 C   0  0  0  0  0  0  0  0  0  0  0  0
  161.1770  204.3180  146.4170 C   0  0  0  0  0  0  0  0  0  0  0  0
  161.2920  205.7860  146.0930 C   0  0  1  0  0  3  0  0  0  0  0  0
  160.9720  203.3810  145.3960 C   0  0  0  0  0  3  0  0  0  0  0  0
  161.6750  204.8720  148.8250 C   0  0  1  0  0  3  0  0  0  0  0  0
  161.3810  202.5000  148.0200 C   0  0  0  0  0  3  0  0  0  0  0  0
  162.2420  206.0620  148.3000 O   0  0  0  0  0  0  0  0  0  0  0  0
  160.1260  206.2580  145.2450 C   0  0  0  0  0  1  0  0  0  0  0  0
  160.9490  202.0150  145.6870 C   0  0  0  0  0  3  0  0  0  0  0  0
  161.1490  201.5750  146.9980 C   0  0  0  0  0  3  0  0  0  0  0  0
  160.8060  210.7100  152.7170 C   0  0  0  0  0  2  0  0  0  0  0  0
  160.7360  209.2030  152.9520 C   0  0  0  0  0  2  0  0  0  0  0  0
  161.7580  208.4400  152.1480 C   0  0  0  0  0  0  0  0  0  0  0  0
  162.0760  210.3880  150.5790 C   0  0  0  0  0  2  0  0  0  0  0  0
  162.3220  208.9760  151.0420 C   0  0  0  0  0  3  0  0  0  0  0  0
  160.8240  210.9970  151.2090 C   0  0  2  0  0  3  0  0  0  0  0  0
  160.0210  214.2910  148.0030 N   0  0  0  0  0  1  0  0  0  0  0  0
  159.3860  212.9460  151.1060 C   0  0  0  0  0  2  0  0  0  0  0  0
  159.6970  213.2140  148.9210 C   0  0  2  0  0  3  0  0  0  0  0  0
  158.9820  213.7210  150.0080 O   0  0  0  0  0  0  0  0  0  0  0  0
  160.7330  212.4280  150.8740 N   0  0  2  0  0  0  0  0  0  0  0  0
  160.9610  212.6060  149.4580 C   0  0  0  0  0  2  0  0  0  0  0  0
  1  4  1  1  0  0  0
  1  8  1  0  0  0  0
  3  6  1  6  0  0  0
  3  2  1  0  0  0  0
  3  5  1  0  0  0  0
  4  7  1  0  0  0  0
  5 22  1  6  0  0  0
  6  5  1  0  0  0  0
  7  2  1  0  0  0  0
  8  3  1  0  0  0  0
  9 16  1  0  0  0  0
 10 15  1  0  0  0  0
 11 10  2  0  0  0  0
 12 17  1  6  0  0  0
 12 11  1  0  0  0  0
 12  9  1  0  0  0  0
 13 18  2  0  0  0  0
 13 11  1  0  0  0  0
 14 10  1  6  0  0  0
 14  1  1  0  0  0  0
 16 14  1  0  0  0  0
 18 19  1  0  0  0  0
 19 15  2  0  0  0  0
 20 21  1  0  0  0  0
 22 21  1  0  0  0  0
 23 24  1  0  0  0  0
 24 22  2  0  0  0  0
 25 23  1  1  0  0  0
 25 20  1  0  0  0  0
 28 26  1  6  0  0  0
 28 31  1  0  0  0  0
 28 29  1  0  0  0  0
 29 27  1  0  0  0  0
 30 31  1  6  0  0  0
 30 27  1  0  0  0  0
 30 25  1  0  0  0  0
M  END
>  <MODEL>
2

>  <REMARK>
 VINA RESULT:      -7.8      1.567      1.990
  Name = 
  3 active torsions:
  status: ('A' for Active; 'I' for Inactive)
    1  A    between atoms: C_5  and  C_15
    2  A    between atoms: C_7  and  C_25
    3  A    between atoms: N_26  and  C_31
                            x       y       z     vdW  Elec       q    Type
                         _______ _______ _______ _____ _____    ______ ____

>  <TORSDO>
F 3

$$$$
=
 OpenBabel11072412393D

 31 36  0  0  1  0  0  0  0  0999 V2000
  160.4040  204.9480  149.8780 C   0  0  1  0  0  3  0  0  0  0  0  0
  161.1740  204.0530  152.4370 N   0  0  0  0  0  2  0  0  0  0  0  0
  161.4130  205.4350  152.0190 C   0  0  1  0  0  0  0  0  0  0  0  0
  160.0450  203.5720  150.4680 C   0  0  0  0  0  2  0  0  0  0  0  0
  161.9930  206.3860  153.0570 C   0  0  1  0  0  3  0  0  0  0  0  0
  162.8750  205.7960  151.9450 C   0  0  0  0  0  2  0  0  0  0  0  0
  159.9300  203.6410  151.9250 N   0  0  0  0  0  2  0  0  0  0  0  0
  160.5950  205.9680  150.9210 N   0  0  0  0  0  2  0  0  0  0  0  0
  161.1280  206.7110  147.6710 C   0  0  0  0  0  2  0  0  0  0  0  0
  161.4330  203.9490  147.7720 C   0  0  0  0  0  0  0  0  0  0  0  0
  161.1480  204.4980  146.5060 C   0  0  0  0  0  0  0  0  0  0  0  0
  161.1310  205.9940  146.3200 C   0  0  1  0  0  3  0  0  0  0  0  0
  161.0080  203.6450  145.4020 C   0  0  0  0  0  3  0  0  0  0  0  0
  161.6340  204.8660  148.9520 C   0  0  1  0  0  3  0  0  0  0  0  0
  161.5320  202.5620  147.9290 C   0  0  0  0  0  3  0  0  0  0  0  0
  162.0880  206.1450  148.5360 O   0  0  0  0  0  0  0  0  0  0  0  0
  159.9150  206.4390  145.5300 C   0  0  0  0  0  1  0  0  0  0  0  0
  161.1070  202.2610  145.5650 C   0  0  0  0  0  3  0  0  0  0  0  0
  161.3650  201.7200  146.8270 C   0  0  0  0  0  3  0  0  0  0  0  0
  160.7290  209.9870  153.8000 C   0  0  0  0  0  2  0  0  0  0  0  0
  160.6820  208.4610  153.8260 C   0  0  0  0  0  2  0  0  0  0  0  0
  161.6140  207.8330  152.8220 C   0  0  0  0  0  0  0  0  0  0  0  0
  161.7700  209.9850  151.5190 C   0  0  0  0  0  2  0  0  0  0  0  0
  162.0610  208.5270  151.7500 C   0  0  0  0  0  3  0  0  0  0  0  0
  160.5890  210.4830  152.3540 C   0  0  2  0  0  3  0  0  0  0  0  0
  158.1820  214.1570  150.7820 N   0  0  0  0  0  1  0  0  0  0  0  0
  159.7410  212.5120  153.3710 C   0  0  0  0  0  2  0  0  0  0  0  0
  158.4650  213.0060  151.6190 C   0  0  2  0  0  3  0  0  0  0  0  0
  158.7830  213.4290  152.9110 O   0  0  0  0  0  0  0  0  0  0  0  0
  160.4660  211.9450  152.2350 N   0  0  2  0  0  0  0  0  0  0  0  0
  159.6570  212.2670  151.0820 C   0  0  0  0  0  2  0  0  0  0  0  0
  1  4  1  1  0  0  0
  1  8  1  0  0  0  0
  3  6  1  6  0  0  0
  3  2  1  0  0  0  0
  3  5  1  0  0  0  0
  4  7  1  0  0  0  0
  5 22  1  6  0  0  0
  6  5  1  0  0  0  0
  7  2  1  0  0  0  0
  8  3  1  0  0  0  0
  9 16  1  0  0  0  0
 10 15  1  0  0  0  0
 11 10  2  0  0  0  0
 12 17  1  1  0  0  0
 12 11  1  0  0  0  0
 12  9  1  0  0  0  0
 13 18  2  0  0  0  0
 13 11  1  0  0  0  0
 14 10  1  6  0  0  0
 14  1  1  0  0  0  0
 16 14  1  0  0  0  0
 18 19  1  0  0  0  0
 19 15  2  0  0  0  0
 20 21  1  0  0  0  0
 22 21  1  0  0  0  0
 23 24  1  0  0  0  0
 24 22  2  0  0  0  0
 25 23  1  6  0  0  0
 25 20  1  0  0  0  0
 28 26  1  6  0  0  0
 28 29  1  0  0  0  0
 29 27  1  0  0  0  0
 30 31  1  6  0  0  0
 30 25  1  0  0  0  0
 30 27  1  0  0  0  0
 31 28  1  0  0  0  0
M  END
>  <MODEL>
3

>  <REMARK>
 VINA RESULT:      -7.5      2.615      3.103
  Name = 
  3 active torsions:
  status: ('A' for Active; 'I' for Inactive)
    1  A    between atoms: C_5  and  C_15
    2  A    between atoms: C_7  and  C_25
    3  A    between atoms: N_26  and  C_31
                            x       y       z     vdW  Elec       q    Type
                         _______ _______ _______ _____ _____    ______ ____

>  <TORSDO>
F 3

$$$$
=
 OpenBabel11072412393D

 31 36  0  0  1  0  0  0  0  0999 V2000
  158.2790  211.0080  153.5650 C   0  0  1  0  0  3  0  0  0  0  0  0
  157.1510  213.5380  154.0890 N   0  0  0  0  0  2  0  0  0  0  0  0
  157.9230  213.2950  152.8700 C   0  0  1  0  0  0  0  0  0  0  0  0
  157.3150  211.3130  154.7260 C   0  0  0  0  0  2  0  0  0  0  0  0
  157.9990  214.4280  151.8560 C   0  0  1  0  0  3  0  0  0  0  0  0
  159.1840  214.1180  152.7830 C   0  0  0  0  0  2  0  0  0  0  0  0
  156.3890  212.3880  154.3690 N   0  0  0  0  0  2  0  0  0  0  0  0
  158.0690  211.9040  152.4180 N   0  0  0  0  0  2  0  0  0  0  0  0
  160.6140  209.8720  152.2380 C   0  0  0  0  0  2  0  0  0  0  0  0
  160.1010  209.9140  154.9700 C   0  0  0  0  0  0  0  0  0  0  0  0
  160.8020  208.7920  154.4850 C   0  0  0  0  0  0  0  0  0  0  0  0
  161.2710  208.7580  153.0530 C   0  0  1  0  0  3  0  0  0  0  0  0
  161.1680  207.7710  155.3750 C   0  0  0  0  0  3  0  0  0  0  0  0
  159.7500  211.0360  154.0260 C   0  0  1  0  0  3  0  0  0  0  0  0
  159.7380  209.9840  156.3190 C   0  0  0  0  0  3  0  0  0  0  0  0
  160.6600  211.0950  152.9390 O   0  0  0  0  0  0  0  0  0  0  0  0
  160.9580  207.4250  152.3990 C   0  0  0  0  0  1  0  0  0  0  0  0
  160.8020  207.8460  156.7210 C   0  0  0  0  0  3  0  0  0  0  0  0
  160.0850  208.9490  157.1920 C   0  0  0  0  0  3  0  0  0  0  0  0
  159.8260  213.1450  148.6730 C   0  0  0  0  0  2  0  0  0  0  0  0
  159.6010  214.0540  149.8790 C   0  0  0  0  0  2  0  0  0  0  0  0
  158.2040  213.9490  150.4340 C   0  0  0  0  0  0  0  0  0  0  0  0
  157.3570  212.9220  148.2940 C   0  0  0  0  0  2  0  0  0  0  0  0
  157.1840  213.4770  149.6820 C   0  0  0  0  0  3  0  0  0  0  0  0
  158.6860  213.3370  147.6620 C   0  0  2  0  0  3  0  0  0  0  0  0
  159.0650  213.5070  143.0150 N   0  0  0  0  0  1  0  0  0  0  0  0
  160.3090  212.5090  146.0640 C   0  0  0  0  0  2  0  0  0  0  0  0
  159.4650  213.7120  144.3960 C   0  0  2  0  0  3  0  0  0  0  0  0
  160.5110  212.8440  144.7170 O   0  0  0  0  0  0  0  0  0  0  0  0
  158.8890  212.6210  146.3920 N   0  0  2  0  0  0  0  0  0  0  0  0
  158.3180  213.3900  145.3100 C   0  0  0  0  0  2  0  0  0  0  0  0
  1 14  1  0  0  0  0
  1  4  1  1  0  0  0
  2  7  1  0  0  0  0
  3  6  1  1  0  0  0
  3  2  1  0  0  0  0
  5 22  1  6  0  0  0
  5  6  1  0  0  0  0
  5  3  1  0  0  0  0
  7  4  1  0  0  0  0
  8  3  1  0  0  0  0
  8  1  1  0  0  0  0
  9 16  1  0  0  0  0
  9 12  1  0  0  0  0
 10 15  1  0  0  0  0
 11 10  2  0  0  0  0
 11 13  1  0  0  0  0
 12 17  1  6  0  0  0
 12 11  1  0  0  0  0
 13 18  2  0  0  0  0
 14 16  1  6  0  0  0
 14 10  1  0  0  0  0
 15 19  2  0  0  0  0
 18 19  1  0  0  0  0
 20 21  1  0  0  0  0
 21 22  1  0  0  0  0
 23 24  1  0  0  0  0
 24 22  2  0  0  0  0
 25 23  1  1  0  0  0
 25 20  1  0  0  0  0
 27 30  1  0  0  0  0
 28 26  1  6  0  0  0
 28 29  1  0  0  0  0
 28 31  1  0  0  0  0
 29 27  1  0  0  0  0
 30 31  1  6  0  0  0
 30 25  1  0  0  0  0
M  END
>  <MODEL>
4

>  <REMARK>
 VINA RESULT:      -6.5      5.245      7.760
  Name = 
  3 active torsions:
  status: ('A' for Active; 'I' for Inactive)
    1  A    between atoms: C_5  and  C_15
    2  A    between atoms: C_7  and  C_25
    3  A    between atoms: N_26  and  C_31
                            x       y       z     vdW  Elec       q    Type
                         _______ _______ _______ _____ _____    ______ ____

>  <TORSDO>
F 3

$$$$
=
 OpenBabel11072412393D

 31 36  0  0  1  0  0  0  0  0999 V2000
  160.6730  207.6160  151.7050 C   0  0  1  0  0  3  0  0  0  0  0  0
  161.6530  209.4150  153.6420 N   0  0  0  0  0  2  0  0  0  0  0  0
  161.6610  209.7610  152.2200 C   0  0  1  0  0  0  0  0  0  0  0  0
  160.5510  207.4160  153.2270 C   0  0  0  0  0  2  0  0  0  0  0  0
  162.1200  211.1640  151.8470 C   0  0  1  0  0  3  0  0  0  0  0  0
  163.0470  209.9540  151.6560 C   0  0  0  0  0  2  0  0  0  0  0  0
  160.4720  208.7020  153.9190 N   0  0  0  0  0  2  0  0  0  0  0  0
  160.7370  209.0390  151.3350 N   0  0  0  0  0  2  0  0  0  0  0  0
  161.6440  207.5790  148.9560 C   0  0  0  0  0  2  0  0  0  0  0  0
  161.5270  205.4300  150.7150 C   0  0  0  0  0  0  0  0  0  0  0  0
  161.3210  205.1320  149.3530 C   0  0  0  0  0  0  0  0  0  0  0  0
  161.5300  206.1990  148.3090 C   0  0  1  0  0  3  0  0  0  0  0  0
  161.0470  203.8110  148.9720 C   0  0  0  0  0  3  0  0  0  0  0  0
  161.8710  206.8390  151.1240 C   0  0  1  0  0  3  0  0  0  0  0  0
  161.4150  204.4210  151.6780 C   0  0  0  0  0  3  0  0  0  0  0  0
  162.5120  207.5380  150.0680 O   0  0  0  0  0  0  0  0  0  0  0  0
  160.3920  206.2230  147.3060 C   0  0  0  0  0  1  0  0  0  0  0  0
  160.9360  202.8070  149.9370 C   0  0  0  0  0  3  0  0  0  0  0  0
  161.1150  203.1120  151.2890 C   0  0  0  0  0  3  0  0  0  0  0  0
  160.0280  213.3690  149.4230 C   0  0  0  0  0  2  0  0  0  0  0  0
  160.2860  212.5340  150.6750 C   0  0  0  0  0  2  0  0  0  0  0  0
  161.5140  211.6690  150.5550 C   0  0  0  0  0  0  0  0  0  0  0  0
  161.5000  211.8800  148.0430 C   0  0  0  0  0  2  0  0  0  0  0  0
  162.0250  211.3400  149.3460 C   0  0  0  0  0  3  0  0  0  0  0  0
  160.0960  212.4700  148.1800 C   0  0  2  0  0  3  0  0  0  0  0  0
  160.0610  212.5050  143.5150 N   0  0  0  0  0  1  0  0  0  0  0  0
  158.3700  212.7450  146.5010 C   0  0  0  0  0  2  0  0  0  0  0  0
  159.6940  212.0670  144.8490 C   0  0  2  0  0  3  0  0  0  0  0  0
  158.3820  212.4570  145.1280 O   0  0  0  0  0  0  0  0  0  0  0  0
  159.7070  213.1480  146.9330 N   0  0  2  0  0  0  0  0  0  0  0  0
  160.5840  212.7270  145.8640 C   0  0  0  0  0  2  0  0  0  0  0  0
  1  4  1  1  0  0  0
  2  7  1  0  0  0  0
  3  6  1  6  0  0  0
  3  2  1  0  0  0  0
  4  7  1  0  0  0  0
  5 22  1  6  0  0  0
  5  3  1  0  0  0  0
  6  5  1  0  0  0  0
  8  1  1  0  0  0  0
  8  3  1  0  0  0  0
  9 16  1  0  0  0  0
 10 14  1  0  0  0  0
 10 15  1  0  0  0  0
 11 10  2  0  0  0  0
 12 17  1  6  0  0  0
 12  9  1  0  0  0  0
 12 11  1  0  0  0  0
 13 11  1  0  0  0  0
 13 18  2  0  0  0  0
 14 16  1  6  0  0  0
 14  1  1  0  0  0  0
 18 19  1  0  0  0  0
 19 15  2  0  0  0  0
 20 21  1  0  0  0  0
 22 21  1  0  0  0  0
 23 24  1  0  0  0  0
 24 22  2  0  0  0  0
 25 23  1  6  0  0  0
 25 20  1  0  0  0  0
 27 30  1  0  0  0  0
 28 26  1  6  0  0  0
 28 29  1  0  0  0  0
 28 31  1  0  0  0  0
 29 27  1  0  0  0  0
 30 31  1  6  0  0  0
 30 25  1  0  0  0  0
M  END
>  <MODEL>
5

>  <REMARK>
 VINA RESULT:      -6.3      2.316      3.467
  Name = 
  3 active torsions:
  status: ('A' for Active; 'I' for Inactive)
    1  A    between atoms: C_5  and  C_15
    2  A    between atoms: C_7  and  C_25
    3  A    between atoms: N_26  and  C_31
                            x       y       z     vdW  Elec       q    Type
                         _______ _______ _______ _____ _____    ______ ____

>  <TORSDO>
F 3

$$$$
=
 OpenBabel11072412393D

 31 36  0  0  1  0  0  0  0  0999 V2000
  158.3950  211.0610  153.4170 C   0  0  1  0  0  3  0  0  0  0  0  0
  160.8780  212.1730  152.6810 N   0  0  0  0  0  2  0  0  0  0  0  0
  160.7230  210.7290  152.8610 C   0  0  1  0  0  0  0  0  0  0  0  0
  158.6150  212.5370  153.0410 C   0  0  0  0  0  2  0  0  0  0  0  0
  161.9250  209.8530  152.5320 C   0  0  1  0  0  3  0  0  0  0  0  0
  161.5550  210.1720  153.9890 C   0  0  0  0  0  2  0  0  0  0  0  0
  159.7090  212.6750  152.0790 N   0  0  0  0  0  2  0  0  0  0  0  0
  159.3680  210.1700  152.7660 N   0  0  0  0  0  2  0  0  0  0  0  0
  156.1270  211.0940  155.2490 C   0  0  0  0  0  2  0  0  0  0  0  0
  158.6650  212.1260  155.7160 C   0  0  0  0  0  0  0  0  0  0  0  0
  157.5930  212.8150  156.3160 C   0  0  0  0  0  0  0  0  0  0  0  0
  156.2010  212.2390  156.2590 C   0  0  1  0  0  3  0  0  0  0  0  0
  157.8520  213.9680  157.0700 C   0  0  0  0  0  3  0  0  0  0  0  0
  158.3960  210.8580  154.9460 C   0  0  1  0  0  3  0  0  0  0  0  0
  159.9700  212.6160  155.8390 C   0  0  0  0  0  3  0  0  0  0  0  0
  157.2190  210.2160  155.4100 O   0  0  0  0  0  0  0  0  0  0  0  0
  155.1800  213.2940  155.8760 C   0  0  0  0  0  1  0  0  0  0  0  0
  159.1570  214.4530  157.1900 C   0  0  0  0  0  3  0  0  0  0  0  0
  160.2140  213.7810  156.5710 C   0  0  0  0  0  3  0  0  0  0  0  0
  160.7570  206.1550  152.8030 C   0  0  0  0  0  2  0  0  0  0  0  0
  161.5810  207.3860  153.1710 C   0  0  0  0  0  2  0  0  0  0  0  0
  161.5450  208.4510  152.1060 C   0  0  0  0  0  0  0  0  0  0  0  0
  160.7650  206.7910  150.3770 C   0  0  0  0  0  2  0  0  0  0  0  0
  161.2190  208.1530  150.8270 C   0  0  0  0  0  3  0  0  0  0  0  0
  161.1210  205.6960  151.3830 C   0  0  2  0  0  3  0  0  0  0  0  0
  160.8340  202.1780  148.3320 N   0  0  0  0  0  1  0  0  0  0  0  0
  161.1990  203.2810  151.5710 C   0  0  0  0  0  2  0  0  0  0  0  0
  161.4240  202.9930  149.3780 C   0  0  2  0  0  3  0  0  0  0  0  0
  161.3970  202.2980  150.5890 O   0  0  0  0  0  0  0  0  0  0  0  0
  160.4950  204.4230  150.9910 N   0  0  2  0  0  0  0  0  0  0  0  0
  160.6180  204.2480  149.5610 C   0  0  0  0  0  2  0  0  0  0  0  0
  1  4  1  1  0  0  0
  1 14  1  0  0  0  0
  2  3  1  0  0  0  0
  3  6  1  1  0  0  0
  5 22  1  1  0  0  0
  5  3  1  0  0  0  0
  5  6  1  0  0  0  0
  7  2  1  0  0  0  0
  7  4  1  0  0  0  0
  8  3  1  0  0  0  0
  8  1  1  0  0  0  0
  9 16  1  0  0  0  0
  9 12  1  0  0  0  0
 10 15  2  0  0  0  0
 10 11  1  0  0  0  0
 11 13  2  0  0  0  0
 12 17  1  6  0  0  0
 12 11  1  0  0  0  0
 13 18  1  0  0  0  0
 14 16  1  1  0  0  0
 14 10  1  0  0  0  0
 15 19  1  0  0  0  0
 19 18  2  0  0  0  0
 20 21  1  0  0  0  0
 22 21  1  0  0  0  0
 23 24  1  0  0  0  0
 24 22  2  0  0  0  0
 25 23  1  6  0  0  0
 25 20  1  0  0  0  0
 28 26  1  6  0  0  0
 28 31  1  0  0  0  0
 28 29  1  0  0  0  0
 29 27  1  0  0  0  0
 30 31  1  6  0  0  0
 30 25  1  0  0  0  0
 30 27  1  0  0  0  0
M  END
>  <MODEL>
6

>  <REMARK>
 VINA RESULT:      -6.1      4.824     10.069
  Name = 
  3 active torsions:
  status: ('A' for Active; 'I' for Inactive)
    1  A    between atoms: C_5  and  C_15
    2  A    between atoms: C_7  and  C_25
    3  A    between atoms: N_26  and  C_31
                            x       y       z     vdW  Elec       q    Type
                         _______ _______ _______ _____ _____    ______ ____

>  <TORSDO>
F 3

$$$$
=
 OpenBabel11072412393D

 31 36  0  0  1  0  0  0  0  0999 V2000
  160.4630  207.1800  152.9170 C   0  0  1  0  0  3  0  0  0  0  0  0
  161.3040  208.5210  155.2500 N   0  0  0  0  0  2  0  0  0  0  0  0
  161.2240  209.2200  153.9660 C   0  0  1  0  0  0  0  0  0  0  0  0
  160.4170  206.5820  154.3360 C   0  0  0  0  0  2  0  0  0  0  0  0
  161.5110  210.7150  153.9690 C   0  0  1  0  0  3  0  0  0  0  0  0
  162.5600  209.7110  153.4660 C   0  0  0  0  0  2  0  0  0  0  0  0
  160.2190  207.6290  155.3390 N   0  0  0  0  0  2  0  0  0  0  0  0
  160.3560  208.6480  152.9290 N   0  0  0  0  0  2  0  0  0  0  0  0
  161.2300  207.7970  150.1730 C   0  0  0  0  0  2  0  0  0  0  0  0
  161.5620  205.3740  151.4960 C   0  0  0  0  0  0  0  0  0  0  0  0
  161.3060  205.2980  150.1120 C   0  0  0  0  0  0  0  0  0  0  0  0
  161.2780  206.5560  149.2810 C   0  0  1  0  0  3  0  0  0  0  0  0
  161.2060  204.0420  149.4980 C   0  0  0  0  0  3  0  0  0  0  0  0
  161.7200  206.7240  152.1490 C   0  0  1  0  0  3  0  0  0  0  0  0
  161.6710  204.2030  152.2530 C   0  0  0  0  0  3  0  0  0  0  0  0
  162.1710  207.6950  151.2190 O   0  0  0  0  0  0  0  0  0  0  0  0
  160.0800  206.5780  148.3500 C   0  0  0  0  0  1  0  0  0  0  0  0
  161.3160  202.8760  150.2600 C   0  0  0  0  0  3  0  0  0  0  0  0
  161.5440  202.9560  151.6360 C   0  0  0  0  0  3  0  0  0  0  0  0
  159.2100  213.3060  152.2060 C   0  0  0  0  0  2  0  0  0  0  0  0
  159.5710  212.2340  153.2310 C   0  0  0  0  0  2  0  0  0  0  0  0
  160.8090  211.4620  152.8540 C   0  0  0  0  0  0  0  0  0  0  0  0
  160.6230  212.2050  150.4530 C   0  0  0  0  0  2  0  0  0  0  0  0
  161.2460  211.4190  151.5750 C   0  0  0  0  0  3  0  0  0  0  0  0
  159.2180  212.6970  150.7970 C   0  0  2  0  0  3  0  0  0  0  0  0
  158.7000  213.6310  146.2550 N   0  0  0  0  0  1  0  0  0  0  0  0
  157.3390  213.3280  149.4010 C   0  0  0  0  0  2  0  0  0  0  0  0
  158.4550  212.9530  147.5150 C   0  0  2  0  0  3  0  0  0  0  0  0
  157.1970  213.3100  148.0050 O   0  0  0  0  0  0  0  0  0  0  0  0
  158.7310  213.6110  149.7510 N   0  0  2  0  0  0  0  0  0  0  0  0
  159.4730  213.3850  148.5320 C   0  0  0  0  0  2  0  0  0  0  0  0
  1  8  1  0  0  0  0
  1  4  1  1  0  0  0
  2  7  1  0  0  0  0
  3  6  1  6  0  0  0
  3  5  1  0  0  0  0
  3  2  1  0  0  0  0
  4  7  1  0  0  0  0
  5 22  1  6  0  0  0
  6  5  1  0  0  0  0
  8  3  1  0  0  0  0
  9 16  1  0  0  0  0
 10 14  1  0  0  0  0
 10 15  1  0  0  0  0
 11 10  2  0  0  0  0
 12 17  1  6  0  0  0
 12 11  1  0  0  0  0
 12  9  1  0  0  0  0
 13 11  1  0  0  0  0
 13 18  2  0  0  0  0
 14 16  1  6  0  0  0
 14  1  1  0  0  0  0
 18 19  1  0  0  0  0
 19 15  2  0  0  0  0
 20 21  1  0  0  0  0
 22 21  1  0  0  0  0
 23 24  1  0  0  0  0
 24 22  2  0  0  0  0
 25 23  1  6  0  0  0
 25 20  1  0  0  0  0
 27 30  1  0  0  0  0
 28 26  1  6  0  0  0
 28 29  1  0  0  0  0
 28 31  1  0  0  0  0
 29 27  1  0  0  0  0
 30 31  1  6  0  0  0
 30 25  1  0  0  0  0
M  END
>  <MODEL>
7

>  <REMARK>
 VINA RESULT:      -6.0      2.914      4.094
  Name = 
  3 active torsions:
  status: ('A' for Active; 'I' for Inactive)
    1  A    between atoms: C_5  and  C_15
    2  A    between atoms: C_7  and  C_25
    3  A    between atoms: N_26  and  C_31
                            x       y       z     vdW  Elec       q    Type
                         _______ _______ _______ _____ _____    ______ ____

>  <TORSDO>
F 3

$$$$
=
 OpenBabel11072412393D

 31 36  0  0  1  0  0  0  0  0999 V2000
  159.9990  211.0480  152.3910 C   0  0  1  0  0  3  0  0  0  0  0  0
  161.5670  211.7640  150.1600 N   0  0  0  0  0  2  0  0  0  0  0  0
  161.5900  210.4010  150.6910 C   0  0  1  0  0  0  0  0  0  0  0  0
  159.9140  212.4000  151.6600 C   0  0  0  0  0  2  0  0  0  0  0  0
  162.4100  209.3700  149.9270 C   0  0  1  0  0  3  0  0  0  0  0  0
  162.9370  209.9890  151.2310 C   0  0  0  0  0  2  0  0  0  0  0  0
  160.2490  212.2510  150.2430 N   0  0  0  0  0  2  0  0  0  0  0  0
  160.4470  209.9630  151.5030 N   0  0  0  0  0  2  0  0  0  0  0  0
  160.8700  208.8890  154.1460 C   0  0  0  0  0  2  0  0  0  0  0  0
  160.1140  211.4550  154.9030 C   0  0  0  0  0  0  0  0  0  0  0  0
  159.8060  210.4220  155.8100 C   0  0  0  0  0  0  0  0  0  0  0  0
  160.3220  209.0270  155.5670 C   0  0  1  0  0  3  0  0  0  0  0  0
  159.1280  210.7290  156.9980 C   0  0  0  0  0  3  0  0  0  0  0  0
  160.8860  211.1360  153.6480 C   0  0  1  0  0  3  0  0  0  0  0  0
  159.7070  212.7670  155.1700 C   0  0  0  0  0  3  0  0  0  0  0  0
  161.6970  209.9850  153.8230 O   0  0  0  0  0  0  0  0  0  0  0  0
  159.2330  207.9900  155.7720 C   0  0  0  0  0  1  0  0  0  0  0  0
  158.7240  212.0410  157.2600 C   0  0  0  0  0  3  0  0  0  0  0  0
  159.0090  213.0570  156.3450 C   0  0  0  0  0  3  0  0  0  0  0  0
  161.4340  206.0320  151.6650 C   0  0  0  0  0  2  0  0  0  0  0  0
  162.3350  207.2190  151.3360 C   0  0  0  0  0  2  0  0  0  0  0  0
  161.9000  207.9540  150.0940 C   0  0  0  0  0  0  0  0  0  0  0  0
  160.5270  205.9840  149.3280 C   0  0  0  0  0  2  0  0  0  0  0  0
  161.1170  207.3590  149.1660 C   0  0  0  0  0  3  0  0  0  0  0  0
  161.2370  205.1700  150.4100 C   0  0  2  0  0  3  0  0  0  0  0  0
  160.4750  200.7170  149.2440 N   0  0  0  0  0  1  0  0  0  0  0  0
  161.2060  203.0800  151.6360 C   0  0  0  0  0  2  0  0  0  0  0  0
  161.2050  201.8490  149.7850 C   0  0  2  0  0  3  0  0  0  0  0  0
  161.2570  201.7550  151.1770 O   0  0  0  0  0  0  0  0  0  0  0  0
  160.5110  203.9140  150.6580 N   0  0  2  0  0  0  0  0  0  0  0  0
  160.4870  203.1250  149.4480 C   0  0  0  0  0  2  0  0  0  0  0  0
  1  4  1  6  0  0  0
  1 14  1  0  0  0  0
  2  7  1  0  0  0  0
  2  3  1  0  0  0  0
  3  6  1  1  0  0  0
  3  8  1  0  0  0  0
  5 22  1  1  0  0  0
  5  3  1  0  0  0  0
  5  6  1  0  0  0  0
  7  4  1  0  0  0  0
  8  1  1  0  0  0  0
  9 12  1  0  0  0  0
 10 15  2  0  0  0  0
 10 11  1  0  0  0  0
 11 13  2  0  0  0  0
 12 17  1  6  0  0  0
 12 11  1  0  0  0  0
 13 18  1  0  0  0  0
 14 16  1  1  0  0  0
 14 10  1  0  0  0  0
 15 19  1  0  0  0  0
 16  9  1  0  0  0  0
 19 18  2  0  0  0  0
 21 20  1  0  0  0  0
 22 21  1  0  0  0  0
 24 23  1  0  0  0  0
 24 22  2  0  0  0  0
 25 23  1  6  0  0  0
 25 30  1  0  0  0  0
 25 20  1  0  0  0  0
 28 26  1  6  0  0  0
 28 29  1  0  0  0  0
 29 27  1  0  0  0  0
 30 31  1  6  0  0  0
 30 27  1  0  0  0  0
 31 28  1  0  0  0  0
M  END
>  <MODEL>
8

>  <REMARK>
 VINA RESULT:      -5.5      3.630      9.295
  Name = 
  3 active torsions:
  status: ('A' for Active; 'I' for Inactive)
    1  A    between atoms: C_5  and  C_15
    2  A    between atoms: C_7  and  C_25
    3  A    between atoms: N_26  and  C_31
                            x       y       z     vdW  Elec       q    Type
                         _______ _______ _______ _____ _____    ______ ____

>  <TORSDO>
F 3

$$$$
=
 OpenBabel11072412393D

 31 36  0  0  1  0  0  0  0  0999 V2000
  160.4770  204.6490  150.0860 C   0  0  1  0  0  3  0  0  0  0  0  0
  161.0890  203.6510  152.6510 N   0  0  0  0  0  2  0  0  0  0  0  0
  161.2750  205.0670  152.3280 C   0  0  1  0  0  0  0  0  0  0  0  0
  160.1570  203.2220  150.5690 C   0  0  0  0  0  2  0  0  0  0  0  0
  161.7080  205.9880  153.4610 C   0  0  1  0  0  3  0  0  0  0  0  0
  162.7130  205.5150  152.3990 C   0  0  0  0  0  2  0  0  0  0  0  0
  159.9180  203.2000  152.0120 N   0  0  0  0  0  2  0  0  0  0  0  0
  160.5190  205.6150  151.1940 N   0  0  0  0  0  2  0  0  0  0  0  0
  161.7820  206.9600  148.8790 C   0  0  0  0  0  2  0  0  0  0  0  0
  161.5750  204.4070  147.8000 C   0  0  0  0  0  0  0  0  0  0  0  0
  161.5580  205.4750  146.8800 C   0  0  0  0  0  0  0  0  0  0  0  0
  161.8310  206.8800  147.3530 C   0  0  1  0  0  3  0  0  0  0  0  0
  161.4120  205.2030  145.5130 C   0  0  0  0  0  3  0  0  0  0  0  0
  161.7820  204.6910  149.2650 C   0  0  1  0  0  3  0  0  0  0  0  0
  161.4060  203.0930  147.3500 C   0  0  0  0  0  3  0  0  0  0  0  0
  162.5060  205.8970  149.4570 O   0  0  0  0  0  0  0  0  0  0  0  0
  160.8260  207.8620  146.7800 C   0  0  0  0  0  1  0  0  0  0  0  0
  161.2420  203.8890  145.0700 C   0  0  0  0  0  3  0  0  0  0  0  0
  161.2340  202.8360  145.9870 C   0  0  0  0  0  3  0  0  0  0  0  0
  160.4800  209.5680  154.3510 C   0  0  0  0  0  2  0  0  0  0  0  0
  160.4770  208.0420  154.4000 C   0  0  0  0  0  2  0  0  0  0  0  0
  161.2600  207.4220  153.2720 C   0  0  0  0  0  0  0  0  0  0  0  0
  161.1590  209.5580  151.9380 C   0  0  0  0  0  2  0  0  0  0  0  0
  161.5190  208.1100  152.1370 C   0  0  0  0  0  3  0  0  0  0  0  0
  160.1090  210.0400  152.9380 C   0  0  2  0  0  3  0  0  0  0  0  0
  157.2290  213.7110  152.9680 N   0  0  0  0  0  1  0  0  0  0  0  0
  160.0720  212.1540  154.1230 C   0  0  0  0  0  2  0  0  0  0  0  0
  157.9790  212.5970  153.5210 C   0  0  2  0  0  3  0  0  0  0  0  0
  159.0320  213.0790  154.3010 O   0  0  0  0  0  0  0  0  0  0  0  0
  159.9310  211.4960  152.8250 N   0  0  2  0  0  0  0  0  0  0  0  0
  158.5770  211.7850  152.4090 C   0  0  0  0  0  2  0  0  0  0  0  0
  1  4  1  1  0  0  0
  1  8  1  0  0  0  0
  3  6  1  6  0  0  0
  3  2  1  0  0  0  0
  3  5  1  0  0  0  0
  4  7  1  0  0  0  0
  5 22  1  6  0  0  0
  6  5  1  0  0  0  0
  7  2  1  0  0  0  0
  8  3  1  0  0  0  0
  9 16  1  0  0  0  0
 11 12  1  0  0  0  0
 11 10  2  0  0  0  0
 12 17  1  6  0  0  0
 12  9  1  0  0  0  0
 13 11  1  0  0  0  0
 14 10  1  6  0  0  0
 14 16  1  0  0  0  0
 14  1  1  0  0  0  0
 15 10  1  0  0  0  0
 18 13  2  0  0  0  0
 18 19  1  0  0  0  0
 19 15  2  0  0  0  0
 20 21  1  0  0  0  0
 22 21  1  0  0  0  0
 23 24  1  0  0  0  0
 24 22  2  0  0  0  0
 25 23  1  6  0  0  0
 25 20  1  0  0  0  0
 27 29  1  0  0  0  0
 28 26  1  6  0  0  0
 28 29  1  0  0  0  0
 30 31  1  1  0  0  0
 30 25  1  0  0  0  0
 30 27  1  0  0  0  0
 31 28  1  0  0  0  0
M  END
>  <MODEL>
9

>  <REMARK>
 VINA RESULT:      -5.5      3.024      3.974
  Name = 
  3 active torsions:
  status: ('A' for Active; 'I' for Inactive)
    1  A    between atoms: C_5  and  C_15
    2  A    between atoms: C_7  and  C_25
    3  A    between atoms: N_26  and  C_31
                            x       y       z     vdW  Elec       q    Type
                         _______ _______ _______ _____ _____    ______ ____

>  <TORSDO>
F 3

$$$$
