=
 OpenBabel11072415043D

 39 45  0  0  1  0  0  0  0  0999 V2000
  160.3230  209.2010  154.2040 C   0  0  0  0  0  2  0  0  0  0  0  0
  160.7370  206.1050  154.0590 N   0  0  0  0  0  2  0  0  0  0  0  0
  161.3730  208.1830  154.0170 N   0  0  1  0  0  0  0  0  0  0  0  0
  161.8700  210.6500  157.2600 N   0  0  0  0  0  2  0  0  0  0  0  0
  160.4620  207.2550  156.2330 C   0  0  0  0  0  2  0  0  0  0  0  0
  161.0480  208.3080  157.1850 C   0  0  0  0  0  2  0  0  0  0  0  0
  161.5340  209.5280  156.4110 C   0  0  1  0  0  3  0  0  0  0  0  0
  161.3350  207.0570  154.9760 C   0  0  2  0  0  0  0  0  0  0  0  0
  160.8030  207.2040  153.0990 C   0  0  1  0  0  0  0  0  0  0  0  0
  161.7620  211.7990  156.4430 N   0  0  0  0  0  2  0  0  0  0  0  0
  160.4900  210.0430  155.4800 C   0  0  1  0  0  3  0  0  0  0  0  0
  160.9900  211.4360  155.2490 C   0  0  1  0  0  3  0  0  0  0  0  0
  161.7920  206.8780  151.9760 C   0  0  2  0  0  3  0  0  0  0  0  0
  160.7370  205.3330  150.4020 C   0  0  2  0  0  3  0  0  0  0  0  0
  161.4340  207.6520  150.7210 C   0  0  0  0  0  2  0  0  0  0  0  0
  160.5910  206.7380  149.8480 C   0  0  1  0  0  3  0  0  0  0  0  0
  161.6750  205.4160  151.5920 C   0  0  0  0  0  2  0  0  0  0  0  0
  161.4750  205.7300  149.1380 C   0  0  2  0  0  3  0  0  0  0  0  0
  161.4230  203.9130  147.3660 C   0  0  1  0  0  3  0  0  0  0  0  0
  160.7470  205.1690  147.9190 C   0  0  2  0  0  3  0  0  0  0  0  0
  162.6120  205.1620  145.8440 C   0  0  2  0  0  3  0  0  0  0  0  0
  162.7150  204.2040  146.8830 O   0  0  0  0  0  0  0  0  0  0  0  0
  162.0710  206.3940  146.2960 O   0  0  0  0  0  0  0  0  0  0  0  0
  160.7620  206.1860  146.7820 C   0  0  0  0  0  2  0  0  0  0  0  0
  161.4290  205.6950  143.8300 O   0  0  0  0  0  1  0  0  0  0  0  0
  161.9460  204.6320  144.5700 C   0  0  0  0  0  2  0  0  0  0  0  0
  161.4730  202.7840  148.3890 C   0  0  0  0  0  2  0  0  0  0  0  0
  160.7780  201.5500  146.4650 O   0  0  0  0  0  1  0  0  0  0  0  0
  160.7760  201.5400  147.8610 C   0  0  0  0  0  2  0  0  0  0  0  0
  159.8150  212.3830  155.0770 C   0  0  0  0  0  2  0  0  0  0  0  0
  158.4910  211.6280  155.1690 C   0  0  1  0  0  3  0  0  0  0  0  0
  157.7780  213.3020  156.7400 O   0  0  0  0  0  1  0  0  0  0  0  0
  156.4120  211.5040  156.3960 O   0  0  0  0  0  1  0  0  0  0  0  0
  157.7400  211.9340  156.4650 C   0  0  0  0  0  3  0  0  0  0  0  0
  157.6100  211.9530  153.9690 C   0  0  0  0  0  2  0  0  0  0  0  0
  158.4180  211.9490  152.6770 C   0  0  0  0  0  2  0  0  0  0  0  0
  158.2160  214.3170  152.5070 O   0  0  0  0  0  0  0  0  0  0  0  0
  158.2060  213.2100  151.9100 C   0  0  0  0  0  0  0  0  0  0  0  0
  157.9700  213.1620  150.5070 N   0  0  0  0  0  1  0  0  0  0  0  0
  2  8  1  0  0  0  0
  3  1  1  1  0  0  0
  3  8  1  0  0  0  0
  5  6  1  0  0  0  0
  7  6  1  1  0  0  0
  7  4  1  0  0  0  0
  8  5  1  1  0  0  0
  9  3  1  0  0  0  0
  9  2  1  6  0  0  0
  9  8  1  0  0  0  0
 10  4  1  0  0  0  0
 11  1  1  6  0  0  0
 11  7  1  0  0  0  0
 12 30  1  1  0  0  0
 12 11  1  0  0  0  0
 12 10  1  0  0  0  0
 13 15  1  6  0  0  0
 13  9  1  0  0  0  0
 14 17  1  1  0  0  0
 16 14  1  0  0  0  0
 16 15  1  1  0  0  0
 17 13  1  0  0  0  0
 18 20  1  6  0  0  0
 18 16  1  0  0  0  0
 18 14  1  0  0  0  0
 19 20  1  0  0  0  0
 19 27  1  1  0  0  0
 20 24  1  6  0  0  0
 21 26  1  6  0  0  0
 21 23  1  0  0  0  0
 21 22  1  0  0  0  0
 22 19  1  0  0  0  0
 23 24  1  0  0  0  0
 25 26  1  0  0  0  0
 28 29  1  0  0  0  0
 29 27  1  0  0  0  0
 30 31  1  0  0  0  0
 31 35  1  6  0  0  0
 31 34  1  0  0  0  0
 33 34  1  0  0  0  0
 34 32  1  0  0  0  0
 36 35  1  0  0  0  0
 38 37  2  0  0  0  0
 38 36  1  0  0  0  0
 39 38  1  0  0  0  0
M  END
>  <MODEL>
1

>  <REMARK>
 VINA RESULT:      -7.7      0.000      0.000
  Name = 
  11 active torsions:
  status: ('A' for Active; 'I' for Inactive)
    1  A    between atoms: C_2  and  C_28
    2  A    between atoms: C_7  and  C_8
    3  A    between atoms: C_7  and  C_27
    4  A    between atoms: C_9  and  C_21
    5  A    between atoms: C_10  and  C_11
    6  A    between atoms: C_10  and  C_12
    7  A    between atoms: C_11  and  C_34
    8  A    between atoms: C_12  and  C_36
    9  A    between atoms: C_12  and  C_37
   10  A    between atoms: C_24  and  C_30
   11  A    between atoms: C_36  and  C_38
                            x       y       z     vdW  Elec       q    Type
                         _______ _______ _______ _____ _____    ______ ____

>  <TORSDO>
F 11

$$$$
=
 OpenBabel11072415043D

 39 45  0  0  1  0  0  0  0  0999 V2000
  159.7480  209.1040  154.2890 C   0  0  0  0  0  2  0  0  0  0  0  0
  161.2500  206.3750  154.5760 N   0  0  0  0  0  2  0  0  0  0  0  0
  161.0780  208.4920  154.1130 N   0  0  1  0  0  0  0  0  0  0  0  0
  160.9020  211.5760  156.8170 N   0  0  0  0  0  2  0  0  0  0  0  0
  160.7510  207.7710  156.5570 C   0  0  0  0  0  2  0  0  0  0  0  0
  160.9880  209.1290  157.2340 C   0  0  0  0  0  2  0  0  0  0  0  0
  160.9310  210.2610  156.2140 C   0  0  1  0  0  3  0  0  0  0  0  0
  161.5310  207.6380  155.2320 C   0  0  2  0  0  0  0  0  0  0  0  0
  160.8320  207.2140  153.4550 C   0  0  1  0  0  0  0  0  0  0  0  0
  160.3170  212.4300  155.8540 N   0  0  0  0  0  2  0  0  0  0  0  0
  159.7000  210.1890  155.3770 C   0  0  1  0  0  3  0  0  0  0  0  0
  159.6370  211.5930  154.8590 C   0  0  1  0  0  3  0  0  0  0  0  0
  161.7780  207.0300  152.2640 C   0  0  2  0  0  3  0  0  0  0  0  0
  160.7760  205.4590  150.6810 C   0  0  2  0  0  3  0  0  0  0  0  0
  161.2750  207.8180  151.0690 C   0  0  0  0  0  2  0  0  0  0  0  0
  160.4680  206.8660  150.2030 C   0  0  1  0  0  3  0  0  0  0  0  0
  161.7720  205.5810  151.8190 C   0  0  0  0  0  2  0  0  0  0  0  0
  161.3980  205.9760  149.3980 C   0  0  2  0  0  3  0  0  0  0  0  0
  161.2290  204.0570  147.7440 C   0  0  1  0  0  3  0  0  0  0  0  0
  160.6520  205.3990  148.1960 C   0  0  2  0  0  3  0  0  0  0  0  0
  162.5570  205.0990  146.1810 C   0  0  2  0  0  3  0  0  0  0  0  0
  162.5530  204.2060  147.2800 O   0  0  0  0  0  0  0  0  0  0  0  0
  162.1140  206.3990  146.5370 O   0  0  0  0  0  0  0  0  0  0  0  0
  160.7800  206.3350  146.9980 C   0  0  0  0  0  2  0  0  0  0  0  0
  161.7460  205.5550  143.9730 O   0  0  0  0  0  1  0  0  0  0  0  0
  161.8780  204.5440  144.9240 C   0  0  0  0  0  2  0  0  0  0  0  0
  161.1580  202.9970  148.8380 C   0  0  0  0  0  2  0  0  0  0  0  0
  161.3710  200.6210  148.7150 O   0  0  0  0  0  1  0  0  0  0  0  0
  160.5850  201.6970  148.2990 C   0  0  0  0  0  2  0  0  0  0  0  0
  158.1880  212.0240  154.7150 C   0  0  0  0  0  2  0  0  0  0  0  0
  157.9330  212.6220  153.3330 C   0  0  1  0  0  3  0  0  0  0  0  0
  155.8210  213.7180  152.9880 O   0  0  0  0  0  1  0  0  0  0  0  0
  157.1440  214.4530  154.7000 O   0  0  0  0  0  1  0  0  0  0  0  0
  157.1380  213.9260  153.4060 C   0  0  0  0  0  3  0  0  0  0  0  0
  159.2500  212.8570  152.6040 C   0  0  0  0  0  2  0  0  0  0  0  0
  159.1760  214.0950  151.7200 C   0  0  0  0  0  2  0  0  0  0  0  0
  159.9640  213.6630  149.5130 O   0  0  0  0  0  0  0  0  0  0  0  0
  158.9770  213.7200  150.2910 C   0  0  0  0  0  0  0  0  0  0  0  0
  157.6690  213.4460  149.7990 N   0  0  0  0  0  1  0  0  0  0  0  0
  2  8  1  0  0  0  0
  3  1  1  1  0  0  0
  3  8  1  0  0  0  0
  5  6  1  0  0  0  0
  7  4  1  0  0  0  0
  7  6  1  1  0  0  0
  8  5  1  1  0  0  0
  9  3  1  0  0  0  0
  9  2  1  6  0  0  0
  9  8  1  0  0  0  0
 10  4  1  0  0  0  0
 11  1  1  6  0  0  0
 11  7  1  0  0  0  0
 12 30  1  1  0  0  0
 12 11  1  0  0  0  0
 12 10  1  0  0  0  0
 13 15  1  6  0  0  0
 13  9  1  0  0  0  0
 14 17  1  1  0  0  0
 16 14  1  0  0  0  0
 16 15  1  1  0  0  0
 17 13  1  0  0  0  0
 18 20  1  6  0  0  0
 18 16  1  0  0  0  0
 18 14  1  0  0  0  0
 19 20  1  0  0  0  0
 19 27  1  1  0  0  0
 20 24  1  6  0  0  0
 21 26  1  6  0  0  0
 21 23  1  0  0  0  0
 21 22  1  0  0  0  0
 22 19  1  0  0  0  0
 23 24  1  0  0  0  0
 25 26  1  0  0  0  0
 29 28  1  0  0  0  0
 29 27  1  0  0  0  0
 31 35  1  1  0  0  0
 31 34  1  0  0  0  0
 31 30  1  0  0  0  0
 32 34  1  0  0  0  0
 34 33  1  0  0  0  0
 36 35  1  0  0  0  0
 37 38  2  0  0  0  0
 38 36  1  0  0  0  0
 39 38  1  0  0  0  0
M  END
>  <MODEL>
2

>  <REMARK>
 VINA RESULT:      -7.6      1.186      1.597
  Name = 
  11 active torsions:
  status: ('A' for Active; 'I' for Inactive)
    1  A    between atoms: C_2  and  C_28
    2  A    between atoms: C_7  and  C_8
    3  A    between atoms: C_7  and  C_27
    4  A    between atoms: C_9  and  C_21
    5  A    between atoms: C_10  and  C_11
    6  A    between atoms: C_10  and  C_12
    7  A    between atoms: C_11  and  C_34
    8  A    between atoms: C_12  and  C_36
    9  A    between atoms: C_12  and  C_37
   10  A    between atoms: C_24  and  C_30
   11  A    between atoms: C_36  and  C_38
                            x       y       z     vdW  Elec       q    Type
                         _______ _______ _______ _____ _____    ______ ____

>  <TORSDO>
F 11

$$$$
=
 OpenBabel11072415043D

 39 45  0  0  1  0  0  0  0  0999 V2000
  160.0290  209.2510  154.3270 C   0  0  0  0  0  2  0  0  0  0  0  0
  161.0750  206.3040  154.2610 N   0  0  0  0  0  2  0  0  0  0  0  0
  161.2520  208.4630  154.0830 N   0  0  1  0  0  0  0  0  0  0  0  0
  161.4800  211.1570  157.1730 N   0  0  0  0  0  2  0  0  0  0  0  0
  160.7410  207.4910  156.4060 C   0  0  0  0  0  2  0  0  0  0  0  0
  161.1670  208.6940  157.2600 C   0  0  0  0  0  2  0  0  0  0  0  0
  161.3200  209.9430  156.4000 C   0  0  1  0  0  3  0  0  0  0  0  0
  161.5310  207.4090  155.0830 C   0  0  2  0  0  0  0  0  0  0  0  0
  160.8280  207.3380  153.2580 C   0  0  1  0  0  0  0  0  0  0  0  0
  161.0650  212.2110  156.3270 N   0  0  0  0  0  2  0  0  0  0  0  0
  160.1180  210.1790  155.5500 C   0  0  1  0  0  3  0  0  0  0  0  0
  160.2930  211.6300  155.2230 C   0  0  1  0  0  3  0  0  0  0  0  0
  161.7690  207.1610  152.0630 C   0  0  2  0  0  3  0  0  0  0  0  0
  160.8580  205.4510  150.5720 C   0  0  2  0  0  3  0  0  0  0  0  0
  161.1980  207.8550  150.8400 C   0  0  0  0  0  2  0  0  0  0  0  0
  160.4480  206.8080  150.0330 C   0  0  1  0  0  3  0  0  0  0  0  0
  161.8580  205.6960  151.6870 C   0  0  0  0  0  2  0  0  0  0  0  0
  161.4260  205.9470  149.2560 C   0  0  2  0  0  3  0  0  0  0  0  0
  161.4470  204.0160  147.6070 C   0  0  1  0  0  3  0  0  0  0  0  0
  160.7070  205.2630  148.0950 C   0  0  2  0  0  3  0  0  0  0  0  0
  162.5210  205.2330  145.9760 C   0  0  2  0  0  3  0  0  0  0  0  0
  162.7070  204.3540  147.0710 O   0  0  0  0  0  0  0  0  0  0  0  0
  161.9140  206.4570  146.3620 O   0  0  0  0  0  0  0  0  0  0  0  0
  160.6320  206.2020  146.8950 C   0  0  0  0  0  2  0  0  0  0  0  0
  161.7250  205.5190  143.7340 O   0  0  0  0  0  1  0  0  0  0  0  0
  161.8610  204.5810  144.7570 C   0  0  0  0  0  2  0  0  0  0  0  0
  161.5910  202.9630  148.6980 C   0  0  0  0  0  2  0  0  0  0  0  0
  161.0790  200.6810  148.2100 O   0  0  0  0  0  1  0  0  0  0  0  0
  160.5090  201.9020  148.5760 C   0  0  0  0  0  2  0  0  0  0  0  0
  158.9350  212.3020  155.1240 C   0  0  0  0  0  2  0  0  0  0  0  0
  158.9310  213.3640  154.0270 C   0  0  1  0  0  3  0  0  0  0  0  0
  157.8390  213.6320  151.9020 O   0  0  0  0  0  1  0  0  0  0  0  0
  159.8300  212.5100  151.9510 O   0  0  0  0  0  1  0  0  0  0  0  0
  158.6460  212.7690  152.6470 C   0  0  0  0  0  3  0  0  0  0  0  0
  157.9150  214.4530  154.3440 C   0  0  0  0  0  2  0  0  0  0  0  0
  157.2940  214.2420  155.7200 C   0  0  0  0  0  2  0  0  0  0  0  0
  155.2190  214.1320  154.5530 O   0  0  0  0  0  0  0  0  0  0  0  0
  155.8560  213.8640  155.6040 C   0  0  0  0  0  0  0  0  0  0  0  0
  155.1970  213.2210  156.6890 N   0  0  0  0  0  1  0  0  0  0  0  0
  2  8  1  0  0  0  0
  3  1  1  1  0  0  0
  3  8  1  0  0  0  0
  5  6  1  0  0  0  0
  7  4  1  0  0  0  0
  7  6  1  1  0  0  0
  8  5  1  1  0  0  0
  9  3  1  0  0  0  0
  9  2  1  6  0  0  0
  9  8  1  0  0  0  0
 10  4  1  0  0  0  0
 11  1  1  6  0  0  0
 11  7  1  0  0  0  0
 12 30  1  1  0  0  0
 12 11  1  0  0  0  0
 12 10  1  0  0  0  0
 13 15  1  6  0  0  0
 13  9  1  0  0  0  0
 14 17  1  1  0  0  0
 16 14  1  0  0  0  0
 16 15  1  1  0  0  0
 17 13  1  0  0  0  0
 18 20  1  6  0  0  0
 18 16  1  0  0  0  0
 18 14  1  0  0  0  0
 19 20  1  0  0  0  0
 19 27  1  1  0  0  0
 20 24  1  6  0  0  0
 21 26  1  6  0  0  0
 21 23  1  0  0  0  0
 21 22  1  0  0  0  0
 22 19  1  0  0  0  0
 23 24  1  0  0  0  0
 25 26  1  0  0  0  0
 28 29  1  0  0  0  0
 29 27  1  0  0  0  0
 31 35  1  1  0  0  0
 31 30  1  0  0  0  0
 32 34  1  0  0  0  0
 33 34  1  0  0  0  0
 34 31  1  0  0  0  0
 35 36  1  0  0  0  0
 37 38  2  0  0  0  0
 38 36  1  0  0  0  0
 38 39  1  0  0  0  0
M  END
>  <MODEL>
3

>  <REMARK>
 VINA RESULT:      -7.4      1.581      2.189
  Name = 
  11 active torsions:
  status: ('A' for Active; 'I' for Inactive)
    1  A    between atoms: C_2  and  C_28
    2  A    between atoms: C_7  and  C_8
    3  A    between atoms: C_7  and  C_27
    4  A    between atoms: C_9  and  C_21
    5  A    between atoms: C_10  and  C_11
    6  A    between atoms: C_10  and  C_12
    7  A    between atoms: C_11  and  C_34
    8  A    between atoms: C_12  and  C_36
    9  A    between atoms: C_12  and  C_37
   10  A    between atoms: C_24  and  C_30
   11  A    between atoms: C_36  and  C_38
                            x       y       z     vdW  Elec       q    Type
                         _______ _______ _______ _____ _____    ______ ____

>  <TORSDO>
F 11

$$$$
=
 OpenBabel11072415043D

 39 45  0  0  1  0  0  0  0  0999 V2000
  161.8590  203.5200  148.4980 C   0  0  0  0  0  2  0  0  0  0  0  0
  161.4220  202.5020  151.4230 N   0  0  0  0  0  2  0  0  0  0  0  0
  160.8080  203.3480  149.5180 N   0  0  1  0  0  0  0  0  0  0  0  0
  160.2140  201.2960  146.0120 N   0  0  0  0  0  2  0  0  0  0  0  0
  161.6290  200.9140  149.5360 C   0  0  0  0  0  2  0  0  0  0  0  0
  161.0170  200.4520  148.2060 C   0  0  0  0  0  2  0  0  0  0  0  0
  160.5710  201.6470  147.3700 C   0  0  1  0  0  3  0  0  0  0  0  0
  160.8000  202.0360  150.1980 C   0  0  2  0  0  0  0  0  0  0  0  0
  161.4020  203.8080  150.7680 C   0  0  1  0  0  0  0  0  0  0  0  0
  160.3620  202.4820  145.2560 N   0  0  0  0  0  2  0  0  0  0  0  0
  161.6530  202.6640  147.2380 C   0  0  1  0  0  3  0  0  0  0  0  0
  161.1730  203.4210  146.0380 C   0  0  1  0  0  3  0  0  0  0  0  0
  160.4520  204.7610  151.4990 C   0  0  2  0  0  3  0  0  0  0  0  0
  161.7640  206.3120  152.8590 C   0  0  2  0  0  3  0  0  0  0  0  0
  160.4400  206.1150  150.8150 C   0  0  0  0  0  2  0  0  0  0  0  0
  161.4300  207.0040  151.5500 C   0  0  1  0  0  3  0  0  0  0  0  0
  160.9620  205.0240  152.9010 C   0  0  0  0  0  2  0  0  0  0  0  0
  160.8220  207.5020  152.8480 C   0  0  2  0  0  3  0  0  0  0  0  0
  161.1860  209.1400  154.7540 C   0  0  1  0  0  3  0  0  0  0  0  0
  161.5640  208.7490  153.3240 C   0  0  2  0  0  3  0  0  0  0  0  0
  159.5940  210.6110  153.9820 C   0  0  2  0  0  3  0  0  0  0  0  0
  159.8260  209.5040  154.8360 O   0  0  0  0  0  0  0  0  0  0  0  0
  159.8410  210.3050  152.6190 O   0  0  0  0  0  0  0  0  0  0  0  0
  161.1960  209.9460  152.4520 C   0  0  0  0  0  2  0  0  0  0  0  0
  159.8800  212.1930  155.7590 O   0  0  0  0  0  1  0  0  0  0  0  0
  160.2630  211.9090  154.4480 C   0  0  0  0  0  2  0  0  0  0  0  0
  161.5100  208.0420  155.7600 C   0  0  0  0  0  2  0  0  0  0  0  0
  159.7310  206.8810  156.8530 O   0  0  0  0  0  1  0  0  0  0  0  0
  160.5090  208.0390  156.9040 C   0  0  0  0  0  2  0  0  0  0  0  0
  162.3630  203.8930  145.2190 C   0  0  0  0  0  2  0  0  0  0  0  0
  162.5110  205.4110  145.3010 C   0  0  1  0  0  3  0  0  0  0  0  0
  161.3050  205.7950  143.2570 O   0  0  0  0  0  1  0  0  0  0  0  0
  160.1370  205.8560  145.2200 O   0  0  0  0  0  1  0  0  0  0  0  0
  161.3600  206.1420  144.6080 C   0  0  0  0  0  3  0  0  0  0  0  0
  162.6120  205.8570  146.7540 C   0  0  0  0  0  2  0  0  0  0  0  0
  161.7040  207.0500  147.0260 C   0  0  0  0  0  2  0  0  0  0  0  0
  163.2210  207.4800  148.8130 O   0  0  0  0  0  0  0  0  0  0  0  0
  162.2420  207.8870  148.1370 C   0  0  0  0  0  0  0  0  0  0  0  0
  161.6350  209.1370  148.4480 N   0  0  0  0  0  1  0  0  0  0  0  0
  3  1  1  6  0  0  0
  3  8  1  0  0  0  0
  3  9  1  0  0  0  0
  4  7  1  0  0  0  0
  6  5  1  0  0  0  0
  7  6  1  1  0  0  0
  8  5  1  6  0  0  0
  8  9  1  0  0  0  0
  8  2  1  0  0  0  0
  9  2  1  1  0  0  0
  9 13  1  0  0  0  0
 10  4  1  0  0  0  0
 10 12  1  0  0  0  0
 11  7  1  0  0  0  0
 11  1  1  1  0  0  0
 12 30  1  6  0  0  0
 12 11  1  0  0  0  0
 13 15  1  6  0  0  0
 13 17  1  0  0  0  0
 14 17  1  6  0  0  0
 16 15  1  6  0  0  0
 16 18  1  0  0  0  0
 16 14  1  0  0  0  0
 18 14  1  0  0  0  0
 18 20  1  1  0  0  0
 19 22  1  0  0  0  0
 19 27  1  1  0  0  0
 20 24  1  6  0  0  0
 20 19  1  0  0  0  0
 21 26  1  1  0  0  0
 21 22  1  0  0  0  0
 23 21  1  0  0  0  0
 24 23  1  0  0  0  0
 26 25  1  0  0  0  0
 27 29  1  0  0  0  0
 28 29  1  0  0  0  0
 31 30  1  1  0  0  0
 31 35  1  0  0  0  0
 32 34  1  0  0  0  0
 34 33  1  0  0  0  0
 34 31  1  0  0  0  0
 35 36  1  0  0  0  0
 36 38  1  0  0  0  0
 38 39  1  0  0  0  0
 38 37  2  0  0  0  0
M  END
>  <MODEL>
4

>  <REMARK>
 VINA RESULT:      -7.1      3.197      9.781
  Name = 
  11 active torsions:
  status: ('A' for Active; 'I' for Inactive)
    1  A    between atoms: C_2  and  C_28
    2  A    between atoms: C_7  and  C_8
    3  A    between atoms: C_7  and  C_27
    4  A    between atoms: C_9  and  C_21
    5  A    between atoms: C_10  and  C_11
    6  A    between atoms: C_10  and  C_12
    7  A    between atoms: C_11  and  C_34
    8  A    between atoms: C_12  and  C_36
    9  A    between atoms: C_12  and  C_37
   10  A    between atoms: C_24  and  C_30
   11  A    between atoms: C_36  and  C_38
                            x       y       z     vdW  Elec       q    Type
                         _______ _______ _______ _____ _____    ______ ____

>  <TORSDO>
F 11

$$$$
=
 OpenBabel11072415043D

 39 45  0  0  1  0  0  0  0  0999 V2000
  161.6870  203.6000  148.0110 C   0  0  0  0  0  2  0  0  0  0  0  0
  161.6430  202.6580  150.9930 N   0  0  0  0  0  2  0  0  0  0  0  0
  160.7650  203.3800  149.1410 N   0  0  1  0  0  0  0  0  0  0  0  0
  159.9910  201.1580  145.7770 N   0  0  0  0  0  2  0  0  0  0  0  0
  161.7890  201.0240  149.1410 C   0  0  0  0  0  2  0  0  0  0  0  0
  161.0850  200.4640  147.8960 C   0  0  0  0  0  2  0  0  0  0  0  0
  160.4550  201.5860  147.0790 C   0  0  1  0  0  3  0  0  0  0  0  0
  160.9400  202.0970  149.8550 C   0  0  2  0  0  0  0  0  0  0  0  0
  161.4440  203.9330  150.3070 C   0  0  1  0  0  0  0  0  0  0  0  0
  159.9580  202.3230  144.9760 N   0  0  0  0  0  2  0  0  0  0  0  0
  161.4260  202.6830  146.8050 C   0  0  1  0  0  3  0  0  0  0  0  0
  160.7630  203.3540  145.6410 C   0  0  1  0  0  3  0  0  0  0  0  0
  160.4960  204.8310  151.1070 C   0  0  2  0  0  3  0  0  0  0  0  0
  161.8140  206.3200  152.5300 C   0  0  2  0  0  3  0  0  0  0  0  0
  160.4560  206.2220  150.5020 C   0  0  0  0  0  2  0  0  0  0  0  0
  161.4490  207.0800  151.2690 C   0  0  1  0  0  3  0  0  0  0  0  0
  161.0290  205.0210  152.5130 C   0  0  0  0  0  2  0  0  0  0  0  0
  160.8590  207.4960  152.6040 C   0  0  2  0  0  3  0  0  0  0  0  0
  161.2050  209.0530  154.5780 C   0  0  1  0  0  3  0  0  0  0  0  0
  161.5950  208.7230  153.1360 C   0  0  2  0  0  3  0  0  0  0  0  0
  159.6160  210.5520  153.8580 C   0  0  2  0  0  3  0  0  0  0  0  0
  159.8440  209.4110  154.6660 O   0  0  0  0  0  0  0  0  0  0  0  0
  159.8720  210.3040  152.4850 O   0  0  0  0  0  0  0  0  0  0  0  0
  161.2290  209.9550  152.3120 C   0  0  0  0  0  2  0  0  0  0  0  0
  160.1960  211.8680  155.7750 O   0  0  0  0  0  1  0  0  0  0  0  0
  160.2790  211.8300  154.3830 C   0  0  0  0  0  2  0  0  0  0  0  0
  161.5260  207.9150  155.5400 C   0  0  0  0  0  2  0  0  0  0  0  0
  159.7060  206.9630  156.7610 O   0  0  0  0  0  1  0  0  0  0  0  0
  160.6520  207.9900  156.7810 C   0  0  0  0  0  2  0  0  0  0  0  0
  161.8160  203.8910  144.6880 C   0  0  0  0  0  2  0  0  0  0  0  0
  161.3450  205.1860  144.0300 C   0  0  1  0  0  3  0  0  0  0  0  0
  160.0930  206.5050  145.6030 O   0  0  0  0  0  1  0  0  0  0  0  0
  162.3250  206.2050  145.9910 O   0  0  0  0  0  1  0  0  0  0  0  0
  161.3470  206.3640  145.0050 C   0  0  0  0  0  3  0  0  0  0  0  0
  162.2090  205.5120  142.8190 C   0  0  0  0  0  2  0  0  0  0  0  0
  161.5820  206.6160  141.9770 C   0  0  0  0  0  2  0  0  0  0  0  0
  163.0770  205.8270  140.2970 O   0  0  0  0  0  0  0  0  0  0  0  0
  162.1690  206.6400  140.6060 C   0  0  0  0  0  0  0  0  0  0  0  0
  161.7180  207.5970  139.6530 N   0  0  0  0  0  1  0  0  0  0  0  0
  3  1  1  6  0  0  0
  3  8  1  0  0  0  0
  3  9  1  0  0  0  0
  4  7  1  0  0  0  0
  6  5  1  0  0  0  0
  7  6  1  6  0  0  0
  8  5  1  6  0  0  0
  8  9  1  0  0  0  0
  8  2  1  0  0  0  0
  9  2  1  6  0  0  0
  9 13  1  0  0  0  0
 10 12  1  0  0  0  0
 10  4  1  0  0  0  0
 11  7  1  0  0  0  0
 11  1  1  1  0  0  0
 12 30  1  6  0  0  0
 12 11  1  0  0  0  0
 13 15  1  6  0  0  0
 13 17  1  0  0  0  0
 14 17  1  6  0  0  0
 14 18  1  0  0  0  0
 16 15  1  6  0  0  0
 16 14  1  0  0  0  0
 16 18  1  0  0  0  0
 18 20  1  1  0  0  0
 19 22  1  0  0  0  0
 19 27  1  1  0  0  0
 20 24  1  6  0  0  0
 20 19  1  0  0  0  0
 21 26  1  1  0  0  0
 21 22  1  0  0  0  0
 23 21  1  0  0  0  0
 24 23  1  0  0  0  0
 26 25  1  0  0  0  0
 27 29  1  0  0  0  0
 28 29  1  0  0  0  0
 31 35  1  6  0  0  0
 31 30  1  0  0  0  0
 31 34  1  0  0  0  0
 34 32  1  0  0  0  0
 34 33  1  0  0  0  0
 36 35  1  0  0  0  0
 37 38  2  0  0  0  0
 38 36  1  0  0  0  0
 39 38  1  0  0  0  0
M  END
>  <MODEL>
5

>  <REMARK>
 VINA RESULT:      -5.7      3.857     10.474
  Name = 
  11 active torsions:
  status: ('A' for Active; 'I' for Inactive)
    1  A    between atoms: C_2  and  C_28
    2  A    between atoms: C_7  and  C_8
    3  A    between atoms: C_7  and  C_27
    4  A    between atoms: C_9  and  C_21
    5  A    between atoms: C_10  and  C_11
    6  A    between atoms: C_10  and  C_12
    7  A    between atoms: C_11  and  C_34
    8  A    between atoms: C_12  and  C_36
    9  A    between atoms: C_12  and  C_37
   10  A    between atoms: C_24  and  C_30
   11  A    between atoms: C_36  and  C_38
                            x       y       z     vdW  Elec       q    Type
                         _______ _______ _______ _____ _____    ______ ____

>  <TORSDO>
F 11

$$$$
=
 OpenBabel11072415043D

 39 45  0  0  1  0  0  0  0  0999 V2000
  160.6720  208.7400  152.7700 C   0  0  0  0  0  2  0  0  0  0  0  0
  162.3290  207.7580  150.3060 N   0  0  0  0  0  2  0  0  0  0  0  0
  160.5560  208.5020  151.3200 N   0  0  1  0  0  0  0  0  0  0  0  0
  159.8750  212.3650  152.5290 N   0  0  0  0  0  2  0  0  0  0  0  0
  162.6010  210.0520  151.1940 C   0  0  0  0  0  2  0  0  0  0  0  0
  161.8970  211.3880  151.4680 C   0  0  0  0  0  2  0  0  0  0  0  0
  160.4960  211.1600  152.0230 C   0  0  1  0  0  3  0  0  0  0  0  0
  161.6680  209.0340  150.5030 C   0  0  2  0  0  0  0  0  0  0  0  0
  161.2150  207.2220  151.0840 C   0  0  1  0  0  0  0  0  0  0  0  0
  158.8980  211.9370  153.4570 N   0  0  0  0  0  2  0  0  0  0  0  0
  160.5060  210.2140  153.1750 C   0  0  1  0  0  3  0  0  0  0  0  0
  159.1910  210.5440  153.8130 C   0  0  1  0  0  3  0  0  0  0  0  0
  160.3380  206.3160  150.2140 C   0  0  2  0  0  3  0  0  0  0  0  0
  161.7250  205.2760  148.4900 C   0  0  2  0  0  3  0  0  0  0  0  0
  160.5510  204.8620  150.5910 C   0  0  0  0  0  2  0  0  0  0  0  0
  161.5840  204.2910  149.6350 C   0  0  1  0  0  3  0  0  0  0  0  0
  160.7670  206.4210  148.7640 C   0  0  0  0  0  2  0  0  0  0  0  0
  160.9450  203.9910  148.2920 C   0  0  2  0  0  3  0  0  0  0  0  0
  161.6100  203.0980  146.0100 C   0  0  1  0  0  3  0  0  0  0  0  0
  161.7990  202.9840  147.5240 C   0  0  2  0  0  3  0  0  0  0  0  0
  160.0150  201.4410  146.0340 C   0  0  2  0  0  3  0  0  0  0  0  0
  160.2890  202.7730  145.6380 O   0  0  0  0  0  0  0  0  0  0  0  0
  160.0840  201.2690  147.4410 O   0  0  0  0  0  0  0  0  0  0  0  0
  161.3910  201.5600  147.8900 C   0  0  0  0  0  2  0  0  0  0  0  0
  161.2030  199.3620  146.1070 O   0  0  0  0  0  1  0  0  0  0  0  0
  160.7980  200.3830  145.2490 C   0  0  0  0  0  2  0  0  0  0  0  0
  161.9960  204.4740  145.4800 C   0  0  0  0  0  2  0  0  0  0  0  0
  160.3270  206.1710  145.2660 O   0  0  0  0  0  1  0  0  0  0  0  0
  160.8820  205.0600  144.6280 C   0  0  0  0  0  2  0  0  0  0  0  0
  159.3000  210.4000  155.3210 C   0  0  0  0  0  2  0  0  0  0  0  0
  160.7520  210.1910  155.7440 C   0  0  1  0  0  3  0  0  0  0  0  0
  160.4780  212.3360  156.7950 O   0  0  0  0  0  1  0  0  0  0  0  0
  162.4650  211.2460  157.0840 O   0  0  0  0  0  1  0  0  0  0  0  0
  161.4150  211.4930  156.1950 C   0  0  0  0  0  3  0  0  0  0  0  0
  160.8380  209.1520  156.8540 C   0  0  0  0  0  2  0  0  0  0  0  0
  161.4760  207.8620  156.3520 C   0  0  0  0  0  2  0  0  0  0  0  0
  159.2880  206.9430  156.1350 O   0  0  0  0  0  0  0  0  0  0  0  0
  160.4640  206.9880  155.6910 C   0  0  0  0  0  0  0  0  0  0  0  0
  160.8320  206.1890  154.5720 N   0  0  0  0  0  1  0  0  0  0  0  0
  2  8  1  0  0  0  0
  3  1  1  1  0  0  0
  4 10  1  0  0  0  0
  5  6  1  0  0  0  0
  7  6  1  1  0  0  0
  7  4  1  0  0  0  0
  7 11  1  0  0  0  0
  8  9  1  0  0  0  0
  8  5  1  1  0  0  0
  8  3  1  0  0  0  0
  9  2  1  1  0  0  0
  9  3  1  0  0  0  0
 10 12  1  0  0  0  0
 11  1  1  6  0  0  0
 11 12  1  0  0  0  0
 12 30  1  1  0  0  0
 13 17  1  6  0  0  0
 13 15  1  0  0  0  0
 13  9  1  0  0  0  0
 14 17  1  1  0  0  0
 14 16  1  0  0  0  0
 16 15  1  1  0  0  0
 18 20  1  6  0  0  0
 18 14  1  0  0  0  0
 18 16  1  0  0  0  0
 19 27  1  1  0  0  0
 19 20  1  0  0  0  0
 20 24  1  1  0  0  0
 21 26  1  6  0  0  0
 21 23  1  0  0  0  0
 22 19  1  0  0  0  0
 22 21  1  0  0  0  0
 23 24  1  0  0  0  0
 26 25  1  0  0  0  0
 29 28  1  0  0  0  0
 29 27  1  0  0  0  0
 31 30  1  1  0  0  0
 31 34  1  0  0  0  0
 31 35  1  0  0  0  0
 34 32  1  0  0  0  0
 34 33  1  0  0  0  0
 36 35  1  0  0  0  0
 38 37  2  0  0  0  0
 38 36  1  0  0  0  0
 39 38  1  0  0  0  0
M  END
>  <MODEL>
6

>  <REMARK>
 VINA RESULT:      -4.9      2.176      4.564
  Name = 
  11 active torsions:
  status: ('A' for Active; 'I' for Inactive)
    1  A    between atoms: C_2  and  C_28
    2  A    between atoms: C_7  and  C_8
    3  A    between atoms: C_7  and  C_27
    4  A    between atoms: C_9  and  C_21
    5  A    between atoms: C_10  and  C_11
    6  A    between atoms: C_10  and  C_12
    7  A    between atoms: C_11  and  C_34
    8  A    between atoms: C_12  and  C_36
    9  A    between atoms: C_12  and  C_37
   10  A    between atoms: C_24  and  C_30
   11  A    between atoms: C_36  and  C_38
                            x       y       z     vdW  Elec       q    Type
                         _______ _______ _______ _____ _____    ______ ____

>  <TORSDO>
F 11

$$$$
