=
 OpenBabel11072414123D

 28 31  0  0  1  0  0  0  0  0999 V2000
  161.4950  204.5660  149.9020 C   0  0  0  0  0  0  0  0  0  0  0  0
  160.6700  203.4600  150.2430 N   0  0  0  0  0  0  0  0  0  0  0  0
  161.2150  205.3100  153.0600 C   0  0  0  0  0  2  0  0  0  0  0  0
  161.8770  204.2680  152.1790 C   0  0  1  0  0  3  0  0  0  0  0  0
  161.8750  206.6710  152.7870 C   0  0  1  0  0  3  0  0  0  0  0  0
  162.7810  206.6650  151.1850 S   0  0  0  0  0  0  0  0  0  0  0  0
  160.8890  203.2990  151.6350 C   0  0  0  0  0  0  0  0  0  0  0  0
  160.3100  202.4160  152.3200 O   0  0  0  0  0  0  0  0  0  0  0  0
  162.2010  205.0070  150.9470 C   0  0  2  0  0  3  0  0  0  0  0  0
  161.0570  208.8670  151.7820 C   0  0  0  0  0  2  0  0  0  0  0  0
  160.8150  208.3810  154.2970 C   0  0  0  0  0  2  0  0  0  0  0  0
  160.8540  207.8030  152.8800 C   0  0  2  0  0  3  0  0  0  0  0  0
  159.9180  211.7270  155.4540 C   0  0  0  0  0  2  0  0  0  0  0  0
  161.2390  210.2780  152.3420 C   0  0  0  0  0  2  0  0  0  0  0  0
  158.9300  210.8560  152.5820 O   0  0  0  0  0  1  0  0  0  0  0  0
  159.9860  210.2400  155.7240 C   0  0  0  0  0  2  0  0  0  0  0  0
  160.4670  211.9060  154.0560 C   0  0  0  0  0  2  0  0  0  0  0  0
  160.1050  210.6400  153.3050 C   0  0  2  0  0  0  0  0  0  0  0  0
  159.8490  209.5630  154.3750 C   0  0  1  0  0  3  0  0  0  0  0  0
  161.3990  205.2240  148.5550 C   0  0  2  0  0  3  0  0  0  0  0  0
  159.6770  206.7330  149.2680 O   0  0  0  0  0  1  0  0  0  0  0  0
  160.7600  206.5730  148.6440 C   0  0  0  0  0  0  0  0  0  0  0  0
  161.3850  207.6670  148.0620 O   0  0  0  0  0  0  0  0  0  0  0  0
  160.7300  204.4070  147.6360 O   0  0  0  0  0  0  0  0  0  0  0  0
  161.5980  204.5420  146.1820 P   0  0  2  0  0  0  0  0  0  0  0  0
  163.1880  205.0340  146.4880 O   0  0  0  0  0  1  0  0  0  0  0  0
  160.7940  205.7760  145.1260 C   0  0  0  0  0  1  0  0  0  0  0  0
  161.6090  203.2090  145.4680 O   0  0  0  0  0  0  0  0  0  0  0  0
  1  2  2  0  0  0  0
  2  7  1  0  0  0  0
  4  3  1  1  0  0  0
  5 12  1  0  0  0  0
  5  3  1  6  0  0  0
  6  5  1  0  0  0  0
  7  4  1  0  0  0  0
  7  8  2  0  0  0  0
  9  1  1  6  0  0  0
  9  6  1  0  0  0  0
  9  4  1  0  0  0  0
 10 14  1  0  0  0  0
 12 10  1  6  0  0  0
 12 11  1  0  0  0  0
 13 16  1  0  0  0  0
 14 18  1  0  0  0  0
 17 13  1  0  0  0  0
 18 15  1  6  0  0  0
 18 17  1  0  0  0  0
 18 19  1  0  0  0  0
 19 11  1  1  0  0  0
 19 16  1  0  0  0  0
 20 24  1  6  0  0  0
 20 22  1  0  0  0  0
 20  1  1  0  0  0  0
 22 21  1  0  0  0  0
 23 22  2  0  0  0  0
 25 27  1  6  0  0  0
 25 26  1  0  0  0  0
 25 24  1  0  0  0  0
 28 25  2  0  0  0  0
M  END
>  <MODEL>
1

>  <REMARK>
 VINA RESULT:      -6.2      0.000      0.000
  Name = 
  5 active torsions:
  status: ('A' for Active; 'I' for Inactive)
    1  A    between atoms: C_1  and  C_16
    2  A    between atoms: C_4  and  C_20
    3  A    between atoms: P_6  and  O_17
    4  A    between atoms: C_16  and  O_17
    5  A    between atoms: C_16  and  C_27
                            x       y       z     vdW  Elec       q    Type
                         _______ _______ _______ _____ _____    ______ ____

>  <TORSDO>
F 5

$$$$
=
 OpenBabel11072414123D

 28 31  0  0  1  0  0  0  0  0999 V2000
  159.6740  211.0240  155.4520 C   0  0  0  0  0  0  0  0  0  0  0  0
  160.6710  211.9250  155.9130 N   0  0  0  0  0  0  0  0  0  0  0  0
  161.9630  208.7660  155.9640 C   0  0  0  0  0  2  0  0  0  0  0  0
  161.0660  209.6930  156.7600 C   0  0  1  0  0  3  0  0  0  0  0  0
  161.0840  207.7270  155.2500 C   0  0  1  0  0  3  0  0  0  0  0  0
  159.3330  208.2840  155.1580 S   0  0  0  0  0  0  0  0  0  0  0  0
  161.5290  211.1030  156.6890 C   0  0  0  0  0  0  0  0  0  0  0  0
  162.5620  211.5410  157.2600 O   0  0  0  0  0  0  0  0  0  0  0  0
  159.8480  209.7910  155.9370 C   0  0  2  0  0  3  0  0  0  0  0  0
  161.2390  208.3750  152.7880 C   0  0  0  0  0  2  0  0  0  0  0  0
  161.3510  205.9130  153.5280 C   0  0  0  0  0  2  0  0  0  0  0  0
  161.6600  207.3700  153.8810 C   0  0  2  0  0  3  0  0  0  0  0  0
  160.9670  204.3070  150.2710 C   0  0  0  0  0  2  0  0  0  0  0  0
  160.5430  207.7100  151.6000 C   0  0  0  0  0  2  0  0  0  0  0  0
  162.4920  207.0710  150.3700 O   0  0  0  0  0  1  0  0  0  0  0  0
  161.3620  204.2000  151.7270 C   0  0  0  0  0  2  0  0  0  0  0  0
  160.5450  205.7470  150.0750 C   0  0  0  0  0  2  0  0  0  0  0  0
  161.3830  206.5570  151.0430 C   0  0  2  0  0  0  0  0  0  0  0  0
  161.8610  205.5740  152.1270 C   0  0  1  0  0  3  0  0  0  0  0  0
  158.6780  211.4320  154.4040 C   0  0  2  0  0  3  0  0  0  0  0  0
  158.6110  211.6710  152.0190 O   0  0  0  0  0  0  0  0  0  0  0  0
  159.3160  211.5610  153.0570 C   0  0  0  0  0  0  0  0  0  0  0  0
  160.7000  211.5960  152.9550 O   0  0  0  0  0  1  0  0  0  0  0  0
  158.0150  212.6110  154.7640 O   0  0  0  0  0  0  0  0  0  0  0  0
  156.3970  212.1680  155.0260 P   0  0  2  0  0  0  0  0  0  0  0  0
  155.3930  212.8920  153.8720 O   0  0  0  0  0  0  0  0  0  0  0  0
  155.8910  212.7220  156.6750 C   0  0  0  0  0  1  0  0  0  0  0  0
  156.2590  210.6640  154.9430 O   0  0  0  0  0  1  0  0  0  0  0  0
  1  2  2  0  0  0  0
  1  9  1  0  0  0  0
  2  7  1  0  0  0  0
  4  3  1  6  0  0  0
  5  3  1  6  0  0  0
  6  5  1  0  0  0  0
  7  4  1  0  0  0  0
  7  8  2  0  0  0  0
  9  6  1  6  0  0  0
  9  4  1  0  0  0  0
 11 12  1  0  0  0  0
 12 10  1  6  0  0  0
 12  5  1  0  0  0  0
 13 16  1  0  0  0  0
 14 10  1  0  0  0  0
 17 13  1  0  0  0  0
 17 18  1  0  0  0  0
 18 15  1  6  0  0  0
 18 14  1  0  0  0  0
 18 19  1  0  0  0  0
 19 16  1  6  0  0  0
 19 11  1  0  0  0  0
 20 22  1  6  0  0  0
 20 24  1  0  0  0  0
 20  1  1  0  0  0  0
 21 22  2  0  0  0  0
 23 22  1  0  0  0  0
 24 25  1  0  0  0  0
 25 27  1  1  0  0  0
 26 25  2  0  0  0  0
 28 25  1  0  0  0  0
M  END
>  <MODEL>
2

>  <REMARK>
 VINA RESULT:      -6.1      4.110      8.188
  Name = 
  5 active torsions:
  status: ('A' for Active; 'I' for Inactive)
    1  A    between atoms: C_1  and  C_16
    2  A    between atoms: C_4  and  C_20
    3  A    between atoms: P_6  and  O_17
    4  A    between atoms: C_16  and  O_17
    5  A    between atoms: C_16  and  C_27
                            x       y       z     vdW  Elec       q    Type
                         _______ _______ _______ _____ _____    ______ ____

>  <TORSDO>
F 5

$$$$
=
 OpenBabel11072414123D

 28 31  0  0  1  0  0  0  0  0999 V2000
  161.0750  208.3230  154.3880 C   0  0  0  0  0  0  0  0  0  0  0  0
  160.2880  207.2630  154.9140 N   0  0  0  0  0  0  0  0  0  0  0  0
  160.4760  209.7350  157.2610 C   0  0  0  0  0  2  0  0  0  0  0  0
  161.2710  208.5740  156.6950 C   0  0  1  0  0  3  0  0  0  0  0  0
  161.0800  211.0460  156.7310 C   0  0  1  0  0  3  0  0  0  0  0  0
  162.1230  210.7480  155.2450 S   0  0  0  0  0  0  0  0  0  0  0  0
  160.3910  207.4370  156.3180 C   0  0  0  0  0  0  0  0  0  0  0  0
  159.8040  206.6900  157.1440 O   0  0  0  0  0  0  0  0  0  0  0  0
  161.6600  209.0400  155.3520 C   0  0  2  0  0  3  0  0  0  0  0  0
  158.6120  211.6310  156.9990 C   0  0  0  0  0  2  0  0  0  0  0  0
  159.9890  212.5320  155.0200 C   0  0  0  0  0  2  0  0  0  0  0  0
  159.9920  212.0900  156.4860 C   0  0  2  0  0  3  0  0  0  0  0  0
  157.2670  213.8200  152.9540 C   0  0  0  0  0  2  0  0  0  0  0  0
  157.5330  211.6550  155.9150 C   0  0  0  0  0  2  0  0  0  0  0  0
  156.9170  213.9600  156.0900 O   0  0  0  0  0  1  0  0  0  0  0  0
  158.7470  213.7780  153.2640 C   0  0  0  0  0  2  0  0  0  0  0  0
  156.6170  212.9170  153.9790 C   0  0  0  0  0  2  0  0  0  0  0  0
  157.4770  213.0200  155.2230 C   0  0  2  0  0  0  0  0  0  0  0  0
  158.8540  213.5210  154.7540 C   0  0  1  0  0  3  0  0  0  0  0  0
  161.0630  208.6520  152.9230 C   0  0  2  0  0  3  0  0  0  0  0  0
  159.2030  210.1520  153.1280 O   0  0  0  0  0  1  0  0  0  0  0  0
  160.3500  209.9390  152.6520 C   0  0  0  0  0  0  0  0  0  0  0  0
  160.9750  210.9230  151.8990 O   0  0  0  0  0  0  0  0  0  0  0  0
  160.5180  207.6040  152.1710 O   0  0  0  0  0  0  0  0  0  0  0  0
  161.7760  207.0490  151.1750 P   0  0  2  0  0  0  0  0  0  0  0  0
  162.5690  208.3540  150.4440 O   0  0  0  0  0  0  0  0  0  0  0  0
  161.0820  205.9850  149.8830 C   0  0  0  0  0  1  0  0  0  0  0  0
  162.7640  206.2520  151.9960 O   0  0  0  0  0  1  0  0  0  0  0  0
  1  2  2  0  0  0  0
  2  7  1  0  0  0  0
  4  3  1  6  0  0  0
  5  3  1  6  0  0  0
  6  9  1  0  0  0  0
  6  5  1  0  0  0  0
  7  4  1  0  0  0  0
  7  8  2  0  0  0  0
  9  1  1  6  0  0  0
  9  4  1  0  0  0  0
 12 11  1  6  0  0  0
 12  5  1  0  0  0  0
 12 10  1  0  0  0  0
 13 16  1  0  0  0  0
 13 17  1  0  0  0  0
 14 10  1  0  0  0  0
 17 18  1  0  0  0  0
 18 14  1  0  0  0  0
 18 15  1  1  0  0  0
 19 16  1  6  0  0  0
 19 11  1  0  0  0  0
 19 18  1  0  0  0  0
 20 24  1  6  0  0  0
 20  1  1  0  0  0  0
 22 20  1  0  0  0  0
 22 21  1  0  0  0  0
 23 22  2  0  0  0  0
 25 27  1  6  0  0  0
 25 28  1  0  0  0  0
 25 24  1  0  0  0  0
 26 25  2  0  0  0  0
M  END
>  <MODEL>
3

>  <REMARK>
 VINA RESULT:      -5.6      3.411      5.484
  Name = 
  5 active torsions:
  status: ('A' for Active; 'I' for Inactive)
    1  A    between atoms: C_1  and  C_16
    2  A    between atoms: C_4  and  C_20
    3  A    between atoms: P_6  and  O_17
    4  A    between atoms: C_16  and  O_17
    5  A    between atoms: C_16  and  C_27
                            x       y       z     vdW  Elec       q    Type
                         _______ _______ _______ _____ _____    ______ ____

>  <TORSDO>
F 5

$$$$
=
 OpenBabel11072414123D

 28 31  0  0  1  0  0  0  0  0999 V2000
  160.1440  210.9750  156.1650 C   0  0  0  0  0  0  0  0  0  0  0  0
  161.4080  211.6250  156.1570 N   0  0  0  0  0  0  0  0  0  0  0  0
  161.9140  208.2740  155.7510 C   0  0  0  0  0  2  0  0  0  0  0  0
  161.6320  209.3090  156.8220 C   0  0  1  0  0  3  0  0  0  0  0  0
  160.6250  207.4810  155.4840 C   0  0  1  0  0  3  0  0  0  0  0  0
  159.1460  208.3850  156.1030 S   0  0  0  0  0  0  0  0  0  0  0  0
  162.3120  210.5990  156.5330 C   0  0  0  0  0  0  0  0  0  0  0  0
  163.5540  210.7820  156.6220 O   0  0  0  0  0  0  0  0  0  0  0  0
  160.2360  209.7040  156.5660 C   0  0  2  0  0  3  0  0  0  0  0  0
  161.2530  205.7960  153.6750 C   0  0  0  0  0  2  0  0  0  0  0  0
  160.9060  208.2840  153.1170 C   0  0  0  0  0  2  0  0  0  0  0  0
  160.5070  207.1050  154.0080 C   0  0  2  0  0  3  0  0  0  0  0  0
  162.2890  208.3220  149.7370 C   0  0  0  0  0  2  0  0  0  0  0  0
  162.2840  205.9630  152.5590 C   0  0  0  0  0  2  0  0  0  0  0  0
  160.8180  205.6930  150.6880 O   0  0  0  0  0  1  0  0  0  0  0  0
  161.4560  209.0010  150.8010 C   0  0  0  0  0  2  0  0  0  0  0  0
  162.7550  207.0250  150.3610 C   0  0  0  0  0  2  0  0  0  0  0  0
  161.6580  206.6110  151.3210 C   0  0  2  0  0  0  0  0  0  0  0  0
  160.8610  207.8880  151.6410 C   0  0  1  0  0  3  0  0  0  0  0  0
  158.9200  211.6420  155.6070 C   0  0  2  0  0  3  0  0  0  0  0  0
  159.3090  213.9820  155.2580 O   0  0  0  0  0  1  0  0  0  0  0  0
  159.2720  212.8240  154.7610 C   0  0  0  0  0  0  0  0  0  0  0  0
  159.5970  212.6380  153.4250 O   0  0  0  0  0  0  0  0  0  0  0  0
  158.0250  211.9960  156.6240 O   0  0  0  0  0  0  0  0  0  0  0  0
  156.4740  211.8420  155.9470 P   0  0  2  0  0  0  0  0  0  0  0  0
  156.0060  213.2930  155.2120 O   0  0  0  0  0  1  0  0  0  0  0  0
  155.2920  211.4410  157.2610 C   0  0  0  0  0  1  0  0  0  0  0  0
  156.4720  210.7320  154.9210 O   0  0  0  0  0  0  0  0  0  0  0  0
  1  9  1  0  0  0  0
  2  1  2  0  0  0  0
  2  7  1  0  0  0  0
  4  3  1  6  0  0  0
  5  3  1  6  0  0  0
  5  6  1  0  0  0  0
  7  8  2  0  0  0  0
  7  4  1  0  0  0  0
  9  6  1  6  0  0  0
  9  4  1  0  0  0  0
 10 12  1  0  0  0  0
 12 11  1  6  0  0  0
 12  5  1  0  0  0  0
 13 17  1  0  0  0  0
 13 16  1  0  0  0  0
 14 10  1  0  0  0  0
 17 18  1  0  0  0  0
 18 15  1  6  0  0  0
 18 19  1  0  0  0  0
 18 14  1  0  0  0  0
 19 16  1  6  0  0  0
 19 11  1  0  0  0  0
 20 22  1  1  0  0  0
 20  1  1  0  0  0  0
 20 24  1  0  0  0  0
 22 21  1  0  0  0  0
 23 22  2  0  0  0  0
 25 24  1  0  0  0  0
 25 27  1  1  0  0  0
 26 25  1  0  0  0  0
 28 25  2  0  0  0  0
M  END
>  <MODEL>
4

>  <REMARK>
 VINA RESULT:      -5.6      4.268      8.404
  Name = 
  5 active torsions:
  status: ('A' for Active; 'I' for Inactive)
    1  A    between atoms: C_1  and  C_16
    2  A    between atoms: C_4  and  C_20
    3  A    between atoms: P_6  and  O_17
    4  A    between atoms: C_16  and  O_17
    5  A    between atoms: C_16  and  C_27
                            x       y       z     vdW  Elec       q    Type
                         _______ _______ _______ _____ _____    ______ ____

>  <TORSDO>
F 5

$$$$
=
 OpenBabel11072414123D

 28 31  0  0  1  0  0  0  0  0999 V2000
  160.5160  212.3160  150.2570 C   0  0  0  0  0  0  0  0  0  0  0  0
  160.2740  212.8410  148.9590 N   0  0  0  0  0  0  0  0  0  0  0  0
  162.1370  209.9980  148.6450 C   0  0  0  0  0  2  0  0  0  0  0  0
  162.2690  211.4710  148.9790 C   0  0  1  0  0  3  0  0  0  0  0  0
  162.2530  209.1880  149.9460 C   0  0  1  0  0  3  0  0  0  0  0  0
  161.9570  210.2480  151.4210 S   0  0  0  0  0  0  0  0  0  0  0  0
  161.3310  212.3030  148.1810 C   0  0  0  0  0  0  0  0  0  0  0  0
  161.4540  212.5270  146.9480 O   0  0  0  0  0  0  0  0  0  0  0  0
  161.6340  211.5860  150.3040 C   0  0  2  0  0  3  0  0  0  0  0  0
  161.3640  207.1790  151.2410 C   0  0  0  0  0  2  0  0  0  0  0  0
  161.6430  207.0990  148.6840 C   0  0  0  0  0  2  0  0  0  0  0  0
  161.3420  207.9620  149.9120 C   0  0  2  0  0  3  0  0  0  0  0  0
  161.2080  203.5110  148.1610 C   0  0  0  0  0  2  0  0  0  0  0  0
  161.7420  205.7080  151.0620 C   0  0  0  0  0  2  0  0  0  0  0  0
  159.5760  204.8580  150.5080 O   0  0  0  0  0  1  0  0  0  0  0  0
  161.2480  204.9070  147.5810 C   0  0  0  0  0  2  0  0  0  0  0  0
  161.4520  203.6870  149.6440 C   0  0  0  0  0  2  0  0  0  0  0  0
  160.8650  205.0380  150.0010 C   0  0  2  0  0  0  0  0  0  0  0  0
  160.7850  205.8340  148.6870 C   0  0  1  0  0  3  0  0  0  0  0  0
  159.5010  212.4550  151.3560 C   0  0  2  0  0  3  0  0  0  0  0  0
  158.1870  214.4530  151.5230 O   0  0  0  0  0  1  0  0  0  0  0  0
  158.3680  213.3440  150.9530 C   0  0  0  0  0  0  0  0  0  0  0  0
  157.5320  212.9590  149.9150 O   0  0  0  0  0  0  0  0  0  0  0  0
  160.0950  212.8990  152.5440 O   0  0  0  0  0  0  0  0  0  0  0  0
  159.4190  211.9510  153.7800 P   0  0  2  0  0  0  0  0  0  0  0  0
  158.2480  212.8330  154.6260 O   0  0  0  0  0  1  0  0  0  0  0  0
  160.7280  211.4580  154.9310 C   0  0  0  0  0  1  0  0  0  0  0  0
  158.7880  210.7120  153.1860 O   0  0  0  0  0  0  0  0  0  0  0  0
  1 20  1  0  0  0  0
  2  1  2  0  0  0  0
  4  3  1  6  0  0  0
  4  9  1  0  0  0  0
  5  3  1  6  0  0  0
  5  6  1  0  0  0  0
  7  2  1  0  0  0  0
  7  4  1  0  0  0  0
  8  7  2  0  0  0  0
  9  1  1  6  0  0  0
  9  6  1  0  0  0  0
 11 19  1  0  0  0  0
 12 11  1  6  0  0  0
 12  5  1  0  0  0  0
 12 10  1  0  0  0  0
 13 17  1  0  0  0  0
 14 10  1  0  0  0  0
 16 13  1  0  0  0  0
 17 18  1  0  0  0  0
 18 15  1  1  0  0  0
 18 14  1  0  0  0  0
 19 16  1  6  0  0  0
 19 18  1  0  0  0  0
 20 22  1  6  0  0  0
 20 24  1  0  0  0  0
 22 21  1  0  0  0  0
 23 22  2  0  0  0  0
 24 25  1  0  0  0  0
 25 26  1  0  0  0  0
 25 27  1  1  0  0  0
 28 25  2  0  0  0  0
M  END
>  <MODEL>
5

>  <REMARK>
 VINA RESULT:      -5.2      3.779      8.262
  Name = 
  5 active torsions:
  status: ('A' for Active; 'I' for Inactive)
    1  A    between atoms: C_1  and  C_16
    2  A    between atoms: C_4  and  C_20
    3  A    between atoms: P_6  and  O_17
    4  A    between atoms: C_16  and  O_17
    5  A    between atoms: C_16  and  C_27
                            x       y       z     vdW  Elec       q    Type
                         _______ _______ _______ _____ _____    ______ ____

>  <TORSDO>
F 5

$$$$
=
 OpenBabel11072414123D

 28 31  0  0  1  0  0  0  0  0999 V2000
  160.5650  211.3910  152.5820 C   0  0  0  0  0  0  0  0  0  0  0  0
  160.0090  212.2320  151.5800 N   0  0  0  0  0  0  0  0  0  0  0  0
  161.7550  209.7320  150.0450 C   0  0  0  0  0  2  0  0  0  0  0  0
  161.9560  211.0630  150.7430 C   0  0  1  0  0  3  0  0  0  0  0  0
  162.1930  208.6080  150.9970 C   0  0  1  0  0  3  0  0  0  0  0  0
  162.2610  209.1980  152.7390 S   0  0  0  0  0  0  0  0  0  0  0  0
  160.8460  212.0080  150.4560 C   0  0  0  0  0  0  0  0  0  0  0  0
  160.6610  212.5700  149.3450 O   0  0  0  0  0  0  0  0  0  0  0  0
  161.6650  210.7620  152.1560 C   0  0  2  0  0  3  0  0  0  0  0  0
  161.4160  206.4090  152.0300 C   0  0  0  0  0  2  0  0  0  0  0  0
  161.5660  206.7040  149.4780 C   0  0  0  0  0  2  0  0  0  0  0  0
  161.3090  207.3730  150.8300 C   0  0  2  0  0  3  0  0  0  0  0  0
  161.1850  203.2160  148.4640 C   0  0  0  0  0  2  0  0  0  0  0  0
  161.8170  204.9910  151.6230 C   0  0  0  0  0  2  0  0  0  0  0  0
  159.6460  204.1650  151.0550 O   0  0  0  0  0  1  0  0  0  0  0  0
  161.1640  204.6810  148.0900 C   0  0  0  0  0  2  0  0  0  0  0  0
  161.5010  203.1860  149.9430 C   0  0  0  0  0  2  0  0  0  0  0  0
  160.9020  204.4530  150.5190 C   0  0  2  0  0  0  0  0  0  0  0  0
  160.7380  205.4260  149.3380 C   0  0  1  0  0  3  0  0  0  0  0  0
  159.8510  211.1460  153.8800 C   0  0  2  0  0  3  0  0  0  0  0  0
  157.4740  211.4540  153.8140 O   0  0  0  0  0  0  0  0  0  0  0  0
  158.6090  211.9720  153.9910 C   0  0  0  0  0  0  0  0  0  0  0  0
  158.7070  213.3140  154.3290 O   0  0  0  0  0  1  0  0  0  0  0  0
  160.6980  211.3570  154.9740 O   0  0  0  0  0  0  0  0  0  0  0  0
  160.3210  210.1340  156.0910 P   0  0  2  0  0  0  0  0  0  0  0  0
  159.2440  210.7160  157.2610 O   0  0  0  0  0  1  0  0  0  0  0  0
  161.8430  209.5920  156.9120 C   0  0  0  0  0  1  0  0  0  0  0  0
  159.6990  208.9580  155.3710 O   0  0  0  0  0  0  0  0  0  0  0  0
  1 20  1  0  0  0  0
  2  1  2  0  0  0  0
  4  3  1  6  0  0  0
  4  9  1  0  0  0  0
  5  3  1  6  0  0  0
  5  6  1  0  0  0  0
  7  4  1  0  0  0  0
  7  2  1  0  0  0  0
  8  7  2  0  0  0  0
  9  1  1  6  0  0  0
  9  6  1  0  0  0  0
 12 11  1  6  0  0  0
 12  5  1  0  0  0  0
 12 10  1  0  0  0  0
 13 17  1  0  0  0  0
 14 10  1  0  0  0  0
 16 13  1  0  0  0  0
 17 18  1  0  0  0  0
 18 15  1  1  0  0  0
 18 14  1  0  0  0  0
 19 16  1  6  0  0  0
 19 11  1  0  0  0  0
 19 18  1  0  0  0  0
 20 22  1  1  0  0  0
 20 24  1  0  0  0  0
 21 22  2  0  0  0  0
 22 23  1  0  0  0  0
 24 25  1  0  0  0  0
 25 27  1  1  0  0  0
 25 26  1  0  0  0  0
 28 25  2  0  0  0  0
M  END
>  <MODEL>
6

>  <REMARK>
 VINA RESULT:      -5.2      3.738      8.245
  Name = 
  5 active torsions:
  status: ('A' for Active; 'I' for Inactive)
    1  A    between atoms: C_1  and  C_16
    2  A    between atoms: C_4  and  C_20
    3  A    between atoms: P_6  and  O_17
    4  A    between atoms: C_16  and  O_17
    5  A    between atoms: C_16  and  C_27
                            x       y       z     vdW  Elec       q    Type
                         _______ _______ _______ _____ _____    ______ ____

>  <TORSDO>
F 5

$$$$
=
 OpenBabel11072414123D

 28 31  0  0  1  0  0  0  0  0999 V2000
  160.9940  211.0630  151.6670 C   0  0  0  0  0  0  0  0  0  0  0  0
  160.4500  211.9150  150.6670 N   0  0  0  0  0  0  0  0  0  0  0  0
  161.9580  209.2680  149.1270 C   0  0  0  0  0  2  0  0  0  0  0  0
  162.2770  210.5990  149.7790 C   0  0  1  0  0  3  0  0  0  0  0  0
  162.3620  208.1410  150.0890 C   0  0  1  0  0  3  0  0  0  0  0  0
  162.5480  208.7670  151.8100 S   0  0  0  0  0  0  0  0  0  0  0  0
  161.2190  211.6090  149.5150 C   0  0  0  0  0  0  0  0  0  0  0  0
  161.0220  212.1550  148.3980 O   0  0  0  0  0  0  0  0  0  0  0  0
  162.0300  210.3530  151.2110 C   0  0  2  0  0  3  0  0  0  0  0  0
  161.2610  206.2030  151.3300 C   0  0  0  0  0  2  0  0  0  0  0  0
  161.7480  206.0660  148.8070 C   0  0  0  0  0  2  0  0  0  0  0  0
  161.3930  206.9640  149.9940 C   0  0  2  0  0  3  0  0  0  0  0  0
  161.1660  202.4970  148.2940 C   0  0  0  0  0  2  0  0  0  0  0  0
  161.5730  204.7120  151.2020 C   0  0  0  0  0  2  0  0  0  0  0  0
  159.4190  203.9670  150.4780 O   0  0  0  0  0  1  0  0  0  0  0  0
  161.3290  203.8790  147.7010 C   0  0  0  0  0  2  0  0  0  0  0  0
  161.2950  202.6850  149.7900 C   0  0  0  0  0  2  0  0  0  0  0  0
  160.7530  204.0710  150.0790 C   0  0  2  0  0  0  0  0  0  0  0  0
  160.8260  204.8480  148.7530 C   0  0  1  0  0  3  0  0  0  0  0  0
  160.3240  210.8980  153.0000 C   0  0  2  0  0  3  0  0  0  0  0  0
  157.9620  211.2520  153.2120 O   0  0  0  0  0  1  0  0  0  0  0  0
  159.1100  211.7630  153.1190 C   0  0  0  0  0  0  0  0  0  0  0  0
  159.2530  213.1430  153.1650 O   0  0  0  0  0  0  0  0  0  0  0  0
  161.2180  211.1350  154.0520 O   0  0  0  0  0  0  0  0  0  0  0  0
  160.8960  209.9340  155.2090 P   0  0  2  0  0  0  0  0  0  0  0  0
  160.4120  208.5000  154.4520 O   0  0  0  0  0  0  0  0  0  0  0  0
  159.5640  210.5030  156.2980 C   0  0  0  0  0  1  0  0  0  0  0  0
  162.1360  209.6760  156.0350 O   0  0  0  0  0  1  0  0  0  0  0  0
  1 20  1  0  0  0  0
  2  1  2  0  0  0  0
  4  3  1  6  0  0  0
  4  9  1  0  0  0  0
  5  3  1  6  0  0  0
  5  6  1  0  0  0  0
  7  4  1  0  0  0  0
  7  2  1  0  0  0  0
  8  7  2  0  0  0  0
  9  1  1  6  0  0  0
  9  6  1  0  0  0  0
 12 11  1  6  0  0  0
 12  5  1  0  0  0  0
 12 10  1  0  0  0  0
 13 17  1  0  0  0  0
 14 10  1  0  0  0  0
 16 13  1  0  0  0  0
 17 18  1  0  0  0  0
 18 15  1  1  0  0  0
 18 14  1  0  0  0  0
 19 16  1  6  0  0  0
 19 11  1  0  0  0  0
 19 18  1  0  0  0  0
 20 22  1  6  0  0  0
 20 24  1  0  0  0  0
 22 23  2  0  0  0  0
 22 21  1  0  0  0  0
 24 25  1  0  0  0  0
 25 28  1  0  0  0  0
 25 27  1  1  0  0  0
 26 25  2  0  0  0  0
M  END
>  <MODEL>
7

>  <REMARK>
 VINA RESULT:      -5.0      3.527      8.025
  Name = 
  5 active torsions:
  status: ('A' for Active; 'I' for Inactive)
    1  A    between atoms: C_1  and  C_16
    2  A    between atoms: C_4  and  C_20
    3  A    between atoms: P_6  and  O_17
    4  A    between atoms: C_16  and  O_17
    5  A    between atoms: C_16  and  C_27
                            x       y       z     vdW  Elec       q    Type
                         _______ _______ _______ _____ _____    ______ ____

>  <TORSDO>
F 5

$$$$
=
 OpenBabel11072414123D

 28 31  0  0  1  0  0  0  0  0999 V2000
  159.2570  212.0180  153.9180 C   0  0  0  0  0  0  0  0  0  0  0  0
  158.6310  212.6550  152.8120 N   0  0  0  0  0  0  0  0  0  0  0  0
  160.9530  210.4540  151.6200 C   0  0  0  0  0  2  0  0  0  0  0  0
  160.8320  211.8450  152.2120 C   0  0  1  0  0  3  0  0  0  0  0  0
  161.5220  209.5140  152.6940 C   0  0  1  0  0  3  0  0  0  0  0  0
  161.3300  210.2290  154.3780 S   0  0  0  0  0  0  0  0  0  0  0  0
  159.5850  212.5240  151.7700 C   0  0  0  0  0  0  0  0  0  0  0  0
  159.3870  212.9560  150.6040 O   0  0  0  0  0  0  0  0  0  0  0  0
  160.4890  211.5950  153.6230 C   0  0  2  0  0  3  0  0  0  0  0  0
  161.4760  207.1420  153.6320 C   0  0  0  0  0  2  0  0  0  0  0  0
  161.0220  207.5990  151.1410 C   0  0  0  0  0  2  0  0  0  0  0  0
  160.9130  208.1170  152.5770 C   0  0  2  0  0  3  0  0  0  0  0  0
  161.2080  204.1770  149.8780 C   0  0  0  0  0  2  0  0  0  0  0  0
  162.0830  205.8810  153.0180 C   0  0  0  0  0  2  0  0  0  0  0  0
  160.0740  204.6020  152.7960 O   0  0  0  0  0  1  0  0  0  0  0  0
  160.7910  205.6140  149.6610 C   0  0  0  0  0  2  0  0  0  0  0  0
  161.8240  204.1430  151.2590 C   0  0  0  0  0  2  0  0  0  0  0  0
  161.0970  205.2030  152.0620 C   0  0  2  0  0  0  0  0  0  0  0  0
  160.4820  206.1720  151.0360 C   0  0  1  0  0  3  0  0  0  0  0  0
  158.5000  211.7280  155.1820 C   0  0  2  0  0  3  0  0  0  0  0  0
  159.4760  210.5680  157.0400 O   0  0  0  0  0  1  0  0  0  0  0  0
  159.4130  211.6280  156.3630 C   0  0  0  0  0  0  0  0  0  0  0  0
  160.2260  212.7040  156.6920 O   0  0  0  0  0  0  0  0  0  0  0  0
  157.7140  210.5760  155.0520 O   0  0  0  0  0  0  0  0  0  0  0  0
  156.1130  211.0790  155.3070 P   0  0  2  0  0  0  0  0  0  0  0  0
  155.7560  212.4230  154.3430 O   0  0  0  0  0  0  0  0  0  0  0  0
  155.9060  211.5340  157.0490 C   0  0  0  0  0  1  0  0  0  0  0  0
  155.1630  209.9500  154.9730 O   0  0  0  0  0  1  0  0  0  0  0  0
  1 20  1  0  0  0  0
  2  1  2  0  0  0  0
  4  3  1  6  0  0  0
  4  9  1  0  0  0  0
  5  3  1  6  0  0  0
  5  6  1  0  0  0  0
  7  4  1  0  0  0  0
  7  2  1  0  0  0  0
  8  7  2  0  0  0  0
  9  1  1  6  0  0  0
  9  6  1  0  0  0  0
 12 11  1  6  0  0  0
 12  5  1  0  0  0  0
 12 10  1  0  0  0  0
 13 17  1  0  0  0  0
 14 10  1  0  0  0  0
 16 13  1  0  0  0  0
 17 18  1  0  0  0  0
 18 15  1  1  0  0  0
 18 14  1  0  0  0  0
 19 16  1  6  0  0  0
 19 11  1  0  0  0  0
 19 18  1  0  0  0  0
 20 24  1  6  0  0  0
 20 22  1  0  0  0  0
 22 23  2  0  0  0  0
 22 21  1  0  0  0  0
 24 25  1  0  0  0  0
 25 27  1  1  0  0  0
 26 25  2  0  0  0  0
 28 25  1  0  0  0  0
M  END
>  <MODEL>
8

>  <REMARK>
 VINA RESULT:      -5.0      4.306      8.585
  Name = 
  5 active torsions:
  status: ('A' for Active; 'I' for Inactive)
    1  A    between atoms: C_1  and  C_16
    2  A    between atoms: C_4  and  C_20
    3  A    between atoms: P_6  and  O_17
    4  A    between atoms: C_16  and  O_17
    5  A    between atoms: C_16  and  C_27
                            x       y       z     vdW  Elec       q    Type
                         _______ _______ _______ _____ _____    ______ ____

>  <TORSDO>
F 5

$$$$
=
 OpenBabel11072414123D

 28 31  0  0  1  0  0  0  0  0999 V2000
  161.3000  203.9410  150.0480 C   0  0  0  0  0  0  0  0  0  0  0  0
  160.4020  202.9410  150.5120 N   0  0  0  0  0  0  0  0  0  0  0  0
  161.2060  204.9740  153.1350 C   0  0  0  0  0  2  0  0  0  0  0  0
  161.7450  203.8070  152.3300 C   0  0  1  0  0  3  0  0  0  0  0  0
  161.9640  206.2450  152.7220 C   0  0  1  0  0  3  0  0  0  0  0  0
  162.8030  206.0250  151.0990 S   0  0  0  0  0  0  0  0  0  0  0  0
  160.6610  202.8830  151.9060 C   0  0  0  0  0  0  0  0  0  0  0  0
  160.0390  202.1140  152.6840 O   0  0  0  0  0  0  0  0  0  0  0  0
  162.0800  204.4080  151.0270 C   0  0  2  0  0  3  0  0  0  0  0  0
  161.5100  208.5710  151.7780 C   0  0  0  0  0  2  0  0  0  0  0  0
  160.8290  207.9510  154.1810 C   0  0  0  0  0  2  0  0  0  0  0  0
  161.0430  207.4640  152.7460 C   0  0  2  0  0  3  0  0  0  0  0  0
  160.0530  211.2880  155.4460 C   0  0  0  0  0  2  0  0  0  0  0  0
  161.7210  209.9190  152.4680 C   0  0  0  0  0  2  0  0  0  0  0  0
  159.4630  210.7030  152.3980 O   0  0  0  0  0  1  0  0  0  0  0  0
  159.9480  209.7880  155.6060 C   0  0  0  0  0  2  0  0  0  0  0  0
  160.8310  211.5010  154.1660 C   0  0  0  0  0  2  0  0  0  0  0  0
  160.4840  210.3270  153.2720 C   0  0  2  0  0  0  0  0  0  0  0  0
  159.9690  209.2150  154.2030 C   0  0  1  0  0  3  0  0  0  0  0  0
  161.2060  204.4860  148.6520 C   0  0  2  0  0  3  0  0  0  0  0  0
  160.9720  202.2220  147.8980 O   0  0  0  0  0  1  0  0  0  0  0  0
  161.3180  203.4030  147.6270 C   0  0  0  0  0  0  0  0  0  0  0  0
  161.7720  203.7100  146.3520 O   0  0  0  0  0  0  0  0  0  0  0  0
  162.1590  205.4890  148.4330 O   0  0  0  0  0  0  0  0  0  0  0  0
  161.2750  206.8840  148.0330 P   0  0  2  0  0  0  0  0  0  0  0  0
  160.7710  206.8190  146.4180 O   0  0  0  0  0  0  0  0  0  0  0  0
  162.3310  208.3390  148.2600 C   0  0  0  0  0  1  0  0  0  0  0  0
  160.0680  207.0010  148.9350 O   0  0  0  0  0  1  0  0  0  0  0  0
  1  2  2  0  0  0  0
  2  7  1  0  0  0  0
  4  3  1  1  0  0  0
  5 12  1  0  0  0  0
  5  3  1  6  0  0  0
  6  5  1  0  0  0  0
  7  4  1  0  0  0  0
  7  8  2  0  0  0  0
  9  1  1  6  0  0  0
  9  6  1  0  0  0  0
  9  4  1  0  0  0  0
 10 14  1  0  0  0  0
 12 10  1  6  0  0  0
 12 11  1  0  0  0  0
 13 16  1  0  0  0  0
 14 18  1  0  0  0  0
 17 13  1  0  0  0  0
 18 15  1  6  0  0  0
 18 17  1  0  0  0  0
 18 19  1  0  0  0  0
 19 11  1  1  0  0  0
 19 16  1  0  0  0  0
 20 22  1  6  0  0  0
 20  1  1  0  0  0  0
 22 21  1  0  0  0  0
 23 22  2  0  0  0  0
 24 20  1  0  0  0  0
 25 27  1  1  0  0  0
 25 24  1  0  0  0  0
 25 28  1  0  0  0  0
 26 25  2  0  0  0  0
M  END
>  <MODEL>
9

>  <REMARK>
 VINA RESULT:      -4.0      1.239      2.150
  Name = 
  5 active torsions:
  status: ('A' for Active; 'I' for Inactive)
    1  A    between atoms: C_1  and  C_16
    2  A    between atoms: C_4  and  C_20
    3  A    between atoms: P_6  and  O_17
    4  A    between atoms: C_16  and  O_17
    5  A    between atoms: C_16  and  C_27
                            x       y       z     vdW  Elec       q    Type
                         _______ _______ _______ _____ _____    ______ ____

>  <TORSDO>
F 5

$$$$
