=
 OpenBabel11072413373D

 43 47  0  0  1  0  0  0  0  0999 V2000
  161.9350  210.5900  148.9300 C   0  0  1  0  0  3  0  0  0  0  0  0
  161.0030  212.7280  147.8480 N   0  0  0  0  0  0  0  0  0  0  0  0
  162.3640  212.8220  148.2110 C   0  0  0  0  0  0  0  0  0  0  0  0
  162.8940  211.6840  148.8580 N   0  0  0  0  0  2  0  0  0  0  0  0
  163.0610  213.8460  147.9780 O   0  0  0  0  0  0  0  0  0  0  0  0
  160.2770  211.2280  148.4360 S   0  0  0  0  0  0  0  0  0  0  0  0
  162.3730  209.4820  147.9910 C   0  0  0  0  0  2  0  0  0  0  0  0
  161.4380  207.9380  151.0800 C   0  0  0  0  0  0  0  0  0  0  0  0
  161.7200  208.0420  149.8120 C   0  0  0  0  0  0  0  0  0  0  0  0
  161.4530  206.7320  153.2840 C   0  0  0  0  0  3  0  0  0  0  0  0
  160.9230  209.1110  151.7950 C   0  0  0  0  0  3  0  0  0  0  0  0
  160.7320  209.0660  153.1130 C   0  0  0  0  0  3  0  0  0  0  0  0
  161.5910  206.6140  151.7850 C   0  0  1  0  0  3  0  0  0  0  0  0
  161.0410  207.8490  153.8850 C   0  0  0  0  0  3  0  0  0  0  0  0
  161.9950  208.1560  148.5450 C   0  0  0  0  0  3  0  0  0  0  0  0
  160.6090  205.6640  151.2780 N   0  0  0  0  0  2  0  0  0  0  0  0
  160.4460  203.6590  152.4570 O   0  0  0  0  0  1  0  0  0  0  0  0
  161.1520  204.3250  151.4580 C   0  0  1  0  0  3  0  0  0  0  0  0
  161.6650  204.0590  146.4830 C   0  0  0  0  0  1  0  0  0  0  0  0
  161.0910  203.5420  150.1850 C   0  0  0  0  0  0  0  0  0  0  0  0
  160.9530  201.0370  146.3820 Cl  0  0  0  0  0  0  0  0  0  0  0  0
  161.3750  204.1450  148.9520 C   0  0  0  0  0  3  0  0  0  0  0  0
  161.0120  202.0280  147.8300 C   0  0  0  0  0  0  0  0  0  0  0  0
  160.7270  201.4310  149.0620 C   0  0  0  0  0  3  0  0  0  0  0  0
  160.7630  202.1860  150.2340 C   0  0  0  0  0  3  0  0  0  0  0  0
  161.3300  203.3940  147.7740 C   0  0  0  0  0  0  0  0  0  0  0  0
  160.3560  213.6510  146.9200 C   0  0  2  0  0  3  0  0  0  0  0  0
  159.0180  214.4480  150.9500 C   0  0  0  0  0  2  0  0  0  0  0  0
  158.9460  213.7710  147.2630 N   0  0  0  0  0  2  0  0  0  0  0  0
  159.3710  214.1580  149.5600 N   0  0  0  0  0  0  0  0  0  0  0  0
  155.3670  214.0400  150.5930 O   0  0  0  0  0  1  0  0  0  0  0  0
  157.6400  213.9070  151.2940 C   0  0  0  0  0  2  0  0  0  0  0  0
  158.5020  213.9980  148.6010 C   0  0  0  0  0  0  0  0  0  0  0  0
  156.6590  214.4500  150.2690 C   0  0  1  0  0  3  0  0  0  0  0  0
  157.0230  213.9210  148.8840 C   0  0  0  0  0  2  0  0  0  0  0  0
  161.1380  214.2620  144.6110 C   0  0  0  0  0  2  0  0  0  0  0  0
  160.5090  213.1970  145.4700 C   0  0  2  0  0  3  0  0  0  0  0  0
  160.5050  214.0730  143.2440 C   0  0  2  0  0  3  0  0  0  0  0  0
  159.2990  213.2630  143.4000 N   0  0  0  0  0  2  0  0  0  0  0  0
  159.1600  212.9810  144.8270 C   0  0  0  0  0  2  0  0  0  0  0  0
  162.7290  212.9510  142.9470 C   0  0  0  0  0  1  0  0  0  0  0  0
  161.4580  213.3980  142.2560 C   0  0  1  0  0  3  0  0  0  0  0  0
  160.8470  212.3090  141.6320 O   0  0  0  0  0  1  0  0  0  0  0  0
  1  7  1  6  0  0  0
  2  3  1  0  0  0  0
  2  6  1  0  0  0  0
  3  4  1  0  0  0  0
  4  1  1  0  0  0  0
  5  3  2  0  0  0  0
  6  1  1  0  0  0  0
  7 15  1  0  0  0  0
  8 13  1  0  0  0  0
  8 11  1  0  0  0  0
  9  8  2  0  0  0  0
 10 14  2  0  0  0  0
 11 12  2  0  0  0  0
 12 14  1  0  0  0  0
 13 16  1  6  0  0  0
 13 10  1  0  0  0  0
 15  9  2  0  0  0  0
 16 18  1  0  0  0  0
 18 17  1  1  0  0  0
 19 26  1  0  0  0  0
 20 25  1  0  0  0  0
 20 18  1  0  0  0  0
 21 23  1  0  0  0  0
 22 20  2  0  0  0  0
 23 24  1  0  0  0  0
 24 25  2  0  0  0  0
 26 23  2  0  0  0  0
 26 22  1  0  0  0  0
 27 29  1  1  0  0  0
 27  2  1  0  0  0  0
 28 32  1  0  0  0  0
 29 33  1  0  0  0  0
 30 28  1  0  0  0  0
 33 35  1  0  0  0  0
 33 30  2  0  0  0  0
 34 31  1  1  0  0  0
 34 32  1  0  0  0  0
 35 34  1  0  0  0  0
 36 37  1  0  0  0  0
 37 27  1  1  0  0  0
 38 42  1  6  0  0  0
 38 39  1  0  0  0  0
 38 36  1  0  0  0  0
 39 40  1  0  0  0  0
 40 37  1  0  0  0  0
 42 41  1  1  0  0  0
 43 42  1  0  0  0  0
M  END
>  <MODEL>
1

>  <REMARK>
 VINA RESULT:      -7.2      0.000      0.000
  Name = 
  9 active torsions:
  status: ('A' for Active; 'I' for Inactive)
    1  A    between atoms: C_1  and  C_7
    2  A    between atoms: C_7  and  C_43
    3  A    between atoms: N_8  and  C_10
    4  A    between atoms: C_10  and  N_17
    5  A    between atoms: C_10  and  C_19
    6  A    between atoms: C_13  and  C_29
    7  A    between atoms: C_29  and  N_30
    8  A    between atoms: N_30  and  C_38
    9  A    between atoms: C_31  and  C_37
                            x       y       z     vdW  Elec       q    Type
                         _______ _______ _______ _____ _____    ______ ____

>  <TORSDO>
F 9

$$$$
=
 OpenBabel11072413373D

 43 47  0  0  1  0  0  0  0  0999 V2000
  160.3820  209.4680  154.4540 C   0  0  1  0  0  3  0  0  0  0  0  0
  159.5010  211.8700  154.2050 N   0  0  0  0  0  0  0  0  0  0  0  0
  160.1900  211.6420  155.4150 C   0  0  0  0  0  0  0  0  0  0  0  0
  160.6410  210.3170  155.6080 N   0  0  0  0  0  2  0  0  0  0  0  0
  160.3920  212.5500  156.2650 O   0  0  0  0  0  0  0  0  0  0  0  0
  159.2630  210.3710  153.3000 S   0  0  0  0  0  0  0  0  0  0  0  0
  161.6960  209.1460  153.7680 C   0  0  0  0  0  2  0  0  0  0  0  0
  161.5280  207.4770  150.6080 C   0  0  0  0  0  0  0  0  0  0  0  0
  161.5870  207.6230  151.9020 C   0  0  0  0  0  0  0  0  0  0  0  0
  160.7390  206.3240  148.5190 C   0  0  0  0  0  3  0  0  0  0  0  0
  162.0800  208.5290  149.7450 C   0  0  0  0  0  3  0  0  0  0  0  0
  161.9340  208.4600  148.4230 C   0  0  0  0  0  3  0  0  0  0  0  0
  160.9470  206.2200  150.0120 C   0  0  1  0  0  3  0  0  0  0  0  0
  161.2100  207.3410  147.7950 C   0  0  0  0  0  3  0  0  0  0  0  0
  161.6540  207.7770  153.1910 C   0  0  0  0  0  3  0  0  0  0  0  0
  161.8110  205.0850  150.3060 N   0  0  0  0  0  2  0  0  0  0  0  0
  159.6430  204.3820  150.8010 O   0  0  0  0  0  1  0  0  0  0  0  0
  160.9580  203.9520  150.6360 C   0  0  1  0  0  3  0  0  0  0  0  0
  161.1620  202.6560  145.8030 C   0  0  0  0  0  1  0  0  0  0  0  0
  161.0200  202.9010  149.5740 C   0  0  0  0  0  0  0  0  0  0  0  0
  161.2900  199.6150  146.4290 Cl  0  0  0  0  0  0  0  0  0  0  0  0
  161.0390  203.2460  148.2160 C   0  0  0  0  0  3  0  0  0  0  0  0
  161.1830  200.9030  147.6180 C   0  0  0  0  0  0  0  0  0  0  0  0
  161.1600  200.5620  148.9730 C   0  0  0  0  0  3  0  0  0  0  0  0
  161.0760  201.5560  149.9470 C   0  0  0  0  0  3  0  0  0  0  0  0
  161.1140  202.2520  147.2370 C   0  0  0  0  0  0  0  0  0  0  0  0
  159.2240  213.2040  153.6810 C   0  0  2  0  0  3  0  0  0  0  0  0
  156.1430  211.0840  155.8440 C   0  0  0  0  0  2  0  0  0  0  0  0
  158.2810  213.8840  154.5590 N   0  0  0  0  0  2  0  0  0  0  0  0
  157.1390  211.8930  155.1390 N   0  0  0  0  0  0  0  0  0  0  0  0
  154.1980  213.8830  157.2590 O   0  0  0  0  0  1  0  0  0  0  0  0
  154.8930  211.8930  156.1500 C   0  0  0  0  0  2  0  0  0  0  0  0
  157.2400  213.1880  155.2450 C   0  0  0  0  0  0  0  0  0  0  0  0
  155.3230  213.1490  156.8900 C   0  0  1  0  0  3  0  0  0  0  0  0
  156.2040  214.0000  155.9800 C   0  0  0  0  0  2  0  0  0  0  0  0
  159.5540  213.8890  151.2850 C   0  0  0  0  0  2  0  0  0  0  0  0
  158.6730  213.1520  152.2570 C   0  0  2  0  0  3  0  0  0  0  0  0
  158.5950  214.4510  150.2510 C   0  0  2  0  0  3  0  0  0  0  0  0
  157.2440  214.4170  150.8060 N   0  0  0  0  0  2  0  0  0  0  0  0
  157.3560  213.8840  152.1600 C   0  0  0  0  0  2  0  0  0  0  0  0
  157.2520  213.1880  148.5480 C   0  0  0  0  0  1  0  0  0  0  0  0
  158.6360  213.6630  148.9400 C   0  0  1  0  0  3  0  0  0  0  0  0
  159.1850  214.4290  147.9100 O   0  0  0  0  0  1  0  0  0  0  0  0
  1  7  1  6  0  0  0
  1  4  1  0  0  0  0
  2  3  1  0  0  0  0
  3  4  1  0  0  0  0
  3  5  2  0  0  0  0
  6  2  1  0  0  0  0
  6  1  1  0  0  0  0
  8  9  2  0  0  0  0
  9 15  2  0  0  0  0
 10 13  1  0  0  0  0
 11  8  1  0  0  0  0
 12 11  2  0  0  0  0
 13 16  1  6  0  0  0
 13  8  1  0  0  0  0
 14 12  1  0  0  0  0
 14 10  2  0  0  0  0
 15  7  1  0  0  0  0
 16 18  1  0  0  0  0
 18 17  1  6  0  0  0
 19 26  1  0  0  0  0
 20 25  1  0  0  0  0
 20 18  1  0  0  0  0
 21 23  1  0  0  0  0
 22 20  2  0  0  0  0
 23 24  1  0  0  0  0
 24 25  2  0  0  0  0
 26 23  2  0  0  0  0
 26 22  1  0  0  0  0
 27  2  1  0  0  0  0
 27 29  1  1  0  0  0
 28 32  1  0  0  0  0
 29 33  1  0  0  0  0
 30 33  2  0  0  0  0
 30 28  1  0  0  0  0
 32 34  1  0  0  0  0
 33 35  1  0  0  0  0
 34 31  1  6  0  0  0
 35 34  1  0  0  0  0
 36 37  1  0  0  0  0
 37 27  1  1  0  0  0
 38 42  1  6  0  0  0
 38 39  1  0  0  0  0
 38 36  1  0  0  0  0
 39 40  1  0  0  0  0
 40 37  1  0  0  0  0
 42 41  1  6  0  0  0
 43 42  1  0  0  0  0
M  END
>  <MODEL>
2

>  <REMARK>
 VINA RESULT:      -6.6      3.460      5.509
  Name = 
  9 active torsions:
  status: ('A' for Active; 'I' for Inactive)
    1  A    between atoms: C_1  and  C_7
    2  A    between atoms: C_7  and  C_43
    3  A    between atoms: N_8  and  C_10
    4  A    between atoms: C_10  and  N_17
    5  A    between atoms: C_10  and  C_19
    6  A    between atoms: C_13  and  C_29
    7  A    between atoms: C_29  and  N_30
    8  A    between atoms: N_30  and  C_38
    9  A    between atoms: C_31  and  C_37
                            x       y       z     vdW  Elec       q    Type
                         _______ _______ _______ _____ _____    ______ ____

>  <TORSDO>
F 9

$$$$
=
 OpenBabel11072413373D

 43 47  0  0  1  0  0  0  0  0999 V2000
  161.9540  206.1890  152.4260 C   0  0  1  0  0  3  0  0  0  0  0  0
  161.2270  204.5220  150.6090 N   0  0  0  0  0  0  0  0  0  0  0  0
  161.2100  203.9830  151.9130 C   0  0  0  0  0  0  0  0  0  0  0  0
  161.6560  204.8560  152.9300 N   0  0  0  0  0  2  0  0  0  0  0  0
  160.8260  202.8080  152.1590 O   0  0  0  0  0  0  0  0  0  0  0  0
  161.9480  206.1350  150.5820 S   0  0  0  0  0  0  0  0  0  0  0  0
  160.9000  207.1580  152.9270 C   0  0  0  0  0  2  0  0  0  0  0  0
  160.0930  210.6430  153.0030 C   0  0  0  0  0  0  0  0  0  0  0  0
  160.4520  209.4900  152.5110 C   0  0  0  0  0  0  0  0  0  0  0  0
  158.9080  212.8550  152.8870 C   0  0  0  0  0  3  0  0  0  0  0  0
  160.3460  210.9220  154.4220 C   0  0  0  0  0  3  0  0  0  0  0  0
  159.8920  212.0440  154.9780 C   0  0  0  0  0  3  0  0  0  0  0  0
  159.4750  211.6900  152.1120 C   0  0  1  0  0  3  0  0  0  0  0  0
  159.1180  213.0230  154.1930 C   0  0  0  0  0  3  0  0  0  0  0  0
  160.8170  208.3390  152.0290 C   0  0  0  0  0  3  0  0  0  0  0  0
  160.4620  212.1740  151.1560 N   0  0  0  0  0  2  0  0  0  0  0  0
  160.6140  214.4520  150.6810 O   0  0  0  0  0  1  0  0  0  0  0  0
  159.8740  213.2970  150.4400 C   0  0  1  0  0  3  0  0  0  0  0  0
  157.2380  212.8060  146.2100 C   0  0  0  0  0  1  0  0  0  0  0  0
  159.8140  213.0300  148.9700 C   0  0  0  0  0  0  0  0  0  0  0  0
  159.7620  212.2830  144.4760 Cl  0  0  0  0  0  0  0  0  0  0  0  0
  158.5890  213.0180  148.2870 C   0  0  0  0  0  3  0  0  0  0  0  0
  159.7510  212.5710  146.2070 C   0  0  0  0  0  0  0  0  0  0  0  0
  160.9690  212.5810  146.8920 C   0  0  0  0  0  3  0  0  0  0  0  0
  161.0000  212.8060  148.2680 C   0  0  0  0  0  3  0  0  0  0  0  0
  158.5540  212.7830  146.9100 C   0  0  0  0  0  0  0  0  0  0  0  0
  160.5360  203.9070  149.4790 C   0  0  2  0  0  3  0  0  0  0  0  0
  160.4240  201.9770  145.6150 C   0  0  0  0  0  2  0  0  0  0  0  0
  161.0610  202.5650  149.2630 N   0  0  0  0  0  2  0  0  0  0  0  0
  160.4900  202.5380  146.9660 N   0  0  0  0  0  0  0  0  0  0  0  0
  161.5590  198.5720  146.4750 O   0  0  0  0  0  1  0  0  0  0  0  0
  160.3610  200.4580  145.6510 C   0  0  0  0  0  2  0  0  0  0  0  0
  160.9900  201.9130  147.9950 C   0  0  0  0  0  0  0  0  0  0  0  0
  161.5340  199.9650  146.4810 C   0  0  1  0  0  3  0  0  0  0  0  0
  161.3870  200.4600  147.9170 C   0  0  0  0  0  2  0  0  0  0  0  0
  162.1050  204.7920  147.7260 C   0  0  0  0  0  2  0  0  0  0  0  0
  160.6790  204.7390  148.2060 C   0  0  2  0  0  3  0  0  0  0  0  0
  162.2420  206.1640  147.0890 C   0  0  2  0  0  3  0  0  0  0  0  0
  161.1320  206.9990  147.5450 N   0  0  0  0  0  2  0  0  0  0  0  0
  160.3430  206.1870  148.4670 C   0  0  0  0  0  2  0  0  0  0  0  0
  162.8440  204.7880  145.0790 C   0  0  0  0  0  1  0  0  0  0  0  0
  162.2420  206.0920  145.5610 C   0  0  1  0  0  3  0  0  0  0  0  0
  160.9510  206.2370  145.0500 O   0  0  0  0  0  1  0  0  0  0  0  0
  1  7  1  6  0  0  0
  1  4  1  0  0  0  0
  2  3  1  0  0  0  0
  3  5  2  0  0  0  0
  3  4  1  0  0  0  0
  6  2  1  0  0  0  0
  6  1  1  0  0  0  0
  8 11  1  0  0  0  0
  9  8  2  0  0  0  0
 10 14  2  0  0  0  0
 11 12  2  0  0  0  0
 13 16  1  6  0  0  0
 13 10  1  0  0  0  0
 13  8  1  0  0  0  0
 14 12  1  0  0  0  0
 15  9  2  0  0  0  0
 15  7  1  0  0  0  0
 18 17  1  6  0  0  0
 18 16  1  0  0  0  0
 19 26  1  0  0  0  0
 20 18  1  0  0  0  0
 21 23  1  0  0  0  0
 22 20  1  0  0  0  0
 23 24  2  0  0  0  0
 23 26  1  0  0  0  0
 24 25  1  0  0  0  0
 25 20  2  0  0  0  0
 26 22  2  0  0  0  0
 27 29  1  6  0  0  0
 27  2  1  0  0  0  0
 28 32  1  0  0  0  0
 28 30  1  0  0  0  0
 30 33  2  0  0  0  0
 32 34  1  0  0  0  0
 33 29  1  0  0  0  0
 34 31  1  1  0  0  0
 34 35  1  0  0  0  0
 35 33  1  0  0  0  0
 36 37  1  0  0  0  0
 37 40  1  0  0  0  0
 37 27  1  1  0  0  0
 38 42  1  6  0  0  0
 38 39  1  0  0  0  0
 38 36  1  0  0  0  0
 39 40  1  0  0  0  0
 42 41  1  1  0  0  0
 43 42  1  0  0  0  0
M  END
>  <MODEL>
3

>  <REMARK>
 VINA RESULT:      -6.0      3.417      9.641
  Name = 
  9 active torsions:
  status: ('A' for Active; 'I' for Inactive)
    1  A    between atoms: C_1  and  C_7
    2  A    between atoms: C_7  and  C_43
    3  A    between atoms: N_8  and  C_10
    4  A    between atoms: C_10  and  N_17
    5  A    between atoms: C_10  and  C_19
    6  A    between atoms: C_13  and  C_29
    7  A    between atoms: C_29  and  N_30
    8  A    between atoms: N_30  and  C_38
    9  A    between atoms: C_31  and  C_37
                            x       y       z     vdW  Elec       q    Type
                         _______ _______ _______ _____ _____    ______ ____

>  <TORSDO>
F 9

$$$$
=
 OpenBabel11072413373D

 43 47  0  0  1  0  0  0  0  0999 V2000
  161.8800  207.9100  149.4020 C   0  0  1  0  0  3  0  0  0  0  0  0
  161.5060  210.0010  150.8490 N   0  0  0  0  0  0  0  0  0  0  0  0
  162.2500  210.2490  149.6760 C   0  0  0  0  0  0  0  0  0  0  0  0
  162.5200  209.1110  148.8850 N   0  0  0  0  0  2  0  0  0  0  0  0
  162.6470  211.4000  149.3530 O   0  0  0  0  0  0  0  0  0  0  0  0
  161.2240  208.2720  151.0870 S   0  0  0  0  0  0  0  0  0  0  0  0
  160.7500  207.5090  148.4730 C   0  0  0  0  0  2  0  0  0  0  0  0
  160.9340  204.3450  150.1340 C   0  0  0  0  0  0  0  0  0  0  0  0
  160.8810  205.1980  149.1500 C   0  0  0  0  0  0  0  0  0  0  0  0
  161.7340  202.2230  151.2170 C   0  0  0  0  0  3  0  0  0  0  0  0
  160.3510  204.7140  151.4300 C   0  0  0  0  0  3  0  0  0  0  0  0
  160.4890  203.9100  152.4830 C   0  0  0  0  0  3  0  0  0  0  0  0
  161.5410  202.9810  149.9240 C   0  0  1  0  0  3  0  0  0  0  0  0
  161.2340  202.6430  152.3800 C   0  0  0  0  0  3  0  0  0  0  0  0
  160.8200  206.0550  148.1730 C   0  0  0  0  0  3  0  0  0  0  0  0
  160.7060  202.1990  149.0220 N   0  0  0  0  0  2  0  0  0  0  0  0
  161.0870  200.5110  147.4590 O   0  0  0  0  0  1  0  0  0  0  0  0
  161.5460  201.7410  147.9250 C   0  0  1  0  0  3  0  0  0  0  0  0
  159.4300  203.7470  143.8530 C   0  0  0  0  0  1  0  0  0  0  0  0
  161.5640  202.7340  146.8060 C   0  0  0  0  0  0  0  0  0  0  0  0
  161.6830  205.8540  143.4880 Cl  0  0  0  0  0  0  0  0  0  0  0  0
  160.5330  202.7710  145.8570 C   0  0  0  0  0  3  0  0  0  0  0  0
  161.6120  204.6390  144.7530 C   0  0  0  0  0  0  0  0  0  0  0  0
  162.6390  204.5970  145.7000 C   0  0  0  0  0  3  0  0  0  0  0  0
  162.6170  203.6460  146.7200 C   0  0  0  0  0  3  0  0  0  0  0  0
  160.5560  203.7160  144.8280 C   0  0  0  0  0  0  0  0  0  0  0  0
  160.8710  211.0560  151.6330 C   0  0  2  0  0  3  0  0  0  0  0  0
  162.5010  210.6500  155.6140 C   0  0  0  0  0  2  0  0  0  0  0  0
  160.1160  210.4590  152.7270 N   0  0  0  0  0  2  0  0  0  0  0  0
  161.8690  210.7250  154.2960 N   0  0  0  0  0  0  0  0  0  0  0  0
  159.8930  208.6210  157.2590 O   0  0  0  0  0  1  0  0  0  0  0  0
  161.9480  209.4890  156.4250 C   0  0  0  0  0  2  0  0  0  0  0  0
  160.6680  210.2910  154.0330 C   0  0  0  0  0  0  0  0  0  0  0  0
  160.4360  209.6250  156.4590 C   0  0  1  0  0  3  0  0  0  0  0  0
  159.8800  209.4960  155.0430 C   0  0  0  0  0  2  0  0  0  0  0  0
  160.6790  213.1230  150.2160 C   0  0  0  0  0  2  0  0  0  0  0  0
  159.9550  211.9280  150.7760 C   0  0  2  0  0  3  0  0  0  0  0  0
  159.6230  214.2130  150.1510 C   0  0  2  0  0  3  0  0  0  0  0  0
  158.5020  213.8220  151.0020 N   0  0  0  0  0  2  0  0  0  0  0  0
  158.8580  212.5430  151.6100 C   0  0  0  0  0  2  0  0  0  0  0  0
  160.1500  213.9760  147.7090 C   0  0  0  0  0  1  0  0  0  0  0  0
  159.1310  214.4530  148.7230 C   0  0  1  0  0  3  0  0  0  0  0  0
  157.9070  213.8210  148.5000 O   0  0  0  0  0  1  0  0  0  0  0  0
  1  7  1  6  0  0  0
  1  6  1  0  0  0  0
  2  6  1  0  0  0  0
  2 27  1  0  0  0  0
  3  2  1  0  0  0  0
  4  1  1  0  0  0  0
  4  3  1  0  0  0  0
  5  3  2  0  0  0  0
  8 11  1  0  0  0  0
  9  8  2  0  0  0  0
 10 14  2  0  0  0  0
 11 12  2  0  0  0  0
 13 16  1  6  0  0  0
 13  8  1  0  0  0  0
 13 10  1  0  0  0  0
 14 12  1  0  0  0  0
 15  7  1  0  0  0  0
 15  9  2  0  0  0  0
 18 17  1  6  0  0  0
 18 16  1  0  0  0  0
 19 26  1  0  0  0  0
 20 18  1  0  0  0  0
 21 23  1  0  0  0  0
 22 20  2  0  0  0  0
 23 26  2  0  0  0  0
 23 24  1  0  0  0  0
 24 25  2  0  0  0  0
 25 20  1  0  0  0  0
 26 22  1  0  0  0  0
 27 29  1  1  0  0  0
 28 32  1  0  0  0  0
 29 33  1  0  0  0  0
 30 28  1  0  0  0  0
 32 34  1  0  0  0  0
 33 30  2  0  0  0  0
 33 35  1  0  0  0  0
 34 31  1  1  0  0  0
 35 34  1  0  0  0  0
 36 37  1  0  0  0  0
 37 40  1  0  0  0  0
 37 27  1  1  0  0  0
 38 42  1  6  0  0  0
 38 36  1  0  0  0  0
 38 39  1  0  0  0  0
 39 40  1  0  0  0  0
 42 41  1  6  0  0  0
 43 42  1  0  0  0  0
M  END
>  <MODEL>
4

>  <REMARK>
 VINA RESULT:      -5.7      3.248      5.475
  Name = 
  9 active torsions:
  status: ('A' for Active; 'I' for Inactive)
    1  A    between atoms: C_1  and  C_7
    2  A    between atoms: C_7  and  C_43
    3  A    between atoms: N_8  and  C_10
    4  A    between atoms: C_10  and  N_17
    5  A    between atoms: C_10  and  C_19
    6  A    between atoms: C_13  and  C_29
    7  A    between atoms: C_29  and  N_30
    8  A    between atoms: N_30  and  C_38
    9  A    between atoms: C_31  and  C_37
                            x       y       z     vdW  Elec       q    Type
                         _______ _______ _______ _____ _____    ______ ____

>  <TORSDO>
F 9

$$$$
=
 OpenBabel11072413373D

 43 47  0  0  1  0  0  0  0  0999 V2000
  160.4480  208.3130  156.7960 C   0  0  1  0  0  3  0  0  0  0  0  0
  160.6740  210.5320  155.5160 N   0  0  0  0  0  0  0  0  0  0  0  0
  161.9060  210.0010  155.9510 C   0  0  0  0  0  0  0  0  0  0  0  0
  161.8140  208.8090  156.7050 N   0  0  0  0  0  2  0  0  0  0  0  0
  163.0120  210.5450  155.6900 O   0  0  0  0  0  0  0  0  0  0  0  0
  159.3070  209.6170  156.1620 S   0  0  0  0  0  0  0  0  0  0  0  0
  160.3200  207.0530  155.9620 C   0  0  0  0  0  2  0  0  0  0  0  0
  161.2530  205.1830  153.0570 C   0  0  0  0  0  0  0  0  0  0  0  0
  161.1440  206.2040  153.8600 C   0  0  0  0  0  0  0  0  0  0  0  0
  162.4840  203.7810  151.3740 C   0  0  0  0  0  3  0  0  0  0  0  0
  160.2450  204.1170  153.1170 C   0  0  0  0  0  3  0  0  0  0  0  0
  160.3920  203.0110  152.3900 C   0  0  0  0  0  3  0  0  0  0  0  0
  162.3710  205.1280  152.0470 C   0  0  1  0  0  3  0  0  0  0  0  0
  161.5660  202.8230  151.5190 C   0  0  0  0  0  3  0  0  0  0  0  0
  161.0230  207.2200  154.6630 C   0  0  0  0  0  3  0  0  0  0  0  0
  162.1810  206.1620  151.0380 N   0  0  0  0  0  2  0  0  0  0  0  0
  160.0810  207.0210  150.4990 O   0  0  0  0  0  1  0  0  0  0  0  0
  160.9090  205.9080  150.3760 C   0  0  1  0  0  3  0  0  0  0  0  0
  161.3100  202.5400  146.6910 C   0  0  0  0  0  1  0  0  0  0  0  0
  161.1090  205.5810  148.9300 C   0  0  0  0  0  0  0  0  0  0  0  0
  161.6430  204.7080  144.4900 Cl  0  0  0  0  0  0  0  0  0  0  0  0
  161.1400  204.2510  148.4880 C   0  0  0  0  0  3  0  0  0  0  0  0
  161.4390  205.0130  146.2070 C   0  0  0  0  0  0  0  0  0  0  0  0
  161.4100  206.3380  146.6530 C   0  0  0  0  0  3  0  0  0  0  0  0
  161.2490  206.6200  148.0090 C   0  0  0  0  0  3  0  0  0  0  0  0
  161.3110  203.9640  147.1310 C   0  0  0  0  0  0  0  0  0  0  0  0
  160.5650  211.5660  154.4910 C   0  0  2  0  0  3  0  0  0  0  0  0
  158.2190  214.4400  156.7050 C   0  0  0  0  0  2  0  0  0  0  0  0
  159.1590  211.8120  154.2000 N   0  0  0  0  0  2  0  0  0  0  0  0
  158.9230  213.4320  155.9110 N   0  0  0  0  0  0  0  0  0  0  0  0
  154.8360  213.7860  155.3800 O   0  0  0  0  0  1  0  0  0  0  0  0
  156.7300  214.1400  156.7810 C   0  0  0  0  0  2  0  0  0  0  0  0
  158.3730  212.7350  154.9570 C   0  0  0  0  0  0  0  0  0  0  0  0
  156.2150  213.9850  155.3600 C   0  0  1  0  0  3  0  0  0  0  0  0
  156.8880  212.7830  154.7020 C   0  0  0  0  0  2  0  0  0  0  0  0
  160.5970  211.6720  151.9800 C   0  0  0  0  0  2  0  0  0  0  0  0
  161.3060  211.1780  153.2130 C   0  0  2  0  0  3  0  0  0  0  0  0
  160.8880  210.6190  150.9250 C   0  0  2  0  0  3  0  0  0  0  0  0
  161.3510  209.4070  151.5960 N   0  0  0  0  0  2  0  0  0  0  0  0
  161.3200  209.6790  153.0310 C   0  0  0  0  0  2  0  0  0  0  0  0
  162.1430  210.0580  148.8260 C   0  0  0  0  0  1  0  0  0  0  0  0
  161.9390  211.0880  149.9170 C   0  0  1  0  0  3  0  0  0  0  0  0
  161.5840  212.3140  149.3540 O   0  0  0  0  0  1  0  0  0  0  0  0
  1  7  1  6  0  0  0
  2  3  1  0  0  0  0
  2  6  1  0  0  0  0
  3  4  1  0  0  0  0
  4  1  1  0  0  0  0
  5  3  2  0  0  0  0
  6  1  1  0  0  0  0
  8 11  1  0  0  0  0
  8  9  2  0  0  0  0
  9 15  2  0  0  0  0
 10 14  2  0  0  0  0
 10 13  1  0  0  0  0
 12 11  2  0  0  0  0
 13 16  1  6  0  0  0
 13  8  1  0  0  0  0
 14 12  1  0  0  0  0
 15  7  1  0  0  0  0
 18 17  1  6  0  0  0
 18 16  1  0  0  0  0
 19 26  1  0  0  0  0
 20 18  1  0  0  0  0
 21 23  1  0  0  0  0
 22 20  1  0  0  0  0
 23 24  2  0  0  0  0
 23 26  1  0  0  0  0
 24 25  1  0  0  0  0
 25 20  2  0  0  0  0
 26 22  2  0  0  0  0
 27 29  1  6  0  0  0
 27  2  1  0  0  0  0
 28 32  1  0  0  0  0
 29 33  1  0  0  0  0
 30 28  1  0  0  0  0
 33 30  2  0  0  0  0
 34 31  1  1  0  0  0
 34 32  1  0  0  0  0
 35 33  1  0  0  0  0
 35 34  1  0  0  0  0
 36 37  1  0  0  0  0
 37 27  1  1  0  0  0
 38 42  1  6  0  0  0
 38 39  1  0  0  0  0
 38 36  1  0  0  0  0
 39 40  1  0  0  0  0
 40 37  1  0  0  0  0
 42 41  1  6  0  0  0
 43 42  1  0  0  0  0
M  END
>  <MODEL>
5

>  <REMARK>
 VINA RESULT:      -5.5      4.279      6.209
  Name = 
  9 active torsions:
  status: ('A' for Active; 'I' for Inactive)
    1  A    between atoms: C_1  and  C_7
    2  A    between atoms: C_7  and  C_43
    3  A    between atoms: N_8  and  C_10
    4  A    between atoms: C_10  and  N_17
    5  A    between atoms: C_10  and  C_19
    6  A    between atoms: C_13  and  C_29
    7  A    between atoms: C_29  and  N_30
    8  A    between atoms: N_30  and  C_38
    9  A    between atoms: C_31  and  C_37
                            x       y       z     vdW  Elec       q    Type
                         _______ _______ _______ _____ _____    ______ ____

>  <TORSDO>
F 9

$$$$
=
 OpenBabel11072413373D

 43 47  0  0  1  0  0  0  0  0999 V2000
  162.5600  210.6210  148.9360 C   0  0  1  0  0  3  0  0  0  0  0  0
  161.8460  208.8400  150.6470 N   0  0  0  0  0  0  0  0  0  0  0  0
  162.5950  209.8960  151.2070 C   0  0  0  0  0  0  0  0  0  0  0  0
  163.0500  210.8650  150.2850 N   0  0  0  0  0  2  0  0  0  0  0  0
  162.8430  209.9760  152.4400 O   0  0  0  0  0  0  0  0  0  0  0  0
  161.7950  208.9440  148.8830 S   0  0  0  0  0  0  0  0  0  0  0  0
  161.5330  211.6790  148.5800 C   0  0  0  0  0  2  0  0  0  0  0  0
  160.0660  213.1200  145.6520 C   0  0  0  0  0  0  0  0  0  0  0  0
  160.9960  212.7420  146.4830 C   0  0  0  0  0  0  0  0  0  0  0  0
  159.1480  213.5070  143.3450 C   0  0  0  0  0  3  0  0  0  0  0  0
  158.7240  213.4150  146.1690 C   0  0  0  0  0  3  0  0  0  0  0  0
  157.7270  213.6940  145.3320 C   0  0  0  0  0  3  0  0  0  0  0  0
  160.3830  213.3030  144.1890 C   0  0  1  0  0  3  0  0  0  0  0  0
  157.9390  213.7050  143.8730 C   0  0  0  0  0  3  0  0  0  0  0  0
  161.9180  212.3690  147.3210 C   0  0  0  0  0  3  0  0  0  0  0  0
  161.2860  214.4320  144.0130 N   0  0  0  0  0  2  0  0  0  0  0  0
  163.0620  212.9220  144.0750 O   0  0  0  0  0  1  0  0  0  0  0  0
  162.4780  213.9460  143.3330 C   0  0  1  0  0  3  0  0  0  0  0  0
  162.1740  210.2190  140.0010 C   0  0  0  0  0  1  0  0  0  0  0  0
  162.1540  213.4550  141.9580 C   0  0  0  0  0  0  0  0  0  0  0  0
  161.0560  212.0590  137.7620 Cl  0  0  0  0  0  0  0  0  0  0  0  0
  162.3280  212.1080  141.6110 C   0  0  0  0  0  3  0  0  0  0  0  0
  161.4900  212.5680  139.3850 C   0  0  0  0  0  0  0  0  0  0  0  0
  161.3200  213.9120  139.7330 C   0  0  0  0  0  3  0  0  0  0  0  0
  161.6540  214.3530  141.0130 C   0  0  0  0  0  3  0  0  0  0  0  0
  162.0040  211.6630  140.3270 C   0  0  0  0  0  0  0  0  0  0  0  0
  161.0420  207.9170  151.4430 C   0  0  2  0  0  3  0  0  0  0  0  0
  158.7680  211.0790  153.3130 C   0  0  0  0  0  2  0  0  0  0  0  0
  161.1830  208.2480  152.8550 N   0  0  0  0  0  2  0  0  0  0  0  0
  159.5970  210.0030  152.7680 N   0  0  0  0  0  0  0  0  0  0  0  0
  160.3420  211.2250  156.6490 O   0  0  0  0  0  1  0  0  0  0  0  0
  159.4390  211.7410  154.5060 C   0  0  0  0  0  2  0  0  0  0  0  0
  160.4590  209.3170  153.4650 C   0  0  0  0  0  0  0  0  0  0  0  0
  159.7930  210.6520  155.5040 C   0  0  1  0  0  3  0  0  0  0  0  0
  160.8110  209.7000  154.8800 C   0  0  0  0  0  2  0  0  0  0  0  0
  160.4420  205.7440  150.3330 C   0  0  0  0  0  2  0  0  0  0  0  0
  161.4400  206.4630  151.2010 C   0  0  2  0  0  3  0  0  0  0  0  0
  160.4630  204.3110  150.8340 C   0  0  2  0  0  3  0  0  0  0  0  0
  161.0880  204.2910  152.1550 N   0  0  0  0  0  2  0  0  0  0  0  0
  161.4170  205.6740  152.4880 C   0  0  0  0  0  2  0  0  0  0  0  0
  160.5000  202.0610  149.7240 C   0  0  0  0  0  1  0  0  0  0  0  0
  161.2240  203.3810  149.8870 C   0  0  1  0  0  3  0  0  0  0  0  0
  161.4130  203.9770  148.6400 O   0  0  0  0  0  1  0  0  0  0  0  0
  1  7  1  1  0  0  0
  1  4  1  0  0  0  0
  2  3  1  0  0  0  0
  2 27  1  0  0  0  0
  3  5  2  0  0  0  0
  4  3  1  0  0  0  0
  6  1  1  0  0  0  0
  6  2  1  0  0  0  0
  8 11  1  0  0  0  0
  8  9  2  0  0  0  0
  9 15  2  0  0  0  0
 10 14  2  0  0  0  0
 10 13  1  0  0  0  0
 12 11  2  0  0  0  0
 13 16  1  1  0  0  0
 13  8  1  0  0  0  0
 14 12  1  0  0  0  0
 15  7  1  0  0  0  0
 18 16  1  0  0  0  0
 18 17  1  1  0  0  0
 19 26  1  0  0  0  0
 20 18  1  0  0  0  0
 21 23  1  0  0  0  0
 22 20  1  0  0  0  0
 23 24  2  0  0  0  0
 23 26  1  0  0  0  0
 24 25  1  0  0  0  0
 25 20  2  0  0  0  0
 26 22  2  0  0  0  0
 27 29  1  1  0  0  0
 28 32  1  0  0  0  0
 29 33  1  0  0  0  0
 30 28  1  0  0  0  0
 30 33  2  0  0  0  0
 32 34  1  0  0  0  0
 33 35  1  0  0  0  0
 34 31  1  1  0  0  0
 35 34  1  0  0  0  0
 36 38  1  0  0  0  0
 36 37  1  0  0  0  0
 37 27  1  1  0  0  0
 37 40  1  0  0  0  0
 38 42  1  6  0  0  0
 38 39  1  0  0  0  0
 39 40  1  0  0  0  0
 42 41  1  6  0  0  0
 43 42  1  0  0  0  0
M  END
>  <MODEL>
6

>  <REMARK>
 VINA RESULT:      -5.2      3.425      9.682
  Name = 
  9 active torsions:
  status: ('A' for Active; 'I' for Inactive)
    1  A    between atoms: C_1  and  C_7
    2  A    between atoms: C_7  and  C_43
    3  A    between atoms: N_8  and  C_10
    4  A    between atoms: C_10  and  N_17
    5  A    between atoms: C_10  and  C_19
    6  A    between atoms: C_13  and  C_29
    7  A    between atoms: C_29  and  N_30
    8  A    between atoms: N_30  and  C_38
    9  A    between atoms: C_31  and  C_37
                            x       y       z     vdW  Elec       q    Type
                         _______ _______ _______ _____ _____    ______ ____

>  <TORSDO>
F 9

$$$$
=
 OpenBabel11072413373D

 43 47  0  0  1  0  0  0  0  0999 V2000
  162.0900  205.8200  152.3040 C   0  0  1  0  0  3  0  0  0  0  0  0
  161.4340  204.2780  150.3530 N   0  0  0  0  0  0  0  0  0  0  0  0
  161.7920  203.5850  151.5280 C   0  0  0  0  0  0  0  0  0  0  0  0
  162.2100  204.4000  152.6030 N   0  0  0  0  0  2  0  0  0  0  0  0
  161.7440  202.3290  151.6180 O   0  0  0  0  0  0  0  0  0  0  0  0
  161.7430  206.0120  150.5020 S   0  0  0  0  0  0  0  0  0  0  0  0
  160.9570  206.4070  153.1230 C   0  0  0  0  0  2  0  0  0  0  0  0
  160.8460  209.6480  154.6330 C   0  0  0  0  0  0  0  0  0  0  0  0
  160.7930  208.7430  153.6970 C   0  0  0  0  0  0  0  0  0  0  0  0
  160.1000  211.7850  155.7260 C   0  0  0  0  0  3  0  0  0  0  0  0
  161.6520  209.3880  155.8330 C   0  0  0  0  0  3  0  0  0  0  0  0
  161.6350  210.2440  156.8530 C   0  0  0  0  0  3  0  0  0  0  0  0
  160.1300  210.9640  154.4590 C   0  0  1  0  0  3  0  0  0  0  0  0
  160.8050  211.4620  156.8110 C   0  0  0  0  0  3  0  0  0  0  0  0
  160.7500  207.8350  152.7670 C   0  0  0  0  0  3  0  0  0  0  0  0
  160.7590  211.7340  153.3940 N   0  0  0  0  0  2  0  0  0  0  0  0
  158.8980  212.6790  152.3540 O   0  0  0  0  0  1  0  0  0  0  0  0
  159.8770  211.6950  152.2360 C   0  0  1  0  0  3  0  0  0  0  0  0
  160.9930  214.4530  148.2070 C   0  0  0  0  0  1  0  0  0  0  0  0
  160.6420  211.8900  150.9660 C   0  0  0  0  0  0  0  0  0  0  0  0
  163.0880  212.4120  147.1580 Cl  0  0  0  0  0  0  0  0  0  0  0  0
  160.4570  213.0360  150.1800 C   0  0  0  0  0  3  0  0  0  0  0  0
  162.1300  212.2370  148.6180 C   0  0  0  0  0  0  0  0  0  0  0  0
  162.3090  211.0950  149.4040 C   0  0  0  0  0  3  0  0  0  0  0  0
  161.5660  210.9200  150.5710 C   0  0  0  0  0  3  0  0  0  0  0  0
  161.1930  213.2090  149.0040 C   0  0  0  0  0  0  0  0  0  0  0  0
  160.7000  203.6620  149.2510 C   0  0  2  0  0  3  0  0  0  0  0  0
  160.4590  201.7070  145.4060 C   0  0  0  0  0  2  0  0  0  0  0  0
  161.2020  202.3130  149.0310 N   0  0  0  0  0  2  0  0  0  0  0  0
  160.5690  202.2760  146.7500 N   0  0  0  0  0  0  0  0  0  0  0  0
  161.5760  198.2940  146.2590 O   0  0  0  0  0  1  0  0  0  0  0  0
  160.3790  200.1900  145.4540 C   0  0  0  0  0  2  0  0  0  0  0  0
  161.0880  201.6520  147.7690 C   0  0  0  0  0  0  0  0  0  0  0  0
  161.5680  199.6880  146.2550 C   0  0  1  0  0  3  0  0  0  0  0  0
  161.4660  200.1950  147.6910 C   0  0  0  0  0  2  0  0  0  0  0  0
  162.2310  204.5620  147.4730 C   0  0  0  0  0  2  0  0  0  0  0  0
  160.8110  204.4810  147.9670 C   0  0  2  0  0  3  0  0  0  0  0  0
  162.3300  205.9280  146.8170 C   0  0  2  0  0  3  0  0  0  0  0  0
  161.2050  206.7430  147.2740 N   0  0  0  0  0  2  0  0  0  0  0  0
  160.4440  205.9250  148.2130 C   0  0  0  0  0  2  0  0  0  0  0  0
  162.7210  204.4530  144.8260 C   0  0  0  0  0  1  0  0  0  0  0  0
  162.3170  205.8370  145.2900 C   0  0  1  0  0  3  0  0  0  0  0  0
  161.0610  206.1630  144.7770 O   0  0  0  0  0  1  0  0  0  0  0  0
  1  4  1  0  0  0  0
  1  7  1  1  0  0  0
  2  6  1  0  0  0  0
  2  3  1  0  0  0  0
  3  5  2  0  0  0  0
  3  4  1  0  0  0  0
  6  1  1  0  0  0  0
  8 11  1  0  0  0  0
  9  8  2  0  0  0  0
 10 14  2  0  0  0  0
 11 12  2  0  0  0  0
 13 16  1  6  0  0  0
 13  8  1  0  0  0  0
 13 10  1  0  0  0  0
 14 12  1  0  0  0  0
 15  7  1  0  0  0  0
 15  9  2  0  0  0  0
 18 17  1  1  0  0  0
 18 16  1  0  0  0  0
 19 26  1  0  0  0  0
 20 18  1  0  0  0  0
 21 23  1  0  0  0  0
 22 20  2  0  0  0  0
 23 26  2  0  0  0  0
 23 24  1  0  0  0  0
 24 25  2  0  0  0  0
 25 20  1  0  0  0  0
 26 22  1  0  0  0  0
 27 29  1  6  0  0  0
 27  2  1  0  0  0  0
 28 32  1  0  0  0  0
 28 30  1  0  0  0  0
 30 33  2  0  0  0  0
 32 34  1  0  0  0  0
 33 29  1  0  0  0  0
 34 31  1  1  0  0  0
 34 35  1  0  0  0  0
 35 33  1  0  0  0  0
 36 37  1  0  0  0  0
 37 40  1  0  0  0  0
 37 27  1  1  0  0  0
 38 42  1  6  0  0  0
 38 39  1  0  0  0  0
 38 36  1  0  0  0  0
 39 40  1  0  0  0  0
 42 41  1  1  0  0  0
 43 42  1  0  0  0  0
M  END
>  <MODEL>
7

>  <REMARK>
 VINA RESULT:      -5.0      4.019      9.591
  Name = 
  9 active torsions:
  status: ('A' for Active; 'I' for Inactive)
    1  A    between atoms: C_1  and  C_7
    2  A    between atoms: C_7  and  C_43
    3  A    between atoms: N_8  and  C_10
    4  A    between atoms: C_10  and  N_17
    5  A    between atoms: C_10  and  C_19
    6  A    between atoms: C_13  and  C_29
    7  A    between atoms: C_29  and  N_30
    8  A    between atoms: N_30  and  C_38
    9  A    between atoms: C_31  and  C_37
                            x       y       z     vdW  Elec       q    Type
                         _______ _______ _______ _____ _____    ______ ____

>  <TORSDO>
F 9

$$$$
=
 OpenBabel11072413373D

 43 47  0  0  1  0  0  0  0  0999 V2000
  160.1660  212.7400  150.9210 C   0  0  1  0  0  3  0  0  0  0  0  0
  159.0820  212.8550  153.2490 N   0  0  0  0  0  0  0  0  0  0  0  0
  158.6130  211.7850  152.4580 C   0  0  0  0  0  0  0  0  0  0  0  0
  159.1490  211.7240  151.1520 N   0  0  0  0  0  2  0  0  0  0  0  0
  157.7780  210.9410  152.8800 O   0  0  0  0  0  0  0  0  0  0  0  0
  160.1330  213.9350  152.3260 S   0  0  0  0  0  0  0  0  0  0  0  0
  161.5250  212.0720  150.8310 C   0  0  0  0  0  2  0  0  0  0  0  0
  161.4350  208.5470  151.4400 C   0  0  0  0  0  0  0  0  0  0  0  0
  161.4300  209.6630  150.7670 C   0  0  0  0  0  0  0  0  0  0  0  0
  162.0450  206.1310  151.7650 C   0  0  0  0  0  3  0  0  0  0  0  0
  160.9590  208.5500  152.8290 C   0  0  0  0  0  3  0  0  0  0  0  0
  161.0570  207.4520  153.5770 C   0  0  0  0  0  3  0  0  0  0  0  0
  161.8750  207.2650  150.7820 C   0  0  1  0  0  3  0  0  0  0  0  0
  161.6510  206.2160  153.0370 C   0  0  0  0  0  3  0  0  0  0  0  0
  161.4180  210.7810  150.1030 C   0  0  0  0  0  3  0  0  0  0  0  0
  160.9160  206.8790  149.7550 N   0  0  0  0  0  2  0  0  0  0  0  0
  162.9990  206.9700  148.7100 O   0  0  0  0  0  1  0  0  0  0  0  0
  161.6510  206.6800  148.5140 C   0  0  1  0  0  3  0  0  0  0  0  0
  160.5240  201.8690  149.3300 C   0  0  0  0  0  1  0  0  0  0  0  0
  161.5000  205.2770  148.0150 C   0  0  0  0  0  0  0  0  0  0  0  0
  160.9960  201.0590  146.3680 Cl  0  0  0  0  0  0  0  0  0  0  0  0
  161.1150  204.2420  148.8780 C   0  0  0  0  0  3  0  0  0  0  0  0
  161.1850  202.6740  147.0320 C   0  0  0  0  0  0  0  0  0  0  0  0
  161.5720  203.7090  146.1760 C   0  0  0  0  0  3  0  0  0  0  0  0
  161.7320  205.0040  146.6660 C   0  0  0  0  0  3  0  0  0  0  0  0
  160.9630  202.9400  148.3920 C   0  0  0  0  0  0  0  0  0  0  0  0
  158.8930  212.9250  154.6950 C   0  0  2  0  0  3  0  0  0  0  0  0
  162.3140  211.2590  156.7410 C   0  0  0  0  0  2  0  0  0  0  0  0
  158.8890  211.5770  155.2480 N   0  0  0  0  0  2  0  0  0  0  0  0
  161.1130  211.7270  156.0480 N   0  0  0  0  0  0  0  0  0  0  0  0
  161.2460  207.7560  157.2020 O   0  0  0  0  0  1  0  0  0  0  0  0
  162.4400  209.7460  156.6660 C   0  0  0  0  0  2  0  0  0  0  0  0
  160.0330  211.0130  155.8920 C   0  0  0  0  0  0  0  0  0  0  0  0
  161.1440  209.1460  157.1810 C   0  0  1  0  0  3  0  0  0  0  0  0
  159.9940  209.5530  156.2630 C   0  0  0  0  0  2  0  0  0  0  0  0
  156.5600  212.7020  155.6020 C   0  0  0  0  0  2  0  0  0  0  0  0
  157.6000  213.6490  155.0640 C   0  0  2  0  0  3  0  0  0  0  0  0
  155.2360  213.2930  155.1490 C   0  0  2  0  0  3  0  0  0  0  0  0
  155.4990  214.2500  154.0760 N   0  0  0  0  0  2  0  0  0  0  0  0
  156.9400  214.2350  153.8400 C   0  0  0  0  0  2  0  0  0  0  0  0
  153.4800  213.0570  156.9260 C   0  0  0  0  0  1  0  0  0  0  0  0
  154.4930  213.9870  156.2920 C   0  0  1  0  0  3  0  0  0  0  0  0
  155.3830  214.4530  157.2600 O   0  0  0  0  0  1  0  0  0  0  0  0
  1  7  1  1  0  0  0
  1  4  1  0  0  0  0
  1  6  1  0  0  0  0
  2 27  1  0  0  0  0
  3  5  2  0  0  0  0
  3  2  1  0  0  0  0
  4  3  1  0  0  0  0
  6  2  1  0  0  0  0
  8 11  1  0  0  0  0
  9  8  2  0  0  0  0
 10 14  2  0  0  0  0
 11 12  2  0  0  0  0
 13 16  1  6  0  0  0
 13  8  1  0  0  0  0
 13 10  1  0  0  0  0
 14 12  1  0  0  0  0
 15  9  2  0  0  0  0
 15  7  1  0  0  0  0
 18 17  1  1  0  0  0
 18 16  1  0  0  0  0
 20 18  1  0  0  0  0
 20 22  1  0  0  0  0
 21 23  1  0  0  0  0
 23 26  1  0  0  0  0
 24 25  1  0  0  0  0
 24 23  2  0  0  0  0
 25 20  2  0  0  0  0
 26 22  2  0  0  0  0
 26 19  1  0  0  0  0
 27 29  1  6  0  0  0
 29 33  1  0  0  0  0
 30 28  1  0  0  0  0
 32 28  1  0  0  0  0
 32 34  1  0  0  0  0
 33 30  2  0  0  0  0
 33 35  1  0  0  0  0
 34 31  1  6  0  0  0
 35 34  1  0  0  0  0
 37 27  1  6  0  0  0
 37 36  1  0  0  0  0
 38 36  1  0  0  0  0
 38 42  1  1  0  0  0
 39 38  1  0  0  0  0
 40 39  1  0  0  0  0
 40 37  1  0  0  0  0
 42 41  1  1  0  0  0
 42 43  1  0  0  0  0
M  END
>  <MODEL>
8

>  <REMARK>
 VINA RESULT:      -4.9      4.111      7.527
  Name = 
  9 active torsions:
  status: ('A' for Active; 'I' for Inactive)
    1  A    between atoms: C_1  and  C_7
    2  A    between atoms: C_7  and  C_43
    3  A    between atoms: N_8  and  C_10
    4  A    between atoms: C_10  and  N_17
    5  A    between atoms: C_10  and  C_19
    6  A    between atoms: C_13  and  C_29
    7  A    between atoms: C_29  and  N_30
    8  A    between atoms: N_30  and  C_38
    9  A    between atoms: C_31  and  C_37
                            x       y       z     vdW  Elec       q    Type
                         _______ _______ _______ _____ _____    ______ ____

>  <TORSDO>
F 9

$$$$
=
 OpenBabel11072413373D

 43 47  0  0  1  0  0  0  0  0999 V2000
  161.2700  209.4460  155.8550 C   0  0  1  0  0  3  0  0  0  0  0  0
  159.2280  210.9660  155.4960 N   0  0  0  0  0  0  0  0  0  0  0  0
  160.4170  211.6710  155.7770 C   0  0  0  0  0  0  0  0  0  0  0  0
  161.5480  210.8640  156.0330 N   0  0  0  0  0  2  0  0  0  0  0  0
  160.4740  212.9300  155.7990 O   0  0  0  0  0  0  0  0  0  0  0  0
  159.4470  209.2220  155.6800 S   0  0  0  0  0  0  0  0  0  0  0  0
  161.9820  208.9510  154.6110 C   0  0  0  0  0  2  0  0  0  0  0  0
  161.3940  207.5170  151.3860 C   0  0  0  0  0  0  0  0  0  0  0  0
  161.2860  207.6970  152.6720 C   0  0  0  0  0  0  0  0  0  0  0  0
  160.4660  206.9590  149.1180 C   0  0  0  0  0  3  0  0  0  0  0  0
  162.6390  207.9080  150.7130 C   0  0  0  0  0  3  0  0  0  0  0  0
  162.7360  207.8410  149.3860 C   0  0  0  0  0  3  0  0  0  0  0  0
  160.2730  206.8690  150.6130 C   0  0  1  0  0  3  0  0  0  0  0  0
  161.6010  207.3860  148.5620 C   0  0  0  0  0  3  0  0  0  0  0  0
  161.1910  207.8770  153.9570 C   0  0  0  0  0  3  0  0  0  0  0  0
  160.1430  205.4710  151.0040 N   0  0  0  0  0  2  0  0  0  0  0  0
  161.9340  204.2880  151.9160 O   0  0  0  0  0  1  0  0  0  0  0  0
  161.4150  204.8150  150.7350 C   0  0  1  0  0  3  0  0  0  0  0  0
  161.6690  203.2170  145.9950 C   0  0  0  0  0  1  0  0  0  0  0  0
  161.2580  203.7280  149.7200 C   0  0  0  0  0  0  0  0  0  0  0  0
  160.8230  200.3190  146.7290 Cl  0  0  0  0  0  0  0  0  0  0  0  0
  161.5050  203.9670  148.3610 C   0  0  0  0  0  3  0  0  0  0  0  0
  160.9960  201.6520  147.8570 C   0  0  0  0  0  0  0  0  0  0  0  0
  160.7470  201.4180  149.2130 C   0  0  0  0  0  3  0  0  0  0  0  0
  160.8740  202.4520  150.1400 C   0  0  0  0  0  3  0  0  0  0  0  0
  161.3690  202.9360  147.4280 C   0  0  0  0  0  0  0  0  0  0  0  0
  158.0430  211.5930  154.9170 C   0  0  2  0  0  3  0  0  0  0  0  0
  160.1270  210.7680  151.2240 C   0  0  0  0  0  2  0  0  0  0  0  0
  158.4530  212.6490  154.0020 N   0  0  0  0  0  2  0  0  0  0  0  0
  159.4430  211.1500  152.4600 N   0  0  0  0  0  0  0  0  0  0  0  0
  160.9970  214.1770  150.1090 O   0  0  0  0  0  1  0  0  0  0  0  0
  161.0420  211.8800  150.7340 C   0  0  0  0  0  2  0  0  0  0  0  0
  159.1740  212.3800  152.7990 C   0  0  0  0  0  0  0  0  0  0  0  0
  160.2140  213.1490  150.6290 C   0  0  1  0  0  3  0  0  0  0  0  0
  159.7160  213.5480  152.0160 C   0  0  0  0  0  2  0  0  0  0  0  0
  155.8240  212.6650  155.4110 C   0  0  0  0  0  2  0  0  0  0  0  0
  157.1170  212.1580  155.9920 C   0  0  2  0  0  3  0  0  0  0  0  0
  155.4400  213.8360  156.2990 C   0  0  2  0  0  3  0  0  0  0  0  0
  156.6190  214.2480  157.0570 N   0  0  0  0  0  2  0  0  0  0  0  0
  157.7180  213.3860  156.6320 C   0  0  0  0  0  2  0  0  0  0  0  0
  153.0790  214.3290  156.9900 C   0  0  0  0  0  1  0  0  0  0  0  0
  154.3040  213.4810  157.2610 C   0  0  1  0  0  3  0  0  0  0  0  0
  153.9740  212.1280  157.1720 O   0  0  0  0  0  1  0  0  0  0  0  0
  1  7  1  6  0  0  0
  1  4  1  0  0  0  0
  2  6  1  0  0  0  0
  2  3  1  0  0  0  0
  3  5  2  0  0  0  0
  3  4  1  0  0  0  0
  6  1  1  0  0  0  0
  8  9  2  0  0  0  0
  9 15  2  0  0  0  0
 10 13  1  0  0  0  0
 11  8  1  0  0  0  0
 12 11  2  0  0  0  0
 13 16  1  1  0  0  0
 13  8  1  0  0  0  0
 14 10  2  0  0  0  0
 14 12  1  0  0  0  0
 15  7  1  0  0  0  0
 18 16  1  0  0  0  0
 18 17  1  1  0  0  0
 19 26  1  0  0  0  0
 20 25  1  0  0  0  0
 20 18  1  0  0  0  0
 21 23  1  0  0  0  0
 22 20  2  0  0  0  0
 23 24  1  0  0  0  0
 24 25  2  0  0  0  0
 26 23  2  0  0  0  0
 26 22  1  0  0  0  0
 27 29  1  6  0  0  0
 27  2  1  0  0  0  0
 28 30  1  0  0  0  0
 30 33  2  0  0  0  0
 32 28  1  0  0  0  0
 33 29  1  0  0  0  0
 34 31  1  1  0  0  0
 34 32  1  0  0  0  0
 34 35  1  0  0  0  0
 35 33  1  0  0  0  0
 36 37  1  0  0  0  0
 36 38  1  0  0  0  0
 37 27  1  6  0  0  0
 37 40  1  0  0  0  0
 38 39  1  0  0  0  0
 38 42  1  1  0  0  0
 40 39  1  0  0  0  0
 42 41  1  6  0  0  0
 43 42  1  0  0  0  0
M  END
>  <MODEL>
9

>  <REMARK>
 VINA RESULT:      -4.6      4.166      7.526
  Name = 
  9 active torsions:
  status: ('A' for Active; 'I' for Inactive)
    1  A    between atoms: C_1  and  C_7
    2  A    between atoms: C_7  and  C_43
    3  A    between atoms: N_8  and  C_10
    4  A    between atoms: C_10  and  N_17
    5  A    between atoms: C_10  and  C_19
    6  A    between atoms: C_13  and  C_29
    7  A    between atoms: C_29  and  N_30
    8  A    between atoms: N_30  and  C_38
    9  A    between atoms: C_31  and  C_37
                            x       y       z     vdW  Elec       q    Type
                         _______ _______ _______ _____ _____    ______ ____

>  <TORSDO>
F 9

$$$$
