=
 OpenBabel11072414393D

 26 28  0  0  1  0  0  0  0  0999 V2000
  162.3170  205.3900  151.4480 C   0  0  0  0  0  2  0  0  0  0  0  0
  161.0100  204.6350  151.2680 C   0  0  2  0  0  3  0  0  0  0  0  0
  160.8770  203.6540  152.2530 O   0  0  0  0  0  1  0  0  0  0  0  0
  160.1800  203.0660  149.7340 O   0  0  0  0  0  0  0  0  0  0  0  0
  160.9300  204.0150  149.9030 C   0  0  0  0  0  0  0  0  0  0  0  0
  161.1280  205.8820  148.1590 C   0  0  2  0  0  3  0  0  0  0  0  0
  160.8490  204.5670  147.4540 C   0  0  2  0  0  3  0  0  0  0  0  0
  161.6920  204.5740  148.7220 C   0  0  2  0  0  3  0  0  0  0  0  0
  159.9680  206.3010  148.8170 O   0  0  0  0  0  1  0  0  0  0  0  0
  163.1850  204.7760  146.4860 C   0  0  0  0  0  2  0  0  0  0  0  0
  161.7460  204.4000  146.2320 C   0  0  0  0  0  0  0  0  0  0  0  0
  161.6280  203.2580  145.4360 O   0  0  0  0  0  1  0  0  0  0  0  0
  162.3270  205.6210  145.5540 C   0  0  0  0  0  2  0  0  0  0  0  0
  162.2550  206.2580  152.6920 C   0  0  0  0  0  2  0  0  0  0  0  0
  160.9070  206.9590  152.7780 C   0  0  2  0  0  3  0  0  0  0  0  0
  160.4090  206.5610  155.0760 O   0  0  0  0  0  0  0  0  0  0  0  0
  160.7960  209.3100  152.9580 C   0  0  0  0  0  3  0  0  0  0  0  0
  160.5900  208.8510  154.3720 C   0  0  1  0  0  3  0  0  0  0  0  0
  160.9670  208.2930  152.1220 C   0  0  0  0  0  0  0  0  0  0  0  0
  160.6370  207.3630  154.1840 C   0  0  0  0  0  0  0  0  0  0  0  0
  161.6870  209.3120  155.2360 N   0  0  0  0  0  0  0  0  0  0  0  0
  161.1700  209.4800  156.5860 C   0  0  0  0  0  1  0  0  0  0  0  0
  162.0810  210.6500  154.8170 C   0  0  0  0  0  1  0  0  0  0  0  0
  161.1770  208.4520  150.7490 O   0  0  0  0  0  0  0  0  0  0  0  0
  162.0410  209.3880  148.9880 C   0  0  0  0  0  1  0  0  0  0  0  0
  162.3420  208.9070  150.2640 O   0  0  0  0  0  0  0  0  0  0  0  0
  1 14  1  0  0  0  0
  2  1  1  0  0  0  0
  2  3  1  1  0  0  0
  4  5  2  0  0  0  0
  5  2  1  0  0  0  0
  6  8  1  0  0  0  0
  6  9  1  1  0  0  0
  7 11  1  6  0  0  0
  7  6  1  0  0  0  0
  7  8  1  0  0  0  0
  8  5  1  1  0  0  0
 11 10  1  0  0  0  0
 12 11  1  0  0  0  0
 13 11  1  0  0  0  0
 13 10  1  0  0  0  0
 15 14  1  1  0  0  0
 15 20  1  0  0  0  0
 17 18  1  0  0  0  0
 18 21  1  1  0  0  0
 19 15  1  0  0  0  0
 19 17  2  0  0  0  0
 20 18  1  0  0  0  0
 20 16  2  0  0  0  0
 21 22  1  0  0  0  0
 23 21  1  0  0  0  0
 24 19  1  0  0  0  0
 25 26  1  0  0  0  0
 26 24  1  0  0  0  0
M  END
>  <MODEL>
1

>  <REMARK>
 VINA RESULT:      -6.8      0.000      0.000
  Name = 
  9 active torsions:
  status: ('A' for Active; 'I' for Inactive)
    1  A    between atoms: O_2  and  C_19
    2  A    between atoms: O_2  and  O_21
    3  A    between atoms: C_3  and  C_16
    4  A    between atoms: N_5  and  C_17
    5  A    between atoms: C_8  and  C_14
    6  A    between atoms: C_13  and  C_14
    7  A    between atoms: C_13  and  C_22
    8  A    between atoms: C_18  and  C_23
    9  A    between atoms: C_22  and  C_23
                            x       y       z     vdW  Elec       q    Type
                         _______ _______ _______ _____ _____    ______ ____

>  <TORSDO>
F 9

$$$$
=
 OpenBabel11072414393D

 26 28  0  0  1  0  0  0  0  0999 V2000
  161.7580  206.2040  151.4280 C   0  0  0  0  0  2  0  0  0  0  0  0
  160.9260  205.2030  150.6420 C   0  0  2  0  0  3  0  0  0  0  0  0
  161.5620  203.9600  150.6140 O   0  0  0  0  0  1  0  0  0  0  0  0
  159.6840  206.3670  149.0280 O   0  0  0  0  0  0  0  0  0  0  0  0
  160.6770  205.6900  149.2440 C   0  0  0  0  0  0  0  0  0  0  0  0
  162.4340  206.6600  147.6510 C   0  0  2  0  0  3  0  0  0  0  0  0
  161.2490  206.1610  146.8440 C   0  0  2  0  0  3  0  0  0  0  0  0
  161.6520  205.4280  148.1170 C   0  0  2  0  0  3  0  0  0  0  0  0
  162.0660  207.8260  148.3270 O   0  0  0  0  0  1  0  0  0  0  0  0
  161.7550  203.8820  145.8470 C   0  0  0  0  0  2  0  0  0  0  0  0
  161.7120  205.3750  145.6210 C   0  0  0  0  0  0  0  0  0  0  0  0
  161.2200  205.7070  144.3570 O   0  0  0  0  0  1  0  0  0  0  0  0
  163.0470  204.6630  145.6460 C   0  0  0  0  0  2  0  0  0  0  0  0
  160.8860  207.3530  151.9030 C   0  0  0  0  0  2  0  0  0  0  0  0
  161.6970  208.3060  152.7670 C   0  0  2  0  0  3  0  0  0  0  0  0
  162.1200  210.0210  151.1640 O   0  0  0  0  0  0  0  0  0  0  0  0
  160.6150  209.7360  154.3030 C   0  0  0  0  0  3  0  0  0  0  0  0
  160.8930  210.6390  153.1360 C   0  0  1  0  0  3  0  0  0  0  0  0
  161.0440  208.4980  154.0910 C   0  0  0  0  0  0  0  0  0  0  0  0
  161.6060  209.6860  152.2200 C   0  0  0  0  0  0  0  0  0  0  0  0
  159.6400  211.1170  152.5340 N   0  0  0  0  0  0  0  0  0  0  0  0
  159.8700  212.4460  151.9860 C   0  0  0  0  0  1  0  0  0  0  0  0
  158.6580  211.3120  153.5920 C   0  0  0  0  0  1  0  0  0  0  0  0
  160.9070  207.4660  155.0230 O   0  0  0  0  0  0  0  0  0  0  0  0
  160.2030  207.0870  157.0450 C   0  0  0  0  0  1  0  0  0  0  0  0
  159.7790  207.3040  155.7320 O   0  0  0  0  0  0  0  0  0  0  0  0
  1 14  1  0  0  0  0
  2  3  1  6  0  0  0
  2  1  1  0  0  0  0
  4  5  2  0  0  0  0
  5  2  1  0  0  0  0
  6  8  1  0  0  0  0
  6  9  1  1  0  0  0
  7 11  1  6  0  0  0
  7  6  1  0  0  0  0
  7  8  1  0  0  0  0
  8  5  1  1  0  0  0
 11 13  1  0  0  0  0
 11 10  1  0  0  0  0
 12 11  1  0  0  0  0
 13 10  1  0  0  0  0
 15 14  1  6  0  0  0
 15 19  1  0  0  0  0
 16 20  2  0  0  0  0
 18 21  1  6  0  0  0
 18 17  1  0  0  0  0
 19 17  2  0  0  0  0
 19 24  1  0  0  0  0
 20 15  1  0  0  0  0
 20 18  1  0  0  0  0
 21 23  1  0  0  0  0
 22 21  1  0  0  0  0
 24 26  1  0  0  0  0
 26 25  1  0  0  0  0
M  END
>  <MODEL>
2

>  <REMARK>
 VINA RESULT:      -6.5      1.735      3.375
  Name = 
  9 active torsions:
  status: ('A' for Active; 'I' for Inactive)
    1  A    between atoms: O_2  and  C_19
    2  A    between atoms: O_2  and  O_21
    3  A    between atoms: C_3  and  C_16
    4  A    between atoms: N_5  and  C_17
    5  A    between atoms: C_8  and  C_14
    6  A    between atoms: C_13  and  C_14
    7  A    between atoms: C_13  and  C_22
    8  A    between atoms: C_18  and  C_23
    9  A    between atoms: C_22  and  C_23
                            x       y       z     vdW  Elec       q    Type
                         _______ _______ _______ _____ _____    ______ ____

>  <TORSDO>
F 9

$$$$
=
 OpenBabel11072414393D

 26 28  0  0  1  0  0  0  0  0999 V2000
  161.7660  208.6230  150.1540 C   0  0  0  0  0  2  0  0  0  0  0  0
  162.3380  207.3740  149.5030 C   0  0  2  0  0  3  0  0  0  0  0  0
  162.7960  207.6640  148.2160 O   0  0  0  0  0  1  0  0  0  0  0  0
  160.1390  206.5760  149.3340 O   0  0  0  0  0  0  0  0  0  0  0  0
  161.3160  206.2750  149.4560 C   0  0  0  0  0  0  0  0  0  0  0  0
  161.7130  204.1300  148.1130 C   0  0  2  0  0  3  0  0  0  0  0  0
  160.5500  203.9150  149.0650 C   0  0  2  0  0  3  0  0  0  0  0  0
  161.7070  204.8150  149.4830 C   0  0  2  0  0  3  0  0  0  0  0  0
  161.3060  204.9790  147.0800 O   0  0  0  0  0  1  0  0  0  0  0  0
  161.1910  201.4670  148.8770 C   0  0  0  0  0  2  0  0  0  0  0  0
  160.6590  202.5650  149.7660 C   0  0  0  0  0  0  0  0  0  0  0  0
  161.1750  202.4970  151.0620 O   0  0  0  0  0  1  0  0  0  0  0  0
  159.7460  201.4300  149.3560 C   0  0  0  0  0  2  0  0  0  0  0  0
  161.9950  208.5850  151.6540 C   0  0  0  0  0  2  0  0  0  0  0  0
  160.6640  208.5830  152.3900 C   0  0  2  0  0  3  0  0  0  0  0  0
  160.9550  206.6210  153.7150 O   0  0  0  0  0  0  0  0  0  0  0  0
  160.3180  210.0160  154.2350 C   0  0  0  0  0  3  0  0  0  0  0  0
  160.6200  208.6960  154.8820 C   0  0  1  0  0  3  0  0  0  0  0  0
  160.3490  209.9420  152.9090 C   0  0  0  0  0  0  0  0  0  0  0  0
  160.7930  207.8310  153.6670 C   0  0  0  0  0  0  0  0  0  0  0  0
  161.8630  208.7690  155.6630 N   0  0  0  0  0  0  0  0  0  0  0  0
  161.6350  208.1300  156.9510 C   0  0  0  0  0  1  0  0  0  0  0  0
  162.1350  210.1640  155.9800 C   0  0  0  0  0  1  0  0  0  0  0  0
  160.1020  211.0330  152.0710 O   0  0  0  0  0  0  0  0  0  0  0  0
  159.5330  213.0720  151.5790 C   0  0  0  0  0  1  0  0  0  0  0  0
  160.2350  212.2960  152.5040 O   0  0  0  0  0  0  0  0  0  0  0  0
  1 14  1  0  0  0  0
  2  3  1  6  0  0  0
  2  1  1  0  0  0  0
  4  5  2  0  0  0  0
  5  2  1  0  0  0  0
  6  9  1  6  0  0  0
  6  7  1  0  0  0  0
  6  8  1  0  0  0  0
  7  8  1  0  0  0  0
  7 11  1  1  0  0  0
  8  5  1  6  0  0  0
 10 13  1  0  0  0  0
 10 11  1  0  0  0  0
 11 12  1  0  0  0  0
 13 11  1  0  0  0  0
 15 14  1  1  0  0  0
 15 19  1  0  0  0  0
 15 20  1  0  0  0  0
 17 18  1  0  0  0  0
 18 21  1  6  0  0  0
 19 17  2  0  0  0  0
 20 16  2  0  0  0  0
 20 18  1  0  0  0  0
 21 23  1  0  0  0  0
 21 22  1  0  0  0  0
 24 26  1  0  0  0  0
 24 19  1  0  0  0  0
 25 26  1  0  0  0  0
M  END
>  <MODEL>
3

>  <REMARK>
 VINA RESULT:      -6.4      1.964      3.288
  Name = 
  9 active torsions:
  status: ('A' for Active; 'I' for Inactive)
    1  A    between atoms: O_2  and  C_19
    2  A    between atoms: O_2  and  O_21
    3  A    between atoms: C_3  and  C_16
    4  A    between atoms: N_5  and  C_17
    5  A    between atoms: C_8  and  C_14
    6  A    between atoms: C_13  and  C_14
    7  A    between atoms: C_13  and  C_22
    8  A    between atoms: C_18  and  C_23
    9  A    between atoms: C_22  and  C_23
                            x       y       z     vdW  Elec       q    Type
                         _______ _______ _______ _____ _____    ______ ____

>  <TORSDO>
F 9

$$$$
=
 OpenBabel11072414393D

 26 28  0  0  1  0  0  0  0  0999 V2000
  161.5430  207.2080  148.4780 C   0  0  0  0  0  2  0  0  0  0  0  0
  160.9320  205.9150  147.9610 C   0  0  2  0  0  3  0  0  0  0  0  0
  160.5090  205.1190  149.0280 O   0  0  0  0  0  1  0  0  0  0  0  0
  162.6300  205.7930  146.3480 O   0  0  0  0  0  0  0  0  0  0  0  0
  161.9080  205.1620  147.1050 C   0  0  0  0  0  0  0  0  0  0  0  0
  161.4730  202.8770  146.0330 C   0  0  2  0  0  3  0  0  0  0  0  0
  160.7290  202.9590  147.3540 C   0  0  2  0  0  3  0  0  0  0  0  0
  162.0720  203.6620  147.2040 C   0  0  2  0  0  3  0  0  0  0  0  0
  160.8340  203.6960  145.0980 O   0  0  0  0  0  1  0  0  0  0  0  0
  159.8040  201.4520  149.1740 C   0  0  0  0  0  2  0  0  0  0  0  0
  160.9000  201.6750  148.1590 C   0  0  0  0  0  0  0  0  0  0  0  0
  161.2730  200.4950  147.5120 O   0  0  0  0  0  1  0  0  0  0  0  0
  161.2240  201.7510  149.6350 C   0  0  0  0  0  2  0  0  0  0  0  0
  161.0170  207.5190  149.8670 C   0  0  0  0  0  2  0  0  0  0  0  0
  162.1270  208.0950  150.7340 C   0  0  2  0  0  3  0  0  0  0  0  0
  162.0210  210.3730  150.0370 O   0  0  0  0  0  0  0  0  0  0  0  0
  161.7350  208.5690  153.0140 C   0  0  0  0  0  3  0  0  0  0  0  0
  161.6150  209.9150  152.3610 C   0  0  1  0  0  3  0  0  0  0  0  0
  162.0030  207.6090  152.1350 C   0  0  0  0  0  0  0  0  0  0  0  0
  161.9070  209.5520  150.9340 C   0  0  0  0  0  0  0  0  0  0  0  0
  160.2520  210.4470  152.5060 N   0  0  0  0  0  0  0  0  0  0  0  0
  160.2940  211.8850  152.2860 C   0  0  0  0  0  1  0  0  0  0  0  0
  159.8350  210.2920  153.8930 C   0  0  0  0  0  1  0  0  0  0  0  0
  162.1640  206.2670  152.4880 O   0  0  0  0  0  0  0  0  0  0  0  0
  161.1100  204.3680  152.3730 C   0  0  0  0  0  1  0  0  0  0  0  0
  161.1790  205.5720  153.0790 O   0  0  0  0  0  0  0  0  0  0  0  0
  1 14  1  0  0  0  0
  2  1  1  0  0  0  0
  2  3  1  1  0  0  0
  4  5  2  0  0  0  0
  5  2  1  0  0  0  0
  6  9  1  6  0  0  0
  6  8  1  0  0  0  0
  6  7  1  0  0  0  0
  7 11  1  1  0  0  0
  8  5  1  6  0  0  0
  8  7  1  0  0  0  0
 10 13  1  0  0  0  0
 11 10  1  0  0  0  0
 11 13  1  0  0  0  0
 12 11  1  0  0  0  0
 15 14  1  6  0  0  0
 15 20  1  0  0  0  0
 15 19  1  0  0  0  0
 16 20  2  0  0  0  0
 18 21  1  6  0  0  0
 18 17  1  0  0  0  0
 19 24  1  0  0  0  0
 19 17  2  0  0  0  0
 20 18  1  0  0  0  0
 21 23  1  0  0  0  0
 22 21  1  0  0  0  0
 24 26  1  0  0  0  0
 25 26  1  0  0  0  0
M  END
>  <MODEL>
4

>  <REMARK>
 VINA RESULT:      -6.3      2.053      3.901
  Name = 
  9 active torsions:
  status: ('A' for Active; 'I' for Inactive)
    1  A    between atoms: O_2  and  C_19
    2  A    between atoms: O_2  and  O_21
    3  A    between atoms: C_3  and  C_16
    4  A    between atoms: N_5  and  C_17
    5  A    between atoms: C_8  and  C_14
    6  A    between atoms: C_13  and  C_14
    7  A    between atoms: C_13  and  C_22
    8  A    between atoms: C_18  and  C_23
    9  A    between atoms: C_22  and  C_23
                            x       y       z     vdW  Elec       q    Type
                         _______ _______ _______ _____ _____    ______ ____

>  <TORSDO>
F 9

$$$$
=
 OpenBabel11072414393D

 26 28  0  0  1  0  0  0  0  0999 V2000
  160.3820  206.0880  146.9080 C   0  0  0  0  0  2  0  0  0  0  0  0
  161.6600  205.3420  146.5570 C   0  0  2  0  0  3  0  0  0  0  0  0
  162.6110  206.2260  146.0420 O   0  0  0  0  0  1  0  0  0  0  0  0
  161.0580  204.5410  144.4360 O   0  0  0  0  0  0  0  0  0  0  0  0
  161.3880  204.2410  145.5730 C   0  0  0  0  0  0  0  0  0  0  0  0
  160.4790  201.8510  145.4080 C   0  0  2  0  0  3  0  0  0  0  0  0
  160.4840  202.2840  146.8620 C   0  0  2  0  0  3  0  0  0  0  0  0
  161.5780  202.7830  145.9270 C   0  0  2  0  0  3  0  0  0  0  0  0
  159.4630  202.5320  144.7320 O   0  0  0  0  0  1  0  0  0  0  0  0
  160.2620  201.0200  149.0510 C   0  0  0  0  0  2  0  0  0  0  0  0
  161.0300  201.1790  147.7610 C   0  0  0  0  0  0  0  0  0  0  0  0
  161.3960  199.9510  147.2050 O   0  0  0  0  0  1  0  0  0  0  0  0
  161.6950  201.5360  149.0720 C   0  0  0  0  0  2  0  0  0  0  0  0
  160.3030  206.3170  148.4060 C   0  0  0  0  0  2  0  0  0  0  0  0
  161.6990  206.3430  149.0090 C   0  0  2  0  0  3  0  0  0  0  0  0
  162.3030  208.5920  148.4930 O   0  0  0  0  0  0  0  0  0  0  0  0
  161.9870  206.5920  151.3400 C   0  0  0  0  0  3  0  0  0  0  0  0
  162.2420  207.9760  150.8160 C   0  0  1  0  0  3  0  0  0  0  0  0
  161.6950  205.7350  150.3680 C   0  0  0  0  0  0  0  0  0  0  0  0
  162.0800  207.7420  149.3420 C   0  0  0  0  0  0  0  0  0  0  0  0
  161.2340  208.9200  151.3180 N   0  0  0  0  0  0  0  0  0  0  0  0
  161.8740  210.2110  151.5240 C   0  0  0  0  0  1  0  0  0  0  0  0
  160.8150  208.4930  152.6470 C   0  0  0  0  0  1  0  0  0  0  0  0
  161.4160  204.3840  150.5910 O   0  0  0  0  0  0  0  0  0  0  0  0
  160.6950  203.2200  152.2800 C   0  0  0  0  0  1  0  0  0  0  0  0
  161.8460  203.7510  151.6940 O   0  0  0  0  0  0  0  0  0  0  0  0
  1 14  1  0  0  0  0
  2  3  1  6  0  0  0
  2  1  1  0  0  0  0
  4  5  2  0  0  0  0
  5  2  1  0  0  0  0
  6  9  1  6  0  0  0
  6  8  1  0  0  0  0
  6  7  1  0  0  0  0
  7 11  1  1  0  0  0
  8  5  1  6  0  0  0
  8  7  1  0  0  0  0
 10 13  1  0  0  0  0
 11 10  1  0  0  0  0
 11 13  1  0  0  0  0
 12 11  1  0  0  0  0
 15 14  1  1  0  0  0
 15 20  1  0  0  0  0
 15 19  1  0  0  0  0
 16 20  2  0  0  0  0
 18 21  1  1  0  0  0
 18 17  1  0  0  0  0
 19 24  1  0  0  0  0
 19 17  2  0  0  0  0
 20 18  1  0  0  0  0
 21 22  1  0  0  0  0
 21 23  1  0  0  0  0
 24 26  1  0  0  0  0
 26 25  1  0  0  0  0
M  END
>  <MODEL>
5

>  <REMARK>
 VINA RESULT:      -6.3      2.202      4.826
  Name = 
  9 active torsions:
  status: ('A' for Active; 'I' for Inactive)
    1  A    between atoms: O_2  and  C_19
    2  A    between atoms: O_2  and  O_21
    3  A    between atoms: C_3  and  C_16
    4  A    between atoms: N_5  and  C_17
    5  A    between atoms: C_8  and  C_14
    6  A    between atoms: C_13  and  C_14
    7  A    between atoms: C_13  and  C_22
    8  A    between atoms: C_18  and  C_23
    9  A    between atoms: C_22  and  C_23
                            x       y       z     vdW  Elec       q    Type
                         _______ _______ _______ _____ _____    ______ ____

>  <TORSDO>
F 9

$$$$
=
 OpenBabel11072414393D

 26 28  0  0  1  0  0  0  0  0999 V2000
  161.6900  206.3740  152.1900 C   0  0  0  0  0  2  0  0  0  0  0  0
  161.8830  205.8550  150.7740 C   0  0  2  0  0  3  0  0  0  0  0  0
  161.7160  206.8900  149.8510 O   0  0  0  0  0  1  0  0  0  0  0  0
  160.3740  204.1760  151.4080 O   0  0  0  0  0  0  0  0  0  0  0  0
  160.9300  204.7340  150.4760 C   0  0  0  0  0  0  0  0  0  0  0  0
  160.7080  202.8250  148.7810 C   0  0  2  0  0  3  0  0  0  0  0  0
  161.8020  203.7730  148.3250 C   0  0  2  0  0  3  0  0  0  0  0  0
  160.5880  204.3270  149.0600 C   0  0  2  0  0  3  0  0  0  0  0  0
  161.1630  202.1020  149.8870 O   0  0  0  0  0  1  0  0  0  0  0  0
  162.8370  204.8780  146.2880 C   0  0  0  0  0  2  0  0  0  0  0  0
  161.6870  204.0650  146.8330 C   0  0  0  0  0  0  0  0  0  0  0  0
  161.2920  203.0510  145.9570 O   0  0  0  0  0  1  0  0  0  0  0  0
  161.4400  205.4810  146.3610 C   0  0  0  0  0  2  0  0  0  0  0  0
  160.8690  207.6510  152.1740 C   0  0  0  0  0  2  0  0  0  0  0  0
  161.6260  208.7720  152.8700 C   0  0  2  0  0  3  0  0  0  0  0  0
  161.7100  210.3510  151.0840 O   0  0  0  0  0  0  0  0  0  0  0  0
  160.5070  210.2210  154.3600 C   0  0  0  0  0  3  0  0  0  0  0  0
  160.5800  211.0250  153.0950 C   0  0  1  0  0  3  0  0  0  0  0  0
  161.0640  209.0220  154.2240 C   0  0  0  0  0  0  0  0  0  0  0  0
  161.3260  210.0700  152.2090 C   0  0  0  0  0  0  0  0  0  0  0  0
  159.2340  211.2960  152.5700 N   0  0  0  0  0  0  0  0  0  0  0  0
  159.2450  212.6040  151.9290 C   0  0  0  0  0  1  0  0  0  0  0  0
  158.3140  211.4360  153.6900 C   0  0  0  0  0  1  0  0  0  0  0  0
  161.1270  208.0820  155.2560 O   0  0  0  0  0  0  0  0  0  0  0  0
  160.0590  207.0640  156.8530 C   0  0  0  0  0  1  0  0  0  0  0  0
  160.1370  207.2000  155.4650 O   0  0  0  0  0  0  0  0  0  0  0  0
  2  3  1  6  0  0  0
  2  1  1  0  0  0  0
  5  2  1  0  0  0  0
  5  4  2  0  0  0  0
  6  8  1  0  0  0  0
  6  9  1  1  0  0  0
  7 11  1  6  0  0  0
  7  6  1  0  0  0  0
  7  8  1  0  0  0  0
  8  5  1  1  0  0  0
 10 13  1  0  0  0  0
 10 11  1  0  0  0  0
 12 11  1  0  0  0  0
 13 11  1  0  0  0  0
 14  1  1  0  0  0  0
 15 14  1  6  0  0  0
 15 19  1  0  0  0  0
 16 20  2  0  0  0  0
 18 21  1  6  0  0  0
 18 17  1  0  0  0  0
 19 17  2  0  0  0  0
 19 24  1  0  0  0  0
 20 15  1  0  0  0  0
 20 18  1  0  0  0  0
 21 23  1  0  0  0  0
 22 21  1  0  0  0  0
 24 26  1  0  0  0  0
 26 25  1  0  0  0  0
M  END
>  <MODEL>
6

>  <REMARK>
 VINA RESULT:      -6.2      1.754      3.526
  Name = 
  9 active torsions:
  status: ('A' for Active; 'I' for Inactive)
    1  A    between atoms: O_2  and  C_19
    2  A    between atoms: O_2  and  O_21
    3  A    between atoms: C_3  and  C_16
    4  A    between atoms: N_5  and  C_17
    5  A    between atoms: C_8  and  C_14
    6  A    between atoms: C_13  and  C_14
    7  A    between atoms: C_13  and  C_22
    8  A    between atoms: C_18  and  C_23
    9  A    between atoms: C_22  and  C_23
                            x       y       z     vdW  Elec       q    Type
                         _______ _______ _______ _____ _____    ______ ____

>  <TORSDO>
F 9

$$$$
=
 OpenBabel11072414393D

 26 28  0  0  1  0  0  0  0  0999 V2000
  160.8260  207.2060  149.0250 C   0  0  0  0  0  2  0  0  0  0  0  0
  161.8930  206.5100  148.1950 C   0  0  2  0  0  3  0  0  0  0  0  0
  162.7070  207.4530  147.5630 O   0  0  0  0  0  1  0  0  0  0  0  0
  160.6150  206.0850  146.2740 O   0  0  0  0  0  0  0  0  0  0  0  0
  161.2730  205.5950  147.1790 C   0  0  0  0  0  0  0  0  0  0  0  0
  162.7030  203.6210  146.3900 C   0  0  2  0  0  3  0  0  0  0  0  0
  161.3000  203.4780  145.8270 C   0  0  2  0  0  3  0  0  0  0  0  0
  161.4970  204.1000  147.2040 C   0  0  2  0  0  3  0  0  0  0  0  0
  163.3570  204.6620  145.7240 O   0  0  0  0  0  1  0  0  0  0  0  0
  160.1820  201.7540  147.3160 C   0  0  0  0  0  2  0  0  0  0  0  0
  160.7970  202.0450  145.9690 C   0  0  0  0  0  0  0  0  0  0  0  0
  160.0870  201.4540  144.9210 O   0  0  0  0  0  1  0  0  0  0  0  0
  161.4940  201.0940  146.9160 C   0  0  0  0  0  2  0  0  0  0  0  0
  160.3930  206.3150  150.1760 C   0  0  0  0  0  2  0  0  0  0  0  0
  161.5870  205.9710  151.0540 C   0  0  2  0  0  3  0  0  0  0  0  0
  162.3700  208.1730  151.5270 O   0  0  0  0  0  0  0  0  0  0  0  0
  161.2720  205.3830  153.3180 C   0  0  0  0  0  3  0  0  0  0  0  0
  161.6950  206.8210  153.3960 C   0  0  1  0  0  3  0  0  0  0  0  0
  161.2160  204.9450  152.0660 C   0  0  0  0  0  0  0  0  0  0  0  0
  161.9110  207.1200  151.9410 C   0  0  0  0  0  0  0  0  0  0  0  0
  160.6190  207.6530  153.9550 N   0  0  0  0  0  0  0  0  0  0  0  0
  161.2070  208.8790  154.4730 C   0  0  0  0  0  1  0  0  0  0  0  0
  160.0670  206.9790  155.1230 C   0  0  0  0  0  1  0  0  0  0  0  0
  160.8490  203.6410  151.7220 O   0  0  0  0  0  0  0  0  0  0  0  0
  160.9930  201.7050  150.7440 C   0  0  0  0  0  1  0  0  0  0  0  0
  161.2890  203.0620  150.5940 O   0  0  0  0  0  0  0  0  0  0  0  0
  1 14  1  0  0  0  0
  2  3  1  6  0  0  0
  2  1  1  0  0  0  0
  4  5  2  0  0  0  0
  5  2  1  0  0  0  0
  6  9  1  6  0  0  0
  6  8  1  0  0  0  0
  7 11  1  1  0  0  0
  7  6  1  0  0  0  0
  7  8  1  0  0  0  0
  8  5  1  6  0  0  0
 11 13  1  0  0  0  0
 11 10  1  0  0  0  0
 12 11  1  0  0  0  0
 13 10  1  0  0  0  0
 15 14  1  6  0  0  0
 15 20  1  0  0  0  0
 15 19  1  0  0  0  0
 16 20  2  0  0  0  0
 17 18  1  0  0  0  0
 18 21  1  6  0  0  0
 19 17  2  0  0  0  0
 20 18  1  0  0  0  0
 21 22  1  0  0  0  0
 21 23  1  0  0  0  0
 24 19  1  0  0  0  0
 26 25  1  0  0  0  0
 26 24  1  0  0  0  0
M  END
>  <MODEL>
7

>  <REMARK>
 VINA RESULT:      -6.2      1.864      3.998
  Name = 
  9 active torsions:
  status: ('A' for Active; 'I' for Inactive)
    1  A    between atoms: O_2  and  C_19
    2  A    between atoms: O_2  and  O_21
    3  A    between atoms: C_3  and  C_16
    4  A    between atoms: N_5  and  C_17
    5  A    between atoms: C_8  and  C_14
    6  A    between atoms: C_13  and  C_14
    7  A    between atoms: C_13  and  C_22
    8  A    between atoms: C_18  and  C_23
    9  A    between atoms: C_22  and  C_23
                            x       y       z     vdW  Elec       q    Type
                         _______ _______ _______ _____ _____    ______ ____

>  <TORSDO>
F 9

$$$$
=
 OpenBabel11072414393D

 26 28  0  0  1  0  0  0  0  0999 V2000
  160.1150  205.0410  150.7570 C   0  0  0  0  0  2  0  0  0  0  0  0
  161.4340  204.7510  151.4560 C   0  0  2  0  0  3  0  0  0  0  0  0
  161.3390  203.5760  152.2040 O   0  0  0  0  0  1  0  0  0  0  0  0
  163.0210  206.1980  152.4000 O   0  0  0  0  0  0  0  0  0  0  0  0
  161.8390  205.8970  152.3380 C   0  0  0  0  0  0  0  0  0  0  0  0
  160.6110  208.1380  152.5280 C   0  0  2  0  0  3  0  0  0  0  0  0
  161.4700  207.9320  153.7620 C   0  0  2  0  0  3  0  0  0  0  0  0
  160.8240  206.7280  153.0900 C   0  0  2  0  0  3  0  0  0  0  0  0
  161.4380  208.4190  151.4380 O   0  0  0  0  0  1  0  0  0  0  0  0
  161.3410  207.7650  156.2910 C   0  0  0  0  0  2  0  0  0  0  0  0
  160.7040  208.2960  155.0300 C   0  0  0  0  0  0  0  0  0  0  0  0
  160.2050  209.5910  155.1910 O   0  0  0  0  0  1  0  0  0  0  0  0
  160.0020  207.2130  155.8210 C   0  0  0  0  0  2  0  0  0  0  0  0
  160.3670  205.6920  149.4090 C   0  0  0  0  0  2  0  0  0  0  0  0
  161.7450  205.3090  148.8890 C   0  0  2  0  0  3  0  0  0  0  0  0
  161.3580  203.0020  148.4260 O   0  0  0  0  0  0  0  0  0  0  0  0
  162.3770  205.8490  146.6790 C   0  0  0  0  0  3  0  0  0  0  0  0
  161.9930  204.4010  146.5780 C   0  0  1  0  0  3  0  0  0  0  0  0
  162.2360  206.3190  147.9130 C   0  0  0  0  0  0  0  0  0  0  0  0
  161.6390  204.1140  148.0090 C   0  0  0  0  0  0  0  0  0  0  0  0
  160.8280  204.2290  145.6980 N   0  0  0  0  0  0  0  0  0  0  0  0
  160.7880  202.8440  145.2540 C   0  0  0  0  0  1  0  0  0  0  0  0
  161.0410  205.0060  144.4840 C   0  0  0  0  0  1  0  0  0  0  0  0
  162.5270  207.6380  148.2720 O   0  0  0  0  0  0  0  0  0  0  0  0
  162.2530  209.7640  148.6360 C   0  0  0  0  0  1  0  0  0  0  0  0
  161.5960  208.6030  148.2220 O   0  0  0  0  0  0  0  0  0  0  0  0
  1  2  1  0  0  0  0
  2  3  1  1  0  0  0
  2  5  1  0  0  0  0
  5  4  2  0  0  0  0
  6  9  1  6  0  0  0
  6  8  1  0  0  0  0
  6  7  1  0  0  0  0
  7 11  1  1  0  0  0
  8  5  1  6  0  0  0
  8  7  1  0  0  0  0
 11 12  1  0  0  0  0
 11 13  1  0  0  0  0
 11 10  1  0  0  0  0
 13 10  1  0  0  0  0
 14  1  1  0  0  0  0
 15 14  1  6  0  0  0
 17 19  2  0  0  0  0
 18 21  1  6  0  0  0
 18 17  1  0  0  0  0
 18 20  1  0  0  0  0
 19 24  1  0  0  0  0
 19 15  1  0  0  0  0
 20 16  2  0  0  0  0
 20 15  1  0  0  0  0
 22 21  1  0  0  0  0
 23 21  1  0  0  0  0
 26 24  1  0  0  0  0
 26 25  1  0  0  0  0
M  END
>  <MODEL>
8

>  <REMARK>
 VINA RESULT:      -6.2      2.608      7.211
  Name = 
  9 active torsions:
  status: ('A' for Active; 'I' for Inactive)
    1  A    between atoms: O_2  and  C_19
    2  A    between atoms: O_2  and  O_21
    3  A    between atoms: C_3  and  C_16
    4  A    between atoms: N_5  and  C_17
    5  A    between atoms: C_8  and  C_14
    6  A    between atoms: C_13  and  C_14
    7  A    between atoms: C_13  and  C_22
    8  A    between atoms: C_18  and  C_23
    9  A    between atoms: C_22  and  C_23
                            x       y       z     vdW  Elec       q    Type
                         _______ _______ _______ _____ _____    ______ ____

>  <TORSDO>
F 9

$$$$
=
 OpenBabel11072414393D

 26 28  0  0  1  0  0  0  0  0999 V2000
  161.8680  206.6920  151.1520 C   0  0  0  0  0  2  0  0  0  0  0  0
  161.8660  206.8900  149.6440 C   0  0  2  0  0  3  0  0  0  0  0  0
  161.3130  208.1310  149.3190 O   0  0  0  0  0  1  0  0  0  0  0  0
  160.0590  206.0600  148.3990 O   0  0  0  0  0  0  0  0  0  0  0  0
  161.1110  205.7890  148.9580 C   0  0  0  0  0  0  0  0  0  0  0  0
  162.1050  203.9470  147.4810 C   0  0  2  0  0  3  0  0  0  0  0  0
  160.7610  203.4870  148.0160 C   0  0  2  0  0  3  0  0  0  0  0  0
  161.6470  204.3770  148.8780 C   0  0  2  0  0  3  0  0  0  0  0  0
  161.8970  204.9330  146.5130 O   0  0  0  0  0  1  0  0  0  0  0  0
  159.6730  201.6540  149.3930 C   0  0  0  0  0  2  0  0  0  0  0  0
  160.8330  202.0450  148.5090 C   0  0  0  0  0  0  0  0  0  0  0  0
  161.1940  201.0270  147.6230 O   0  0  0  0  0  1  0  0  0  0  0  0
  161.0760  201.7640  149.9760 C   0  0  0  0  0  2  0  0  0  0  0  0
  160.8770  207.6360  151.8070 C   0  0  0  0  0  2  0  0  0  0  0  0
  161.5870  208.5280  152.8150 C   0  0  2  0  0  3  0  0  0  0  0  0
  162.1340  210.3630  151.3940 O   0  0  0  0  0  0  0  0  0  0  0  0
  160.3410  209.8270  154.3430 C   0  0  0  0  0  3  0  0  0  0  0  0
  160.7150  210.8180  153.2800 C   0  0  1  0  0  3  0  0  0  0  0  0
  160.8070  208.6120  154.0800 C   0  0  0  0  0  0  0  0  0  0  0  0
  161.5270  209.9450  152.3680 C   0  0  0  0  0  0  0  0  0  0  0  0
  159.5180  211.3310  152.5980 N   0  0  0  0  0  0  0  0  0  0  0  0
  159.7570  212.7190  152.2290 C   0  0  0  0  0  1  0  0  0  0  0  0
  158.4210  211.3810  153.5540 C   0  0  0  0  0  1  0  0  0  0  0  0
  160.5980  207.5100  154.9140 O   0  0  0  0  0  0  0  0  0  0  0  0
  160.4630  207.3460  157.0780 C   0  0  0  0  0  1  0  0  0  0  0  0
  159.7090  207.5480  155.9200 O   0  0  0  0  0  0  0  0  0  0  0  0
  1 14  1  0  0  0  0
  2  3  1  1  0  0  0
  2  1  1  0  0  0  0
  4  5  2  0  0  0  0
  5  2  1  0  0  0  0
  6  9  1  6  0  0  0
  6  7  1  0  0  0  0
  6  8  1  0  0  0  0
  7 11  1  1  0  0  0
  7  8  1  0  0  0  0
  8  5  1  6  0  0  0
 10 13  1  0  0  0  0
 11 10  1  0  0  0  0
 11 13  1  0  0  0  0
 12 11  1  0  0  0  0
 15 14  1  6  0  0  0
 15 19  1  0  0  0  0
 16 20  2  0  0  0  0
 18 21  1  6  0  0  0
 18 17  1  0  0  0  0
 19 17  2  0  0  0  0
 19 24  1  0  0  0  0
 20 15  1  0  0  0  0
 20 18  1  0  0  0  0
 21 23  1  0  0  0  0
 22 21  1  0  0  0  0
 24 26  1  0  0  0  0
 26 25  1  0  0  0  0
M  END
>  <MODEL>
9

>  <REMARK>
 VINA RESULT:      -6.2      1.985      3.993
  Name = 
  9 active torsions:
  status: ('A' for Active; 'I' for Inactive)
    1  A    between atoms: O_2  and  C_19
    2  A    between atoms: O_2  and  O_21
    3  A    between atoms: C_3  and  C_16
    4  A    between atoms: N_5  and  C_17
    5  A    between atoms: C_8  and  C_14
    6  A    between atoms: C_13  and  C_14
    7  A    between atoms: C_13  and  C_22
    8  A    between atoms: C_18  and  C_23
    9  A    between atoms: C_22  and  C_23
                            x       y       z     vdW  Elec       q    Type
                         _______ _______ _______ _____ _____    ______ ____

>  <TORSDO>
F 9

$$$$
