=
 OpenBabel11072413593D

 29 31  0  0  1  0  0  0  0  0999 V2000
  158.6910  211.3550  153.1680 C   0  0  0  0  0  0  0  0  0  0  0  0
  159.6690  210.3390  153.4550 N   0  0  0  0  0  0  0  0  0  0  0  0
  157.7520  210.9970  155.4100 C   0  0  1  0  0  3  0  0  0  0  0  0
  159.3150  209.9450  157.2280 C   0  0  0  0  0  1  0  0  0  0  0  0
  161.6920  208.3870  153.9780 C   0  0  0  0  0  2  0  0  0  0  0  0
  159.8910  209.9110  154.8190 C   0  0  0  0  0  0  0  0  0  0  0  0
  162.5460  210.3600  152.9070 O   0  0  0  0  0  1  0  0  0  0  0  0
  160.3280  209.6500  152.3450 C   0  0  0  0  0  2  0  0  0  0  0  0
  157.9740  212.0300  154.2950 C   0  0  1  0  0  3  0  0  0  0  0  0
  159.0310  210.2740  155.7930 C   0  0  0  0  0  0  0  0  0  0  0  0
  158.4490  211.6990  151.9810 O   0  0  0  0  0  0  0  0  0  0  0  0
  161.7560  209.2230  152.6970 C   0  0  2  0  0  0  0  0  0  0  0  0
  161.1740  209.2010  155.1590 C   0  0  0  0  0  2  0  0  0  0  0  0
  162.3400  208.3680  151.5490 C   0  0  1  0  0  3  0  0  0  0  0  0
  162.1540  205.9740  152.2390 C   0  0  0  0  0  2  0  0  0  0  0  0
  162.2080  209.9800  149.7170 O   0  0  0  0  0  0  0  0  0  0  0  0
  161.0880  206.8310  150.2000 C   0  0  0  0  0  0  0  0  0  0  0  0
  161.7430  206.9930  151.4930 C   0  0  0  0  0  0  0  0  0  0  0  0
  161.1700  207.8860  149.4600 N   0  0  0  0  0  0  0  0  0  0  0  0
  161.9120  208.8520  150.1930 C   0  0  0  0  0  0  0  0  0  0  0  0
  160.4470  205.6590  149.7940 O   0  0  0  0  0  0  0  0  0  0  0  0
  160.8190  204.9730  148.6080 C   0  0  0  0  0  1  0  0  0  0  0  0
  160.1290  213.0570  155.5770 O   0  0  0  0  0  0  0  0  0  0  0  0
  157.8830  214.4530  155.9250 C   0  0  0  0  0  1  0  0  0  0  0  0
  158.8940  213.4790  154.8340 S   0  0  0  0  0  0  0  0  0  0  0  0
  159.2870  214.3200  153.6520 O   0  0  0  0  0  0  0  0  0  0  0  0
  156.9400  211.5530  156.5760 C   0  0  0  0  0  2  0  0  0  0  0  0
  155.2400  210.1660  155.4350 C   0  0  0  0  0  1  0  0  0  0  0  0
  155.4570  211.3810  156.3110 C   0  0  0  0  0  2  0  0  0  0  0  0
  1  2  1  0  0  0  0
  1  9  1  0  0  0  0
  2  6  1  0  0  0  0
  3 10  1  0  0  0  0
  3 27  1  1  0  0  0
  5 13  1  0  0  0  0
  6 13  1  0  0  0  0
  6 10  2  0  0  0  0
  8 12  1  0  0  0  0
  8  2  1  0  0  0  0
  9 25  1  1  0  0  0
  9  3  1  0  0  0  0
 10  4  1  0  0  0  0
 11  1  2  0  0  0  0
 12  7  1  1  0  0  0
 12  5  1  0  0  0  0
 14 20  1  6  0  0  0
 14 12  1  0  0  0  0
 16 20  2  0  0  0  0
 17 18  1  0  0  0  0
 18 14  1  0  0  0  0
 18 15  2  0  0  0  0
 19 20  1  0  0  0  0
 19 17  2  0  0  0  0
 21 17  1  0  0  0  0
 22 21  1  0  0  0  0
 25 23  2  0  0  0  0
 25 24  1  0  0  0  0
 26 25  2  0  0  0  0
 28 29  1  0  0  0  0
 29 27  1  0  0  0  0
M  END
>  <MODEL>
1

>  <REMARK>
 VINA RESULT:      -5.3      0.000      0.000
  Name = 
  5 active torsions:
  status: ('A' for Active; 'I' for Inactive)
    1  A    between atoms: C_1  and  C_26
    2  A    between atoms: C_2  and  C_10
    3  A    between atoms: C_2  and  C_22
    4  A    between atoms: C_8  and  O_15
    5  A    between atoms: C_21  and  S_23
                            x       y       z     vdW  Elec       q    Type
                         _______ _______ _______ _____ _____    ______ ____

>  <TORSDO>
F 5

$$$$
=
 OpenBabel11072413593D

 29 31  0  0  1  0  0  0  0  0999 V2000
  162.4880  204.7400  147.0140 C   0  0  0  0  0  0  0  0  0  0  0  0
  161.9360  204.8710  148.3370 N   0  0  0  0  0  0  0  0  0  0  0  0
  161.5710  202.4630  146.9240 C   0  0  1  0  0  3  0  0  0  0  0  0
  159.5550  201.9010  148.4960 C   0  0  0  0  0  1  0  0  0  0  0  0
  160.8050  205.2350  150.9380 C   0  0  0  0  0  2  0  0  0  0  0  0
  160.9310  203.9390  148.7980 C   0  0  0  0  0  0  0  0  0  0  0  0
  160.4900  207.1350  149.5020 O   0  0  0  0  0  1  0  0  0  0  0  0
  162.5040  205.8620  149.2510 C   0  0  0  0  0  2  0  0  0  0  0  0
  161.9480  203.6950  146.0890 C   0  0  1  0  0  3  0  0  0  0  0  0
  160.6790  202.8120  148.1010 C   0  0  0  0  0  0  0  0  0  0  0  0
  163.4020  205.5110  146.6180 O   0  0  0  0  0  0  0  0  0  0  0  0
  161.4570  206.4190  150.2200 C   0  0  2  0  0  0  0  0  0  0  0  0
  160.0620  204.3240  149.9660 C   0  0  0  0  0  2  0  0  0  0  0  0
  162.1450  207.3380  151.2550 C   0  0  1  0  0  3  0  0  0  0  0  0
  162.1530  209.6490  150.3030 C   0  0  0  0  0  2  0  0  0  0  0  0
  161.9210  205.9580  153.2580 O   0  0  0  0  0  0  0  0  0  0  0  0
  161.0710  209.1230  152.4440 C   0  0  0  0  0  0  0  0  0  0  0  0
  161.6750  208.7610  151.1660 C   0  0  0  0  0  0  0  0  0  0  0  0
  161.0790  208.1530  153.2960 N   0  0  0  0  0  0  0  0  0  0  0  0
  161.7130  207.0490  152.6640 C   0  0  0  0  0  0  0  0  0  0  0  0
  160.5480  210.3860  152.7260 O   0  0  0  0  0  0  0  0  0  0  0  0
  160.8640  211.0780  153.9250 C   0  0  0  0  0  1  0  0  0  0  0  0
  159.6820  203.2470  144.6740 O   0  0  0  0  0  0  0  0  0  0  0  0
  161.2050  205.2100  143.7040 C   0  0  0  0  0  1  0  0  0  0  0  0
  160.5770  204.3610  145.1350 S   0  0  0  0  0  0  0  0  0  0  0  0
  159.7800  205.3290  145.9650 O   0  0  0  0  0  0  0  0  0  0  0  0
  161.0980  201.2920  146.0670 C   0  0  0  0  0  2  0  0  0  0  0  0
  161.3510  198.8620  145.6850 C   0  0  0  0  0  1  0  0  0  0  0  0
  161.5240  199.9790  146.6930 C   0  0  0  0  0  2  0  0  0  0  0  0
  1  2  1  0  0  0  0
  2  6  1  0  0  0  0
  2  8  1  0  0  0  0
  3 27  1  6  0  0  0
  3 10  1  0  0  0  0
  6 13  1  0  0  0  0
  8 12  1  0  0  0  0
  9 25  1  1  0  0  0
  9  3  1  0  0  0  0
  9  1  1  0  0  0  0
 10  4  1  0  0  0  0
 10  6  2  0  0  0  0
 11  1  2  0  0  0  0
 12  7  1  6  0  0  0
 12  5  1  0  0  0  0
 12 14  1  0  0  0  0
 13  5  1  0  0  0  0
 14 18  1  6  0  0  0
 14 20  1  0  0  0  0
 15 18  2  0  0  0  0
 17 21  1  0  0  0  0
 17 19  2  0  0  0  0
 18 17  1  0  0  0  0
 20 16  2  0  0  0  0
 20 19  1  0  0  0  0
 21 22  1  0  0  0  0
 23 25  2  0  0  0  0
 24 25  1  0  0  0  0
 25 26  2  0  0  0  0
 27 29  1  0  0  0  0
 28 29  1  0  0  0  0
M  END
>  <MODEL>
2

>  <REMARK>
 VINA RESULT:      -4.6      3.996      9.736
  Name = 
  5 active torsions:
  status: ('A' for Active; 'I' for Inactive)
    1  A    between atoms: C_1  and  C_26
    2  A    between atoms: C_2  and  C_10
    3  A    between atoms: C_2  and  C_22
    4  A    between atoms: C_8  and  O_15
    5  A    between atoms: C_21  and  S_23
                            x       y       z     vdW  Elec       q    Type
                         _______ _______ _______ _____ _____    ______ ____

>  <TORSDO>
F 5

$$$$
=
 OpenBabel11072413593D

 29 31  0  0  1  0  0  0  0  0999 V2000
  161.3250  209.7090  153.5650 C   0  0  0  0  0  0  0  0  0  0  0  0
  161.1500  208.2850  153.4560 N   0  0  0  0  0  0  0  0  0  0  0  0
  159.7140  209.7020  155.4200 C   0  0  1  0  0  3  0  0  0  0  0  0
  159.3650  207.4550  156.7180 C   0  0  0  0  0  1  0  0  0  0  0  0
  160.9150  205.4440  153.2260 C   0  0  0  0  0  2  0  0  0  0  0  0
  160.5300  207.5450  154.5340 C   0  0  0  0  0  0  0  0  0  0  0  0
  163.1870  206.2110  153.0950 O   0  0  0  0  0  1  0  0  0  0  0  0
  161.4730  207.6210  152.1920 C   0  0  0  0  0  2  0  0  0  0  0  0
  160.9490  210.4040  154.8360 C   0  0  1  0  0  3  0  0  0  0  0  0
  159.9000  208.2000  155.5310 C   0  0  0  0  0  0  0  0  0  0  0  0
  161.8130  210.3730  152.6130 O   0  0  0  0  0  0  0  0  0  0  0  0
  161.9690  206.1880  152.4030 C   0  0  2  0  0  0  0  0  0  0  0  0
  160.7430  206.0570  154.6120 C   0  0  0  0  0  2  0  0  0  0  0  0
  162.1430  205.4920  151.0330 C   0  0  1  0  0  3  0  0  0  0  0  0
  162.2450  203.0320  151.4610 C   0  0  0  0  0  2  0  0  0  0  0  0
  161.3690  207.2760  149.5540 O   0  0  0  0  0  0  0  0  0  0  0  0
  160.5350  204.0360  150.0120 C   0  0  0  0  0  0  0  0  0  0  0  0
  161.5880  204.0980  151.0200 C   0  0  0  0  0  0  0  0  0  0  0  0
  160.3430  205.1650  149.4170 N   0  0  0  0  0  0  0  0  0  0  0  0
  161.2720  206.0900  149.9660 C   0  0  0  0  0  0  0  0  0  0  0  0
  159.8160  202.8780  149.7100 O   0  0  0  0  0  0  0  0  0  0  0  0
  160.3060  201.9070  148.7980 C   0  0  0  0  0  1  0  0  0  0  0  0
  162.5020  209.1060  156.6360 O   0  0  0  0  0  0  0  0  0  0  0  0
  162.0850  211.6780  157.2070 C   0  0  0  0  0  1  0  0  0  0  0  0
  162.3520  210.4390  155.9600 S   0  0  0  0  0  0  0  0  0  0  0  0
  163.6160  210.7630  155.2140 O   0  0  0  0  0  0  0  0  0  0  0  0
  159.1820  210.3910  156.6730 C   0  0  0  0  0  2  0  0  0  0  0  0
  157.1390  211.2940  155.6120 C   0  0  0  0  0  1  0  0  0  0  0  0
  158.4380  211.6570  156.3000 C   0  0  0  0  0  2  0  0  0  0  0  0
  1  9  1  0  0  0  0
  2  1  1  0  0  0  0
  2  6  1  0  0  0  0
  3 10  1  0  0  0  0
  3 27  1  1  0  0  0
  5 13  1  0  0  0  0
  6 13  1  0  0  0  0
  6 10  2  0  0  0  0
  8 12  1  0  0  0  0
  8  2  1  0  0  0  0
  9  3  1  0  0  0  0
  9 25  1  1  0  0  0
 10  4  1  0  0  0  0
 11  1  2  0  0  0  0
 12  7  1  1  0  0  0
 12  5  1  0  0  0  0
 14 20  1  6  0  0  0
 14 12  1  0  0  0  0
 16 20  2  0  0  0  0
 17 18  1  0  0  0  0
 18 14  1  0  0  0  0
 18 15  2  0  0  0  0
 19 20  1  0  0  0  0
 19 17  2  0  0  0  0
 21 17  1  0  0  0  0
 22 21  1  0  0  0  0
 25 23  2  0  0  0  0
 25 24  1  0  0  0  0
 26 25  2  0  0  0  0
 28 29  1  0  0  0  0
 29 27  1  0  0  0  0
M  END
>  <MODEL>
3

>  <REMARK>
 VINA RESULT:      -4.5      2.328      3.322
  Name = 
  5 active torsions:
  status: ('A' for Active; 'I' for Inactive)
    1  A    between atoms: C_1  and  C_26
    2  A    between atoms: C_2  and  C_10
    3  A    between atoms: C_2  and  C_22
    4  A    between atoms: C_8  and  O_15
    5  A    between atoms: C_21  and  S_23
                            x       y       z     vdW  Elec       q    Type
                         _______ _______ _______ _____ _____    ______ ____

>  <TORSDO>
F 5

$$$$
=
 OpenBabel11072413593D

 29 31  0  0  1  0  0  0  0  0999 V2000
  158.9080  211.1260  153.7260 C   0  0  0  0  0  0  0  0  0  0  0  0
  159.3620  211.6400  152.4610 N   0  0  0  0  0  0  0  0  0  0  0  0
  160.4510  209.2360  153.4400 C   0  0  1  0  0  3  0  0  0  0  0  0
  162.5010  209.5710  151.8460 C   0  0  0  0  0  1  0  0  0  0  0  0
  160.2680  212.7670  149.9930 C   0  0  0  0  0  2  0  0  0  0  0  0
  160.5830  211.1380  151.8700 C   0  0  0  0  0  0  0  0  0  0  0  0
  160.0530  214.3960  151.7460 O   0  0  0  0  0  1  0  0  0  0  0  0
  158.5060  212.5670  151.7190 C   0  0  0  0  0  2  0  0  0  0  0  0
  159.7530  210.1390  154.4680 C   0  0  1  0  0  3  0  0  0  0  0  0
  161.1710  210.0300  152.3660 C   0  0  0  0  0  0  0  0  0  0  0  0
  157.8200  211.5150  154.2260 O   0  0  0  0  0  0  0  0  0  0  0  0
  159.3180  213.5650  150.8900 C   0  0  2  0  0  0  0  0  0  0  0  0
  161.2700  211.9580  150.8100 C   0  0  0  0  0  2  0  0  0  0  0  0
  158.3640  214.4090  150.0140 C   0  0  1  0  0  3  0  0  0  0  0  0
  159.3230  214.4530  147.7070 C   0  0  0  0  0  2  0  0  0  0  0  0
  156.3420  214.3140  151.3810 O   0  0  0  0  0  0  0  0  0  0  0  0
  157.0800  213.5700  148.1710 C   0  0  0  0  0  0  0  0  0  0  0  0
  158.4110  214.0160  148.5670 C   0  0  0  0  0  0  0  0  0  0  0  0
  156.2280  213.6100  149.1410 N   0  0  0  0  0  0  0  0  0  0  0  0
  156.9170  214.1090  150.2800 C   0  0  0  0  0  0  0  0  0  0  0  0
  156.7500  213.1530  146.8800 O   0  0  0  0  0  0  0  0  0  0  0  0
  156.6300  214.0700  145.8040 C   0  0  0  0  0  1  0  0  0  0  0  0
  162.3020  210.8450  155.0540 O   0  0  0  0  0  0  0  0  0  0  0  0
  160.8010  210.3000  157.1910 C   0  0  0  0  0  1  0  0  0  0  0  0
  160.8960  210.9990  155.5580 S   0  0  0  0  0  0  0  0  0  0  0  0
  160.5520  212.4600  155.6330 O   0  0  0  0  0  0  0  0  0  0  0  0
  161.2680  208.1240  154.0910 C   0  0  0  0  0  2  0  0  0  0  0  0
  161.6120  205.9850  152.8990 C   0  0  0  0  0  1  0  0  0  0  0  0
  160.6600  206.7720  153.7730 C   0  0  0  0  0  2  0  0  0  0  0  0
  1 11  2  0  0  0  0
  1  9  1  0  0  0  0
  2  1  1  0  0  0  0
  3 27  1  1  0  0  0
  3  9  1  0  0  0  0
  4 10  1  0  0  0  0
  5 13  1  0  0  0  0
  5 12  1  0  0  0  0
  6 10  2  0  0  0  0
  6  2  1  0  0  0  0
  8  2  1  0  0  0  0
  9 25  1  6  0  0  0
 10  3  1  0  0  0  0
 12  8  1  0  0  0  0
 12  7  1  1  0  0  0
 13  6  1  0  0  0  0
 14 18  1  6  0  0  0
 14 20  1  0  0  0  0
 14 12  1  0  0  0  0
 15 18  2  0  0  0  0
 17 18  1  0  0  0  0
 17 19  2  0  0  0  0
 19 20  1  0  0  0  0
 20 16  2  0  0  0  0
 21 17  1  0  0  0  0
 22 21  1  0  0  0  0
 23 25  2  0  0  0  0
 25 26  2  0  0  0  0
 25 24  1  0  0  0  0
 28 29  1  0  0  0  0
 29 27  1  0  0  0  0
M  END
>  <MODEL>
4

>  <REMARK>
 VINA RESULT:      -4.0      3.564      6.099
  Name = 
  5 active torsions:
  status: ('A' for Active; 'I' for Inactive)
    1  A    between atoms: C_1  and  C_26
    2  A    between atoms: C_2  and  C_10
    3  A    between atoms: C_2  and  C_22
    4  A    between atoms: C_8  and  O_15
    5  A    between atoms: C_21  and  S_23
                            x       y       z     vdW  Elec       q    Type
                         _______ _______ _______ _____ _____    ______ ____

>  <TORSDO>
F 5

$$$$
=
 OpenBabel11072413593D

 29 31  0  0  1  0  0  0  0  0999 V2000
  159.3540  210.3020  155.5110 C   0  0  0  0  0  0  0  0  0  0  0  0
  160.0920  210.2430  154.2770 N   0  0  0  0  0  0  0  0  0  0  0  0
  159.2740  212.7460  155.2720 C   0  0  1  0  0  3  0  0  0  0  0  0
  159.5600  213.7420  152.8680 C   0  0  0  0  0  1  0  0  0  0  0  0
  161.4930  210.0350  151.7930 C   0  0  0  0  0  2  0  0  0  0  0  0
  160.1160  211.3860  153.3900 C   0  0  0  0  0  0  0  0  0  0  0  0
  159.7490  208.4000  152.0260 O   0  0  0  0  0  1  0  0  0  0  0  0
  160.9270  209.0730  154.0010 C   0  0  0  0  0  2  0  0  0  0  0  0
  158.5380  211.5170  155.8260 C   0  0  1  0  0  3  0  0  0  0  0  0
  159.6590  212.5820  153.8140 C   0  0  0  0  0  0  0  0  0  0  0  0
  159.3690  209.3350  156.3180 O   0  0  0  0  0  0  0  0  0  0  0  0
  161.0140  208.7670  152.5030 C   0  0  2  0  0  0  0  0  0  0  0  0
  160.4990  211.1810  151.9490 C   0  0  0  0  0  2  0  0  0  0  0  0
  162.0280  207.6240  152.2650 C   0  0  1  0  0  3  0  0  0  0  0  0
  161.4520  205.7820  153.8530 C   0  0  0  0  0  2  0  0  0  0  0  0
  162.8180  208.2200  150.0320 O   0  0  0  0  0  0  0  0  0  0  0  0
  161.4790  205.4480  151.4200 C   0  0  0  0  0  0  0  0  0  0  0  0
  161.4710  206.2770  152.6210 C   0  0  0  0  0  0  0  0  0  0  0  0
  161.9340  206.0700  150.3840 N   0  0  0  0  0  0  0  0  0  0  0  0
  162.2910  207.3790  150.8080 C   0  0  0  0  0  0  0  0  0  0  0  0
  161.0530  204.1190  151.3890 O   0  0  0  0  0  0  0  0  0  0  0  0
  160.6530  203.4870  150.1830 C   0  0  0  0  0  1  0  0  0  0  0  0
  156.7910  211.8960  153.7910 O   0  0  0  0  0  0  0  0  0  0  0  0
  155.7260  212.2050  156.2170 C   0  0  0  0  0  1  0  0  0  0  0  0
  156.8710  211.3270  155.1780 S   0  0  0  0  0  0  0  0  0  0  0  0
  156.4830  209.8750  155.1430 O   0  0  0  0  0  0  0  0  0  0  0  0
  158.5770  214.0570  155.6220 C   0  0  0  0  0  2  0  0  0  0  0  0
  160.3870  214.4530  157.2600 C   0  0  0  0  0  1  0  0  0  0  0  0
  158.8870  214.4510  157.0530 C   0  0  0  0  0  2  0  0  0  0  0  0
  1  9  1  0  0  0  0
  1 11  2  0  0  0  0
  2  1  1  0  0  0  0
  3 27  1  6  0  0  0
  3  9  1  0  0  0  0
  4 10  1  0  0  0  0
  5 13  1  0  0  0  0
  5 12  1  0  0  0  0
  6 10  2  0  0  0  0
  6  2  1  0  0  0  0
  8  2  1  0  0  0  0
  9 25  1  6  0  0  0
 10  3  1  0  0  0  0
 12  7  1  6  0  0  0
 12  8  1  0  0  0  0
 13  6  1  0  0  0  0
 14 20  1  6  0  0  0
 14 12  1  0  0  0  0
 14 18  1  0  0  0  0
 16 20  2  0  0  0  0
 17 18  1  0  0  0  0
 18 15  2  0  0  0  0
 19 20  1  0  0  0  0
 19 17  2  0  0  0  0
 21 17  1  0  0  0  0
 22 21  1  0  0  0  0
 23 25  2  0  0  0  0
 25 24  1  0  0  0  0
 26 25  2  0  0  0  0
 27 29  1  0  0  0  0
 29 28  1  0  0  0  0
M  END
>  <MODEL>
5

>  <REMARK>
 VINA RESULT:      -3.7      2.030      3.229
  Name = 
  5 active torsions:
  status: ('A' for Active; 'I' for Inactive)
    1  A    between atoms: C_1  and  C_26
    2  A    between atoms: C_2  and  C_10
    3  A    between atoms: C_2  and  C_22
    4  A    between atoms: C_8  and  O_15
    5  A    between atoms: C_21  and  S_23
                            x       y       z     vdW  Elec       q    Type
                         _______ _______ _______ _____ _____    ______ ____

>  <TORSDO>
F 5

$$$$
=
 OpenBabel11072413593D

 29 31  0  0  1  0  0  0  0  0999 V2000
  162.3770  206.2190  147.6170 C   0  0  0  0  0  0  0  0  0  0  0  0
  161.9720  205.8660  148.9520 N   0  0  0  0  0  0  0  0  0  0  0  0
  162.0370  203.8760  146.9620 C   0  0  1  0  0  3  0  0  0  0  0  0
  160.4190  202.4280  148.4240 C   0  0  0  0  0  1  0  0  0  0  0  0
  161.1030  205.2610  151.6090 C   0  0  0  0  0  2  0  0  0  0  0  0
  161.2850  204.6160  149.1950 C   0  0  0  0  0  0  0  0  0  0  0  0
  160.1680  207.3040  150.7580 O   0  0  0  0  0  1  0  0  0  0  0  0
  162.3860  206.7140  150.0710 C   0  0  0  0  0  2  0  0  0  0  0  0
  162.0020  205.3310  146.4730 C   0  0  1  0  0  3  0  0  0  0  0  0
  161.2330  203.6720  148.2330 C   0  0  0  0  0  0  0  0  0  0  0  0
  163.0240  207.2780  147.3990 O   0  0  0  0  0  0  0  0  0  0  0  0
  161.3580  206.7150  151.2050 C   0  0  2  0  0  0  0  0  0  0  0  0
  160.4930  204.4560  150.4660 C   0  0  0  0  0  2  0  0  0  0  0  0
  161.9210  207.4980  152.4140 C   0  0  1  0  0  3  0  0  0  0  0  0
  162.3550  209.8360  151.6450 C   0  0  0  0  0  2  0  0  0  0  0  0
  161.1650  206.0570  154.2370 O   0  0  0  0  0  0  0  0  0  0  0  0
  160.8240  209.3350  153.4980 C   0  0  0  0  0  0  0  0  0  0  0  0
  161.6260  208.9670  152.3370 C   0  0  0  0  0  0  0  0  0  0  0  0
  160.5640  208.3300  154.2670 N   0  0  0  0  0  0  0  0  0  0  0  0
  161.1920  207.1920  153.6910 C   0  0  0  0  0  0  0  0  0  0  0  0
  160.3890  210.6340  153.7640 O   0  0  0  0  0  0  0  0  0  0  0  0
  160.8320  211.3560  154.9030 C   0  0  0  0  0  1  0  0  0  0  0  0
  159.4650  206.1690  146.9230 O   0  0  0  0  0  0  0  0  0  0  0  0
  159.7100  204.4790  144.8740 C   0  0  0  0  0  1  0  0  0  0  0  0
  160.4070  205.8240  145.8040 S   0  0  0  0  0  0  0  0  0  0  0  0
  160.5610  207.0150  144.9000 O   0  0  0  0  0  0  0  0  0  0  0  0
  161.7640  202.8720  145.8460 C   0  0  0  0  0  2  0  0  0  0  0  0
  160.2260  201.0350  145.2340 C   0  0  0  0  0  1  0  0  0  0  0  0
  160.9600  201.7030  146.3780 C   0  0  0  0  0  2  0  0  0  0  0  0
  1  2  1  0  0  0  0
  2  6  1  0  0  0  0
  2  8  1  0  0  0  0
  3 27  1  6  0  0  0
  3 10  1  0  0  0  0
  6 13  1  0  0  0  0
  8 12  1  0  0  0  0
  9 25  1  1  0  0  0
  9  3  1  0  0  0  0
  9  1  1  0  0  0  0
 10  4  1  0  0  0  0
 10  6  2  0  0  0  0
 11  1  2  0  0  0  0
 12  7  1  6  0  0  0
 12  5  1  0  0  0  0
 12 14  1  0  0  0  0
 13  5  1  0  0  0  0
 14 18  1  6  0  0  0
 14 20  1  0  0  0  0
 15 18  2  0  0  0  0
 17 21  1  0  0  0  0
 17 19  2  0  0  0  0
 18 17  1  0  0  0  0
 20 16  2  0  0  0  0
 20 19  1  0  0  0  0
 21 22  1  0  0  0  0
 24 25  1  0  0  0  0
 25 23  2  0  0  0  0
 26 25  2  0  0  0  0
 27 29  1  0  0  0  0
 28 29  1  0  0  0  0
M  END
>  <MODEL>
6

>  <REMARK>
 VINA RESULT:      -3.1      3.560      9.014
  Name = 
  5 active torsions:
  status: ('A' for Active; 'I' for Inactive)
    1  A    between atoms: C_1  and  C_26
    2  A    between atoms: C_2  and  C_10
    3  A    between atoms: C_2  and  C_22
    4  A    between atoms: C_8  and  O_15
    5  A    between atoms: C_21  and  S_23
                            x       y       z     vdW  Elec       q    Type
                         _______ _______ _______ _____ _____    ______ ____

>  <TORSDO>
F 5

$$$$
=
 OpenBabel11072413593D

 29 31  0  0  1  0  0  0  0  0999 V2000
  161.6570  207.6870  154.7600 C   0  0  0  0  0  0  0  0  0  0  0  0
  161.6540  207.7810  153.3240 N   0  0  0  0  0  0  0  0  0  0  0  0
  161.7670  210.1400  154.8570 C   0  0  1  0  0  3  0  0  0  0  0  0
  160.9140  211.4770  152.7750 C   0  0  0  0  0  1  0  0  0  0  0  0
  161.5650  207.8860  150.4680 C   0  0  0  0  0  2  0  0  0  0  0  0
  161.3650  209.0440  152.6810 C   0  0  0  0  0  0  0  0  0  0  0  0
  159.9940  206.3250  151.3990 O   0  0  0  0  0  1  0  0  0  0  0  0
  162.0830  206.6260  152.5340 C   0  0  0  0  0  2  0  0  0  0  0  0
  161.2700  208.8780  155.5790 C   0  0  1  0  0  3  0  0  0  0  0  0
  161.3360  210.1830  153.4030 C   0  0  0  0  0  0  0  0  0  0  0  0
  161.9600  206.6080  155.3350 O   0  0  0  0  0  0  0  0  0  0  0  0
  161.3610  206.5500  151.1850 C   0  0  2  0  0  0  0  0  0  0  0  0
  160.9360  209.0430  151.2370 C   0  0  0  0  0  2  0  0  0  0  0  0
  161.9650  205.4080  150.3370 C   0  0  1  0  0  3  0  0  0  0  0  0
  161.6660  203.2890  151.6280 C   0  0  0  0  0  2  0  0  0  0  0  0
  161.9720  206.4740  148.1390 O   0  0  0  0  0  0  0  0  0  0  0  0
  160.7220  203.5940  149.3810 C   0  0  0  0  0  0  0  0  0  0  0  0
  161.3250  204.0800  150.6180 C   0  0  0  0  0  0  0  0  0  0  0  0
  160.8730  204.4110  148.3930 N   0  0  0  0  0  0  0  0  0  0  0  0
  161.6150  205.5210  148.8810 C   0  0  0  0  0  0  0  0  0  0  0  0
  160.0600  202.3700  149.2680 O   0  0  0  0  0  0  0  0  0  0  0  0
  160.7400  201.1790  148.9030 C   0  0  0  0  0  1  0  0  0  0  0  0
  159.2040  209.3800  157.2580 O   0  0  0  0  0  0  0  0  0  0  0  0
  158.8730  207.2140  155.7370 C   0  0  0  0  0  1  0  0  0  0  0  0
  159.4950  208.8740  155.8740 S   0  0  0  0  0  0  0  0  0  0  0  0
  158.7930  209.7430  154.8690 O   0  0  0  0  0  0  0  0  0  0  0  0
  161.5100  211.4150  155.6540 C   0  0  0  0  0  2  0  0  0  0  0  0
  163.5760  211.0450  156.9630 C   0  0  0  0  0  1  0  0  0  0  0  0
  162.0840  211.2850  157.0520 C   0  0  0  0  0  2  0  0  0  0  0  0
  1 11  2  0  0  0  0
  1  9  1  0  0  0  0
  2  1  1  0  0  0  0
  3  9  1  0  0  0  0
  3 27  1  1  0  0  0
  4 10  1  0  0  0  0
  5 12  1  0  0  0  0
  5 13  1  0  0  0  0
  6  2  1  0  0  0  0
  6 10  2  0  0  0  0
  8  2  1  0  0  0  0
  9 25  1  6  0  0  0
 10  3  1  0  0  0  0
 12  7  1  1  0  0  0
 12  8  1  0  0  0  0
 13  6  1  0  0  0  0
 14 20  1  6  0  0  0
 14 18  1  0  0  0  0
 14 12  1  0  0  0  0
 16 20  2  0  0  0  0
 17 18  1  0  0  0  0
 18 15  2  0  0  0  0
 19 20  1  0  0  0  0
 19 17  2  0  0  0  0
 21 17  1  0  0  0  0
 22 21  1  0  0  0  0
 24 25  1  0  0  0  0
 25 23  2  0  0  0  0
 26 25  2  0  0  0  0
 27 29  1  0  0  0  0
 28 29  1  0  0  0  0
M  END
>  <MODEL>
7

>  <REMARK>
 VINA RESULT:      -3.0      3.135      4.560
  Name = 
  5 active torsions:
  status: ('A' for Active; 'I' for Inactive)
    1  A    between atoms: C_1  and  C_26
    2  A    between atoms: C_2  and  C_10
    3  A    between atoms: C_2  and  C_22
    4  A    between atoms: C_8  and  O_15
    5  A    between atoms: C_21  and  S_23
                            x       y       z     vdW  Elec       q    Type
                         _______ _______ _______ _____ _____    ______ ____

>  <TORSDO>
F 5

$$$$
=
 OpenBabel11072413593D

 29 31  0  0  1  0  0  0  0  0999 V2000
  160.9260  209.9000  152.7740 C   0  0  0  0  0  0  0  0  0  0  0  0
  161.0430  208.4980  152.4700 N   0  0  0  0  0  0  0  0  0  0  0  0
  159.4960  209.3040  154.6800 C   0  0  1  0  0  3  0  0  0  0  0  0
  159.7190  206.8860  155.6580 C   0  0  0  0  0  1  0  0  0  0  0  0
  161.3860  205.7280  151.8470 C   0  0  0  0  0  2  0  0  0  0  0  0
  160.6730  207.5090  153.4580 C   0  0  0  0  0  0  0  0  0  0  0  0
  163.4330  206.9790  151.7230 O   0  0  0  0  0  1  0  0  0  0  0  0
  161.4010  208.0910  151.1100 C   0  0  0  0  0  2  0  0  0  0  0  0
  160.5100  210.3260  154.1460 C   0  0  1  0  0  3  0  0  0  0  0  0
  159.9970  207.8760  154.5660 C   0  0  0  0  0  0  0  0  0  0  0  0
  161.1920  210.7720  151.9040 O   0  0  0  0  0  0  0  0  0  0  0  0
  162.1980  206.7830  151.0910 C   0  0  2  0  0  0  0  0  0  0  0  0
  161.1960  206.1040  153.3130 C   0  0  0  0  0  2  0  0  0  0  0  0
  162.4100  206.3260  149.6300 C   0  0  1  0  0  3  0  0  0  0  0  0
  160.8670  204.4020  149.2250 C   0  0  0  0  0  2  0  0  0  0  0  0
  163.4520  208.3340  148.7080 O   0  0  0  0  0  0  0  0  0  0  0  0
  160.7640  206.4600  147.8910 C   0  0  0  0  0  0  0  0  0  0  0  0
  161.1890  205.6780  149.0460 C   0  0  0  0  0  0  0  0  0  0  0  0
  161.5130  207.4910  147.6800 N   0  0  0  0  0  0  0  0  0  0  0  0
  162.5280  207.4790  148.6750 C   0  0  0  0  0  0  0  0  0  0  0  0
  159.6710  206.1310  147.0870 O   0  0  0  0  0  0  0  0  0  0  0  0
  159.7770  206.0440  145.6750 C   0  0  0  0  0  1  0  0  0  0  0  0
  163.1850  210.7010  154.3560 O   0  0  0  0  0  0  0  0  0  0  0  0
  162.1660  209.0570  156.1920 C   0  0  0  0  0  1  0  0  0  0  0  0
  161.9560  210.5170  155.1990 S   0  0  0  0  0  0  0  0  0  0  0  0
  161.7930  211.7040  156.1060 O   0  0  0  0  0  0  0  0  0  0  0  0
  158.9270  209.6930  156.0410 C   0  0  0  0  0  2  0  0  0  0  0  0
  156.9840  211.0940  155.4300 C   0  0  0  0  0  1  0  0  0  0  0  0
  158.3860  211.1080  156.0000 C   0  0  0  0  0  2  0  0  0  0  0  0
  1  9  1  0  0  0  0
  2  1  1  0  0  0  0
  2  6  1  0  0  0  0
  3 27  1  1  0  0  0
  5 13  1  0  0  0  0
  6 10  2  0  0  0  0
  8  2  1  0  0  0  0
  9  3  1  0  0  0  0
  9 25  1  1  0  0  0
 10  3  1  0  0  0  0
 10  4  1  0  0  0  0
 11  1  2  0  0  0  0
 12  8  1  0  0  0  0
 12  7  1  1  0  0  0
 12  5  1  0  0  0  0
 13  6  1  0  0  0  0
 14 20  1  6  0  0  0
 14 12  1  0  0  0  0
 17 18  1  0  0  0  0
 18 15  2  0  0  0  0
 18 14  1  0  0  0  0
 19 17  2  0  0  0  0
 19 20  1  0  0  0  0
 20 16  2  0  0  0  0
 21 17  1  0  0  0  0
 22 21  1  0  0  0  0
 23 25  2  0  0  0  0
 25 26  2  0  0  0  0
 25 24  1  0  0  0  0
 28 29  1  0  0  0  0
 29 27  1  0  0  0  0
M  END
>  <MODEL>
8

>  <REMARK>
 VINA RESULT:      -3.0      2.041      3.253
  Name = 
  5 active torsions:
  status: ('A' for Active; 'I' for Inactive)
    1  A    between atoms: C_1  and  C_26
    2  A    between atoms: C_2  and  C_10
    3  A    between atoms: C_2  and  C_22
    4  A    between atoms: C_8  and  O_15
    5  A    between atoms: C_21  and  S_23
                            x       y       z     vdW  Elec       q    Type
                         _______ _______ _______ _____ _____    ______ ____

>  <TORSDO>
F 5

$$$$
=
 OpenBabel11072413593D

 29 31  0  0  1  0  0  0  0  0999 V2000
  159.5170  213.7820  150.6680 C   0  0  0  0  0  0  0  0  0  0  0  0
  160.2960  212.6560  151.1120 N   0  0  0  0  0  0  0  0  0  0  0  0
  160.8930  213.8520  148.6340 C   0  0  1  0  0  3  0  0  0  0  0  0
  162.1260  211.6550  147.9250 C   0  0  0  0  0  1  0  0  0  0  0  0
  161.7470  210.3690  152.0290 C   0  0  0  0  0  2  0  0  0  0  0  0
  161.1290  211.9360  150.1740 C   0  0  0  0  0  0  0  0  0  0  0  0
  159.3740  210.1610  152.3380 O   0  0  0  0  0  1  0  0  0  0  0  0
  160.3450  212.3420  152.5410 C   0  0  0  0  0  2  0  0  0  0  0  0
  159.5020  214.1420  149.2160 C   0  0  1  0  0  3  0  0  0  0  0  0
  161.3710  212.4470  148.9500 C   0  0  0  0  0  0  0  0  0  0  0  0
  158.8300  214.4520  151.4840 O   0  0  0  0  0  0  0  0  0  0  0  0
  160.5100  210.8410  152.7960 C   0  0  2  0  0  0  0  0  0  0  0  0
  161.5780  210.5410  150.5230 C   0  0  0  0  0  2  0  0  0  0  0  0
  160.7110  210.5910  154.3080 C   0  0  1  0  0  3  0  0  0  0  0  0
  160.1410  212.7180  155.4910 C   0  0  0  0  0  2  0  0  0  0  0  0
  160.6270  208.1500  154.3460 O   0  0  0  0  0  0  0  0  0  0  0  0
  158.9650  210.6120  155.9530 C   0  0  0  0  0  0  0  0  0  0  0  0
  159.8390  211.4690  155.1580 C   0  0  0  0  0  0  0  0  0  0  0  0
  159.1460  209.3550  155.7180 N   0  0  0  0  0  0  0  0  0  0  0  0
  160.1820  209.2570  154.7490 C   0  0  0  0  0  0  0  0  0  0  0  0
  158.0370  211.0930  156.8780 O   0  0  0  0  0  0  0  0  0  0  0  0
  156.7040  211.4080  156.5090 C   0  0  0  0  0  1  0  0  0  0  0  0
  158.7490  212.1990  147.4840 O   0  0  0  0  0  0  0  0  0  0  0  0
  157.2520  214.4040  147.3700 C   0  0  0  0  0  1  0  0  0  0  0  0
  158.1760  213.2650  148.3740 S   0  0  0  0  0  0  0  0  0  0  0  0
  157.2480  212.6320  149.3730 O   0  0  0  0  0  0  0  0  0  0  0  0
  161.0220  214.2760  147.1740 C   0  0  0  0  0  2  0  0  0  0  0  0
  162.6620  214.1310  145.3290 C   0  0  0  0  0  1  0  0  0  0  0  0
  162.4820  214.4350  146.8010 C   0  0  0  0  0  2  0  0  0  0  0  0
  1  2  1  0  0  0  0
  1 11  2  0  0  0  0
  2  8  1  0  0  0  0
  3 27  1  6  0  0  0
  3 10  1  0  0  0  0
  3  9  1  0  0  0  0
  4 10  1  0  0  0  0
  5 12  1  0  0  0  0
  6 13  1  0  0  0  0
  6  2  1  0  0  0  0
  8 12  1  0  0  0  0
  9 25  1  6  0  0  0
  9  1  1  0  0  0  0
 10  6  2  0  0  0  0
 12  7  1  6  0  0  0
 12 14  1  0  0  0  0
 13  5  1  0  0  0  0
 14 20  1  6  0  0  0
 14 18  1  0  0  0  0
 16 20  2  0  0  0  0
 17 21  1  0  0  0  0
 18 15  2  0  0  0  0
 18 17  1  0  0  0  0
 19 17  2  0  0  0  0
 20 19  1  0  0  0  0
 22 21  1  0  0  0  0
 23 25  2  0  0  0  0
 24 25  1  0  0  0  0
 25 26  2  0  0  0  0
 28 29  1  0  0  0  0
 29 27  1  0  0  0  0
M  END
>  <MODEL>
9

>  <REMARK>
 VINA RESULT:      -2.6      3.819      7.130
  Name = 
  5 active torsions:
  status: ('A' for Active; 'I' for Inactive)
    1  A    between atoms: C_1  and  C_26
    2  A    between atoms: C_2  and  C_10
    3  A    between atoms: C_2  and  C_22
    4  A    between atoms: C_8  and  O_15
    5  A    between atoms: C_21  and  S_23
                            x       y       z     vdW  Elec       q    Type
                         _______ _______ _______ _____ _____    ______ ____

>  <TORSDO>
F 5

$$$$
