=
 OpenBabel11072414103D

 28 32  0  0  1  0  0  0  0  0999 V2000
  161.7510  204.8240  152.6070 N   0  0  0  0  0  0  0  0  0  0  0  0
  160.7890  208.1670  153.9480 C   0  0  0  0  0  2  0  0  0  0  0  0
  161.1650  204.3870  150.3070 C   0  0  0  0  0  3  0  0  0  0  0  0
  161.5800  207.8270  150.8760 C   0  0  2  0  0  3  0  0  0  0  0  0
  160.3060  205.6160  150.2810 C   0  0  0  0  0  2  0  0  0  0  0  0
  162.1320  208.5410  151.9610 O   0  0  0  0  0  0  0  0  0  0  0  0
  161.2300  206.0140  152.6230 C   0  0  0  0  0  0  0  0  0  0  0  0
  161.3150  206.8030  153.8160 N   0  0  0  0  0  2  0  0  0  0  0  0
  161.7980  204.0150  151.4210 C   0  0  0  0  0  3  0  0  0  0  0  0
  161.0590  209.0500  152.7130 C   0  0  2  0  0  3  0  0  0  0  0  0
  160.7070  206.6380  151.3540 C   0  0  1  0  0  3  0  0  0  0  0  0
  160.6830  211.6690  155.3320 O   0  0  0  0  0  0  0  0  0  0  0  0
  158.2750  212.4270  152.6520 C   0  0  2  0  0  3  0  0  0  0  0  0
  159.7890  212.6020  154.7330 C   0  0  1  0  0  3  0  0  0  0  0  0
  161.3250  210.5130  153.1200 C   0  0  2  0  0  3  0  0  0  0  0  0
  161.4450  210.7300  154.6200 C   0  0  0  0  0  0  0  0  0  0  0  0
  160.4940  211.4520  152.4660 O   0  0  0  0  0  0  0  0  0  0  0  0
  159.0340  213.5550  152.3110 O   0  0  0  0  0  1  0  0  0  0  0  0
  158.6510  211.8660  154.0250 C   0  0  2  0  0  3  0  0  0  0  0  0
  159.1390  211.1690  152.7560 C   0  0  1  0  0  3  0  0  0  0  0  0
  162.2840  210.0450  155.2610 O   0  0  0  0  0  0  0  0  0  0  0  0
  157.8630  213.6680  155.9150 O   0  0  0  0  0  0  0  0  0  0  0  0
  160.0180  214.1510  156.5270 O   0  0  0  0  0  1  0  0  0  0  0  0
  159.2360  213.5100  155.7780 C   0  0  0  0  0  0  0  0  0  0  0  0
  162.7170  207.3950  149.9590 C   0  0  0  0  0  2  0  0  0  0  0  0
  161.3240  207.7860  148.0870 O   0  0  0  0  0  0  0  0  0  0  0  0
  162.5780  208.0470  148.5950 C   0  0  0  0  0  3  0  0  0  0  0  0
  162.3730  207.0790  147.6370 O   0  0  0  0  0  0  0  0  0  0  0  0
  1  7  2  0  0  0  0
  3  9  2  0  0  0  0
  4 25  1  6  0  0  0
  4 11  1  0  0  0  0
  4  6  1  0  0  0  0
  5  3  1  0  0  0  0
  6 10  1  0  0  0  0
  7  8  1  0  0  0  0
  8  2  1  0  0  0  0
  9  1  1  0  0  0  0
 10 15  1  0  0  0  0
 10  2  1  1  0  0  0
 11  5  1  6  0  0  0
 11  7  1  0  0  0  0
 13 18  1  1  0  0  0
 13 20  1  0  0  0  0
 13 19  1  0  0  0  0
 14 12  1  0  0  0  0
 14 24  1  1  0  0  0
 15 17  1  1  0  0  0
 15 16  1  0  0  0  0
 16 21  2  0  0  0  0
 16 12  1  0  0  0  0
 17 20  1  0  0  0  0
 19 14  1  0  0  0  0
 20 19  1  0  0  0  0
 24 22  2  0  0  0  0
 24 23  1  0  0  0  0
 26 27  1  0  0  0  0
 27 25  1  0  0  0  0
 28 26  1  0  0  0  0
 28 27  1  0  0  0  0
M  END
>  <MODEL>
1

>  <REMARK>
 VINA RESULT:      -6.9      0.000      0.000
  Name = 
  4 active torsions:
  status: ('A' for Active; 'I' for Inactive)
    1  A    between atoms: C_4  and  C_12
    2  A    between atoms: C_5  and  C_27
    3  A    between atoms: C_14  and  C_15
    4  A    between atoms: C_14  and  C_16
                            x       y       z     vdW  Elec       q    Type
                         _______ _______ _______ _____ _____    ______ ____

>  <TORSDO>
F 4

$$$$
=
 OpenBabel11072414103D

 28 32  0  0  1  0  0  0  0  0999 V2000
  160.3260  206.5450  145.9660 N   0  0  0  0  0  0  0  0  0  0  0  0
  162.3390  207.8350  148.8280 C   0  0  0  0  0  2  0  0  0  0  0  0
  160.9170  204.3530  145.1480 C   0  0  0  0  0  3  0  0  0  0  0  0
  161.7660  204.7100  148.5370 C   0  0  2  0  0  3  0  0  0  0  0  0
  162.1720  204.3710  145.9710 C   0  0  0  0  0  2  0  0  0  0  0  0
  161.4230  205.6880  149.4940 O   0  0  0  0  0  0  0  0  0  0  0  0
  161.2500  206.5680  146.8800 C   0  0  0  0  0  0  0  0  0  0  0  0
  161.3560  207.7050  147.7460 N   0  0  0  0  0  2  0  0  0  0  0  0
  160.0910  205.4000  145.1320 C   0  0  0  0  0  3  0  0  0  0  0  0
  162.5340  206.5380  149.6380 C   0  0  2  0  0  3  0  0  0  0  0  0
  162.0840  205.3420  147.1570 C   0  0  1  0  0  3  0  0  0  0  0  0
  161.1900  206.4900  153.1090 O   0  0  0  0  0  0  0  0  0  0  0  0
  161.1940  209.9900  151.9700 C   0  0  2  0  0  3  0  0  0  0  0  0
  161.0870  207.8720  153.4380 C   0  0  1  0  0  3  0  0  0  0  0  0
  162.7960  206.8430  151.1260 C   0  0  2  0  0  3  0  0  0  0  0  0
  162.0050  205.9750  152.0900 C   0  0  0  0  0  0  0  0  0  0  0  0
  162.7760  208.2220  151.4420 O   0  0  0  0  0  0  0  0  0  0  0  0
  162.2200  210.2700  152.8820 O   0  0  0  0  0  1  0  0  0  0  0  0
  160.5070  208.6540  152.2580 C   0  0  2  0  0  3  0  0  0  0  0  0
  161.5120  208.7650  151.1120 C   0  0  1  0  0  3  0  0  0  0  0  0
  162.0950  204.7230  151.9840 O   0  0  0  0  0  0  0  0  0  0  0  0
  159.8240  209.3080  155.0470 O   0  0  0  0  0  0  0  0  0  0  0  0
  159.8510  207.0290  155.2890 O   0  0  0  0  0  1  0  0  0  0  0  0
  160.2170  208.0400  154.6360 C   0  0  0  0  0  0  0  0  0  0  0  0
  160.6400  203.6870  148.4740 C   0  0  0  0  0  2  0  0  0  0  0  0
  161.0980  201.3670  148.4140 O   0  0  0  0  0  0  0  0  0  0  0  0
  161.0050  202.4440  149.2660 C   0  0  0  0  0  3  0  0  0  0  0  0
  159.9940  201.5150  149.1630 O   0  0  0  0  0  0  0  0  0  0  0  0
  1  7  2  0  0  0  0
  3  5  1  0  0  0  0
  4 25  1  6  0  0  0
  4  6  1  0  0  0  0
  6 10  1  0  0  0  0
  7 11  1  0  0  0  0
  7  8  1  0  0  0  0
  8  2  1  0  0  0  0
  9  3  2  0  0  0  0
  9  1  1  0  0  0  0
 10  2  1  6  0  0  0
 10 15  1  0  0  0  0
 11  5  1  6  0  0  0
 11  4  1  0  0  0  0
 12 14  1  0  0  0  0
 13 19  1  0  0  0  0
 13 18  1  1  0  0  0
 14 24  1  1  0  0  0
 15 17  1  6  0  0  0
 15 16  1  0  0  0  0
 16 12  1  0  0  0  0
 19 14  1  0  0  0  0
 20 17  1  0  0  0  0
 20 13  1  0  0  0  0
 20 19  1  0  0  0  0
 21 16  2  0  0  0  0
 24 22  2  0  0  0  0
 24 23  1  0  0  0  0
 25 27  1  0  0  0  0
 26 28  1  0  0  0  0
 26 27  1  0  0  0  0
 28 27  1  0  0  0  0
M  END
>  <MODEL>
2

>  <REMARK>
 VINA RESULT:      -6.6      3.365      5.295
  Name = 
  4 active torsions:
  status: ('A' for Active; 'I' for Inactive)
    1  A    between atoms: C_4  and  C_12
    2  A    between atoms: C_5  and  C_27
    3  A    between atoms: C_14  and  C_15
    4  A    between atoms: C_14  and  C_16
                            x       y       z     vdW  Elec       q    Type
                         _______ _______ _______ _____ _____    ______ ____

>  <TORSDO>
F 4

$$$$
=
 OpenBabel11072414103D

 28 32  0  0  1  0  0  0  0  0999 V2000
  159.8130  212.7340  154.9770 N   0  0  0  0  0  0  0  0  0  0  0  0
  160.6800  210.7530  151.9400 C   0  0  0  0  0  2  0  0  0  0  0  0
  158.7960  211.5130  156.7940 C   0  0  0  0  0  3  0  0  0  0  0  0
  160.8160  209.4140  154.8320 C   0  0  2  0  0  3  0  0  0  0  0  0
  158.6030  210.3230  155.9010 C   0  0  0  0  0  2  0  0  0  0  0  0
  161.7710  209.6940  153.8320 O   0  0  0  0  0  0  0  0  0  0  0  0
  159.9040  211.7000  154.1950 C   0  0  0  0  0  0  0  0  0  0  0  0
  160.4980  211.8480  152.8990 N   0  0  0  0  0  2  0  0  0  0  0  0
  159.3270  212.6440  156.3250 C   0  0  0  0  0  3  0  0  0  0  0  0
  161.1600  209.4400  152.5910 C   0  0  2  0  0  3  0  0  0  0  0  0
  159.5650  210.3220  154.7050 C   0  0  1  0  0  3  0  0  0  0  0  0
  161.7590  208.0780  149.1790 O   0  0  0  0  0  0  0  0  0  0  0  0
  160.9800  205.2370  151.3860 C   0  0  2  0  0  3  0  0  0  0  0  0
  161.7540  206.6700  149.3850 C   0  0  1  0  0  3  0  0  0  0  0  0
  162.1200  208.6730  151.6600 C   0  0  2  0  0  3  0  0  0  0  0  0
  161.9760  209.0280  150.1890 C   0  0  0  0  0  0  0  0  0  0  0  0
  162.1800  207.2830  151.9150 O   0  0  0  0  0  0  0  0  0  0  0  0
  162.3080  204.8040  151.2710 O   0  0  0  0  0  1  0  0  0  0  0  0
  160.6130  206.2770  150.3250 C   0  0  2  0  0  3  0  0  0  0  0  0
  160.8930  206.7170  151.7600 C   0  0  1  0  0  3  0  0  0  0  0  0
  162.0740  210.2370  149.8500 O   0  0  0  0  0  0  0  0  0  0  0  0
  161.6300  204.5830  148.0150 O   0  0  0  0  0  1  0  0  0  0  0  0
  161.4600  206.6430  147.0230 O   0  0  0  0  0  0  0  0  0  0  0  0
  161.6000  205.9710  148.0770 C   0  0  0  0  0  0  0  0  0  0  0  0
  161.4950  209.5310  156.1900 C   0  0  0  0  0  2  0  0  0  0  0  0
  163.4190  210.4060  157.2530 O   0  0  0  0  0  0  0  0  0  0  0  0
  162.6300  210.5380  156.1320 C   0  0  0  0  0  3  0  0  0  0  0  0
  162.5310  211.4110  157.1930 O   0  0  0  0  0  0  0  0  0  0  0  0
  1  9  1  0  0  0  0
  2  8  1  0  0  0  0
  4 25  1  1  0  0  0
  5  3  1  0  0  0  0
  6  4  1  0  0  0  0
  7 11  1  0  0  0  0
  7  1  2  0  0  0  0
  8  7  1  0  0  0  0
  9  3  2  0  0  0  0
 10  2  1  6  0  0  0
 10  6  1  0  0  0  0
 11  4  1  0  0  0  0
 11  5  1  1  0  0  0
 12 14  1  0  0  0  0
 12 16  1  0  0  0  0
 13 18  1  6  0  0  0
 13 20  1  0  0  0  0
 14 24  1  6  0  0  0
 14 19  1  0  0  0  0
 15 16  1  6  0  0  0
 15 17  1  0  0  0  0
 15 10  1  0  0  0  0
 19 13  1  0  0  0  0
 19 20  1  0  0  0  0
 20 17  1  0  0  0  0
 21 16  2  0  0  0  0
 22 24  1  0  0  0  0
 23 24  2  0  0  0  0
 27 25  1  0  0  0  0
 27 28  1  0  0  0  0
 27 26  1  0  0  0  0
 28 26  1  0  0  0  0
M  END
>  <MODEL>
3

>  <REMARK>
 VINA RESULT:      -6.5      2.653      7.604
  Name = 
  4 active torsions:
  status: ('A' for Active; 'I' for Inactive)
    1  A    between atoms: C_4  and  C_12
    2  A    between atoms: C_5  and  C_27
    3  A    between atoms: C_14  and  C_15
    4  A    between atoms: C_14  and  C_16
                            x       y       z     vdW  Elec       q    Type
                         _______ _______ _______ _____ _____    ______ ____

>  <TORSDO>
F 4

$$$$
=
 OpenBabel11072414103D

 28 32  0  0  1  0  0  0  0  0999 V2000
  160.8260  211.9400  153.5620 N   0  0  0  0  0  0  0  0  0  0  0  0
  161.5260  209.5540  150.7830 C   0  0  0  0  0  2  0  0  0  0  0  0
  159.1360  211.2660  155.1470 C   0  0  0  0  0  3  0  0  0  0  0  0
  160.6580  208.4740  153.6570 C   0  0  2  0  0  3  0  0  0  0  0  0
  158.7230  210.1400  154.2450 C   0  0  0  0  0  2  0  0  0  0  0  0
  161.8210  208.3460  152.8680 O   0  0  0  0  0  0  0  0  0  0  0  0
  160.7080  210.8760  152.8250 C   0  0  0  0  0  0  0  0  0  0  0  0
  161.5490  210.7190  151.6740 N   0  0  0  0  0  2  0  0  0  0  0  0
  160.0950  212.1190  154.7840 C   0  0  0  0  0  3  0  0  0  0  0  0
  161.4050  208.2110  151.5320 C   0  0  2  0  0  3  0  0  0  0  0  0
  159.8340  209.7300  153.2690 C   0  0  1  0  0  3  0  0  0  0  0  0
  161.5260  205.7740  148.7210 O   0  0  0  0  0  0  0  0  0  0  0  0
  160.8550  203.8780  151.8040 C   0  0  2  0  0  3  0  0  0  0  0  0
  161.4680  204.5130  149.3800 C   0  0  1  0  0  3  0  0  0  0  0  0
  162.2050  207.1020  150.8220 C   0  0  2  0  0  3  0  0  0  0  0  0
  161.9110  206.9750  149.3360 C   0  0  0  0  0  0  0  0  0  0  0  0
  162.2190  205.8690  151.5150 O   0  0  0  0  0  0  0  0  0  0  0  0
  162.1350  203.3140  151.7170 O   0  0  0  0  0  1  0  0  0  0  0  0
  160.4240  204.5490  150.4980 C   0  0  2  0  0  3  0  0  0  0  0  0
  160.8930  205.4020  151.6750 C   0  0  1  0  0  3  0  0  0  0  0  0
  162.0340  207.9960  148.6090 O   0  0  0  0  0  0  0  0  0  0  0  0
  161.4600  203.5920  147.0570 O   0  0  0  0  0  0  0  0  0  0  0  0
  160.5100  202.4180  148.7810 O   0  0  0  0  0  1  0  0  0  0  0  0
  161.1240  203.4470  148.3970 C   0  0  0  0  0  0  0  0  0  0  0  0
  161.0710  208.4670  155.1230 C   0  0  0  0  0  2  0  0  0  0  0  0
  159.2820  207.2140  156.0310 O   0  0  0  0  0  0  0  0  0  0  0  0
  160.6380  207.1750  155.7910 C   0  0  0  0  0  3  0  0  0  0  0  0
  160.1330  207.4470  157.0430 O   0  0  0  0  0  0  0  0  0  0  0  0
  1  9  1  0  0  0  0
  2  8  1  0  0  0  0
  4 25  1  1  0  0  0
  5  3  1  0  0  0  0
  6  4  1  0  0  0  0
  7 11  1  0  0  0  0
  7  1  2  0  0  0  0
  8  7  1  0  0  0  0
  9  3  2  0  0  0  0
 10  2  1  6  0  0  0
 10  6  1  0  0  0  0
 11  4  1  0  0  0  0
 11  5  1  1  0  0  0
 12 16  1  0  0  0  0
 12 14  1  0  0  0  0
 13 18  1  6  0  0  0
 14 24  1  6  0  0  0
 14 19  1  0  0  0  0
 15 16  1  6  0  0  0
 15 17  1  0  0  0  0
 15 10  1  0  0  0  0
 17 20  1  0  0  0  0
 19 20  1  0  0  0  0
 19 13  1  0  0  0  0
 20 13  1  0  0  0  0
 21 16  2  0  0  0  0
 22 24  2  0  0  0  0
 24 23  1  0  0  0  0
 25 27  1  0  0  0  0
 26 28  1  0  0  0  0
 27 26  1  0  0  0  0
 27 28  1  0  0  0  0
M  END
>  <MODEL>
4

>  <REMARK>
 VINA RESULT:      -6.2      3.014      7.901
  Name = 
  4 active torsions:
  status: ('A' for Active; 'I' for Inactive)
    1  A    between atoms: C_4  and  C_12
    2  A    between atoms: C_5  and  C_27
    3  A    between atoms: C_14  and  C_15
    4  A    between atoms: C_14  and  C_16
                            x       y       z     vdW  Elec       q    Type
                         _______ _______ _______ _____ _____    ______ ____

>  <TORSDO>
F 4

$$$$
=
 OpenBabel11072414103D

 28 32  0  0  1  0  0  0  0  0999 V2000
  157.9850  210.9140  155.5280 N   0  0  0  0  0  0  0  0  0  0  0  0
  161.2440  209.5940  154.2870 C   0  0  0  0  0  2  0  0  0  0  0  0
  157.5340  213.2410  155.0750 C   0  0  0  0  0  3  0  0  0  0  0  0
  159.7130  211.8850  152.6790 C   0  0  2  0  0  3  0  0  0  0  0  0
  158.9560  213.4450  154.6430 C   0  0  0  0  0  2  0  0  0  0  0  0
  160.0790  210.5540  152.3860 O   0  0  0  0  0  0  0  0  0  0  0  0
  159.1570  210.9240  154.9650 C   0  0  0  0  0  0  0  0  0  0  0  0
  159.9240  209.7140  154.9160 N   0  0  0  0  0  2  0  0  0  0  0  0
  157.1150  212.0570  155.5240 C   0  0  0  0  0  3  0  0  0  0  0  0
  161.3530  210.3410  152.9410 C   0  0  2  0  0  3  0  0  0  0  0  0
  159.6310  212.1380  154.2070 C   0  0  1  0  0  3  0  0  0  0  0  0
  161.7170  208.9140  149.5230 O   0  0  0  0  0  0  0  0  0  0  0  0
  161.2060  206.1060  151.8480 C   0  0  2  0  0  3  0  0  0  0  0  0
  161.7720  207.5110  149.7600 C   0  0  1  0  0  3  0  0  0  0  0  0
  162.2570  209.5800  151.9530 C   0  0  2  0  0  3  0  0  0  0  0  0
  161.9860  209.8940  150.4910 C   0  0  0  0  0  0  0  0  0  0  0  0
  162.3810  208.1980  152.2330 O   0  0  0  0  0  0  0  0  0  0  0  0
  162.5330  205.7090  151.6360 O   0  0  0  0  0  1  0  0  0  0  0  0
  160.7230  207.1080  150.7970 C   0  0  2  0  0  3  0  0  0  0  0  0
  161.1030  207.5920  152.1950 C   0  0  1  0  0  3  0  0  0  0  0  0
  162.0180  211.0960  150.1180 O   0  0  0  0  0  0  0  0  0  0  0  0
  160.4560  205.9100  148.3630 O   0  0  0  0  0  1  0  0  0  0  0  0
  162.3280  206.9280  147.5190 O   0  0  0  0  0  0  0  0  0  0  0  0
  161.5350  206.7760  148.4850 C   0  0  0  0  0  0  0  0  0  0  0  0
  158.4070  212.1930  151.9580 C   0  0  0  0  0  2  0  0  0  0  0  0
  157.5590  214.2230  151.0890 O   0  0  0  0  0  0  0  0  0  0  0  0
  158.5990  213.3280  150.9690 C   0  0  0  0  0  3  0  0  0  0  0  0
  157.5540  213.3450  150.0730 O   0  0  0  0  0  0  0  0  0  0  0  0
  2  8  1  0  0  0  0
  3  9  2  0  0  0  0
  4 25  1  6  0  0  0
  4 11  1  0  0  0  0
  5  3  1  0  0  0  0
  6  4  1  0  0  0  0
  6 10  1  0  0  0  0
  7  1  2  0  0  0  0
  8  7  1  0  0  0  0
  9  1  1  0  0  0  0
 10  2  1  1  0  0  0
 11  5  1  6  0  0  0
 11  7  1  0  0  0  0
 12 14  1  0  0  0  0
 12 16  1  0  0  0  0
 13 18  1  6  0  0  0
 13 20  1  0  0  0  0
 14 24  1  6  0  0  0
 14 19  1  0  0  0  0
 15 16  1  6  0  0  0
 15 17  1  0  0  0  0
 15 10  1  0  0  0  0
 19 13  1  0  0  0  0
 19 20  1  0  0  0  0
 20 17  1  0  0  0  0
 21 16  2  0  0  0  0
 22 24  1  0  0  0  0
 23 24  2  0  0  0  0
 27 26  1  0  0  0  0
 27 25  1  0  0  0  0
 28 27  1  0  0  0  0
 28 26  1  0  0  0  0
M  END
>  <MODEL>
5

>  <REMARK>
 VINA RESULT:      -6.2      2.367      7.103
  Name = 
  4 active torsions:
  status: ('A' for Active; 'I' for Inactive)
    1  A    between atoms: C_4  and  C_12
    2  A    between atoms: C_5  and  C_27
    3  A    between atoms: C_14  and  C_15
    4  A    between atoms: C_14  and  C_16
                            x       y       z     vdW  Elec       q    Type
                         _______ _______ _______ _____ _____    ______ ____

>  <TORSDO>
F 4

$$$$
=
 OpenBabel11072414103D

 28 32  0  0  1  0  0  0  0  0999 V2000
  161.6910  204.1450  147.7000 N   0  0  0  0  0  0  0  0  0  0  0  0
  161.2030  204.8340  151.3320 C   0  0  0  0  0  2  0  0  0  0  0  0
  160.8140  205.7950  146.1730 C   0  0  0  0  0  3  0  0  0  0  0  0
  161.6110  207.2370  149.2740 C   0  0  2  0  0  3  0  0  0  0  0  0
  160.0770  206.4600  147.2980 C   0  0  0  0  0  2  0  0  0  0  0  0
  162.3450  206.7510  150.3770 O   0  0  0  0  0  0  0  0  0  0  0  0
  161.2900  204.7670  148.7680 C   0  0  0  0  0  0  0  0  0  0  0  0
  161.5810  204.2130  150.0580 N   0  0  0  0  0  2  0  0  0  0  0  0
  161.5300  204.6880  146.3810 C   0  0  0  0  0  3  0  0  0  0  0  0
  161.4150  206.3610  151.3570 C   0  0  2  0  0  3  0  0  0  0  0  0
  160.6890  206.1470  148.6700 C   0  0  1  0  0  3  0  0  0  0  0  0
  160.3950  207.1550  154.8480 O   0  0  0  0  0  0  0  0  0  0  0  0
  160.9920  210.3470  153.1140 C   0  0  2  0  0  3  0  0  0  0  0  0
  160.5960  208.5620  154.9340 C   0  0  1  0  0  3  0  0  0  0  0  0
  161.8610  206.8400  152.7520 C   0  0  2  0  0  3  0  0  0  0  0  0
  161.0000  206.3230  153.8930 C   0  0  0  0  0  0  0  0  0  0  0  0
  162.1410  208.2250  152.8220 O   0  0  0  0  0  0  0  0  0  0  0  0
  162.1290  210.5480  153.9090 O   0  0  0  0  0  1  0  0  0  0  0  0
  160.0820  209.2480  153.6670 C   0  0  2  0  0  3  0  0  0  0  0  0
  160.9850  208.9600  152.4690 C   0  0  1  0  0  3  0  0  0  0  0  0
  160.8310  205.0800  154.0030 O   0  0  0  0  0  0  0  0  0  0  0  0
  159.0150  210.1760  156.0020 O   0  0  0  0  0  0  0  0  0  0  0  0
  160.0850  208.5860  157.2590 O   0  0  0  0  0  1  0  0  0  0  0  0
  159.8840  209.0990  156.1280 C   0  0  0  0  0  0  0  0  0  0  0  0
  162.5930  207.8090  148.2610 C   0  0  0  0  0  2  0  0  0  0  0  0
  161.9560  209.7180  149.5040 O   0  0  0  0  0  0  0  0  0  0  0  0
  162.7740  209.3010  148.4770 C   0  0  0  0  0  3  0  0  0  0  0  0
  161.5850  209.9530  148.2340 O   0  0  0  0  0  0  0  0  0  0  0  0
  1  7  2  0  0  0  0
  3  9  2  0  0  0  0
  3  5  1  0  0  0  0
  4 25  1  6  0  0  0
  4  6  1  0  0  0  0
  6 10  1  0  0  0  0
  7  8  1  0  0  0  0
  8  2  1  0  0  0  0
  9  1  1  0  0  0  0
 10  2  1  1  0  0  0
 10 15  1  0  0  0  0
 11  5  1  6  0  0  0
 11  7  1  0  0  0  0
 11  4  1  0  0  0  0
 12 14  1  0  0  0  0
 13 19  1  0  0  0  0
 13 18  1  1  0  0  0
 14 24  1  1  0  0  0
 15 17  1  6  0  0  0
 15 16  1  0  0  0  0
 16 21  2  0  0  0  0
 16 12  1  0  0  0  0
 19 14  1  0  0  0  0
 20 17  1  0  0  0  0
 20 13  1  0  0  0  0
 20 19  1  0  0  0  0
 22 24  2  0  0  0  0
 24 23  1  0  0  0  0
 25 27  1  0  0  0  0
 27 26  1  0  0  0  0
 28 27  1  0  0  0  0
 28 26  1  0  0  0  0
M  END
>  <MODEL>
6

>  <REMARK>
 VINA RESULT:      -5.6      2.497      3.822
  Name = 
  4 active torsions:
  status: ('A' for Active; 'I' for Inactive)
    1  A    between atoms: C_4  and  C_12
    2  A    between atoms: C_5  and  C_27
    3  A    between atoms: C_14  and  C_15
    4  A    between atoms: C_14  and  C_16
                            x       y       z     vdW  Elec       q    Type
                         _______ _______ _______ _____ _____    ______ ____

>  <TORSDO>
F 4

$$$$
=
 OpenBabel11072414103D

 28 32  0  0  1  0  0  0  0  0999 V2000
  162.3450  209.6620  150.2620 N   0  0  0  0  0  0  0  0  0  0  0  0
  161.9110  207.1890  147.5060 C   0  0  0  0  0  2  0  0  0  0  0  0
  161.1660  209.1920  152.3140 C   0  0  0  0  0  3  0  0  0  0  0  0
  161.8650  206.2370  150.5510 C   0  0  2  0  0  3  0  0  0  0  0  0
  160.3840  208.1100  151.6300 C   0  0  0  0  0  2  0  0  0  0  0  0
  162.7090  205.9760  149.4510 O   0  0  0  0  0  0  0  0  0  0  0  0
  161.8990  208.6110  149.6420 C   0  0  0  0  0  0  0  0  0  0  0  0
  162.3240  208.3530  148.2980 N   0  0  0  0  0  2  0  0  0  0  0  0
  162.0490  209.9320  151.6410 C   0  0  0  0  0  3  0  0  0  0  0  0
  161.8900  205.8750  148.3120 C   0  0  2  0  0  3  0  0  0  0  0  0
  161.0930  207.5720  150.3800 C   0  0  1  0  0  3  0  0  0  0  0  0
  160.9910  203.5810  145.5220 O   0  0  0  0  0  0  0  0  0  0  0  0
  160.6540  201.6910  148.6630 C   0  0  2  0  0  3  0  0  0  0  0  0
  160.8500  202.3210  146.1690 C   0  0  1  0  0  3  0  0  0  0  0  0
  162.3170  204.6780  147.4390 C   0  0  2  0  0  3  0  0  0  0  0  0
  161.7010  204.6700  146.0500 C   0  0  0  0  0  0  0  0  0  0  0  0
  162.2570  203.4310  148.1050 O   0  0  0  0  0  0  0  0  0  0  0  0
  161.7680  200.9210  148.3010 O   0  0  0  0  0  1  0  0  0  0  0  0
  160.0850  202.4830  147.4840 C   0  0  2  0  0  3  0  0  0  0  0  0
  160.9330  203.1900  148.5400 C   0  0  1  0  0  3  0  0  0  0  0  0
  161.8480  205.6860  145.3210 O   0  0  0  0  0  0  0  0  0  0  0  0
  160.4570  200.0250  145.2630 O   0  0  0  0  0  1  0  0  0  0  0  0
  159.2230  201.8030  144.5100 O   0  0  0  0  0  0  0  0  0  0  0  0
  160.1260  201.3740  145.2730 C   0  0  0  0  0  0  0  0  0  0  0  0
  162.7060  206.1980  151.8200 C   0  0  0  0  0  2  0  0  0  0  0  0
  160.9630  204.7220  152.4340 O   0  0  0  0  0  0  0  0  0  0  0  0
  162.2720  205.0490  152.7110 C   0  0  0  0  0  3  0  0  0  0  0  0
  161.2380  205.4570  153.5240 O   0  0  0  0  0  0  0  0  0  0  0  0
  1  9  1  0  0  0  0
  2  8  1  0  0  0  0
  4 25  1  1  0  0  0
  5  3  1  0  0  0  0
  6  4  1  0  0  0  0
  7  1  2  0  0  0  0
  7 11  1  0  0  0  0
  8  7  1  0  0  0  0
  9  3  2  0  0  0  0
 10  2  1  6  0  0  0
 10  6  1  0  0  0  0
 11  4  1  0  0  0  0
 11  5  1  1  0  0  0
 12 16  1  0  0  0  0
 12 14  1  0  0  0  0
 13 18  1  6  0  0  0
 14 24  1  6  0  0  0
 14 19  1  0  0  0  0
 15 16  1  6  0  0  0
 15 17  1  0  0  0  0
 15 10  1  0  0  0  0
 17 20  1  0  0  0  0
 19 20  1  0  0  0  0
 19 13  1  0  0  0  0
 20 13  1  0  0  0  0
 21 16  2  0  0  0  0
 22 24  1  0  0  0  0
 23 24  2  0  0  0  0
 25 27  1  0  0  0  0
 26 27  1  0  0  0  0
 26 28  1  0  0  0  0
 27 28  1  0  0  0  0
M  END
>  <MODEL>
7

>  <REMARK>
 VINA RESULT:      -5.3      4.444      9.379
  Name = 
  4 active torsions:
  status: ('A' for Active; 'I' for Inactive)
    1  A    between atoms: C_4  and  C_12
    2  A    between atoms: C_5  and  C_27
    3  A    between atoms: C_14  and  C_15
    4  A    between atoms: C_14  and  C_16
                            x       y       z     vdW  Elec       q    Type
                         _______ _______ _______ _____ _____    ______ ____

>  <TORSDO>
F 4

$$$$
=
 OpenBabel11072414103D

 28 32  0  0  1  0  0  0  0  0999 V2000
  159.0180  208.8530  155.7560 N   0  0  0  0  0  0  0  0  0  0  0  0
  161.6510  206.9030  153.9760 C   0  0  0  0  0  2  0  0  0  0  0  0
  159.3110  211.2470  155.8030 C   0  0  0  0  0  3  0  0  0  0  0  0
  160.8730  209.8360  152.9920 C   0  0  2  0  0  3  0  0  0  0  0  0
  160.7100  211.0980  155.2830 C   0  0  0  0  0  2  0  0  0  0  0  0
  160.7890  208.5510  152.4160 O   0  0  0  0  0  0  0  0  0  0  0  0
  160.1140  208.6260  155.0950 C   0  0  0  0  0  0  0  0  0  0  0  0
  160.4570  207.2800  154.7410 N   0  0  0  0  0  2  0  0  0  0  0  0
  158.5540  210.1780  156.0550 C   0  0  0  0  0  3  0  0  0  0  0  0
  161.9470  207.8490  152.7950 C   0  0  2  0  0  3  0  0  0  0  0  0
  160.9230  209.7710  154.5410 C   0  0  1  0  0  3  0  0  0  0  0  0
  161.7190  207.1210  149.1510 O   0  0  0  0  0  0  0  0  0  0  0  0
  160.4560  204.1700  150.9530 C   0  0  2  0  0  3  0  0  0  0  0  0
  161.3470  205.7470  149.1170 C   0  0  1  0  0  3  0  0  0  0  0  0
  162.5330  207.0780  151.5960 C   0  0  2  0  0  3  0  0  0  0  0  0
  162.3150  207.7550  150.2530 C   0  0  0  0  0  0  0  0  0  0  0  0
  162.2340  205.6950  151.6000 O   0  0  0  0  0  0  0  0  0  0  0  0
  161.5860  203.4520  150.5390 O   0  0  0  0  0  1  0  0  0  0  0  0
  160.2660  205.4660  150.1610 C   0  0  2  0  0  3  0  0  0  0  0  0
  160.8310  205.5140  151.5790 C   0  0  1  0  0  3  0  0  0  0  0  0
  162.7030  208.9440  150.1090 O   0  0  0  0  0  0  0  0  0  0  0  0
  161.2070  204.1940  147.1640 O   0  0  0  0  0  1  0  0  0  0  0  0
  160.1040  206.2030  147.1380 O   0  0  0  0  0  0  0  0  0  0  0  0
  160.8450  205.3960  147.7570 C   0  0  0  0  0  0  0  0  0  0  0  0
  159.7090  210.6700  152.4730 C   0  0  0  0  0  2  0  0  0  0  0  0
  159.7040  213.0340  152.5380 O   0  0  0  0  0  0  0  0  0  0  0  0
  160.2130  211.9570  151.8470 C   0  0  0  0  0  3  0  0  0  0  0  0
  159.1490  212.6870  151.3650 O   0  0  0  0  0  0  0  0  0  0  0  0
  1  9  1  0  0  0  0
  2  8  1  0  0  0  0
  3  9  2  0  0  0  0
  4 25  1  1  0  0  0
  4 11  1  0  0  0  0
  5  3  1  0  0  0  0
  6 10  1  0  0  0  0
  6  4  1  0  0  0  0
  7  1  2  0  0  0  0
  8  7  1  0  0  0  0
 10  2  1  1  0  0  0
 11  7  1  0  0  0  0
 11  5  1  1  0  0  0
 12 16  1  0  0  0  0
 13 18  1  6  0  0  0
 13 20  1  0  0  0  0
 14 24  1  6  0  0  0
 14 12  1  0  0  0  0
 14 19  1  0  0  0  0
 15 16  1  6  0  0  0
 15 17  1  0  0  0  0
 15 10  1  0  0  0  0
 19 13  1  0  0  0  0
 19 20  1  0  0  0  0
 20 17  1  0  0  0  0
 21 16  2  0  0  0  0
 22 24  1  0  0  0  0
 23 24  2  0  0  0  0
 27 25  1  0  0  0  0
 27 26  1  0  0  0  0
 28 27  1  0  0  0  0
 28 26  1  0  0  0  0
M  END
>  <MODEL>
8

>  <REMARK>
 VINA RESULT:      -5.3      2.003      7.192
  Name = 
  4 active torsions:
  status: ('A' for Active; 'I' for Inactive)
    1  A    between atoms: C_4  and  C_12
    2  A    between atoms: C_5  and  C_27
    3  A    between atoms: C_14  and  C_15
    4  A    between atoms: C_14  and  C_16
                            x       y       z     vdW  Elec       q    Type
                         _______ _______ _______ _____ _____    ______ ____

>  <TORSDO>
F 4

$$$$
=
 OpenBabel11072414103D

 28 32  0  0  1  0  0  0  0  0999 V2000
  161.7740  204.3950  152.0090 N   0  0  0  0  0  0  0  0  0  0  0  0
  161.2110  207.9930  152.8110 C   0  0  0  0  0  2  0  0  0  0  0  0
  160.8410  203.6060  149.9280 C   0  0  0  0  0  3  0  0  0  0  0  0
  161.5340  207.0450  149.7810 C   0  0  2  0  0  3  0  0  0  0  0  0
  160.0610  204.8790  149.7820 C   0  0  0  0  0  2  0  0  0  0  0  0
  162.2760  207.8920  150.6320 O   0  0  0  0  0  0  0  0  0  0  0  0
  161.3310  205.6090  151.8690 C   0  0  0  0  0  0  0  0  0  0  0  0
  161.6320  206.5880  152.8710 N   0  0  0  0  0  2  0  0  0  0  0  0
  161.6040  203.3870  151.0010 C   0  0  0  0  0  3  0  0  0  0  0  0
  161.3530  208.6160  151.4070 C   0  0  2  0  0  3  0  0  0  0  0  0
  160.6700  206.0380  150.5830 C   0  0  1  0  0  3  0  0  0  0  0  0
  160.2790  212.1630  151.0580 O   0  0  0  0  0  0  0  0  0  0  0  0
  162.3630  211.3430  148.1360 C   0  0  2  0  0  3  0  0  0  0  0  0
  161.0250  212.6200  149.9350 C   0  0  1  0  0  3  0  0  0  0  0  0
  161.7600  210.1000  151.4940 C   0  0  2  0  0  3  0  0  0  0  0  0
  160.6150  211.0410  151.8320 C   0  0  0  0  0  0  0  0  0  0  0  0
  162.5700  210.5380  150.4200 O   0  0  0  0  0  0  0  0  0  0  0  0
  163.3610  212.1940  148.6290 O   0  0  0  0  0  1  0  0  0  0  0  0
  161.0160  211.5630  148.8290 C   0  0  2  0  0  3  0  0  0  0  0  0
  161.8770  210.3570  149.2000 C   0  0  1  0  0  3  0  0  0  0  0  0
  159.9390  210.8170  152.8700 O   0  0  0  0  0  0  0  0  0  0  0  0
  159.3290  214.4530  150.0480 O   0  0  0  0  0  1  0  0  0  0  0  0
  160.9410  214.4530  148.4170 O   0  0  0  0  0  0  0  0  0  0  0  0
  160.4380  213.8930  149.4260 C   0  0  0  0  0  0  0  0  0  0  0  0
  162.5010  206.3630  148.8230 C   0  0  0  0  0  2  0  0  0  0  0  0
  161.0790  206.4490  146.9340 O   0  0  0  0  0  0  0  0  0  0  0  0
  162.3000  206.8760  147.4080 C   0  0  0  0  0  3  0  0  0  0  0  0
  162.1940  205.8130  146.5400 O   0  0  0  0  0  0  0  0  0  0  0  0
  2  8  1  0  0  0  0
  3  9  2  0  0  0  0
  4 25  1  6  0  0  0
  4 11  1  0  0  0  0
  4  6  1  0  0  0  0
  5  3  1  0  0  0  0
  6 10  1  0  0  0  0
  7  1  2  0  0  0  0
  7  8  1  0  0  0  0
  9  1  1  0  0  0  0
 10 15  1  0  0  0  0
 10  2  1  1  0  0  0
 11  5  1  6  0  0  0
 11  7  1  0  0  0  0
 12 16  1  0  0  0  0
 13 18  1  1  0  0  0
 13 19  1  0  0  0  0
 13 20  1  0  0  0  0
 14 24  1  6  0  0  0
 14 12  1  0  0  0  0
 15 17  1  6  0  0  0
 15 16  1  0  0  0  0
 16 21  2  0  0  0  0
 19 20  1  0  0  0  0
 19 14  1  0  0  0  0
 20 17  1  0  0  0  0
 23 24  2  0  0  0  0
 24 22  1  0  0  0  0
 26 27  1  0  0  0  0
 27 25  1  0  0  0  0
 28 26  1  0  0  0  0
 28 27  1  0  0  0  0
M  END
>  <MODEL>
9

>  <REMARK>
 VINA RESULT:      -5.2      2.383      3.645
  Name = 
  4 active torsions:
  status: ('A' for Active; 'I' for Inactive)
    1  A    between atoms: C_4  and  C_12
    2  A    between atoms: C_5  and  C_27
    3  A    between atoms: C_14  and  C_15
    4  A    between atoms: C_14  and  C_16
                            x       y       z     vdW  Elec       q    Type
                         _______ _______ _______ _____ _____    ______ ____

>  <TORSDO>
F 4

$$$$
