=
 OpenBabel11072414053D

 62 66  0  0  1  0  0  0  0  0999 V2000
  161.1720  206.7400  151.8900 O   0  0  0  0  0  0  0  0  0  0  0  0
  160.2450  207.7270  147.7710 C   0  0  1  0  0  3  0  0  0  0  0  0
  161.7880  205.6080  146.6970 C   0  0  0  0  0  2  0  0  0  0  0  0
  162.6270  212.6710  147.0670 O   0  0  0  0  0  0  0  0  0  0  0  0
  163.2990  207.5190  151.0730 C   0  0  0  0  0  2  0  0  0  0  0  0
  160.3480  212.5660  156.0710 O   0  0  0  0  0  1  0  0  0  0  0  0
  160.0890  214.4520  143.9060 O   0  0  0  0  0  1  0  0  0  0  0  0
  160.2250  210.0210  144.6530 C   0  0  1  0  0  3  0  0  0  0  0  0
  160.5380  214.2040  146.1810 C   0  0  0  0  0  2  0  0  0  0  0  0
  163.4650  206.9450  149.6910 C   0  0  0  0  0  3  0  0  0  0  0  0
  160.0080  213.4900  144.9120 C   0  0  2  0  0  0  0  0  0  0  0  0
  160.6400  206.6630  153.1880 C   0  0  0  0  0  2  0  0  0  0  0  0
  162.5460  206.9990  148.7190 C   0  0  0  0  0  0  0  0  0  0  0  0
  160.7740  207.9900  153.9260 C   0  0  0  0  0  2  0  0  0  0  0  0
  160.8000  212.2940  144.5250 N   0  0  0  0  0  0  0  0  0  0  0  0
  159.1820  206.2330  146.1740 F   0  0  0  0  0  0  0  0  0  0  0  0
  162.9270  206.3500  147.4080 C   0  0  0  0  0  2  0  0  0  0  0  0
  158.8290  211.6520  152.0460 C   0  0  0  0  0  0  0  0  0  0  0  0
  158.7380  206.0070  148.3510 F   0  0  0  0  0  0  0  0  0  0  0  0
  158.1270  211.7490  151.0040 O   0  0  0  0  0  0  0  0  0  0  0  0
  159.9430  209.0700  153.2590 C   0  0  0  0  0  2  0  0  0  0  0  0
  160.7880  210.3310  153.0670 C   0  0  1  0  0  3  0  0  0  0  0  0
  161.5590  214.2750  148.8440 O   0  0  0  0  0  0  0  0  0  0  0  0
  160.4750  210.4140  150.6300 C   0  0  0  0  0  1  0  0  0  0  0  0
  158.7140  211.7460  154.5600 C   0  0  0  0  0  2  0  0  0  0  0  0
  158.2470  212.0650  153.2550 O   0  0  0  0  0  0  0  0  0  0  0  0
  160.2920  211.2270  151.9070 C   0  0  1  0  0  0  0  0  0  0  0  0
  161.1870  212.4690  151.7850 C   0  0  0  0  0  2  0  0  0  0  0  0
  159.7390  206.2960  147.4460 C   0  0  0  0  0  0  0  0  0  0  0  0
  162.5570  206.5790  152.0270 C   0  0  2  0  0  3  0  0  0  0  0  0
  162.4180  211.4680  154.4170 O   0  0  0  0  0  1  0  0  0  0  0  0
  159.6900  209.0170  145.6680 C   0  0  0  0  0  2  0  0  0  0  0  0
  160.7980  211.1600  145.3600 N   0  0  0  0  0  2  0  0  0  0  0  0
  160.7440  205.3060  147.5870 O   0  0  0  0  0  0  0  0  0  0  0  0
  160.7640  213.3100  150.7530 O   0  0  0  0  0  0  0  0  0  0  0  0
  161.0930  211.0260  154.4050 C   0  0  1  0  0  3  0  0  0  0  0  0
  160.1540  212.1800  154.7450 C   0  0  2  0  0  3  0  0  0  0  0  0
  161.2000  209.4120  143.8590 O   0  0  0  0  0  1  0  0  0  0  0  0
  160.2880  211.9580  148.0150 O   0  0  0  0  0  1  0  0  0  0  0  0
  161.3000  213.2270  147.5320 P   0  0  2  0  0  0  0  0  0  0  0  0
  161.2400  207.7430  148.9400 C   0  0  0  0  0  2  0  0  0  0  0  0
  161.8810  213.4570  149.9290 C   0  0  0  0  0  2  0  0  0  0  0  0
  160.7990  208.5130  146.5830 C   0  0  0  0  0  2  0  0  0  0  0  0
  162.5160  212.0190  140.0610 C   0  0  0  0  0  2  0  0  0  0  0  0
  161.5660  211.7130  142.2980 C   0  0  0  0  0  3  0  0  0  0  0  0
  162.5330  212.2480  141.3660 C   0  0  0  0  0  0  0  0  0  0  0  0
  161.7670  212.3420  143.4530 C   0  0  0  0  0  0  0  0  0  0  0  0
  163.9100  213.1390  144.1710 O   0  0  0  0  0  1  0  0  0  0  0  0
  162.8300  213.4080  143.3310 C   0  0  1  0  0  3  0  0  0  0  0  0
  163.2720  213.3070  141.9490 N   0  0  0  0  0  2  0  0  0  0  0  0
  156.5160  213.6220  146.1880 C   0  0  0  0  0  0  0  0  0  0  0  0
  156.0080  214.4530  147.1870 O   0  0  0  0  0  1  0  0  0  0  0  0
  157.2480  212.4360  146.7840 C   0  0  2  0  0  3  0  0  0  0  0  0
  158.2970  212.0690  145.9240 O   0  0  0  0  0  0  0  0  0  0  0  0
  157.5950  214.3090  145.4230 C   0  0  0  0  0  2  0  0  0  0  0  0
  158.5100  213.1600  145.0510 C   0  0  1  0  0  3  0  0  0  0  0  0
  155.4930  213.2300  145.3160 O   0  0  0  0  0  1  0  0  0  0  0  0
  156.3580  211.2650  147.0670 C   0  0  0  0  0  3  0  0  0  0  0  0
  155.9370  211.0440  148.2560 N   0  0  0  0  0  2  0  0  0  0  0  0
  161.9470  204.0610  151.5520 C   0  0  0  0  0  1  0  0  0  0  0  0
  162.9620  205.0960  151.8000 N   0  0  0  0  0  2  0  0  0  0  0  0
  163.1580  204.3740  151.6890 O   0  0  0  0  0  0  0  0  0  0  0  0
  1 30  1  0  0  0  0
  1 12  1  0  0  0  0
  2 43  1  6  0  0  0
  2 41  1  0  0  0  0
  3 17  1  0  0  0  0
  3 34  1  0  0  0  0
  5 30  1  0  0  0  0
  8 38  1  1  0  0  0
  8 33  1  0  0  0  0
  8 32  1  0  0  0  0
  9 40  1  0  0  0  0
 10  5  1  0  0  0  0
 11  7  1  6  0  0  0
 11 56  1  0  0  0  0
 11  9  1  0  0  0  0
 12 14  1  0  0  0  0
 13 41  1  0  0  0  0
 13 10  2  0  0  0  0
 15 11  1  0  0  0  0
 15 33  1  0  0  0  0
 16 29  1  0  0  0  0
 17 13  1  0  0  0  0
 18 26  1  0  0  0  0
 20 18  2  0  0  0  0
 21 14  1  0  0  0  0
 22 21  1  1  0  0  0
 22 36  1  0  0  0  0
 23 42  1  0  0  0  0
 25 37  1  0  0  0  0
 26 25  1  0  0  0  0
 27 24  1  6  0  0  0
 27 18  1  0  0  0  0
 27 22  1  0  0  0  0
 28 27  1  0  0  0  0
 29 34  1  0  0  0  0
 29  2  1  0  0  0  0
 29 19  1  0  0  0  0
 30 61  1  6  0  0  0
 32 43  1  0  0  0  0
 35 28  1  0  0  0  0
 36 31  1  6  0  0  0
 36 37  1  0  0  0  0
 37  6  1  1  0  0  0
 40  4  2  6  0  0  0
 40 39  1  0  0  0  0
 40 23  1  0  0  0  0
 42 35  1  0  0  0  0
 44 46  2  0  0  0  0
 45 47  2  0  0  0  0
 46 50  1  0  0  0  0
 46 45  1  0  0  0  0
 47 15  1  0  0  0  0
 49 47  1  0  0  0  0
 49 48  1  1  0  0  0
 50 49  1  0  0  0  0
 51 53  1  0  0  0  0
 51 52  1  0  0  0  0
 53 58  1  6  0  0  0
 54 53  1  0  0  0  0
 55 51  1  0  0  0  0
 56 55  1  1  0  0  0
 56 54  1  0  0  0  0
 57 51  1  0  0  0  0
 58 59  2  0  0  0  0
 60 62  1  0  0  0  0
 62 61  1  0  0  0  0
M  END
>  <MODEL>
1

>  <REMARK>
 VINA RESULT:      45.4      0.000      0.000
  Name = 
  4 active torsions:
  status: ('A' for Active; 'I' for Inactive)
    1  A    between atoms: C_14  and  C_15
    2  A    between atoms: C_19  and  C_44
    3  A    between atoms: N_23  and  C_24
    4  A    between atoms: N_38  and  C_48
                            x       y       z     vdW  Elec       q    Type
                         _______ _______ _______ _____ _____    ______ ____

>  <TORSDO>
F 4

$$$$
=
 OpenBabel11072414053D

 62 66  0  0  1  0  0  0  0  0999 V2000
  161.7080  205.7820  152.2410 O   0  0  0  0  0  0  0  0  0  0  0  0
  160.4130  207.2760  148.3820 C   0  0  1  0  0  3  0  0  0  0  0  0
  161.9540  205.4100  146.9100 C   0  0  0  0  0  2  0  0  0  0  0  0
  162.5190  212.3900  148.2120 O   0  0  0  0  0  0  0  0  0  0  0  0
  163.7280  206.7780  151.3890 C   0  0  0  0  0  2  0  0  0  0  0  0
  160.9740  210.9250  157.2530 O   0  0  0  0  0  1  0  0  0  0  0  0
  159.6620  214.4510  145.5290 O   0  0  0  0  0  1  0  0  0  0  0  0
  160.0470  209.9740  145.6290 C   0  0  1  0  0  3  0  0  0  0  0  0
  160.3020  213.9170  147.7070 C   0  0  0  0  0  2  0  0  0  0  0  0
  163.8070  206.4100  149.9310 C   0  0  0  0  0  3  0  0  0  0  0  0
  159.7040  213.3570  146.3920 C   0  0  2  0  0  0  0  0  0  0  0  0
  161.2850  205.4990  153.5500 C   0  0  0  0  0  2  0  0  0  0  0  0
  162.8110  206.5480  149.0470 C   0  0  0  0  0  0  0  0  0  0  0  0
  161.4210  206.7170  154.4570 C   0  0  0  0  0  2  0  0  0  0  0  0
  160.5120  212.2700  145.7830 N   0  0  0  0  0  0  0  0  0  0  0  0
  159.2910  205.9620  146.6730 F   0  0  0  0  0  0  0  0  0  0  0  0
  163.1140  206.1070  147.6320 C   0  0  0  0  0  2  0  0  0  0  0  0
  159.1780  210.4940  153.2610 C   0  0  0  0  0  0  0  0  0  0  0  0
  159.0320  205.4140  148.8220 F   0  0  0  0  0  0  0  0  0  0  0  0
  158.3910  210.6960  152.2980 O   0  0  0  0  0  0  0  0  0  0  0  0
  160.4940  207.8330  154.0130 C   0  0  0  0  0  2  0  0  0  0  0  0
  161.2670  209.1510  153.9390 C   0  0  1  0  0  3  0  0  0  0  0  0
  161.5290  213.6750  150.2710 O   0  0  0  0  0  0  0  0  0  0  0  0
  160.7570  209.5520  151.5680 C   0  0  0  0  0  1  0  0  0  0  0  0
  159.2610  210.2340  155.7650 C   0  0  0  0  0  2  0  0  0  0  0  0
  158.6780  210.7050  154.5560 O   0  0  0  0  0  0  0  0  0  0  0  0
  160.6420  210.1700  152.9570 C   0  0  1  0  0  0  0  0  0  0  0  0
  161.4700  211.4630  152.9470 C   0  0  0  0  0  2  0  0  0  0  0  0
  159.9450  205.8780  147.8960 C   0  0  0  0  0  0  0  0  0  0  0  0
  163.1050  205.6780  152.2520 C   0  0  2  0  0  3  0  0  0  0  0  0
  162.9500  210.1770  155.3130 O   0  0  0  0  0  1  0  0  0  0  0  0
  159.6380  208.8120  146.5290 C   0  0  0  0  0  2  0  0  0  0  0  0
  160.6250  211.0330  146.4470 N   0  0  0  0  0  2  0  0  0  0  0  0
  160.9990  204.9340  147.8210 O   0  0  0  0  0  0  0  0  0  0  0  0
  160.9310  212.4150  152.0770 O   0  0  0  0  0  0  0  0  0  0  0  0
  161.6480  209.6700  155.3360 C   0  0  1  0  0  3  0  0  0  0  0  0
  160.6910  210.7150  155.9040 C   0  0  2  0  0  3  0  0  0  0  0  0
  160.9800  209.5330  144.6890 O   0  0  0  0  0  1  0  0  0  0  0  0
  160.2960  211.4290  149.2180 O   0  0  0  0  0  1  0  0  0  0  0  0
  161.2110  212.8050  148.8470 P   0  0  2  0  0  0  0  0  0  0  0  0
  161.4970  207.1840  149.4650 C   0  0  0  0  0  2  0  0  0  0  0  0
  161.9720  212.7330  151.2030 C   0  0  0  0  0  2  0  0  0  0  0  0
  160.8360  208.2460  147.2800 C   0  0  0  0  0  2  0  0  0  0  0  0
  161.9740  212.4090  141.2230 C   0  0  0  0  0  2  0  0  0  0  0  0
  161.2330  211.8860  143.4990 C   0  0  0  0  0  3  0  0  0  0  0  0
  162.0290  212.6090  142.5320 C   0  0  0  0  0  0  0  0  0  0  0  0
  161.3870  212.5160  144.6600 C   0  0  0  0  0  0  0  0  0  0  0  0
  163.3910  213.6750  145.2820 O   0  0  0  0  0  1  0  0  0  0  0  0
  162.2310  213.7610  144.5140 C   0  0  1  0  0  3  0  0  0  0  0  0
  162.5990  213.7720  143.1070 N   0  0  0  0  0  2  0  0  0  0  0  0
  155.9890  213.4710  146.2200 C   0  0  0  0  0  0  0  0  0  0  0  0
  155.1980  214.4450  145.6100 O   0  0  0  0  0  1  0  0  0  0  0  0
  156.4660  213.9300  147.5840 C   0  0  2  0  0  3  0  0  0  0  0  0
  157.7310  213.3740  147.8360 O   0  0  0  0  0  0  0  0  0  0  0  0
  157.2700  213.2900  145.4810 C   0  0  0  0  0  2  0  0  0  0  0  0
  158.2360  212.9310  146.5920 C   0  0  1  0  0  3  0  0  0  0  0  0
  155.3000  212.2540  146.2820 O   0  0  0  0  0  1  0  0  0  0  0  0
  155.5120  213.6030  148.6920 C   0  0  0  0  0  3  0  0  0  0  0  0
  154.6180  214.4490  149.0480 N   0  0  0  0  0  2  0  0  0  0  0  0
  162.6440  203.1110  151.8770 C   0  0  0  0  0  1  0  0  0  0  0  0
  163.5530  204.2640  151.7880 N   0  0  0  0  0  2  0  0  0  0  0  0
  163.7710  203.5750  151.5630 O   0  0  0  0  0  0  0  0  0  0  0  0
  1 30  1  0  0  0  0
  1 12  1  0  0  0  0
  2 43  1  6  0  0  0
  2 41  1  0  0  0  0
  3 17  1  0  0  0  0
  3 34  1  0  0  0  0
  5 30  1  0  0  0  0
  8 38  1  6  0  0  0
  8 33  1  0  0  0  0
  8 32  1  0  0  0  0
  9 40  1  0  0  0  0
 10  5  1  0  0  0  0
 11  7  1  6  0  0  0
 11 56  1  0  0  0  0
 11  9  1  0  0  0  0
 12 14  1  0  0  0  0
 13 41  1  0  0  0  0
 13 10  2  0  0  0  0
 15 11  1  0  0  0  0
 15 33  1  0  0  0  0
 16 29  1  0  0  0  0
 17 13  1  0  0  0  0
 18 26  1  0  0  0  0
 20 18  2  0  0  0  0
 21 14  1  0  0  0  0
 22 21  1  1  0  0  0
 22 36  1  0  0  0  0
 23 42  1  0  0  0  0
 25 37  1  0  0  0  0
 26 25  1  0  0  0  0
 27 24  1  6  0  0  0
 27 18  1  0  0  0  0
 27 22  1  0  0  0  0
 28 27  1  0  0  0  0
 29  2  1  0  0  0  0
 29 19  1  0  0  0  0
 30 61  1  6  0  0  0
 32 43  1  0  0  0  0
 34 29  1  0  0  0  0
 35 28  1  0  0  0  0
 36 31  1  6  0  0  0
 36 37  1  0  0  0  0
 37  6  1  1  0  0  0
 40  4  2  6  0  0  0
 40 39  1  0  0  0  0
 40 23  1  0  0  0  0
 42 35  1  0  0  0  0
 44 46  2  0  0  0  0
 45 47  2  0  0  0  0
 46 50  1  0  0  0  0
 46 45  1  0  0  0  0
 47 15  1  0  0  0  0
 49 47  1  0  0  0  0
 49 48  1  1  0  0  0
 50 49  1  0  0  0  0
 51 57  1  0  0  0  0
 51 53  1  0  0  0  0
 52 51  1  0  0  0  0
 53 54  1  0  0  0  0
 53 58  1  1  0  0  0
 55 51  1  0  0  0  0
 56 55  1  6  0  0  0
 56 54  1  0  0  0  0
 58 59  2  0  0  0  0
 62 61  1  0  0  0  0
 62 60  1  0  0  0  0
M  END
>  <MODEL>
2

>  <REMARK>
 VINA RESULT:      45.5      1.347      1.465
  Name = 
  4 active torsions:
  status: ('A' for Active; 'I' for Inactive)
    1  A    between atoms: C_14  and  C_15
    2  A    between atoms: C_19  and  C_44
    3  A    between atoms: N_23  and  C_24
    4  A    between atoms: N_38  and  C_48
                            x       y       z     vdW  Elec       q    Type
                         _______ _______ _______ _____ _____    ______ ____

>  <TORSDO>
F 4

$$$$
=
 OpenBabel11072414053D

 62 66  0  0  1  0  0  0  0  0999 V2000
  161.2470  203.6380  148.8590 O   0  0  0  0  0  0  0  0  0  0  0  0
  159.9560  206.7200  146.0950 C   0  0  1  0  0  3  0  0  0  0  0  0
  160.8230  205.3120  143.7950 C   0  0  0  0  0  2  0  0  0  0  0  0
  163.2270  211.0080  147.3320 O   0  0  0  0  0  0  0  0  0  0  0  0
  163.3480  204.4860  148.0400 C   0  0  0  0  0  2  0  0  0  0  0  0
  162.3450  206.4880  155.3990 O   0  0  0  0  0  1  0  0  0  0  0  0
  160.6970  214.4420  146.1450 O   0  0  0  0  0  1  0  0  0  0  0  0
  159.9740  210.2870  144.5910 C   0  0  1  0  0  3  0  0  0  0  0  0
  161.4150  212.9990  147.8310 C   0  0  0  0  0  2  0  0  0  0  0  0
  163.1770  204.7000  146.5600 C   0  0  0  0  0  3  0  0  0  0  0  0
  160.5590  213.1130  146.5440 C   0  0  2  0  0  0  0  0  0  0  0  0
  160.9110  202.9570  150.0400 C   0  0  0  0  0  2  0  0  0  0  0  0
  162.1580  205.3540  145.9890 C   0  0  0  0  0  0  0  0  0  0  0  0
  161.4400  203.6820  151.2730 C   0  0  0  0  0  2  0  0  0  0  0  0
  161.0050  212.2140  145.4480 N   0  0  0  0  0  0  0  0  0  0  0  0
  158.3680  206.4030  144.2820 F   0  0  0  0  0  0  0  0  0  0  0  0
  162.1890  205.4450  144.4800 C   0  0  0  0  0  2  0  0  0  0  0  0
  160.0820  207.9770  151.9340 C   0  0  0  0  0  0  0  0  0  0  0  0
  158.2140  205.1290  146.1090 F   0  0  0  0  0  0  0  0  0  0  0  0
  159.2710  208.6790  151.2720 O   0  0  0  0  0  0  0  0  0  0  0  0
  160.7740  205.0360  151.4350 C   0  0  0  0  0  2  0  0  0  0  0  0
  161.8350  206.1090  151.6830 C   0  0  1  0  0  3  0  0  0  0  0  0
  162.8110  211.5610  149.8600 O   0  0  0  0  0  0  0  0  0  0  0  0
  161.1890  207.4820  149.7480 C   0  0  0  0  0  1  0  0  0  0  0  0
  160.3650  206.7610  154.1210 C   0  0  0  0  0  2  0  0  0  0  0  0
  159.7900  207.7620  153.2900 O   0  0  0  0  0  0  0  0  0  0  0  0
  161.3800  207.5260  151.2600 C   0  0  1  0  0  0  0  0  0  0  0  0
  162.4950  208.5420  151.5470 C   0  0  0  0  0  2  0  0  0  0  0  0
  159.1080  205.7330  145.2480 C   0  0  0  0  0  0  0  0  0  0  0  0
  162.5690  203.2770  148.5640 C   0  0  2  0  0  3  0  0  0  0  0  0
  163.8560  206.1890  152.9800 O   0  0  0  0  0  1  0  0  0  0  0  0
  159.3900  208.9680  145.0850 C   0  0  0  0  0  2  0  0  0  0  0  0
  160.8800  210.8190  145.6010 N   0  0  0  0  0  2  0  0  0  0  0  0
  159.8830  204.7100  144.6460 O   0  0  0  0  0  0  0  0  0  0  0  0
  162.1180  209.8380  151.1870 O   0  0  0  0  0  0  0  0  0  0  0  0
  162.4800  205.9680  153.0730 C   0  0  1  0  0  3  0  0  0  0  0  0
  161.8770  206.8730  154.1430 C   0  0  2  0  0  3  0  0  0  0  0  0
  160.6630  210.0760  143.3940 O   0  0  0  0  0  1  0  0  0  0  0  0
  160.9570  210.1700  148.3430 O   0  0  0  0  0  1  0  0  0  0  0  0
  162.1380  211.3840  148.3110 P   0  0  2  0  0  0  0  0  0  0  0  0
  161.0930  206.0140  146.8470 C   0  0  0  0  0  2  0  0  0  0  0  0
  163.1050  210.2670  150.2990 C   0  0  0  0  0  2  0  0  0  0  0  0
  160.4850  207.9410  145.3450 C   0  0  0  0  0  2  0  0  0  0  0  0
  161.9430  213.9540  141.0850 C   0  0  0  0  0  2  0  0  0  0  0  0
  161.3230  212.6930  143.0920 C   0  0  0  0  0  3  0  0  0  0  0  0
  162.1970  213.5510  142.3220 C   0  0  0  0  0  0  0  0  0  0  0  0
  161.7880  212.7050  144.3390 C   0  0  0  0  0  0  0  0  0  0  0  0
  164.1070  212.9690  144.8850 O   0  0  0  0  0  1  0  0  0  0  0  0
  162.9560  213.6510  144.4910 C   0  0  1  0  0  3  0  0  0  0  0  0
  163.1570  214.1800  143.1520 N   0  0  0  0  0  2  0  0  0  0  0  0
  156.8750  213.5980  146.3610 C   0  0  0  0  0  0  0  0  0  0  0  0
  156.1730  214.4520  145.5100 O   0  0  0  0  0  1  0  0  0  0  0  0
  157.4460  214.3540  147.5450 C   0  0  2  0  0  3  0  0  0  0  0  0
  158.6520  213.7470  147.9340 O   0  0  0  0  0  0  0  0  0  0  0  0
  158.1030  213.0770  145.6960 C   0  0  0  0  0  2  0  0  0  0  0  0
  159.0620  212.9280  146.8590 C   0  0  1  0  0  3  0  0  0  0  0  0
  156.0610  212.5300  146.7570 O   0  0  0  0  0  1  0  0  0  0  0  0
  156.5020  214.4530  148.7030 C   0  0  0  0  0  3  0  0  0  0  0  0
  156.5980  213.6400  149.6880 N   0  0  0  0  0  2  0  0  0  0  0  0
  161.7910  200.8870  147.7740 C   0  0  0  0  0  1  0  0  0  0  0  0
  162.6030  202.0940  147.5570 N   0  0  0  0  0  2  0  0  0  0  0  0
  162.6180  201.5180  147.0670 O   0  0  0  0  0  0  0  0  0  0  0  0
  1 12  1  0  0  0  0
  2 43  1  6  0  0  0
  2 41  1  0  0  0  0
  3 17  1  0  0  0  0
  3 34  1  0  0  0  0
  5 30  1  0  0  0  0
  8 38  1  6  0  0  0
  8 32  1  0  0  0  0
  8 33  1  0  0  0  0
  9 40  1  0  0  0  0
 10  5  1  0  0  0  0
 11  7  1  6  0  0  0
 11 56  1  0  0  0  0
 11  9  1  0  0  0  0
 12 14  1  0  0  0  0
 13 10  2  0  0  0  0
 13 41  1  0  0  0  0
 14 21  1  0  0  0  0
 15 33  1  0  0  0  0
 15 11  1  0  0  0  0
 16 29  1  0  0  0  0
 17 13  1  0  0  0  0
 18 26  1  0  0  0  0
 20 18  2  0  0  0  0
 22 21  1  1  0  0  0
 22 36  1  0  0  0  0
 23 42  1  0  0  0  0
 25 37  1  0  0  0  0
 26 25  1  0  0  0  0
 27 24  1  6  0  0  0
 27 28  1  0  0  0  0
 27 22  1  0  0  0  0
 27 18  1  0  0  0  0
 29  2  1  0  0  0  0
 29 19  1  0  0  0  0
 30 61  1  6  0  0  0
 30  1  1  0  0  0  0
 32 43  1  0  0  0  0
 34 29  1  0  0  0  0
 35 28  1  0  0  0  0
 36 31  1  6  0  0  0
 36 37  1  0  0  0  0
 37  6  1  1  0  0  0
 40  4  2  6  0  0  0
 40 39  1  0  0  0  0
 40 23  1  0  0  0  0
 42 35  1  0  0  0  0
 44 46  2  0  0  0  0
 45 47  2  0  0  0  0
 46 45  1  0  0  0  0
 46 50  1  0  0  0  0
 47 49  1  0  0  0  0
 47 15  1  0  0  0  0
 49 48  1  6  0  0  0
 50 49  1  0  0  0  0
 51 57  1  0  0  0  0
 51 53  1  0  0  0  0
 52 51  1  0  0  0  0
 53 54  1  0  0  0  0
 53 58  1  1  0  0  0
 55 51  1  0  0  0  0
 56 55  1  6  0  0  0
 56 54  1  0  0  0  0
 58 59  2  0  0  0  0
 62 61  1  0  0  0  0
 62 60  1  0  0  0  0
M  END
>  <MODEL>
3

>  <REMARK>
 VINA RESULT:      48.2      2.401      3.336
  Name = 
  4 active torsions:
  status: ('A' for Active; 'I' for Inactive)
    1  A    between atoms: C_14  and  C_15
    2  A    between atoms: C_19  and  C_44
    3  A    between atoms: N_23  and  C_24
    4  A    between atoms: N_38  and  C_48
                            x       y       z     vdW  Elec       q    Type
                         _______ _______ _______ _____ _____    ______ ____

>  <TORSDO>
F 4

$$$$
