=
 OpenBabel11072411483D

 53 59  0  0  1  0  0  0  0  0999 V2000
  159.7250  211.8800  150.0210 O   0  0  0  0  0  0  0  0  0  0  0  0
  158.1390  213.1790  155.9990 O   0  0  0  0  0  1  0  0  0  0  0  0
  159.3920  211.2400  152.3820 C   0  0  2  0  0  3  0  0  0  0  0  0
  162.3820  209.8220  151.5510 C   0  0  2  0  0  3  0  0  0  0  0  0
  162.2360  209.6320  153.0610 C   0  0  2  0  0  0  0  0  0  0  0  0
  160.3460  211.3960  151.1790 C   0  0  1  0  0  3  0  0  0  0  0  0
  160.8410  209.0250  155.0850 C   0  0  0  0  0  1  0  0  0  0  0  0
  159.9530  214.4520  150.4320 O   0  0  0  0  0  1  0  0  0  0  0  0
  156.1750  212.5980  148.0340 O   0  0  0  0  0  0  0  0  0  0  0  0
  160.5830  209.3120  150.0810 O   0  0  0  0  0  0  0  0  0  0  0  0
  162.1940  213.2010  149.9820 O   0  0  0  0  0  0  0  0  0  0  0  0
  159.7480  211.7020  154.9920 C   0  0  2  0  0  3  0  0  0  0  0  0
  160.5410  213.3200  149.6210 P   0  0  1  0  0  0  0  0  0  0  0  0
  161.0560  210.1040  150.8820 C   0  0  0  0  0  0  0  0  0  0  0  0
  157.6920  212.4340  153.8140 C   0  0  0  0  0  2  0  0  0  0  0  0
  162.5530  208.4250  152.1940 C   0  0  1  0  0  3  0  0  0  0  0  0
  155.7950  214.4510  149.4800 C   0  0  0  0  0  2  0  0  0  0  0  0
  157.9070  214.1590  148.1440 N   0  0  0  0  0  2  0  0  0  0  0  0
  158.2980  212.3290  152.4240 C   0  0  2  0  0  3  0  0  0  0  0  0
  160.2800  211.1350  153.6510 C   0  0  1  0  0  3  0  0  0  0  0  0
  158.8540  213.3220  147.4340 C   0  0  0  0  0  2  0  0  0  0  0  0
  160.8530  209.7050  153.7220 C   0  0  1  0  0  3  0  0  0  0  0  0
  158.7600  212.8560  154.7910 C   0  0  1  0  0  3  0  0  0  0  0  0
  156.6120  213.6840  148.5000 C   0  0  0  0  0  0  0  0  0  0  0  0
  163.3270  210.1090  153.7870 O   0  0  0  0  0  1  0  0  0  0  0  0
  156.3680  214.2970  150.8830 C   0  0  0  0  0  2  0  0  0  0  0  0
  156.0070  212.9430  151.4710 C   0  0  0  0  0  2  0  0  0  0  0  0
  157.1880  211.9710  151.4290 C   0  0  0  0  0  2  0  0  0  0  0  0
  160.2810  213.6870  147.8350 C   0  0  2  0  0  3  0  0  0  0  0  0
  160.9660  212.1690  155.8000 C   0  0  2  0  0  3  0  0  0  0  0  0
  161.2610  211.1910  156.8770 C   0  0  2  0  0  3  0  0  0  0  0  0
  160.6300  212.4190  157.1480 O   0  0  0  0  0  0  0  0  0  0  0  0
  163.4000  209.9470  156.9960 C   0  0  0  0  0  1  0  0  0  0  0  0
  162.7240  211.2810  157.2580 C   0  0  0  0  0  2  0  0  0  0  0  0
  162.3530  213.9970  146.7040 O   0  0  0  0  0  1  0  0  0  0  0  0
  161.3130  213.0740  146.8580 C   0  0  1  0  0  0  0  0  0  0  0  0
  161.9210  211.8120  147.4550 C   0  0  0  0  0  1  0  0  0  0  0  0
  160.6470  211.4110  145.2240 F   0  0  0  0  0  0  0  0  0  0  0  0
  160.6940  212.7730  145.4740 C   0  0  2  0  0  3  0  0  0  0  0  0
  161.6710  212.4670  143.2250 C   0  0  2  0  0  3  0  0  0  0  0  0
  161.4390  213.4710  144.3390 C   0  0  2  0  0  3  0  0  0  0  0  0
  162.8110  212.8460  144.1500 C   0  0  0  0  0  2  0  0  0  0  0  0
  163.0350  213.6500  141.5870 F   0  0  0  0  0  0  0  0  0  0  0  0
  161.7690  213.1630  141.8630 C   0  0  1  0  0  3  0  0  0  0  0  0
  161.3590  212.2470  140.8110 N   0  0  0  0  0  2  0  0  0  0  0  0
  162.5540  211.8620  140.0790 C   0  0  0  0  0  1  0  0  0  0  0  0
  161.4300  207.6100  152.0130 O   0  0  0  0  0  0  0  0  0  0  0  0
  161.9510  206.3150  151.8730 C   0  0  0  0  0  2  0  0  0  0  0  0
  160.5380  206.1150  148.5820 O   0  0  0  0  0  1  0  0  0  0  0  0
  160.4170  206.0860  149.9330 N   0  0  0  0  0  0  0  0  0  0  0  0
  160.6830  204.7190  150.4600 C   0  0  2  0  0  3  0  0  0  0  0  0
  161.7380  205.7270  150.4690 C   0  0  2  0  0  3  0  0  0  0  0  0
  160.9760  203.6770  149.3860 C   0  0  0  0  0  1  0  0  0  0  0  0
  1  6  1  0  0  0  0
  3 19  1  0  0  0  0
  3 20  1  0  0  0  0
  4 16  1  0  0  0  0
  4  5  1  0  0  0  0
  5 22  1  0  0  0  0
  5 25  1  0  0  0  0
  6  3  1  0  0  0  0
  9 24  2  0  0  0  0
 10 14  2  0  0  0  0
 12 30  1  0  0  0  0
 13 11  2  0  0  0  0
 13  1  1  0  0  0  0
 13  8  1  0  0  0  0
 14  6  1  0  0  0  0
 14  4  1  0  0  0  0
 15 23  1  0  0  0  0
 16  5  1  0  0  0  0
 17 26  1  0  0  0  0
 18 24  1  0  0  0  0
 19 15  1  0  0  0  0
 20 22  1  0  0  0  0
 20 12  1  0  0  0  0
 21 29  1  0  0  0  0
 21 18  1  0  0  0  0
 22  7  1  0  0  0  0
 23 12  1  0  0  0  0
 23  2  1  0  0  0  0
 24 17  1  0  0  0  0
 26 27  1  0  0  0  0
 28 27  1  0  0  0  0
 28 19  1  0  0  0  0
 29 13  1  0  0  0  0
 30 31  1  0  0  0  0
 30 32  1  0  0  0  0
 31 32  1  0  0  0  0
 31 34  1  0  0  0  0
 33 34  1  0  0  0  0
 35 36  1  0  0  0  0
 36 37  1  0  0  0  0
 36 29  1  0  0  0  0
 38 39  1  0  0  0  0
 39 36  1  0  0  0  0
 40 42  1  0  0  0  0
 40 41  1  0  0  0  0
 41 39  1  0  0  0  0
 42 41  1  0  0  0  0
 43 44  1  0  0  0  0
 44 40  1  0  0  0  0
 45 44  1  0  0  0  0
 46 45  1  0  0  0  0
 47 16  1  0  0  0  0
 48 47  1  0  0  0  0
 49 50  1  0  0  0  0
 50 51  1  0  0  0  0
 50 52  1  0  0  0  0
 51 52  1  0  0  0  0
 52 48  1  0  0  0  0
 53 51  1  0  0  0  0
M  END
>  <MODEL>
1

>  <REMARK>
 VINA RESULT:       3.7      0.000      0.000
  Name = 
  10 active torsions:
  status: ('A' for Active; 'I' for Inactive)
    1  A    between atoms: C_1  and  C_41
    2  A    between atoms: C_9  and  C_48
    3  A    between atoms: C_17  and  C_25
    4  A    between atoms: N_19  and  C_41
    5  A    between atoms: C_21  and  C_26
    6  A    between atoms: C_23  and  O_35
    7  A    between atoms: C_26  and  O_35
    8  A    between atoms: C_34  and  C_47
    9  A    between atoms: C_38  and  C_48
   10  A    between atoms: C_38  and  C_51
                            x       y       z     vdW  Elec       q    Type
                         _______ _______ _______ _____ _____    ______ ____

>  <TORSDO>
F 10

$$$$
