=
 OpenBabel11072411223D

 42 47  0  0  1  0  0  0  0  0999 V2000
  161.0820  208.1590  152.5830 C   0  0  0  0  0  0  0  0  0  0  0  0
  160.1520  208.7940  152.0170 O   0  0  0  0  0  0  0  0  0  0  0  0
  159.1400  207.2830  154.7490 F   0  0  0  0  0  0  0  0  0  0  0  0
  160.4070  207.6400  157.2610 C   0  0  0  0  0  2  0  0  0  0  0  0
  160.3860  209.1580  157.0520 C   0  0  0  0  0  2  0  0  0  0  0  0
  161.0570  206.8090  156.1500 C   0  0  0  0  0  2  0  0  0  0  0  0
  160.5130  207.0880  154.7480 C   0  0  2  0  0  3  0  0  0  0  0  0
  161.2640  208.2420  154.0660 C   0  0  2  0  0  3  0  0  0  0  0  0
  160.9520  209.6200  154.6820 C   0  0  1  0  0  3  0  0  0  0  0  0
  161.4710  209.6690  156.1210 C   0  0  0  0  0  2  0  0  0  0  0  0
  161.5420  210.7830  153.8610 C   0  0  0  0  0  2  0  0  0  0  0  0
  155.9700  213.8610  153.7860 C   0  0  0  0  0  0  0  0  0  0  0  0
  158.8870  213.3510  150.8810 O   0  0  0  0  0  0  0  0  0  0  0  0
  160.5140  211.8480  153.6240 C   0  0  0  0  0  0  0  0  0  0  0  0
  159.1120  213.0650  152.0840 C   0  0  0  0  0  0  0  0  0  0  0  0
  156.8700  213.7600  152.8520 N   0  0  0  0  0  0  0  0  0  0  0  0
  156.3430  213.7000  155.1550 N   0  0  0  0  0  2  0  0  0  0  0  0
  160.2000  212.1860  152.4080 N   0  0  0  0  0  0  0  0  0  0  0  0
  157.6310  213.1620  155.4720 C   0  0  0  0  0  3  0  0  0  0  0  0
  158.2960  213.6980  153.1750 C   0  0  1  0  0  3  0  0  0  0  0  0
  154.5390  214.0110  153.4180 C   0  0  0  0  0  1  0  0  0  0  0  0
  158.5470  213.0540  154.5130 C   0  0  0  0  0  0  0  0  0  0  0  0
  159.7420  212.3140  154.7360 N   0  0  0  0  0  2  0  0  0  0  0  0
  161.8900  207.2930  151.8530 O   0  0  0  0  0  0  0  0  0  0  0  0
  161.4650  206.7150  150.6230 C   0  0  2  0  0  3  0  0  0  0  0  0
  160.9260  203.0790  149.5870 N   0  0  0  0  0  0  0  0  0  0  0  0
  161.0330  204.6180  151.9630 C   0  0  0  0  0  2  0  0  0  0  0  0
  161.6340  205.1860  150.6660 C   0  0  1  0  0  3  0  0  0  0  0  0
  161.1380  202.2360  148.4520 C   0  0  0  0  0  0  0  0  0  0  0  0
  160.9670  204.5340  149.4430 C   0  0  0  0  0  2  0  0  0  0  0  0
  160.6530  201.0670  148.4370 O   0  0  0  0  0  0  0  0  0  0  0  0
  160.4030  202.5150  150.8300 C   0  0  0  0  0  2  0  0  0  0  0  0
  161.1670  203.1040  151.9990 C   0  0  0  0  0  2  0  0  0  0  0  0
  161.9070  202.6970  147.3780 O   0  0  0  0  0  0  0  0  0  0  0  0
  162.8970  204.8740  146.0600 C   0  0  0  0  0  1  0  0  0  0  0  0
  161.3870  202.7840  146.0480 C   0  0  1  0  0  3  0  0  0  0  0  0
  160.8080  204.6580  144.5180 C   0  0  2  0  0  3  0  0  0  0  0  0
  160.5760  204.0600  145.8970 C   0  0  2  0  0  3  0  0  0  0  0  0
  161.9530  203.9630  145.2650 C   0  0  2  0  0  0  0  0  0  0  0  0
  160.8410  206.1760  144.6140 C   0  0  0  0  0  1  0  0  0  0  0  0
  161.5950  208.3920  148.9070 O   0  0  0  0  0  1  0  0  0  0  0  0
  162.2870  207.3290  149.4980 C   0  0  0  0  0  2  0  0  0  0  0  0
  2  1  2  0  0  0  0
  5  4  1  0  0  0  0
  6  4  1  0  0  0  0
  7  3  1  1  0  0  0
  7  6  1  0  0  0  0
  8  1  1  6  0  0  0
  8  9  1  0  0  0  0
  8  7  1  0  0  0  0
  9 11  1  6  0  0  0
  9 10  1  0  0  0  0
 10  5  1  0  0  0  0
 12 17  1  0  0  0  0
 13 15  2  0  0  0  0
 14 11  1  0  0  0  0
 14 23  1  0  0  0  0
 15 18  1  0  0  0  0
 16 20  1  0  0  0  0
 16 12  2  0  0  0  0
 17 19  1  0  0  0  0
 18 14  2  0  0  0  0
 20 15  1  6  0  0  0
 20 22  1  0  0  0  0
 21 12  1  0  0  0  0
 22 23  1  0  0  0  0
 22 19  2  0  0  0  0
 24  1  1  0  0  0  0
 25 42  1  6  0  0  0
 25 24  1  0  0  0  0
 26 32  1  0  0  0  0
 27 33  1  0  0  0  0
 28 25  1  6  0  0  0
 28 27  1  0  0  0  0
 29 26  1  0  0  0  0
 30 26  1  0  0  0  0
 30 28  1  0  0  0  0
 31 29  2  0  0  0  0
 32 33  1  0  0  0  0
 34 29  1  0  0  0  0
 36 34  1  1  0  0  0
 37 40  1  1  0  0  0
 37 39  1  0  0  0  0
 37 38  1  0  0  0  0
 38 36  1  0  0  0  0
 39 38  1  0  0  0  0
 39 36  1  0  0  0  0
 39 35  1  0  0  0  0
 41 42  1  0  0  0  0
M  END
>  <MODEL>
1

>  <REMARK>
 VINA RESULT:      -8.1      0.000      0.000
  Name = 
  9 active torsions:
  status: ('A' for Active; 'I' for Inactive)
    1  A    between atoms: C_2  and  O_36
    2  A    between atoms: C_3  and  C_16
    3  A    between atoms: C_3  and  C_29
    4  A    between atoms: O_4  and  C_8
    5  A    between atoms: O_4  and  C_30
    6  A    between atoms: C_8  and  C_25
    7  A    between atoms: C_21  and  C_30
    8  A    between atoms: C_28  and  O_36
    9  A    between atoms: C_30  and  C_42
                            x       y       z     vdW  Elec       q    Type
                         _______ _______ _______ _____ _____    ______ ____

>  <TORSDO>
F 9

$$$$
=
 OpenBabel11072411223D

 42 47  0  0  1  0  0  0  0  0999 V2000
  162.0320  210.8850  149.5080 C   0  0  0  0  0  0  0  0  0  0  0  0
  162.9950  211.6020  149.8960 O   0  0  0  0  0  0  0  0  0  0  0  0
  163.0300  209.9950  152.2360 F   0  0  0  0  0  0  0  0  0  0  0  0
  161.1040  208.2310  153.3420 C   0  0  0  0  0  2  0  0  0  0  0  0
  161.4230  207.2030  152.2510 C   0  0  0  0  0  2  0  0  0  0  0  0
  160.7190  209.6350  152.8630 C   0  0  0  0  0  2  0  0  0  0  0  0
  161.7150  210.2680  151.8900 C   0  0  2  0  0  3  0  0  0  0  0  0
  161.4060  209.8910  150.4340 C   0  0  2  0  0  3  0  0  0  0  0  0
  161.7150  208.4170  150.1080 C   0  0  1  0  0  3  0  0  0  0  0  0
  160.7810  207.5060  150.9090 C   0  0  0  0  0  2  0  0  0  0  0  0
  161.6020  208.1070  148.6020 C   0  0  0  0  0  2  0  0  0  0  0  0
  160.9550  202.3790  145.9000 C   0  0  0  0  0  0  0  0  0  0  0  0
  160.7480  203.6100  149.8560 O   0  0  0  0  0  0  0  0  0  0  0  0
  161.7420  206.6370  148.3450 C   0  0  0  0  0  0  0  0  0  0  0  0
  161.2050  204.3680  148.9640 C   0  0  0  0  0  0  0  0  0  0  0  0
  160.9150  202.7080  147.1590 N   0  0  0  0  0  0  0  0  0  0  0  0
  161.6550  203.2060  144.9700 N   0  0  0  0  0  2  0  0  0  0  0  0
  161.2700  205.7810  149.2050 N   0  0  0  0  0  0  0  0  0  0  0  0
  162.0680  204.5170  145.3700 C   0  0  0  0  0  3  0  0  0  0  0  0
  161.7480  203.7890  147.6880 C   0  0  1  0  0  3  0  0  0  0  0  0
  160.1650  201.2200  145.4150 C   0  0  0  0  0  1  0  0  0  0  0  0
  162.0200  204.8520  146.6570 C   0  0  0  0  0  0  0  0  0  0  0  0
  162.1950  206.2070  147.0570 N   0  0  0  0  0  2  0  0  0  0  0  0
  161.4720  211.0790  148.2490 O   0  0  0  0  0  0  0  0  0  0  0  0
  161.2350  212.3790  147.7160 C   0  0  2  0  0  3  0  0  0  0  0  0
  159.2410  213.3910  144.6210 N   0  0  0  0  0  0  0  0  0  0  0  0
  158.7630  212.7340  147.3350 C   0  0  0  0  0  2  0  0  0  0  0  0
  160.0960  212.3310  146.6820 C   0  0  1  0  0  3  0  0  0  0  0  0
  159.4060  213.4560  143.2030 C   0  0  0  0  0  0  0  0  0  0  0  0
  160.4070  213.2570  145.4940 C   0  0  0  0  0  2  0  0  0  0  0  0
  158.5290  214.0310  142.4920 O   0  0  0  0  0  0  0  0  0  0  0  0
  157.9520  213.7260  145.2240 C   0  0  0  0  0  2  0  0  0  0  0  0
  157.6390  212.7200  146.3130 C   0  0  0  0  0  2  0  0  0  0  0  0
  160.5200  212.8580  142.6050 O   0  0  0  0  0  0  0  0  0  0  0  0
  162.4840  212.4390  140.7540 C   0  0  0  0  0  1  0  0  0  0  0  0
  160.4920  211.5160  142.1070 C   0  0  1  0  0  3  0  0  0  0  0  0
  161.0160  210.4540  139.9200 C   0  0  2  0  0  3  0  0  0  0  0  0
  160.1960  211.5290  140.6170 C   0  0  2  0  0  3  0  0  0  0  0  0
  161.6030  211.2320  141.1040 C   0  0  2  0  0  0  0  0  0  0  0  0
  161.4780  210.9590  138.5610 C   0  0  0  0  0  1  0  0  0  0  0  0
  162.8260  214.1710  147.5410 O   0  0  0  0  0  1  0  0  0  0  0  0
  162.5290  212.8800  147.0890 C   0  0  0  0  0  2  0  0  0  0  0  0
  1  2  2  0  0  0  0
  5  4  1  0  0  0  0
  6  4  1  0  0  0  0
  7  3  1  1  0  0  0
  7  6  1  0  0  0  0
  8  1  1  6  0  0  0
  8  7  1  0  0  0  0
  9 11  1  6  0  0  0
  9  8  1  0  0  0  0
  9 10  1  0  0  0  0
 10  5  1  0  0  0  0
 12 16  2  0  0  0  0
 14 11  1  0  0  0  0
 14 18  2  0  0  0  0
 15 18  1  0  0  0  0
 15 13  2  0  0  0  0
 16 20  1  0  0  0  0
 17 19  1  0  0  0  0
 17 12  1  0  0  0  0
 19 22  2  0  0  0  0
 20 22  1  6  0  0  0
 20 15  1  0  0  0  0
 21 12  1  0  0  0  0
 22 23  1  0  0  0  0
 23 14  1  0  0  0  0
 24  1  1  0  0  0  0
 25 42  1  6  0  0  0
 25 24  1  0  0  0  0
 26 32  1  0  0  0  0
 26 30  1  0  0  0  0
 28 27  1  0  0  0  0
 28 25  1  1  0  0  0
 29 26  1  0  0  0  0
 30 28  1  0  0  0  0
 31 29  2  0  0  0  0
 32 33  1  0  0  0  0
 33 27  1  0  0  0  0
 34 29  1  0  0  0  0
 35 39  1  0  0  0  0
 36 34  1  6  0  0  0
 37 40  1  6  0  0  0
 37 38  1  0  0  0  0
 37 39  1  0  0  0  0
 38 39  1  0  0  0  0
 38 36  1  0  0  0  0
 39 36  1  0  0  0  0
 42 41  1  0  0  0  0
M  END
>  <MODEL>
2

>  <REMARK>
 VINA RESULT:      -6.4      4.769      9.504
  Name = 
  9 active torsions:
  status: ('A' for Active; 'I' for Inactive)
    1  A    between atoms: C_2  and  O_36
    2  A    between atoms: C_3  and  C_16
    3  A    between atoms: C_3  and  C_29
    4  A    between atoms: O_4  and  C_8
    5  A    between atoms: O_4  and  C_30
    6  A    between atoms: C_8  and  C_25
    7  A    between atoms: C_21  and  C_30
    8  A    between atoms: C_28  and  O_36
    9  A    between atoms: C_30  and  C_42
                            x       y       z     vdW  Elec       q    Type
                         _______ _______ _______ _____ _____    ______ ____

>  <TORSDO>
F 9

$$$$
=
 OpenBabel11072411223D

 42 47  0  0  1  0  0  0  0  0999 V2000
  161.7230  210.3910  150.8360 C   0  0  0  0  0  0  0  0  0  0  0  0
  162.9420  210.7040  150.9250 O   0  0  0  0  0  0  0  0  0  0  0  0
  162.8180  209.1510  153.3840 F   0  0  0  0  0  0  0  0  0  0  0  0
  161.0450  207.0900  154.1900 C   0  0  0  0  0  2  0  0  0  0  0  0
  161.4270  206.2790  152.9470 C   0  0  0  0  0  2  0  0  0  0  0  0
  160.5490  208.5190  153.9440 C   0  0  0  0  0  2  0  0  0  0  0  0
  161.4830  209.3760  153.0870 C   0  0  2  0  0  3  0  0  0  0  0  0
  161.1850  209.2160  151.5880 C   0  0  2  0  0  3  0  0  0  0  0  0
  161.6000  207.8410  151.0280 C   0  0  1  0  0  3  0  0  0  0  0  0
  160.7480  206.7450  151.6710 C   0  0  0  0  0  2  0  0  0  0  0  0
  161.4920  207.7700  149.4920 C   0  0  0  0  0  2  0  0  0  0  0  0
  160.9860  202.5560  145.8760 C   0  0  0  0  0  0  0  0  0  0  0  0
  160.5990  203.1330  149.9660 O   0  0  0  0  0  0  0  0  0  0  0  0
  161.6490  206.3610  149.0090 C   0  0  0  0  0  0  0  0  0  0  0  0
  161.0920  204.0230  149.2290 C   0  0  0  0  0  0  0  0  0  0  0  0
  160.8890  202.6770  147.1690 N   0  0  0  0  0  0  0  0  0  0  0  0
  161.7240  203.5190  145.1240 N   0  0  0  0  0  2  0  0  0  0  0  0
  161.1420  205.3790  149.6970 N   0  0  0  0  0  0  0  0  0  0  0  0
  162.1140  204.7470  145.7480 C   0  0  0  0  0  3  0  0  0  0  0  0
  161.6930  203.6560  147.9010 C   0  0  1  0  0  3  0  0  0  0  0  0
  160.2220  201.4920  145.1760 C   0  0  0  0  0  1  0  0  0  0  0  0
  162.0070  204.8700  147.0690 C   0  0  0  0  0  0  0  0  0  0  0  0
  162.1600  206.1420  147.6890 N   0  0  0  0  0  2  0  0  0  0  0  0
  160.8400  211.1930  150.1180 O   0  0  0  0  0  0  0  0  0  0  0  0
  161.2220  212.4630  149.5980 C   0  0  2  0  0  3  0  0  0  0  0  0
  157.8120  213.8030  150.6730 N   0  0  0  0  0  0  0  0  0  0  0  0
  159.3280  213.5120  148.2970 C   0  0  0  0  0  2  0  0  0  0  0  0
  160.0360  213.4420  149.6610 C   0  0  1  0  0  3  0  0  0  0  0  0
  157.1390  214.2150  151.8660 C   0  0  0  0  0  0  0  0  0  0  0  0
  159.0420  213.0160  150.7550 C   0  0  0  0  0  2  0  0  0  0  0  0
  155.8960  214.4530  151.8370 O   0  0  0  0  0  0  0  0  0  0  0  0
  157.1450  213.9240  149.3780 C   0  0  0  0  0  2  0  0  0  0  0  0
  158.1350  214.4530  148.3600 C   0  0  0  0  0  2  0  0  0  0  0  0
  157.8660  214.3840  153.0490 O   0  0  0  0  0  0  0  0  0  0  0  0
  159.5060  212.6950  154.4330 C   0  0  0  0  0  1  0  0  0  0  0  0
  157.3200  214.0600  154.3320 C   0  0  1  0  0  3  0  0  0  0  0  0
  157.3840  212.0530  155.8000 C   0  0  2  0  0  3  0  0  0  0  0  0
  157.0440  212.5680  154.4090 C   0  0  2  0  0  3  0  0  0  0  0  0
  158.2320  213.1540  155.1520 C   0  0  2  0  0  0  0  0  0  0  0  0
  157.9960  210.6640  155.6990 C   0  0  0  0  0  1  0  0  0  0  0  0
  163.0170  212.7210  148.0210 O   0  0  0  0  0  1  0  0  0  0  0  0
  161.7000  212.2680  148.1650 C   0  0  0  0  0  2  0  0  0  0  0  0
  1  2  2  0  0  0  0
  5  4  1  0  0  0  0
  6  4  1  0  0  0  0
  7  3  1  6  0  0  0
  7  6  1  0  0  0  0
  8  1  1  6  0  0  0
  8  7  1  0  0  0  0
  9 11  1  6  0  0  0
  9  8  1  0  0  0  0
  9 10  1  0  0  0  0
 10  5  1  0  0  0  0
 12 16  2  0  0  0  0
 14 11  1  0  0  0  0
 14 18  2  0  0  0  0
 15 18  1  0  0  0  0
 15 13  2  0  0  0  0
 16 20  1  0  0  0  0
 17 19  1  0  0  0  0
 17 12  1  0  0  0  0
 19 22  2  0  0  0  0
 20 22  1  6  0  0  0
 20 15  1  0  0  0  0
 21 12  1  0  0  0  0
 22 23  1  0  0  0  0
 23 14  1  0  0  0  0
 24  1  1  0  0  0  0
 25 42  1  6  0  0  0
 25 24  1  0  0  0  0
 26 30  1  0  0  0  0
 26 29  1  0  0  0  0
 27 33  1  0  0  0  0
 27 28  1  0  0  0  0
 28 25  1  6  0  0  0
 28 30  1  0  0  0  0
 29 34  1  0  0  0  0
 31 29  2  0  0  0  0
 32 26  1  0  0  0  0
 33 32  1  0  0  0  0
 35 39  1  0  0  0  0
 36 34  1  6  0  0  0
 36 38  1  0  0  0  0
 36 39  1  0  0  0  0
 37 40  1  6  0  0  0
 38 39  1  0  0  0  0
 38 37  1  0  0  0  0
 39 37  1  0  0  0  0
 41 42  1  0  0  0  0
M  END
>  <MODEL>
3

>  <REMARK>
 VINA RESULT:      -6.2      2.545     10.122
  Name = 
  9 active torsions:
  status: ('A' for Active; 'I' for Inactive)
    1  A    between atoms: C_2  and  O_36
    2  A    between atoms: C_3  and  C_16
    3  A    between atoms: C_3  and  C_29
    4  A    between atoms: O_4  and  C_8
    5  A    between atoms: O_4  and  C_30
    6  A    between atoms: C_8  and  C_25
    7  A    between atoms: C_21  and  C_30
    8  A    between atoms: C_28  and  O_36
    9  A    between atoms: C_30  and  C_42
                            x       y       z     vdW  Elec       q    Type
                         _______ _______ _______ _____ _____    ______ ____

>  <TORSDO>
F 9

$$$$
=
 OpenBabel11072411223D

 42 47  0  0  1  0  0  0  0  0999 V2000
  161.2860  207.8110  153.3120 C   0  0  0  0  0  0  0  0  0  0  0  0
  160.7470  206.7720  153.7820 O   0  0  0  0  0  0  0  0  0  0  0  0
  160.4610  209.7860  151.1560 F   0  0  0  0  0  0  0  0  0  0  0  0
  161.9640  209.2140  148.8200 C   0  0  0  0  0  2  0  0  0  0  0  0
  161.2330  207.8750  148.6810 C   0  0  0  0  0  2  0  0  0  0  0  0
  162.6480  209.4790  150.1660 C   0  0  0  0  0  2  0  0  0  0  0  0
  161.7420  209.3040  151.3840 C   0  0  2  0  0  3  0  0  0  0  0  0
  161.7370  207.8530  151.8860 C   0  0  2  0  0  3  0  0  0  0  0  0
  160.9960  206.8850  150.9430 C   0  0  1  0  0  3  0  0  0  0  0  0
  161.7450  206.7900  149.6120 C   0  0  0  0  0  2  0  0  0  0  0  0
  160.8160  205.4820  151.5560 C   0  0  0  0  0  2  0  0  0  0  0  0
  160.6980  202.1590  146.1280 C   0  0  0  0  0  0  0  0  0  0  0  0
  160.4040  200.9860  150.0960 O   0  0  0  0  0  0  0  0  0  0  0  0
  161.0940  204.4150  150.5420 C   0  0  0  0  0  0  0  0  0  0  0  0
  160.7800  202.1440  149.7880 C   0  0  0  0  0  0  0  0  0  0  0  0
  160.6360  201.7350  147.3570 N   0  0  0  0  0  0  0  0  0  0  0  0
  161.3090  203.4160  145.8370 N   0  0  0  0  0  2  0  0  0  0  0  0
  160.7120  203.1910  150.7680 N   0  0  0  0  0  0  0  0  0  0  0  0
  161.5980  204.3190  146.9100 C   0  0  0  0  0  3  0  0  0  0  0  0
  161.3660  202.4110  148.4300 C   0  0  1  0  0  3  0  0  0  0  0  0
  160.0180  201.3970  145.0500 C   0  0  0  0  0  1  0  0  0  0  0  0
  161.5280  203.8840  148.1660 C   0  0  0  0  0  0  0  0  0  0  0  0
  161.5760  204.8040  149.2510 N   0  0  0  0  0  2  0  0  0  0  0  0
  161.3770  208.9670  154.0820 O   0  0  0  0  0  0  0  0  0  0  0  0
  160.5180  209.2080  155.1920 C   0  0  2  0  0  3  0  0  0  0  0  0
  159.0140  212.4890  153.9460 N   0  0  0  0  0  0  0  0  0  0  0  0
  158.6170  210.6330  156.0500 C   0  0  0  0  0  2  0  0  0  0  0  0
  159.4140  210.2080  154.8050 C   0  0  1  0  0  3  0  0  0  0  0  0
  159.0000  213.2910  152.7620 C   0  0  0  0  0  0  0  0  0  0  0  0
  160.0200  211.4410  154.1150 C   0  0  0  0  0  2  0  0  0  0  0  0
  158.4940  214.4510  152.7940 O   0  0  0  0  0  0  0  0  0  0  0  0
  158.2100  212.8780  155.1030 C   0  0  0  0  0  2  0  0  0  0  0  0
  157.5450  211.6450  155.6800 C   0  0  0  0  0  2  0  0  0  0  0  0
  159.5160  212.7750  151.5680 O   0  0  0  0  0  0  0  0  0  0  0  0
  158.5670  213.4510  149.0980 C   0  0  0  0  0  1  0  0  0  0  0  0
  160.5040  213.4700  150.8010 C   0  0  1  0  0  3  0  0  0  0  0  0
  161.0680  213.5900  148.3820 C   0  0  2  0  0  3  0  0  0  0  0  0
  160.8550  212.6590  149.5650 C   0  0  2  0  0  3  0  0  0  0  0  0
  159.9950  213.9030  149.4310 C   0  0  2  0  0  0  0  0  0  0  0  0
  160.5230  212.9470  147.1150 C   0  0  0  0  0  1  0  0  0  0  0  0
  162.0320  208.6910  156.9860 O   0  0  0  0  0  1  0  0  0  0  0  0
  161.3640  209.7390  156.3420 C   0  0  0  0  0  2  0  0  0  0  0  0
  1  2  2  0  0  0  0
  1 24  1  0  0  0  0
  4  6  1  0  0  0  0
  5  4  1  0  0  0  0
  5 10  1  0  0  0  0
  6  7  1  0  0  0  0
  7  3  1  6  0  0  0
  7  8  1  0  0  0  0
  8  1  1  1  0  0  0
  9 11  1  1  0  0  0
  9  8  1  0  0  0  0
 10  9  1  0  0  0  0
 12 16  2  0  0  0  0
 14 18  2  0  0  0  0
 14 11  1  0  0  0  0
 15 13  2  0  0  0  0
 15 18  1  0  0  0  0
 17 12  1  0  0  0  0
 17 19  1  0  0  0  0
 19 22  2  0  0  0  0
 20 16  1  6  0  0  0
 20 15  1  0  0  0  0
 21 12  1  0  0  0  0
 22 20  1  0  0  0  0
 22 23  1  0  0  0  0
 23 14  1  0  0  0  0
 24 25  1  0  0  0  0
 25 42  1  1  0  0  0
 26 30  1  0  0  0  0
 26 32  1  0  0  0  0
 28 25  1  1  0  0  0
 28 27  1  0  0  0  0
 29 31  2  0  0  0  0
 29 26  1  0  0  0  0
 30 28  1  0  0  0  0
 32 33  1  0  0  0  0
 33 27  1  0  0  0  0
 34 29  1  0  0  0  0
 35 39  1  0  0  0  0
 36 34  1  1  0  0  0
 37 40  1  6  0  0  0
 37 39  1  0  0  0  0
 37 38  1  0  0  0  0
 38 36  1  0  0  0  0
 39 38  1  0  0  0  0
 39 36  1  0  0  0  0
 42 41  1  0  0  0  0
M  END
>  <MODEL>
4

>  <REMARK>
 VINA RESULT:      -6.2      2.272      9.706
  Name = 
  9 active torsions:
  status: ('A' for Active; 'I' for Inactive)
    1  A    between atoms: C_2  and  O_36
    2  A    between atoms: C_3  and  C_16
    3  A    between atoms: C_3  and  C_29
    4  A    between atoms: O_4  and  C_8
    5  A    between atoms: O_4  and  C_30
    6  A    between atoms: C_8  and  C_25
    7  A    between atoms: C_21  and  C_30
    8  A    between atoms: C_28  and  O_36
    9  A    between atoms: C_30  and  C_42
                            x       y       z     vdW  Elec       q    Type
                         _______ _______ _______ _____ _____    ______ ____

>  <TORSDO>
F 9

$$$$
=
 OpenBabel11072411223D

 42 47  0  0  1  0  0  0  0  0999 V2000
  161.3840  210.1520  151.4350 C   0  0  0  0  0  0  0  0  0  0  0  0
  162.3350  209.8930  150.6480 O   0  0  0  0  0  0  0  0  0  0  0  0
  158.5480  211.0620  152.0290 F   0  0  0  0  0  0  0  0  0  0  0  0
  158.5740  213.8830  152.3220 C   0  0  0  0  0  2  0  0  0  0  0  0
  158.9250  214.0310  150.8380 C   0  0  0  0  0  2  0  0  0  0  0  0
  159.4970  212.9850  153.1530 C   0  0  0  0  0  2  0  0  0  0  0  0
  159.7110  211.5860  152.5740 C   0  0  2  0  0  3  0  0  0  0  0  0
  160.8830  211.5540  151.5830 C   0  0  2  0  0  3  0  0  0  0  0  0
  160.5790  212.2770  150.2560 C   0  0  1  0  0  3  0  0  0  0  0  0
  160.3860  213.7730  150.5180 C   0  0  0  0  0  2  0  0  0  0  0  0
  161.6770  212.0580  149.1970 C   0  0  0  0  0  2  0  0  0  0  0  0
  159.7280  213.2380  143.2530 C   0  0  0  0  0  0  0  0  0  0  0  0
  163.0940  214.4500  145.3510 O   0  0  0  0  0  0  0  0  0  0  0  0
  161.3550  212.7920  147.9310 C   0  0  0  0  0  0  0  0  0  0  0  0
  162.1200  213.9190  145.9390 C   0  0  0  0  0  0  0  0  0  0  0  0
  160.7830  213.6740  143.8780 N   0  0  0  0  0  0  0  0  0  0  0  0
  158.5820  212.8190  143.9950 N   0  0  0  0  0  2  0  0  0  0  0  0
  162.3090  213.3480  147.2430 N   0  0  0  0  0  0  0  0  0  0  0  0
  158.6970  212.6210  145.4080 C   0  0  0  0  0  3  0  0  0  0  0  0
  160.7530  213.9500  145.3150 C   0  0  1  0  0  3  0  0  0  0  0  0
  159.7670  213.0550  141.7800 C   0  0  0  0  0  1  0  0  0  0  0  0
  159.7800  213.0620  146.0430 C   0  0  0  0  0  0  0  0  0  0  0  0
  160.0340  212.6780  147.3900 N   0  0  0  0  0  2  0  0  0  0  0  0
  160.7190  209.1260  152.0990 O   0  0  0  0  0  0  0  0  0  0  0  0
  161.3640  208.3130  153.0760 C   0  0  2  0  0  3  0  0  0  0  0  0
  160.9830  205.3280  150.7260 N   0  0  0  0  0  0  0  0  0  0  0  0
  161.2080  205.8280  153.5050 C   0  0  0  0  0  2  0  0  0  0  0  0
  161.6420  206.9120  152.5030 C   0  0  1  0  0  3  0  0  0  0  0  0
  161.1430  205.0160  149.3400 C   0  0  0  0  0  0  0  0  0  0  0  0
  160.9080  206.7210  151.1640 C   0  0  0  0  0  2  0  0  0  0  0  0
  160.7410  203.9010  148.8940 O   0  0  0  0  0  0  0  0  0  0  0  0
  160.6210  204.2770  151.6750 C   0  0  0  0  0  2  0  0  0  0  0  0
  161.4490  204.4410  152.9330 C   0  0  0  0  0  2  0  0  0  0  0  0
  161.7720  205.9320  148.4900 O   0  0  0  0  0  0  0  0  0  0  0  0
  160.4520  206.4990  146.1680 C   0  0  0  0  0  1  0  0  0  0  0  0
  162.5270  205.5190  147.3460 C   0  0  1  0  0  3  0  0  0  0  0  0
  161.9410  204.6530  145.0890 C   0  0  2  0  0  3  0  0  0  0  0  0
  161.7600  204.4510  146.5860 C   0  0  2  0  0  3  0  0  0  0  0  0
  161.8400  205.8610  146.0280 C   0  0  2  0  0  0  0  0  0  0  0  0
  160.6450  204.3260  144.3640 C   0  0  0  0  0  1  0  0  0  0  0  0
  160.7460  209.2900  155.1820 O   0  0  0  0  0  1  0  0  0  0  0  0
  160.4640  208.2380  154.3030 C   0  0  0  0  0  2  0  0  0  0  0  0
  1 24  1  0  0  0  0
  2  1  2  0  0  0  0
  4  6  1  0  0  0  0
  5  4  1  0  0  0  0
  7  3  1  6  0  0  0
  7  6  1  0  0  0  0
  8  1  1  6  0  0  0
  8  7  1  0  0  0  0
  9 11  1  6  0  0  0
  9 10  1  0  0  0  0
  9  8  1  0  0  0  0
 10  5  1  0  0  0  0
 12 16  2  0  0  0  0
 12 17  1  0  0  0  0
 13 15  2  0  0  0  0
 14 11  1  0  0  0  0
 15 18  1  0  0  0  0
 17 19  1  0  0  0  0
 18 14  2  0  0  0  0
 19 22  2  0  0  0  0
 20 16  1  6  0  0  0
 20 15  1  0  0  0  0
 20 22  1  0  0  0  0
 21 12  1  0  0  0  0
 22 23  1  0  0  0  0
 23 14  1  0  0  0  0
 24 25  1  0  0  0  0
 25 42  1  1  0  0  0
 26 30  1  0  0  0  0
 26 32  1  0  0  0  0
 28 25  1  1  0  0  0
 28 27  1  0  0  0  0
 29 26  1  0  0  0  0
 30 28  1  0  0  0  0
 31 29  2  0  0  0  0
 32 33  1  0  0  0  0
 33 27  1  0  0  0  0
 34 29  1  0  0  0  0
 36 34  1  1  0  0  0
 37 40  1  6  0  0  0
 37 39  1  0  0  0  0
 37 38  1  0  0  0  0
 38 36  1  0  0  0  0
 39 35  1  0  0  0  0
 39 38  1  0  0  0  0
 39 36  1  0  0  0  0
 42 41  1  0  0  0  0
M  END
>  <MODEL>
5

>  <REMARK>
 VINA RESULT:      -6.1      4.038      5.990
  Name = 
  9 active torsions:
  status: ('A' for Active; 'I' for Inactive)
    1  A    between atoms: C_2  and  O_36
    2  A    between atoms: C_3  and  C_16
    3  A    between atoms: C_3  and  C_29
    4  A    between atoms: O_4  and  C_8
    5  A    between atoms: O_4  and  C_30
    6  A    between atoms: C_8  and  C_25
    7  A    between atoms: C_21  and  C_30
    8  A    between atoms: C_28  and  O_36
    9  A    between atoms: C_30  and  C_42
                            x       y       z     vdW  Elec       q    Type
                         _______ _______ _______ _____ _____    ______ ____

>  <TORSDO>
F 9

$$$$
=
 OpenBabel11072411223D

 42 47  0  0  1  0  0  0  0  0999 V2000
  161.4820  210.0530  151.3620 C   0  0  0  0  0  0  0  0  0  0  0  0
  162.7080  210.3430  151.3310 O   0  0  0  0  0  0  0  0  0  0  0  0
  162.6820  208.5880  153.7370 F   0  0  0  0  0  0  0  0  0  0  0  0
  161.0370  206.3500  154.3100 C   0  0  0  0  0  2  0  0  0  0  0  0
  161.4440  205.7130  152.9770 C   0  0  0  0  0  2  0  0  0  0  0  0
  160.4600  207.7670  154.2380 C   0  0  0  0  0  2  0  0  0  0  0  0
  161.3310  208.7700  153.4800 C   0  0  2  0  0  3  0  0  0  0  0  0
  161.0200  208.7700  151.9760 C   0  0  2  0  0  3  0  0  0  0  0  0
  161.5020  207.4960  151.2540 C   0  0  1  0  0  3  0  0  0  0  0  0
  160.7210  206.2850  151.7710 C   0  0  0  0  0  2  0  0  0  0  0  0
  161.3750  207.5990  149.7210 C   0  0  0  0  0  2  0  0  0  0  0  0
  160.8410  202.7500  145.6320 C   0  0  0  0  0  0  0  0  0  0  0  0
  160.8470  202.8830  149.7770 O   0  0  0  0  0  0  0  0  0  0  0  0
  161.5740  206.2620  149.0760 C   0  0  0  0  0  0  0  0  0  0  0  0
  161.2000  203.8780  149.0960 C   0  0  0  0  0  0  0  0  0  0  0  0
  160.8720  202.7340  146.9330 N   0  0  0  0  0  0  0  0  0  0  0  0
  161.4310  203.8380  144.9190 N   0  0  0  0  0  2  0  0  0  0  0  0
  161.2090  205.1800  149.7000 N   0  0  0  0  0  0  0  0  0  0  0  0
  161.8010  205.0240  145.6310 C   0  0  0  0  0  3  0  0  0  0  0  0
  161.6820  203.6930  147.6850 C   0  0  1  0  0  3  0  0  0  0  0  0
  160.0800  201.7070  144.8990 C   0  0  0  0  0  1  0  0  0  0  0  0
  161.8250  205.0050  146.9610 C   0  0  0  0  0  0  0  0  0  0  0  0
  161.9580  206.2160  147.6970 N   0  0  0  0  0  2  0  0  0  0  0  0
  160.5300  210.9680  150.9190 O   0  0  0  0  0  0  0  0  0  0  0  0
  160.8010  212.3640  150.8380 C   0  0  2  0  0  3  0  0  0  0  0  0
  157.7820  212.9630  153.0990 N   0  0  0  0  0  0  0  0  0  0  0  0
  158.6760  213.6900  150.5100 C   0  0  0  0  0  2  0  0  0  0  0  0
  159.6890  213.1630  151.5410 C   0  0  1  0  0  3  0  0  0  0  0  0
  157.4260  212.8500  154.4790 C   0  0  0  0  0  0  0  0  0  0  0  0
  158.9770  212.2910  152.5880 C   0  0  0  0  0  2  0  0  0  0  0  0
  156.2190  212.9950  154.8310 O   0  0  0  0  0  0  0  0  0  0  0  0
  156.8270  213.5140  152.1390 C   0  0  0  0  0  2  0  0  0  0  0  0
  157.5570  214.4530  151.2000 C   0  0  0  0  0  2  0  0  0  0  0  0
  158.4190  212.6130  155.4350 O   0  0  0  0  0  0  0  0  0  0  0  0
  160.4620  212.6620  157.2470 C   0  0  0  0  0  1  0  0  0  0  0  0
  158.4860  211.3930  156.1800 C   0  0  1  0  0  3  0  0  0  0  0  0
  160.3300  210.0610  157.1860 C   0  0  2  0  0  3  0  0  0  0  0  0
  159.8090  210.6980  155.9070 C   0  0  2  0  0  3  0  0  0  0  0  0
  159.5870  211.4010  157.2340 C   0  0  2  0  0  0  0  0  0  0  0  0
  161.8450  210.1920  157.2470 C   0  0  0  0  0  1  0  0  0  0  0  0
  161.7710  211.8720  148.6960 O   0  0  0  0  0  1  0  0  0  0  0  0
  160.9080  212.7450  149.3680 C   0  0  0  0  0  2  0  0  0  0  0  0
  2  1  2  0  0  0  0
  5  4  1  0  0  0  0
  6  4  1  0  0  0  0
  7  3  1  6  0  0  0
  7  6  1  0  0  0  0
  8  1  1  6  0  0  0
  8  7  1  0  0  0  0
  9 11  1  6  0  0  0
  9 10  1  0  0  0  0
  9  8  1  0  0  0  0
 10  5  1  0  0  0  0
 12 16  2  0  0  0  0
 14 18  2  0  0  0  0
 14 11  1  0  0  0  0
 15 18  1  0  0  0  0
 15 13  2  0  0  0  0
 17 19  1  0  0  0  0
 17 12  1  0  0  0  0
 19 22  2  0  0  0  0
 20 16  1  6  0  0  0
 20 15  1  0  0  0  0
 21 12  1  0  0  0  0
 22 20  1  0  0  0  0
 22 23  1  0  0  0  0
 23 14  1  0  0  0  0
 24  1  1  0  0  0  0
 25 42  1  6  0  0  0
 25 24  1  0  0  0  0
 26 29  1  0  0  0  0
 27 33  1  0  0  0  0
 27 28  1  0  0  0  0
 28 25  1  6  0  0  0
 28 30  1  0  0  0  0
 29 31  2  0  0  0  0
 29 34  1  0  0  0  0
 30 26  1  0  0  0  0
 32 26  1  0  0  0  0
 33 32  1  0  0  0  0
 36 34  1  6  0  0  0
 36 39  1  0  0  0  0
 37 39  1  0  0  0  0
 37 40  1  6  0  0  0
 38 36  1  0  0  0  0
 38 37  1  0  0  0  0
 38 39  1  0  0  0  0
 39 35  1  0  0  0  0
 41 42  1  0  0  0  0
M  END
>  <MODEL>
6

>  <REMARK>
 VINA RESULT:      -5.8      2.330     10.064
  Name = 
  9 active torsions:
  status: ('A' for Active; 'I' for Inactive)
    1  A    between atoms: C_2  and  O_36
    2  A    between atoms: C_3  and  C_16
    3  A    between atoms: C_3  and  C_29
    4  A    between atoms: O_4  and  C_8
    5  A    between atoms: O_4  and  C_30
    6  A    between atoms: C_8  and  C_25
    7  A    between atoms: C_21  and  C_30
    8  A    between atoms: C_28  and  O_36
    9  A    between atoms: C_30  and  C_42
                            x       y       z     vdW  Elec       q    Type
                         _______ _______ _______ _____ _____    ______ ____

>  <TORSDO>
F 9

$$$$
=
 OpenBabel11072411223D

 42 47  0  0  1  0  0  0  0  0999 V2000
  159.8970  212.6980  150.3070 C   0  0  0  0  0  0  0  0  0  0  0  0
  161.0760  212.3390  150.0380 O   0  0  0  0  0  0  0  0  0  0  0  0
  157.0950  212.0690  149.3150 F   0  0  0  0  0  0  0  0  0  0  0  0
  156.2930  214.1550  147.5710 C   0  0  0  0  0  2  0  0  0  0  0  0
  157.3670  213.7260  146.5660 C   0  0  0  0  0  2  0  0  0  0  0  0
  156.7720  214.4470  148.9970 C   0  0  0  0  0  2  0  0  0  0  0  0
  157.5930  213.3240  149.6320 C   0  0  2  0  0  3  0  0  0  0  0  0
  159.0880  213.4570  149.3040 C   0  0  2  0  0  3  0  0  0  0  0  0
  159.4180  213.1420  147.8320 C   0  0  1  0  0  3  0  0  0  0  0  0
  158.7680  214.1880  146.9230 C   0  0  0  0  0  2  0  0  0  0  0  0
  160.9350  213.0730  147.5670 C   0  0  0  0  0  2  0  0  0  0  0  0
  161.9750  211.8170  141.4130 C   0  0  0  0  0  0  0  0  0  0  0  0
  163.9640  214.2590  144.1110 O   0  0  0  0  0  0  0  0  0  0  0  0
  161.2350  213.2680  146.1120 C   0  0  0  0  0  0  0  0  0  0  0  0
  162.8320  213.7850  144.3780 C   0  0  0  0  0  0  0  0  0  0  0  0
  162.6130  212.6230  142.2110 N   0  0  0  0  0  0  0  0  0  0  0  0
  160.6180  211.4660  141.6900 N   0  0  0  0  0  2  0  0  0  0  0  0
  162.3960  213.7280  145.7450 N   0  0  0  0  0  0  0  0  0  0  0  0
  160.0620  211.7770  142.9730 C   0  0  0  0  0  3  0  0  0  0  0  0
  161.9140  213.3530  143.2700 C   0  0  1  0  0  3  0  0  0  0  0  0
  162.6970  211.1620  140.2940 C   0  0  0  0  0  1  0  0  0  0  0  0
  160.7210  212.5970  143.7880 C   0  0  0  0  0  0  0  0  0  0  0  0
  160.3200  212.7390  145.1460 N   0  0  0  0  0  2  0  0  0  0  0  0
  159.2960  212.3060  151.4990 O   0  0  0  0  0  0  0  0  0  0  0  0
  159.7050  212.8250  152.7610 C   0  0  2  0  0  3  0  0  0  0  0  0
  160.5030  209.2630  153.8800 N   0  0  0  0  0  0  0  0  0  0  0  0
  159.7740  211.7420  155.0420 C   0  0  0  0  0  2  0  0  0  0  0  0
  160.3430  211.7130  153.6130 C   0  0  1  0  0  3  0  0  0  0  0  0
  161.1320  208.0850  153.3690 C   0  0  0  0  0  0  0  0  0  0  0  0
  160.1000  210.3360  152.9720 C   0  0  0  0  0  2  0  0  0  0  0  0
  161.0510  206.9980  154.0140 O   0  0  0  0  0  0  0  0  0  0  0  0
  160.0140  209.2930  155.2580 C   0  0  0  0  0  2  0  0  0  0  0  0
  160.3760  210.6260  155.8810 C   0  0  0  0  0  2  0  0  0  0  0  0
  161.8600  208.1480  152.1760 O   0  0  0  0  0  0  0  0  0  0  0  0
  161.9400  208.6100  149.4860 C   0  0  0  0  0  1  0  0  0  0  0  0
  162.2480  206.9740  151.4560 C   0  0  1  0  0  3  0  0  0  0  0  0
  161.6870  206.0310  149.2240 C   0  0  2  0  0  3  0  0  0  0  0  0
  161.1170  206.5380  150.5390 C   0  0  2  0  0  3  0  0  0  0  0  0
  162.3470  207.2070  149.9530 C   0  0  2  0  0  0  0  0  0  0  0  0
  160.7800  206.4470  148.0750 C   0  0  0  0  0  1  0  0  0  0  0  0
  157.3860  213.4330  152.5820 O   0  0  0  0  0  1  0  0  0  0  0  0
  158.4830  213.4170  153.4520 C   0  0  0  0  0  2  0  0  0  0  0  0
  1 24  1  0  0  0  0
  2  1  2  0  0  0  0
  4  6  1  0  0  0  0
  5 10  1  0  0  0  0
  5  4  1  0  0  0  0
  6  7  1  0  0  0  0
  7  3  1  6  0  0  0
  8  7  1  0  0  0  0
  8  1  1  1  0  0  0
  9 11  1  1  0  0  0
  9  8  1  0  0  0  0
 10  9  1  0  0  0  0
 12 17  1  0  0  0  0
 12 16  2  0  0  0  0
 13 15  2  0  0  0  0
 14 11  1  0  0  0  0
 15 18  1  0  0  0  0
 17 19  1  0  0  0  0
 18 14  2  0  0  0  0
 19 22  2  0  0  0  0
 20 16  1  6  0  0  0
 20 22  1  0  0  0  0
 20 15  1  0  0  0  0
 21 12  1  0  0  0  0
 22 23  1  0  0  0  0
 23 14  1  0  0  0  0
 24 25  1  0  0  0  0
 25 42  1  1  0  0  0
 26 32  1  0  0  0  0
 27 33  1  0  0  0  0
 28 25  1  6  0  0  0
 28 27  1  0  0  0  0
 29 26  1  0  0  0  0
 29 31  2  0  0  0  0
 30 28  1  0  0  0  0
 30 26  1  0  0  0  0
 32 33  1  0  0  0  0
 34 29  1  0  0  0  0
 35 39  1  0  0  0  0
 36 34  1  1  0  0  0
 37 40  1  6  0  0  0
 37 39  1  0  0  0  0
 37 38  1  0  0  0  0
 38 36  1  0  0  0  0
 39 38  1  0  0  0  0
 39 36  1  0  0  0  0
 41 42  1  0  0  0  0
M  END
>  <MODEL>
7

>  <REMARK>
 VINA RESULT:      -5.8      4.868      8.881
  Name = 
  9 active torsions:
  status: ('A' for Active; 'I' for Inactive)
    1  A    between atoms: C_2  and  O_36
    2  A    between atoms: C_3  and  C_16
    3  A    between atoms: C_3  and  C_29
    4  A    between atoms: O_4  and  C_8
    5  A    between atoms: O_4  and  C_30
    6  A    between atoms: C_8  and  C_25
    7  A    between atoms: C_21  and  C_30
    8  A    between atoms: C_28  and  O_36
    9  A    between atoms: C_30  and  C_42
                            x       y       z     vdW  Elec       q    Type
                         _______ _______ _______ _____ _____    ______ ____

>  <TORSDO>
F 9

$$$$
=
 OpenBabel11072411223D

 42 47  0  0  1  0  0  0  0  0999 V2000
  162.0860  210.4180  149.3010 C   0  0  0  0  0  0  0  0  0  0  0  0
  162.2440  211.3120  150.1750 O   0  0  0  0  0  0  0  0  0  0  0  0
  160.3620  208.0680  148.4440 F   0  0  0  0  0  0  0  0  0  0  0  0
  161.5640  205.6940  149.4230 C   0  0  0  0  0  2  0  0  0  0  0  0
  161.2600  206.1350  150.8580 C   0  0  0  0  0  2  0  0  0  0  0  0
  162.3470  206.6870  148.5570 C   0  0  0  0  0  2  0  0  0  0  0  0
  161.7470  208.0930  148.5050 C   0  0  2  0  0  3  0  0  0  0  0  0
  162.2640  208.9740  149.6510 C   0  0  2  0  0  3  0  0  0  0  0  0
  161.7070  208.5680  151.0300 C   0  0  1  0  0  3  0  0  0  0  0  0
  162.2210  207.1760  151.4030 C   0  0  0  0  0  2  0  0  0  0  0  0
  162.0620  209.5830  152.1350 C   0  0  0  0  0  2  0  0  0  0  0  0
  157.6750  212.5920  155.6300 C   0  0  0  0  0  0  0  0  0  0  0  0
  160.0330  209.2710  156.4130 O   0  0  0  0  0  0  0  0  0  0  0  0
  160.8920  209.8240  153.0380 C   0  0  0  0  0  0  0  0  0  0  0  0
  159.9310  209.7350  155.2500 C   0  0  0  0  0  0  0  0  0  0  0  0
  158.3660  211.5260  155.9120 N   0  0  0  0  0  0  0  0  0  0  0  0
  157.4480  212.9550  154.2680 N   0  0  0  0  0  2  0  0  0  0  0  0
  160.9250  209.4020  154.2690 N   0  0  0  0  0  0  0  0  0  0  0  0
  158.2030  212.3110  153.2360 C   0  0  0  0  0  3  0  0  0  0  0  0
  158.7390  210.5670  154.8710 C   0  0  1  0  0  3  0  0  0  0  0  0
  157.2370  213.4970  156.7230 C   0  0  0  0  0  1  0  0  0  0  0  0
  158.9140  211.2250  153.5290 C   0  0  0  0  0  0  0  0  0  0  0  0
  159.8530  210.7040  152.5950 N   0  0  0  0  0  2  0  0  0  0  0  0
  161.6440  210.7510  148.0240 O   0  0  0  0  0  0  0  0  0  0  0  0
  161.2990  212.0860  147.6650 C   0  0  2  0  0  3  0  0  0  0  0  0
  159.3100  213.0270  144.5450 N   0  0  0  0  0  0  0  0  0  0  0  0
  158.8800  212.7300  147.3290 C   0  0  0  0  0  2  0  0  0  0  0  0
  160.1160  212.0840  146.6810 C   0  0  1  0  0  3  0  0  0  0  0  0
  159.4150  212.9200  143.1230 C   0  0  0  0  0  0  0  0  0  0  0  0
  160.4880  212.8300  145.3880 C   0  0  0  0  0  2  0  0  0  0  0  0
  158.5880  213.5300  142.3830 O   0  0  0  0  0  0  0  0  0  0  0  0
  158.1060  213.5950  145.1490 C   0  0  0  0  0  2  0  0  0  0  0  0
  157.7160  212.7600  146.3520 C   0  0  0  0  0  2  0  0  0  0  0  0
  160.4120  212.1170  142.5590 O   0  0  0  0  0  0  0  0  0  0  0  0
  160.0310  211.3720  139.9590 C   0  0  0  0  0  1  0  0  0  0  0  0
  161.4320  212.6500  141.7080 C   0  0  1  0  0  3  0  0  0  0  0  0
  162.5710  211.8600  139.6430 C   0  0  2  0  0  3  0  0  0  0  0  0
  162.2220  211.5130  141.0820 C   0  0  2  0  0  3  0  0  0  0  0  0
  161.2270  212.2920  140.2400 C   0  0  2  0  0  0  0  0  0  0  0  0
  162.4890  210.6110  138.7780 C   0  0  0  0  0  1  0  0  0  0  0  0
  162.9720  213.8000  147.8600 O   0  0  0  0  0  1  0  0  0  0  0  0
  162.5260  212.7480  147.0520 C   0  0  0  0  0  2  0  0  0  0  0  0
  1  2  2  0  0  0  0
  4  5  1  0  0  0  0
  5 10  1  0  0  0  0
  6  4  1  0  0  0  0
  7  3  1  1  0  0  0
  7  6  1  0  0  0  0
  7  8  1  0  0  0  0
  8  1  1  6  0  0  0
  8  9  1  0  0  0  0
  9 10  1  0  0  0  0
  9 11  1  1  0  0  0
 11 14  1  0  0  0  0
 12 16  2  0  0  0  0
 12 21  1  0  0  0  0
 14 18  2  0  0  0  0
 15 13  2  0  0  0  0
 17 12  1  0  0  0  0
 18 15  1  0  0  0  0
 19 22  2  0  0  0  0
 19 17  1  0  0  0  0
 20 22  1  6  0  0  0
 20 15  1  0  0  0  0
 20 16  1  0  0  0  0
 23 14  1  0  0  0  0
 23 22  1  0  0  0  0
 24  1  1  0  0  0  0
 25 42  1  6  0  0  0
 25 24  1  0  0  0  0
 26 32  1  0  0  0  0
 26 30  1  0  0  0  0
 28 27  1  0  0  0  0
 28 25  1  1  0  0  0
 29 26  1  0  0  0  0
 30 28  1  0  0  0  0
 31 29  2  0  0  0  0
 32 33  1  0  0  0  0
 33 27  1  0  0  0  0
 34 29  1  0  0  0  0
 35 39  1  0  0  0  0
 36 34  1  1  0  0  0
 37 40  1  6  0  0  0
 37 39  1  0  0  0  0
 37 38  1  0  0  0  0
 38 36  1  0  0  0  0
 39 38  1  0  0  0  0
 39 36  1  0  0  0  0
 42 41  1  0  0  0  0
M  END
>  <MODEL>
8

>  <REMARK>
 VINA RESULT:      -5.7      4.795      7.387
  Name = 
  9 active torsions:
  status: ('A' for Active; 'I' for Inactive)
    1  A    between atoms: C_2  and  O_36
    2  A    between atoms: C_3  and  C_16
    3  A    between atoms: C_3  and  C_29
    4  A    between atoms: O_4  and  C_8
    5  A    between atoms: O_4  and  C_30
    6  A    between atoms: C_8  and  C_25
    7  A    between atoms: C_21  and  C_30
    8  A    between atoms: C_28  and  O_36
    9  A    between atoms: C_30  and  C_42
                            x       y       z     vdW  Elec       q    Type
                         _______ _______ _______ _____ _____    ______ ____

>  <TORSDO>
F 9

$$$$
=
 OpenBabel11072411223D

 42 47  0  0  1  0  0  0  0  0999 V2000
  161.9990  212.1350  147.9040 C   0  0  0  0  0  0  0  0  0  0  0  0
  163.2480  212.3030  147.8400 O   0  0  0  0  0  0  0  0  0  0  0  0
  158.9690  211.9970  147.7310 F   0  0  0  0  0  0  0  0  0  0  0  0
  158.0380  214.4530  146.6650 C   0  0  0  0  0  2  0  0  0  0  0  0
  158.7040  214.1220  145.3260 C   0  0  0  0  0  2  0  0  0  0  0  0
  158.9400  214.4110  147.9030 C   0  0  0  0  0  2  0  0  0  0  0  0
  159.7240  213.1090  148.0720 C   0  0  2  0  0  3  0  0  0  0  0  0
  161.0670  213.1530  147.3280 C   0  0  2  0  0  3  0  0  0  0  0  0
  160.9150  213.0990  145.7950 C   0  0  1  0  0  3  0  0  0  0  0  0
  160.2030  214.3620  145.3040 C   0  0  0  0  0  2  0  0  0  0  0  0
  162.2650  212.9310  145.0710 C   0  0  0  0  0  2  0  0  0  0  0  0
  161.8310  211.2430  138.9490 C   0  0  0  0  0  0  0  0  0  0  0  0
  163.8310  214.3560  140.8240 O   0  0  0  0  0  0  0  0  0  0  0  0
  162.0920  213.0210  143.5860 C   0  0  0  0  0  0  0  0  0  0  0  0
  162.9690  213.6770  141.4360 C   0  0  0  0  0  0  0  0  0  0  0  0
  162.4480  212.2560  139.4850 N   0  0  0  0  0  0  0  0  0  0  0  0
  160.7340  210.6360  139.6310 N   0  0  0  0  0  2  0  0  0  0  0  0
  162.9570  213.6810  142.8710 N   0  0  0  0  0  0  0  0  0  0  0  0
  160.4960  210.9600  141.0050 C   0  0  0  0  0  3  0  0  0  0  0  0
  161.9150  212.9300  140.6690 C   0  0  1  0  0  3  0  0  0  0  0  0
  162.3520  210.6410  137.6960 C   0  0  0  0  0  1  0  0  0  0  0  0
  161.1340  211.9920  141.5510 C   0  0  0  0  0  0  0  0  0  0  0  0
  161.1030  212.1960  142.9600 N   0  0  0  0  0  2  0  0  0  0  0  0
  161.4730  210.9540  148.4190 O   0  0  0  0  0  0  0  0  0  0  0  0
  162.2920  209.9620  149.0300 C   0  0  2  0  0  3  0  0  0  0  0  0
  161.5160  206.4150  150.2140 N   0  0  0  0  0  0  0  0  0  0  0  0
  161.6940  207.8510  147.7780 C   0  0  0  0  0  2  0  0  0  0  0  0
  161.5400  208.6210  149.1010 C   0  0  1  0  0  3  0  0  0  0  0  0
  161.1510  205.7330  151.4150 C   0  0  0  0  0  0  0  0  0  0  0  0
  162.0620  207.7710  150.2730 C   0  0  0  0  0  2  0  0  0  0  0  0
  161.1430  204.4670  151.4430 O   0  0  0  0  0  0  0  0  0  0  0  0
  161.6070  205.6810  148.9530 C   0  0  0  0  0  2  0  0  0  0  0  0
  160.9810  206.5110  147.8510 C   0  0  0  0  0  2  0  0  0  0  0  0
  160.7730  206.4680  152.5440 O   0  0  0  0  0  0  0  0  0  0  0  0
  160.0260  207.1540  155.0800 C   0  0  0  0  0  1  0  0  0  0  0  0
  161.5530  207.5600  153.0410 C   0  0  1  0  0  3  0  0  0  0  0  0
  161.1070  209.4690  154.5710 C   0  0  2  0  0  3  0  0  0  0  0  0
  160.6500  208.7530  153.3090 C   0  0  2  0  0  3  0  0  0  0  0  0
  161.1940  207.9420  154.4720 C   0  0  2  0  0  0  0  0  0  0  0  0
  159.8960  209.9690  155.3460 C   0  0  0  0  0  1  0  0  0  0  0  0
  161.5370  210.7740  151.1620 O   0  0  0  0  0  1  0  0  0  0  0  0
  162.6780  210.4520  150.4200 C   0  0  0  0  0  2  0  0  0  0  0  0
  1 24  1  0  0  0  0
  2  1  2  0  0  0  0
  4  6  1  0  0  0  0
  5  4  1  0  0  0  0
  6  7  1  0  0  0  0
  7  3  1  6  0  0  0
  8  1  1  1  0  0  0
  8  7  1  0  0  0  0
  9 11  1  6  0  0  0
  9  8  1  0  0  0  0
 10  5  1  0  0  0  0
 10  9  1  0  0  0  0
 12 16  2  0  0  0  0
 12 17  1  0  0  0  0
 13 15  2  0  0  0  0
 14 11  1  0  0  0  0
 15 18  1  0  0  0  0
 17 19  1  0  0  0  0
 18 14  2  0  0  0  0
 19 22  2  0  0  0  0
 20 16  1  6  0  0  0
 20 15  1  0  0  0  0
 20 22  1  0  0  0  0
 21 12  1  0  0  0  0
 22 23  1  0  0  0  0
 23 14  1  0  0  0  0
 24 25  1  0  0  0  0
 25 42  1  1  0  0  0
 26 30  1  0  0  0  0
 26 29  1  0  0  0  0
 27 33  1  0  0  0  0
 27 28  1  0  0  0  0
 28 25  1  6  0  0  0
 28 30  1  0  0  0  0
 29 31  2  0  0  0  0
 29 34  1  0  0  0  0
 32 26  1  0  0  0  0
 33 32  1  0  0  0  0
 36 34  1  6  0  0  0
 36 38  1  0  0  0  0
 36 39  1  0  0  0  0
 37 40  1  1  0  0  0
 38 39  1  0  0  0  0
 38 37  1  0  0  0  0
 39 37  1  0  0  0  0
 39 35  1  0  0  0  0
 42 41  1  0  0  0  0
M  END
>  <MODEL>
9

>  <REMARK>
 VINA RESULT:      -5.3      5.950      9.953
  Name = 
  9 active torsions:
  status: ('A' for Active; 'I' for Inactive)
    1  A    between atoms: C_2  and  O_36
    2  A    between atoms: C_3  and  C_16
    3  A    between atoms: C_3  and  C_29
    4  A    between atoms: O_4  and  C_8
    5  A    between atoms: O_4  and  C_30
    6  A    between atoms: C_8  and  C_25
    7  A    between atoms: C_21  and  C_30
    8  A    between atoms: C_28  and  O_36
    9  A    between atoms: C_30  and  C_42
                            x       y       z     vdW  Elec       q    Type
                         _______ _______ _______ _____ _____    ______ ____

>  <TORSDO>
F 9

$$$$
