=
 OpenBabel11072410093D

 43 44  0  0  1  0  0  0  0  0999 V2000
  161.5890  207.2540  150.7430 C   0  0  0  0  0  0  0  0  0  0  0  0
  160.9720  205.1510  153.6330 N   0  0  0  0  0  0  0  0  0  0  0  0
  161.6250  207.4490  153.3360 C   0  0  0  0  0  3  0  0  0  0  0  0
  161.4250  206.7500  152.0390 C   0  0  0  0  0  0  0  0  0  0  0  0
  160.9720  205.0420  149.8830 C   0  0  0  0  0  0  0  0  0  0  0  0
  161.0620  205.4550  152.2560 C   0  0  0  0  0  0  0  0  0  0  0  0
  161.3740  206.3900  149.6500 C   0  0  0  0  0  0  0  0  0  0  0  0
  160.7020  204.2060  148.8060 O   0  0  0  0  0  1  0  0  0  0  0  0
  160.8280  204.5620  151.2120 C   0  0  0  0  0  0  0  0  0  0  0  0
  161.3040  206.3610  154.3800 C   0  0  0  0  0  2  0  0  0  0  0  0
  161.3590  202.1460  151.5890 C   0  0  0  0  0  1  0  0  0  0  0  0
  160.4620  203.2460  151.5370 O   0  0  0  0  0  0  0  0  0  0  0  0
  161.5630  206.9060  148.3570 O   0  0  0  0  0  0  0  0  0  0  0  0
  162.5800  206.4790  147.4580 C   0  0  0  0  0  2  0  0  0  0  0  0
  162.6310  205.9730  144.7860 O   0  0  0  0  0  0  0  0  0  0  0  0
  160.2430  206.1760  145.8450 O   0  0  0  0  0  1  0  0  0  0  0  0
  161.8360  205.6390  146.0280 P   0  0  2  0  0  0  0  0  0  0  0  0
  161.8660  203.9640  146.2960 O   0  0  0  0  0  0  0  0  0  0  0  0
  161.0870  203.4070  145.2800 C   0  0  0  0  0  2  0  0  0  0  0  0
  161.0640  201.5350  146.7480 O   0  0  0  0  0  1  0  0  0  0  0  0
  159.8580  201.2850  144.8160 O   0  0  0  0  0  0  0  0  0  0  0  0
  160.6610  202.0350  145.6670 C   0  0  0  0  0  0  0  0  0  0  0  0
  162.0100  208.6810  150.5000 C   0  0  2  0  0  3  0  0  0  0  0  0
  161.8220  209.5540  151.7500 C   0  0  1  0  0  3  0  0  0  0  0  0
  163.0360  210.4370  151.9960 C   0  0  0  0  0  1  0  0  0  0  0  0
  160.5640  210.4150  151.6610 C   0  0  0  0  0  2  0  0  0  0  0  0
  159.8340  210.3580  152.8510 O   0  0  0  0  0  1  0  0  0  0  0  0
  161.2990  209.2040  149.4140 O   0  0  0  0  0  0  0  0  0  0  0  0
  162.2610  209.8310  148.6180 C   0  0  0  0  0  2  0  0  0  0  0  0
  162.0100  211.3260  148.5920 C   0  0  0  0  0  2  0  0  0  0  0  0
  161.1370  211.6440  147.5390 O   0  0  0  0  0  0  0  0  0  0  0  0
  161.3330  212.9930  147.1640 C   0  0  2  0  0  3  0  0  0  0  0  0
  160.0570  213.8480  147.1880 C   0  0  0  0  0  2  0  0  0  0  0  0
  158.7880  213.0490  147.5070 C   0  0  2  0  0  3  0  0  0  0  0  0
  157.9060  213.0310  146.4200 O   0  0  0  0  0  1  0  0  0  0  0  0
  158.1530  213.4900  148.6880 O   0  0  0  0  0  0  0  0  0  0  0  0
  156.7690  213.5580  148.4630 C   0  0  0  0  0  1  0  0  0  0  0  0
  162.2290  213.1930  145.9350 C   0  0  0  0  0  2  0  0  0  0  0  0
  161.5260  214.0160  144.8670 C   0  0  0  0  0  2  0  0  0  0  0  0
  160.1790  213.9150  142.3440 O   0  0  0  0  0  0  0  0  0  0  0  0
  160.9840  212.9630  143.4860 P   0  0  0  0  0  0  0  0  0  0  0  0
  160.0450  211.8910  143.9930 O   0  0  0  0  0  1  0  0  0  0  0  0
  162.3280  212.2350  142.7610 O   0  0  0  0  0  1  0  0  0  0  0  0
  1  4  1  0  0  0  0
  2 10  1  0  0  0  0
  3 10  1  0  0  0  0
  4  6  1  0  0  0  0
  4  3  2  0  0  0  0
  5  9  2  0  0  0  0
  6  2  2  0  0  0  0
  7  5  1  0  0  0  0
  7  1  2  0  0  0  0
  8  5  1  0  0  0  0
  9 12  1  0  0  0  0
  9  6  1  0  0  0  0
 12 11  1  0  0  0  0
 13  7  1  0  0  0  0
 14 13  1  0  0  0  0
 16 17  1  0  0  0  0
 17 15  2  6  0  0  0
 17 18  1  0  0  0  0
 17 14  1  0  0  0  0
 19 22  1  0  0  0  0
 19 18  1  0  0  0  0
 21 22  2  0  0  0  0
 22 20  1  0  0  0  0
 23 28  1  6  0  0  0
 23  1  1  0  0  0  0
 23 24  1  0  0  0  0
 24 25  1  6  0  0  0
 26 24  1  0  0  0  0
 26 27  1  0  0  0  0
 29 28  1  0  0  0  0
 30 29  1  0  0  0  0
 31 30  1  0  0  0  0
 32 38  1  6  0  0  0
 32 33  1  0  0  0  0
 32 31  1  0  0  0  0
 33 34  1  0  0  0  0
 34 35  1  6  0  0  0
 34 36  1  0  0  0  0
 37 36  1  0  0  0  0
 39 38  1  0  0  0  0
 40 41  2  0  0  0  0
 41 42  1  0  0  0  0
 41 39  1  0  0  0  0
 43 41  1  0  0  0  0
M  END
>  <MODEL>
1

>  <REMARK>
 VINA RESULT:      -5.5      0.000      0.000
  Name = 
  21 active torsions:
  status: ('A' for Active; 'I' for Inactive)
    1  A    between atoms: O_1  and  C_11
    2  A    between atoms: O_2  and  C_24
    3  A    between atoms: O_2  and  C_34
    4  A    between atoms: O_3  and  C_14
    5  A    between atoms: O_3  and  C_23
    6  A    between atoms: C_4  and  C_8
    7  A    between atoms: C_4  and  P_22
    8  A    between atoms: C_5  and  C_34
    9  A    between atoms: O_6  and  C_30
   10  A    between atoms: O_6  and  P_36
   11  A    between atoms: C_8  and  C_14
   12  A    between atoms: C_11  and  C_40
   13  A    between atoms: C_14  and  C_40
   14  A    between atoms: O_18  and  C_42
   15  A    between atoms: C_19  and  C_32
   16  A    between atoms: C_19  and  C_34
   17  A    between atoms: C_23  and  C_24
   18  A    between atoms: C_25  and  P_36
   19  A    between atoms: C_25  and  O_38
   20  A    between atoms: C_30  and  C_33
   21  A    between atoms: C_37  and  O_38
                            x       y       z     vdW  Elec       q    Type
                         _______ _______ _______ _____ _____    ______ ____

>  <TORSDO>
F 21

$$$$
=
 OpenBabel11072410093D

 43 44  0  0  1  0  0  0  0  0999 V2000
  159.7730  213.1450  148.5780 C   0  0  0  0  0  0  0  0  0  0  0  0
  156.8460  213.5190  146.4680 N   0  0  0  0  0  0  0  0  0  0  0  0
  159.1320  212.8770  146.0720 C   0  0  0  0  0  3  0  0  0  0  0  0
  158.8730  213.1760  147.5050 C   0  0  0  0  0  0  0  0  0  0  0  0
  157.9390  213.8610  150.0400 C   0  0  0  0  0  0  0  0  0  0  0  0
  157.5720  213.5390  147.6800 C   0  0  0  0  0  0  0  0  0  0  0  0
  159.3070  213.5050  149.8600 C   0  0  1  0  0  3  0  0  0  0  0  0
  157.4640  214.1570  151.3140 O   0  0  0  0  0  1  0  0  0  0  0  0
  157.0590  213.8930  148.9270 C   0  0  0  0  0  0  0  0  0  0  0  0
  157.7600  213.1020  145.4070 C   0  0  0  0  0  3  0  0  0  0  0  0
  154.9520  214.3220  150.2080 C   0  0  0  0  0  1  0  0  0  0  0  0
  155.7040  214.2560  149.0050 O   0  0  0  0  0  0  0  0  0  0  0  0
  160.2280  213.4890  150.9220 O   0  0  0  0  0  0  0  0  0  0  0  0
  160.7290  212.3090  151.5370 C   0  0  0  0  0  2  0  0  0  0  0  0
  158.7750  211.0180  152.9220 O   0  0  0  0  0  0  0  0  0  0  0  0
  159.2320  213.4890  153.6640 O   0  0  0  0  0  1  0  0  0  0  0  0
  159.8840  212.0260  153.1230 P   0  0  2  0  0  0  0  0  0  0  0  0
  161.0070  211.4300  154.2460 O   0  0  0  0  0  0  0  0  0  0  0  0
  160.4850  210.2130  154.6890 C   0  0  0  0  0  2  0  0  0  0  0  0
  161.6120  210.8100  156.6980 O   0  0  0  0  0  1  0  0  0  0  0  0
  160.7070  208.7050  156.6650 O   0  0  0  0  0  0  0  0  0  0  0  0
  160.9540  209.9380  156.0740 C   0  0  0  0  0  0  0  0  0  0  0  0
  161.2180  212.7640  148.3850 C   0  0  2  0  0  3  0  0  0  0  0  0
  161.9790  213.8080  147.5540 C   0  0  1  0  0  3  0  0  0  0  0  0
  163.0970  214.4510  148.3620 C   0  0  0  0  0  1  0  0  0  0  0  0
  162.5460  213.2110  146.2680 C   0  0  0  0  0  2  0  0  0  0  0  0
  162.5700  214.1620  145.2440 O   0  0  0  0  0  1  0  0  0  0  0  0
  161.2970  211.5000  147.7910 O   0  0  0  0  0  0  0  0  0  0  0  0
  162.2390  210.8010  148.5490 C   0  0  0  0  0  2  0  0  0  0  0  0
  161.6310  209.5100  149.0620 C   0  0  0  0  0  2  0  0  0  0  0  0
  161.7310  208.5130  148.0770 O   0  0  0  0  0  0  0  0  0  0  0  0
  161.6010  207.2440  148.6870 C   0  0  2  0  0  3  0  0  0  0  0  0
  160.7410  206.2470  147.8960 C   0  0  0  0  0  2  0  0  0  0  0  0
  161.1720  206.0900  146.4320 C   0  0  2  0  0  3  0  0  0  0  0  0
  160.1800  206.5420  145.5540 O   0  0  0  0  0  1  0  0  0  0  0  0
  161.5820  204.7760  146.1260 O   0  0  0  0  0  0  0  0  0  0  0  0
  162.8890  204.5830  146.6040 C   0  0  0  0  0  1  0  0  0  0  0  0
  161.3310  207.2820  150.1970 C   0  0  0  0  0  2  0  0  0  0  0  0
  162.3070  206.3950  150.9550 C   0  0  0  0  0  2  0  0  0  0  0  0
  160.9570  205.4430  153.2920 O   0  0  0  0  0  1  0  0  0  0  0  0
  161.4430  204.9970  151.7340 P   0  0  0  0  0  0  0  0  0  0  0  0
  162.3680  203.8040  151.8230 O   0  0  0  0  0  1  0  0  0  0  0  0
  160.0800  204.5850  150.8190 O   0  0  0  0  0  0  0  0  0  0  0  0
  1  7  1  0  0  0  0
  2  6  2  0  0  0  0
  3  4  1  0  0  0  0
  4  6  1  0  0  0  0
  4  1  2  0  0  0  0
  5  8  1  0  0  0  0
  6  9  1  0  0  0  0
  7  5  1  0  0  0  0
  7 13  1  1  0  0  0
  9 12  1  0  0  0  0
  9  5  2  0  0  0  0
 10  3  2  0  0  0  0
 10  2  1  0  0  0  0
 12 11  1  0  0  0  0
 13 14  1  0  0  0  0
 14 17  1  0  0  0  0
 17 15  2  6  0  0  0
 17 16  1  0  0  0  0
 17 18  1  0  0  0  0
 18 19  1  0  0  0  0
 19 22  1  0  0  0  0
 22 21  2  0  0  0  0
 22 20  1  0  0  0  0
 23 28  1  6  0  0  0
 23  1  1  0  0  0  0
 24 25  1  1  0  0  0
 24 23  1  0  0  0  0
 26 24  1  0  0  0  0
 27 26  1  0  0  0  0
 28 29  1  0  0  0  0
 29 30  1  0  0  0  0
 31 32  1  0  0  0  0
 31 30  1  0  0  0  0
 32 33  1  6  0  0  0
 32 38  1  0  0  0  0
 34 35  1  6  0  0  0
 34 33  1  0  0  0  0
 36 34  1  0  0  0  0
 36 37  1  0  0  0  0
 38 39  1  0  0  0  0
 39 41  1  0  0  0  0
 41 42  1  0  0  0  0
 41 40  1  0  0  0  0
 43 41  2  0  0  0  0
M  END
>  <MODEL>
2

>  <REMARK>
 VINA RESULT:      -5.3      3.344      9.509
  Name = 
  21 active torsions:
  status: ('A' for Active; 'I' for Inactive)
    1  A    between atoms: O_1  and  C_11
    2  A    between atoms: O_2  and  C_24
    3  A    between atoms: O_2  and  C_34
    4  A    between atoms: O_3  and  C_14
    5  A    between atoms: O_3  and  C_23
    6  A    between atoms: C_4  and  C_8
    7  A    between atoms: C_4  and  P_22
    8  A    between atoms: C_5  and  C_34
    9  A    between atoms: O_6  and  C_30
   10  A    between atoms: O_6  and  P_36
   11  A    between atoms: C_8  and  C_14
   12  A    between atoms: C_11  and  C_40
   13  A    between atoms: C_14  and  C_40
   14  A    between atoms: O_18  and  C_42
   15  A    between atoms: C_19  and  C_32
   16  A    between atoms: C_19  and  C_34
   17  A    between atoms: C_23  and  C_24
   18  A    between atoms: C_25  and  P_36
   19  A    between atoms: C_25  and  O_38
   20  A    between atoms: C_30  and  C_33
   21  A    between atoms: C_37  and  O_38
                            x       y       z     vdW  Elec       q    Type
                         _______ _______ _______ _____ _____    ______ ____

>  <TORSDO>
F 21

$$$$
=
 OpenBabel11072410093D

 43 44  0  0  1  0  0  0  0  0999 V2000
  159.5710  213.3160  148.5670 C   0  0  0  0  0  0  0  0  0  0  0  0
  156.7320  213.9210  146.3920 N   0  0  0  0  0  0  0  0  0  0  0  0
  159.0270  213.2940  146.0240 C   0  0  0  0  0  3  0  0  0  0  0  0
  158.7140  213.4580  147.4680 C   0  0  0  0  0  0  0  0  0  0  0  0
  157.6870  213.9090  150.0200 C   0  0  0  0  0  0  0  0  0  0  0  0
  157.4100  213.8170  147.6270 C   0  0  0  0  0  0  0  0  0  0  0  0
  159.0580  213.5560  149.8590 C   0  0  1  0  0  3  0  0  0  0  0  0
  157.1650  214.0870  151.2970 O   0  0  0  0  0  1  0  0  0  0  0  0
  156.8510  214.0560  148.8820 C   0  0  0  0  0  0  0  0  0  0  0  0
  157.6830  213.5970  145.3320 C   0  0  0  0  0  3  0  0  0  0  0  0
  154.6850  214.3350  150.1040 C   0  0  0  0  0  1  0  0  0  0  0  0
  155.4970  214.4250  148.9430 O   0  0  0  0  0  0  0  0  0  0  0  0
  159.9360  213.4290  150.9480 O   0  0  0  0  0  0  0  0  0  0  0  0
  160.3040  212.1930  151.5480 C   0  0  0  0  0  2  0  0  0  0  0  0
  158.3860  211.2400  153.2260 O   0  0  0  0  0  0  0  0  0  0  0  0
  159.2510  213.6550  153.7640 O   0  0  0  0  0  1  0  0  0  0  0  0
  159.6340  212.0950  153.2350 P   0  0  2  0  0  0  0  0  0  0  0  0
  160.8000  211.3980  154.2520 O   0  0  0  0  0  0  0  0  0  0  0  0
  160.1900  210.2710  154.8050 C   0  0  0  0  0  2  0  0  0  0  0  0
  161.0540  210.8380  156.9490 O   0  0  0  0  0  1  0  0  0  0  0  0
  161.2510  208.6320  156.3610 O   0  0  0  0  0  0  0  0  0  0  0  0
  160.8390  209.9330  156.1020 C   0  0  0  0  0  0  0  0  0  0  0  0
  161.0200  212.9390  148.3940 C   0  0  2  0  0  3  0  0  0  0  0  0
  161.7040  213.7820  147.3080 C   0  0  1  0  0  3  0  0  0  0  0  0
  162.9630  214.4530  147.8390 C   0  0  0  0  0  1  0  0  0  0  0  0
  162.0400  212.9550  146.0690 C   0  0  0  0  0  2  0  0  0  0  0  0
  163.0040  213.5960  145.2870 O   0  0  0  0  0  1  0  0  0  0  0  0
  161.1200  211.5740  148.1030 O   0  0  0  0  0  0  0  0  0  0  0  0
  162.1660  211.1080  148.9030 C   0  0  0  0  0  2  0  0  0  0  0  0
  161.7410  209.8400  149.6170 C   0  0  0  0  0  2  0  0  0  0  0  0
  162.4010  208.7340  149.0560 O   0  0  0  0  0  0  0  0  0  0  0  0
  161.5940  207.5840  149.2110 C   0  0  2  0  0  3  0  0  0  0  0  0
  161.4150  207.1270  150.6660 C   0  0  0  0  0  2  0  0  0  0  0  0
  161.4160  205.6030  150.8370 C   0  0  2  0  0  3  0  0  0  0  0  0
  160.2450  205.0290  150.3280 O   0  0  0  0  0  1  0  0  0  0  0  0
  161.6560  205.2080  152.1690 O   0  0  0  0  0  0  0  0  0  0  0  0
  161.9150  206.3500  152.9450 C   0  0  0  0  0  1  0  0  0  0  0  0
  161.8770  206.4610  148.2050 C   0  0  0  0  0  2  0  0  0  0  0  0
  160.7060  206.2590  147.2570 C   0  0  0  0  0  2  0  0  0  0  0  0
  162.7130  205.8880  145.2520 O   0  0  0  0  0  1  0  0  0  0  0  0
  161.2140  205.3170  145.7860 P   0  0  0  0  0  0  0  0  0  0  0  0
  160.1930  205.4890  144.6850 O   0  0  0  0  0  0  0  0  0  0  0  0
  161.3480  203.6760  146.1770 O   0  0  0  0  0  1  0  0  0  0  0  0
  1  7  1  0  0  0  0
  2  6  2  0  0  0  0
  3  4  1  0  0  0  0
  4  6  1  0  0  0  0
  4  1  2  0  0  0  0
  5  8  1  0  0  0  0
  6  9  1  0  0  0  0
  7  5  1  0  0  0  0
  7 13  1  1  0  0  0
  9 12  1  0  0  0  0
  9  5  2  0  0  0  0
 10  3  2  0  0  0  0
 10  2  1  0  0  0  0
 12 11  1  0  0  0  0
 13 14  1  0  0  0  0
 14 17  1  0  0  0  0
 17 15  2  1  0  0  0
 17 16  1  0  0  0  0
 17 18  1  0  0  0  0
 18 19  1  0  0  0  0
 19 22  1  0  0  0  0
 22 21  2  0  0  0  0
 22 20  1  0  0  0  0
 23 28  1  6  0  0  0
 23  1  1  0  0  0  0
 24 25  1  1  0  0  0
 24 23  1  0  0  0  0
 26 24  1  0  0  0  0
 27 26  1  0  0  0  0
 28 29  1  0  0  0  0
 29 30  1  0  0  0  0
 31 32  1  0  0  0  0
 31 30  1  0  0  0  0
 32 38  1  6  0  0  0
 32 33  1  0  0  0  0
 33 34  1  0  0  0  0
 34 35  1  1  0  0  0
 34 36  1  0  0  0  0
 36 37  1  0  0  0  0
 39 38  1  0  0  0  0
 40 41  1  0  0  0  0
 41 43  1  0  0  0  0
 41 39  1  0  0  0  0
 42 41  2  0  0  0  0
M  END
>  <MODEL>
3

>  <REMARK>
 VINA RESULT:      -5.1      3.131      9.221
  Name = 
  21 active torsions:
  status: ('A' for Active; 'I' for Inactive)
    1  A    between atoms: O_1  and  C_11
    2  A    between atoms: O_2  and  C_24
    3  A    between atoms: O_2  and  C_34
    4  A    between atoms: O_3  and  C_14
    5  A    between atoms: O_3  and  C_23
    6  A    between atoms: C_4  and  C_8
    7  A    between atoms: C_4  and  P_22
    8  A    between atoms: C_5  and  C_34
    9  A    between atoms: O_6  and  C_30
   10  A    between atoms: O_6  and  P_36
   11  A    between atoms: C_8  and  C_14
   12  A    between atoms: C_11  and  C_40
   13  A    between atoms: C_14  and  C_40
   14  A    between atoms: O_18  and  C_42
   15  A    between atoms: C_19  and  C_32
   16  A    between atoms: C_19  and  C_34
   17  A    between atoms: C_23  and  C_24
   18  A    between atoms: C_25  and  P_36
   19  A    between atoms: C_25  and  O_38
   20  A    between atoms: C_30  and  C_33
   21  A    between atoms: C_37  and  O_38
                            x       y       z     vdW  Elec       q    Type
                         _______ _______ _______ _____ _____    ______ ____

>  <TORSDO>
F 21

$$$$
=
 OpenBabel11072410093D

 43 44  0  0  1  0  0  0  0  0999 V2000
  160.4790  211.0330  152.1770 C   0  0  0  0  0  0  0  0  0  0  0  0
  161.6220  212.1580  148.9230 N   0  0  0  0  0  0  0  0  0  0  0  0
  161.9580  210.1610  150.2240 C   0  0  0  0  0  3  0  0  0  0  0  0
  161.0780  211.1390  150.9150 C   0  0  0  0  0  0  0  0  0  0  0  0
  159.5240  213.2650  151.8300 C   0  0  0  0  0  0  0  0  0  0  0  0
  160.9200  212.2520  150.1460 C   0  0  0  0  0  0  0  0  0  0  0  0
  159.7030  212.1120  152.6490 C   0  0  1  0  0  3  0  0  0  0  0  0
  158.7100  214.3040  152.2680 O   0  0  0  0  0  1  0  0  0  0  0  0
  160.1560  213.3420  150.5610 C   0  0  0  0  0  0  0  0  0  0  0  0
  162.2950  210.8620  148.8940 C   0  0  0  0  0  3  0  0  0  0  0  0
  159.9630  214.3620  148.2840 C   0  0  0  0  0  1  0  0  0  0  0  0
  160.0570  214.4460  149.6980 O   0  0  0  0  0  0  0  0  0  0  0  0
  159.1270  211.9980  153.9250 O   0  0  0  0  0  0  0  0  0  0  0  0
  158.9730  213.0770  154.8400 C   0  0  0  0  0  2  0  0  0  0  0  0
  157.7940  213.7170  157.2070 O   0  0  0  0  0  1  0  0  0  0  0  0
  158.5950  211.2320  156.9870 O   0  0  0  0  0  0  0  0  0  0  0  0
  157.9050  212.5740  156.2230 P   0  0  2  0  0  0  0  0  0  0  0  0
  156.3690  212.1830  155.6200 O   0  0  0  0  0  0  0  0  0  0  0  0
  155.6340  211.7430  156.7220 C   0  0  0  0  0  2  0  0  0  0  0  0
  153.9800  210.0860  157.1500 O   0  0  0  0  0  1  0  0  0  0  0  0
  155.0480  209.9120  155.1300 O   0  0  0  0  0  0  0  0  0  0  0  0
  154.8300  210.5480  156.3460 C   0  0  0  0  0  0  0  0  0  0  0  0
  160.6680  209.8120  153.0390 C   0  0  2  0  0  3  0  0  0  0  0  0
  161.0220  210.1820  154.4870 C   0  0  1  0  0  3  0  0  0  0  0  0
  160.6620  209.0600  155.4500 C   0  0  0  0  0  1  0  0  0  0  0  0
  162.4980  210.5430  154.6400 C   0  0  0  0  0  2  0  0  0  0  0  0
  162.7870  210.9180  155.9540 O   0  0  0  0  0  1  0  0  0  0  0  0
  161.6500  208.9870  152.4800 O   0  0  0  0  0  0  0  0  0  0  0  0
  161.1190  207.6970  152.5400 C   0  0  0  0  0  2  0  0  0  0  0  0
  161.6810  206.8570  151.4090 C   0  0  0  0  0  2  0  0  0  0  0  0
  160.7460  206.7800  150.3630 O   0  0  0  0  0  0  0  0  0  0  0  0
  161.0030  205.6220  149.5950 C   0  0  2  0  0  3  0  0  0  0  0  0
  161.5140  204.4240  150.4100 C   0  0  0  0  0  2  0  0  0  0  0  0
  160.7470  203.1240  150.1390 C   0  0  2  0  0  3  0  0  0  0  0  0
  161.0940  202.1230  151.0540 O   0  0  0  0  0  1  0  0  0  0  0  0
  160.8810  202.6830  148.8060 O   0  0  0  0  0  0  0  0  0  0  0  0
  160.6550  201.2980  148.7580 C   0  0  0  0  0  1  0  0  0  0  0  0
  161.7430  205.8770  148.2760 C   0  0  0  0  0  2  0  0  0  0  0  0
  160.7980  205.7970  147.0880 C   0  0  0  0  0  2  0  0  0  0  0  0
  161.1180  203.3690  145.6080 O   0  0  0  0  0  1  0  0  0  0  0  0
  161.6010  204.9880  145.6710 P   0  0  0  0  0  0  0  0  0  0  0  0
  163.1040  205.0540  145.8240 O   0  0  0  0  0  1  0  0  0  0  0  0
  161.1480  205.7640  144.2370 O   0  0  0  0  0  0  0  0  0  0  0  0
  1  7  1  0  0  0  0
  1 23  1  0  0  0  0
  2  6  2  0  0  0  0
  3  4  1  0  0  0  0
  4  1  2  0  0  0  0
  5  8  1  0  0  0  0
  5  7  1  0  0  0  0
  6  9  1  0  0  0  0
  6  4  1  0  0  0  0
  7 13  1  6  0  0  0
  9  5  2  0  0  0  0
 10  2  1  0  0  0  0
 10  3  2  0  0  0  0
 11 12  1  0  0  0  0
 12  9  1  0  0  0  0
 13 14  1  0  0  0  0
 14 17  1  0  0  0  0
 17 16  2  1  0  0  0
 17 15  1  0  0  0  0
 18 17  1  0  0  0  0
 18 19  1  0  0  0  0
 21 22  2  0  0  0  0
 22 19  1  0  0  0  0
 22 20  1  0  0  0  0
 23 28  1  6  0  0  0
 23 24  1  0  0  0  0
 24 26  1  0  0  0  0
 24 25  1  1  0  0  0
 26 27  1  0  0  0  0
 28 29  1  0  0  0  0
 30 29  1  0  0  0  0
 31 30  1  0  0  0  0
 32 38  1  6  0  0  0
 32 31  1  0  0  0  0
 32 33  1  0  0  0  0
 34 33  1  0  0  0  0
 34 35  1  1  0  0  0
 36 34  1  0  0  0  0
 37 36  1  0  0  0  0
 39 38  1  0  0  0  0
 40 41  1  0  0  0  0
 41 42  1  0  0  0  0
 41 39  1  0  0  0  0
 43 41  2  0  0  0  0
M  END
>  <MODEL>
4

>  <REMARK>
 VINA RESULT:      -5.0      3.940      9.567
  Name = 
  21 active torsions:
  status: ('A' for Active; 'I' for Inactive)
    1  A    between atoms: O_1  and  C_11
    2  A    between atoms: O_2  and  C_24
    3  A    between atoms: O_2  and  C_34
    4  A    between atoms: O_3  and  C_14
    5  A    between atoms: O_3  and  C_23
    6  A    between atoms: C_4  and  C_8
    7  A    between atoms: C_4  and  P_22
    8  A    between atoms: C_5  and  C_34
    9  A    between atoms: O_6  and  C_30
   10  A    between atoms: O_6  and  P_36
   11  A    between atoms: C_8  and  C_14
   12  A    between atoms: C_11  and  C_40
   13  A    between atoms: C_14  and  C_40
   14  A    between atoms: O_18  and  C_42
   15  A    between atoms: C_19  and  C_32
   16  A    between atoms: C_19  and  C_34
   17  A    between atoms: C_23  and  C_24
   18  A    between atoms: C_25  and  P_36
   19  A    between atoms: C_25  and  O_38
   20  A    between atoms: C_30  and  C_33
   21  A    between atoms: C_37  and  O_38
                            x       y       z     vdW  Elec       q    Type
                         _______ _______ _______ _____ _____    ______ ____

>  <TORSDO>
F 21

$$$$
=
 OpenBabel11072410093D

 43 44  0  0  1  0  0  0  0  0999 V2000
  160.4460  210.6370  152.1280 C   0  0  0  0  0  0  0  0  0  0  0  0
  161.9470  211.8900  149.0720 N   0  0  0  0  0  0  0  0  0  0  0  0
  162.0530  209.8000  150.2620 C   0  0  0  0  0  3  0  0  0  0  0  0
  161.1650  210.7840  150.9350 C   0  0  0  0  0  0  0  0  0  0  0  0
  159.6490  212.9390  151.8450 C   0  0  0  0  0  0  0  0  0  0  0  0
  161.1400  211.9500  150.2300 C   0  0  0  0  0  0  0  0  0  0  0  0
  159.6890  211.7300  152.5990 C   0  0  1  0  0  3  0  0  0  0  0  0
  158.8540  213.9960  152.2770 O   0  0  0  0  0  1  0  0  0  0  0  0
  160.4000  213.0560  150.6460 C   0  0  0  0  0  0  0  0  0  0  0  0
  162.5490  210.5600  149.0170 C   0  0  0  0  0  3  0  0  0  0  0  0
  160.2240  214.2440  148.4510 C   0  0  0  0  0  1  0  0  0  0  0  0
  160.4410  214.2150  149.8540 O   0  0  0  0  0  0  0  0  0  0  0  0
  158.9900  211.5720  153.8080 O   0  0  0  0  0  0  0  0  0  0  0  0
  158.7310  212.6220  154.7320 C   0  0  0  0  0  2  0  0  0  0  0  0
  158.5000  211.3170  157.1080 O   0  0  0  0  0  1  0  0  0  0  0  0
  156.5280  210.9410  155.4240 O   0  0  0  0  0  0  0  0  0  0  0  0
  157.6560  212.0230  156.0710 P   0  0  2  0  0  0  0  0  0  0  0  0
  156.8650  213.3470  156.7770 O   0  0  0  0  0  0  0  0  0  0  0  0
  156.7950  214.3190  155.7780 C   0  0  0  0  0  2  0  0  0  0  0  0
  155.2720  214.3190  153.9490 O   0  0  0  0  0  0  0  0  0  0  0  0
  154.3150  214.4530  156.0270 O   0  0  0  0  0  1  0  0  0  0  0  0
  155.4250  214.3470  155.1970 C   0  0  0  0  0  0  0  0  0  0  0  0
  160.4880  209.3560  152.9200 C   0  0  2  0  0  3  0  0  0  0  0  0
  161.5330  209.4120  154.0440 C   0  0  1  0  0  3  0  0  0  0  0  0
  162.3530  210.6920  153.9750 C   0  0  0  0  0  1  0  0  0  0  0  0
  160.8950  209.2790  155.4250 C   0  0  0  0  0  2  0  0  0  0  0  0
  161.8650  209.0490  156.4040 O   0  0  0  0  0  1  0  0  0  0  0  0
  160.7340  208.2790  152.0630 O   0  0  0  0  0  0  0  0  0  0  0  0
  160.8580  207.1680  152.9010 C   0  0  0  0  0  2  0  0  0  0  0  0
  161.8970  206.2160  152.3410 C   0  0  0  0  0  2  0  0  0  0  0  0
  162.2610  206.6170  151.0450 O   0  0  0  0  0  0  0  0  0  0  0  0
  161.6240  205.7780  150.1030 C   0  0  2  0  0  3  0  0  0  0  0  0
  160.5500  206.4780  149.2570 C   0  0  0  0  0  2  0  0  0  0  0  0
  160.9840  206.7430  147.8100 C   0  0  2  0  0  3  0  0  0  0  0  0
  160.1260  206.1210  146.8950 O   0  0  0  0  0  1  0  0  0  0  0  0
  162.3320  206.4000  147.5780 O   0  0  0  0  0  0  0  0  0  0  0  0
  162.4270  205.7230  146.3520 C   0  0  0  0  0  1  0  0  0  0  0  0
  161.2330  204.3950  150.6380 C   0  0  0  0  0  2  0  0  0  0  0  0
  160.1150  203.7780  149.8110 C   0  0  0  0  0  2  0  0  0  0  0  0
  159.0290  201.1840  149.2780 O   0  0  0  0  0  1  0  0  0  0  0  0
  160.4810  202.0400  149.4160 P   0  0  0  0  0  0  0  0  0  0  0  0
  161.3190  201.4270  150.5150 O   0  0  0  0  0  1  0  0  0  0  0  0
  161.3240  201.9530  147.9510 O   0  0  0  0  0  0  0  0  0  0  0  0
  1  7  1  0  0  0  0
  1 23  1  0  0  0  0
  2  6  2  0  0  0  0
  3  4  1  0  0  0  0
  4  1  2  0  0  0  0
  5  8  1  0  0  0  0
  5  7  1  0  0  0  0
  6  9  1  0  0  0  0
  6  4  1  0  0  0  0
  7 13  1  6  0  0  0
  9  5  2  0  0  0  0
 10  2  1  0  0  0  0
 10  3  2  0  0  0  0
 11 12  1  0  0  0  0
 12  9  1  0  0  0  0
 13 14  1  0  0  0  0
 14 17  1  0  0  0  0
 17 16  2  6  0  0  0
 17 18  1  0  0  0  0
 17 15  1  0  0  0  0
 19 18  1  0  0  0  0
 20 22  2  0  0  0  0
 22 19  1  0  0  0  0
 22 21  1  0  0  0  0
 23 28  1  6  0  0  0
 23 24  1  0  0  0  0
 24 25  1  1  0  0  0
 24 26  1  0  0  0  0
 26 27  1  0  0  0  0
 28 29  1  0  0  0  0
 30 29  1  0  0  0  0
 31 30  1  0  0  0  0
 32 33  1  1  0  0  0
 32 38  1  0  0  0  0
 32 31  1  0  0  0  0
 34 35  1  6  0  0  0
 34 33  1  0  0  0  0
 36 34  1  0  0  0  0
 37 36  1  0  0  0  0
 39 38  1  0  0  0  0
 40 41  1  0  0  0  0
 41 39  1  0  0  0  0
 41 42  1  0  0  0  0
 43 41  2  0  0  0  0
M  END
>  <MODEL>
5

>  <REMARK>
 VINA RESULT:      -4.7      3.929      9.866
  Name = 
  21 active torsions:
  status: ('A' for Active; 'I' for Inactive)
    1  A    between atoms: O_1  and  C_11
    2  A    between atoms: O_2  and  C_24
    3  A    between atoms: O_2  and  C_34
    4  A    between atoms: O_3  and  C_14
    5  A    between atoms: O_3  and  C_23
    6  A    between atoms: C_4  and  C_8
    7  A    between atoms: C_4  and  P_22
    8  A    between atoms: C_5  and  C_34
    9  A    between atoms: O_6  and  C_30
   10  A    between atoms: O_6  and  P_36
   11  A    between atoms: C_8  and  C_14
   12  A    between atoms: C_11  and  C_40
   13  A    between atoms: C_14  and  C_40
   14  A    between atoms: O_18  and  C_42
   15  A    between atoms: C_19  and  C_32
   16  A    between atoms: C_19  and  C_34
   17  A    between atoms: C_23  and  C_24
   18  A    between atoms: C_25  and  P_36
   19  A    between atoms: C_25  and  O_38
   20  A    between atoms: C_30  and  C_33
   21  A    between atoms: C_37  and  O_38
                            x       y       z     vdW  Elec       q    Type
                         _______ _______ _______ _____ _____    ______ ____

>  <TORSDO>
F 21

$$$$
=
 OpenBabel11072410093D

 43 44  0  0  1  0  0  0  0  0999 V2000
  161.2110  208.6110  152.9850 C   0  0  0  0  0  0  0  0  0  0  0  0
  160.0660  208.9520  156.4110 N   0  0  0  0  0  0  0  0  0  0  0  0
  160.9780  207.1380  155.1160 C   0  0  0  0  0  3  0  0  0  0  0  0
  160.8740  208.3940  154.3270 C   0  0  0  0  0  0  0  0  0  0  0  0
  160.4650  210.9320  153.2500 C   0  0  0  0  0  0  0  0  0  0  0  0
  160.3500  209.3890  155.0970 C   0  0  0  0  0  0  0  0  0  0  0  0
  160.9930  209.8910  152.4330 C   0  0  0  0  0  0  0  0  0  0  0  0
  160.3070  212.2100  152.7230 O   0  0  0  0  0  1  0  0  0  0  0  0
  160.1240  210.6720  154.6030 C   0  0  0  0  0  0  0  0  0  0  0  0
  160.4440  207.5440  156.5040 C   0  0  0  0  0  2  0  0  0  0  0  0
  160.3110  212.3410  156.4590 C   0  0  0  0  0  1  0  0  0  0  0  0
  159.5770  211.6290  155.4740 O   0  0  0  0  0  0  0  0  0  0  0  0
  161.3160  210.0850  151.0790 O   0  0  0  0  0  0  0  0  0  0  0  0
  162.3250  210.9720  150.6110 C   0  0  0  0  0  2  0  0  0  0  0  0
  161.6030  210.2680  148.0840 O   0  0  0  0  0  0  0  0  0  0  0  0
  163.3320  212.2300  148.2530 O   0  0  0  0  0  1  0  0  0  0  0  0
  161.9600  211.4860  148.9050 P   0  0  2  0  0  0  0  0  0  0  0  0
  160.6550  212.5700  148.9240 O   0  0  0  0  0  0  0  0  0  0  0  0
  161.0210  213.6120  148.0700 C   0  0  0  0  0  2  0  0  0  0  0  0
  159.4100  212.5920  146.6450 O   0  0  0  0  0  1  0  0  0  0  0  0
  160.5180  214.3880  145.7510 O   0  0  0  0  0  0  0  0  0  0  0  0
  160.2600  213.5070  146.7950 C   0  0  0  0  0  0  0  0  0  0  0  0
  161.7710  207.5080  152.1250 C   0  0  2  0  0  3  0  0  0  0  0  0
  161.7470  207.8770  150.6340 C   0  0  1  0  0  3  0  0  0  0  0  0
  163.0740  207.5540  149.9630 C   0  0  0  0  0  1  0  0  0  0  0  0
  160.6080  207.1820  149.8920 C   0  0  0  0  0  2  0  0  0  0  0  0
  160.8070  207.2340  148.5100 O   0  0  0  0  0  1  0  0  0  0  0  0
  161.0650  206.3230  152.3580 O   0  0  0  0  0  0  0  0  0  0  0  0
  162.0340  205.3170  152.3580 C   0  0  0  0  0  2  0  0  0  0  0  0
  161.5710  204.1590  151.4950 C   0  0  0  0  0  2  0  0  0  0  0  0
  161.9410  204.3830  150.1580 O   0  0  0  0  0  0  0  0  0  0  0  0
  161.1220  203.6000  149.3130 C   0  0  2  0  0  3  0  0  0  0  0  0
  160.6850  202.2590  149.9200 C   0  0  0  0  0  2  0  0  0  0  0  0
  159.9930  201.3270  148.9190 C   0  0  2  0  0  3  0  0  0  0  0  0
  158.6830  201.0300  149.3140 O   0  0  0  0  0  1  0  0  0  0  0  0
  160.7390  200.1570  148.6630 O   0  0  0  0  0  0  0  0  0  0  0  0
  161.5600  200.3750  147.5440 C   0  0  0  0  0  1  0  0  0  0  0  0
  161.5860  203.5340  147.8520 C   0  0  0  0  0  2  0  0  0  0  0  0
  162.0770  204.8880  147.3660 C   0  0  0  0  0  2  0  0  0  0  0  0
  161.1910  203.7110  144.9130 O   0  0  0  0  0  1  0  0  0  0  0  0
  161.5600  205.1890  145.6480 P   0  0  0  0  0  0  0  0  0  0  0  0
  162.6790  205.8600  144.8830 O   0  0  0  0  0  0  0  0  0  0  0  0
  160.1900  206.1820  145.6280 O   0  0  0  0  0  1  0  0  0  0  0  0
  1  4  1  0  0  0  0
  2 10  1  0  0  0  0
  3 10  1  0  0  0  0
  4  6  1  0  0  0  0
  4  3  2  0  0  0  0
  5  9  2  0  0  0  0
  6  2  2  0  0  0  0
  7  1  2  0  0  0  0
  7  5  1  0  0  0  0
  8  5  1  0  0  0  0
  9  6  1  0  0  0  0
  9 12  1  0  0  0  0
 12 11  1  0  0  0  0
 13  7  1  0  0  0  0
 14 13  1  0  0  0  0
 16 17  1  0  0  0  0
 17 15  2  6  0  0  0
 17 18  1  0  0  0  0
 17 14  1  0  0  0  0
 19 18  1  0  0  0  0
 20 22  1  0  0  0  0
 21 22  2  0  0  0  0
 22 19  1  0  0  0  0
 23 28  1  6  0  0  0
 23  1  1  0  0  0  0
 24 25  1  6  0  0  0
 24 23  1  0  0  0  0
 26 24  1  0  0  0  0
 27 26  1  0  0  0  0
 29 28  1  0  0  0  0
 30 29  1  0  0  0  0
 31 30  1  0  0  0  0
 32 38  1  6  0  0  0
 32 33  1  0  0  0  0
 32 31  1  0  0  0  0
 34 35  1  1  0  0  0
 34 33  1  0  0  0  0
 36 34  1  0  0  0  0
 37 36  1  0  0  0  0
 39 38  1  0  0  0  0
 40 41  1  0  0  0  0
 41 39  1  0  0  0  0
 42 41  2  0  0  0  0
 43 41  1  0  0  0  0
M  END
>  <MODEL>
6

>  <REMARK>
 VINA RESULT:      -4.7      2.327      8.192
  Name = 
  21 active torsions:
  status: ('A' for Active; 'I' for Inactive)
    1  A    between atoms: O_1  and  C_11
    2  A    between atoms: O_2  and  C_24
    3  A    between atoms: O_2  and  C_34
    4  A    between atoms: O_3  and  C_14
    5  A    between atoms: O_3  and  C_23
    6  A    between atoms: C_4  and  C_8
    7  A    between atoms: C_4  and  P_22
    8  A    between atoms: C_5  and  C_34
    9  A    between atoms: O_6  and  C_30
   10  A    between atoms: O_6  and  P_36
   11  A    between atoms: C_8  and  C_14
   12  A    between atoms: C_11  and  C_40
   13  A    between atoms: C_14  and  C_40
   14  A    between atoms: O_18  and  C_42
   15  A    between atoms: C_19  and  C_32
   16  A    between atoms: C_19  and  C_34
   17  A    between atoms: C_23  and  C_24
   18  A    between atoms: C_25  and  P_36
   19  A    between atoms: C_25  and  O_38
   20  A    between atoms: C_30  and  C_33
   21  A    between atoms: C_37  and  O_38
                            x       y       z     vdW  Elec       q    Type
                         _______ _______ _______ _____ _____    ______ ____

>  <TORSDO>
F 21

$$$$
=
 OpenBabel11072410093D

 43 44  0  0  1  0  0  0  0  0999 V2000
  160.9180  206.9530  151.0470 C   0  0  0  0  0  0  0  0  0  0  0  0
  160.8910  204.5140  148.3610 N   0  0  0  0  0  0  0  0  0  0  0  0
  160.7680  206.9170  148.4500 C   0  0  0  0  0  3  0  0  0  0  0  0
  160.8910  206.3110  149.8020 C   0  0  0  0  0  0  0  0  0  0  0  0
  161.0940  204.7460  152.1000 C   0  0  0  0  0  0  0  0  0  0  0  0
  160.9530  204.9530  149.7030 C   0  0  0  0  0  0  0  0  0  0  0  0
  161.0070  206.1640  152.2120 C   0  0  1  0  0  3  0  0  0  0  0  0
  161.2430  203.9700  153.2450 O   0  0  0  0  0  1  0  0  0  0  0  0
  161.0510  204.1290  150.8220 C   0  0  0  0  0  0  0  0  0  0  0  0
  160.7840  205.6960  147.5100 C   0  0  0  0  0  3  0  0  0  0  0  0
  160.3050  202.0280  149.6860 C   0  0  0  0  0  1  0  0  0  0  0  0
  161.1050  202.7400  150.6170 O   0  0  0  0  0  0  0  0  0  0  0  0
  161.0120  206.8230  153.4530 O   0  0  0  0  0  0  0  0  0  0  0  0
  160.3150  206.3730  154.6090 C   0  0  0  0  0  2  0  0  0  0  0  0
  160.1560  206.9610  157.2600 O   0  0  0  0  0  1  0  0  0  0  0  0
  159.2510  208.8130  155.6430 O   0  0  0  0  0  0  0  0  0  0  0  0
  160.4180  207.6220  155.9250 P   0  0  2  0  0  0  0  0  0  0  0  0
  161.9710  208.3060  155.9170 O   0  0  0  0  0  0  0  0  0  0  0  0
  161.9720  209.2480  156.9470 C   0  0  0  0  0  2  0  0  0  0  0  0
  161.4270  211.3030  155.8770 O   0  0  0  0  0  0  0  0  0  0  0  0
  163.6350  211.0350  156.4290 O   0  0  0  0  0  1  0  0  0  0  0  0
  162.3190  210.5890  156.4030 C   0  0  0  0  0  0  0  0  0  0  0  0
  160.8290  208.4530  151.1610 C   0  0  2  0  0  3  0  0  0  0  0  0
  162.1910  209.1260  150.9340 C   0  0  1  0  0  3  0  0  0  0  0  0
  163.2250  208.1270  150.4340 C   0  0  0  0  0  1  0  0  0  0  0  0
  162.0930  210.3000  149.9640 C   0  0  0  0  0  2  0  0  0  0  0  0
  162.1020  209.8560  148.6390 O   0  0  0  0  0  1  0  0  0  0  0  0
  160.3030  208.8010  152.4100 O   0  0  0  0  0  0  0  0  0  0  0  0
  160.7670  210.0960  152.6520 C   0  0  0  0  0  2  0  0  0  0  0  0
  159.6090  211.0740  152.6020 C   0  0  0  0  0  2  0  0  0  0  0  0
  160.0690  212.3710  152.8840 O   0  0  0  0  0  0  0  0  0  0  0  0
  159.1860  213.3120  152.3080 C   0  0  2  0  0  3  0  0  0  0  0  0
  159.7150  213.9750  151.0270 C   0  0  0  0  0  2  0  0  0  0  0  0
  158.7390  213.9000  149.8470 C   0  0  2  0  0  3  0  0  0  0  0  0
  157.5520  213.2490  150.2040 O   0  0  0  0  0  1  0  0  0  0  0  0
  159.3230  213.3300  148.6970 O   0  0  0  0  0  0  0  0  0  0  0  0
  160.4740  214.0600  148.3600 C   0  0  0  0  0  1  0  0  0  0  0  0
  158.5220  214.2660  153.3090 C   0  0  0  0  0  2  0  0  0  0  0  0
  158.3470  213.6070  154.6680 C   0  0  0  0  0  2  0  0  0  0  0  0
  155.7410  213.3710  153.5100 O   0  0  0  0  0  0  0  0  0  0  0  0
  156.6740  212.9180  154.8460 P   0  0  0  0  0  0  0  0  0  0  0  0
  156.0290  213.4480  156.1070 O   0  0  0  0  0  1  0  0  0  0  0  0
  156.7560  211.2290  154.9240 O   0  0  0  0  0  1  0  0  0  0  0  0
  1 23  1  0  0  0  0
  1  7  1  0  0  0  0
  2  6  2  0  0  0  0
  3  4  1  0  0  0  0
  4  1  2  0  0  0  0
  5  7  1  0  0  0  0
  5  8  1  0  0  0  0
  6  4  1  0  0  0  0
  6  9  1  0  0  0  0
  7 13  1  6  0  0  0
  9  5  2  0  0  0  0
 10  2  1  0  0  0  0
 10  3  2  0  0  0  0
 11 12  1  0  0  0  0
 12  9  1  0  0  0  0
 13 14  1  0  0  0  0
 14 17  1  0  0  0  0
 17 16  2  6  0  0  0
 17 15  1  0  0  0  0
 18 17  1  0  0  0  0
 18 19  1  0  0  0  0
 20 22  2  0  0  0  0
 22 21  1  0  0  0  0
 22 19  1  0  0  0  0
 23 28  1  1  0  0  0
 24 25  1  6  0  0  0
 24 23  1  0  0  0  0
 26 24  1  0  0  0  0
 27 26  1  0  0  0  0
 28 29  1  0  0  0  0
 30 29  1  0  0  0  0
 30 31  1  0  0  0  0
 32 33  1  6  0  0  0
 32 31  1  0  0  0  0
 32 38  1  0  0  0  0
 34 35  1  1  0  0  0
 34 33  1  0  0  0  0
 36 34  1  0  0  0  0
 37 36  1  0  0  0  0
 38 39  1  0  0  0  0
 39 41  1  0  0  0  0
 40 41  2  0  0  0  0
 41 43  1  0  0  0  0
 41 42  1  0  0  0  0
M  END
>  <MODEL>
7

>  <REMARK>
 VINA RESULT:      -4.6      3.863      7.651
  Name = 
  21 active torsions:
  status: ('A' for Active; 'I' for Inactive)
    1  A    between atoms: O_1  and  C_11
    2  A    between atoms: O_2  and  C_24
    3  A    between atoms: O_2  and  C_34
    4  A    between atoms: O_3  and  C_14
    5  A    between atoms: O_3  and  C_23
    6  A    between atoms: C_4  and  C_8
    7  A    between atoms: C_4  and  P_22
    8  A    between atoms: C_5  and  C_34
    9  A    between atoms: O_6  and  C_30
   10  A    between atoms: O_6  and  P_36
   11  A    between atoms: C_8  and  C_14
   12  A    between atoms: C_11  and  C_40
   13  A    between atoms: C_14  and  C_40
   14  A    between atoms: O_18  and  C_42
   15  A    between atoms: C_19  and  C_32
   16  A    between atoms: C_19  and  C_34
   17  A    between atoms: C_23  and  C_24
   18  A    between atoms: C_25  and  P_36
   19  A    between atoms: C_25  and  O_38
   20  A    between atoms: C_30  and  C_33
   21  A    between atoms: C_37  and  O_38
                            x       y       z     vdW  Elec       q    Type
                         _______ _______ _______ _____ _____    ______ ____

>  <TORSDO>
F 21

$$$$
=
 OpenBabel11072410093D

 43 44  0  0  1  0  0  0  0  0999 V2000
  161.3870  206.4030  150.0140 C   0  0  0  0  0  0  0  0  0  0  0  0
  161.1570  203.0330  148.6900 N   0  0  0  0  0  0  0  0  0  0  0  0
  161.3260  203.9600  150.9050 C   0  0  0  0  0  3  0  0  0  0  0  0
  161.3030  205.0140  149.8560 C   0  0  0  0  0  0  0  0  0  0  0  0
  161.2610  206.6140  147.5740 C   0  0  0  0  0  0  0  0  0  0  0  0
  161.2120  204.4440  148.6220 C   0  0  0  0  0  0  0  0  0  0  0  0
  161.3790  207.2150  148.8600 C   0  0  0  0  0  0  0  0  0  0  0  0
  161.1930  207.4160  146.4400 O   0  0  0  0  0  1  0  0  0  0  0  0
  161.1910  205.2010  147.4520 C   0  0  0  0  0  0  0  0  0  0  0  0
  161.2150  202.6520  150.0980 C   0  0  0  0  0  2  0  0  0  0  0  0
  160.4640  205.0320  145.0630 C   0  0  0  0  0  1  0  0  0  0  0  0
  161.0980  204.5210  146.2260 O   0  0  0  0  0  0  0  0  0  0  0  0
  161.4850  208.6050  149.0350 O   0  0  0  0  0  0  0  0  0  0  0  0
  162.5700  209.3970  148.5660 C   0  0  0  0  0  2  0  0  0  0  0  0
  163.2940  211.9860  148.1470 O   0  0  0  0  0  0  0  0  0  0  0  0
  161.5650  211.6020  150.0780 O   0  0  0  0  0  1  0  0  0  0  0  0
  162.0940  211.1510  148.5360 P   0  0  2  0  0  0  0  0  0  0  0  0
  160.8510  211.3660  147.4020 O   0  0  0  0  0  0  0  0  0  0  0  0
  160.9100  212.7110  147.0300 C   0  0  0  0  0  2  0  0  0  0  0  0
  160.6730  213.9340  145.0030 O   0  0  0  0  0  0  0  0  0  0  0  0
  159.7190  211.8500  145.0130 O   0  0  0  0  0  1  0  0  0  0  0  0
  160.4450  212.8650  145.6250 C   0  0  0  0  0  0  0  0  0  0  0  0
  161.5080  207.0360  151.3760 C   0  0  2  0  0  3  0  0  0  0  0  0
  161.5630  205.9830  152.4930 C   0  0  1  0  0  3  0  0  0  0  0  0
  162.9800  205.8090  153.0200 C   0  0  0  0  0  1  0  0  0  0  0  0
  160.6190  206.3220  153.6440 C   0  0  0  0  0  2  0  0  0  0  0  0
  161.3080  206.9450  154.6880 O   0  0  0  0  0  1  0  0  0  0  0  0
  160.4470  207.9240  151.5790 O   0  0  0  0  0  0  0  0  0  0  0  0
  161.0400  209.0950  152.0590 C   0  0  0  0  0  2  0  0  0  0  0  0
  160.0030  209.9420  152.7710 C   0  0  0  0  0  2  0  0  0  0  0  0
  160.5700  210.5240  153.9170 O   0  0  0  0  0  0  0  0  0  0  0  0
  159.5790  211.2680  154.5980 C   0  0  2  0  0  3  0  0  0  0  0  0
  159.1780  210.6890  155.9620 C   0  0  0  0  0  2  0  0  0  0  0  0
  160.3340  210.6260  156.9670 C   0  0  2  0  0  3  0  0  0  0  0  0
  161.1700  211.7440  156.8590 O   0  0  0  0  0  1  0  0  0  0  0  0
  161.0610  209.4200  156.8820 O   0  0  0  0  0  0  0  0  0  0  0  0
  162.4100  209.6790  157.1760 C   0  0  0  0  0  1  0  0  0  0  0  0
  158.4120  211.7360  153.7190 C   0  0  0  0  0  2  0  0  0  0  0  0
  157.8290  213.0460  154.2260 C   0  0  0  0  0  2  0  0  0  0  0  0
  155.6840  211.1940  154.6230 O   0  0  0  0  0  1  0  0  0  0  0  0
  156.1490  212.7990  154.8790 P   0  0  0  0  0  0  0  0  0  0  0  0
  155.1800  213.7180  154.1690 O   0  0  0  0  0  0  0  0  0  0  0  0
  156.1260  213.1320  156.5380 O   0  0  0  0  0  1  0  0  0  0  0  0
  1 23  1  0  0  0  0
  2 10  1  0  0  0  0
  4  1  1  0  0  0  0
  4  3  2  0  0  0  0
  5  7  1  0  0  0  0
  6  2  2  0  0  0  0
  6  4  1  0  0  0  0
  7 13  1  0  0  0  0
  7  1  2  0  0  0  0
  8  5  1  0  0  0  0
  9  5  2  0  0  0  0
  9  6  1  0  0  0  0
 10  3  1  0  0  0  0
 11 12  1  0  0  0  0
 12  9  1  0  0  0  0
 14 13  1  0  0  0  0
 17 15  2  6  0  0  0
 17 14  1  0  0  0  0
 17 16  1  0  0  0  0
 18 17  1  0  0  0  0
 19 18  1  0  0  0  0
 20 22  2  0  0  0  0
 21 22  1  0  0  0  0
 22 19  1  0  0  0  0
 23 28  1  1  0  0  0
 23 24  1  0  0  0  0
 24 25  1  1  0  0  0
 24 26  1  0  0  0  0
 26 27  1  0  0  0  0
 28 29  1  0  0  0  0
 29 30  1  0  0  0  0
 30 31  1  0  0  0  0
 31 32  1  0  0  0  0
 32 38  1  6  0  0  0
 32 33  1  0  0  0  0
 33 34  1  0  0  0  0
 34 35  1  6  0  0  0
 36 34  1  0  0  0  0
 36 37  1  0  0  0  0
 38 39  1  0  0  0  0
 39 41  1  0  0  0  0
 40 41  1  0  0  0  0
 41 43  1  0  0  0  0
 42 41  2  0  0  0  0
M  END
>  <MODEL>
8

>  <REMARK>
 VINA RESULT:      -4.6      3.494      7.658
  Name = 
  21 active torsions:
  status: ('A' for Active; 'I' for Inactive)
    1  A    between atoms: O_1  and  C_11
    2  A    between atoms: O_2  and  C_24
    3  A    between atoms: O_2  and  C_34
    4  A    between atoms: O_3  and  C_14
    5  A    between atoms: O_3  and  C_23
    6  A    between atoms: C_4  and  C_8
    7  A    between atoms: C_4  and  P_22
    8  A    between atoms: C_5  and  C_34
    9  A    between atoms: O_6  and  C_30
   10  A    between atoms: O_6  and  P_36
   11  A    between atoms: C_8  and  C_14
   12  A    between atoms: C_11  and  C_40
   13  A    between atoms: C_14  and  C_40
   14  A    between atoms: O_18  and  C_42
   15  A    between atoms: C_19  and  C_32
   16  A    between atoms: C_19  and  C_34
   17  A    between atoms: C_23  and  C_24
   18  A    between atoms: C_25  and  P_36
   19  A    between atoms: C_25  and  O_38
   20  A    between atoms: C_30  and  C_33
   21  A    between atoms: C_37  and  O_38
                            x       y       z     vdW  Elec       q    Type
                         _______ _______ _______ _____ _____    ______ ____

>  <TORSDO>
F 21

$$$$
=
 OpenBabel11072410093D

 43 44  0  0  1  0  0  0  0  0999 V2000
  161.0320  206.5140  150.2970 C   0  0  0  0  0  0  0  0  0  0  0  0
  161.1810  204.1990  153.0860 N   0  0  0  0  0  0  0  0  0  0  0  0
  161.1670  206.5980  152.8930 C   0  0  0  0  0  3  0  0  0  0  0  0
  161.0880  205.9290  151.5680 C   0  0  0  0  0  0  0  0  0  0  0  0
  160.9900  204.2570  149.3400 C   0  0  0  0  0  0  0  0  0  0  0  0
  161.1040  204.5750  151.7260 C   0  0  0  0  0  0  0  0  0  0  0  0
  160.9960  205.6720  149.1670 C   0  0  0  0  0  0  0  0  0  0  0  0
  160.8940  203.4260  148.2290 O   0  0  0  0  0  1  0  0  0  0  0  0
  161.0600  203.6990  150.6430 C   0  0  0  0  0  0  0  0  0  0  0  0
  161.2150  205.4200  153.8860 C   0  0  0  0  0  2  0  0  0  0  0  0
  160.7870  201.3080  149.9570 C   0  0  0  0  0  1  0  0  0  0  0  0
  161.0850  202.3200  150.9080 O   0  0  0  0  0  0  0  0  0  0  0  0
  160.9610  206.2760  147.8980 O   0  0  0  0  0  0  0  0  0  0  0  0
  160.1480  205.8360  146.8180 C   0  0  0  0  0  2  0  0  0  0  0  0
  162.6100  205.0880  145.9370 O   0  0  0  0  0  1  0  0  0  0  0  0
  161.1560  206.4170  144.2100 O   0  0  0  0  0  0  0  0  0  0  0  0
  161.1910  205.2620  145.4450 P   0  0  2  0  0  0  0  0  0  0  0  0
  160.5920  203.7780  144.8800 O   0  0  0  0  0  0  0  0  0  0  0  0
  161.2020  202.8020  145.6700 C   0  0  0  0  0  2  0  0  0  0  0  0
  159.3680  201.4600  144.9650 O   0  0  0  0  0  0  0  0  0  0  0  0
  161.1260  200.3170  145.8880 O   0  0  0  0  0  1  0  0  0  0  0  0
  160.5180  201.4950  145.4720 C   0  0  0  0  0  0  0  0  0  0  0  0
  161.0350  208.0100  150.1180 C   0  0  2  0  0  3  0  0  0  0  0  0
  162.3350  208.5070  149.4680 C   0  0  1  0  0  3  0  0  0  0  0  0
  163.2320  207.3450  149.0670 C   0  0  0  0  0  1  0  0  0  0  0  0
  162.0640  209.3950  148.2560 C   0  0  0  0  0  2  0  0  0  0  0  0
  162.3250  210.7350  148.5500 O   0  0  0  0  0  1  0  0  0  0  0  0
  160.8250  208.6340  151.3530 O   0  0  0  0  0  0  0  0  0  0  0  0
  161.7590  209.6710  151.4000 C   0  0  0  0  0  2  0  0  0  0  0  0
  161.8910  210.1790  152.8220 C   0  0  0  0  0  2  0  0  0  0  0  0
  160.6780  209.9980  153.5070 O   0  0  0  0  0  0  0  0  0  0  0  0
  160.6100  210.9140  154.5820 C   0  0  2  0  0  3  0  0  0  0  0  0
  160.4350  210.2600  155.9610 C   0  0  0  0  0  2  0  0  0  0  0  0
  161.7580  209.8490  156.6180 C   0  0  2  0  0  3  0  0  0  0  0  0
  162.8290  210.6100  156.1350 O   0  0  0  0  0  1  0  0  0  0  0  0
  162.0100  208.4650  156.5110 O   0  0  0  0  0  0  0  0  0  0  0  0
  160.9160  207.7610  157.0400 C   0  0  0  0  0  1  0  0  0  0  0  0
  159.7250  212.1400  154.3250 C   0  0  0  0  0  2  0  0  0  0  0  0
  158.3360  211.7310  153.8600 C   0  0  0  0  0  2  0  0  0  0  0  0
  155.5790  211.6070  154.6180 O   0  0  0  0  0  0  0  0  0  0  0  0
  157.0640  212.3060  155.0260 P   0  0  0  0  0  0  0  0  0  0  0  0
  156.9420  213.8120  154.9550 O   0  0  0  0  0  1  0  0  0  0  0  0
  157.4840  211.8490  156.6000 O   0  0  0  0  0  1  0  0  0  0  0  0
  1  4  1  0  0  0  0
  2 10  1  0  0  0  0
  3 10  1  0  0  0  0
  4  6  1  0  0  0  0
  4  3  2  0  0  0  0
  5  9  2  0  0  0  0
  6  2  2  0  0  0  0
  7  5  1  0  0  0  0
  7  1  2  0  0  0  0
  8  5  1  0  0  0  0
  9 12  1  0  0  0  0
  9  6  1  0  0  0  0
 11 12  1  0  0  0  0
 13  7  1  0  0  0  0
 14 13  1  0  0  0  0
 17 16  2  6  0  0  0
 17 15  1  0  0  0  0
 17 14  1  0  0  0  0
 18 17  1  0  0  0  0
 18 19  1  0  0  0  0
 20 22  2  0  0  0  0
 22 19  1  0  0  0  0
 22 21  1  0  0  0  0
 23  1  1  0  0  0  0
 23 28  1  1  0  0  0
 24 25  1  6  0  0  0
 24 23  1  0  0  0  0
 26 27  1  0  0  0  0
 26 24  1  0  0  0  0
 28 29  1  0  0  0  0
 29 30  1  0  0  0  0
 30 31  1  0  0  0  0
 31 32  1  0  0  0  0
 32 38  1  6  0  0  0
 32 33  1  0  0  0  0
 33 34  1  0  0  0  0
 34 35  1  6  0  0  0
 36 34  1  0  0  0  0
 36 37  1  0  0  0  0
 39 38  1  0  0  0  0
 39 41  1  0  0  0  0
 40 41  2  0  0  0  0
 41 43  1  0  0  0  0
 42 41  1  0  0  0  0
M  END
>  <MODEL>
9

>  <REMARK>
 VINA RESULT:      -4.5      3.180      6.160
  Name = 
  21 active torsions:
  status: ('A' for Active; 'I' for Inactive)
    1  A    between atoms: O_1  and  C_11
    2  A    between atoms: O_2  and  C_24
    3  A    between atoms: O_2  and  C_34
    4  A    between atoms: O_3  and  C_14
    5  A    between atoms: O_3  and  C_23
    6  A    between atoms: C_4  and  C_8
    7  A    between atoms: C_4  and  P_22
    8  A    between atoms: C_5  and  C_34
    9  A    between atoms: O_6  and  C_30
   10  A    between atoms: O_6  and  P_36
   11  A    between atoms: C_8  and  C_14
   12  A    between atoms: C_11  and  C_40
   13  A    between atoms: C_14  and  C_40
   14  A    between atoms: O_18  and  C_42
   15  A    between atoms: C_19  and  C_32
   16  A    between atoms: C_19  and  C_34
   17  A    between atoms: C_23  and  C_24
   18  A    between atoms: C_25  and  P_36
   19  A    between atoms: C_25  and  O_38
   20  A    between atoms: C_30  and  C_33
   21  A    between atoms: C_37  and  O_38
                            x       y       z     vdW  Elec       q    Type
                         _______ _______ _______ _____ _____    ______ ____

>  <TORSDO>
F 21

$$$$
