=
 OpenBabel11072411003D

 42 45  0  0  1  0  0  0  0  0999 V2000
  162.1780  206.2390  153.4490 O   0  0  0  0  0  0  0  0  0  0  0  0
  162.3170  206.7610  152.1600 C   0  0  0  0  0  0  0  0  0  0  0  0
  161.8660  210.9620  153.2960 O   0  0  0  0  0  0  0  0  0  0  0  0
  161.8030  209.1100  151.9010 N   0  0  0  0  0  2  0  0  0  0  0  0
  159.9000  206.5240  153.8340 F   0  0  0  0  0  0  0  0  0  0  0  0
  161.4440  208.0300  154.9500 C   0  0  0  0  0  2  0  0  0  0  0  0
  160.7990  209.0880  154.1810 N   0  0  0  0  0  0  0  0  0  0  0  0
  161.3400  207.7610  151.6180 C   0  0  1  0  0  3  0  0  0  0  0  0
  161.5110  209.7660  153.1370 C   0  0  0  0  0  0  0  0  0  0  0  0
  161.1690  206.6410  154.3750 C   0  0  2  0  0  3  0  0  0  0  0  0
  163.3110  206.4150  151.4680 O   0  0  0  0  0  0  0  0  0  0  0  0
  159.4700  209.5340  154.5890 C   0  0  0  0  0  2  0  0  0  0  0  0
  159.5370  210.7840  155.4730 C   0  0  1  0  0  3  0  0  0  0  0  0
  158.1600  211.4640  155.6190 C   0  0  2  0  0  3  0  0  0  0  0  0
  156.5930  213.0490  154.6420 C   0  0  0  0  0  2  0  0  0  0  0  0
  155.9290  211.6850  154.7510 C   0  0  0  0  0  2  0  0  0  0  0  0
  158.8880  213.0490  153.7650 C   0  0  0  0  0  1  0  0  0  0  0  0
  157.0390  210.6830  154.9620 C   0  0  0  0  0  2  0  0  0  0  0  0
  158.0540  212.8820  155.0350 C   0  0  2  0  0  0  0  0  0  0  0  0
  159.7320  214.3780  156.1760 O   0  0  0  0  0  0  0  0  0  0  0  0
  157.5580  214.3300  156.8830 O   0  0  0  0  0  1  0  0  0  0  0  0
  158.4260  213.9080  156.0720 C   0  0  0  0  0  0  0  0  0  0  0  0
  160.1610  210.4620  156.8360 C   0  0  0  0  0  2  0  0  0  0  0  0
  161.4170  211.2790  157.1060 C   0  0  0  0  0  1  0  0  0  0  0  0
  161.1190  207.5740  150.1210 C   0  0  0  0  0  2  0  0  0  0  0  0
  161.4970  205.3560  149.4160 C   0  0  1  0  0  3  0  0  0  0  0  0
  160.5180  205.8500  148.4440 C   0  0  1  0  0  3  0  0  0  0  0  0
  160.4540  206.2970  149.8620 N   0  0  0  0  0  0  0  0  0  0  0  0
  160.8530  201.8340  148.6930 C   0  0  0  0  0  0  0  0  0  0  0  0
  161.4930  203.6020  151.1230 C   0  0  0  0  0  3  0  0  0  0  0  0
  161.0180  201.4110  147.0030 Cl  0  0  0  0  0  0  0  0  0  0  0  0
  161.1510  203.9790  149.8860 C   0  0  0  0  0  0  0  0  0  0  0  0
  161.2200  202.2840  151.7290 C   0  0  0  0  0  3  0  0  0  0  0  0
  161.1450  200.9190  149.6170 C   0  0  0  0  0  3  0  0  0  0  0  0
  160.2390  203.1470  149.0430 C   0  0  0  0  0  2  0  0  0  0  0  0
  161.0710  201.1230  151.0790 C   0  0  0  0  0  3  0  0  0  0  0  0
  162.5090  207.0470  147.8380 O   0  0  0  0  0  1  0  0  0  0  0  0
  161.1740  206.8410  147.4730 C   0  0  1  0  0  3  0  0  0  0  0  0
  160.0000  206.3930  145.4790 O   0  0  0  0  0  0  0  0  0  0  0  0
  161.0720  206.3360  146.0610 C   0  0  0  0  0  0  0  0  0  0  0  0
  162.2620  205.7740  145.3480 C   0  0  0  0  0  2  0  0  0  0  0  0
  162.4170  204.4270  145.6740 O   0  0  0  0  0  1  0  0  0  0  0  0
  1 10  1  0  0  0  0
  2  1  1  0  0  0  0
  4  9  1  0  0  0  0
  7 12  1  0  0  0  0
  7  6  1  0  0  0  0
  8 25  1  6  0  0  0
  8  4  1  0  0  0  0
  8  2  1  0  0  0  0
  9  3  2  0  0  0  0
  9  7  1  0  0  0  0
 10  5  1  6  0  0  0
 10  6  1  0  0  0  0
 11  2  2  0  0  0  0
 13 12  1  6  0  0  0
 13 23  1  0  0  0  0
 14 13  1  6  0  0  0
 15 16  1  0  0  0  0
 15 19  1  0  0  0  0
 16 18  1  0  0  0  0
 18 14  1  0  0  0  0
 19 17  1  6  0  0  0
 19 14  1  0  0  0  0
 19 22  1  0  0  0  0
 22 20  2  0  0  0  0
 22 21  1  0  0  0  0
 23 24  1  0  0  0  0
 26 28  1  0  0  0  0
 26 32  1  1  0  0  0
 27 38  1  6  0  0  0
 27 26  1  0  0  0  0
 27 28  1  0  0  0  0
 28 25  1  0  0  0  0
 29 35  1  0  0  0  0
 29 34  2  0  0  0  0
 30 33  1  0  0  0  0
 31 29  1  0  0  0  0
 32 30  2  0  0  0  0
 34 36  1  0  0  0  0
 35 32  1  0  0  0  0
 36 33  2  0  0  0  0
 38 37  1  1  0  0  0
 39 40  2  0  0  0  0
 40 38  1  0  0  0  0
 41 42  1  0  0  0  0
 41 40  1  0  0  0  0
M  END
>  <MODEL>
1

>  <REMARK>
 VINA RESULT:      -7.1      0.000      0.000
  Name = 
  11 active torsions:
  status: ('A' for Active; 'I' for Inactive)
    1  A    between atoms: C_1  and  C_25
    2  A    between atoms: C_1  and  N_32
    3  A    between atoms: C_4  and  C_25
    4  A    between atoms: C_5  and  C_17
    5  A    between atoms: C_6  and  C_35
    6  A    between atoms: C_10  and  C_30
    7  A    between atoms: N_14  and  C_42
    8  A    between atoms: C_25  and  C_29
    9  A    between atoms: C_28  and  C_41
   10  A    between atoms: C_30  and  C_35
   11  A    between atoms: C_33  and  C_42
                            x       y       z     vdW  Elec       q    Type
                         _______ _______ _______ _____ _____    ______ ____

>  <TORSDO>
F 11

$$$$
=
 OpenBabel11072411003D

 42 45  0  0  1  0  0  0  0  0999 V2000
  162.7490  209.5610  150.7450 O   0  0  0  0  0  0  0  0  0  0  0  0
  162.1460  209.7090  151.9970 C   0  0  0  0  0  0  0  0  0  0  0  0
  161.4270  205.4480  152.6830 O   0  0  0  0  0  0  0  0  0  0  0  0
  161.0950  207.7320  152.9110 N   0  0  0  0  0  2  0  0  0  0  0  0
  160.9270  209.0290  149.3990 F   0  0  0  0  0  0  0  0  0  0  0  0
  162.4630  207.2460  149.9980 C   0  0  0  0  0  2  0  0  0  0  0  0
  161.3260  206.6420  150.6830 N   0  0  0  0  0  0  0  0  0  0  0  0
  160.8460  209.0350  152.3150 C   0  0  1  0  0  3  0  0  0  0  0  0
  161.2970  206.5630  152.1140 C   0  0  0  0  0  0  0  0  0  0  0  0
  162.2450  208.7290  149.7010 C   0  0  2  0  0  3  0  0  0  0  0  0
  162.7400  210.3820  152.8810 O   0  0  0  0  0  0  0  0  0  0  0  0
  160.2920  205.9980  149.8790 C   0  0  0  0  0  2  0  0  0  0  0  0
  160.8710  205.3720  148.6060 C   0  0  1  0  0  3  0  0  0  0  0  0
  160.5790  203.8590  148.5210 C   0  0  2  0  0  3  0  0  0  0  0  0
  161.5290  201.6530  148.1250 C   0  0  0  0  0  2  0  0  0  0  0  0
  160.9080  201.6930  149.5120 C   0  0  0  0  0  2  0  0  0  0  0  0
  162.9040  203.5970  147.5160 C   0  0  0  0  0  1  0  0  0  0  0  0
  160.7170  203.1520  149.8550 C   0  0  0  0  0  2  0  0  0  0  0  0
  161.4720  203.0640  147.5550 C   0  0  2  0  0  0  0  0  0  0  0  0
  159.9020  202.0840  145.8430 O   0  0  0  0  0  1  0  0  0  0  0  0
  161.2410  203.8570  145.3010 O   0  0  0  0  0  0  0  0  0  0  0  0
  160.8620  203.0350  146.1780 C   0  0  0  0  0  0  0  0  0  0  0  0
  160.3870  206.1160  147.3560 C   0  0  0  0  0  2  0  0  0  0  0  0
  161.5210  206.8200  146.6250 C   0  0  0  0  0  1  0  0  0  0  0  0
  159.9840  209.8890  153.2390 C   0  0  0  0  0  2  0  0  0  0  0  0
  159.6240  212.1270  152.5880 C   0  0  1  0  0  3  0  0  0  0  0  0
  158.3690  211.7700  153.2560 C   0  0  1  0  0  3  0  0  0  0  0  0
  159.1030  210.7540  152.4540 N   0  0  0  0  0  0  0  0  0  0  0  0
  160.6410  213.0520  149.2040 C   0  0  0  0  0  0  0  0  0  0  0  0
  158.1130  213.1330  150.9480 C   0  0  0  0  0  3  0  0  0  0  0  0
  162.1310  212.3010  148.6770 Cl  0  0  0  0  0  0  0  0  0  0  0  0
  159.3710  212.8750  151.3180 C   0  0  0  0  0  0  0  0  0  0  0  0
  157.7050  213.8600  149.7300 C   0  0  0  0  0  3  0  0  0  0  0  0
  159.7020  213.3260  148.2980 C   0  0  0  0  0  3  0  0  0  0  0  0
  160.5330  213.5060  150.6200 C   0  0  0  0  0  2  0  0  0  0  0  0
  158.3900  213.9430  148.5830 C   0  0  0  0  0  3  0  0  0  0  0  0
  159.2440  212.8180  155.2300 O   0  0  0  0  0  1  0  0  0  0  0  0
  158.5740  211.6790  154.7750 C   0  0  1  0  0  3  0  0  0  0  0  0
  157.2100  211.5340  156.6920 O   0  0  0  0  0  0  0  0  0  0  0  0
  157.2520  211.5140  155.4720 C   0  0  0  0  0  0  0  0  0  0  0  0
  155.9820  211.3380  154.7000 C   0  0  0  0  0  2  0  0  0  0  0  0
  155.3010  210.2110  155.1580 O   0  0  0  0  0  1  0  0  0  0  0  0
  1  2  1  0  0  0  0
  2  8  1  0  0  0  0
  2 11  2  0  0  0  0
  6  7  1  0  0  0  0
  7  9  1  0  0  0  0
  8  4  1  0  0  0  0
  8 25  1  1  0  0  0
  9  3  2  0  0  0  0
  9  4  1  0  0  0  0
 10  5  1  1  0  0  0
 10  6  1  0  0  0  0
 10  1  1  0  0  0  0
 12  7  1  0  0  0  0
 13 23  1  6  0  0  0
 13 12  1  0  0  0  0
 14 13  1  1  0  0  0
 14 18  1  0  0  0  0
 15 16  1  0  0  0  0
 16 18  1  0  0  0  0
 19 17  1  6  0  0  0
 19 15  1  0  0  0  0
 19 14  1  0  0  0  0
 20 22  1  0  0  0  0
 21 22  2  0  0  0  0
 22 19  1  0  0  0  0
 24 23  1  0  0  0  0
 26 32  1  6  0  0  0
 26 27  1  0  0  0  0
 27 38  1  1  0  0  0
 28 26  1  0  0  0  0
 28 25  1  0  0  0  0
 28 27  1  0  0  0  0
 29 35  1  0  0  0  0
 30 32  2  0  0  0  0
 31 29  1  0  0  0  0
 33 30  1  0  0  0  0
 34 36  1  0  0  0  0
 34 29  2  0  0  0  0
 35 32  1  0  0  0  0
 36 33  2  0  0  0  0
 38 37  1  1  0  0  0
 38 40  1  0  0  0  0
 40 39  2  0  0  0  0
 41 42  1  0  0  0  0
 41 40  1  0  0  0  0
M  END
>  <MODEL>
2

>  <REMARK>
 VINA RESULT:      -6.8      3.085      9.943
  Name = 
  11 active torsions:
  status: ('A' for Active; 'I' for Inactive)
    1  A    between atoms: C_1  and  C_25
    2  A    between atoms: C_1  and  N_32
    3  A    between atoms: C_4  and  C_25
    4  A    between atoms: C_5  and  C_17
    5  A    between atoms: C_6  and  C_35
    6  A    between atoms: C_10  and  C_30
    7  A    between atoms: N_14  and  C_42
    8  A    between atoms: C_25  and  C_29
    9  A    between atoms: C_28  and  C_41
   10  A    between atoms: C_30  and  C_35
   11  A    between atoms: C_33  and  C_42
                            x       y       z     vdW  Elec       q    Type
                         _______ _______ _______ _____ _____    ______ ____

>  <TORSDO>
F 11

$$$$
=
 OpenBabel11072411003D

 42 45  0  0  1  0  0  0  0  0999 V2000
  162.7700  209.6790  151.4940 O   0  0  0  0  0  0  0  0  0  0  0  0
  161.9790  209.9630  152.6110 C   0  0  0  0  0  0  0  0  0  0  0  0
  161.3310  205.8040  153.8050 O   0  0  0  0  0  0  0  0  0  0  0  0
  160.8800  208.0730  153.6450 N   0  0  0  0  0  2  0  0  0  0  0  0
  161.1920  208.8550  149.9930 F   0  0  0  0  0  0  0  0  0  0  0  0
  162.6890  207.2690  151.0620 C   0  0  0  0  0  2  0  0  0  0  0  0
  161.4860  206.6990  151.6580 N   0  0  0  0  0  0  0  0  0  0  0  0
  160.6730  209.2630  152.8350 C   0  0  1  0  0  3  0  0  0  0  0  0
  161.2450  206.8190  153.0670 C   0  0  0  0  0  0  0  0  0  0  0  0
  162.4610  208.6800  150.5220 C   0  0  2  0  0  3  0  0  0  0  0  0
  162.4060  210.7870  153.4630 O   0  0  0  0  0  0  0  0  0  0  0  0
  160.6100  205.8880  150.8170 C   0  0  0  0  0  2  0  0  0  0  0  0
  161.2830  205.5160  149.4910 C   0  0  1  0  0  3  0  0  0  0  0  0
  161.5270  203.9970  149.3730 C   0  0  2  0  0  3  0  0  0  0  0  0
  160.5150  201.7870  149.5060 C   0  0  0  0  0  2  0  0  0  0  0  0
  161.1070  201.9880  148.1200 C   0  0  0  0  0  2  0  0  0  0  0  0
  159.2170  203.6750  150.3950 C   0  0  0  0  0  1  0  0  0  0  0  0
  161.3390  203.4730  147.9630 C   0  0  0  0  0  2  0  0  0  0  0  0
  160.6300  203.1100  150.2520 C   0  0  2  0  0  0  0  0  0  0  0  0
  162.5400  202.3320  151.7000 O   0  0  0  0  0  0  0  0  0  0  0  0
  160.6360  203.1690  152.6510 O   0  0  0  0  0  1  0  0  0  0  0  0
  161.2670  202.8850  151.5970 C   0  0  0  0  0  0  0  0  0  0  0  0
  160.4880  206.0590  148.2990 C   0  0  0  0  0  2  0  0  0  0  0  0
  161.3620  206.8370  147.3250 C   0  0  0  0  0  1  0  0  0  0  0  0
  159.6500  210.1850  153.4900 C   0  0  0  0  0  2  0  0  0  0  0  0
  159.2910  212.3370  152.5950 C   0  0  1  0  0  3  0  0  0  0  0  0
  157.9480  211.9240  153.0130 C   0  0  1  0  0  3  0  0  0  0  0  0
  158.9030  210.9200  152.4690 N   0  0  0  0  0  0  0  0  0  0  0  0
  160.7930  212.8270  149.3020 C   0  0  0  0  0  0  0  0  0  0  0  0
  158.0960  213.3090  150.6940 C   0  0  0  0  0  3  0  0  0  0  0  0
  162.2510  211.8970  149.0370 Cl  0  0  0  0  0  0  0  0  0  0  0  0
  159.2690  212.9760  151.2430 C   0  0  0  0  0  0  0  0  0  0  0  0
  157.9120  213.9460  149.3750 C   0  0  0  0  0  3  0  0  0  0  0  0
  160.0020  213.0940  148.2630 C   0  0  0  0  0  3  0  0  0  0  0  0
  160.5640  213.4270  150.6480 C   0  0  0  0  0  2  0  0  0  0  0  0
  158.7340  213.8520  148.3230 C   0  0  0  0  0  3  0  0  0  0  0  0
  158.5030  213.0640  155.0500 O   0  0  0  0  0  1  0  0  0  0  0  0
  157.8260  211.9500  154.5420 C   0  0  1  0  0  3  0  0  0  0  0  0
  155.6540  212.8660  154.5630 O   0  0  0  0  0  0  0  0  0  0  0  0
  156.3790  211.9640  154.9520 C   0  0  0  0  0  0  0  0  0  0  0  0
  155.8060  210.8870  155.8180 C   0  0  0  0  0  2  0  0  0  0  0  0
  155.0690  209.9950  155.0400 O   0  0  0  0  0  1  0  0  0  0  0  0
  1  2  1  0  0  0  0
  2  8  1  0  0  0  0
  2 11  2  0  0  0  0
  6  7  1  0  0  0  0
  7  9  1  0  0  0  0
  8 25  1  1  0  0  0
  8  4  1  0  0  0  0
  9  4  1  0  0  0  0
  9  3  2  0  0  0  0
 10  5  1  1  0  0  0
 10  6  1  0  0  0  0
 10  1  1  0  0  0  0
 12  7  1  0  0  0  0
 13 23  1  6  0  0  0
 13 12  1  0  0  0  0
 14 13  1  6  0  0  0
 14 19  1  0  0  0  0
 15 19  1  0  0  0  0
 16 15  1  0  0  0  0
 18 16  1  0  0  0  0
 18 14  1  0  0  0  0
 19 17  1  1  0  0  0
 19 22  1  0  0  0  0
 22 20  2  0  0  0  0
 22 21  1  0  0  0  0
 24 23  1  0  0  0  0
 26 32  1  6  0  0  0
 26 27  1  0  0  0  0
 27 38  1  1  0  0  0
 28 26  1  0  0  0  0
 28 27  1  0  0  0  0
 28 25  1  0  0  0  0
 29 35  1  0  0  0  0
 30 32  2  0  0  0  0
 31 29  1  0  0  0  0
 33 30  1  0  0  0  0
 34 36  1  0  0  0  0
 34 29  2  0  0  0  0
 35 32  1  0  0  0  0
 36 33  2  0  0  0  0
 38 40  1  0  0  0  0
 38 37  1  6  0  0  0
 39 40  2  0  0  0  0
 40 41  1  0  0  0  0
 42 41  1  0  0  0  0
M  END
>  <MODEL>
3

>  <REMARK>
 VINA RESULT:      -6.7      3.084      9.439
  Name = 
  11 active torsions:
  status: ('A' for Active; 'I' for Inactive)
    1  A    between atoms: C_1  and  C_25
    2  A    between atoms: C_1  and  N_32
    3  A    between atoms: C_4  and  C_25
    4  A    between atoms: C_5  and  C_17
    5  A    between atoms: C_6  and  C_35
    6  A    between atoms: C_10  and  C_30
    7  A    between atoms: N_14  and  C_42
    8  A    between atoms: C_25  and  C_29
    9  A    between atoms: C_28  and  C_41
   10  A    between atoms: C_30  and  C_35
   11  A    between atoms: C_33  and  C_42
                            x       y       z     vdW  Elec       q    Type
                         _______ _______ _______ _____ _____    ______ ____

>  <TORSDO>
F 11

$$$$
=
 OpenBabel11072411003D

 42 45  0  0  1  0  0  0  0  0999 V2000
  159.6410  208.3670  155.8730 O   0  0  0  0  0  0  0  0  0  0  0  0
  160.8050  208.3750  155.1000 C   0  0  0  0  0  0  0  0  0  0  0  0
  162.7040  211.7530  157.1330 O   0  0  0  0  0  0  0  0  0  0  0  0
  162.2660  210.2800  155.3950 N   0  0  0  0  0  2  0  0  0  0  0  0
  158.5310  210.2540  155.0820 F   0  0  0  0  0  0  0  0  0  0  0  0
  159.6000  210.3860  157.2590 C   0  0  0  0  0  2  0  0  0  0  0  0
  160.4460  211.4140  156.6620 N   0  0  0  0  0  0  0  0  0  0  0  0
  161.3220  209.6430  154.4900 C   0  0  1  0  0  3  0  0  0  0  0  0
  161.8390  211.1660  156.4310 C   0  0  0  0  0  0  0  0  0  0  0  0
  158.8900  209.5330  156.2090 C   0  0  2  0  0  3  0  0  0  0  0  0
  161.4490  207.3010  154.9600 O   0  0  0  0  0  0  0  0  0  0  0  0
  159.8760  212.7390  156.4360 C   0  0  0  0  0  2  0  0  0  0  0  0
  158.8350  212.7250  155.3120 C   0  0  1  0  0  3  0  0  0  0  0  0
  157.6450  213.6590  155.6130 C   0  0  2  0  0  3  0  0  0  0  0  0
  155.2770  213.7760  156.1640 C   0  0  0  0  0  2  0  0  0  0  0  0
  156.0840  214.4530  157.2610 C   0  0  0  0  0  2  0  0  0  0  0  0
  156.1460  211.6140  155.3820 C   0  0  0  0  0  1  0  0  0  0  0  0
  157.5140  213.9980  157.0850 C   0  0  0  0  0  2  0  0  0  0  0  0
  156.2630  213.1280  155.2010 C   0  0  2  0  0  0  0  0  0  0  0  0
  154.7770  213.0960  153.1650 O   0  0  0  0  0  1  0  0  0  0  0  0
  156.7460  214.2600  153.1410 O   0  0  0  0  0  0  0  0  0  0  0  0
  155.9410  213.5360  153.7880 C   0  0  0  0  0  0  0  0  0  0  0  0
  159.4810  213.0440  153.9590 C   0  0  0  0  0  2  0  0  0  0  0  0
  159.1220  212.0220  152.8890 C   0  0  0  0  0  1  0  0  0  0  0  0
  161.9710  209.3880  153.1340 C   0  0  0  0  0  2  0  0  0  0  0  0
  162.0020  207.8220  151.3720 C   0  0  1  0  0  3  0  0  0  0  0  0
  161.1080  208.8680  150.8690 C   0  0  1  0  0  3  0  0  0  0  0  0
  161.1170  208.5260  152.3170 N   0  0  0  0  0  0  0  0  0  0  0  0
  161.1360  205.1660  149.0180 C   0  0  0  0  0  0  0  0  0  0  0  0
  161.5500  205.5130  152.0430 C   0  0  0  0  0  3  0  0  0  0  0  0
  161.5270  205.5330  147.3530 Cl  0  0  0  0  0  0  0  0  0  0  0  0
  161.4500  206.4580  151.1030 C   0  0  0  0  0  0  0  0  0  0  0  0
  161.0530  204.1270  151.9280 C   0  0  0  0  0  3  0  0  0  0  0  0
  161.1840  203.8980  149.4270 C   0  0  0  0  0  3  0  0  0  0  0  0
  160.6070  206.2590  149.8840 C   0  0  0  0  0  2  0  0  0  0  0  0
  160.8960  203.4280  150.7980 C   0  0  0  0  0  3  0  0  0  0  0  0
  163.1800  210.0630  151.0590 O   0  0  0  0  0  1  0  0  0  0  0  0
  161.9050  210.1230  150.4870 C   0  0  1  0  0  3  0  0  0  0  0  0
  161.6840  209.3050  148.2880 O   0  0  0  0  0  0  0  0  0  0  0  0
  161.9900  210.2550  148.9920 C   0  0  0  0  0  0  0  0  0  0  0  0
  162.4300  211.5310  148.3470 C   0  0  0  0  0  2  0  0  0  0  0  0
  161.5630  212.5650  148.7010 O   0  0  0  0  0  1  0  0  0  0  0  0
  1 10  1  0  0  0  0
  2  1  1  0  0  0  0
  4  9  1  0  0  0  0
  7  6  1  0  0  0  0
  8 25  1  6  0  0  0
  8  2  1  0  0  0  0
  8  4  1  0  0  0  0
  9  7  1  0  0  0  0
  9  3  2  0  0  0  0
 10  5  1  6  0  0  0
 10  6  1  0  0  0  0
 11  2  2  0  0  0  0
 12  7  1  0  0  0  0
 13 23  1  6  0  0  0
 13 12  1  0  0  0  0
 14 13  1  1  0  0  0
 14 18  1  0  0  0  0
 15 16  1  0  0  0  0
 18 16  1  0  0  0  0
 19 17  1  1  0  0  0
 19 14  1  0  0  0  0
 19 15  1  0  0  0  0
 20 22  1  0  0  0  0
 21 22  2  0  0  0  0
 22 19  1  0  0  0  0
 24 23  1  0  0  0  0
 26 32  1  6  0  0  0
 26 28  1  0  0  0  0
 27 38  1  1  0  0  0
 27 26  1  0  0  0  0
 27 28  1  0  0  0  0
 28 25  1  0  0  0  0
 29 34  2  0  0  0  0
 29 35  1  0  0  0  0
 31 29  1  0  0  0  0
 32 30  2  0  0  0  0
 33 30  1  0  0  0  0
 34 36  1  0  0  0  0
 35 32  1  0  0  0  0
 36 33  2  0  0  0  0
 38 37  1  1  0  0  0
 39 40  2  0  0  0  0
 40 38  1  0  0  0  0
 41 42  1  0  0  0  0
 41 40  1  0  0  0  0
M  END
>  <MODEL>
4

>  <REMARK>
 VINA RESULT:      -5.9      2.398      3.955
  Name = 
  11 active torsions:
  status: ('A' for Active; 'I' for Inactive)
    1  A    between atoms: C_1  and  C_25
    2  A    between atoms: C_1  and  N_32
    3  A    between atoms: C_4  and  C_25
    4  A    between atoms: C_5  and  C_17
    5  A    between atoms: C_6  and  C_35
    6  A    between atoms: C_10  and  C_30
    7  A    between atoms: N_14  and  C_42
    8  A    between atoms: C_25  and  C_29
    9  A    between atoms: C_28  and  C_41
   10  A    between atoms: C_30  and  C_35
   11  A    between atoms: C_33  and  C_42
                            x       y       z     vdW  Elec       q    Type
                         _______ _______ _______ _____ _____    ______ ____

>  <TORSDO>
F 11

$$$$
=
 OpenBabel11072411003D

 42 45  0  0  1  0  0  0  0  0999 V2000
  162.8240  209.8370  151.6280 O   0  0  0  0  0  0  0  0  0  0  0  0
  161.9550  210.0590  152.7000 C   0  0  0  0  0  0  0  0  0  0  0  0
  160.7980  205.8760  153.2490 O   0  0  0  0  0  0  0  0  0  0  0  0
  160.5820  208.1820  153.3640 N   0  0  0  0  0  2  0  0  0  0  0  0
  161.3370  209.3860  149.8960 F   0  0  0  0  0  0  0  0  0  0  0  0
  162.5610  207.5250  150.8650 C   0  0  0  0  0  2  0  0  0  0  0  0
  161.2550  207.0160  151.2680 N   0  0  0  0  0  0  0  0  0  0  0  0
  160.5720  209.4810  152.7100 C   0  0  1  0  0  3  0  0  0  0  0  0
  160.8840  206.9800  152.6530 C   0  0  0  0  0  0  0  0  0  0  0  0
  162.5230  209.0100  150.5050 C   0  0  2  0  0  3  0  0  0  0  0  0
  162.3690  210.7180  153.6910 O   0  0  0  0  0  0  0  0  0  0  0  0
  160.3960  206.4180  150.2500 C   0  0  0  0  0  2  0  0  0  0  0  0
  160.6260  204.9080  150.1300 C   0  0  1  0  0  3  0  0  0  0  0  0
  160.5520  204.4260  148.6660 C   0  0  2  0  0  3  0  0  0  0  0  0
  161.7960  204.0890  146.6010 C   0  0  0  0  0  2  0  0  0  0  0  0
  161.2200  202.7610  147.0650 C   0  0  0  0  0  2  0  0  0  0  0  0
  162.8580  205.4570  148.3450 C   0  0  0  0  0  1  0  0  0  0  0  0
  160.8310  202.9440  148.5140 C   0  0  0  0  0  2  0  0  0  0  0  0
  161.5190  205.1160  147.6900 C   0  0  2  0  0  0  0  0  0  0  0  0
  159.9560  206.2240  146.0520 O   0  0  0  0  0  0  0  0  0  0  0  0
  161.1950  207.4860  147.5020 O   0  0  0  0  0  1  0  0  0  0  0  0
  160.8770  206.3380  147.0890 C   0  0  0  0  0  0  0  0  0  0  0  0
  161.9410  204.4950  150.8000 C   0  0  0  0  0  2  0  0  0  0  0  0
  161.7850  203.2550  151.6690 C   0  0  0  0  0  1  0  0  0  0  0  0
  159.5800  210.4160  153.3920 C   0  0  0  0  0  2  0  0  0  0  0  0
  159.2850  212.5390  152.4090 C   0  0  1  0  0  3  0  0  0  0  0  0
  157.9560  212.2370  152.9500 C   0  0  1  0  0  3  0  0  0  0  0  0
  158.8010  211.1460  152.3920 N   0  0  0  0  0  0  0  0  0  0  0  0
  160.6900  212.9700  149.0650 C   0  0  0  0  0  0  0  0  0  0  0  0
  157.9920  213.3340  150.4900 C   0  0  0  0  0  3  0  0  0  0  0  0
  162.2040  212.1290  148.8140 Cl  0  0  0  0  0  0  0  0  0  0  0  0
  159.1940  213.1080  151.0300 C   0  0  0  0  0  0  0  0  0  0  0  0
  157.7410  213.8920  149.1470 C   0  0  0  0  0  3  0  0  0  0  0  0
  159.8640  213.1320  148.0320 C   0  0  0  0  0  3  0  0  0  0  0  0
  160.4450  213.6170  150.3860 C   0  0  0  0  0  2  0  0  0  0  0  0
  158.5490  213.8040  148.0830 C   0  0  0  0  0  3  0  0  0  0  0  0
  158.6000  213.5310  154.8670 O   0  0  0  0  0  1  0  0  0  0  0  0
  157.9580  212.3490  154.4810 C   0  0  1  0  0  3  0  0  0  0  0  0
  155.8950  211.2800  154.8740 O   0  0  0  0  0  0  0  0  0  0  0  0
  156.5530  212.2990  155.0110 C   0  0  0  0  0  0  0  0  0  0  0  0
  155.9440  213.4720  155.7150 C   0  0  0  0  0  2  0  0  0  0  0  0
  154.9930  214.0760  154.8940 O   0  0  0  0  0  1  0  0  0  0  0  0
  1  2  1  0  0  0  0
  2  8  1  0  0  0  0
  2 11  2  0  0  0  0
  6  7  1  0  0  0  0
  7  9  1  0  0  0  0
  8  4  1  0  0  0  0
  8 25  1  1  0  0  0
  9  3  2  0  0  0  0
  9  4  1  0  0  0  0
 10  5  1  1  0  0  0
 10  6  1  0  0  0  0
 10  1  1  0  0  0  0
 12  7  1  0  0  0  0
 13 12  1  6  0  0  0
 13 23  1  0  0  0  0
 14 13  1  1  0  0  0
 15 16  1  0  0  0  0
 15 19  1  0  0  0  0
 16 18  1  0  0  0  0
 18 14  1  0  0  0  0
 19 17  1  1  0  0  0
 19 14  1  0  0  0  0
 20 22  2  0  0  0  0
 22 21  1  0  0  0  0
 22 19  1  0  0  0  0
 23 24  1  0  0  0  0
 26 32  1  6  0  0  0
 26 27  1  0  0  0  0
 27 38  1  1  0  0  0
 28 26  1  0  0  0  0
 28 27  1  0  0  0  0
 28 25  1  0  0  0  0
 29 35  1  0  0  0  0
 30 32  2  0  0  0  0
 31 29  1  0  0  0  0
 33 30  1  0  0  0  0
 34 36  1  0  0  0  0
 34 29  2  0  0  0  0
 35 32  1  0  0  0  0
 36 33  2  0  0  0  0
 38 37  1  6  0  0  0
 38 40  1  0  0  0  0
 39 40  2  0  0  0  0
 40 41  1  0  0  0  0
 42 41  1  0  0  0  0
M  END
>  <MODEL>
5

>  <REMARK>
 VINA RESULT:      -5.8      3.052      9.524
  Name = 
  11 active torsions:
  status: ('A' for Active; 'I' for Inactive)
    1  A    between atoms: C_1  and  C_25
    2  A    between atoms: C_1  and  N_32
    3  A    between atoms: C_4  and  C_25
    4  A    between atoms: C_5  and  C_17
    5  A    between atoms: C_6  and  C_35
    6  A    between atoms: C_10  and  C_30
    7  A    between atoms: N_14  and  C_42
    8  A    between atoms: C_25  and  C_29
    9  A    between atoms: C_28  and  C_41
   10  A    between atoms: C_30  and  C_35
   11  A    between atoms: C_33  and  C_42
                            x       y       z     vdW  Elec       q    Type
                         _______ _______ _______ _____ _____    ______ ____

>  <TORSDO>
F 11

$$$$
=
 OpenBabel11072411003D

 42 45  0  0  1  0  0  0  0  0999 V2000
  161.2140  204.8510  153.1190 O   0  0  0  0  0  0  0  0  0  0  0  0
  161.0120  206.2340  153.0950 C   0  0  0  0  0  0  0  0  0  0  0  0
  159.3120  206.3960  149.0660 O   0  0  0  0  0  0  0  0  0  0  0  0
  160.4030  207.1840  150.9550 N   0  0  0  0  0  2  0  0  0  0  0  0
  163.0310  204.6120  151.6830 F   0  0  0  0  0  0  0  0  0  0  0  0
  160.8380  203.9590  150.8690 C   0  0  0  0  0  2  0  0  0  0  0  0
  161.0070  205.0190  149.8810 N   0  0  0  0  0  0  0  0  0  0  0  0
  161.4710  207.0650  151.9350 C   0  0  1  0  0  3  0  0  0  0  0  0
  160.1990  206.2020  149.9370 C   0  0  0  0  0  0  0  0  0  0  0  0
  161.7950  204.1040  152.0510 C   0  0  2  0  0  3  0  0  0  0  0  0
  160.3870  206.7730  154.0470 O   0  0  0  0  0  0  0  0  0  0  0  0
  161.9140  204.7860  148.7610 C   0  0  0  0  0  2  0  0  0  0  0  0
  161.3390  203.7710  147.7670 C   0  0  1  0  0  3  0  0  0  0  0  0
  161.8720  203.9970  146.3360 C   0  0  2  0  0  3  0  0  0  0  0  0
  161.6660  205.3250  144.3070 C   0  0  0  0  0  2  0  0  0  0  0  0
  163.0800  205.4510  144.8510 C   0  0  0  0  0  2  0  0  0  0  0  0
  159.8640  205.5190  145.9670 C   0  0  0  0  0  1  0  0  0  0  0  0
  163.0350  204.9680  146.2820 C   0  0  0  0  0  2  0  0  0  0  0  0
  160.8490  204.5420  145.3260 C   0  0  2  0  0  0  0  0  0  0  0  0
  160.4550  202.0850  144.9220 O   0  0  0  0  0  1  0  0  0  0  0  0
  159.2420  203.6530  143.7820 O   0  0  0  0  0  0  0  0  0  0  0  0
  160.1300  203.4090  144.6430 C   0  0  0  0  0  0  0  0  0  0  0  0
  161.5810  202.3350  148.2440 C   0  0  0  0  0  2  0  0  0  0  0  0
  160.2830  201.5900  148.5230 C   0  0  0  0  0  1  0  0  0  0  0  0
  161.9390  208.4450  152.3860 C   0  0  0  0  0  2  0  0  0  0  0  0
  161.3040  210.6830  152.7710 C   0  0  1  0  0  3  0  0  0  0  0  0
  160.8390  209.9940  153.9780 C   0  0  1  0  0  3  0  0  0  0  0  0
  160.7890  209.3060  152.6600 N   0  0  0  0  0  0  0  0  0  0  0  0
  158.3530  212.7600  153.3360 C   0  0  0  0  0  0  0  0  0  0  0  0
  160.5830  212.4540  151.2450 C   0  0  0  0  0  3  0  0  0  0  0  0
  157.7660  212.7310  154.9850 Cl  0  0  0  0  0  0  0  0  0  0  0  0
  160.2750  211.6370  152.2570 C   0  0  0  0  0  0  0  0  0  0  0  0
  159.6780  213.4440  150.6290 C   0  0  0  0  0  3  0  0  0  0  0  0
  158.1960  213.8700  152.6160 C   0  0  0  0  0  3  0  0  0  0  0  0
  158.8670  211.4930  152.7400 C   0  0  0  0  0  2  0  0  0  0  0  0
  158.6470  214.0580  151.2210 C   0  0  0  0  0  3  0  0  0  0  0  0
  162.8870  210.7040  155.0090 O   0  0  0  0  0  1  0  0  0  0  0  0
  162.0260  209.6100  154.8720 C   0  0  1  0  0  3  0  0  0  0  0  0
  162.3300  208.6280  156.9930 O   0  0  0  0  0  0  0  0  0  0  0  0
  161.5390  209.1360  156.2130 C   0  0  0  0  0  0  0  0  0  0  0  0
  160.1060  209.2830  156.6170 C   0  0  0  0  0  2  0  0  0  0  0  0
  159.9140  210.5140  157.2430 O   0  0  0  0  0  1  0  0  0  0  0  0
  2  1  1  0  0  0  0
  2 11  2  0  0  0  0
  3  9  2  0  0  0  0
  4  8  1  0  0  0  0
  6 10  1  0  0  0  0
  7  9  1  0  0  0  0
  7  6  1  0  0  0  0
  8 25  1  1  0  0  0
  8  2  1  0  0  0  0
  9  4  1  0  0  0  0
 10  5  1  6  0  0  0
 10  1  1  0  0  0  0
 12  7  1  0  0  0  0
 13 23  1  1  0  0  0
 13 12  1  0  0  0  0
 14 13  1  1  0  0  0
 15 16  1  0  0  0  0
 15 19  1  0  0  0  0
 16 18  1  0  0  0  0
 18 14  1  0  0  0  0
 19 17  1  1  0  0  0
 19 14  1  0  0  0  0
 21 22  2  0  0  0  0
 22 20  1  0  0  0  0
 22 19  1  0  0  0  0
 23 24  1  0  0  0  0
 25 28  1  0  0  0  0
 26 32  1  6  0  0  0
 26 27  1  0  0  0  0
 27 38  1  1  0  0  0
 28 26  1  0  0  0  0
 28 27  1  0  0  0  0
 29 31  1  0  0  0  0
 30 32  2  0  0  0  0
 32 35  1  0  0  0  0
 33 36  2  0  0  0  0
 33 30  1  0  0  0  0
 34 29  2  0  0  0  0
 35 29  1  0  0  0  0
 36 34  1  0  0  0  0
 38 37  1  1  0  0  0
 38 40  1  0  0  0  0
 40 41  1  0  0  0  0
 40 39  2  0  0  0  0
 41 42  1  0  0  0  0
M  END
>  <MODEL>
6

>  <REMARK>
 VINA RESULT:      -5.6      3.116     10.169
  Name = 
  11 active torsions:
  status: ('A' for Active; 'I' for Inactive)
    1  A    between atoms: C_1  and  C_25
    2  A    between atoms: C_1  and  N_32
    3  A    between atoms: C_4  and  C_25
    4  A    between atoms: C_5  and  C_17
    5  A    between atoms: C_6  and  C_35
    6  A    between atoms: C_10  and  C_30
    7  A    between atoms: N_14  and  C_42
    8  A    between atoms: C_25  and  C_29
    9  A    between atoms: C_28  and  C_41
   10  A    between atoms: C_30  and  C_35
   11  A    between atoms: C_33  and  C_42
                            x       y       z     vdW  Elec       q    Type
                         _______ _______ _______ _____ _____    ______ ____

>  <TORSDO>
F 11

$$$$
=
 OpenBabel11072411003D

 42 45  0  0  1  0  0  0  0  0999 V2000
  160.6140  207.4030  155.0020 O   0  0  0  0  0  0  0  0  0  0  0  0
  161.5050  208.0640  154.1520 C   0  0  0  0  0  0  0  0  0  0  0  0
  162.8320  211.0370  157.0750 O   0  0  0  0  0  0  0  0  0  0  0  0
  162.4090  210.1520  154.9740 N   0  0  0  0  0  2  0  0  0  0  0  0
  158.8680  208.9350  155.1450 F   0  0  0  0  0  0  0  0  0  0  0  0
  160.3550  208.7170  157.0520 C   0  0  0  0  0  2  0  0  0  0  0  0
  160.7120  210.1090  156.7970 N   0  0  0  0  0  0  0  0  0  0  0  0
  161.4870  209.5570  154.0190 C   0  0  1  0  0  3  0  0  0  0  0  0
  162.0190  210.4480  156.3160 C   0  0  0  0  0  0  0  0  0  0  0  0
  159.6750  208.0600  155.8520 C   0  0  2  0  0  3  0  0  0  0  0  0
  162.3670  207.3870  153.5300 O   0  0  0  0  0  0  0  0  0  0  0  0
  159.7610  211.1510  157.1730 C   0  0  0  0  0  2  0  0  0  0  0  0
  159.4940  212.1190  156.0150 C   0  0  1  0  0  3  0  0  0  0  0  0
  157.9850  212.3020  155.7510 C   0  0  2  0  0  3  0  0  0  0  0  0
  156.1390  211.8080  154.2430 C   0  0  0  0  0  2  0  0  0  0  0  0
  155.8280  211.2480  155.6210 C   0  0  0  0  0  2  0  0  0  0  0  0
  158.4140  211.3910  153.4120 C   0  0  0  0  0  1  0  0  0  0  0  0
  157.1360  211.2130  156.3770 C   0  0  0  0  0  2  0  0  0  0  0  0
  157.5690  212.3310  154.2710 C   0  0  2  0  0  0  0  0  0  0  0  0
  158.8010  214.3020  153.2960 O   0  0  0  0  0  0  0  0  0  0  0  0
  156.5600  214.4390  153.7260 O   0  0  0  0  0  1  0  0  0  0  0  0
  157.6080  213.7400  153.7410 C   0  0  0  0  0  0  0  0  0  0  0  0
  160.1980  213.4610  156.2460 C   0  0  0  0  0  2  0  0  0  0  0  0
  159.3400  214.4380  157.0360 C   0  0  0  0  0  1  0  0  0  0  0  0
  161.8300  209.9960  152.6000 C   0  0  0  0  0  2  0  0  0  0  0  0
  161.9560  208.6470  150.6700 C   0  0  1  0  0  3  0  0  0  0  0  0
  161.1180  209.7680  150.2360 C   0  0  1  0  0  3  0  0  0  0  0  0
  161.0190  209.2580  151.6310 N   0  0  0  0  0  0  0  0  0  0  0  0
  161.4990  206.1610  148.0320 C   0  0  0  0  0  0  0  0  0  0  0  0
  161.2230  206.3510  151.0870 C   0  0  0  0  0  3  0  0  0  0  0  0
  162.2860  206.5700  146.5240 Cl  0  0  0  0  0  0  0  0  0  0  0  0
  161.4000  207.3390  150.2050 C   0  0  0  0  0  0  0  0  0  0  0  0
  160.6840  205.0100  150.7830 C   0  0  0  0  0  3  0  0  0  0  0  0
  161.3750  204.8780  148.3680 C   0  0  0  0  0  3  0  0  0  0  0  0
  160.8510  207.2520  148.8170 C   0  0  0  0  0  2  0  0  0  0  0  0
  160.7510  204.3720  149.6080 C   0  0  0  0  0  3  0  0  0  0  0  0
  163.1360  210.7310  149.3650 O   0  0  0  0  0  1  0  0  0  0  0  0
  161.9620  211.0380  150.0600 C   0  0  1  0  0  3  0  0  0  0  0  0
  160.2120  212.6090  149.9020 O   0  0  0  0  0  0  0  0  0  0  0  0
  161.1710  212.0980  149.3450 C   0  0  0  0  0  0  0  0  0  0  0  0
  161.5410  212.5480  147.9670 C   0  0  0  0  0  2  0  0  0  0  0  0
  160.3940  212.9110  147.2630 O   0  0  0  0  0  1  0  0  0  0  0  0
  1 10  1  0  0  0  0
  2  1  1  0  0  0  0
  4  9  1  0  0  0  0
  7  6  1  0  0  0  0
  7 12  1  0  0  0  0
  8 25  1  6  0  0  0
  8  2  1  0  0  0  0
  8  4  1  0  0  0  0
  9  7  1  0  0  0  0
  9  3  2  0  0  0  0
 10  5  1  6  0  0  0
 10  6  1  0  0  0  0
 11  2  2  0  0  0  0
 13 23  1  1  0  0  0
 13 12  1  0  0  0  0
 14 13  1  6  0  0  0
 14 18  1  0  0  0  0
 15 19  1  0  0  0  0
 15 16  1  0  0  0  0
 16 18  1  0  0  0  0
 19 17  1  6  0  0  0
 19 14  1  0  0  0  0
 20 22  2  0  0  0  0
 21 22  1  0  0  0  0
 22 19  1  0  0  0  0
 23 24  1  0  0  0  0
 26 32  1  6  0  0  0
 26 28  1  0  0  0  0
 27 38  1  1  0  0  0
 27 26  1  0  0  0  0
 27 28  1  0  0  0  0
 28 25  1  0  0  0  0
 29 34  2  0  0  0  0
 29 35  1  0  0  0  0
 31 29  1  0  0  0  0
 32 30  2  0  0  0  0
 33 30  1  0  0  0  0
 34 36  1  0  0  0  0
 35 32  1  0  0  0  0
 36 33  2  0  0  0  0
 38 37  1  6  0  0  0
 40 39  2  0  0  0  0
 40 38  1  0  0  0  0
 41 40  1  0  0  0  0
 42 41  1  0  0  0  0
M  END
>  <MODEL>
7

>  <REMARK>
 VINA RESULT:      -5.2      2.658      3.841
  Name = 
  11 active torsions:
  status: ('A' for Active; 'I' for Inactive)
    1  A    between atoms: C_1  and  C_25
    2  A    between atoms: C_1  and  N_32
    3  A    between atoms: C_4  and  C_25
    4  A    between atoms: C_5  and  C_17
    5  A    between atoms: C_6  and  C_35
    6  A    between atoms: C_10  and  C_30
    7  A    between atoms: N_14  and  C_42
    8  A    between atoms: C_25  and  C_29
    9  A    between atoms: C_28  and  C_41
   10  A    between atoms: C_30  and  C_35
   11  A    between atoms: C_33  and  C_42
                            x       y       z     vdW  Elec       q    Type
                         _______ _______ _______ _____ _____    ______ ____

>  <TORSDO>
F 11

$$$$
=
 OpenBabel11072411003D

 42 45  0  0  1  0  0  0  0  0999 V2000
  161.1220  204.5480  153.1720 O   0  0  0  0  0  0  0  0  0  0  0  0
  161.0300  205.9360  153.0370 C   0  0  0  0  0  0  0  0  0  0  0  0
  159.3290  205.9130  149.0060 O   0  0  0  0  0  0  0  0  0  0  0  0
  160.4890  206.7580  150.8280 N   0  0  0  0  0  2  0  0  0  0  0  0
  162.9060  204.0500  151.7620 F   0  0  0  0  0  0  0  0  0  0  0  0
  160.6640  203.5130  151.0000 C   0  0  0  0  0  2  0  0  0  0  0  0
  160.9120  204.4730  149.9310 N   0  0  0  0  0  0  0  0  0  0  0  0
  161.5490  206.6330  151.8160 C   0  0  1  0  0  3  0  0  0  0  0  0
  160.2020  205.7180  149.8910 C   0  0  0  0  0  0  0  0  0  0  0  0
  161.6360  203.6740  152.1680 C   0  0  2  0  0  3  0  0  0  0  0  0
  160.4560  206.5980  153.9430 O   0  0  0  0  0  0  0  0  0  0  0  0
  161.7920  204.0800  148.8340 C   0  0  0  0  0  2  0  0  0  0  0  0
  161.0070  203.4700  147.6680 C   0  0  1  0  0  3  0  0  0  0  0  0
  160.9240  204.4290  146.4620 C   0  0  2  0  0  3  0  0  0  0  0  0
  162.1910  205.6510  144.7810 C   0  0  0  0  0  2  0  0  0  0  0  0
  161.2220  204.7030  144.0920 C   0  0  0  0  0  2  0  0  0  0  0  0
  163.4470  204.7030  146.6690 C   0  0  0  0  0  1  0  0  0  0  0  0
  160.7800  203.7060  145.1370 C   0  0  0  0  0  2  0  0  0  0  0  0
  162.1270  205.3670  146.2750 C   0  0  2  0  0  0  0  0  0  0  0  0
  162.8450  207.0920  147.9680 O   0  0  0  0  0  1  0  0  0  0  0  0
  160.8680  207.3300  146.8440 O   0  0  0  0  0  0  0  0  0  0  0  0
  161.9150  206.6520  147.0310 C   0  0  0  0  0  0  0  0  0  0  0  0
  161.5800  202.1050  147.2720 C   0  0  0  0  0  2  0  0  0  0  0  0
  161.2060  201.0100  148.2610 C   0  0  0  0  0  1  0  0  0  0  0  0
  162.1280  208.0020  152.1550 C   0  0  0  0  0  2  0  0  0  0  0  0
  161.9400  210.3280  151.8190 C   0  0  1  0  0  3  0  0  0  0  0  0
  160.9230  210.0580  152.8390 C   0  0  1  0  0  3  0  0  0  0  0  0
  161.1920  209.0580  151.7700 N   0  0  0  0  0  0  0  0  0  0  0  0
  160.0850  213.3270  150.8640 C   0  0  0  0  0  0  0  0  0  0  0  0
  162.0820  211.3600  149.6050 C   0  0  0  0  0  3  0  0  0  0  0  0
  159.4640  214.2430  152.2190 Cl  0  0  0  0  0  0  0  0  0  0  0  0
  161.4190  211.2470  150.7600 C   0  0  0  0  0  0  0  0  0  0  0  0
  161.6940  212.2190  148.4690 C   0  0  0  0  0  3  0  0  0  0  0  0
  160.4310  213.9750  149.7520 C   0  0  0  0  0  3  0  0  0  0  0  0
  160.0570  211.8370  150.9370 C   0  0  0  0  0  2  0  0  0  0  0  0
  160.9820  213.3510  148.5320 C   0  0  0  0  0  3  0  0  0  0  0  0
  162.5860  210.7030  154.4450 O   0  0  0  0  0  1  0  0  0  0  0  0
  161.5820  209.7630  154.1930 C   0  0  1  0  0  3  0  0  0  0  0  0
  159.4750  210.3100  155.0980 O   0  0  0  0  0  0  0  0  0  0  0  0
  160.5510  209.7660  155.2880 C   0  0  0  0  0  0  0  0  0  0  0  0
  160.8130  209.1050  156.6050 C   0  0  0  0  0  2  0  0  0  0  0  0
  161.9000  208.2390  156.4920 O   0  0  0  0  0  1  0  0  0  0  0  0
  2  1  1  0  0  0  0
  2 11  2  0  0  0  0
  3  9  2  0  0  0  0
  4  8  1  0  0  0  0
  6 10  1  0  0  0  0
  7  6  1  0  0  0  0
  8 25  1  1  0  0  0
  8  2  1  0  0  0  0
  9  7  1  0  0  0  0
  9  4  1  0  0  0  0
 10  5  1  6  0  0  0
 10  1  1  0  0  0  0
 12  7  1  0  0  0  0
 13 23  1  6  0  0  0
 13 12  1  0  0  0  0
 14 13  1  1  0  0  0
 15 19  1  0  0  0  0
 16 15  1  0  0  0  0
 16 18  1  0  0  0  0
 18 14  1  0  0  0  0
 19 14  1  0  0  0  0
 19 17  1  1  0  0  0
 19 22  1  0  0  0  0
 21 22  2  0  0  0  0
 22 20  1  0  0  0  0
 23 24  1  0  0  0  0
 26 32  1  6  0  0  0
 26 27  1  0  0  0  0
 27 38  1  1  0  0  0
 28 26  1  0  0  0  0
 28 25  1  0  0  0  0
 28 27  1  0  0  0  0
 29 35  1  0  0  0  0
 29 31  1  0  0  0  0
 30 32  2  0  0  0  0
 32 35  1  0  0  0  0
 33 36  2  0  0  0  0
 33 30  1  0  0  0  0
 34 29  2  0  0  0  0
 36 34  1  0  0  0  0
 38 37  1  1  0  0  0
 38 40  1  0  0  0  0
 39 40  2  0  0  0  0
 40 41  1  0  0  0  0
 42 41  1  0  0  0  0
M  END
>  <MODEL>
8

>  <REMARK>
 VINA RESULT:      -5.2      3.320      9.500
  Name = 
  11 active torsions:
  status: ('A' for Active; 'I' for Inactive)
    1  A    between atoms: C_1  and  C_25
    2  A    between atoms: C_1  and  N_32
    3  A    between atoms: C_4  and  C_25
    4  A    between atoms: C_5  and  C_17
    5  A    between atoms: C_6  and  C_35
    6  A    between atoms: C_10  and  C_30
    7  A    between atoms: N_14  and  C_42
    8  A    between atoms: C_25  and  C_29
    9  A    between atoms: C_28  and  C_41
   10  A    between atoms: C_30  and  C_35
   11  A    between atoms: C_33  and  C_42
                            x       y       z     vdW  Elec       q    Type
                         _______ _______ _______ _____ _____    ______ ____

>  <TORSDO>
F 11

$$$$
=
 OpenBabel11072411003D

 42 45  0  0  1  0  0  0  0  0999 V2000
  162.4020  209.5350  148.8450 O   0  0  0  0  0  0  0  0  0  0  0  0
  161.9490  209.9910  150.0860 C   0  0  0  0  0  0  0  0  0  0  0  0
  162.6760  206.2610  152.2560 O   0  0  0  0  0  0  0  0  0  0  0  0
  161.6870  208.3100  151.8060 N   0  0  0  0  0  2  0  0  0  0  0  0
  160.6750  208.1130  148.2020 F   0  0  0  0  0  0  0  0  0  0  0  0
  162.7510  207.1140  148.9720 C   0  0  0  0  0  2  0  0  0  0  0  0
  161.9540  206.5550  150.0590 N   0  0  0  0  0  0  0  0  0  0  0  0
  160.9730  209.1930  150.8960 C   0  0  1  0  0  3  0  0  0  0  0  0
  162.1360  207.0150  151.4050 C   0  0  0  0  0  0  0  0  0  0  0  0
  162.0490  208.2770  148.2720 C   0  0  2  0  0  3  0  0  0  0  0  0
  162.4140  211.0690  150.5440 O   0  0  0  0  0  0  0  0  0  0  0  0
  161.0750  205.4270  149.7670 C   0  0  0  0  0  2  0  0  0  0  0  0
  161.6260  204.5570  148.6320 C   0  0  1  0  0  3  0  0  0  0  0  0
  161.6060  203.0570  148.9930 C   0  0  2  0  0  3  0  0  0  0  0  0
  160.2650  201.2190  149.8570 C   0  0  0  0  0  2  0  0  0  0  0  0
  160.7490  200.8750  148.4580 C   0  0  0  0  0  2  0  0  0  0  0  0
  159.3810  203.4940  150.1500 C   0  0  0  0  0  1  0  0  0  0  0  0
  161.2040  202.1720  147.8300 C   0  0  0  0  0  2  0  0  0  0  0  0
  160.6630  202.6610  150.1400 C   0  0  2  0  0  0  0  0  0  0  0  0
  160.9160  203.5830  152.4730 O   0  0  0  0  0  1  0  0  0  0  0  0
  162.4290  202.0750  151.6560 O   0  0  0  0  0  0  0  0  0  0  0  0
  161.3780  202.7450  151.4620 C   0  0  0  0  0  0  0  0  0  0  0  0
  160.8910  204.8360  147.3170 C   0  0  0  0  0  2  0  0  0  0  0  0
  161.8230  205.3510  146.2300 C   0  0  0  0  0  1  0  0  0  0  0  0
  160.0160  210.0950  151.6680 C   0  0  0  0  0  2  0  0  0  0  0  0
  159.8450  210.4210  153.9970 C   0  0  1  0  0  3  0  0  0  0  0  0
  159.9400  211.7880  153.4770 C   0  0  1  0  0  3  0  0  0  0  0  0
  160.6950  210.6860  152.8210 N   0  0  0  0  0  0  0  0  0  0  0  0
  160.9390  208.3810  156.8220 C   0  0  0  0  0  0  0  0  0  0  0  0
  161.9030  210.8400  155.2510 C   0  0  0  0  0  3  0  0  0  0  0  0
  160.1560  206.8190  156.9200 Cl  0  0  0  0  0  0  0  0  0  0  0  0
  160.7130  210.2340  155.2000 C   0  0  0  0  0  0  0  0  0  0  0  0
  162.8670  210.7540  156.3660 C   0  0  0  0  0  3  0  0  0  0  0  0
  162.1920  208.5020  157.2610 C   0  0  0  0  0  3  0  0  0  0  0  0
  160.1290  209.5600  156.4010 C   0  0  0  0  0  2  0  0  0  0  0  0
  162.9940  209.7430  157.2340 C   0  0  0  0  0  3  0  0  0  0  0  0
  157.5900  212.2140  153.7100 O   0  0  0  0  0  1  0  0  0  0  0  0
  158.6350  212.1940  152.7800 C   0  0  1  0  0  3  0  0  0  0  0  0
  157.9170  214.3750  152.2480 O   0  0  0  0  0  0  0  0  0  0  0  0
  158.7910  213.5330  152.1140 C   0  0  0  0  0  0  0  0  0  0  0  0
  160.0020  213.8590  151.2980 C   0  0  0  0  0  2  0  0  0  0  0  0
  159.7780  213.5250  149.9630 O   0  0  0  0  0  1  0  0  0  0  0  0
  1  2  1  0  0  0  0
  2 11  2  0  0  0  0
  2  8  1  0  0  0  0
  6  7  1  0  0  0  0
  7  9  1  0  0  0  0
  8 25  1  1  0  0  0
  8  4  1  0  0  0  0
  9  4  1  0  0  0  0
  9  3  2  0  0  0  0
 10  5  1  1  0  0  0
 10  1  1  0  0  0  0
 10  6  1  0  0  0  0
 12  7  1  0  0  0  0
 13 23  1  6  0  0  0
 13 12  1  0  0  0  0
 14 13  1  6  0  0  0
 14 19  1  0  0  0  0
 15 19  1  0  0  0  0
 16 15  1  0  0  0  0
 18 16  1  0  0  0  0
 18 14  1  0  0  0  0
 19 17  1  1  0  0  0
 19 22  1  0  0  0  0
 22 21  2  0  0  0  0
 22 20  1  0  0  0  0
 24 23  1  0  0  0  0
 25 28  1  0  0  0  0
 26 32  1  1  0  0  0
 27 38  1  6  0  0  0
 27 26  1  0  0  0  0
 28 27  1  0  0  0  0
 28 26  1  0  0  0  0
 29 31  1  0  0  0  0
 29 34  2  0  0  0  0
 30 33  1  0  0  0  0
 32 30  2  0  0  0  0
 32 35  1  0  0  0  0
 33 36  2  0  0  0  0
 35 29  1  0  0  0  0
 36 34  1  0  0  0  0
 38 37  1  1  0  0  0
 40 39  2  0  0  0  0
 40 38  1  0  0  0  0
 41 40  1  0  0  0  0
 42 41  1  0  0  0  0
M  END
>  <MODEL>
9

>  <REMARK>
 VINA RESULT:      -5.1      3.024      9.159
  Name = 
  11 active torsions:
  status: ('A' for Active; 'I' for Inactive)
    1  A    between atoms: C_1  and  C_25
    2  A    between atoms: C_1  and  N_32
    3  A    between atoms: C_4  and  C_25
    4  A    between atoms: C_5  and  C_17
    5  A    between atoms: C_6  and  C_35
    6  A    between atoms: C_10  and  C_30
    7  A    between atoms: N_14  and  C_42
    8  A    between atoms: C_25  and  C_29
    9  A    between atoms: C_28  and  C_41
   10  A    between atoms: C_30  and  C_35
   11  A    between atoms: C_33  and  C_42
                            x       y       z     vdW  Elec       q    Type
                         _______ _______ _______ _____ _____    ______ ____

>  <TORSDO>
F 11

$$$$
