=
 OpenBabel11072410293D

 32 36  0  0  1  0  0  0  0  0999 V2000
  162.1420  209.4250  148.9430 O   0  0  0  0  0  0  0  0  0  0  0  0
  161.1440  207.0640  151.3500 C   0  0  0  0  0  0  0  0  0  0  0  0
  160.8550  206.3650  150.2600 C   0  0  0  0  0  0  0  0  0  0  0  0
  161.7350  208.4290  149.5940 C   0  0  0  0  0  0  0  0  0  0  0  0
  160.9350  206.8030  153.0940 S   0  0  0  0  0  0  0  0  0  0  0  0
  161.6660  208.3270  151.0300 C   0  0  0  0  0  0  0  0  0  0  0  0
  161.5550  208.4760  153.2870 N   0  0  0  0  0  0  0  0  0  0  0  0
  161.2240  207.1400  149.0110 C   0  0  0  0  0  2  0  0  0  0  0  0
  161.8770  209.1280  152.0500 C   0  0  0  0  0  3  0  0  0  0  0  0
  160.6470  211.4690  154.8700 O   0  0  0  0  0  0  0  0  0  0  0  0
  159.9550  209.2160  154.9650 C   0  0  0  0  0  2  0  0  0  0  0  0
  159.5030  210.6550  154.8360 C   0  0  1  0  0  3  0  0  0  0  0  0
  161.3820  209.2510  154.5080 C   0  0  2  0  0  3  0  0  0  0  0  0
  161.6540  210.7160  154.2480 C   0  0  0  0  0  2  0  0  0  0  0  0
  158.5370  211.0330  155.9640 C   0  0  1  0  0  3  0  0  0  0  0  0
  159.0800  212.0740  156.7240 O   0  0  0  0  0  1  0  0  0  0  0  0
  156.3090  210.3690  155.3950 F   0  0  0  0  0  0  0  0  0  0  0  0
  156.6180  212.4400  156.2340 F   0  0  0  0  0  0  0  0  0  0  0  0
  157.1650  211.4560  155.4310 C   0  0  0  0  0  0  0  0  0  0  0  0
  157.3030  211.9620  154.1520 F   0  0  0  0  0  0  0  0  0  0  0  0
  160.2810  204.9890  150.2550 C   0  0  0  0  0  2  0  0  0  0  0  0
  161.3470  203.9720  149.8810 C   0  0  0  0  0  2  0  0  0  0  0  0
  161.1740  203.1370  146.1130 C   0  0  2  0  0  0  0  0  0  0  0  0
  161.4780  201.7510  148.7230 C   0  0  0  0  0  2  0  0  0  0  0  0
  160.9200  203.1820  148.6580 C   0  0  2  0  0  3  0  0  0  0  0  0
  161.2550  200.9350  147.4450 C   0  0  0  0  0  2  0  0  0  0  0  0
  162.5560  203.4720  146.6870 C   0  0  2  0  0  3  0  0  0  0  0  0
  160.6080  201.7220  146.3010 C   0  0  0  0  0  2  0  0  0  0  0  0
  160.6390  203.9400  144.9360 C   0  0  0  0  0  1  0  0  0  0  0  0
  161.2860  203.9710  147.3820 C   0  0  1  0  0  3  0  0  0  0  0  0
  162.8450  205.8330  146.5870 O   0  0  0  0  0  1  0  0  0  0  0  0
  163.2380  204.6380  145.9890 C   0  0  0  0  0  2  0  0  0  0  0  0
  1  4  2  0  0  0  0
  2  5  1  0  0  0  0
  3  2  2  0  0  0  0
  4  6  1  0  0  0  0
  5  7  1  0  0  0  0
  6  2  1  0  0  0  0
  6  9  2  0  0  0  0
  8  4  1  0  0  0  0
  8  3  1  0  0  0  0
  9  7  1  0  0  0  0
 12 10  1  0  0  0  0
 12 11  1  0  0  0  0
 12 15  1  1  0  0  0
 13  7  1  6  0  0  0
 13 11  1  0  0  0  0
 14 13  1  0  0  0  0
 14 10  1  0  0  0  0
 15 16  1  6  0  0  0
 17 19  1  0  0  0  0
 19 15  1  0  0  0  0
 19 18  1  0  0  0  0
 20 19  1  0  0  0  0
 21  3  1  0  0  0  0
 22 21  1  0  0  0  0
 23 29  1  6  0  0  0
 23 28  1  0  0  0  0
 23 27  1  0  0  0  0
 23 30  1  0  0  0  0
 25 24  1  0  0  0  0
 25 22  1  1  0  0  0
 26 24  1  0  0  0  0
 27 32  1  6  0  0  0
 27 30  1  0  0  0  0
 28 26  1  0  0  0  0
 30 25  1  0  0  0  0
 32 31  1  0  0  0  0
M  END
>  <MODEL>
1

>  <REMARK>
 VINA RESULT:      -8.2      0.000      0.000
  Name = 
  7 active torsions:
  status: ('A' for Active; 'I' for Inactive)
    1  A    between atoms: C_2  and  C_8
    2  A    between atoms: C_2  and  C_13
    3  A    between atoms: C_6  and  C_13
    4  A    between atoms: C_15  and  C_17
    5  A    between atoms: C_15  and  C_25
    6  A    between atoms: C_20  and  N_23
    7  A    between atoms: C_21  and  C_27
                            x       y       z     vdW  Elec       q    Type
                         _______ _______ _______ _____ _____    ______ ____

>  <TORSDO>
F 7

$$$$
=
 OpenBabel11072410293D

 32 36  0  0  1  0  0  0  0  0999 V2000
  162.2650  211.0580  150.1910 O   0  0  0  0  0  0  0  0  0  0  0  0
  161.4730  208.1730  152.0380 C   0  0  0  0  0  0  0  0  0  0  0  0
  161.5020  207.6270  150.8290 C   0  0  0  0  0  0  0  0  0  0  0  0
  161.9960  209.9050  150.6180 C   0  0  0  0  0  0  0  0  0  0  0  0
  161.0780  207.5830  153.6660 S   0  0  0  0  0  0  0  0  0  0  0  0
  161.7460  209.5480  151.9900 C   0  0  0  0  0  0  0  0  0  0  0  0
  161.2840  209.2860  154.1920 N   0  0  0  0  0  0  0  0  0  0  0  0
  161.8680  208.6610  149.7830 C   0  0  0  0  0  2  0  0  0  0  0  0
  161.6290  210.1890  153.1320 C   0  0  0  0  0  3  0  0  0  0  0  0
  160.2550  211.9840  156.1800 O   0  0  0  0  0  0  0  0  0  0  0  0
  159.2850  209.9810  155.3980 C   0  0  0  0  0  2  0  0  0  0  0  0
  159.1080  211.4770  155.5450 C   0  0  1  0  0  3  0  0  0  0  0  0
  160.7720  209.7920  155.4580 C   0  0  2  0  0  3  0  0  0  0  0  0
  161.3110  211.1790  155.7310 C   0  0  0  0  0  2  0  0  0  0  0  0
  157.8510  211.8060  156.3560 C   0  0  1  0  0  3  0  0  0  0  0  0
  157.9810  213.0690  156.9400 O   0  0  0  0  0  1  0  0  0  0  0  0
  155.6850  212.7310  155.9290 F   0  0  0  0  0  0  0  0  0  0  0  0
  156.8940  212.0040  154.1700 F   0  0  0  0  0  0  0  0  0  0  0  0
  156.5840  211.7720  155.4970 C   0  0  0  0  0  0  0  0  0  0  0  0
  155.9930  210.5250  155.5970 F   0  0  0  0  0  0  0  0  0  0  0  0
  161.2500  206.1880  150.5340 C   0  0  0  0  0  2  0  0  0  0  0  0
  160.4480  206.0440  149.2500 C   0  0  0  0  0  2  0  0  0  0  0  0
  161.3430  203.1290  146.8780 C   0  0  2  0  0  0  0  0  0  0  0  0
  161.2020  203.7120  149.7880 C   0  0  0  0  0  2  0  0  0  0  0  0
  160.4640  204.6020  148.7750 C   0  0  2  0  0  3  0  0  0  0  0  0
  161.4310  202.2750  149.3060 C   0  0  0  0  0  2  0  0  0  0  0  0
  162.4710  204.1030  147.2370 C   0  0  2  0  0  3  0  0  0  0  0  0
  160.9730  202.0140  147.8680 C   0  0  0  0  0  2  0  0  0  0  0  0
  160.9980  202.8910  145.4150 C   0  0  0  0  0  1  0  0  0  0  0  0
  161.0080  204.5440  147.3310 C   0  0  1  0  0  3  0  0  0  0  0  0
  162.5260  206.0000  145.7990 O   0  0  0  0  0  1  0  0  0  0  0  0
  163.1170  204.7590  146.0260 C   0  0  0  0  0  2  0  0  0  0  0  0
  1  4  2  0  0  0  0
  2  5  1  0  0  0  0
  3  2  2  0  0  0  0
  4  6  1  0  0  0  0
  5  7  1  0  0  0  0
  6  2  1  0  0  0  0
  6  9  2  0  0  0  0
  8  4  1  0  0  0  0
  8  3  1  0  0  0  0
  9  7  1  0  0  0  0
 11 13  1  0  0  0  0
 11 12  1  0  0  0  0
 12 10  1  0  0  0  0
 12 15  1  1  0  0  0
 13  7  1  6  0  0  0
 13 14  1  0  0  0  0
 14 10  1  0  0  0  0
 15 16  1  6  0  0  0
 18 19  1  0  0  0  0
 19 20  1  0  0  0  0
 19 17  1  0  0  0  0
 19 15  1  0  0  0  0
 21  3  1  0  0  0  0
 22 21  1  0  0  0  0
 23 29  1  6  0  0  0
 23 27  1  0  0  0  0
 23 30  1  0  0  0  0
 23 28  1  0  0  0  0
 25 22  1  1  0  0  0
 25 24  1  0  0  0  0
 26 24  1  0  0  0  0
 27 32  1  6  0  0  0
 27 30  1  0  0  0  0
 28 26  1  0  0  0  0
 30 25  1  0  0  0  0
 31 32  1  0  0  0  0
M  END
>  <MODEL>
2

>  <REMARK>
 VINA RESULT:      -8.1      1.030      1.569
  Name = 
  7 active torsions:
  status: ('A' for Active; 'I' for Inactive)
    1  A    between atoms: C_2  and  C_8
    2  A    between atoms: C_2  and  C_13
    3  A    between atoms: C_6  and  C_13
    4  A    between atoms: C_15  and  C_17
    5  A    between atoms: C_15  and  C_25
    6  A    between atoms: C_20  and  N_23
    7  A    between atoms: C_21  and  C_27
                            x       y       z     vdW  Elec       q    Type
                         _______ _______ _______ _____ _____    ______ ____

>  <TORSDO>
F 7

$$$$
=
 OpenBabel11072410293D

 32 36  0  0  1  0  0  0  0  0999 V2000
  160.9410  204.6960  153.5030 O   0  0  0  0  0  0  0  0  0  0  0  0
  161.3550  208.0660  152.5860 C   0  0  0  0  0  0  0  0  0  0  0  0
  161.1360  208.2430  153.8830 C   0  0  0  0  0  0  0  0  0  0  0  0
  161.0580  205.9470  153.4330 C   0  0  0  0  0  0  0  0  0  0  0  0
  161.5960  209.1500  151.2000 S   0  0  0  0  0  0  0  0  0  0  0  0
  161.3090  206.7080  152.2360 C   0  0  0  0  0  0  0  0  0  0  0  0
  161.5890  207.6600  150.2000 N   0  0  0  0  0  0  0  0  0  0  0  0
  160.9490  206.9110  154.5830 C   0  0  0  0  0  2  0  0  0  0  0  0
  161.4070  206.4510  150.9510 C   0  0  0  0  0  3  0  0  0  0  0  0
  162.5330  206.5910  146.9970 O   0  0  0  0  0  0  0  0  0  0  0  0
  160.5830  206.4850  148.3200 C   0  0  0  0  0  2  0  0  0  0  0  0
  161.5480  205.7000  147.4580 C   0  0  1  0  0  3  0  0  0  0  0  0
  161.3840  207.6740  148.7580 C   0  0  2  0  0  3  0  0  0  0  0  0
  162.7030  207.5200  148.0340 C   0  0  0  0  0  2  0  0  0  0  0  0
  160.8240  205.0400  146.2810 C   0  0  1  0  0  3  0  0  0  0  0  0
  160.8200  205.9040  145.1810 O   0  0  0  0  0  1  0  0  0  0  0  0
  161.5910  202.8840  146.9820 F   0  0  0  0  0  0  0  0  0  0  0  0
  160.7050  203.0750  144.9160 F   0  0  0  0  0  0  0  0  0  0  0  0
  161.4680  203.7100  145.8780 C   0  0  0  0  0  0  0  0  0  0  0  0
  162.7250  203.9480  145.3520 F   0  0  0  0  0  0  0  0  0  0  0  0
  161.1130  209.5640  154.5730 C   0  0  0  0  0  2  0  0  0  0  0  0
  159.7060  209.8890  155.0470 C   0  0  0  0  0  2  0  0  0  0  0  0
  157.4760  213.0370  154.8390 C   0  0  2  0  0  0  0  0  0  0  0  0
  160.0820  212.1840  155.9850 C   0  0  0  0  0  2  0  0  0  0  0  0
  159.4140  211.3670  154.8680 C   0  0  2  0  0  3  0  0  0  0  0  0
  159.6900  213.6660  155.9950 C   0  0  0  0  0  2  0  0  0  0  0  0
  157.2080  212.0710  156.0000 C   0  0  2  0  0  3  0  0  0  0  0  0
  158.6310  214.0430  154.9540 C   0  0  0  0  0  2  0  0  0  0  0  0
  156.3440  213.3960  153.8890 C   0  0  0  0  0  1  0  0  0  0  0  0
  157.8910  211.5760  154.7220 C   0  0  1  0  0  3  0  0  0  0  0  0
  155.7120  210.3240  155.3840 O   0  0  0  0  0  1  0  0  0  0  0  0
  155.7800  211.5520  156.0410 C   0  0  0  0  0  2  0  0  0  0  0  0
  2  3  2  0  0  0  0
  3 21  1  0  0  0  0
  3  8  1  0  0  0  0
  4  1  2  0  0  0  0
  4  8  1  0  0  0  0
  5  2  1  0  0  0  0
  6  2  1  0  0  0  0
  6  4  1  0  0  0  0
  7  9  1  0  0  0  0
  7  5  1  0  0  0  0
  9  6  2  0  0  0  0
 10 12  1  0  0  0  0
 10 14  1  0  0  0  0
 11 13  1  0  0  0  0
 12 15  1  6  0  0  0
 12 11  1  0  0  0  0
 13 14  1  6  0  0  0
 13  7  1  0  0  0  0
 15 16  1  6  0  0  0
 18 19  1  0  0  0  0
 19 15  1  0  0  0  0
 19 17  1  0  0  0  0
 20 19  1  0  0  0  0
 21 22  1  0  0  0  0
 23 29  1  6  0  0  0
 23 28  1  0  0  0  0
 23 27  1  0  0  0  0
 24 26  1  0  0  0  0
 25 22  1  1  0  0  0
 25 24  1  0  0  0  0
 27 32  1  6  0  0  0
 28 26  1  0  0  0  0
 30 23  1  0  0  0  0
 30 25  1  0  0  0  0
 30 27  1  0  0  0  0
 31 32  1  0  0  0  0
M  END
>  <MODEL>
3

>  <REMARK>
 VINA RESULT:      -7.9      4.518     10.280
  Name = 
  7 active torsions:
  status: ('A' for Active; 'I' for Inactive)
    1  A    between atoms: C_2  and  C_8
    2  A    between atoms: C_2  and  C_13
    3  A    between atoms: C_6  and  C_13
    4  A    between atoms: C_15  and  C_17
    5  A    between atoms: C_15  and  C_25
    6  A    between atoms: C_20  and  N_23
    7  A    between atoms: C_21  and  C_27
                            x       y       z     vdW  Elec       q    Type
                         _______ _______ _______ _____ _____    ______ ____

>  <TORSDO>
F 7

$$$$
=
 OpenBabel11072410293D

 32 36  0  0  1  0  0  0  0  0999 V2000
  160.9480  204.4730  153.5020 O   0  0  0  0  0  0  0  0  0  0  0  0
  161.4020  207.6200  152.0010 C   0  0  0  0  0  0  0  0  0  0  0  0
  161.3310  208.0170  153.2660 C   0  0  0  0  0  0  0  0  0  0  0  0
  161.1090  205.6870  153.2140 C   0  0  0  0  0  0  0  0  0  0  0  0
  161.5380  208.4510  150.4380 S   0  0  0  0  0  0  0  0  0  0  0  0
  161.2620  206.2290  151.8880 C   0  0  0  0  0  0  0  0  0  0  0  0
  161.3620  206.8230  149.7050 N   0  0  0  0  0  0  0  0  0  0  0  0
  161.1650  206.8280  154.1920 C   0  0  0  0  0  2  0  0  0  0  0  0
  161.2100  205.7640  150.6600 C   0  0  0  0  0  3  0  0  0  0  0  0
  162.3310  206.2960  146.3770 O   0  0  0  0  0  0  0  0  0  0  0  0
  161.0090  205.1570  147.9650 C   0  0  0  0  0  2  0  0  0  0  0  0
  162.1290  205.0310  146.9550 C   0  0  1  0  0  3  0  0  0  0  0  0
  161.0040  206.6170  148.3080 C   0  0  2  0  0  3  0  0  0  0  0  0
  162.0530  207.2160  147.3980 C   0  0  0  0  0  2  0  0  0  0  0  0
  161.7890  203.9940  145.8800 C   0  0  1  0  0  3  0  0  0  0  0  0
  161.2060  202.8700  146.4740 O   0  0  0  0  0  1  0  0  0  0  0  0
  160.0220  203.5520  144.3280 F   0  0  0  0  0  0  0  0  0  0  0  0
  160.0610  205.5630  145.3480 F   0  0  0  0  0  0  0  0  0  0  0  0
  160.8420  204.5540  144.8160 C   0  0  0  0  0  0  0  0  0  0  0  0
  161.5810  205.0790  143.7710 F   0  0  0  0  0  0  0  0  0  0  0  0
  161.4380  209.4300  153.7260 C   0  0  0  0  0  2  0  0  0  0  0  0
  160.1380  209.8740  154.3790 C   0  0  0  0  0  2  0  0  0  0  0  0
  157.8550  212.8690  153.5200 C   0  0  2  0  0  0  0  0  0  0  0  0
  160.3560  211.5860  152.5590 C   0  0  0  0  0  2  0  0  0  0  0  0
  159.3800  210.8160  153.4630 C   0  0  2  0  0  3  0  0  0  0  0  0
  159.6980  212.6950  151.7300 C   0  0  0  0  0  2  0  0  0  0  0  0
  158.9590  213.1130  154.5560 C   0  0  2  0  0  3  0  0  0  0  0  0
  158.2100  212.9020  152.0260 C   0  0  0  0  0  2  0  0  0  0  0  0
  156.4070  213.1590  153.8890 C   0  0  0  0  0  1  0  0  0  0  0  0
  158.4310  211.6980  154.3040 C   0  0  1  0  0  3  0  0  0  0  0  0
  158.6890  212.6580  156.8770 O   0  0  0  0  0  1  0  0  0  0  0  0
  158.4380  213.6130  155.8940 C   0  0  0  0  0  2  0  0  0  0  0  0
  2  3  2  0  0  0  0
  3 21  1  0  0  0  0
  3  8  1  0  0  0  0
  4  1  2  0  0  0  0
  4  8  1  0  0  0  0
  5  2  1  0  0  0  0
  6  2  1  0  0  0  0
  6  4  1  0  0  0  0
  7  5  1  0  0  0  0
  7  9  1  0  0  0  0
  9  6  2  0  0  0  0
 10 12  1  0  0  0  0
 10 14  1  0  0  0  0
 11 13  1  0  0  0  0
 12 15  1  6  0  0  0
 12 11  1  0  0  0  0
 13 14  1  6  0  0  0
 13  7  1  0  0  0  0
 15 16  1  1  0  0  0
 17 19  1  0  0  0  0
 19 18  1  0  0  0  0
 19 15  1  0  0  0  0
 20 19  1  0  0  0  0
 21 22  1  0  0  0  0
 23 29  1  1  0  0  0
 23 30  1  0  0  0  0
 23 27  1  0  0  0  0
 24 25  1  0  0  0  0
 25 30  1  0  0  0  0
 25 22  1  1  0  0  0
 26 28  1  0  0  0  0
 26 24  1  0  0  0  0
 27 32  1  1  0  0  0
 28 23  1  0  0  0  0
 30 27  1  0  0  0  0
 32 31  1  0  0  0  0
M  END
>  <MODEL>
4

>  <REMARK>
 VINA RESULT:      -7.8      4.507      9.996
  Name = 
  7 active torsions:
  status: ('A' for Active; 'I' for Inactive)
    1  A    between atoms: C_2  and  C_8
    2  A    between atoms: C_2  and  C_13
    3  A    between atoms: C_6  and  C_13
    4  A    between atoms: C_15  and  C_17
    5  A    between atoms: C_15  and  C_25
    6  A    between atoms: C_20  and  N_23
    7  A    between atoms: C_21  and  C_27
                            x       y       z     vdW  Elec       q    Type
                         _______ _______ _______ _____ _____    ______ ____

>  <TORSDO>
F 7

$$$$
=
 OpenBabel11072410293D

 32 36  0  0  1  0  0  0  0  0999 V2000
  162.0960  208.7270  148.5560 O   0  0  0  0  0  0  0  0  0  0  0  0
  161.2160  206.6910  151.2850 C   0  0  0  0  0  0  0  0  0  0  0  0
  161.3340  207.8440  151.9320 C   0  0  0  0  0  0  0  0  0  0  0  0
  161.7910  208.2250  149.6680 C   0  0  0  0  0  0  0  0  0  0  0  0
  160.8870  205.0150  151.7680 S   0  0  0  0  0  0  0  0  0  0  0  0
  161.4910  206.8380  149.9170 C   0  0  0  0  0  0  0  0  0  0  0  0
  161.1790  204.5980  150.0480 N   0  0  0  0  0  0  0  0  0  0  0  0
  161.6860  208.9640  150.9740 C   0  0  0  0  0  2  0  0  0  0  0  0
  161.5050  205.7240  149.2200 C   0  0  0  0  0  3  0  0  0  0  0  0
  160.0720  201.5960  148.6150 O   0  0  0  0  0  0  0  0  0  0  0  0
  161.7170  203.2130  148.1190 C   0  0  0  0  0  2  0  0  0  0  0  0
  160.5680  202.3950  147.5700 C   0  0  1  0  0  3  0  0  0  0  0  0
  161.4580  203.2420  149.5960 C   0  0  2  0  0  3  0  0  0  0  0  0
  160.2410  202.3620  149.7770 C   0  0  0  0  0  2  0  0  0  0  0  0
  161.0220  201.5260  146.3930 C   0  0  1  0  0  3  0  0  0  0  0  0
  161.2040  200.2080  146.8200 O   0  0  0  0  0  1  0  0  0  0  0  0
  160.1430  202.7280  144.5190 F   0  0  0  0  0  0  0  0  0  0  0  0
  160.2300  200.4770  144.3920 F   0  0  0  0  0  0  0  0  0  0  0  0
  160.0180  201.5510  145.2360 C   0  0  0  0  0  0  0  0  0  0  0  0
  158.7330  201.4650  145.7400 F   0  0  0  0  0  0  0  0  0  0  0  0
  161.1140  208.0290  153.3950 C   0  0  0  0  0  2  0  0  0  0  0  0
  161.2970  209.4890  153.7770 C   0  0  0  0  0  2  0  0  0  0  0  0
  158.5680  211.6480  155.4550 C   0  0  2  0  0  0  0  0  0  0  0  0
  159.8190  211.2580  152.7880 C   0  0  0  0  0  2  0  0  0  0  0  0
  159.9520  210.1830  153.8790 C   0  0  2  0  0  3  0  0  0  0  0  0
  158.5720  212.1380  152.9270 C   0  0  0  0  0  2  0  0  0  0  0  0
  160.0050  212.1820  155.5050 C   0  0  2  0  0  3  0  0  0  0  0  0
  157.7380  211.8530  154.1790 C   0  0  0  0  0  2  0  0  0  0  0  0
  157.7980  211.4520  156.7520 C   0  0  0  0  0  1  0  0  0  0  0  0
  159.7410  210.6850  155.3240 C   0  0  1  0  0  3  0  0  0  0  0  0
  161.6070  211.6170  157.1730 O   0  0  0  0  0  1  0  0  0  0  0  0
  160.5100  212.4370  156.9170 C   0  0  0  0  0  2  0  0  0  0  0  0
  1  4  2  0  0  0  0
  2  5  1  0  0  0  0
  2  3  2  0  0  0  0
  3 21  1  0  0  0  0
  4  6  1  0  0  0  0
  4  8  1  0  0  0  0
  6  2  1  0  0  0  0
  7  5  1  0  0  0  0
  8  3  1  0  0  0  0
  9  6  2  0  0  0  0
  9  7  1  0  0  0  0
 10 14  1  0  0  0  0
 12 15  1  6  0  0  0
 12 11  1  0  0  0  0
 12 10  1  0  0  0  0
 13 11  1  6  0  0  0
 13 14  1  0  0  0  0
 13  7  1  0  0  0  0
 15 16  1  1  0  0  0
 17 19  1  0  0  0  0
 18 19  1  0  0  0  0
 19 20  1  0  0  0  0
 19 15  1  0  0  0  0
 21 22  1  0  0  0  0
 23 27  1  0  0  0  0
 23 29  1  1  0  0  0
 24 26  1  0  0  0  0
 24 25  1  0  0  0  0
 25 22  1  1  0  0  0
 25 30  1  0  0  0  0
 26 28  1  0  0  0  0
 27 32  1  1  0  0  0
 28 23  1  0  0  0  0
 30 23  1  0  0  0  0
 30 27  1  0  0  0  0
 32 31  1  0  0  0  0
M  END
>  <MODEL>
5

>  <REMARK>
 VINA RESULT:      -7.6      4.817     10.370
  Name = 
  7 active torsions:
  status: ('A' for Active; 'I' for Inactive)
    1  A    between atoms: C_2  and  C_8
    2  A    between atoms: C_2  and  C_13
    3  A    between atoms: C_6  and  C_13
    4  A    between atoms: C_15  and  C_17
    5  A    between atoms: C_15  and  C_25
    6  A    between atoms: C_20  and  N_23
    7  A    between atoms: C_21  and  C_27
                            x       y       z     vdW  Elec       q    Type
                         _______ _______ _______ _____ _____    ______ ____

>  <TORSDO>
F 7

$$$$
=
 OpenBabel11072410293D

 32 36  0  0  1  0  0  0  0  0999 V2000
  161.9430  210.3070  150.6930 O   0  0  0  0  0  0  0  0  0  0  0  0
  161.2090  208.0010  153.2440 C   0  0  0  0  0  0  0  0  0  0  0  0
  161.2550  209.1010  153.9850 C   0  0  0  0  0  0  0  0  0  0  0  0
  161.6760  209.6960  151.7600 C   0  0  0  0  0  0  0  0  0  0  0  0
  160.9920  206.2720  153.5880 S   0  0  0  0  0  0  0  0  0  0  0  0
  161.4680  208.2770  151.8930 C   0  0  0  0  0  0  0  0  0  0  0  0
  161.3020  206.0190  151.8390 N   0  0  0  0  0  0  0  0  0  0  0  0
  161.5290  210.3170  153.1220 C   0  0  0  0  0  2  0  0  0  0  0  0
  161.5510  207.2270  151.1070 C   0  0  0  0  0  3  0  0  0  0  0  0
  160.4290  203.1570  150.0100 O   0  0  0  0  0  0  0  0  0  0  0  0
  162.0540  204.8580  149.8350 C   0  0  0  0  0  2  0  0  0  0  0  0
  160.9860  204.0750  149.1030 C   0  0  1  0  0  3  0  0  0  0  0  0
  161.6660  204.7250  151.2770 C   0  0  2  0  0  3  0  0  0  0  0  0
  160.4690  203.8010  151.2560 C   0  0  0  0  0  2  0  0  0  0  0  0
  161.5700  203.3470  147.8890 C   0  0  1  0  0  3  0  0  0  0  0  0
  160.7300  202.2920  147.5190 O   0  0  0  0  0  1  0  0  0  0  0  0
  163.0430  204.8140  146.7020 F   0  0  0  0  0  0  0  0  0  0  0  0
  161.5640  203.6000  145.5070 F   0  0  0  0  0  0  0  0  0  0  0  0
  161.7650  204.2830  146.6920 C   0  0  0  0  0  0  0  0  0  0  0  0
  160.8480  205.3170  146.7630 F   0  0  0  0  0  0  0  0  0  0  0  0
  161.0310  209.1500  155.4570 C   0  0  0  0  0  2  0  0  0  0  0  0
  159.5760  209.4710  155.7610 C   0  0  0  0  0  2  0  0  0  0  0  0
  157.6740  212.7370  154.9590 C   0  0  2  0  0  0  0  0  0  0  0  0
  159.2180  211.5080  157.1800 C   0  0  0  0  0  2  0  0  0  0  0  0
  159.3500  210.9720  155.7460 C   0  0  2  0  0  3  0  0  0  0  0  0
  158.8030  212.9810  157.2610 C   0  0  0  0  0  2  0  0  0  0  0  0
  156.8540  211.5810  155.5450 C   0  0  2  0  0  3  0  0  0  0  0  0
  158.4980  213.6240  155.9040 C   0  0  0  0  0  2  0  0  0  0  0  0
  157.2590  213.3490  153.6290 C   0  0  0  0  0  1  0  0  0  0  0  0
  158.1680  211.3040  154.8100 C   0  0  1  0  0  3  0  0  0  0  0  0
  155.1550  209.9610  155.1450 O   0  0  0  0  0  1  0  0  0  0  0  0
  155.6870  211.1580  154.6660 C   0  0  0  0  0  2  0  0  0  0  0  0
  1  4  2  0  0  0  0
  2  5  1  0  0  0  0
  2  3  2  0  0  0  0
  3 21  1  0  0  0  0
  4  6  1  0  0  0  0
  4  8  1  0  0  0  0
  6  2  1  0  0  0  0
  7  5  1  0  0  0  0
  8  3  1  0  0  0  0
  9  7  1  0  0  0  0
  9  6  2  0  0  0  0
 10 14  1  0  0  0  0
 12 15  1  6  0  0  0
 12 11  1  0  0  0  0
 12 10  1  0  0  0  0
 13 11  1  6  0  0  0
 13  7  1  0  0  0  0
 14 13  1  0  0  0  0
 15 16  1  6  0  0  0
 18 19  1  0  0  0  0
 19 17  1  0  0  0  0
 19 20  1  0  0  0  0
 19 15  1  0  0  0  0
 21 22  1  0  0  0  0
 23 29  1  6  0  0  0
 23 27  1  0  0  0  0
 23 28  1  0  0  0  0
 24 26  1  0  0  0  0
 25 22  1  1  0  0  0
 25 24  1  0  0  0  0
 27 32  1  6  0  0  0
 28 26  1  0  0  0  0
 30 23  1  0  0  0  0
 30 27  1  0  0  0  0
 30 25  1  0  0  0  0
 32 31  1  0  0  0  0
M  END
>  <MODEL>
6

>  <REMARK>
 VINA RESULT:      -7.5      4.095      9.993
  Name = 
  7 active torsions:
  status: ('A' for Active; 'I' for Inactive)
    1  A    between atoms: C_2  and  C_8
    2  A    between atoms: C_2  and  C_13
    3  A    between atoms: C_6  and  C_13
    4  A    between atoms: C_15  and  C_17
    5  A    between atoms: C_15  and  C_25
    6  A    between atoms: C_20  and  N_23
    7  A    between atoms: C_21  and  C_27
                            x       y       z     vdW  Elec       q    Type
                         _______ _______ _______ _____ _____    ______ ____

>  <TORSDO>
F 7

$$$$
=
 OpenBabel11072410293D

 32 36  0  0  1  0  0  0  0  0999 V2000
  161.9650  208.8380  148.2720 O   0  0  0  0  0  0  0  0  0  0  0  0
  161.2790  206.9180  151.1370 C   0  0  0  0  0  0  0  0  0  0  0  0
  161.4140  208.1010  151.7240 C   0  0  0  0  0  0  0  0  0  0  0  0
  161.7330  208.3830  149.4220 C   0  0  0  0  0  0  0  0  0  0  0  0
  161.0080  205.2610  151.7140 S   0  0  0  0  0  0  0  0  0  0  0  0
  161.4730  207.0050  149.7500 C   0  0  0  0  0  0  0  0  0  0  0  0
  161.2080  204.7700  150.0000 N   0  0  0  0  0  0  0  0  0  0  0  0
  161.6900  209.1810  150.6960 C   0  0  0  0  0  2  0  0  0  0  0  0
  161.4660  205.8600  149.1050 C   0  0  0  0  0  3  0  0  0  0  0  0
  160.0940  201.7190  148.6800 O   0  0  0  0  0  0  0  0  0  0  0  0
  161.7360  203.3170  148.1190 C   0  0  0  0  0  2  0  0  0  0  0  0
  160.5830  202.4810  147.6050 C   0  0  1  0  0  3  0  0  0  0  0  0
  161.4850  203.3980  149.5950 C   0  0  2  0  0  3  0  0  0  0  0  0
  160.2690  202.5260  149.8140 C   0  0  0  0  0  2  0  0  0  0  0  0
  161.0300  201.5710  146.4570 C   0  0  1  0  0  3  0  0  0  0  0  0
  161.1190  200.2500  146.9060 O   0  0  0  0  0  1  0  0  0  0  0  0
  160.2340  200.5220  144.4580 F   0  0  0  0  0  0  0  0  0  0  0  0
  158.7630  201.7020  145.6960 F   0  0  0  0  0  0  0  0  0  0  0  0
  160.0740  201.6370  145.2620 C   0  0  0  0  0  0  0  0  0  0  0  0
  160.3450  202.7710  144.5180 F   0  0  0  0  0  0  0  0  0  0  0  0
  161.2750  208.3500  153.1860 C   0  0  0  0  0  2  0  0  0  0  0  0
  161.8570  209.7070  153.5500 C   0  0  0  0  0  2  0  0  0  0  0  0
  159.6580  211.6880  156.0320 C   0  0  2  0  0  0  0  0  0  0  0  0
  160.7630  208.9530  155.6770 C   0  0  0  0  0  2  0  0  0  0  0  0
  161.3660  210.1450  154.9170 C   0  0  2  0  0  3  0  0  0  0  0  0
  160.0730  209.3350  156.9920 C   0  0  0  0  0  2  0  0  0  0  0  0
  158.9430  211.0210  154.8500 C   0  0  2  0  0  3  0  0  0  0  0  0
  160.0230  210.8420  157.2600 C   0  0  0  0  0  2  0  0  0  0  0  0
  159.5010  213.1860  156.2500 C   0  0  0  0  0  1  0  0  0  0  0  0
  160.4320  211.3640  154.7610 C   0  0  1  0  0  3  0  0  0  0  0  0
  158.4780  211.8040  152.6510 O   0  0  0  0  0  1  0  0  0  0  0  0
  158.1490  211.9930  153.9920 C   0  0  0  0  0  2  0  0  0  0  0  0
  1  4  2  0  0  0  0
  2  5  1  0  0  0  0
  2  3  2  0  0  0  0
  3 21  1  0  0  0  0
  4  6  1  0  0  0  0
  4  8  1  0  0  0  0
  6  2  1  0  0  0  0
  7  5  1  0  0  0  0
  8  3  1  0  0  0  0
  9  6  2  0  0  0  0
  9  7  1  0  0  0  0
 10 14  1  0  0  0  0
 12 15  1  6  0  0  0
 12 11  1  0  0  0  0
 12 10  1  0  0  0  0
 13 11  1  6  0  0  0
 13 14  1  0  0  0  0
 13  7  1  0  0  0  0
 15 16  1  1  0  0  0
 17 19  1  0  0  0  0
 19 18  1  0  0  0  0
 19 15  1  0  0  0  0
 20 19  1  0  0  0  0
 21 22  1  0  0  0  0
 23 29  1  1  0  0  0
 23 28  1  0  0  0  0
 24 26  1  0  0  0  0
 25 22  1  6  0  0  0
 25 24  1  0  0  0  0
 26 28  1  0  0  0  0
 27 32  1  6  0  0  0
 27 23  1  0  0  0  0
 30 27  1  0  0  0  0
 30 25  1  0  0  0  0
 30 23  1  0  0  0  0
 31 32  1  0  0  0  0
M  END
>  <MODEL>
7

>  <REMARK>
 VINA RESULT:      -7.4      4.788     10.200
  Name = 
  7 active torsions:
  status: ('A' for Active; 'I' for Inactive)
    1  A    between atoms: C_2  and  C_8
    2  A    between atoms: C_2  and  C_13
    3  A    between atoms: C_6  and  C_13
    4  A    between atoms: C_15  and  C_17
    5  A    between atoms: C_15  and  C_25
    6  A    between atoms: C_20  and  N_23
    7  A    between atoms: C_21  and  C_27
                            x       y       z     vdW  Elec       q    Type
                         _______ _______ _______ _____ _____    ______ ____

>  <TORSDO>
F 7

$$$$
=
 OpenBabel11072410293D

 32 36  0  0  1  0  0  0  0  0999 V2000
  162.0200  210.2770  149.9400 O   0  0  0  0  0  0  0  0  0  0  0  0
  161.2050  208.2500  152.6960 C   0  0  0  0  0  0  0  0  0  0  0  0
  161.2560  209.4190  153.3230 C   0  0  0  0  0  0  0  0  0  0  0  0
  161.7250  209.7810  151.0580 C   0  0  0  0  0  0  0  0  0  0  0  0
  160.9530  206.5690  153.2070 S   0  0  0  0  0  0  0  0  0  0  0  0
  161.4910  208.3850  151.3290 C   0  0  0  0  0  0  0  0  0  0  0  0
  161.2890  206.1360  151.4990 N   0  0  0  0  0  0  0  0  0  0  0  0
  161.5650  210.5380  152.3470 C   0  0  0  0  0  2  0  0  0  0  0  0
  161.5700  207.2610  150.6540 C   0  0  0  0  0  3  0  0  0  0  0  0
  160.3630  203.0710  150.0700 O   0  0  0  0  0  0  0  0  0  0  0  0
  161.9550  204.7500  149.6110 C   0  0  0  0  0  2  0  0  0  0  0  0
  160.8620  203.8770  149.0330 C   0  0  1  0  0  3  0  0  0  0  0  0
  161.6410  204.7870  151.0770 C   0  0  2  0  0  3  0  0  0  0  0  0
  160.4570  203.8580  151.2270 C   0  0  0  0  0  2  0  0  0  0  0  0
  161.3940  203.0140  147.8850 C   0  0  1  0  0  3  0  0  0  0  0  0
  160.5180  201.9510  147.6460 O   0  0  0  0  0  1  0  0  0  0  0  0
  160.7480  204.9230  146.5950 F   0  0  0  0  0  0  0  0  0  0  0  0
  162.8930  204.2360  146.4730 F   0  0  0  0  0  0  0  0  0  0  0  0
  161.5810  203.8180  146.5960 C   0  0  0  0  0  0  0  0  0  0  0  0
  161.2730  203.0220  145.5080 F   0  0  0  0  0  0  0  0  0  0  0  0
  161.0070  209.6200  154.7780 C   0  0  0  0  0  2  0  0  0  0  0  0
  160.9950  211.1030  155.1130 C   0  0  0  0  0  2  0  0  0  0  0  0
  157.6530  212.8980  154.3830 C   0  0  2  0  0  0  0  0  0  0  0  0
  158.6430  210.3600  155.5690 C   0  0  0  0  0  2  0  0  0  0  0  0
  159.5810  211.5670  155.4100 C   0  0  2  0  0  3  0  0  0  0  0  0
  157.1600  210.7320  155.6860 C   0  0  0  0  0  2  0  0  0  0  0  0
  158.2330  212.0260  153.2620 C   0  0  2  0  0  3  0  0  0  0  0  0
  156.8730  212.2270  155.5240 C   0  0  0  0  0  2  0  0  0  0  0  0
  157.3460  214.3620  154.1080 C   0  0  0  0  0  1  0  0  0  0  0  0
  159.1460  212.6000  154.3480 C   0  0  1  0  0  3  0  0  0  0  0  0
  159.7940  213.1810  151.8840 O   0  0  0  0  0  1  0  0  0  0  0  0
  158.4610  212.7810  151.9620 C   0  0  0  0  0  2  0  0  0  0  0  0
  1  4  2  0  0  0  0
  2  5  1  0  0  0  0
  2  3  2  0  0  0  0
  3 21  1  0  0  0  0
  4  6  1  0  0  0  0
  4  8  1  0  0  0  0
  6  2  1  0  0  0  0
  7  5  1  0  0  0  0
  8  3  1  0  0  0  0
  9  6  2  0  0  0  0
  9  7  1  0  0  0  0
 10 14  1  0  0  0  0
 12 15  1  6  0  0  0
 12 11  1  0  0  0  0
 12 10  1  0  0  0  0
 13 11  1  6  0  0  0
 13 14  1  0  0  0  0
 13  7  1  0  0  0  0
 15 16  1  6  0  0  0
 17 19  1  0  0  0  0
 18 19  1  0  0  0  0
 19 15  1  0  0  0  0
 20 19  1  0  0  0  0
 21 22  1  0  0  0  0
 23 29  1  6  0  0  0
 23 28  1  0  0  0  0
 24 26  1  0  0  0  0
 25 22  1  6  0  0  0
 25 24  1  0  0  0  0
 27 32  1  6  0  0  0
 27 30  1  0  0  0  0
 27 23  1  0  0  0  0
 28 26  1  0  0  0  0
 30 23  1  0  0  0  0
 30 25  1  0  0  0  0
 31 32  1  0  0  0  0
M  END
>  <MODEL>
8

>  <REMARK>
 VINA RESULT:      -7.4      4.210      9.647
  Name = 
  7 active torsions:
  status: ('A' for Active; 'I' for Inactive)
    1  A    between atoms: C_2  and  C_8
    2  A    between atoms: C_2  and  C_13
    3  A    between atoms: C_6  and  C_13
    4  A    between atoms: C_15  and  C_17
    5  A    between atoms: C_15  and  C_25
    6  A    between atoms: C_20  and  N_23
    7  A    between atoms: C_21  and  C_27
                            x       y       z     vdW  Elec       q    Type
                         _______ _______ _______ _____ _____    ______ ____

>  <TORSDO>
F 7

$$$$
=
 OpenBabel11072410293D

 32 36  0  0  1  0  0  0  0  0999 V2000
  161.0630  207.3630  154.8620 O   0  0  0  0  0  0  0  0  0  0  0  0
  161.5170  206.8320  151.4150 C   0  0  0  0  0  0  0  0  0  0  0  0
  161.4440  205.5640  151.7990 C   0  0  0  0  0  0  0  0  0  0  0  0
  161.2010  206.9180  153.6930 C   0  0  0  0  0  0  0  0  0  0  0  0
  161.8250  207.6540  149.8720 S   0  0  0  0  0  0  0  0  0  0  0  0
  161.3940  207.7080  152.5040 C   0  0  0  0  0  0  0  0  0  0  0  0
  161.7970  209.1740  150.8250 N   0  0  0  0  0  0  0  0  0  0  0  0
  161.2050  205.4680  153.2930 C   0  0  0  0  0  2  0  0  0  0  0  0
  161.5640  208.9820  152.2270 C   0  0  0  0  0  3  0  0  0  0  0  0
  162.2260  211.4700  148.2100 O   0  0  0  0  0  0  0  0  0  0  0  0
  161.3160  211.5200  150.3860 C   0  0  0  0  0  2  0  0  0  0  0  0
  161.0890  211.8720  148.9310 C   0  0  1  0  0  3  0  0  0  0  0  0
  162.3440  210.4300  150.3310 C   0  0  2  0  0  3  0  0  0  0  0  0
  162.6880  210.3170  148.8620 C   0  0  0  0  0  2  0  0  0  0  0  0
  160.8420  213.3740  148.7590 C   0  0  1  0  0  3  0  0  0  0  0  0
  162.0590  214.0350  148.5640 O   0  0  0  0  0  1  0  0  0  0  0  0
  160.5700  214.4120  146.6200 F   0  0  0  0  0  0  0  0  0  0  0  0
  159.4450  212.4990  147.0220 F   0  0  0  0  0  0  0  0  0  0  0  0
  159.9070  213.6740  147.5850 C   0  0  0  0  0  0  0  0  0  0  0  0
  158.8190  214.4000  148.0360 F   0  0  0  0  0  0  0  0  0  0  0  0
  161.5440  204.3880  150.8890 C   0  0  0  0  0  2  0  0  0  0  0  0
  160.2740  204.2470  150.0640 C   0  0  0  0  0  2  0  0  0  0  0  0
  161.2300  202.5380  146.7350 C   0  0  2  0  0  0  0  0  0  0  0  0
  161.3370  202.0120  149.6570 C   0  0  0  0  0  2  0  0  0  0  0  0
  160.4000  203.0910  149.0900 C   0  0  2  0  0  3  0  0  0  0  0  0
  161.6720  200.8920  148.6660 C   0  0  0  0  0  2  0  0  0  0  0  0
  162.2740  203.4690  147.3620 C   0  0  2  0  0  3  0  0  0  0  0  0
  161.0950  201.1020  147.2620 C   0  0  0  0  0  2  0  0  0  0  0  0
  160.7600  202.7940  145.3100 C   0  0  0  0  0  1  0  0  0  0  0  0
  160.7890  203.6320  147.6980 C   0  0  1  0  0  3  0  0  0  0  0  0
  162.4660  205.8240  147.0650 O   0  0  0  0  0  1  0  0  0  0  0  0
  162.7100  204.6010  146.4440 C   0  0  0  0  0  2  0  0  0  0  0  0
  2  3  2  0  0  0  0
  2  6  1  0  0  0  0
  3  8  1  0  0  0  0
  4  1  2  0  0  0  0
  5  7  1  0  0  0  0
  5  2  1  0  0  0  0
  6  4  1  0  0  0  0
  7  9  1  0  0  0  0
  8  4  1  0  0  0  0
  9  6  2  0  0  0  0
 10 14  1  0  0  0  0
 10 12  1  0  0  0  0
 12 15  1  1  0  0  0
 12 11  1  0  0  0  0
 13 14  1  6  0  0  0
 13 11  1  0  0  0  0
 13  7  1  0  0  0  0
 15 16  1  6  0  0  0
 17 19  1  0  0  0  0
 18 19  1  0  0  0  0
 19 20  1  0  0  0  0
 19 15  1  0  0  0  0
 21  3  1  0  0  0  0
 22 21  1  0  0  0  0
 23 29  1  6  0  0  0
 23 28  1  0  0  0  0
 23 27  1  0  0  0  0
 23 30  1  0  0  0  0
 25 24  1  0  0  0  0
 25 22  1  1  0  0  0
 26 24  1  0  0  0  0
 27 32  1  6  0  0  0
 27 30  1  0  0  0  0
 28 26  1  0  0  0  0
 30 25  1  0  0  0  0
 32 31  1  0  0  0  0
M  END
>  <MODEL>
9

>  <REMARK>
 VINA RESULT:      -7.3      3.489      4.835
  Name = 
  7 active torsions:
  status: ('A' for Active; 'I' for Inactive)
    1  A    between atoms: C_2  and  C_8
    2  A    between atoms: C_2  and  C_13
    3  A    between atoms: C_6  and  C_13
    4  A    between atoms: C_15  and  C_17
    5  A    between atoms: C_15  and  C_25
    6  A    between atoms: C_20  and  N_23
    7  A    between atoms: C_21  and  C_27
                            x       y       z     vdW  Elec       q    Type
                         _______ _______ _______ _____ _____    ______ ____

>  <TORSDO>
F 7

$$$$
