=
 OpenBabel11072412293D

 33 37  0  0  1  0  0  0  0  0999 V2000
  161.9670  210.3250  151.6020 N   0  0  0  0  0  0  0  0  0  0  0  0
  161.2320  208.4010  150.5010 C   0  0  0  0  0  0  0  0  0  0  0  0
  160.8840  209.3320  151.6100 C   0  0  1  0  0  3  0  0  0  0  0  0
  160.4390  207.2690  150.1220 N   0  0  0  0  0  2  0  0  0  0  0  0
  162.7840  209.9010  150.5400 N   0  0  0  0  0  0  0  0  0  0  0  0
  162.3130  208.7540  149.9100 N   0  0  0  0  0  0  0  0  0  0  0  0
  160.6320  204.9640  149.3530 C   0  0  0  0  0  3  0  0  0  0  0  0
  160.7240  206.3320  149.0750 C   0  0  0  0  0  0  0  0  0  0  0  0
  160.9040  204.0190  148.3620 C   0  0  0  0  0  0  0  0  0  0  0  0
  161.7290  206.2500  145.5500 F   0  0  0  0  0  0  0  0  0  0  0  0
  161.2760  204.4450  147.0650 C   0  0  0  0  0  0  0  0  0  0  0  0
  161.3710  205.8150  146.7860 C   0  0  0  0  0  0  0  0  0  0  0  0
  161.5450  203.4900  146.0760 C   0  0  0  0  0  3  0  0  0  0  0  0
  161.4440  202.1260  146.3700 C   0  0  0  0  0  3  0  0  0  0  0  0
  160.8070  202.6550  148.6480 C   0  0  0  0  0  3  0  0  0  0  0  0
  161.0760  201.7100  147.6540 C   0  0  0  0  0  3  0  0  0  0  0  0
  161.0970  206.7490  147.7880 C   0  0  0  0  0  3  0  0  0  0  0  0
  161.0280  207.2220  152.9520 C   0  0  0  0  0  3  0  0  0  0  0  0
  160.9410  206.4970  154.1400 C   0  0  0  0  0  0  0  0  0  0  0  0
  160.4110  208.5420  155.3250 C   0  0  0  0  0  3  0  0  0  0  0  0
  160.6310  207.1640  155.3300 C   0  0  0  0  0  3  0  0  0  0  0  0
  160.8180  208.6120  152.9300 C   0  0  0  0  0  0  0  0  0  0  0  0
  160.4980  209.2870  154.1380 C   0  0  0  0  0  0  0  0  0  0  0  0
  160.2430  210.7480  154.2200 C   0  0  0  0  0  0  0  0  0  0  0  0
  159.0070  211.2800  153.7270 N   0  0  0  0  0  2  0  0  0  0  0  0
  161.0970  211.5290  154.7220 O   0  0  0  0  0  0  0  0  0  0  0  0
  156.7100  214.0030  153.2960 C   0  0  0  0  0  2  0  0  0  0  0  0
  158.8640  213.3310  152.4310 C   0  0  0  0  0  2  0  0  0  0  0  0
  157.2100  212.8690  154.1590 C   0  0  0  0  0  2  0  0  0  0  0  0
  158.6740  212.6950  153.7960 C   0  0  0  0  0  3  0  0  0  0  0  0
  157.5240  213.9160  152.0260 C   0  0  0  0  0  2  0  0  0  0  0  0
  161.1640  205.1170  154.1090 O   0  0  0  0  0  0  0  0  0  0  0  0
  161.1420  204.3630  152.9050 C   0  0  0  0  0  1  0  0  0  0  0  0
  1  3  1  0  0  0  0
  2  3  1  0  0  0  0
  3 22  1  1  0  0  0
  4  2  1  0  0  0  0
  5  1  2  0  0  0  0
  6  2  2  0  0  0  0
  6  5  1  0  0  0  0
  8  7  1  0  0  0  0
  8  4  1  0  0  0  0
  9 15  1  0  0  0  0
  9  7  2  0  0  0  0
 10 12  1  0  0  0  0
 11  9  1  0  0  0  0
 12 11  2  0  0  0  0
 12 17  1  0  0  0  0
 13 14  2  0  0  0  0
 13 11  1  0  0  0  0
 14 16  1  0  0  0  0
 16 15  2  0  0  0  0
 17  8  2  0  0  0  0
 18 19  1  0  0  0  0
 19 21  2  0  0  0  0
 20 21  1  0  0  0  0
 22 18  2  0  0  0  0
 22 23  1  0  0  0  0
 23 24  1  0  0  0  0
 23 20  2  0  0  0  0
 24 26  2  0  0  0  0
 25 30  1  0  0  0  0
 25 24  1  0  0  0  0
 27 29  1  0  0  0  0
 28 30  1  0  0  0  0
 30 29  1  0  0  0  0
 31 28  1  0  0  0  0
 31 27  1  0  0  0  0
 32 19  1  0  0  0  0
 33 32  1  0  0  0  0
M  END
>  <MODEL>
1

>  <REMARK>
 VINA RESULT:      -7.6      0.000      0.000
  Name = 
  5 active torsions:
  status: ('A' for Active; 'I' for Inactive)
    1  A    between atoms: C_1  and  C_23
    2  A    between atoms: N_2  and  C_31
    3  A    between atoms: C_5  and  O_12
    4  A    between atoms: C_8  and  N_20
    5  A    between atoms: C_16  and  C_19
                            x       y       z     vdW  Elec       q    Type
                         _______ _______ _______ _____ _____    ______ ____

>  <TORSDO>
F 5

$$$$
=
 OpenBabel11072412293D

 33 37  0  0  1  0  0  0  0  0999 V2000
  162.2200  210.7180  151.9810 N   0  0  0  0  0  0  0  0  0  0  0  0
  161.2540  208.7030  151.3000 C   0  0  0  0  0  0  0  0  0  0  0  0
  160.9520  209.9760  152.0110 C   0  0  1  0  0  3  0  0  0  0  0  0
  160.2950  207.6620  151.0710 N   0  0  0  0  0  2  0  0  0  0  0  0
  163.0810  209.8520  151.2840 N   0  0  0  0  0  0  0  0  0  0  0  0
  162.4690  208.6650  150.8950 N   0  0  0  0  0  0  0  0  0  0  0  0
  160.6220  205.2500  151.1750 C   0  0  0  0  0  3  0  0  0  0  0  0
  160.5250  206.4130  150.4050 C   0  0  0  0  0  0  0  0  0  0  0  0
  160.8480  204.0140  150.5660 C   0  0  0  0  0  0  0  0  0  0  0  0
  161.0140  205.0520  147.0360 F   0  0  0  0  0  0  0  0  0  0  0  0
  160.9820  203.9340  149.1590 C   0  0  0  0  0  0  0  0  0  0  0  0
  160.8870  205.1010  148.3870 C   0  0  0  0  0  0  0  0  0  0  0  0
  161.2060  202.6900  148.5570 C   0  0  0  0  0  3  0  0  0  0  0  0
  161.2960  201.5350  149.3410 C   0  0  0  0  0  3  0  0  0  0  0  0
  160.9410  202.8560  151.3430 C   0  0  0  0  0  3  0  0  0  0  0  0
  161.1640  201.6190  150.7310 C   0  0  0  0  0  3  0  0  0  0  0  0
  160.6620  206.3300  149.0110 C   0  0  0  0  0  3  0  0  0  0  0  0
  160.7840  208.4730  154.0070 C   0  0  0  0  0  3  0  0  0  0  0  0
  160.3620  208.1670  155.3010 C   0  0  0  0  0  0  0  0  0  0  0  0
  159.3480  210.3610  155.4650 C   0  0  0  0  0  3  0  0  0  0  0  0
  159.6410  209.1190  156.0300 C   0  0  0  0  0  3  0  0  0  0  0  0
  160.5050  209.7220  153.4260 C   0  0  0  0  0  0  0  0  0  0  0  0
  159.7680  210.6850  154.1650 C   0  0  0  0  0  0  0  0  0  0  0  0
  159.4080  212.0260  153.6370 C   0  0  0  0  0  0  0  0  0  0  0  0
  158.7080  212.1320  152.3920 N   0  0  0  0  0  2  0  0  0  0  0  0
  159.7060  213.0750  154.2720 O   0  0  0  0  0  0  0  0  0  0  0  0
  156.2030  214.3400  151.0790 C   0  0  0  0  0  2  0  0  0  0  0  0
  158.2430  213.2980  150.3100 C   0  0  0  0  0  2  0  0  0  0  0  0
  156.8970  213.7600  152.2880 C   0  0  0  0  0  2  0  0  0  0  0  0
  158.2990  213.4080  151.8240 C   0  0  0  0  0  3  0  0  0  0  0  0
  156.8230  213.6350  149.8950 C   0  0  0  0  0  2  0  0  0  0  0  0
  160.6700  206.9130  155.8360 O   0  0  0  0  0  0  0  0  0  0  0  0
  160.4720  206.5930  157.2060 C   0  0  0  0  0  1  0  0  0  0  0  0
  1  3  1  0  0  0  0
  2  3  1  0  0  0  0
  3 22  1  1  0  0  0
  4  2  1  0  0  0  0
  5  1  2  0  0  0  0
  6  5  1  0  0  0  0
  6  2  2  0  0  0  0
  8  4  1  0  0  0  0
  8  7  2  0  0  0  0
  9  7  1  0  0  0  0
  9 15  1  0  0  0  0
 10 12  1  0  0  0  0
 11  9  2  0  0  0  0
 12 17  2  0  0  0  0
 12 11  1  0  0  0  0
 13 11  1  0  0  0  0
 13 14  2  0  0  0  0
 14 16  1  0  0  0  0
 16 15  2  0  0  0  0
 17  8  1  0  0  0  0
 18 19  1  0  0  0  0
 19 32  1  0  0  0  0
 19 21  2  0  0  0  0
 20 21  1  0  0  0  0
 22 18  2  0  0  0  0
 22 23  1  0  0  0  0
 23 20  2  0  0  0  0
 24 23  1  0  0  0  0
 24 26  2  0  0  0  0
 25 24  1  0  0  0  0
 27 29  1  0  0  0  0
 28 30  1  0  0  0  0
 30 29  1  0  0  0  0
 30 25  1  0  0  0  0
 31 28  1  0  0  0  0
 31 27  1  0  0  0  0
 32 33  1  0  0  0  0
M  END
>  <MODEL>
2

>  <REMARK>
 VINA RESULT:      -7.2      1.429      2.109
  Name = 
  5 active torsions:
  status: ('A' for Active; 'I' for Inactive)
    1  A    between atoms: C_1  and  C_23
    2  A    between atoms: N_2  and  C_31
    3  A    between atoms: C_5  and  O_12
    4  A    between atoms: C_8  and  N_20
    5  A    between atoms: C_16  and  C_19
                            x       y       z     vdW  Elec       q    Type
                         _______ _______ _______ _____ _____    ______ ____

>  <TORSDO>
F 5

$$$$
=
 OpenBabel11072412293D

 33 37  0  0  1  0  0  0  0  0999 V2000
  161.5380  209.4070  155.1130 N   0  0  0  0  0  0  0  0  0  0  0  0
  161.2980  208.4160  153.0120 C   0  0  0  0  0  0  0  0  0  0  0  0
  161.4030  209.7380  153.6880 C   0  0  1  0  0  3  0  0  0  0  0  0
  161.1660  208.2450  151.5950 N   0  0  0  0  0  2  0  0  0  0  0  0
  161.5100  208.0020  155.1200 N   0  0  0  0  0  0  0  0  0  0  0  0
  161.3670  207.4500  153.8510 N   0  0  0  0  0  0  0  0  0  0  0  0
  161.1660  205.8080  151.6030 C   0  0  0  0  0  3  0  0  0  0  0  0
  161.0500  207.0030  150.8870 C   0  0  0  0  0  0  0  0  0  0  0  0
  161.0600  204.5780  150.9500 C   0  0  0  0  0  0  0  0  0  0  0  0
  160.5080  205.7240  147.4940 F   0  0  0  0  0  0  0  0  0  0  0  0
  160.8350  204.5370  149.5540 C   0  0  0  0  0  0  0  0  0  0  0  0
  160.7220  205.7350  148.8350 C   0  0  0  0  0  0  0  0  0  0  0  0
  160.7290  203.2980  148.9080 C   0  0  0  0  0  3  0  0  0  0  0  0
  160.8430  202.1120  149.6410 C   0  0  0  0  0  3  0  0  0  0  0  0
  161.1750  203.3880  151.6740 C   0  0  0  0  0  3  0  0  0  0  0  0
  161.0660  202.1570  151.0200 C   0  0  0  0  0  3  0  0  0  0  0  0
  160.8300  206.9580  149.5010 C   0  0  0  0  0  3  0  0  0  0  0  0
  159.1330  210.5410  154.3760 C   0  0  0  0  0  3  0  0  0  0  0  0
  157.9600  211.2700  154.1800 C   0  0  0  0  0  0  0  0  0  0  0  0
  158.8470  212.0920  152.0820 C   0  0  0  0  0  3  0  0  0  0  0  0
  157.8210  212.0480  153.0260 C   0  0  0  0  0  3  0  0  0  0  0  0
  160.1800  210.5800  153.4400 C   0  0  0  0  0  0  0  0  0  0  0  0
  160.0350  211.3660  152.2660 C   0  0  0  0  0  0  0  0  0  0  0  0
  161.0740  211.4630  151.2080 C   0  0  0  0  0  0  0  0  0  0  0  0
  160.8450  212.2940  150.0640 N   0  0  0  0  0  2  0  0  0  0  0  0
  162.1600  210.8280  151.3050 O   0  0  0  0  0  0  0  0  0  0  0  0
  162.0570  213.9600  147.1270 C   0  0  0  0  0  2  0  0  0  0  0  0
  161.3520  211.7360  147.7530 C   0  0  0  0  0  2  0  0  0  0  0  0
  161.9500  213.9280  148.6330 C   0  0  0  0  0  2  0  0  0  0  0  0
  161.8240  212.4610  149.0010 C   0  0  0  0  0  3  0  0  0  0  0  0
  161.2520  212.7730  146.6510 C   0  0  0  0  0  2  0  0  0  0  0  0
  156.9500  211.2020  155.1450 O   0  0  0  0  0  0  0  0  0  0  0  0
  156.9710  211.9800  156.3340 C   0  0  0  0  0  1  0  0  0  0  0  0
  1  5  2  0  0  0  0
  2  3  1  0  0  0  0
  2  6  2  0  0  0  0
  3 22  1  1  0  0  0
  3  1  1  0  0  0  0
  4  2  1  0  0  0  0
  6  5  1  0  0  0  0
  8  4  1  0  0  0  0
  8  7  2  0  0  0  0
  9  7  1  0  0  0  0
  9 15  1  0  0  0  0
 10 12  1  0  0  0  0
 11  9  2  0  0  0  0
 12 17  2  0  0  0  0
 12 11  1  0  0  0  0
 13 11  1  0  0  0  0
 13 14  2  0  0  0  0
 14 16  1  0  0  0  0
 16 15  2  0  0  0  0
 17  8  1  0  0  0  0
 19 18  1  0  0  0  0
 19 32  1  0  0  0  0
 20 23  2  0  0  0  0
 20 21  1  0  0  0  0
 21 19  2  0  0  0  0
 22 18  2  0  0  0  0
 23 22  1  0  0  0  0
 24 26  2  0  0  0  0
 24 23  1  0  0  0  0
 25 24  1  0  0  0  0
 27 29  1  0  0  0  0
 28 30  1  0  0  0  0
 29 30  1  0  0  0  0
 30 25  1  0  0  0  0
 31 27  1  0  0  0  0
 31 28  1  0  0  0  0
 32 33  1  0  0  0  0
M  END
>  <MODEL>
3

>  <REMARK>
 VINA RESULT:      -6.9      2.852      4.561
  Name = 
  5 active torsions:
  status: ('A' for Active; 'I' for Inactive)
    1  A    between atoms: C_1  and  C_23
    2  A    between atoms: N_2  and  C_31
    3  A    between atoms: C_5  and  O_12
    4  A    between atoms: C_8  and  N_20
    5  A    between atoms: C_16  and  C_19
                            x       y       z     vdW  Elec       q    Type
                         _______ _______ _______ _____ _____    ______ ____

>  <TORSDO>
F 5

$$$$
=
 OpenBabel11072412293D

 33 37  0  0  1  0  0  0  0  0999 V2000
  161.1420  209.5050  153.8810 N   0  0  0  0  0  0  0  0  0  0  0  0
  161.5050  208.1950  151.9820 C   0  0  0  0  0  0  0  0  0  0  0  0
  161.8300  209.5180  152.5820 C   0  0  1  0  0  3  0  0  0  0  0  0
  161.9820  207.7510  150.7040 N   0  0  0  0  0  2  0  0  0  0  0  0
  160.5300  208.2400  153.9070 N   0  0  0  0  0  0  0  0  0  0  0  0
  160.7700  207.4900  152.7600 N   0  0  0  0  0  0  0  0  0  0  0  0
  161.5420  205.3600  150.8670 C   0  0  0  0  0  3  0  0  0  0  0  0
  161.6970  206.4980  150.0690 C   0  0  0  0  0  0  0  0  0  0  0  0
  161.2660  204.1200  150.2870 C   0  0  0  0  0  0  0  0  0  0  0  0
  161.1910  205.0710  146.7300 F   0  0  0  0  0  0  0  0  0  0  0  0
  161.1430  204.0100  148.8820 C   0  0  0  0  0  0  0  0  0  0  0  0
  161.3010  205.1500  148.0810 C   0  0  0  0  0  0  0  0  0  0  0  0
  160.8640  202.7630  148.3090 C   0  0  0  0  0  3  0  0  0  0  0  0
  160.7080  201.6360  149.1220 C   0  0  0  0  0  3  0  0  0  0  0  0
  161.1100  202.9890  151.0920 C   0  0  0  0  0  3  0  0  0  0  0  0
  160.8310  201.7490  150.5100 C   0  0  0  0  0  3  0  0  0  0  0  0
  161.5780  206.3840  148.6750 C   0  0  0  0  0  3  0  0  0  0  0  0
  161.8040  210.7400  150.3960 C   0  0  0  0  0  3  0  0  0  0  0  0
  161.4110  211.7860  149.5610 C   0  0  0  0  0  0  0  0  0  0  0  0
  160.0750  212.6950  151.3660 C   0  0  0  0  0  3  0  0  0  0  0  0
  160.5420  212.7660  150.0530 C   0  0  0  0  0  3  0  0  0  0  0  0
  161.3360  210.6480  151.7180 C   0  0  0  0  0  0  0  0  0  0  0  0
  160.4590  211.6470  152.2170 C   0  0  0  0  0  0  0  0  0  0  0  0
  159.9210  211.6510  153.6020 C   0  0  0  0  0  0  0  0  0  0  0  0
  158.5200  211.4430  153.8180 N   0  0  0  0  0  2  0  0  0  0  0  0
  160.6800  211.8280  154.5940 O   0  0  0  0  0  0  0  0  0  0  0  0
  155.6680  211.5020  155.9940 C   0  0  0  0  0  2  0  0  0  0  0  0
  157.6560  212.8230  155.6230 C   0  0  0  0  0  2  0  0  0  0  0  0
  156.5790  210.7040  155.0930 C   0  0  0  0  0  2  0  0  0  0  0  0
  157.9230  211.4070  155.1440 C   0  0  0  0  0  3  0  0  0  0  0  0
  156.1670  212.9250  155.8950 C   0  0  0  0  0  2  0  0  0  0  0  0
  161.8990  211.8280  148.2520 O   0  0  0  0  0  0  0  0  0  0  0  0
  163.0500  212.5780  147.8860 C   0  0  0  0  0  1  0  0  0  0  0  0
  1  5  2  0  0  0  0
  2  3  1  0  0  0  0
  2  6  2  0  0  0  0
  3 22  1  6  0  0  0
  3  1  1  0  0  0  0
  4  2  1  0  0  0  0
  6  5  1  0  0  0  0
  8  4  1  0  0  0  0
  8  7  2  0  0  0  0
  9  7  1  0  0  0  0
  9 15  1  0  0  0  0
 10 12  1  0  0  0  0
 11  9  2  0  0  0  0
 12 17  2  0  0  0  0
 12 11  1  0  0  0  0
 13 11  1  0  0  0  0
 13 14  2  0  0  0  0
 14 16  1  0  0  0  0
 16 15  2  0  0  0  0
 17  8  1  0  0  0  0
 18 22  1  0  0  0  0
 19 21  1  0  0  0  0
 19 18  2  0  0  0  0
 20 23  1  0  0  0  0
 21 20  2  0  0  0  0
 22 23  2  0  0  0  0
 23 24  1  0  0  0  0
 24 25  1  0  0  0  0
 24 26  2  0  0  0  0
 25 30  1  0  0  0  0
 28 31  1  0  0  0  0
 29 30  1  0  0  0  0
 29 27  1  0  0  0  0
 30 28  1  0  0  0  0
 31 27  1  0  0  0  0
 32 19  1  0  0  0  0
 33 32  1  0  0  0  0
M  END
>  <MODEL>
4

>  <REMARK>
 VINA RESULT:      -6.7      2.357      3.897
  Name = 
  5 active torsions:
  status: ('A' for Active; 'I' for Inactive)
    1  A    between atoms: C_1  and  C_23
    2  A    between atoms: N_2  and  C_31
    3  A    between atoms: C_5  and  O_12
    4  A    between atoms: C_8  and  N_20
    5  A    between atoms: C_16  and  C_19
                            x       y       z     vdW  Elec       q    Type
                         _______ _______ _______ _____ _____    ______ ____

>  <TORSDO>
F 5

$$$$
=
 OpenBabel11072412293D

 33 37  0  0  1  0  0  0  0  0999 V2000
  160.7570  209.2180  154.8220 N   0  0  0  0  0  0  0  0  0  0  0  0
  161.2700  207.7390  153.0890 C   0  0  0  0  0  0  0  0  0  0  0  0
  161.5840  209.0960  153.6140 C   0  0  1  0  0  3  0  0  0  0  0  0
  161.8660  207.1730  151.9140 N   0  0  0  0  0  2  0  0  0  0  0  0
  160.0900  207.9810  154.8800 N   0  0  0  0  0  0  0  0  0  0  0  0
  160.4230  207.1290  153.8320 N   0  0  0  0  0  0  0  0  0  0  0  0
  161.5980  205.7400  149.9610 C   0  0  0  0  0  3  0  0  0  0  0  0
  161.5980  205.8810  151.3520 C   0  0  0  0  0  0  0  0  0  0  0  0
  161.3400  204.5000  149.3740 C   0  0  0  0  0  0  0  0  0  0  0  0
  160.8190  202.4530  152.3910 F   0  0  0  0  0  0  0  0  0  0  0  0
  161.0760  203.3750  150.1910 C   0  0  0  0  0  0  0  0  0  0  0  0
  161.0730  203.5160  151.5860 C   0  0  0  0  0  0  0  0  0  0  0  0
  160.8200  202.1330  149.5940 C   0  0  0  0  0  3  0  0  0  0  0  0
  160.8290  202.0090  148.2000 C   0  0  0  0  0  3  0  0  0  0  0  0
  161.3450  204.3680  147.9830 C   0  0  0  0  0  3  0  0  0  0  0  0
  161.0900  203.1240  147.3980 C   0  0  0  0  0  3  0  0  0  0  0  0
  161.3320  204.7640  152.1580 C   0  0  0  0  0  3  0  0  0  0  0  0
  161.7600  210.0630  151.3100 C   0  0  0  0  0  3  0  0  0  0  0  0
  161.5060  211.0430  150.3500 C   0  0  0  0  0  0  0  0  0  0  0  0
  160.2100  212.2750  151.9840 C   0  0  0  0  0  3  0  0  0  0  0  0
  160.7260  212.1530  150.6940 C   0  0  0  0  0  3  0  0  0  0  0  0
  161.2400  210.1660  152.6110 C   0  0  0  0  0  0  0  0  0  0  0  0
  160.4540  211.2960  152.9600 C   0  0  0  0  0  0  0  0  0  0  0  0
  159.8720  211.5080  154.3110 C   0  0  0  0  0  0  0  0  0  0  0  0
  158.4620  211.3450  154.5070 N   0  0  0  0  0  2  0  0  0  0  0  0
  160.6010  211.8240  155.2900 O   0  0  0  0  0  0  0  0  0  0  0  0
  155.5660  211.9350  156.5420 C   0  0  0  0  0  2  0  0  0  0  0  0
  157.7020  212.9880  156.1300 C   0  0  0  0  0  2  0  0  0  0  0  0
  156.4110  210.9550  155.7630 C   0  0  0  0  0  2  0  0  0  0  0  0
  157.8230  211.5100  155.8040 C   0  0  0  0  0  3  0  0  0  0  0  0
  156.2260  213.2770  156.3260 C   0  0  0  0  0  2  0  0  0  0  0  0
  162.0410  210.8900  149.0680 O   0  0  0  0  0  0  0  0  0  0  0  0
  162.1800  211.9740  148.1600 C   0  0  0  0  0  1  0  0  0  0  0  0
  1  5  2  0  0  0  0
  2  3  1  0  0  0  0
  2  6  2  0  0  0  0
  3 22  1  6  0  0  0
  3  1  1  0  0  0  0
  4  2  1  0  0  0  0
  6  5  1  0  0  0  0
  7  8  1  0  0  0  0
  8  4  1  0  0  0  0
  8 17  2  0  0  0  0
  9  7  2  0  0  0  0
  9 11  1  0  0  0  0
 11 12  2  0  0  0  0
 12 17  1  0  0  0  0
 12 10  1  0  0  0  0
 13 11  1  0  0  0  0
 14 13  2  0  0  0  0
 15  9  1  0  0  0  0
 16 15  2  0  0  0  0
 16 14  1  0  0  0  0
 18 22  1  0  0  0  0
 19 21  1  0  0  0  0
 19 18  2  0  0  0  0
 20 23  1  0  0  0  0
 21 20  2  0  0  0  0
 22 23  2  0  0  0  0
 23 24  1  0  0  0  0
 24 25  1  0  0  0  0
 24 26  2  0  0  0  0
 25 30  1  0  0  0  0
 28 31  1  0  0  0  0
 29 30  1  0  0  0  0
 29 27  1  0  0  0  0
 30 28  1  0  0  0  0
 31 27  1  0  0  0  0
 32 19  1  0  0  0  0
 33 32  1  0  0  0  0
M  END
>  <MODEL>
5

>  <REMARK>
 VINA RESULT:      -6.4      2.633      4.171
  Name = 
  5 active torsions:
  status: ('A' for Active; 'I' for Inactive)
    1  A    between atoms: C_1  and  C_23
    2  A    between atoms: N_2  and  C_31
    3  A    between atoms: C_5  and  O_12
    4  A    between atoms: C_8  and  N_20
    5  A    between atoms: C_16  and  C_19
                            x       y       z     vdW  Elec       q    Type
                         _______ _______ _______ _____ _____    ______ ____

>  <TORSDO>
F 5

$$$$
=
 OpenBabel11072412293D

 33 37  0  0  1  0  0  0  0  0999 V2000
  162.3340  209.6490  149.1010 N   0  0  0  0  0  0  0  0  0  0  0  0
  161.4210  207.5670  149.6360 C   0  0  0  0  0  0  0  0  0  0  0  0
  161.2070  209.0300  149.8110 C   0  0  1  0  0  3  0  0  0  0  0  0
  160.5460  206.5570  150.1540 N   0  0  0  0  0  2  0  0  0  0  0  0
  163.0460  208.5440  148.6030 N   0  0  0  0  0  0  0  0  0  0  0  0
  162.4700  207.3230  148.9410 N   0  0  0  0  0  0  0  0  0  0  0  0
  160.8190  204.5840  148.7510 C   0  0  0  0  0  3  0  0  0  0  0  0
  160.7030  205.1380  150.0300 C   0  0  0  0  0  0  0  0  0  0  0  0
  160.9710  203.2060  148.5860 C   0  0  0  0  0  0  0  0  0  0  0  0
  160.9150  202.1230  152.1060 F   0  0  0  0  0  0  0  0  0  0  0  0
  161.0070  202.3590  149.7190 C   0  0  0  0  0  0  0  0  0  0  0  0
  160.8870  202.9130  151.0020 C   0  0  0  0  0  0  0  0  0  0  0  0
  161.1620  200.9780  149.5450 C   0  0  0  0  0  3  0  0  0  0  0  0
  161.2820  200.4420  148.2590 C   0  0  0  0  0  3  0  0  0  0  0  0
  161.0900  202.6620  147.3050 C   0  0  0  0  0  3  0  0  0  0  0  0
  161.2450  201.2820  147.1420 C   0  0  0  0  0  3  0  0  0  0  0  0
  160.7350  204.2940  151.1510 C   0  0  0  0  0  3  0  0  0  0  0  0
  161.4020  208.4090  152.2300 C   0  0  0  0  0  3  0  0  0  0  0  0
  161.3730  208.7000  153.5940 C   0  0  0  0  0  0  0  0  0  0  0  0
  160.9300  211.0220  153.0680 C   0  0  0  0  0  3  0  0  0  0  0  0
  161.1360  210.0150  154.0100 C   0  0  0  0  0  3  0  0  0  0  0  0
  161.2060  209.4140  151.2670 C   0  0  0  0  0  0  0  0  0  0  0  0
  160.9590  210.7470  151.6910 C   0  0  0  0  0  0  0  0  0  0  0  0
  160.7240  211.8770  150.7560 C   0  0  0  0  0  0  0  0  0  0  0  0
  161.5670  212.0330  149.6080 N   0  0  0  0  0  2  0  0  0  0  0  0
  159.7890  212.7000  150.9540 O   0  0  0  0  0  0  0  0  0  0  0  0
  161.0490  213.1750  146.2460 C   0  0  0  0  0  2  0  0  0  0  0  0
  162.7140  213.4260  147.9790 C   0  0  0  0  0  2  0  0  0  0  0  0
  160.4540  212.6370  147.5250 C   0  0  0  0  0  2  0  0  0  0  0  0
  161.3830  213.0980  148.6330 C   0  0  0  0  0  3  0  0  0  0  0  0
  162.5400  213.2030  146.4890 C   0  0  0  0  0  2  0  0  0  0  0  0
  161.5810  207.6650  154.5110 O   0  0  0  0  0  0  0  0  0  0  0  0
  160.6240  207.3140  155.5010 C   0  0  0  0  0  1  0  0  0  0  0  0
  1  3  1  0  0  0  0
  2  3  1  0  0  0  0
  2  4  1  0  0  0  0
  3 22  1  1  0  0  0
  5  6  1  0  0  0  0
  5  1  2  0  0  0  0
  6  2  2  0  0  0  0
  7  8  1  0  0  0  0
  8  4  1  0  0  0  0
  8 17  2  0  0  0  0
  9  7  2  0  0  0  0
  9 11  1  0  0  0  0
 11 12  2  0  0  0  0
 12 17  1  0  0  0  0
 12 10  1  0  0  0  0
 13 11  1  0  0  0  0
 14 13  2  0  0  0  0
 15  9  1  0  0  0  0
 16 15  2  0  0  0  0
 16 14  1  0  0  0  0
 18 19  1  0  0  0  0
 19 21  2  0  0  0  0
 19 32  1  0  0  0  0
 20 21  1  0  0  0  0
 22 23  1  0  0  0  0
 22 18  2  0  0  0  0
 23 20  2  0  0  0  0
 24 26  2  0  0  0  0
 24 23  1  0  0  0  0
 25 24  1  0  0  0  0
 27 31  1  0  0  0  0
 27 29  1  0  0  0  0
 28 30  1  0  0  0  0
 29 30  1  0  0  0  0
 30 25  1  0  0  0  0
 31 28  1  0  0  0  0
 32 33  1  0  0  0  0
M  END
>  <MODEL>
6

>  <REMARK>
 VINA RESULT:      -6.4      3.000      4.027
  Name = 
  5 active torsions:
  status: ('A' for Active; 'I' for Inactive)
    1  A    between atoms: C_1  and  C_23
    2  A    between atoms: N_2  and  C_31
    3  A    between atoms: C_5  and  O_12
    4  A    between atoms: C_8  and  N_20
    5  A    between atoms: C_16  and  C_19
                            x       y       z     vdW  Elec       q    Type
                         _______ _______ _______ _____ _____    ______ ____

>  <TORSDO>
F 5

$$$$
=
 OpenBabel11072412293D

 33 37  0  0  1  0  0  0  0  0999 V2000
  160.4580  212.1300  156.0450 N   0  0  0  0  0  0  0  0  0  0  0  0
  160.5360  210.8440  154.0960 C   0  0  0  0  0  0  0  0  0  0  0  0
  160.0590  212.1490  154.6310 C   0  0  1  0  0  3  0  0  0  0  0  0
  160.3800  210.4260  152.7340 N   0  0  0  0  0  2  0  0  0  0  0  0
  161.1010  210.8870  156.1800 N   0  0  0  0  0  0  0  0  0  0  0  0
  161.1280  210.1520  154.9980 N   0  0  0  0  0  0  0  0  0  0  0  0
  160.6060  208.0050  152.8910 C   0  0  0  0  0  3  0  0  0  0  0  0
  160.8060  209.1820  152.1620 C   0  0  0  0  0  0  0  0  0  0  0  0
  161.0090  206.7730  152.3710 C   0  0  0  0  0  0  0  0  0  0  0  0
  162.4190  207.8600  149.1470 F   0  0  0  0  0  0  0  0  0  0  0  0
  161.6250  206.7110  151.0980 C   0  0  0  0  0  0  0  0  0  0  0  0
  161.8280  207.8920  150.3690 C   0  0  0  0  0  0  0  0  0  0  0  0
  162.0230  205.4710  150.5830 C   0  0  0  0  0  3  0  0  0  0  0  0
  161.8110  204.3030  151.3230 C   0  0  0  0  0  3  0  0  0  0  0  0
  160.8030  205.6020  153.1040 C   0  0  0  0  0  3  0  0  0  0  0  0
  161.2030  204.3690  152.5810 C   0  0  0  0  0  3  0  0  0  0  0  0
  161.4210  209.1170  150.9020 C   0  0  0  0  0  3  0  0  0  0  0  0
  157.7400  211.7060  155.4650 C   0  0  0  0  0  3  0  0  0  0  0  0
  156.3500  211.7690  155.3660 C   0  0  0  0  0  0  0  0  0  0  0  0
  156.5750  212.9910  153.2870 C   0  0  0  0  0  3  0  0  0  0  0  0
  155.7690  212.4170  154.2700 C   0  0  0  0  0  3  0  0  0  0  0  0
  158.5660  212.2870  154.4890 C   0  0  0  0  0  0  0  0  0  0  0  0
  157.9760  212.9380  153.3730 C   0  0  0  0  0  0  0  0  0  0  0  0
  158.7590  213.5700  152.2800 C   0  0  0  0  0  0  0  0  0  0  0  0
  158.2550  213.5410  150.9400 N   0  0  0  0  0  2  0  0  0  0  0  0
  159.8610  214.1370  152.5150 O   0  0  0  0  0  0  0  0  0  0  0  0
  158.9700  213.8160  147.4350 C   0  0  0  0  0  2  0  0  0  0  0  0
  160.1810  213.3410  149.4710 C   0  0  0  0  0  2  0  0  0  0  0  0
  158.0630  214.1620  148.5910 C   0  0  0  0  0  2  0  0  0  0  0  0
  158.9510  214.1590  149.8220 C   0  0  0  0  0  3  0  0  0  0  0  0
  160.0290  212.9120  148.0240 C   0  0  0  0  0  2  0  0  0  0  0  0
  155.5720  211.1810  156.3680 O   0  0  0  0  0  0  0  0  0  0  0  0
  154.7680  211.9400  157.2600 C   0  0  0  0  0  1  0  0  0  0  0  0
  1  5  2  0  0  0  0
  2  3  1  0  0  0  0
  2  6  2  0  0  0  0
  3 22  1  1  0  0  0
  3  1  1  0  0  0  0
  4  2  1  0  0  0  0
  6  5  1  0  0  0  0
  8  4  1  0  0  0  0
  8  7  2  0  0  0  0
  9  7  1  0  0  0  0
  9 15  1  0  0  0  0
 10 12  1  0  0  0  0
 11  9  2  0  0  0  0
 12 17  2  0  0  0  0
 12 11  1  0  0  0  0
 13 11  1  0  0  0  0
 13 14  2  0  0  0  0
 14 16  1  0  0  0  0
 16 15  2  0  0  0  0
 17  8  1  0  0  0  0
 19 18  1  0  0  0  0
 19 32  1  0  0  0  0
 20 23  2  0  0  0  0
 20 21  1  0  0  0  0
 21 19  2  0  0  0  0
 22 18  2  0  0  0  0
 23 22  1  0  0  0  0
 24 26  2  0  0  0  0
 24 23  1  0  0  0  0
 25 24  1  0  0  0  0
 27 31  1  0  0  0  0
 27 29  1  0  0  0  0
 28 30  1  0  0  0  0
 29 30  1  0  0  0  0
 30 25  1  0  0  0  0
 31 28  1  0  0  0  0
 32 33  1  0  0  0  0
M  END
>  <MODEL>
7

>  <REMARK>
 VINA RESULT:      -5.9      3.092      5.412
  Name = 
  5 active torsions:
  status: ('A' for Active; 'I' for Inactive)
    1  A    between atoms: C_1  and  C_23
    2  A    between atoms: N_2  and  C_31
    3  A    between atoms: C_5  and  O_12
    4  A    between atoms: C_8  and  N_20
    5  A    between atoms: C_16  and  C_19
                            x       y       z     vdW  Elec       q    Type
                         _______ _______ _______ _____ _____    ______ ____

>  <TORSDO>
F 5

$$$$
=
 OpenBabel11072412293D

 33 37  0  0  1  0  0  0  0  0999 V2000
  161.1530  209.8390  153.3590 N   0  0  0  0  0  0  0  0  0  0  0  0
  161.5600  208.4950  151.4930 C   0  0  0  0  0  0  0  0  0  0  0  0
  161.8690  209.8290  152.0760 C   0  0  1  0  0  3  0  0  0  0  0  0
  162.0650  208.0280  150.2350 N   0  0  0  0  0  2  0  0  0  0  0  0
  160.5410  208.5740  153.3950 N   0  0  0  0  0  0  0  0  0  0  0  0
  160.8080  207.8030  152.2670 N   0  0  0  0  0  0  0  0  0  0  0  0
  161.4770  205.6710  150.4300 C   0  0  0  0  0  3  0  0  0  0  0  0
  161.7950  206.7630  149.6160 C   0  0  0  0  0  0  0  0  0  0  0  0
  161.2100  204.4220  149.8660 C   0  0  0  0  0  0  0  0  0  0  0  0
  161.6440  205.2150  146.2960 F   0  0  0  0  0  0  0  0  0  0  0  0
  161.2620  204.2550  148.4620 C   0  0  0  0  0  0  0  0  0  0  0  0
  161.5840  205.3480  147.6460 C   0  0  0  0  0  0  0  0  0  0  0  0
  160.9900  202.9980  147.9060 C   0  0  0  0  0  3  0  0  0  0  0  0
  160.6690  201.9180  148.7350 C   0  0  0  0  0  3  0  0  0  0  0  0
  160.8900  203.3380  150.6870 C   0  0  0  0  0  3  0  0  0  0  0  0
  160.6190  202.0870  150.1220 C   0  0  0  0  0  3  0  0  0  0  0  0
  161.8500  206.5920  148.2240 C   0  0  0  0  0  3  0  0  0  0  0  0
  161.9530  211.0590  149.8960 C   0  0  0  0  0  3  0  0  0  0  0  0
  161.5800  212.0930  149.0370 C   0  0  0  0  0  0  0  0  0  0  0  0
  160.0810  212.9390  150.7410 C   0  0  0  0  0  3  0  0  0  0  0  0
  160.6380  213.0350  149.4660 C   0  0  0  0  0  3  0  0  0  0  0  0
  161.3950  210.9420  151.1800 C   0  0  0  0  0  0  0  0  0  0  0  0
  160.4440  211.9030  151.6170 C   0  0  0  0  0  0  0  0  0  0  0  0
  159.8080  211.8780  152.9590 C   0  0  0  0  0  0  0  0  0  0  0  0
  158.4400  211.4700  153.0860 N   0  0  0  0  0  2  0  0  0  0  0  0
  160.4550  212.2060  153.9910 O   0  0  0  0  0  0  0  0  0  0  0  0
  157.9100  212.6070  156.4480 C   0  0  0  0  0  2  0  0  0  0  0  0
  158.5780  210.5670  155.3390 C   0  0  0  0  0  2  0  0  0  0  0  0
  157.6300  212.7810  154.9740 C   0  0  0  0  0  2  0  0  0  0  0  0
  157.7550  211.3960  154.3680 C   0  0  0  0  0  3  0  0  0  0  0  0
  158.8870  211.4570  156.5280 C   0  0  0  0  0  2  0  0  0  0  0  0
  162.1600  212.1610  147.7670 O   0  0  0  0  0  0  0  0  0  0  0  0
  162.1960  213.3590  147.0030 C   0  0  0  0  0  1  0  0  0  0  0  0
  1  5  2  0  0  0  0
  2  3  1  0  0  0  0
  2  6  2  0  0  0  0
  3 22  1  6  0  0  0
  3  1  1  0  0  0  0
  4  2  1  0  0  0  0
  6  5  1  0  0  0  0
  8  4  1  0  0  0  0
  8  7  2  0  0  0  0
  9  7  1  0  0  0  0
  9 15  1  0  0  0  0
 10 12  1  0  0  0  0
 11  9  2  0  0  0  0
 12 17  2  0  0  0  0
 12 11  1  0  0  0  0
 13 11  1  0  0  0  0
 13 14  2  0  0  0  0
 14 16  1  0  0  0  0
 16 15  2  0  0  0  0
 17  8  1  0  0  0  0
 18 22  1  0  0  0  0
 19 21  1  0  0  0  0
 19 18  2  0  0  0  0
 20 23  1  0  0  0  0
 21 20  2  0  0  0  0
 22 23  2  0  0  0  0
 23 24  1  0  0  0  0
 24 25  1  0  0  0  0
 24 26  2  0  0  0  0
 25 30  1  0  0  0  0
 27 31  1  0  0  0  0
 28 31  1  0  0  0  0
 29 27  1  0  0  0  0
 30 29  1  0  0  0  0
 30 28  1  0  0  0  0
 32 19  1  0  0  0  0
 33 32  1  0  0  0  0
M  END
>  <MODEL>
8

>  <REMARK>
 VINA RESULT:      -5.9      2.445      4.101
  Name = 
  5 active torsions:
  status: ('A' for Active; 'I' for Inactive)
    1  A    between atoms: C_1  and  C_23
    2  A    between atoms: N_2  and  C_31
    3  A    between atoms: C_5  and  O_12
    4  A    between atoms: C_8  and  N_20
    5  A    between atoms: C_16  and  C_19
                            x       y       z     vdW  Elec       q    Type
                         _______ _______ _______ _____ _____    ______ ____

>  <TORSDO>
F 5

$$$$
=
 OpenBabel11072412293D

 33 37  0  0  1  0  0  0  0  0999 V2000
  161.1100  209.3410  153.4470 N   0  0  0  0  0  0  0  0  0  0  0  0
  161.5670  208.2810  151.4170 C   0  0  0  0  0  0  0  0  0  0  0  0
  161.8240  209.5340  152.1780 C   0  0  1  0  0  3  0  0  0  0  0  0
  162.0880  208.0120  150.1090 N   0  0  0  0  0  2  0  0  0  0  0  0
  160.5490  208.0590  153.3080 N   0  0  0  0  0  0  0  0  0  0  0  0
  160.8450  207.4610  152.0870 N   0  0  0  0  0  0  0  0  0  0  0  0
  162.1110  206.8890  147.9460 C   0  0  0  0  0  3  0  0  0  0  0  0
  161.8690  206.8330  149.3220 C   0  0  0  0  0  0  0  0  0  0  0  0
  161.9080  205.7640  147.1450 C   0  0  0  0  0  0  0  0  0  0  0  0
  160.7650  203.3560  149.6860 F   0  0  0  0  0  0  0  0  0  0  0  0
  161.4520  204.5570  147.7250 C   0  0  0  0  0  0  0  0  0  0  0  0
  161.2060  204.5010  149.1040 C   0  0  0  0  0  0  0  0  0  0  0  0
  161.2530  203.4320  146.9140 C   0  0  0  0  0  3  0  0  0  0  0  0
  161.5050  203.5050  145.5400 C   0  0  0  0  0  3  0  0  0  0  0  0
  162.1560  205.8280  145.7710 C   0  0  0  0  0  3  0  0  0  0  0  0
  161.9540  204.7000  144.9700 C   0  0  0  0  0  3  0  0  0  0  0  0
  161.4130  205.6350  149.8930 C   0  0  0  0  0  3  0  0  0  0  0  0
  161.6970  210.9360  150.1060 C   0  0  0  0  0  3  0  0  0  0  0  0
  161.2770  212.0550  149.3850 C   0  0  0  0  0  0  0  0  0  0  0  0
  160.0630  212.8270  151.3340 C   0  0  0  0  0  3  0  0  0  0  0  0
  160.4550  213.0020  150.0070 C   0  0  0  0  0  3  0  0  0  0  0  0
  161.3040  210.7400  151.4410 C   0  0  0  0  0  0  0  0  0  0  0  0
  160.4750  211.7060  152.0720 C   0  0  0  0  0  0  0  0  0  0  0  0
  160.0160  211.6000  153.4810 C   0  0  0  0  0  0  0  0  0  0  0  0
  158.6610  211.2280  153.7580 N   0  0  0  0  0  2  0  0  0  0  0  0
  160.8040  211.8280  154.4390 O   0  0  0  0  0  0  0  0  0  0  0  0
  158.7260  212.0040  157.2610 C   0  0  0  0  0  2  0  0  0  0  0  0
  158.9730  210.0500  155.8620 C   0  0  0  0  0  2  0  0  0  0  0  0
  158.2820  212.3860  155.8690 C   0  0  0  0  0  2  0  0  0  0  0  0
  158.1450  211.0780  155.1110 C   0  0  0  0  0  3  0  0  0  0  0  0
  159.5470  210.7490  157.0800 C   0  0  0  0  0  2  0  0  0  0  0  0
  161.6910  212.2000  148.0580 O   0  0  0  0  0  0  0  0  0  0  0  0
  162.9290  212.8000  147.7020 C   0  0  0  0  0  1  0  0  0  0  0  0
  2  6  2  0  0  0  0
  2  3  1  0  0  0  0
  3 22  1  6  0  0  0
  3  1  1  0  0  0  0
  4  2  1  0  0  0  0
  5  1  2  0  0  0  0
  6  5  1  0  0  0  0
  7  8  1  0  0  0  0
  8 17  2  0  0  0  0
  8  4  1  0  0  0  0
  9 11  1  0  0  0  0
  9  7  2  0  0  0  0
 11 12  2  0  0  0  0
 12 10  1  0  0  0  0
 12 17  1  0  0  0  0
 13 11  1  0  0  0  0
 14 13  2  0  0  0  0
 15  9  1  0  0  0  0
 16 14  1  0  0  0  0
 16 15  2  0  0  0  0
 18 22  1  0  0  0  0
 19 21  1  0  0  0  0
 19 18  2  0  0  0  0
 20 23  1  0  0  0  0
 21 20  2  0  0  0  0
 22 23  2  0  0  0  0
 23 24  1  0  0  0  0
 24 25  1  0  0  0  0
 24 26  2  0  0  0  0
 25 30  1  0  0  0  0
 28 31  1  0  0  0  0
 29 27  1  0  0  0  0
 30 28  1  0  0  0  0
 30 29  1  0  0  0  0
 31 27  1  0  0  0  0
 32 19  1  0  0  0  0
 33 32  1  0  0  0  0
M  END
>  <MODEL>
9

>  <REMARK>
 VINA RESULT:      -5.8      2.512      4.284
  Name = 
  5 active torsions:
  status: ('A' for Active; 'I' for Inactive)
    1  A    between atoms: C_1  and  C_23
    2  A    between atoms: N_2  and  C_31
    3  A    between atoms: C_5  and  O_12
    4  A    between atoms: C_8  and  N_20
    5  A    between atoms: C_16  and  C_19
                            x       y       z     vdW  Elec       q    Type
                         _______ _______ _______ _____ _____    ______ ____

>  <TORSDO>
F 5

$$$$
