=
 OpenBabel11072411543D

 32 36  0  0  1  0  0  0  0  0999 V2000
  160.9170  206.3550  151.6500 C   0  0  1  0  0  3  0  0  0  0  0  0
  161.9420  207.0050  149.4040 C   0  0  0  0  0  3  0  0  0  0  0  0
  161.8840  209.4180  149.9160 C   0  0  0  0  0  0  0  0  0  0  0  0
  161.4030  208.6870  150.9380 N   0  0  0  0  0  0  0  0  0  0  0  0
  161.9660  210.8440  149.9570 N   0  0  0  0  0  2  0  0  0  0  0  0
  161.4340  207.3560  150.6600 C   0  0  0  0  0  0  0  0  0  0  0  0
  162.3680  208.4440  148.6370 S   0  0  0  0  0  0  0  0  0  0  0  0
  162.4030  211.6450  148.8220 C   0  0  0  0  0  2  0  0  0  0  0  0
  162.2020  214.2570  147.9830 S   0  0  0  0  0  0  0  0  0  0  0  0
  160.6780  212.4820  147.1650 C   0  0  2  0  0  3  0  0  0  0  0  0
  161.2610  213.7230  146.5200 C   0  0  0  0  0  2  0  0  0  0  0  0
  160.5100  212.9550  149.5480 F   0  0  0  0  0  0  0  0  0  0  0  0
  159.2960  212.6310  147.2920 O   0  0  0  0  0  1  0  0  0  0  0  0
  161.3790  212.7230  148.4940 C   0  0  1  0  0  0  0  0  0  0  0  0
  160.9970  203.4250  149.2390 C   0  0  0  0  0  0  0  0  0  0  0  0
  161.0560  202.3380  150.1220 C   0  0  0  0  0  3  0  0  0  0  0  0
  161.0210  203.8480  152.0120 C   0  0  0  0  0  3  0  0  0  0  0  0
  161.0680  202.5480  151.5040 C   0  0  0  0  0  3  0  0  0  0  0  0
  160.9460  204.7270  149.7580 C   0  0  0  0  0  3  0  0  0  0  0  0
  160.9600  204.9450  151.1390 C   0  0  0  0  0  0  0  0  0  0  0  0
  161.6190  203.2910  145.6170 C   0  0  2  0  0  3  0  0  0  0  0  0
  160.3450  202.1110  147.2470 N   0  0  0  0  0  2  0  0  0  0  0  0
  160.7230  202.1400  145.8960 C   0  0  0  0  0  0  0  0  0  0  0  0
  161.0660  205.2760  146.7450 C   0  0  0  0  0  2  0  0  0  0  0  0
  161.7470  203.9880  146.9170 N   0  0  1  0  0  0  0  0  0  0  0  0
  160.9590  204.2470  144.6890 C   0  0  0  0  0  3  0  0  0  0  0  0
  160.9800  203.2130  147.8190 N   0  0  0  0  0  0  0  0  0  0  0  0
  160.6510  205.3600  145.3220 C   0  0  0  0  0  3  0  0  0  0  0  0
  160.3550  201.2790  145.0530 O   0  0  0  0  0  0  0  0  0  0  0  0
  161.5140  206.5100  153.0160 C   0  0  0  0  0  0  0  0  0  0  0  0
  162.7300  206.2450  153.1930 O   0  0  0  0  0  0  0  0  0  0  0  0
  160.7150  206.9250  154.1210 N   0  0  0  0  0  1  0  0  0  0  0  0
  1 30  1  1  0  0  0
  2  6  2  0  0  0  0
  3  5  1  0  0  0  0
  3  4  2  0  0  0  0
  6  4  1  0  0  0  0
  6  1  1  0  0  0  0
  7  2  1  0  0  0  0
  7  3  1  0  0  0  0
  8  5  1  0  0  0  0
  9 14  1  0  0  0  0
 10 13  1  1  0  0  0
 10 14  1  0  0  0  0
 11 10  1  0  0  0  0
 11  9  1  0  0  0  0
 14  8  1  0  0  0  0
 14 12  1  1  0  0  0
 15 19  2  0  0  0  0
 15 16  1  0  0  0  0
 16 18  2  0  0  0  0
 18 17  1  0  0  0  0
 19 20  1  0  0  0  0
 20  1  1  0  0  0  0
 20 17  2  0  0  0  0
 21 26  1  6  0  0  0
 21 23  1  0  0  0  0
 21 25  1  0  0  0  0
 22 27  1  0  0  0  0
 23 22  1  0  0  0  0
 25 24  1  6  0  0  0
 25 27  1  0  0  0  0
 26 28  2  0  0  0  0
 27 15  1  0  0  0  0
 28 24  1  0  0  0  0
 29 23  2  0  0  0  0
 30 31  2  0  0  0  0
 30 32  1  0  0  0  0
M  END
>  <MODEL>
1

>  <REMARK>
 VINA RESULT:      -9.5      0.000      0.000
  Name = 
  6 active torsions:
  status: ('A' for Active; 'I' for Inactive)
    1  A    between atoms: C_3  and  N_24
    2  A    between atoms: N_11  and  C_16
    3  A    between atoms: C_12  and  C_28
    4  A    between atoms: C_16  and  C_29
    5  A    between atoms: C_19  and  C_28
    6  A    between atoms: C_28  and  C_32
                            x       y       z     vdW  Elec       q    Type
                         _______ _______ _______ _____ _____    ______ ____

>  <TORSDO>
F 6

$$$$
=
 OpenBabel11072411543D

 32 36  0  0  1  0  0  0  0  0999 V2000
  162.1830  208.9210  150.9920 C   0  0  1  0  0  3  0  0  0  0  0  0
  162.2400  210.0660  153.2740 C   0  0  0  0  0  3  0  0  0  0  0  0
  159.8830  210.7800  153.1330 C   0  0  0  0  0  0  0  0  0  0  0  0
  160.2510  210.0840  152.0420 N   0  0  0  0  0  0  0  0  0  0  0  0
  158.5660  211.3060  153.3050 N   0  0  0  0  0  2  0  0  0  0  0  0
  161.5500  209.6880  152.1160 C   0  0  0  0  0  0  0  0  0  0  0  0
  161.1480  210.9240  154.2270 S   0  0  0  0  0  0  0  0  0  0  0  0
  158.1860  212.1340  154.4420 C   0  0  0  0  0  2  0  0  0  0  0  0
  157.3350  212.1890  157.0580 S   0  0  0  0  0  0  0  0  0  0  0  0
  155.9040  211.3470  155.2180 C   0  0  2  0  0  3  0  0  0  0  0  0
  155.6040  212.0860  156.5050 C   0  0  0  0  0  2  0  0  0  0  0  0
  157.9210  210.0440  155.6220 F   0  0  0  0  0  0  0  0  0  0  0  0
  155.3610  210.0630  155.2820 O   0  0  0  0  0  1  0  0  0  0  0  0
  157.4050  211.3200  155.4660 C   0  0  1  0  0  0  0  0  0  0  0  0
  161.3330  205.4990  149.5900 C   0  0  0  0  0  0  0  0  0  0  0  0
  160.9230  204.8170  150.7450 C   0  0  0  0  0  3  0  0  0  0  0  0
  161.3240  206.7970  152.0760 C   0  0  0  0  0  3  0  0  0  0  0  0
  160.9180  205.4640  151.9840 C   0  0  0  0  0  3  0  0  0  0  0  0
  161.7340  206.8390  149.6920 C   0  0  0  0  0  3  0  0  0  0  0  0
  161.7340  207.4910  150.9290 C   0  0  0  0  0  0  0  0  0  0  0  0
  161.8750  204.3480  146.1400 C   0  0  2  0  0  3  0  0  0  0  0  0
  160.9950  203.4940  148.1810 N   0  0  0  0  0  2  0  0  0  0  0  0
  161.3170  203.1710  146.8550 C   0  0  0  0  0  0  0  0  0  0  0  0
  160.8530  206.3990  146.6550 C   0  0  0  0  0  2  0  0  0  0  0  0
  161.8510  205.4390  147.1410 N   0  0  1  0  0  0  0  0  0  0  0  0
  160.9650  204.7630  145.0400 C   0  0  0  0  0  3  0  0  0  0  0  0
  161.3350  204.8390  148.3140 N   0  0  0  0  0  0  0  0  0  0  0  0
  160.3950  205.9150  145.3290 C   0  0  0  0  0  3  0  0  0  0  0  0
  161.1650  202.0210  146.3620 O   0  0  0  0  0  0  0  0  0  0  0  0
  162.1000  209.6280  149.6730 C   0  0  0  0  0  0  0  0  0  0  0  0
  162.0960  208.9550  148.6100 O   0  0  0  0  0  0  0  0  0  0  0  0
  162.0530  211.0510  149.6060 N   0  0  0  0  0  1  0  0  0  0  0  0
  1 30  1  6  0  0  0
  1  6  1  0  0  0  0
  2  7  1  0  0  0  0
  3  5  1  0  0  0  0
  3  7  1  0  0  0  0
  4  6  1  0  0  0  0
  4  3  2  0  0  0  0
  5  8  1  0  0  0  0
  6  2  2  0  0  0  0
  8 14  1  0  0  0  0
 10 13  1  1  0  0  0
 10 14  1  0  0  0  0
 10 11  1  0  0  0  0
 11  9  1  0  0  0  0
 14 12  1  1  0  0  0
 14  9  1  0  0  0  0
 15 19  2  0  0  0  0
 15 16  1  0  0  0  0
 16 18  2  0  0  0  0
 18 17  1  0  0  0  0
 19 20  1  0  0  0  0
 20  1  1  0  0  0  0
 20 17  2  0  0  0  0
 21 26  1  6  0  0  0
 21 23  1  0  0  0  0
 21 25  1  0  0  0  0
 22 27  1  0  0  0  0
 23 22  1  0  0  0  0
 25 24  1  6  0  0  0
 25 27  1  0  0  0  0
 26 28  2  0  0  0  0
 27 15  1  0  0  0  0
 28 24  1  0  0  0  0
 29 23  2  0  0  0  0
 31 30  2  0  0  0  0
 32 30  1  0  0  0  0
M  END
>  <MODEL>
2

>  <REMARK>
 VINA RESULT:      -9.0      4.326      5.178
  Name = 
  6 active torsions:
  status: ('A' for Active; 'I' for Inactive)
    1  A    between atoms: C_3  and  N_24
    2  A    between atoms: N_11  and  C_16
    3  A    between atoms: C_12  and  C_28
    4  A    between atoms: C_16  and  C_29
    5  A    between atoms: C_19  and  C_28
    6  A    between atoms: C_28  and  C_32
                            x       y       z     vdW  Elec       q    Type
                         _______ _______ _______ _____ _____    ______ ____

>  <TORSDO>
F 6

$$$$
=
 OpenBabel11072411543D

 32 36  0  0  1  0  0  0  0  0999 V2000
  162.1580  208.3590  151.0680 C   0  0  1  0  0  3  0  0  0  0  0  0
  162.3100  209.8520  153.1330 C   0  0  0  0  0  3  0  0  0  0  0  0
  159.9460  210.5420  152.9840 C   0  0  0  0  0  0  0  0  0  0  0  0
  160.2690  209.6790  152.0020 N   0  0  0  0  0  0  0  0  0  0  0  0
  158.6350  211.0920  153.1280 N   0  0  0  0  0  2  0  0  0  0  0  0
  161.5720  209.2970  152.0820 C   0  0  0  0  0  0  0  0  0  0  0  0
  161.2570  210.8550  153.9840 S   0  0  0  0  0  0  0  0  0  0  0  0
  158.3020  212.0910  154.1340 C   0  0  0  0  0  2  0  0  0  0  0  0
  157.3220  212.6210  156.6500 S   0  0  0  0  0  0  0  0  0  0  0  0
  155.9760  211.4610  154.9220 C   0  0  2  0  0  3  0  0  0  0  0  0
  155.6200  212.4220  156.0370 C   0  0  0  0  0  2  0  0  0  0  0  0
  157.9560  210.2500  155.6580 F   0  0  0  0  0  0  0  0  0  0  0  0
  155.4170  210.2110  155.1900 O   0  0  0  0  0  1  0  0  0  0  0  0
  157.4620  211.4780  155.2470 C   0  0  1  0  0  0  0  0  0  0  0  0
  161.3120  204.7300  150.3530 C   0  0  0  0  0  0  0  0  0  0  0  0
  161.0520  204.2440  151.6430 C   0  0  0  0  0  3  0  0  0  0  0  0
  161.5040  206.4300  152.5760 C   0  0  0  0  0  3  0  0  0  0  0  0
  161.1480  205.0910  152.7510 C   0  0  0  0  0  3  0  0  0  0  0  0
  161.6650  206.0770  150.1870 C   0  0  0  0  0  3  0  0  0  0  0  0
  161.7650  206.9290  151.2920 C   0  0  0  0  0  0  0  0  0  0  0  0
  160.4260  202.2320  147.8040 C   0  0  2  0  0  3  0  0  0  0  0  0
  161.7120  204.2300  147.9640 N   0  0  0  0  0  2  0  0  0  0  0  0
  161.2430  203.2420  147.0840 C   0  0  0  0  0  0  0  0  0  0  0  0
  161.2160  201.6520  149.9390 C   0  0  0  0  0  2  0  0  0  0  0  0
  160.4470  202.6720  149.2180 N   0  0  1  0  0  0  0  0  0  0  0  0
  161.0940  200.9040  147.7660 C   0  0  0  0  0  3  0  0  0  0  0  0
  161.2100  203.8630  149.2120 N   0  0  0  0  0  0  0  0  0  0  0  0
  161.5350  200.5800  148.9640 C   0  0  0  0  0  3  0  0  0  0  0  0
  161.4800  203.2440  145.8470 O   0  0  0  0  0  0  0  0  0  0  0  0
  161.9570  208.8150  149.6540 C   0  0  0  0  0  0  0  0  0  0  0  0
  162.3220  209.9710  149.3190 O   0  0  0  0  0  0  0  0  0  0  0  0
  161.3330  207.9670  148.6930 N   0  0  0  0  0  1  0  0  0  0  0  0
  1 30  1  6  0  0  0
  1 20  1  0  0  0  0
  1  6  1  0  0  0  0
  2  7  1  0  0  0  0
  3  5  1  0  0  0  0
  3  7  1  0  0  0  0
  4  6  1  0  0  0  0
  4  3  2  0  0  0  0
  5  8  1  0  0  0  0
  6  2  2  0  0  0  0
  8 14  1  0  0  0  0
 10 13  1  1  0  0  0
 10 14  1  0  0  0  0
 10 11  1  0  0  0  0
 11  9  1  0  0  0  0
 14 12  1  1  0  0  0
 14  9  1  0  0  0  0
 15 16  1  0  0  0  0
 16 18  2  0  0  0  0
 17 18  1  0  0  0  0
 19 15  2  0  0  0  0
 19 20  1  0  0  0  0
 20 17  2  0  0  0  0
 21 26  1  1  0  0  0
 21 25  1  0  0  0  0
 22 27  1  0  0  0  0
 23 21  1  0  0  0  0
 23 22  1  0  0  0  0
 25 24  1  1  0  0  0
 26 28  2  0  0  0  0
 27 25  1  0  0  0  0
 27 15  1  0  0  0  0
 28 24  1  0  0  0  0
 29 23  2  0  0  0  0
 31 30  2  0  0  0  0
 32 30  1  0  0  0  0
M  END
>  <MODEL>
3

>  <REMARK>
 VINA RESULT:      -8.9      4.317      5.252
  Name = 
  6 active torsions:
  status: ('A' for Active; 'I' for Inactive)
    1  A    between atoms: C_3  and  N_24
    2  A    between atoms: N_11  and  C_16
    3  A    between atoms: C_12  and  C_28
    4  A    between atoms: C_16  and  C_29
    5  A    between atoms: C_19  and  C_28
    6  A    between atoms: C_28  and  C_32
                            x       y       z     vdW  Elec       q    Type
                         _______ _______ _______ _____ _____    ______ ____

>  <TORSDO>
F 6

$$$$
=
 OpenBabel11072411543D

 32 36  0  0  1  0  0  0  0  0999 V2000
  161.9230  206.9800  151.4330 C   0  0  1  0  0  3  0  0  0  0  0  0
  161.3940  206.5550  153.8940 C   0  0  0  0  0  3  0  0  0  0  0  0
  160.4800  208.8200  154.2370 C   0  0  0  0  0  0  0  0  0  0  0  0
  160.8820  208.6390  152.9650 N   0  0  0  0  0  0  0  0  0  0  0  0
  159.9060  210.0440  154.6990 N   0  0  0  0  0  2  0  0  0  0  0  0
  161.3860  207.3910  152.7720 C   0  0  0  0  0  0  0  0  0  0  0  0
  160.7280  207.4420  155.1630 S   0  0  0  0  0  0  0  0  0  0  0  0
  159.5500  210.2750  156.0920 C   0  0  0  0  0  2  0  0  0  0  0  0
  159.8580  212.9650  156.5840 S   0  0  0  0  0  0  0  0  0  0  0  0
  158.2490  212.1000  154.9080 C   0  0  2  0  0  3  0  0  0  0  0  0
  159.0970  213.3530  154.9760 C   0  0  0  0  0  2  0  0  0  0  0  0
  157.7690  211.4640  157.2090 F   0  0  0  0  0  0  0  0  0  0  0  0
  156.8990  212.4490  154.9860 O   0  0  0  0  0  1  0  0  0  0  0  0
  158.7540  211.5660  156.2400 C   0  0  1  0  0  0  0  0  0  0  0  0
  161.1750  203.9330  149.3000 C   0  0  0  0  0  0  0  0  0  0  0  0
  160.8720  202.9740  150.2780 C   0  0  0  0  0  3  0  0  0  0  0  0
  161.2440  204.6100  152.0210 C   0  0  0  0  0  3  0  0  0  0  0  0
  160.9060  203.3120  151.6340 C   0  0  0  0  0  3  0  0  0  0  0  0
  161.5100  205.2350  149.6980 C   0  0  0  0  0  3  0  0  0  0  0  0
  161.5480  205.5780  151.0530 C   0  0  0  0  0  0  0  0  0  0  0  0
  161.7160  203.5050  145.6880 C   0  0  2  0  0  3  0  0  0  0  0  0
  160.5580  202.4050  147.4540 N   0  0  0  0  0  2  0  0  0  0  0  0
  160.9010  202.3330  146.0960 C   0  0  0  0  0  0  0  0  0  0  0  0
  161.0690  205.5490  146.6490 C   0  0  0  0  0  2  0  0  0  0  0  0
  161.8330  204.3250  146.9160 N   0  0  1  0  0  0  0  0  0  0  0  0
  160.9770  204.3310  144.6980 C   0  0  0  0  0  3  0  0  0  0  0  0
  161.1370  203.5910  147.9060 N   0  0  0  0  0  0  0  0  0  0  0  0
  160.6160  205.4780  145.2370 C   0  0  0  0  0  3  0  0  0  0  0  0
  160.5670  201.3780  145.3440 O   0  0  0  0  0  0  0  0  0  0  0  0
  161.6470  207.9820  150.3520 C   0  0  0  0  0  0  0  0  0  0  0  0
  160.8260  207.6990  149.4430 O   0  0  0  0  0  0  0  0  0  0  0  0
  162.3240  209.2360  150.3270 N   0  0  0  0  0  1  0  0  0  0  0  0
  1 30  1  6  0  0  0
  1  6  1  0  0  0  0
  2  7  1  0  0  0  0
  3  5  1  0  0  0  0
  3  7  1  0  0  0  0
  4  3  2  0  0  0  0
  5  8  1  0  0  0  0
  6  4  1  0  0  0  0
  6  2  2  0  0  0  0
  8 14  1  0  0  0  0
 10 11  1  0  0  0  0
 10 13  1  1  0  0  0
 10 14  1  0  0  0  0
 11  9  1  0  0  0  0
 14  9  1  0  0  0  0
 14 12  1  1  0  0  0
 15 19  2  0  0  0  0
 15 16  1  0  0  0  0
 16 18  2  0  0  0  0
 18 17  1  0  0  0  0
 19 20  1  0  0  0  0
 20  1  1  0  0  0  0
 20 17  2  0  0  0  0
 21 26  1  6  0  0  0
 21 23  1  0  0  0  0
 21 25  1  0  0  0  0
 22 27  1  0  0  0  0
 23 22  1  0  0  0  0
 25 24  1  6  0  0  0
 25 27  1  0  0  0  0
 26 28  2  0  0  0  0
 27 15  1  0  0  0  0
 28 24  1  0  0  0  0
 29 23  2  0  0  0  0
 31 30  2  0  0  0  0
 32 30  1  0  0  0  0
M  END
>  <MODEL>
4

>  <REMARK>
 VINA RESULT:      -8.8      3.858      4.573
  Name = 
  6 active torsions:
  status: ('A' for Active; 'I' for Inactive)
    1  A    between atoms: C_3  and  N_24
    2  A    between atoms: N_11  and  C_16
    3  A    between atoms: C_12  and  C_28
    4  A    between atoms: C_16  and  C_29
    5  A    between atoms: C_19  and  C_28
    6  A    between atoms: C_28  and  C_32
                            x       y       z     vdW  Elec       q    Type
                         _______ _______ _______ _____ _____    ______ ____

>  <TORSDO>
F 6

$$$$
=
 OpenBabel11072411543D

 32 36  0  0  1  0  0  0  0  0999 V2000
  160.8300  206.4510  151.8150 C   0  0  1  0  0  3  0  0  0  0  0  0
  161.7290  206.9100  149.4710 C   0  0  0  0  0  3  0  0  0  0  0  0
  161.9380  209.3350  149.8710 C   0  0  0  0  0  0  0  0  0  0  0  0
  161.4740  208.6950  150.9610 N   0  0  0  0  0  0  0  0  0  0  0  0
  162.1560  210.7470  149.8390 N   0  0  0  0  0  2  0  0  0  0  0  0
  161.3580  207.3580  150.7430 C   0  0  0  0  0  0  0  0  0  0  0  0
  162.2260  208.2690  148.6070 S   0  0  0  0  0  0  0  0  0  0  0  0
  162.5740  211.4570  148.6380 C   0  0  0  0  0  2  0  0  0  0  0  0
  162.4900  213.9920  147.5730 S   0  0  0  0  0  0  0  0  0  0  0  0
  160.7460  212.2970  147.0970 C   0  0  2  0  0  3  0  0  0  0  0  0
  161.3500  213.4180  146.2760 C   0  0  0  0  0  2  0  0  0  0  0  0
  160.8860  212.9920  149.4260 F   0  0  0  0  0  0  0  0  0  0  0  0
  159.4030  212.5800  147.3520 O   0  0  0  0  0  1  0  0  0  0  0  0
  161.6090  212.5890  148.3150 C   0  0  1  0  0  0  0  0  0  0  0  0
  161.0700  203.2720  149.7570 C   0  0  0  0  0  0  0  0  0  0  0  0
  161.1950  202.2990  150.7580 C   0  0  0  0  0  3  0  0  0  0  0  0
  161.0810  204.0130  152.4620 C   0  0  0  0  0  3  0  0  0  0  0  0
  161.2010  202.6680  152.1070 C   0  0  0  0  0  3  0  0  0  0  0  0
  160.9460  204.6200  150.1230 C   0  0  0  0  0  3  0  0  0  0  0  0
  160.9530  204.9960  151.4700 C   0  0  0  0  0  0  0  0  0  0  0  0
  160.4220  201.8870  146.4130 C   0  0  2  0  0  3  0  0  0  0  0  0
  161.5850  203.7260  147.3800 N   0  0  0  0  0  2  0  0  0  0  0  0
  161.2050  203.1250  146.1700 C   0  0  0  0  0  0  0  0  0  0  0  0
  161.1660  200.5770  148.2150 C   0  0  0  0  0  2  0  0  0  0  0  0
  160.3660  201.7620  147.8870 N   0  0  1  0  0  0  0  0  0  0  0  0
  161.1660  200.6990  145.9170 C   0  0  0  0  0  3  0  0  0  0  0  0
  161.0600  202.8970  148.3700 N   0  0  0  0  0  0  0  0  0  0  0  0
  161.5810  199.9640  146.9280 C   0  0  0  0  0  3  0  0  0  0  0  0
  161.4860  203.6030  145.0390 O   0  0  0  0  0  0  0  0  0  0  0  0
  161.3510  206.7830  153.1810 C   0  0  0  0  0  0  0  0  0  0  0  0
  162.5630  206.5770  153.4470 O   0  0  0  0  0  0  0  0  0  0  0  0
  160.4870  207.3000  154.1890 N   0  0  0  0  0  1  0  0  0  0  0  0
  1 30  1  1  0  0  0
  2  6  2  0  0  0  0
  3  4  2  0  0  0  0
  5  3  1  0  0  0  0
  6  4  1  0  0  0  0
  6  1  1  0  0  0  0
  7  2  1  0  0  0  0
  7  3  1  0  0  0  0
  8  5  1  0  0  0  0
  9 14  1  0  0  0  0
 10 13  1  1  0  0  0
 10 14  1  0  0  0  0
 11 10  1  0  0  0  0
 11  9  1  0  0  0  0
 14  8  1  0  0  0  0
 14 12  1  1  0  0  0
 15 19  2  0  0  0  0
 15 16  1  0  0  0  0
 16 18  2  0  0  0  0
 18 17  1  0  0  0  0
 19 20  1  0  0  0  0
 20  1  1  0  0  0  0
 20 17  2  0  0  0  0
 21 26  1  6  0  0  0
 21 25  1  0  0  0  0
 22 27  1  0  0  0  0
 23 21  1  0  0  0  0
 23 22  1  0  0  0  0
 25 24  1  6  0  0  0
 25 27  1  0  0  0  0
 26 28  2  0  0  0  0
 27 15  1  0  0  0  0
 28 24  1  0  0  0  0
 29 23  2  0  0  0  0
 30 31  2  0  0  0  0
 30 32  1  0  0  0  0
M  END
>  <MODEL>
5

>  <REMARK>
 VINA RESULT:      -8.8      0.930      1.755
  Name = 
  6 active torsions:
  status: ('A' for Active; 'I' for Inactive)
    1  A    between atoms: C_3  and  N_24
    2  A    between atoms: N_11  and  C_16
    3  A    between atoms: C_12  and  C_28
    4  A    between atoms: C_16  and  C_29
    5  A    between atoms: C_19  and  C_28
    6  A    between atoms: C_28  and  C_32
                            x       y       z     vdW  Elec       q    Type
                         _______ _______ _______ _____ _____    ______ ____

>  <TORSDO>
F 6

$$$$
=
 OpenBabel11072411543D

 32 36  0  0  1  0  0  0  0  0999 V2000
  161.8390  207.1240  151.6900 C   0  0  1  0  0  3  0  0  0  0  0  0
  161.3730  207.0990  154.2000 C   0  0  0  0  0  3  0  0  0  0  0  0
  160.3100  209.3250  154.1690 C   0  0  0  0  0  0  0  0  0  0  0  0
  160.7070  208.9520  152.9380 N   0  0  0  0  0  0  0  0  0  0  0  0
  159.6610  210.5710  154.4280 N   0  0  0  0  0  2  0  0  0  0  0  0
  161.2930  207.7250  152.9510 C   0  0  0  0  0  0  0  0  0  0  0  0
  160.6650  208.1480  155.3120 S   0  0  0  0  0  0  0  0  0  0  0  0
  159.3080  211.0170  155.7690 C   0  0  0  0  0  2  0  0  0  0  0  0
  158.1780  213.5200  155.6040 S   0  0  0  0  0  0  0  0  0  0  0  0
  157.2060  211.5500  154.4550 C   0  0  2  0  0  3  0  0  0  0  0  0
  157.2750  213.0220  154.1040 C   0  0  0  0  0  2  0  0  0  0  0  0
  157.2050  211.4180  156.8870 F   0  0  0  0  0  0  0  0  0  0  0  0
  155.8770  211.1890  154.6840 O   0  0  0  0  0  1  0  0  0  0  0  0
  157.9600  211.7250  155.7650 C   0  0  1  0  0  0  0  0  0  0  0  0
  161.1330  203.7870  150.0270 C   0  0  0  0  0  0  0  0  0  0  0  0
  160.8070  202.9870  151.1310 C   0  0  0  0  0  3  0  0  0  0  0  0
  161.1430  204.8690  152.6150 C   0  0  0  0  0  3  0  0  0  0  0  0
  160.8110  203.5260  152.4210 C   0  0  0  0  0  3  0  0  0  0  0  0
  161.4620  205.1350  150.2300 C   0  0  0  0  0  3  0  0  0  0  0  0
  161.4700  205.6800  151.5180 C   0  0  0  0  0  0  0  0  0  0  0  0
  160.4790  202.0030  146.8780 C   0  0  2  0  0  3  0  0  0  0  0  0
  161.6830  203.9200  147.6180 N   0  0  0  0  0  2  0  0  0  0  0  0
  161.2990  203.1800  146.4900 C   0  0  0  0  0  0  0  0  0  0  0  0
  161.1690  200.9150  148.8420 C   0  0  0  0  0  2  0  0  0  0  0  0
  160.4060  202.0700  148.3560 N   0  0  1  0  0  0  0  0  0  0  0  0
  161.1940  200.7430  146.5470 C   0  0  0  0  0  3  0  0  0  0  0  0
  161.1260  203.2380  148.7000 N   0  0  0  0  0  0  0  0  0  0  0  0
  161.5780  200.1330  147.6490 C   0  0  0  0  0  3  0  0  0  0  0  0
  161.6030  203.5010  145.3110 O   0  0  0  0  0  0  0  0  0  0  0  0
  161.5670  207.9540  150.4720 C   0  0  0  0  0  0  0  0  0  0  0  0
  160.7370  207.5470  149.6190 O   0  0  0  0  0  0  0  0  0  0  0  0
  162.2560  209.1830  150.2550 N   0  0  0  0  0  1  0  0  0  0  0  0
  1 30  1  6  0  0  0
  1  6  1  0  0  0  0
  2  7  1  0  0  0  0
  3  5  1  0  0  0  0
  3  7  1  0  0  0  0
  4  6  1  0  0  0  0
  4  3  2  0  0  0  0
  5  8  1  0  0  0  0
  6  2  2  0  0  0  0
  9 14  1  0  0  0  0
 10 13  1  1  0  0  0
 10 14  1  0  0  0  0
 11 10  1  0  0  0  0
 11  9  1  0  0  0  0
 14  8  1  0  0  0  0
 14 12  1  1  0  0  0
 15 19  2  0  0  0  0
 15 16  1  0  0  0  0
 16 18  2  0  0  0  0
 18 17  1  0  0  0  0
 19 20  1  0  0  0  0
 20  1  1  0  0  0  0
 20 17  2  0  0  0  0
 21 26  1  1  0  0  0
 21 25  1  0  0  0  0
 22 27  1  0  0  0  0
 23 21  1  0  0  0  0
 23 22  1  0  0  0  0
 25 27  1  0  0  0  0
 25 24  1  1  0  0  0
 26 28  2  0  0  0  0
 27 15  1  0  0  0  0
 28 24  1  0  0  0  0
 29 23  2  0  0  0  0
 31 30  2  0  0  0  0
 32 30  1  0  0  0  0
M  END
>  <MODEL>
6

>  <REMARK>
 VINA RESULT:      -8.6      4.018      4.868
  Name = 
  6 active torsions:
  status: ('A' for Active; 'I' for Inactive)
    1  A    between atoms: C_3  and  N_24
    2  A    between atoms: N_11  and  C_16
    3  A    between atoms: C_12  and  C_28
    4  A    between atoms: C_16  and  C_29
    5  A    between atoms: C_19  and  C_28
    6  A    between atoms: C_28  and  C_32
                            x       y       z     vdW  Elec       q    Type
                         _______ _______ _______ _____ _____    ______ ____

>  <TORSDO>
F 6

$$$$
=
 OpenBabel11072411543D

 32 36  0  0  1  0  0  0  0  0999 V2000
  160.7490  206.9150  152.3830 C   0  0  1  0  0  3  0  0  0  0  0  0
  161.9560  209.1600  152.5210 C   0  0  0  0  0  3  0  0  0  0  0  0
  161.8720  209.5170  150.0820 C   0  0  0  0  0  0  0  0  0  0  0  0
  161.2800  208.3600  150.4300 N   0  0  0  0  0  0  0  0  0  0  0  0
  161.9560  209.9650  148.7280 N   0  0  0  0  0  2  0  0  0  0  0  0
  161.3240  208.1600  151.7740 C   0  0  0  0  0  0  0  0  0  0  0  0
  162.4630  210.3340  151.4240 S   0  0  0  0  0  0  0  0  0  0  0  0
  162.6710  211.1730  148.3360 C   0  0  0  0  0  2  0  0  0  0  0  0
  162.6230  213.8810  147.8550 S   0  0  0  0  0  0  0  0  0  0  0  0
  160.9220  212.3390  146.9200 C   0  0  2  0  0  3  0  0  0  0  0  0
  161.5600  213.6120  146.4020 C   0  0  0  0  0  2  0  0  0  0  0  0
  160.9280  212.5020  149.3490 F   0  0  0  0  0  0  0  0  0  0  0  0
  159.5650  212.5650  147.1570 O   0  0  0  0  0  1  0  0  0  0  0  0
  161.7150  212.3520  148.2180 C   0  0  1  0  0  0  0  0  0  0  0  0
  161.0650  204.7880  149.2560 C   0  0  0  0  0  0  0  0  0  0  0  0
  161.1640  203.5010  149.8030 C   0  0  0  0  0  3  0  0  0  0  0  0
  160.9910  204.4160  152.0350 C   0  0  0  0  0  3  0  0  0  0  0  0
  161.1270  203.3150  151.1870 C   0  0  0  0  0  3  0  0  0  0  0  0
  160.9240  205.8880  150.1150 C   0  0  0  0  0  3  0  0  0  0  0  0
  160.8890  205.7090  151.5020 C   0  0  0  0  0  0  0  0  0  0  0  0
  161.2180  204.5090  145.5930 C   0  0  2  0  0  3  0  0  0  0  0  0
  160.4910  206.0810  147.2260 N   0  0  0  0  0  2  0  0  0  0  0  0
  160.5520  205.8120  145.8510 C   0  0  0  0  0  0  0  0  0  0  0  0
  163.0470  204.0330  146.9870 C   0  0  0  0  0  2  0  0  0  0  0  0
  161.5810  204.0020  146.9350 N   0  0  1  0  0  0  0  0  0  0  0  0
  162.4940  204.7160  144.8600 C   0  0  0  0  0  3  0  0  0  0  0  0
  161.0980  204.9830  147.8330 N   0  0  0  0  0  0  0  0  0  0  0  0
  163.5190  204.4470  145.6420 C   0  0  0  0  0  3  0  0  0  0  0  0
  160.0810  206.5790  144.9700 O   0  0  0  0  0  0  0  0  0  0  0  0
  161.2070  206.6780  153.7900 C   0  0  0  0  0  0  0  0  0  0  0  0
  162.3540  206.2040  153.9960 O   0  0  0  0  0  0  0  0  0  0  0  0
  160.3510  206.9550  154.8950 N   0  0  0  0  0  1  0  0  0  0  0  0
  1 30  1  1  0  0  0
  3  4  2  0  0  0  0
  3  7  1  0  0  0  0
  4  6  1  0  0  0  0
  5  3  1  0  0  0  0
  6  1  1  0  0  0  0
  6  2  2  0  0  0  0
  7  2  1  0  0  0  0
  8  5  1  0  0  0  0
  9 14  1  0  0  0  0
 10 13  1  1  0  0  0
 10 14  1  0  0  0  0
 11 10  1  0  0  0  0
 11  9  1  0  0  0  0
 14  8  1  0  0  0  0
 14 12  1  1  0  0  0
 15 16  2  0  0  0  0
 15 19  1  0  0  0  0
 16 18  1  0  0  0  0
 18 17  2  0  0  0  0
 19 20  2  0  0  0  0
 20 17  1  0  0  0  0
 20  1  1  0  0  0  0
 21 26  1  6  0  0  0
 21 23  1  0  0  0  0
 21 25  1  0  0  0  0
 22 27  1  0  0  0  0
 23 22  1  0  0  0  0
 25 24  1  6  0  0  0
 25 27  1  0  0  0  0
 26 28  2  0  0  0  0
 27 15  1  0  0  0  0
 28 24  1  0  0  0  0
 29 23  2  0  0  0  0
 30 31  2  0  0  0  0
 30 32  1  0  0  0  0
M  END
>  <MODEL>
7

>  <REMARK>
 VINA RESULT:      -8.3      1.595      1.949
  Name = 
  6 active torsions:
  status: ('A' for Active; 'I' for Inactive)
    1  A    between atoms: C_3  and  N_24
    2  A    between atoms: N_11  and  C_16
    3  A    between atoms: C_12  and  C_28
    4  A    between atoms: C_16  and  C_29
    5  A    between atoms: C_19  and  C_28
    6  A    between atoms: C_28  and  C_32
                            x       y       z     vdW  Elec       q    Type
                         _______ _______ _______ _____ _____    ______ ____

>  <TORSDO>
F 6

$$$$
=
 OpenBabel11072411543D

 32 36  0  0  1  0  0  0  0  0999 V2000
  161.6010  208.0660  153.5320 C   0  0  1  0  0  3  0  0  0  0  0  0
  162.2060  209.0540  151.2570 C   0  0  0  0  0  3  0  0  0  0  0  0
  161.0210  207.2830  150.0150 C   0  0  0  0  0  0  0  0  0  0  0  0
  160.9130  207.1060  151.3440 N   0  0  0  0  0  0  0  0  0  0  0  0
  160.4200  206.3990  149.0660 N   0  0  0  0  0  2  0  0  0  0  0  0
  161.5650  208.0810  152.0330 C   0  0  0  0  0  0  0  0  0  0  0  0
  161.9200  208.6520  149.6460 S   0  0  0  0  0  0  0  0  0  0  0  0
  160.6060  206.5350  147.6280 C   0  0  0  0  0  2  0  0  0  0  0  0
  161.5910  203.9720  147.8010 S   0  0  0  0  0  0  0  0  0  0  0  0
  161.6130  205.2600  145.6830 C   0  0  2  0  0  3  0  0  0  0  0  0
  161.4470  203.7870  145.9960 C   0  0  0  0  0  2  0  0  0  0  0  0
  162.9900  206.1940  147.4610 F   0  0  0  0  0  0  0  0  0  0  0  0
  162.8110  205.4550  144.9930 O   0  0  0  0  0  1  0  0  0  0  0  0
  161.7520  205.6570  147.1450 C   0  0  1  0  0  0  0  0  0  0  0  0
  159.9070  211.4220  154.0460 C   0  0  0  0  0  0  0  0  0  0  0  0
  160.4960  211.8530  155.2430 C   0  0  0  0  0  3  0  0  0  0  0  0
  161.8160  209.8270  155.3420 C   0  0  0  0  0  3  0  0  0  0  0  0
  161.4470  211.0580  155.8890 C   0  0  0  0  0  3  0  0  0  0  0  0
  160.2860  210.1860  153.5020 C   0  0  0  0  0  3  0  0  0  0  0  0
  161.2350  209.3860  154.1450 C   0  0  0  0  0  0  0  0  0  0  0  0
  157.4970  213.9750  152.9530 C   0  0  2  0  0  3  0  0  0  0  0  0
  158.7820  212.2170  151.9910 N   0  0  0  0  0  2  0  0  0  0  0  0
  157.9060  213.2760  151.7080 C   0  0  0  0  0  0  0  0  0  0  0  0
  157.1240  212.5770  154.8030 C   0  0  0  0  0  2  0  0  0  0  0  0
  158.1860  213.2410  154.0390 N   0  0  1  0  0  0  0  0  0  0  0  0
  156.0390  213.8050  153.1870 C   0  0  0  0  0  3  0  0  0  0  0  0
  158.9320  212.2370  153.3770 N   0  0  0  0  0  0  0  0  0  0  0  0
  155.8310  213.0220  154.2260 C   0  0  0  0  0  3  0  0  0  0  0  0
  157.5430  213.5860  150.5420 O   0  0  0  0  0  0  0  0  0  0  0  0
  160.8600  206.9080  154.1310 C   0  0  0  0  0  0  0  0  0  0  0  0
  159.9500  207.1250  154.9710 O   0  0  0  0  0  0  0  0  0  0  0  0
  161.1930  205.5670  153.7820 N   0  0  0  0  0  1  0  0  0  0  0  0
  1 30  1  1  0  0  0
  1 20  1  0  0  0  0
  2  6  2  0  0  0  0
  3  4  2  0  0  0  0
  4  6  1  0  0  0  0
  5  3  1  0  0  0  0
  6  1  1  0  0  0  0
  7  3  1  0  0  0  0
  7  2  1  0  0  0  0
  8  5  1  0  0  0  0
 10 13  1  6  0  0  0
 10 11  1  0  0  0  0
 10 14  1  0  0  0  0
 11  9  1  0  0  0  0
 14 12  1  1  0  0  0
 14  8  1  0  0  0  0
 14  9  1  0  0  0  0
 15 16  1  0  0  0  0
 16 18  2  0  0  0  0
 17 18  1  0  0  0  0
 19 15  2  0  0  0  0
 19 20  1  0  0  0  0
 20 17  2  0  0  0  0
 21 26  1  1  0  0  0
 21 25  1  0  0  0  0
 22 27  1  0  0  0  0
 23 22  1  0  0  0  0
 23 21  1  0  0  0  0
 25 24  1  1  0  0  0
 26 28  2  0  0  0  0
 27 25  1  0  0  0  0
 27 15  1  0  0  0  0
 28 24  1  0  0  0  0
 29 23  2  0  0  0  0
 30 31  2  0  0  0  0
 32 30  1  0  0  0  0
M  END
>  <MODEL>
8

>  <REMARK>
 VINA RESULT:      -8.2      4.310      8.600
  Name = 
  6 active torsions:
  status: ('A' for Active; 'I' for Inactive)
    1  A    between atoms: C_3  and  N_24
    2  A    between atoms: N_11  and  C_16
    3  A    between atoms: C_12  and  C_28
    4  A    between atoms: C_16  and  C_29
    5  A    between atoms: C_19  and  C_28
    6  A    between atoms: C_28  and  C_32
                            x       y       z     vdW  Elec       q    Type
                         _______ _______ _______ _____ _____    ______ ____

>  <TORSDO>
F 6

$$$$
=
 OpenBabel11072411543D

 32 36  0  0  1  0  0  0  0  0999 V2000
  160.5890  209.1150  152.6960 C   0  0  1  0  0  3  0  0  0  0  0  0
  162.1340  209.4590  150.6930 C   0  0  0  0  0  3  0  0  0  0  0  0
  161.1960  211.6800  150.1710 C   0  0  0  0  0  0  0  0  0  0  0  0
  160.6060  211.1400  151.2530 N   0  0  0  0  0  0  0  0  0  0  0  0
  160.8410  212.9660  149.6590 N   0  0  0  0  0  2  0  0  0  0  0  0
  161.1210  209.9150  151.5440 C   0  0  0  0  0  0  0  0  0  0  0  0
  162.3760  210.6660  149.5420 S   0  0  0  0  0  0  0  0  0  0  0  0
  161.4140  213.5190  148.4390 C   0  0  0  0  0  2  0  0  0  0  0  0
  158.8330  213.3010  147.5120 S   0  0  0  0  0  0  0  0  0  0  0  0
  160.6950  214.0830  146.0750 C   0  0  2  0  0  3  0  0  0  0  0  0
  159.2220  214.4320  146.1400 C   0  0  0  0  0  2  0  0  0  0  0  0
  160.8950  211.7820  146.8440 F   0  0  0  0  0  0  0  0  0  0  0  0
  160.9660  213.4400  144.8660 O   0  0  0  0  0  1  0  0  0  0  0  0
  160.6110  213.0850  147.2200 C   0  0  1  0  0  0  0  0  0  0  0  0
  161.1730  205.7120  151.1220 C   0  0  0  0  0  0  0  0  0  0  0  0
  161.3690  204.9090  152.2550 C   0  0  0  0  0  3  0  0  0  0  0  0
  161.0560  206.8310  153.6910 C   0  0  0  0  0  3  0  0  0  0  0  0
  161.3110  205.4670  153.5350 C   0  0  0  0  0  3  0  0  0  0  0  0
  160.9140  207.0810  151.2880 C   0  0  0  0  0  3  0  0  0  0  0  0
  160.8570  207.6450  152.5660 C   0  0  0  0  0  0  0  0  0  0  0  0
  161.8880  204.7720  147.6390 C   0  0  2  0  0  3  0  0  0  0  0  0
  160.8290  203.8300  149.5530 N   0  0  0  0  0  2  0  0  0  0  0  0
  161.2240  203.5820  148.2300 C   0  0  0  0  0  0  0  0  0  0  0  0
  160.9400  206.8370  148.2350 C   0  0  0  0  0  2  0  0  0  0  0  0
  161.8520  205.7920  148.7120 N   0  0  1  0  0  0  0  0  0  0  0  0
  161.0770  205.3130  146.5160 C   0  0  0  0  0  3  0  0  0  0  0  0
  161.2280  205.1420  149.8040 N   0  0  0  0  0  0  0  0  0  0  0  0
  160.5480  206.4710  146.8510 C   0  0  0  0  0  3  0  0  0  0  0  0
  161.0470  202.4790  147.6460 O   0  0  0  0  0  0  0  0  0  0  0  0
  160.9760  209.6720  154.0330 C   0  0  0  0  0  0  0  0  0  0  0  0
  160.1210  209.7210  154.9530 O   0  0  0  0  0  0  0  0  0  0  0  0
  162.2900  210.1720  154.2650 N   0  0  0  0  0  1  0  0  0  0  0  0
  1 30  1  1  0  0  0
  2  6  2  0  0  0  0
  3  4  2  0  0  0  0
  4  6  1  0  0  0  0
  5  3  1  0  0  0  0
  6  1  1  0  0  0  0
  7  3  1  0  0  0  0
  7  2  1  0  0  0  0
  8  5  1  0  0  0  0
 10 13  1  6  0  0  0
 10 11  1  0  0  0  0
 10 14  1  0  0  0  0
 11  9  1  0  0  0  0
 14 12  1  6  0  0  0
 14  9  1  0  0  0  0
 14  8  1  0  0  0  0
 15 19  2  0  0  0  0
 15 16  1  0  0  0  0
 16 18  2  0  0  0  0
 18 17  1  0  0  0  0
 19 20  1  0  0  0  0
 20  1  1  0  0  0  0
 20 17  2  0  0  0  0
 21 26  1  6  0  0  0
 21 23  1  0  0  0  0
 21 25  1  0  0  0  0
 22 27  1  0  0  0  0
 23 22  1  0  0  0  0
 25 24  1  6  0  0  0
 25 27  1  0  0  0  0
 26 28  2  0  0  0  0
 27 15  1  0  0  0  0
 28 24  1  0  0  0  0
 29 23  2  0  0  0  0
 30 32  1  0  0  0  0
 30 31  2  0  0  0  0
M  END
>  <MODEL>
9

>  <REMARK>
 VINA RESULT:      -7.9      2.204      2.853
  Name = 
  6 active torsions:
  status: ('A' for Active; 'I' for Inactive)
    1  A    between atoms: C_3  and  N_24
    2  A    between atoms: N_11  and  C_16
    3  A    between atoms: C_12  and  C_28
    4  A    between atoms: C_16  and  C_29
    5  A    between atoms: C_19  and  C_28
    6  A    between atoms: C_28  and  C_32
                            x       y       z     vdW  Elec       q    Type
                         _______ _______ _______ _____ _____    ______ ____

>  <TORSDO>
F 6

$$$$
