=
 OpenBabel11072411003D

 42 47  0  0  1  0  0  0  0  0999 V2000
  161.1200  210.8640  151.0220 C   0  0  0  0  0  0  0  0  0  0  0  0
  161.9270  208.0830  153.1010 C   0  0  0  0  0  2  0  0  0  0  0  0
  160.6090  211.5660  151.9940 N   0  0  0  0  0  0  0  0  0  0  0  0
  159.8250  209.5540  153.2200 C   0  0  0  0  0  2  0  0  0  0  0  0
  160.8200  208.7970  152.3640 C   0  0  1  0  0  0  0  0  0  0  0  0
  161.2690  209.4530  151.1480 N   0  0  0  0  0  2  0  0  0  0  0  0
  160.2890  211.0110  153.3140 C   0  0  0  0  0  2  0  0  0  0  0  0
  160.8280  207.2770  152.4080 C   0  0  1  0  0  3  0  0  0  0  0  0
  162.9360  211.9510  147.9070 C   0  0  0  0  0  3  0  0  0  0  0  0
  160.9060  213.6270  145.1430 C   0  0  1  0  0  0  0  0  0  0  0  0
  160.2420  212.5110  144.6240 O   0  0  0  0  0  1  0  0  0  0  0  0
  161.4060  211.4970  149.7310 C   0  0  0  0  0  0  0  0  0  0  0  0
  163.0880  214.2540  145.9640 O   0  0  0  0  0  1  0  0  0  0  0  0
  162.6840  211.3970  149.1690 C   0  0  0  0  0  3  0  0  0  0  0  0
  160.3940  212.1840  149.0500 C   0  0  0  0  0  3  0  0  0  0  0  0
  160.6500  212.7890  147.8060 C   0  0  0  0  0  0  0  0  0  0  0  0
  162.2010  213.1850  145.8490 C   0  0  1  0  0  3  0  0  0  0  0  0
  159.5520  213.4970  147.0410 C   0  0  1  0  0  3  0  0  0  0  0  0
  158.6860  214.3330  147.9670 C   0  0  0  0  0  1  0  0  0  0  0  0
  161.2410  214.4530  144.0820 F   0  0  0  0  0  0  0  0  0  0  0  0
  160.0660  214.3490  146.0300 O   0  0  0  0  0  0  0  0  0  0  0  0
  161.9180  212.6200  147.2120 C   0  0  0  0  0  0  0  0  0  0  0  0
  161.2910  208.1880  148.0530 C   0  0  0  0  0  2  0  0  0  0  0  0
  160.4120  206.9640  149.9610 C   0  0  0  0  0  2  0  0  0  0  0  0
  161.6090  205.1760  151.2090 C   0  0  0  0  0  0  0  0  0  0  0  0
  161.7400  205.7840  148.0100 C   0  0  0  0  0  2  0  0  0  0  0  0
  162.3850  204.5160  150.1130 C   0  0  0  0  0  2  0  0  0  0  0  0
  161.1430  207.0110  148.6530 C   0  0  0  0  0  0  0  0  0  0  0  0
  161.5660  204.5020  148.8230 C   0  0  2  0  0  3  0  0  0  0  0  0
  160.8640  204.3960  151.9990 C   0  0  0  0  0  2  0  0  0  0  0  0
  161.3590  206.6630  151.1090 C   0  0  2  0  0  3  0  0  0  0  0  0
  160.7830  201.8590  148.3900 S   0  0  0  0  0  0  0  0  0  0  0  0
  159.9520  202.0190  145.8830 C   0  0  0  0  0  0  0  0  0  0  0  0
  161.1960  202.6030  145.6410 O   0  0  0  0  0  0  0  0  0  0  0  0
  159.2850  201.5710  144.9210 O   0  0  0  0  0  0  0  0  0  0  0  0
  161.5420  200.5870  148.1670 O   0  0  0  0  0  0  0  0  0  0  0  0
  161.8320  203.2560  147.9690 C   0  0  1  0  0  3  0  0  0  0  0  0
  159.4060  201.9260  147.2740 C   0  0  0  0  0  2  0  0  0  0  0  0
  160.3090  201.9140  149.8140 O   0  0  0  0  0  0  0  0  0  0  0  0
  161.7230  203.6410  146.4760 C   0  0  1  0  0  3  0  0  0  0  0  0
  162.8960  205.2170  145.1040 O   0  0  0  0  0  1  0  0  0  0  0  0
  163.0760  204.1200  145.9560 C   0  0  0  0  0  2  0  0  0  0  0  0
  1  6  1  0  0  0  0
  1  3  2  0  0  0  0
  3  7  1  0  0  0  0
  4  7  1  0  0  0  0
  5  8  1  0  0  0  0
  5  2  1  1  0  0  0
  5  4  1  0  0  0  0
  6  5  1  0  0  0  0
  8  2  1  1  0  0  0
  9 14  1  0  0  0  0
 10 20  1  6  0  0  0
 10 17  1  0  0  0  0
 10 21  1  0  0  0  0
 11 10  1  0  0  0  0
 12  1  1  0  0  0  0
 14 12  2  0  0  0  0
 15 12  1  0  0  0  0
 16 15  2  0  0  0  0
 17 13  1  1  0  0  0
 17 22  1  0  0  0  0
 18 16  1  0  0  0  0
 18 19  1  1  0  0  0
 21 18  1  0  0  0  0
 22 16  1  0  0  0  0
 22  9  2  0  0  0  0
 23 28  2  0  0  0  0
 25 30  2  0  0  0  0
 26 28  1  0  0  0  0
 27 25  1  0  0  0  0
 28 24  1  0  0  0  0
 29 26  1  6  0  0  0
 29 27  1  0  0  0  0
 31 24  1  6  0  0  0
 31 25  1  0  0  0  0
 31  8  1  0  0  0  0
 32 39  2  0  0  0  0
 33 38  1  0  0  0  0
 34 33  1  0  0  0  0
 34 40  1  0  0  0  0
 35 33  2  0  0  0  0
 36 32  2  0  0  0  0
 37 32  1  1  0  0  0
 37 29  1  0  0  0  0
 38 32  1  0  0  0  0
 40 42  1  6  0  0  0
 40 37  1  0  0  0  0
 41 42  1  0  0  0  0
M  END
>  <MODEL>
1

>  <REMARK>
 VINA RESULT:      -5.0      0.000      0.000
  Name = 
  4 active torsions:
  status: ('A' for Active; 'I' for Inactive)
    1  A    between atoms: C_1  and  C_15
    2  A    between atoms: C_22  and  C_32
    3  A    between atoms: C_31  and  C_36
    4  A    between atoms: C_33  and  C_42
                            x       y       z     vdW  Elec       q    Type
                         _______ _______ _______ _____ _____    ______ ____

>  <TORSDO>
F 4

$$$$
=
 OpenBabel11072411003D

 42 47  0  0  1  0  0  0  0  0999 V2000
  160.6400  212.3200  150.8830 C   0  0  0  0  0  0  0  0  0  0  0  0
  161.6870  210.4800  153.7510 C   0  0  0  0  0  2  0  0  0  0  0  0
  160.0320  213.2400  151.5760 N   0  0  0  0  0  0  0  0  0  0  0  0
  159.4380  211.6680  153.4030 C   0  0  0  0  0  2  0  0  0  0  0  0
  160.5300  210.7860  152.8330 C   0  0  1  0  0  0  0  0  0  0  0  0
  160.9370  211.0530  151.4640 N   0  0  0  0  0  2  0  0  0  0  0  0
  159.7390  213.1170  153.0090 C   0  0  0  0  0  2  0  0  0  0  0  0
  160.7000  209.3760  153.3740 C   0  0  1  0  0  3  0  0  0  0  0  0
  162.3970  212.4670  147.5550 C   0  0  0  0  0  3  0  0  0  0  0  0
  160.2740  213.0270  144.4330 C   0  0  1  0  0  0  0  0  0  0  0  0
  159.6900  211.7630  144.3100 O   0  0  0  0  0  1  0  0  0  0  0  0
  160.8910  212.5220  149.4530 C   0  0  0  0  0  0  0  0  0  0  0  0
  162.4030  214.0290  144.9740 O   0  0  0  0  0  1  0  0  0  0  0  0
  162.1760  212.3320  148.9310 C   0  0  0  0  0  3  0  0  0  0  0  0
  159.8380  212.8850  148.6040 C   0  0  0  0  0  3  0  0  0  0  0  0
  160.0600  213.0740  147.2270 C   0  0  0  0  0  0  0  0  0  0  0  0
  161.5910  212.9230  145.2220 C   0  0  1  0  0  3  0  0  0  0  0  0
  158.9200  213.4240  146.2940 C   0  0  1  0  0  3  0  0  0  0  0  0
  157.9930  214.4530  146.9170 C   0  0  0  0  0  1  0  0  0  0  0  0
  160.5580  213.4900  143.1580 F   0  0  0  0  0  0  0  0  0  0  0  0
  159.3810  213.9380  145.0550 O   0  0  0  0  0  0  0  0  0  0  0  0
  161.3400  212.8080  146.6990 C   0  0  0  0  0  0  0  0  0  0  0  0
  161.6470  209.1100  149.0100 C   0  0  0  0  0  2  0  0  0  0  0  0
  160.5180  208.4450  151.0580 C   0  0  0  0  0  2  0  0  0  0  0  0
  161.4910  207.0170  152.8480 C   0  0  0  0  0  0  0  0  0  0  0  0
  161.9750  206.7680  149.6350 C   0  0  0  0  0  2  0  0  0  0  0  0
  162.3390  206.0780  152.0510 C   0  0  0  0  0  2  0  0  0  0  0  0
  161.3790  208.1330  149.8720 C   0  0  0  0  0  0  0  0  0  0  0  0
  161.6540  205.7460  150.7250 C   0  0  2  0  0  3  0  0  0  0  0  0
  160.6310  206.4880  153.7240 C   0  0  0  0  0  2  0  0  0  0  0  0
  161.3280  208.4320  152.3430 C   0  0  2  0  0  3  0  0  0  0  0  0
  161.3730  203.0540  151.4000 S   0  0  0  0  0  0  0  0  0  0  0  0
  159.8810  202.2150  149.3830 C   0  0  0  0  0  0  0  0  0  0  0  0
  160.8570  202.8080  148.5810 O   0  0  0  0  0  0  0  0  0  0  0  0
  159.0920  201.3830  148.8770 O   0  0  0  0  0  0  0  0  0  0  0  0
  162.3000  201.8780  151.3400 O   0  0  0  0  0  0  0  0  0  0  0  0
  161.9420  204.3150  150.2540 C   0  0  1  0  0  3  0  0  0  0  0  0
  159.7650  202.5650  150.8340 C   0  0  0  0  0  2  0  0  0  0  0  0
  161.3010  203.5610  152.8120 O   0  0  0  0  0  0  0  0  0  0  0  0
  161.3530  204.1270  148.8370 C   0  0  1  0  0  3  0  0  0  0  0  0
  161.9490  204.1210  146.5170 O   0  0  0  0  0  1  0  0  0  0  0  0
  162.3790  204.5360  147.7820 C   0  0  0  0  0  2  0  0  0  0  0  0
  1  6  1  0  0  0  0
  1  3  2  0  0  0  0
  3  7  1  0  0  0  0
  5  8  1  0  0  0  0
  5  4  1  1  0  0  0
  5  2  1  0  0  0  0
  6  5  1  0  0  0  0
  7  4  1  0  0  0  0
  8  2  1  1  0  0  0
  9 14  1  0  0  0  0
 10 20  1  6  0  0  0
 10 21  1  0  0  0  0
 10 17  1  0  0  0  0
 11 10  1  0  0  0  0
 12  1  1  0  0  0  0
 14 12  2  0  0  0  0
 15 12  1  0  0  0  0
 16 15  2  0  0  0  0
 17 13  1  1  0  0  0
 17 22  1  0  0  0  0
 18 19  1  1  0  0  0
 18 16  1  0  0  0  0
 21 18  1  0  0  0  0
 22 16  1  0  0  0  0
 22  9  2  0  0  0  0
 23 28  2  0  0  0  0
 25 30  2  0  0  0  0
 26 28  1  0  0  0  0
 27 25  1  0  0  0  0
 28 24  1  0  0  0  0
 29 26  1  6  0  0  0
 29 27  1  0  0  0  0
 31 24  1  6  0  0  0
 31 25  1  0  0  0  0
 31  8  1  0  0  0  0
 32 39  2  0  0  0  0
 33 38  1  0  0  0  0
 34 40  1  0  0  0  0
 34 33  1  0  0  0  0
 35 33  2  0  0  0  0
 36 32  2  0  0  0  0
 37 29  1  1  0  0  0
 37 32  1  0  0  0  0
 38 32  1  0  0  0  0
 40 42  1  6  0  0  0
 40 37  1  0  0  0  0
 41 42  1  0  0  0  0
M  END
>  <MODEL>
2

>  <REMARK>
 VINA RESULT:      -4.8      1.592      2.171
  Name = 
  4 active torsions:
  status: ('A' for Active; 'I' for Inactive)
    1  A    between atoms: C_1  and  C_15
    2  A    between atoms: C_22  and  C_32
    3  A    between atoms: C_31  and  C_36
    4  A    between atoms: C_33  and  C_42
                            x       y       z     vdW  Elec       q    Type
                         _______ _______ _______ _____ _____    ______ ____

>  <TORSDO>
F 4

$$$$
=
 OpenBabel11072411003D

 42 47  0  0  1  0  0  0  0  0999 V2000
  161.0260  205.4360  151.7120 C   0  0  0  0  0  0  0  0  0  0  0  0
  159.9020  208.2920  153.5260 C   0  0  0  0  0  2  0  0  0  0  0  0
  161.1970  204.7060  152.7780 N   0  0  0  0  0  0  0  0  0  0  0  0
  161.7720  206.6630  154.1950 C   0  0  0  0  0  2  0  0  0  0  0  0
  161.1090  207.4870  153.1100 C   0  0  1  0  0  0  0  0  0  0  0  0
  160.9580  206.8560  151.8100 N   0  0  0  0  0  2  0  0  0  0  0  0
  161.1880  205.2480  154.1430 C   0  0  0  0  0  2  0  0  0  0  0  0
  161.2070  209.0030  153.1680 C   0  0  1  0  0  3  0  0  0  0  0  0
  161.7060  204.8710  148.0520 C   0  0  0  0  0  3  0  0  0  0  0  0
  160.9530  201.4220  146.6020 C   0  0  1  0  0  0  0  0  0  0  0  0
  162.0260  200.7000  147.1320 O   0  0  0  0  0  1  0  0  0  0  0  0
  161.0530  204.8150  150.3850 C   0  0  0  0  0  0  0  0  0  0  0  0
  160.4900  203.5750  145.6140 O   0  0  0  0  0  1  0  0  0  0  0  0
  161.6280  205.4940  149.3040 C   0  0  0  0  0  3  0  0  0  0  0  0
  160.5220  203.5320  150.2030 C   0  0  0  0  0  3  0  0  0  0  0  0
  160.5480  202.9190  148.9370 C   0  0  0  0  0  0  0  0  0  0  0  0
  161.3110  202.9170  146.5270 C   0  0  1  0  0  3  0  0  0  0  0  0
  160.0160  201.5150  148.7390 C   0  0  1  0  0  3  0  0  0  0  0  0
  158.7190  201.3050  149.5010 C   0  0  0  0  0  1  0  0  0  0  0  0
  160.7220  200.9580  145.3170 F   0  0  0  0  0  0  0  0  0  0  0  0
  159.7780  201.2200  147.3730 O   0  0  0  0  0  0  0  0  0  0  0  0
  161.1950  203.5780  147.8720 C   0  0  0  0  0  0  0  0  0  0  0  0
  162.4470  208.3550  148.9190 C   0  0  0  0  0  2  0  0  0  0  0  0
  162.4220  209.5320  151.0460 C   0  0  0  0  0  2  0  0  0  0  0  0
  160.6380  211.0830  151.8210 C   0  0  0  0  0  0  0  0  0  0  0  0
  161.7350  210.6900  148.7780 C   0  0  0  0  0  2  0  0  0  0  0  0
  160.2250  211.7270  150.5350 C   0  0  0  0  0  2  0  0  0  0  0  0
  162.2180  209.4960  149.5620 C   0  0  0  0  0  0  0  0  0  0  0  0
  161.4410  211.9240  149.6310 C   0  0  2  0  0  3  0  0  0  0  0  0
  160.9460  211.8840  152.8470 C   0  0  0  0  0  2  0  0  0  0  0  0
  161.0980  209.6440  151.7810 C   0  0  2  0  0  3  0  0  0  0  0  0
  162.2630  213.0900  147.2330 S   0  0  0  0  0  0  0  0  0  0  0  0
  159.9190  213.4620  146.0630 C   0  0  0  0  0  0  0  0  0  0  0  0
  159.5670  214.0950  147.2550 O   0  0  0  0  0  0  0  0  0  0  0  0
  159.2280  213.6570  145.0360 O   0  0  0  0  0  0  0  0  0  0  0  0
  162.7750  214.4520  146.8760 O   0  0  0  0  0  0  0  0  0  0  0  0
  161.3380  213.1890  148.7700 C   0  0  1  0  0  3  0  0  0  0  0  0
  161.1080  212.5530  145.9980 C   0  0  0  0  0  2  0  0  0  0  0  0
  163.4160  212.1320  147.3250 O   0  0  0  0  0  0  0  0  0  0  0  0
  159.8440  213.5130  148.5350 C   0  0  1  0  0  3  0  0  0  0  0  0
  157.9180  214.3200  149.7080 O   0  0  0  0  0  1  0  0  0  0  0  0
  159.3140  214.3990  149.6600 C   0  0  0  0  0  2  0  0  0  0  0  0
  1  6  1  0  0  0  0
  1  3  2  0  0  0  0
  3  7  1  0  0  0  0
  5  8  1  0  0  0  0
  5  2  1  1  0  0  0
  5  4  1  0  0  0  0
  6  5  1  0  0  0  0
  7  4  1  0  0  0  0
  8  2  1  1  0  0  0
  9 14  1  0  0  0  0
 10 20  1  6  0  0  0
 10 11  1  0  0  0  0
 10 21  1  0  0  0  0
 12  1  1  0  0  0  0
 14 12  2  0  0  0  0
 15 12  1  0  0  0  0
 16 15  2  0  0  0  0
 17 13  1  6  0  0  0
 17 10  1  0  0  0  0
 17 22  1  0  0  0  0
 18 16  1  0  0  0  0
 18 19  1  1  0  0  0
 21 18  1  0  0  0  0
 22  9  2  0  0  0  0
 22 16  1  0  0  0  0
 23 28  2  0  0  0  0
 25 30  2  0  0  0  0
 26 28  1  0  0  0  0
 27 25  1  0  0  0  0
 28 24  1  0  0  0  0
 29 26  1  6  0  0  0
 29 27  1  0  0  0  0
 31 24  1  1  0  0  0
 31 25  1  0  0  0  0
 31  8  1  0  0  0  0
 32 39  2  0  0  0  0
 33 34  1  0  0  0  0
 34 40  1  0  0  0  0
 35 33  2  0  0  0  0
 36 32  2  0  0  0  0
 37 32  1  6  0  0  0
 37 29  1  0  0  0  0
 38 33  1  0  0  0  0
 38 32  1  0  0  0  0
 40 37  1  0  0  0  0
 40 42  1  1  0  0  0
 42 41  1  0  0  0  0
M  END
>  <MODEL>
3

>  <REMARK>
 VINA RESULT:      -4.5      3.244      9.056
  Name = 
  4 active torsions:
  status: ('A' for Active; 'I' for Inactive)
    1  A    between atoms: C_1  and  C_15
    2  A    between atoms: C_22  and  C_32
    3  A    between atoms: C_31  and  C_36
    4  A    between atoms: C_33  and  C_42
                            x       y       z     vdW  Elec       q    Type
                         _______ _______ _______ _____ _____    ______ ____

>  <TORSDO>
F 4

$$$$
=
 OpenBabel11072411003D

 42 47  0  0  1  0  0  0  0  0999 V2000
  160.7460  209.3390  153.1190 C   0  0  0  0  0  0  0  0  0  0  0  0
  162.0180  206.1800  154.1730 C   0  0  0  0  0  2  0  0  0  0  0  0
  160.3170  209.6700  154.3040 N   0  0  0  0  0  0  0  0  0  0  0  0
  159.8490  207.3170  154.9430 C   0  0  0  0  0  2  0  0  0  0  0  0
  160.7760  206.9520  153.8020 C   0  0  1  0  0  0  0  0  0  0  0  0
  161.0130  207.9760  152.7990 N   0  0  0  0  0  2  0  0  0  0  0  0
  160.2130  208.7250  155.4220 C   0  0  0  0  0  2  0  0  0  0  0  0
  160.9010  205.4940  153.3870 C   0  0  1  0  0  3  0  0  0  0  0  0
  160.2670  212.5470  151.2070 C   0  0  0  0  0  3  0  0  0  0  0  0
  162.2690  213.0340  147.9930 C   0  0  1  0  0  0  0  0  0  0  0  0
  163.5310  213.2950  148.5350 O   0  0  0  0  0  1  0  0  0  0  0  0
  160.8150  210.3440  152.0550 C   0  0  0  0  0  0  0  0  0  0  0  0
  159.9480  213.5710  148.3870 O   0  0  0  0  0  1  0  0  0  0  0  0
  160.1470  211.5660  152.1990 C   0  0  0  0  0  3  0  0  0  0  0  0
  161.5690  210.0910  150.9020 C   0  0  0  0  0  3  0  0  0  0  0  0
  161.6520  211.0490  149.8750 C   0  0  0  0  0  0  0  0  0  0  0  0
  161.1750  213.3800  149.0200 C   0  0  1  0  0  3  0  0  0  0  0  0
  162.4990  210.8020  148.6440 C   0  0  1  0  0  3  0  0  0  0  0  0
  162.3450  209.3760  148.1460 C   0  0  0  0  0  1  0  0  0  0  0  0
  162.1060  213.8470  146.8830 F   0  0  0  0  0  0  0  0  0  0  0  0
  162.1660  211.6800  147.5810 O   0  0  0  0  0  0  0  0  0  0  0  0
  161.0380  212.3050  150.0610 C   0  0  0  0  0  0  0  0  0  0  0  0
  160.4780  207.5360  149.4300 C   0  0  0  0  0  2  0  0  0  0  0  0
  160.1400  205.7240  151.0150 C   0  0  0  0  0  2  0  0  0  0  0  0
  161.8030  203.9600  151.5720 C   0  0  0  0  0  0  0  0  0  0  0  0
  161.2990  205.3600  148.6730 C   0  0  0  0  0  2  0  0  0  0  0  0
  162.4820  203.7640  150.2540 C   0  0  0  0  0  2  0  0  0  0  0  0
  160.6260  206.2410  149.6950 C   0  0  0  0  0  0  0  0  0  0  0  0
  161.4730  203.9080  149.1150 C   0  0  2  0  0  3  0  0  0  0  0  0
  161.3360  202.8740  152.1980 C   0  0  0  0  0  2  0  0  0  0  0  0
  161.3010  205.3430  151.9160 C   0  0  2  0  0  3  0  0  0  0  0  0
  160.8390  201.4710  147.9130 S   0  0  0  0  0  0  0  0  0  0  0  0
  159.9410  202.3190  145.5730 C   0  0  0  0  0  0  0  0  0  0  0  0
  161.1420  203.0270  145.5120 O   0  0  0  0  0  0  0  0  0  0  0  0
  159.2790  202.1380  144.5240 O   0  0  0  0  0  0  0  0  0  0  0  0
  161.6670  200.3750  147.3150 O   0  0  0  0  0  0  0  0  0  0  0  0
  161.7930  202.9940  147.9250 C   0  0  1  0  0  3  0  0  0  0  0  0
  159.4340  201.7790  146.8750 C   0  0  0  0  0  2  0  0  0  0  0  0
  160.3970  201.0670  149.2900 O   0  0  0  0  0  0  0  0  0  0  0  0
  161.6260  203.8000  146.6170 C   0  0  1  0  0  3  0  0  0  0  0  0
  162.6720  205.6250  145.4700 O   0  0  0  0  0  1  0  0  0  0  0  0
  162.9350  204.4980  146.2580 C   0  0  0  0  0  2  0  0  0  0  0  0
  1  3  2  0  0  0  0
  3  7  1  0  0  0  0
  4  7  1  0  0  0  0
  5  2  1  1  0  0  0
  5  4  1  0  0  0  0
  6  1  1  0  0  0  0
  6  5  1  0  0  0  0
  8  5  1  0  0  0  0
  8  2  1  1  0  0  0
  9 14  1  0  0  0  0
 10 20  1  6  0  0  0
 10 11  1  0  0  0  0
 10 17  1  0  0  0  0
 12 14  2  0  0  0  0
 12  1  1  0  0  0  0
 15 12  1  0  0  0  0
 16 22  1  0  0  0  0
 16 15  2  0  0  0  0
 17 13  1  6  0  0  0
 17 22  1  0  0  0  0
 18 19  1  6  0  0  0
 18 16  1  0  0  0  0
 21 10  1  0  0  0  0
 21 18  1  0  0  0  0
 22  9  2  0  0  0  0
 23 28  2  0  0  0  0
 25 31  1  0  0  0  0
 25 30  2  0  0  0  0
 26 28  1  0  0  0  0
 27 25  1  0  0  0  0
 28 24  1  0  0  0  0
 29 26  1  6  0  0  0
 29 27  1  0  0  0  0
 31 24  1  6  0  0  0
 31  8  1  0  0  0  0
 32 39  2  0  0  0  0
 33 38  1  0  0  0  0
 34 33  1  0  0  0  0
 34 40  1  0  0  0  0
 35 33  2  0  0  0  0
 36 32  2  0  0  0  0
 37 32  1  6  0  0  0
 37 29  1  0  0  0  0
 38 32  1  0  0  0  0
 40 42  1  6  0  0  0
 40 37  1  0  0  0  0
 41 42  1  0  0  0  0
M  END
>  <MODEL>
4

>  <REMARK>
 VINA RESULT:      -4.0      1.620      2.602
  Name = 
  4 active torsions:
  status: ('A' for Active; 'I' for Inactive)
    1  A    between atoms: C_1  and  C_15
    2  A    between atoms: C_22  and  C_32
    3  A    between atoms: C_31  and  C_36
    4  A    between atoms: C_33  and  C_42
                            x       y       z     vdW  Elec       q    Type
                         _______ _______ _______ _____ _____    ______ ____

>  <TORSDO>
F 4

$$$$
=
 OpenBabel11072411003D

 42 47  0  0  1  0  0  0  0  0999 V2000
  160.9190  206.6250  152.9720 C   0  0  0  0  0  0  0  0  0  0  0  0
  159.5690  209.7600  154.0020 C   0  0  0  0  0  2  0  0  0  0  0  0
  161.1030  206.1960  154.1880 N   0  0  0  0  0  0  0  0  0  0  0  0
  161.5140  208.4760  155.0800 C   0  0  0  0  0  2  0  0  0  0  0  0
  160.8350  208.9590  153.8150 C   0  0  1  0  0  0  0  0  0  0  0  0
  160.7610  208.0170  152.7110 N   0  0  0  0  0  2  0  0  0  0  0  0
  161.0210  207.0560  155.3740 C   0  0  0  0  0  2  0  0  0  0  0  0
  160.8380  210.4460  153.4950 C   0  0  1  0  0  3  0  0  0  0  0  0
  160.8100  203.4620  150.9310 C   0  0  0  0  0  3  0  0  0  0  0  0
  161.2220  203.7570  147.1480 C   0  0  1  0  0  0  0  0  0  0  0  0
  159.9670  204.2720  146.8100 O   0  0  0  0  0  1  0  0  0  0  0  0
  161.0230  205.6980  151.8420 C   0  0  0  0  0  0  0  0  0  0  0  0
  162.2040  202.1140  148.6200 O   0  0  0  0  0  1  0  0  0  0  0  0
  160.7690  204.3340  152.0270 C   0  0  0  0  0  3  0  0  0  0  0  0
  161.3570  206.1810  150.5710 C   0  0  0  0  0  3  0  0  0  0  0  0
  161.4530  205.3060  149.4730 C   0  0  0  0  0  0  0  0  0  0  0  0
  161.1360  203.0000  148.4860 C   0  0  1  0  0  3  0  0  0  0  0  0
  161.7700  205.8240  148.0870 C   0  0  1  0  0  3  0  0  0  0  0  0
  162.8590  206.8820  148.1300 C   0  0  0  0  0  1  0  0  0  0  0  0
  161.5950  202.8630  146.1580 F   0  0  0  0  0  0  0  0  0  0  0  0
  162.1930  204.7910  147.2120 O   0  0  0  0  0  0  0  0  0  0  0  0
  161.1220  203.9470  149.6530 C   0  0  0  0  0  0  0  0  0  0  0  0
  162.4940  209.0580  149.5780 C   0  0  0  0  0  2  0  0  0  0  0  0
  162.1080  210.6750  151.3520 C   0  0  0  0  0  2  0  0  0  0  0  0
  160.0350  212.0150  151.6630 C   0  0  0  0  0  0  0  0  0  0  0  0
  161.4140  211.1270  148.8470 C   0  0  0  0  0  2  0  0  0  0  0  0
  159.6210  212.2550  150.2460 C   0  0  0  0  0  2  0  0  0  0  0  0
  162.0280  210.2570  149.9150 C   0  0  0  0  0  0  0  0  0  0  0  0
  160.8530  212.4520  149.3630 C   0  0  2  0  0  3  0  0  0  0  0  0
  160.1240  213.0750  152.4730 C   0  0  0  0  0  2  0  0  0  0  0  0
  160.7310  210.7140  151.9900 C   0  0  2  0  0  3  0  0  0  0  0  0
  161.6420  213.1460  146.7780 S   0  0  0  0  0  0  0  0  0  0  0  0
  159.3570  212.8170  145.4850 C   0  0  0  0  0  0  0  0  0  0  0  0
  158.8230  213.6410  146.4760 O   0  0  0  0  0  0  0  0  0  0  0  0
  158.7170  212.6400  144.4210 O   0  0  0  0  0  0  0  0  0  0  0  0
  161.9490  214.4530  146.1150 O   0  0  0  0  0  0  0  0  0  0  0  0
  160.6060  213.4410  148.2170 C   0  0  1  0  0  3  0  0  0  0  0  0
  160.6790  212.1400  145.6790 C   0  0  0  0  0  2  0  0  0  0  0  0
  162.9260  212.4530  147.1350 O   0  0  0  0  0  0  0  0  0  0  0  0
  159.1010  213.4340  147.8660 C   0  0  1  0  0  3  0  0  0  0  0  0
  157.0480  214.0110  148.9590 O   0  0  0  0  0  1  0  0  0  0  0  0
  158.3560  214.4530  148.7250 C   0  0  0  0  0  2  0  0  0  0  0  0
  1  3  2  0  0  0  0
  3  7  1  0  0  0  0
  4  7  1  0  0  0  0
  5  2  1  1  0  0  0
  5  4  1  0  0  0  0
  6  1  1  0  0  0  0
  6  5  1  0  0  0  0
  8  5  1  0  0  0  0
  8  2  1  1  0  0  0
  9 14  1  0  0  0  0
 10 20  1  6  0  0  0
 10 21  1  0  0  0  0
 10 17  1  0  0  0  0
 11 10  1  0  0  0  0
 12 14  2  0  0  0  0
 12  1  1  0  0  0  0
 15 12  1  0  0  0  0
 16 22  1  0  0  0  0
 16 15  2  0  0  0  0
 17 13  1  1  0  0  0
 17 22  1  0  0  0  0
 18 19  1  1  0  0  0
 18 16  1  0  0  0  0
 21 18  1  0  0  0  0
 22  9  2  0  0  0  0
 23 28  2  0  0  0  0
 25 31  1  0  0  0  0
 25 30  2  0  0  0  0
 26 28  1  0  0  0  0
 27 25  1  0  0  0  0
 28 24  1  0  0  0  0
 29 26  1  6  0  0  0
 29 27  1  0  0  0  0
 31 24  1  1  0  0  0
 31  8  1  0  0  0  0
 32 39  2  0  0  0  0
 33 38  1  0  0  0  0
 33 34  1  0  0  0  0
 34 40  1  0  0  0  0
 35 33  2  0  0  0  0
 36 32  2  0  0  0  0
 37 32  1  6  0  0  0
 37 29  1  0  0  0  0
 38 32  1  0  0  0  0
 40 37  1  0  0  0  0
 40 42  1  1  0  0  0
 42 41  1  0  0  0  0
M  END
>  <MODEL>
5

>  <REMARK>
 VINA RESULT:      -3.7      3.043      8.500
  Name = 
  4 active torsions:
  status: ('A' for Active; 'I' for Inactive)
    1  A    between atoms: C_1  and  C_15
    2  A    between atoms: C_22  and  C_32
    3  A    between atoms: C_31  and  C_36
    4  A    between atoms: C_33  and  C_42
                            x       y       z     vdW  Elec       q    Type
                         _______ _______ _______ _____ _____    ______ ____

>  <TORSDO>
F 4

$$$$
=
 OpenBabel11072411003D

 42 47  0  0  1  0  0  0  0  0999 V2000
  160.0970  209.7560  153.8480 C   0  0  0  0  0  0  0  0  0  0  0  0
  162.1260  207.0210  154.9020 C   0  0  0  0  0  2  0  0  0  0  0  0
  159.6470  210.0080  155.0440 N   0  0  0  0  0  0  0  0  0  0  0  0
  159.7790  207.6300  155.7460 C   0  0  0  0  0  2  0  0  0  0  0  0
  160.7220  207.4640  154.5720 C   0  0  1  0  0  0  0  0  0  0  0  0
  160.6690  208.4880  153.5420 N   0  0  0  0  0  2  0  0  0  0  0  0
  159.8140  209.0970  156.1830 C   0  0  0  0  0  2  0  0  0  0  0  0
  161.1760  206.0680  154.1780 C   0  0  1  0  0  3  0  0  0  0  0  0
  158.6460  212.5750  151.8170 C   0  0  0  0  0  3  0  0  0  0  0  0
  160.5850  213.7530  148.7470 C   0  0  1  0  0  0  0  0  0  0  0  0
  161.6210  214.4530  149.3730 O   0  0  0  0  0  1  0  0  0  0  0  0
  159.8820  210.7190  152.7650 C   0  0  0  0  0  0  0  0  0  0  0  0
  158.2030  213.4160  148.9530 O   0  0  0  0  0  1  0  0  0  0  0  0
  158.8100  211.6170  152.8250 C   0  0  0  0  0  3  0  0  0  0  0  0
  160.7650  210.7550  151.6780 C   0  0  0  0  0  3  0  0  0  0  0  0
  160.5780  211.6800  150.6330 C   0  0  0  0  0  0  0  0  0  0  0  0
  159.3620  213.6810  149.6800 C   0  0  1  0  0  3  0  0  0  0  0  0
  161.5510  211.7560  149.4760 C   0  0  1  0  0  3  0  0  0  0  0  0
  161.9610  210.3710  149.0080 C   0  0  0  0  0  1  0  0  0  0  0  0
  160.2280  214.4530  147.6060 F   0  0  0  0  0  0  0  0  0  0  0  0
  161.0100  212.4540  148.3660 O   0  0  0  0  0  0  0  0  0  0  0  0
  159.5410  212.6280  150.7380 C   0  0  0  0  0  0  0  0  0  0  0  0
  162.9070  208.5120  150.8560 C   0  0  0  0  0  2  0  0  0  0  0  0
  161.1530  207.2550  151.9760 C   0  0  0  0  0  2  0  0  0  0  0  0
  160.9390  204.7770  152.0010 C   0  0  0  0  0  0  0  0  0  0  0  0
  162.0070  206.6470  149.5550 C   0  0  0  0  0  2  0  0  0  0  0  0
  161.4450  204.4210  150.6380 C   0  0  0  0  0  2  0  0  0  0  0  0
  162.0390  207.5060  150.7940 C   0  0  0  0  0  0  0  0  0  0  0  0
  161.0190  205.4830  149.6250 C   0  0  2  0  0  3  0  0  0  0  0  0
  159.7540  204.2820  152.3730 C   0  0  0  0  0  2  0  0  0  0  0  0
  161.5440  205.9750  152.6940 C   0  0  2  0  0  3  0  0  0  0  0  0
  161.0010  206.0670  146.8970 S   0  0  0  0  0  0  0  0  0  0  0  0
  162.8090  204.3380  146.0330 C   0  0  0  0  0  0  0  0  0  0  0  0
  162.0460  203.3920  146.7200 O   0  0  0  0  0  0  0  0  0  0  0  0
  163.6310  203.9550  145.1690 O   0  0  0  0  0  0  0  0  0  0  0  0
  160.0370  205.7710  145.7900 O   0  0  0  0  0  0  0  0  0  0  0  0
  160.7450  204.8960  148.2350 C   0  0  1  0  0  3  0  0  0  0  0  0
  162.6580  205.8000  146.3210 C   0  0  0  0  0  2  0  0  0  0  0  0
  160.8240  207.4890  147.3460 O   0  0  0  0  0  0  0  0  0  0  0  0
  161.5890  203.6120  148.0590 C   0  0  1  0  0  3  0  0  0  0  0  0
  161.5680  201.2370  148.3700 O   0  0  0  0  0  1  0  0  0  0  0  0
  160.8170  202.4000  148.5750 C   0  0  0  0  0  2  0  0  0  0  0  0
  1  3  2  0  0  0  0
  3  7  1  0  0  0  0
  4  7  1  0  0  0  0
  5  2  1  1  0  0  0
  5  4  1  0  0  0  0
  6  1  1  0  0  0  0
  6  5  1  0  0  0  0
  8  5  1  0  0  0  0
  8  2  1  1  0  0  0
  9 14  1  0  0  0  0
 10 20  1  6  0  0  0
 10 11  1  0  0  0  0
 10 17  1  0  0  0  0
 12 14  2  0  0  0  0
 12  1  1  0  0  0  0
 15 12  1  0  0  0  0
 16 22  1  0  0  0  0
 16 15  2  0  0  0  0
 17 13  1  6  0  0  0
 17 22  1  0  0  0  0
 18 19  1  6  0  0  0
 18 16  1  0  0  0  0
 21 10  1  0  0  0  0
 21 18  1  0  0  0  0
 22  9  2  0  0  0  0
 25 30  2  0  0  0  0
 25 31  1  0  0  0  0
 26 28  1  0  0  0  0
 27 25  1  0  0  0  0
 28 23  2  0  0  0  0
 28 24  1  0  0  0  0
 29 26  1  6  0  0  0
 29 27  1  0  0  0  0
 31 24  1  6  0  0  0
 31  8  1  0  0  0  0
 32 39  2  0  0  0  0
 33 38  1  0  0  0  0
 33 34  1  0  0  0  0
 34 40  1  0  0  0  0
 35 33  2  0  0  0  0
 36 32  2  0  0  0  0
 37 32  1  6  0  0  0
 37 29  1  0  0  0  0
 38 32  1  0  0  0  0
 40 37  1  0  0  0  0
 40 42  1  6  0  0  0
 41 42  1  0  0  0  0
M  END
>  <MODEL>
6

>  <REMARK>
 VINA RESULT:      -3.4      2.172      3.724
  Name = 
  4 active torsions:
  status: ('A' for Active; 'I' for Inactive)
    1  A    between atoms: C_1  and  C_15
    2  A    between atoms: C_22  and  C_32
    3  A    between atoms: C_31  and  C_36
    4  A    between atoms: C_33  and  C_42
                            x       y       z     vdW  Elec       q    Type
                         _______ _______ _______ _____ _____    ______ ____

>  <TORSDO>
F 4

$$$$
=
 OpenBabel11072411003D

 42 47  0  0  1  0  0  0  0  0999 V2000
  160.9960  204.6530  150.7190 C   0  0  0  0  0  0  0  0  0  0  0  0
  159.8270  205.4780  153.9840 C   0  0  0  0  0  2  0  0  0  0  0  0
  161.3230  203.4330  151.0400 N   0  0  0  0  0  0  0  0  0  0  0  0
  161.8720  204.0480  153.3820 C   0  0  0  0  0  2  0  0  0  0  0  0
  161.0480  205.2910  153.1180 C   0  0  1  0  0  0  0  0  0  0  0  0
  160.8260  205.6460  151.7270 N   0  0  0  0  0  2  0  0  0  0  0  0
  161.3990  202.9500  152.4240 C   0  0  0  0  0  2  0  0  0  0  0  0
  161.0320  206.4020  154.1570 C   0  0  1  0  0  3  0  0  0  0  0  0
  160.6620  206.7700  147.6230 C   0  0  0  0  0  3  0  0  0  0  0  0
  161.6050  205.2040  144.2720 C   0  0  1  0  0  0  0  0  0  0  0  0
  162.9980  205.2130  144.3880 O   0  0  0  0  0  1  0  0  0  0  0  0
  160.9480  205.0540  149.3110 C   0  0  0  0  0  0  0  0  0  0  0  0
  159.7060  206.6110  144.7660 O   0  0  0  0  0  1  0  0  0  0  0  0
  160.6470  206.3780  148.9680 C   0  0  0  0  0  3  0  0  0  0  0  0
  161.2230  204.1170  148.3070 C   0  0  0  0  0  3  0  0  0  0  0  0
  161.1890  204.4880  146.9510 C   0  0  0  0  0  0  0  0  0  0  0  0
  160.9950  206.2850  145.1830 C   0  0  1  0  0  3  0  0  0  0  0  0
  161.5280  203.4930  145.8610 C   0  0  1  0  0  3  0  0  0  0  0  0
  160.9130  202.1340  146.1440 C   0  0  0  0  0  1  0  0  0  0  0  0
  161.2850  205.5020  142.9580 F   0  0  0  0  0  0  0  0  0  0  0  0
  161.0800  203.9230  144.5850 O   0  0  0  0  0  0  0  0  0  0  0  0
  160.9590  205.8390  146.6180 C   0  0  0  0  0  0  0  0  0  0  0  0
  162.3080  209.0330  150.7720 C   0  0  0  0  0  2  0  0  0  0  0  0
  162.0420  208.4400  153.1140 C   0  0  0  0  0  2  0  0  0  0  0  0
  159.9510  208.6850  154.4400 C   0  0  0  0  0  0  0  0  0  0  0  0
  161.0500  210.6610  152.0940 C   0  0  0  0  0  2  0  0  0  0  0  0
  159.3690  209.9310  153.8500 C   0  0  0  0  0  2  0  0  0  0  0  0
  161.8220  209.3730  151.9620 C   0  0  0  0  0  0  0  0  0  0  0  0
  160.4830  210.9130  153.4900 C   0  0  2  0  0  3  0  0  0  0  0  0
  160.0760  208.6270  155.7700 C   0  0  0  0  0  2  0  0  0  0  0  0
  160.7440  207.7720  153.5350 C   0  0  2  0  0  3  0  0  0  0  0  0
  159.0350  212.9950  152.3280 S   0  0  0  0  0  0  0  0  0  0  0  0
  157.2250  213.4190  154.2120 C   0  0  0  0  0  0  0  0  0  0  0  0
  158.3230  213.5030  155.0700 O   0  0  0  0  0  0  0  0  0  0  0  0
  156.1180  213.8750  154.5830 O   0  0  0  0  0  0  0  0  0  0  0  0
  159.3150  214.4530  152.1250 O   0  0  0  0  0  0  0  0  0  0  0  0
  160.0600  212.3770  153.6680 C   0  0  1  0  0  3  0  0  0  0  0  0
  157.3550  212.7890  152.8590 C   0  0  0  0  0  2  0  0  0  0  0  0
  159.2740  212.2570  151.0430 O   0  0  0  0  0  0  0  0  0  0  0  0
  159.3800  212.5360  155.0470 C   0  0  1  0  0  3  0  0  0  0  0  0
  160.4150  211.8520  157.0970 O   0  0  0  0  0  1  0  0  0  0  0  0
  160.4240  212.8510  156.1160 C   0  0  0  0  0  2  0  0  0  0  0  0
  1  3  2  0  0  0  0
  1  6  1  0  0  0  0
  3  7  1  0  0  0  0
  5  4  1  1  0  0  0
  5  2  1  0  0  0  0
  5  8  1  0  0  0  0
  6  5  1  0  0  0  0
  7  4  1  0  0  0  0
  8  2  1  1  0  0  0
  9 14  1  0  0  0  0
 10 20  1  6  0  0  0
 10 11  1  0  0  0  0
 10 21  1  0  0  0  0
 10 17  1  0  0  0  0
 12  1  1  0  0  0  0
 14 12  2  0  0  0  0
 15 12  1  0  0  0  0
 16 15  2  0  0  0  0
 17 13  1  6  0  0  0
 17 22  1  0  0  0  0
 18 19  1  1  0  0  0
 18 16  1  0  0  0  0
 21 18  1  0  0  0  0
 22 16  1  0  0  0  0
 22  9  2  0  0  0  0
 23 28  2  0  0  0  0
 25 30  2  0  0  0  0
 27 25  1  0  0  0  0
 28 26  1  0  0  0  0
 28 24  1  0  0  0  0
 29 26  1  6  0  0  0
 29 37  1  0  0  0  0
 29 27  1  0  0  0  0
 31 24  1  1  0  0  0
 31  8  1  0  0  0  0
 31 25  1  0  0  0  0
 32 38  1  0  0  0  0
 33 35  2  0  0  0  0
 33 34  1  0  0  0  0
 36 32  2  0  0  0  0
 37 32  1  6  0  0  0
 37 40  1  0  0  0  0
 38 33  1  0  0  0  0
 39 32  2  0  0  0  0
 40 34  1  0  0  0  0
 40 42  1  1  0  0  0
 42 41  1  0  0  0  0
M  END
>  <MODEL>
7

>  <REMARK>
 VINA RESULT:      -3.3      4.286      9.083
  Name = 
  4 active torsions:
  status: ('A' for Active; 'I' for Inactive)
    1  A    between atoms: C_1  and  C_15
    2  A    between atoms: C_22  and  C_32
    3  A    between atoms: C_31  and  C_36
    4  A    between atoms: C_33  and  C_42
                            x       y       z     vdW  Elec       q    Type
                         _______ _______ _______ _____ _____    ______ ____

>  <TORSDO>
F 4

$$$$
