=
 OpenBabel11072415233D

 25 28  0  0  1  0  0  0  0  0999 V2000
  161.2470  207.6930  151.4050 C   0  0  0  0  0  3  0  0  0  0  0  0
  161.9710  205.9300  147.5480 C   0  0  0  0  0  0  0  0  0  0  0  0
  161.2650  205.7570  153.0290 C   0  0  0  0  0  0  0  0  0  0  0  0
  160.5650  204.7930  150.8930 C   0  0  0  0  0  2  0  0  0  0  0  0
  161.1670  205.4670  154.2500 O   0  0  0  0  0  0  0  0  0  0  0  0
  162.2210  205.3870  146.2850 C   0  0  0  0  0  3  0  0  0  0  0  0
  161.1420  207.1690  152.6320 C   0  0  0  0  0  3  0  0  0  0  0  0
  162.2450  207.2690  147.7960 C   0  0  0  0  0  3  0  0  0  0  0  0
  161.9470  204.0790  146.0390 N   0  0  0  0  0  0  0  0  0  0  0  0
  161.1810  205.6630  149.8410 C   0  0  0  0  0  0  0  0  0  0  0  0
  161.4270  203.2670  146.9980 C   0  0  0  0  0  3  0  0  0  0  0  0
  161.5170  204.6600  152.0570 C   0  0  0  0  0  2  0  0  0  0  0  0
  161.4850  207.0270  150.0960 C   0  0  0  0  0  0  0  0  0  0  0  0
  162.0020  207.8290  149.0540 C   0  0  0  0  0  0  0  0  0  0  0  0
  161.1610  203.7700  148.2740 C   0  0  0  0  0  3  0  0  0  0  0  0
  161.4350  205.1150  148.5640 C   0  0  0  0  0  0  0  0  0  0  0  0
  161.1120  210.2010  147.5250 O   0  0  0  0  0  0  0  0  0  0  0  0
  162.2890  209.2160  149.3040 N   0  0  0  0  0  2  0  0  0  0  0  0
  161.8430  210.3480  148.5390 C   0  0  0  0  0  0  0  0  0  0  0  0
  162.6200  213.8530  147.9230 C   0  0  0  0  0  2  0  0  0  0  0  0
  162.2460  211.7260  148.9470 C   0  0  1  0  0  3  0  0  0  0  0  0
  163.0410  212.3990  147.8630 C   0  0  0  0  0  2  0  0  0  0  0  0
  161.0380  212.6120  149.1350 C   0  0  0  0  0  2  0  0  0  0  0  0
  161.4120  213.9630  148.7370 N   0  0  0  0  0  0  0  0  0  0  0  0
  160.3570  214.4530  147.8690 C   0  0  0  0  0  1  0  0  0  0  0  0
  1  7  2  0  0  0  0
  2  8  2  0  0  0  0
  2 16  1  0  0  0  0
  3  5  2  0  0  0  0
  4 12  1  0  0  0  0
  6  2  1  0  0  0  0
  7  3  1  0  0  0  0
  8 14  1  0  0  0  0
  9  6  2  0  0  0  0
  9 11  1  0  0  0  0
 10 13  1  0  0  0  0
 10  4  1  0  0  0  0
 11 15  2  0  0  0  0
 12  3  1  0  0  0  0
 13  1  1  0  0  0  0
 14 18  1  0  0  0  0
 14 13  2  0  0  0  0
 15 16  1  0  0  0  0
 16 10  2  0  0  0  0
 17 19  2  0  0  0  0
 19 18  1  0  0  0  0
 20 24  1  0  0  0  0
 21 19  1  6  0  0  0
 21 23  1  0  0  0  0
 22 20  1  0  0  0  0
 22 21  1  0  0  0  0
 24 23  1  0  0  0  0
 25 24  1  0  0  0  0
M  END
>  <MODEL>
1

>  <REMARK>
 VINA RESULT:      -8.8      0.000      0.000
  Name = 
  2 active torsions:
  status: ('A' for Active; 'I' for Inactive)
    1  A    between atoms: C_10  and  C_23
    2  A    between atoms: N_15  and  C_22
                            x       y       z     vdW  Elec       q    Type
                         _______ _______ _______ _____ _____    ______ ____

>  <TORSDO>
F 2

$$$$
=
 OpenBabel11072415233D

 25 28  0  0  1  0  0  0  0  0999 V2000
  161.5600  206.5240  147.3710 C   0  0  0  0  0  3  0  0  0  0  0  0
  160.8310  203.2210  150.0300 C   0  0  0  0  0  0  0  0  0  0  0  0
  161.2120  205.5910  145.0480 C   0  0  0  0  0  0  0  0  0  0  0  0
  161.9010  203.6790  146.4090 C   0  0  0  0  0  2  0  0  0  0  0  0
  161.2060  205.9030  143.8290 O   0  0  0  0  0  0  0  0  0  0  0  0
  160.5850  202.1710  150.9170 C   0  0  0  0  0  3  0  0  0  0  0  0
  161.5320  206.6330  146.0370 C   0  0  0  0  0  3  0  0  0  0  0  0
  160.7140  204.5360  150.4590 C   0  0  0  0  0  3  0  0  0  0  0  0
  160.7060  200.8830  150.5000 N   0  0  0  0  0  0  0  0  0  0  0  0
  161.4570  203.9990  147.8030 C   0  0  0  0  0  0  0  0  0  0  0  0
  161.0680  200.5780  149.2250 C   0  0  0  0  0  3  0  0  0  0  0  0
  160.8780  204.1920  145.4240 C   0  0  0  0  0  2  0  0  0  0  0  0
  161.3120  205.3430  148.2410 C   0  0  0  0  0  0  0  0  0  0  0  0
  160.9560  205.6010  149.5840 C   0  0  0  0  0  0  0  0  0  0  0  0
  161.3250  201.5970  148.3060 C   0  0  0  0  0  3  0  0  0  0  0  0
  161.2060  202.9390  148.7010 C   0  0  0  0  0  0  0  0  0  0  0  0
  162.3470  206.9320  151.8300 O   0  0  0  0  0  0  0  0  0  0  0  0
  160.8320  206.9600  150.0350 N   0  0  0  0  0  2  0  0  0  0  0  0
  161.5200  207.5790  151.1340 C   0  0  0  0  0  0  0  0  0  0  0  0
  160.4410  210.3000  153.3010 C   0  0  0  0  0  2  0  0  0  0  0  0
  161.2610  209.0110  151.4640 C   0  0  1  0  0  3  0  0  0  0  0  0
  160.0810  209.1480  152.3860 C   0  0  0  0  0  2  0  0  0  0  0  0
  162.4140  209.6080  152.2340 C   0  0  0  0  0  2  0  0  0  0  0  0
  161.8660  210.5870  153.1650 N   0  0  0  0  0  0  0  0  0  0  0  0
  162.4780  210.3290  154.4560 C   0  0  0  0  0  1  0  0  0  0  0  0
  1 13  1  0  0  0  0
  2  8  1  0  0  0  0
  2  6  2  0  0  0  0
  3 12  1  0  0  0  0
  3  7  1  0  0  0  0
  4 10  1  0  0  0  0
  5  3  2  0  0  0  0
  7  1  2  0  0  0  0
  9  6  1  0  0  0  0
 10 13  2  0  0  0  0
 10 16  1  0  0  0  0
 11  9  2  0  0  0  0
 12  4  1  0  0  0  0
 13 14  1  0  0  0  0
 14 18  1  0  0  0  0
 14  8  2  0  0  0  0
 15 16  2  0  0  0  0
 15 11  1  0  0  0  0
 16  2  1  0  0  0  0
 18 19  1  0  0  0  0
 19 17  2  0  0  0  0
 21 19  1  1  0  0  0
 21 23  1  0  0  0  0
 21 22  1  0  0  0  0
 22 20  1  0  0  0  0
 23 24  1  0  0  0  0
 24 20  1  0  0  0  0
 24 25  1  0  0  0  0
M  END
>  <MODEL>
2

>  <REMARK>
 VINA RESULT:      -8.3      3.347      5.335
  Name = 
  2 active torsions:
  status: ('A' for Active; 'I' for Inactive)
    1  A    between atoms: C_10  and  C_23
    2  A    between atoms: N_15  and  C_22
                            x       y       z     vdW  Elec       q    Type
                         _______ _______ _______ _____ _____    ______ ____

>  <TORSDO>
F 2

$$$$
=
 OpenBabel11072415233D

 25 28  0  0  1  0  0  0  0  0999 V2000
  162.1650  208.2460  148.8310 C   0  0  0  0  0  3  0  0  0  0  0  0
  161.1590  209.1810  152.9080 C   0  0  0  0  0  0  0  0  0  0  0  0
  161.2480  205.9240  148.4410 C   0  0  0  0  0  0  0  0  0  0  0  0
  161.7040  206.0360  150.8410 C   0  0  0  0  0  2  0  0  0  0  0  0
  161.1140  205.0280  147.5670 O   0  0  0  0  0  0  0  0  0  0  0  0
  160.8320  209.5180  154.2240 C   0  0  0  0  0  3  0  0  0  0  0  0
  161.9470  207.1650  148.0720 C   0  0  0  0  0  3  0  0  0  0  0  0
  161.4090  210.1800  151.9760 C   0  0  0  0  0  3  0  0  0  0  0  0
  160.5940  208.5420  155.1390 N   0  0  0  0  0  0  0  0  0  0  0  0
  161.5740  207.4830  151.2060 C   0  0  0  0  0  0  0  0  0  0  0  0
  160.6670  207.2250  154.8100 C   0  0  0  0  0  3  0  0  0  0  0  0
  160.6760  205.6860  149.7930 C   0  0  0  0  0  2  0  0  0  0  0  0
  161.8050  208.5080  150.2510 C   0  0  0  0  0  0  0  0  0  0  0  0
  161.7370  209.8610  150.6540 C   0  0  0  0  0  0  0  0  0  0  0  0
  160.9930  206.8430  153.5070 C   0  0  0  0  0  3  0  0  0  0  0  0
  161.2420  207.8250  152.5350 C   0  0  0  0  0  0  0  0  0  0  0  0
  160.4620  212.5210  150.4310 O   0  0  0  0  0  0  0  0  0  0  0  0
  161.9940  210.9000  149.6940 N   0  0  0  0  0  2  0  0  0  0  0  0
  161.3540  212.1830  149.6090 C   0  0  0  0  0  0  0  0  0  0  0  0
  162.5280  213.0690  146.2770 C   0  0  0  0  0  2  0  0  0  0  0  0
  161.7460  213.1410  148.5330 C   0  0  1  0  0  3  0  0  0  0  0  0
  162.8380  212.5700  147.6730 C   0  0  0  0  0  2  0  0  0  0  0  0
  160.6010  213.3850  147.5800 C   0  0  0  0  0  2  0  0  0  0  0  0
  161.1660  213.5970  146.2530 N   0  0  0  0  0  0  0  0  0  0  0  0
  160.4060  212.7690  145.3340 C   0  0  0  0  0  1  0  0  0  0  0  0
  1 13  1  0  0  0  0
  2  6  2  0  0  0  0
  3 12  1  0  0  0  0
  4 10  1  0  0  0  0
  5  3  2  0  0  0  0
  6  9  1  0  0  0  0
  7  3  1  0  0  0  0
  7  1  2  0  0  0  0
  8  2  1  0  0  0  0
 10 16  1  0  0  0  0
 11  9  2  0  0  0  0
 12  4  1  0  0  0  0
 13 14  1  0  0  0  0
 13 10  2  0  0  0  0
 14  8  2  0  0  0  0
 15 11  1  0  0  0  0
 16  2  1  0  0  0  0
 16 15  2  0  0  0  0
 18 14  1  0  0  0  0
 19 18  1  0  0  0  0
 19 17  2  0  0  0  0
 20 22  1  0  0  0  0
 21 19  1  1  0  0  0
 22 21  1  0  0  0  0
 23 21  1  0  0  0  0
 24 20  1  0  0  0  0
 24 23  1  0  0  0  0
 25 24  1  0  0  0  0
M  END
>  <MODEL>
3

>  <REMARK>
 VINA RESULT:      -8.2      2.603      4.718
  Name = 
  2 active torsions:
  status: ('A' for Active; 'I' for Inactive)
    1  A    between atoms: C_10  and  C_23
    2  A    between atoms: N_15  and  C_22
                            x       y       z     vdW  Elec       q    Type
                         _______ _______ _______ _____ _____    ______ ____

>  <TORSDO>
F 2

$$$$
=
 OpenBabel11072415233D

 25 28  0  0  1  0  0  0  0  0999 V2000
  161.6330  208.0850  149.0840 C   0  0  0  0  0  3  0  0  0  0  0  0
  161.1370  206.5820  153.0850 C   0  0  0  0  0  0  0  0  0  0  0  0
  162.1910  210.5340  149.3630 C   0  0  0  0  0  0  0  0  0  0  0  0
  160.8710  209.9490  151.3380 C   0  0  0  0  0  2  0  0  0  0  0  0
  162.4870  211.5770  148.7260 O   0  0  0  0  0  0  0  0  0  0  0  0
  160.9860  206.0630  154.3720 C   0  0  0  0  0  3  0  0  0  0  0  0
  161.9270  209.3000  148.6060 C   0  0  0  0  0  3  0  0  0  0  0  0
  161.4540  205.7390  152.0280 C   0  0  0  0  0  3  0  0  0  0  0  0
  160.6700  206.8860  155.4070 N   0  0  0  0  0  0  0  0  0  0  0  0
  161.1110  208.4880  151.5610 C   0  0  0  0  0  0  0  0  0  0  0  0
  160.4910  208.2210  155.2250 C   0  0  0  0  0  3  0  0  0  0  0  0
  162.1430  210.6000  150.8480 C   0  0  0  0  0  2  0  0  0  0  0  0
  161.4580  207.6250  150.4880 C   0  0  0  0  0  0  0  0  0  0  0  0
  161.6090  206.2410  150.7320 C   0  0  0  0  0  0  0  0  0  0  0  0
  160.6310  208.7820  153.9540 C   0  0  0  0  0  3  0  0  0  0  0  0
  160.9600  207.9620  152.8630 C   0  0  0  0  0  0  0  0  0  0  0  0
  160.1970  203.7970  149.8440 O   0  0  0  0  0  0  0  0  0  0  0  0
  161.9380  205.3620  149.6420 N   0  0  0  0  0  2  0  0  0  0  0  0
  161.2330  204.1780  149.2360 C   0  0  0  0  0  0  0  0  0  0  0  0
  160.8230  202.2630  146.1650 C   0  0  0  0  0  2  0  0  0  0  0  0
  161.7250  203.3790  148.0760 C   0  0  1  0  0  3  0  0  0  0  0  0
  160.7220  202.3330  147.6740 C   0  0  0  0  0  2  0  0  0  0  0  0
  161.8810  204.2440  146.8480 C   0  0  0  0  0  2  0  0  0  0  0  0
  161.5680  203.4240  145.6840 N   0  0  0  0  0  0  0  0  0  0  0  0
  160.6610  204.1980  144.8560 C   0  0  0  0  0  1  0  0  0  0  0  0
  1 13  1  0  0  0  0
  2  6  2  0  0  0  0
  3 12  1  0  0  0  0
  4 10  1  0  0  0  0
  5  3  2  0  0  0  0
  6  9  1  0  0  0  0
  7  1  2  0  0  0  0
  7  3  1  0  0  0  0
  8  2  1  0  0  0  0
 10 16  1  0  0  0  0
 11  9  2  0  0  0  0
 12  4  1  0  0  0  0
 13 14  1  0  0  0  0
 13 10  2  0  0  0  0
 14  8  2  0  0  0  0
 15 11  1  0  0  0  0
 16  2  1  0  0  0  0
 16 15  2  0  0  0  0
 18 14  1  0  0  0  0
 19 18  1  0  0  0  0
 19 17  2  0  0  0  0
 20 22  1  0  0  0  0
 21 19  1  1  0  0  0
 22 21  1  0  0  0  0
 23 21  1  0  0  0  0
 24 20  1  0  0  0  0
 24 23  1  0  0  0  0
 25 24  1  0  0  0  0
M  END
>  <MODEL>
4

>  <REMARK>
 VINA RESULT:      -8.1      2.735      7.320
  Name = 
  2 active torsions:
  status: ('A' for Active; 'I' for Inactive)
    1  A    between atoms: C_10  and  C_23
    2  A    between atoms: N_15  and  C_22
                            x       y       z     vdW  Elec       q    Type
                         _______ _______ _______ _____ _____    ______ ____

>  <TORSDO>
F 2

$$$$
=
 OpenBabel11072415233D

 25 28  0  0  1  0  0  0  0  0999 V2000
  162.3310  207.9320  151.2620 C   0  0  0  0  0  3  0  0  0  0  0  0
  161.0030  203.8460  151.0360 C   0  0  0  0  0  0  0  0  0  0  0  0
  161.8350  208.9140  148.9870 C   0  0  0  0  0  0  0  0  0  0  0  0
  162.1590  206.5220  148.5940 C   0  0  0  0  0  2  0  0  0  0  0  0
  161.8920  209.9760  148.3150 O   0  0  0  0  0  0  0  0  0  0  0  0
  160.5670  202.5200  150.9970 C   0  0  0  0  0  3  0  0  0  0  0  0
  162.3310  208.9320  150.3720 C   0  0  0  0  0  3  0  0  0  0  0  0
  161.1220  204.5030  152.2540 C   0  0  0  0  0  3  0  0  0  0  0  0
  160.4560  201.8730  149.8070 N   0  0  0  0  0  0  0  0  0  0  0  0
  161.7720  205.8500  149.8750 C   0  0  0  0  0  0  0  0  0  0  0  0
  160.7640  202.4860  148.6320 C   0  0  0  0  0  3  0  0  0  0  0  0
  161.2510  207.7030  148.3500 C   0  0  0  0  0  2  0  0  0  0  0  0
  161.8690  206.5240  151.1210 C   0  0  0  0  0  0  0  0  0  0  0  0
  161.5580  205.8310  152.3120 C   0  0  0  0  0  0  0  0  0  0  0  0
  161.2060  203.8100  148.6260 C   0  0  0  0  0  3  0  0  0  0  0  0
  161.3290  204.5090  149.8370 C   0  0  0  0  0  0  0  0  0  0  0  0
  160.0810  208.2040  153.2830 O   0  0  0  0  0  0  0  0  0  0  0  0
  161.6780  206.5060  153.5760 N   0  0  0  0  0  2  0  0  0  0  0  0
  160.9470  207.6610  154.0190 C   0  0  0  0  0  0  0  0  0  0  0  0
  161.3970  210.3870  156.3920 C   0  0  0  0  0  2  0  0  0  0  0  0
  161.2100  208.2350  155.3710 C   0  0  1  0  0  3  0  0  0  0  0  0
  161.9560  209.5360  155.2710 C   0  0  0  0  0  2  0  0  0  0  0  0
  159.9200  208.5920  156.0690 C   0  0  0  0  0  2  0  0  0  0  0  0
  160.1700  209.7710  156.8890 N   0  0  0  0  0  0  0  0  0  0  0  0
  159.0890  210.7030  156.6270 C   0  0  0  0  0  1  0  0  0  0  0  0
  2  8  1  0  0  0  0
  3  7  1  0  0  0  0
  4 10  1  0  0  0  0
  5  3  2  0  0  0  0
  6  2  1  0  0  0  0
  7  1  2  0  0  0  0
  8 14  2  0  0  0  0
  9  6  2  0  0  0  0
 10 13  2  0  0  0  0
 11  9  1  0  0  0  0
 12  4  1  0  0  0  0
 12  3  1  0  0  0  0
 13  1  1  0  0  0  0
 13 14  1  0  0  0  0
 14 18  1  0  0  0  0
 15 11  2  0  0  0  0
 15 16  1  0  0  0  0
 16 10  1  0  0  0  0
 16  2  2  0  0  0  0
 17 19  2  0  0  0  0
 18 19  1  0  0  0  0
 20 24  1  0  0  0  0
 21 19  1  6  0  0  0
 21 23  1  0  0  0  0
 22 21  1  0  0  0  0
 22 20  1  0  0  0  0
 23 24  1  0  0  0  0
 25 24  1  0  0  0  0
M  END
>  <MODEL>
5

>  <REMARK>
 VINA RESULT:      -8.0      3.221      5.658
  Name = 
  2 active torsions:
  status: ('A' for Active; 'I' for Inactive)
    1  A    between atoms: C_10  and  C_23
    2  A    between atoms: N_15  and  C_22
                            x       y       z     vdW  Elec       q    Type
                         _______ _______ _______ _____ _____    ______ ____

>  <TORSDO>
F 2

$$$$
=
 OpenBabel11072415233D

 25 28  0  0  1  0  0  0  0  0999 V2000
  161.5720  207.3390  150.1320 C   0  0  0  0  0  3  0  0  0  0  0  0
  160.9300  207.0890  154.3790 C   0  0  0  0  0  0  0  0  0  0  0  0
  162.0970  209.7700  149.6850 C   0  0  0  0  0  0  0  0  0  0  0  0
  160.7040  209.7750  151.6960 C   0  0  0  0  0  2  0  0  0  0  0  0
  162.4080  210.5810  148.7750 O   0  0  0  0  0  0  0  0  0  0  0  0
  160.7330  206.9760  155.7560 C   0  0  0  0  0  3  0  0  0  0  0  0
  161.8740  208.3610  149.3230 C   0  0  0  0  0  3  0  0  0  0  0  0
  161.2970  205.9760  153.6340 C   0  0  0  0  0  3  0  0  0  0  0  0
  160.3680  208.0630  156.4850 N   0  0  0  0  0  0  0  0  0  0  0  0
  160.9480  208.4530  152.3550 C   0  0  0  0  0  0  0  0  0  0  0  0
  160.1840  209.2800  155.9060 C   0  0  0  0  0  3  0  0  0  0  0  0
  161.9880  210.2750  151.0790 C   0  0  0  0  0  2  0  0  0  0  0  0
  161.3460  207.3150  151.6020 C   0  0  0  0  0  0  0  0  0  0  0  0
  161.4990  206.0710  152.2540 C   0  0  0  0  0  0  0  0  0  0  0  0
  160.3700  209.4380  154.5310 C   0  0  0  0  0  3  0  0  0  0  0  0
  160.7500  208.3370  153.7480 C   0  0  0  0  0  0  0  0  0  0  0  0
  159.7730  204.2470  150.6900 O   0  0  0  0  0  0  0  0  0  0  0  0
  161.8790  204.9140  151.4890 N   0  0  0  0  0  2  0  0  0  0  0  0
  161.0140  204.0430  150.7410 C   0  0  0  0  0  0  0  0  0  0  0  0
  160.8070  200.9370  148.8510 C   0  0  0  0  0  2  0  0  0  0  0  0
  161.5870  202.8770  150.0070 C   0  0  1  0  0  3  0  0  0  0  0  0
  160.7310  201.6540  150.1830 C   0  0  0  0  0  2  0  0  0  0  0  0
  161.5920  203.1230  148.5170 C   0  0  0  0  0  2  0  0  0  0  0  0
  161.3700  201.8440  147.8550 N   0  0  0  0  0  0  0  0  0  0  0  0
  160.3450  202.0620  146.8500 C   0  0  0  0  0  1  0  0  0  0  0  0
  1 13  1  0  0  0  0
  2  6  2  0  0  0  0
  3 12  1  0  0  0  0
  4 10  1  0  0  0  0
  5  3  2  0  0  0  0
  6  9  1  0  0  0  0
  7  3  1  0  0  0  0
  7  1  2  0  0  0  0
  8  2  1  0  0  0  0
 10 16  1  0  0  0  0
 11  9  2  0  0  0  0
 12  4  1  0  0  0  0
 13 14  1  0  0  0  0
 13 10  2  0  0  0  0
 14  8  2  0  0  0  0
 15 11  1  0  0  0  0
 16  2  1  0  0  0  0
 16 15  2  0  0  0  0
 17 19  2  0  0  0  0
 18 14  1  0  0  0  0
 19 18  1  0  0  0  0
 20 22  1  0  0  0  0
 21 22  1  0  0  0  0
 21 19  1  1  0  0  0
 23 21  1  0  0  0  0
 24 23  1  0  0  0  0
 24 20  1  0  0  0  0
 25 24  1  0  0  0  0
M  END
>  <MODEL>
6

>  <REMARK>
 VINA RESULT:      -7.9      3.190      8.023
  Name = 
  2 active torsions:
  status: ('A' for Active; 'I' for Inactive)
    1  A    between atoms: C_10  and  C_23
    2  A    between atoms: N_15  and  C_22
                            x       y       z     vdW  Elec       q    Type
                         _______ _______ _______ _____ _____    ______ ____

>  <TORSDO>
F 2

$$$$
=
 OpenBabel11072415233D

 25 28  0  0  1  0  0  0  0  0999 V2000
  160.8900  205.4010  151.1730 C   0  0  0  0  0  3  0  0  0  0  0  0
  161.9200  205.8740  147.0230 C   0  0  0  0  0  0  0  0  0  0  0  0
  161.0690  202.9200  151.6200 C   0  0  0  0  0  0  0  0  0  0  0  0
  160.5450  203.1060  149.2380 C   0  0  0  0  0  2  0  0  0  0  0  0
  160.9670  202.0500  152.5230 O   0  0  0  0  0  0  0  0  0  0  0  0
  162.2660  206.0590  145.6830 C   0  0  0  0  0  3  0  0  0  0  0  0
  160.8050  204.3260  151.9660 C   0  0  0  0  0  3  0  0  0  0  0  0
  162.0380  206.9250  147.9230 C   0  0  0  0  0  3  0  0  0  0  0  0
  162.1440  205.0340  144.7990 N   0  0  0  0  0  0  0  0  0  0  0  0
  161.0930  204.4310  148.8090 C   0  0  0  0  0  0  0  0  0  0  0  0
  161.6870  203.8120  145.1840 C   0  0  0  0  0  3  0  0  0  0  0  0
  161.4690  202.4830  150.2560 C   0  0  0  0  0  2  0  0  0  0  0  0
  161.2390  205.5020  149.7300 C   0  0  0  0  0  0  0  0  0  0  0  0
  161.6970  206.7570  149.2690 C   0  0  0  0  0  0  0  0  0  0  0  0
  161.3290  203.5840  146.5140 C   0  0  0  0  0  3  0  0  0  0  0  0
  161.4450  204.6200  147.4540 C   0  0  0  0  0  0  0  0  0  0  0  0
  162.0270  209.6400  148.6890 O   0  0  0  0  0  0  0  0  0  0  0  0
  161.8220  207.8490  150.1970 N   0  0  0  0  0  2  0  0  0  0  0  0
  161.9850  209.2420  149.8830 C   0  0  0  0  0  0  0  0  0  0  0  0
  160.6930  211.3170  152.5830 C   0  0  0  0  0  2  0  0  0  0  0  0
  162.1060  210.2430  150.9840 C   0  0  1  0  0  3  0  0  0  0  0  0
  160.8590  211.0740  151.0970 C   0  0  0  0  0  2  0  0  0  0  0  0
  162.2300  209.5630  152.3260 C   0  0  0  0  0  2  0  0  0  0  0  0
  161.5690  210.4050  153.3140 N   0  0  0  0  0  0  0  0  0  0  0  0
  160.7150  209.5370  154.1040 C   0  0  0  0  0  1  0  0  0  0  0  0
  1  7  2  0  0  0  0
  2 16  2  0  0  0  0
  2  8  1  0  0  0  0
  3  7  1  0  0  0  0
  3  5  2  0  0  0  0
  4 12  1  0  0  0  0
  6  2  1  0  0  0  0
  8 14  2  0  0  0  0
  9 11  1  0  0  0  0
  9  6  2  0  0  0  0
 10  4  1  0  0  0  0
 10 13  2  0  0  0  0
 11 15  2  0  0  0  0
 12  3  1  0  0  0  0
 13  1  1  0  0  0  0
 14 13  1  0  0  0  0
 14 18  1  0  0  0  0
 15 16  1  0  0  0  0
 16 10  1  0  0  0  0
 17 19  2  0  0  0  0
 19 18  1  0  0  0  0
 20 24  1  0  0  0  0
 21 19  1  6  0  0  0
 21 22  1  0  0  0  0
 21 23  1  0  0  0  0
 22 20  1  0  0  0  0
 23 24  1  0  0  0  0
 24 25  1  0  0  0  0
M  END
>  <MODEL>
7

>  <REMARK>
 VINA RESULT:      -7.9      2.452      3.176
  Name = 
  2 active torsions:
  status: ('A' for Active; 'I' for Inactive)
    1  A    between atoms: C_10  and  C_23
    2  A    between atoms: N_15  and  C_22
                            x       y       z     vdW  Elec       q    Type
                         _______ _______ _______ _____ _____    ______ ____

>  <TORSDO>
F 2

$$$$
=
 OpenBabel11072415233D

 25 28  0  0  1  0  0  0  0  0999 V2000
  161.9940  205.2010  150.6030 C   0  0  0  0  0  3  0  0  0  0  0  0
  161.3300  209.3100  151.6910 C   0  0  0  0  0  0  0  0  0  0  0  0
  160.8310  203.8480  152.3930 C   0  0  0  0  0  0  0  0  0  0  0  0
  161.4390  205.9550  153.4770 C   0  0  0  0  0  2  0  0  0  0  0  0
  160.5580  202.6720  152.7470 O   0  0  0  0  0  0  0  0  0  0  0  0
  161.1170  210.6530  152.0110 C   0  0  0  0  0  3  0  0  0  0  0  0
  161.6250  204.0460  151.1700 C   0  0  0  0  0  3  0  0  0  0  0  0
  161.6200  208.9450  150.3830 C   0  0  0  0  0  3  0  0  0  0  0  0
  160.8390  211.0130  153.2920 N   0  0  0  0  0  0  0  0  0  0  0  0
  161.4730  206.9740  152.3800 C   0  0  0  0  0  0  0  0  0  0  0  0
  160.7630  210.0920  154.2900 C   0  0  0  0  0  3  0  0  0  0  0  0
  160.3200  204.9740  153.2190 C   0  0  0  0  0  2  0  0  0  0  0  0
  161.7460  206.6030  151.0360 C   0  0  0  0  0  0  0  0  0  0  0  0
  161.8360  207.6050  150.0440 C   0  0  0  0  0  0  0  0  0  0  0  0
  160.9710  208.7390  154.0140 C   0  0  0  0  0  3  0  0  0  0  0  0
  161.2570  208.3320  152.7020 C   0  0  0  0  0  0  0  0  0  0  0  0
  160.0850  206.2670  148.0700 O   0  0  0  0  0  0  0  0  0  0  0  0
  162.1350  207.2330  148.6880 N   0  0  0  0  0  2  0  0  0  0  0  0
  161.2620  206.5800  147.7520 C   0  0  0  0  0  0  0  0  0  0  0  0
  162.3320  204.3370  145.0890 C   0  0  0  0  0  2  0  0  0  0  0  0
  161.7480  206.2630  146.3770 C   0  0  1  0  0  3  0  0  0  0  0  0
  162.6440  205.0560  146.3850 C   0  0  0  0  0  2  0  0  0  0  0  0
  160.6030  205.8770  145.4720 C   0  0  0  0  0  2  0  0  0  0  0  0
  161.0970  204.8810  144.5300 N   0  0  0  0  0  0  0  0  0  0  0  0
  160.1260  203.8020  144.5110 C   0  0  0  0  0  1  0  0  0  0  0  0
  1 13  1  0  0  0  0
  1  7  2  0  0  0  0
  2  6  2  0  0  0  0
  2 16  1  0  0  0  0
  3  5  2  0  0  0  0
  3 12  1  0  0  0  0
  6  9  1  0  0  0  0
  7  3  1  0  0  0  0
  8  2  1  0  0  0  0
  9 11  2  0  0  0  0
 10 16  1  0  0  0  0
 10  4  1  0  0  0  0
 12  4  1  0  0  0  0
 13 10  2  0  0  0  0
 14  8  2  0  0  0  0
 14 13  1  0  0  0  0
 15 11  1  0  0  0  0
 16 15  2  0  0  0  0
 18 14  1  0  0  0  0
 19 17  2  0  0  0  0
 19 18  1  0  0  0  0
 20 22  1  0  0  0  0
 21 22  1  0  0  0  0
 21 19  1  1  0  0  0
 23 21  1  0  0  0  0
 24 20  1  0  0  0  0
 24 23  1  0  0  0  0
 25 24  1  0  0  0  0
M  END
>  <MODEL>
8

>  <REMARK>
 VINA RESULT:      -7.8      2.831      6.185
  Name = 
  2 active torsions:
  status: ('A' for Active; 'I' for Inactive)
    1  A    between atoms: C_10  and  C_23
    2  A    between atoms: N_15  and  C_22
                            x       y       z     vdW  Elec       q    Type
                         _______ _______ _______ _____ _____    ______ ____

>  <TORSDO>
F 2

$$$$
=
 OpenBabel11072415233D

 25 28  0  0  1  0  0  0  0  0999 V2000
  161.9620  206.5780  146.8180 C   0  0  0  0  0  3  0  0  0  0  0  0
  161.2030  205.8890  150.9960 C   0  0  0  0  0  0  0  0  0  0  0  0
  161.1400  204.4960  145.6450 C   0  0  0  0  0  0  0  0  0  0  0  0
  161.7600  203.7610  147.8940 C   0  0  0  0  0  2  0  0  0  0  0  0
  160.9910  203.9720  144.5110 O   0  0  0  0  0  0  0  0  0  0  0  0
  160.9530  205.7000  152.3570 C   0  0  0  0  0  3  0  0  0  0  0  0
  161.7470  205.8340  145.7260 C   0  0  0  0  0  3  0  0  0  0  0  0
  161.3330  207.1740  150.4850 C   0  0  0  0  0  3  0  0  0  0  0  0
  160.8310  204.4430  152.8600 N   0  0  0  0  0  0  0  0  0  0  0  0
  161.5820  204.9620  148.7710 C   0  0  0  0  0  0  0  0  0  0  0  0
  160.9490  203.3440  152.0670 C   0  0  0  0  0  3  0  0  0  0  0  0
  160.6790  203.7410  146.8410 C   0  0  0  0  0  2  0  0  0  0  0  0
  161.6910  206.2790  148.2500 C   0  0  0  0  0  0  0  0  0  0  0  0
  161.5830  207.3830  149.1250 C   0  0  0  0  0  0  0  0  0  0  0  0
  161.2000  203.4880  150.7000 C   0  0  0  0  0  3  0  0  0  0  0  0
  161.3280  204.7720  150.1470 C   0  0  0  0  0  0  0  0  0  0  0  0
  162.1010  209.8960  150.5970 O   0  0  0  0  0  0  0  0  0  0  0  0
  161.7160  208.7160  148.6020 N   0  0  0  0  0  2  0  0  0  0  0  0
  161.9650  209.9200  149.3450 C   0  0  0  0  0  0  0  0  0  0  0  0
  160.6620  212.6860  147.3660 C   0  0  0  0  0  2  0  0  0  0  0  0
  162.0680  211.2270  148.6310 C   0  0  1  0  0  3  0  0  0  0  0  0
  161.1660  211.2590  147.4300 C   0  0  0  0  0  2  0  0  0  0  0  0
  161.5810  212.3610  149.5010 C   0  0  0  0  0  2  0  0  0  0  0  0
  160.9600  213.3520  148.6310 N   0  0  0  0  0  0  0  0  0  0  0  0
  159.6870  213.7040  149.2360 C   0  0  0  0  0  1  0  0  0  0  0  0
  1 13  1  0  0  0  0
  2  6  2  0  0  0  0
  3  7  1  0  0  0  0
  3 12  1  0  0  0  0
  4 10  1  0  0  0  0
  5  3  2  0  0  0  0
  6  9  1  0  0  0  0
  7  1  2  0  0  0  0
  8  2  1  0  0  0  0
 10 16  1  0  0  0  0
 11  9  2  0  0  0  0
 12  4  1  0  0  0  0
 13 10  2  0  0  0  0
 13 14  1  0  0  0  0
 14  8  2  0  0  0  0
 15 11  1  0  0  0  0
 16 15  2  0  0  0  0
 16  2  1  0  0  0  0
 18 14  1  0  0  0  0
 18 19  1  0  0  0  0
 19 17  2  0  0  0  0
 20 22  1  0  0  0  0
 20 24  1  0  0  0  0
 21 19  1  1  0  0  0
 21 23  1  0  0  0  0
 22 21  1  0  0  0  0
 24 25  1  0  0  0  0
 24 23  1  0  0  0  0
M  END
>  <MODEL>
9

>  <REMARK>
 VINA RESULT:      -7.7      2.207      4.201
  Name = 
  2 active torsions:
  status: ('A' for Active; 'I' for Inactive)
    1  A    between atoms: C_10  and  C_23
    2  A    between atoms: N_15  and  C_22
                            x       y       z     vdW  Elec       q    Type
                         _______ _______ _______ _____ _____    ______ ____

>  <TORSDO>
F 2

$$$$
