=
 OpenBabel11072412343D

 51 58  0  0  1  0  0  0  0  0999 V2000
  161.7240  214.4530  143.6870 C   0  0  0  0  0  2  0  0  0  0  0  0
  162.2520  214.2070  142.2800 C   0  0  0  0  0  2  0  0  0  0  0  0
  160.3810  210.2790  154.4970 N   0  0  0  0  0  0  0  0  0  0  0  0
  161.5840  211.7750  142.4510 C   0  0  1  0  0  3  0  0  0  0  0  0
  160.0470  213.1010  146.3420 C   0  0  0  0  0  0  0  0  0  0  0  0
  158.5510  212.5350  152.0970 C   0  0  2  0  0  3  0  0  0  0  0  0
  162.9700  211.1620  142.3410 C   0  0  0  0  0  1  0  0  0  0  0  0
  161.7210  209.6970  154.6770 C   0  0  2  0  0  3  0  0  0  0  0  0
  162.1480  210.0570  152.2470 C   0  0  1  0  0  3  0  0  0  0  0  0
  159.9680  210.7880  153.2080 C   0  0  2  0  0  3  0  0  0  0  0  0
  157.3750  212.4030  147.1100 O   0  0  0  0  0  0  0  0  0  0  0  0
  159.7100  212.0980  144.1290 C   0  0  0  0  0  0  0  0  0  0  0  0
  155.9630  213.7550  149.1240 C   0  0  0  0  0  2  0  0  0  0  0  0
  161.1450  211.3970  149.7230 O   0  0  0  0  0  0  0  0  0  0  0  0
  158.9050  211.6410  143.2700 O   0  0  0  0  0  0  0  0  0  0  0  0
  161.1970  211.9900  143.9240 C   0  0  2  0  0  3  0  0  0  0  0  0
  163.6560  211.7640  148.1930 O   0  0  0  0  0  1  0  0  0  0  0  0
  162.1930  209.0520  153.3860 C   0  0  0  0  0  2  0  0  0  0  0  0
  159.3650  212.2450  150.9230 N   0  0  0  0  0  0  0  0  0  0  0  0
  160.4050  211.4800  150.9070 C   0  0  0  0  0  0  0  0  0  0  0  0
  162.5510  213.2660  146.8980 O   0  0  0  0  0  0  0  0  0  0  0  0
  161.9200  213.2010  144.5350 C   0  0  2  0  0  3  0  0  0  0  0  0
  157.0960  214.1250  151.2260 C   0  0  1  0  0  3  0  0  0  0  0  0
  155.7350  214.2320  150.5530 C   0  0  0  0  0  2  0  0  0  0  0  0
  158.5690  211.3370  153.0440 C   0  0  0  0  0  2  0  0  0  0  0  0
  162.5360  209.3120  150.9790 C   0  0  0  0  0  1  0  0  0  0  0  0
  159.2120  212.6220  145.3230 O   0  0  0  0  0  0  0  0  0  0  0  0
  161.8170  211.0560  147.0840 O   0  0  0  0  0  1  0  0  0  0  0  0
  162.3900  212.1480  147.7480 C   0  0  0  0  0  0  0  0  0  0  0  0
  157.2290  212.7830  151.6740 O   0  0  0  0  0  0  0  0  0  0  0  0
  161.4910  213.4720  145.9790 C   0  0  1  0  0  3  0  0  0  0  0  0
  160.7850  210.7130  152.1290 C   0  0  1  0  0  3  0  0  0  0  0  0
  157.3930  213.8930  148.8930 N   0  0  0  0  0  0  0  0  0  0  0  0
  160.4800  213.6130  148.7120 C   0  0  0  0  0  2  0  0  0  0  0  0
  161.5640  212.5440  148.9760 C   0  0  1  0  0  3  0  0  0  0  0  0
  161.4880  213.0610  141.6270 C   0  0  0  0  0  2  0  0  0  0  0  0
  159.5450  213.2720  147.5860 C   0  0  0  0  0  0  0  0  0  0  0  0
  158.0380  214.4530  150.0640 C   0  0  0  0  0  2  0  0  0  0  0  0
  158.0700  213.1470  147.8530 C   0  0  0  0  0  0  0  0  0  0  0  0
  159.6440  210.7250  155.6780 C   0  0  0  0  0  2  0  0  0  0  0  0
  159.4030  212.2200  155.6050 C   0  0  0  0  0  2  0  0  0  0  0  0
  158.1070  212.5430  156.1810 N   0  0  0  0  0  2  0  0  0  0  0  0
  157.6980  213.8120  155.6100 C   0  0  2  0  0  3  0  0  0  0  0  0
  156.7120  214.3670  156.3770 O   0  0  0  0  0  0  0  0  0  0  0  0
  155.6380  213.2800  154.1920 O   0  0  0  0  0  0  0  0  0  0  0  0
  156.4370  213.6810  155.0800 C   0  0  0  0  0  0  0  0  0  0  0  0
  161.7210  208.6520  155.7830 C   0  0  0  0  0  2  0  0  0  0  0  0
  161.7760  207.2590  155.1800 C   0  0  0  0  0  2  0  0  0  0  0  0
  160.2790  206.3820  153.4530 O   0  0  0  0  0  0  0  0  0  0  0  0
  160.4520  206.8630  154.7260 N   0  0  0  0  0  0  0  0  0  0  0  0
  159.4760  206.9460  155.4980 O   0  0  0  0  0  0  0  0  0  0  0  0
  2  1  1  0  0  0  0
  3  8  1  0  0  0  0
  3 40  1  0  0  0  0
  4  7  1  1  0  0  0
  4 16  1  0  0  0  0
  5 37  2  0  0  0  0
  6 25  1  1  0  0  0
  8 47  1  1  0  0  0
  9 26  1  6  0  0  0
  9 18  1  0  0  0  0
 10 25  1  6  0  0  0
 10  3  1  0  0  0  0
 11 39  2  0  0  0  0
 12 27  1  0  0  0  0
 13 24  1  0  0  0  0
 14 20  1  0  0  0  0
 15 12  2  0  0  0  0
 16 12  1  6  0  0  0
 16 22  1  0  0  0  0
 18  8  1  0  0  0  0
 19  6  1  0  0  0  0
 20 19  2  0  0  0  0
 21 29  1  0  0  0  0
 22  1  1  6  0  0  0
 22 31  1  0  0  0  0
 23 38  1  6  0  0  0
 23 30  1  0  0  0  0
 24 23  1  0  0  0  0
 27  5  1  0  0  0  0
 28 29  1  0  0  0  0
 29 17  1  0  0  0  0
 29 35  1  0  0  0  0
 30  6  1  0  0  0  0
 31  5  1  1  0  0  0
 31 21  1  0  0  0  0
 32 20  1  1  0  0  0
 32  9  1  0  0  0  0
 32 10  1  0  0  0  0
 33 13  1  0  0  0  0
 33 38  1  0  0  0  0
 35 34  1  6  0  0  0
 35 14  1  0  0  0  0
 36  2  1  0  0  0  0
 36  4  1  0  0  0  0
 37 39  1  0  0  0  0
 37 34  1  0  0  0  0
 39 33  1  0  0  0  0
 41 40  1  0  0  0  0
 41 42  1  0  0  0  0
 43 42  1  1  0  0  0
 43 44  1  0  0  0  0
 45 46  2  0  0  0  0
 46 43  1  0  0  0  0
 46 44  1  0  0  0  0
 48 47  1  0  0  0  0
 49 50  2  0  0  0  0
 50 48  1  0  0  0  0
 50 51  2  0  0  0  0
M  END
>  <MODEL>
1

>  <REMARK>
 VINA RESULT:       0.8      0.000      0.000
  Name = 
  7 active torsions:
  status: ('A' for Active; 'I' for Inactive)
    1  A    between atoms: N_3  and  C_23
    2  A    between atoms: C_4  and  N_37
    3  A    between atoms: C_9  and  N_35
    4  A    between atoms: C_9  and  C_38
    5  A    between atoms: C_10  and  C_38
    6  A    between atoms: C_23  and  C_25
    7  A    between atoms: C_25  and  N_37
                            x       y       z     vdW  Elec       q    Type
                         _______ _______ _______ _____ _____    ______ ____

>  <TORSDO>
F 7

$$$$
=
 OpenBabel11072412343D

 51 58  0  0  1  0  0  0  0  0999 V2000
  163.5960  205.3400  146.5040 C   0  0  0  0  0  2  0  0  0  0  0  0
  163.5300  203.9690  145.8430 C   0  0  0  0  0  2  0  0  0  0  0  0
  159.6810  212.2880  155.0160 N   0  0  0  0  0  0  0  0  0  0  0  0
  161.0460  203.8640  146.3010 C   0  0  1  0  0  3  0  0  0  0  0  0
  161.7860  207.8870  147.8910 C   0  0  0  0  0  0  0  0  0  0  0  0
  160.8930  212.5910  151.4620 C   0  0  2  0  0  3  0  0  0  0  0  0
  161.0490  202.6590  147.2290 C   0  0  0  0  0  1  0  0  0  0  0  0
  159.7050  211.3180  156.1230 C   0  0  2  0  0  3  0  0  0  0  0  0
  160.1080  209.5060  154.4570 C   0  0  1  0  0  3  0  0  0  0  0  0
  159.9230  211.8600  153.6570 C   0  0  2  0  0  3  0  0  0  0  0  0
  160.0900  210.0510  147.0820 O   0  0  0  0  0  0  0  0  0  0  0  0
  160.6440  206.3670  146.3410 C   0  0  0  0  0  0  0  0  0  0  0  0
  160.8280  212.7470  147.3390 C   0  0  0  0  0  2  0  0  0  0  0  0
  160.8180  208.8980  151.5760 O   0  0  0  0  0  0  0  0  0  0  0  0
  159.8640  206.2250  145.3580 O   0  0  0  0  0  0  0  0  0  0  0  0
  161.1450  205.1710  147.1050 C   0  0  2  0  0  3  0  0  0  0  0  0
  162.1150  206.2450  151.8200 O   0  0  0  0  0  1  0  0  0  0  0  0
  159.2560  209.9520  155.6340 C   0  0  0  0  0  2  0  0  0  0  0  0
  160.9130  211.1660  151.1580 N   0  0  0  0  0  0  0  0  0  0  0  0
  160.6400  210.2200  151.9940 C   0  0  0  0  0  0  0  0  0  0  0  0
  162.9820  206.5700  149.7460 O   0  0  0  0  0  0  0  0  0  0  0  0
  162.5680  205.4170  147.6280 C   0  0  2  0  0  3  0  0  0  0  0  0
  161.7130  213.4650  149.4690 C   0  0  1  0  0  3  0  0  0  0  0  0
  161.2280  213.9900  148.1260 C   0  0  0  0  0  2  0  0  0  0  0  0
  159.8460  212.8730  152.5380 C   0  0  0  0  0  2  0  0  0  0  0  0
  159.5350  208.1860  153.9660 C   0  0  0  0  0  1  0  0  0  0  0  0
  160.9670  207.6530  146.7780 O   0  0  0  0  0  0  0  0  0  0  0  0
  160.6740  206.5820  150.1100 O   0  0  0  0  0  1  0  0  0  0  0  0
  161.9310  206.9330  150.6190 C   0  0  0  0  0  0  0  0  0  0  0  0
  160.5620  213.2940  150.2850 O   0  0  0  0  0  0  0  0  0  0  0  0
  162.6990  206.7500  148.3690 C   0  0  1  0  0  3  0  0  0  0  0  0
  160.1450  210.5560  153.3610 C   0  0  1  0  0  3  0  0  0  0  0  0
  161.5290  211.6420  147.9770 N   0  0  0  0  0  0  0  0  0  0  0  0
  162.5260  209.3070  149.7630 C   0  0  0  0  0  2  0  0  0  0  0  0
  162.0050  208.4330  150.9250 C   0  0  1  0  0  3  0  0  0  0  0  0
  162.1470  203.7420  145.2450 C   0  0  0  0  0  2  0  0  0  0  0  0
  161.7880  209.1100  148.4690 C   0  0  0  0  0  0  0  0  0  0  0  0
  162.3500  212.1320  149.0650 C   0  0  0  0  0  2  0  0  0  0  0  0
  161.0830  210.2730  147.8280 C   0  0  0  0  0  0  0  0  0  0  0  0
  159.8340  213.7090  155.3250 C   0  0  0  0  0  2  0  0  0  0  0  0
  158.5370  214.4420  155.0490 C   0  0  0  0  0  2  0  0  0  0  0  0
  158.0840  214.1600  153.6950 N   0  0  0  0  0  2  0  0  0  0  0  0
  156.6500  213.9580  153.7650 C   0  0  2  0  0  3  0  0  0  0  0  0
  156.3610  212.6350  153.5780 O   0  0  0  0  0  0  0  0  0  0  0  0
  155.8470  213.9870  151.3380 O   0  0  0  0  0  0  0  0  0  0  0  0
  156.1760  213.6620  152.5090 C   0  0  0  0  0  0  0  0  0  0  0  0
  158.7960  211.7600  157.2600 C   0  0  0  0  0  2  0  0  0  0  0  0
  157.3420  211.6570  156.8340 C   0  0  0  0  0  2  0  0  0  0  0  0
  155.2940  212.9680  157.1150 O   0  0  0  0  0  0  0  0  0  0  0  0
  156.6650  212.9220  157.0750 N   0  0  0  0  0  0  0  0  0  0  0  0
  157.3290  213.9600  157.2600 O   0  0  0  0  0  0  0  0  0  0  0  0
  2  1  1  0  0  0  0
  3 40  1  0  0  0  0
  3  8  1  0  0  0  0
  4 16  1  0  0  0  0
  4  7  1  1  0  0  0
  5 37  2  0  0  0  0
  6 25  1  1  0  0  0
  8 47  1  1  0  0  0
  9 26  1  6  0  0  0
  9 18  1  0  0  0  0
 10 25  1  6  0  0  0
 10  3  1  0  0  0  0
 11 39  2  0  0  0  0
 12 27  1  0  0  0  0
 13 33  1  0  0  0  0
 13 24  1  0  0  0  0
 14 20  1  0  0  0  0
 15 12  2  0  0  0  0
 16 12  1  6  0  0  0
 16 22  1  0  0  0  0
 18  8  1  0  0  0  0
 19  6  1  0  0  0  0
 19 20  2  0  0  0  0
 21 29  1  0  0  0  0
 22  1  1  6  0  0  0
 22 31  1  0  0  0  0
 23 24  1  6  0  0  0
 23 30  1  0  0  0  0
 27  5  1  0  0  0  0
 28 29  1  0  0  0  0
 29 35  1  0  0  0  0
 29 17  1  0  0  0  0
 30  6  1  0  0  0  0
 31  5  1  1  0  0  0
 31 21  1  0  0  0  0
 32 20  1  1  0  0  0
 32 10  1  0  0  0  0
 32  9  1  0  0  0  0
 33 38  1  0  0  0  0
 35 34  1  6  0  0  0
 35 14  1  0  0  0  0
 36  2  1  0  0  0  0
 36  4  1  0  0  0  0
 37 34  1  0  0  0  0
 38 23  1  0  0  0  0
 39 33  1  0  0  0  0
 39 37  1  0  0  0  0
 41 40  1  0  0  0  0
 42 41  1  0  0  0  0
 43 42  1  6  0  0  0
 44 43  1  0  0  0  0
 45 46  2  0  0  0  0
 46 44  1  0  0  0  0
 46 43  1  0  0  0  0
 48 50  1  0  0  0  0
 48 47  1  0  0  0  0
 50 49  2  0  0  0  0
 50 51  2  0  0  0  0
M  END
>  <MODEL>
2

>  <REMARK>
 VINA RESULT:       2.2      3.413      5.634
  Name = 
  7 active torsions:
  status: ('A' for Active; 'I' for Inactive)
    1  A    between atoms: N_3  and  C_23
    2  A    between atoms: C_4  and  N_37
    3  A    between atoms: C_9  and  N_35
    4  A    between atoms: C_9  and  C_38
    5  A    between atoms: C_10  and  C_38
    6  A    between atoms: C_23  and  C_25
    7  A    between atoms: C_25  and  N_37
                            x       y       z     vdW  Elec       q    Type
                         _______ _______ _______ _____ _____    ______ ____

>  <TORSDO>
F 7

$$$$
=
 OpenBabel11072412343D

 51 58  0  0  1  0  0  0  0  0999 V2000
  162.5910  214.4530  144.3590 C   0  0  0  0  0  2  0  0  0  0  0  0
  162.8220  214.4480  142.8540 C   0  0  0  0  0  2  0  0  0  0  0  0
  160.8260  208.1340  154.0040 N   0  0  0  0  0  0  0  0  0  0  0  0
  161.2490  212.4830  142.6150 C   0  0  1  0  0  3  0  0  0  0  0  0
  160.8010  213.0990  146.9380 C   0  0  0  0  0  0  0  0  0  0  0  0
  159.8220  211.4860  152.6050 C   0  0  2  0  0  3  0  0  0  0  0  0
  162.2490  211.4690  142.0840 C   0  0  0  0  0  1  0  0  0  0  0  0
  161.8260  207.0820  153.7650 C   0  0  2  0  0  3  0  0  0  0  0  0
  162.1030  207.9440  151.4410 C   0  0  1  0  0  3  0  0  0  0  0  0
  160.5190  209.1050  152.9770 C   0  0  2  0  0  3  0  0  0  0  0  0
  158.1730  213.2250  148.0740 O   0  0  0  0  0  0  0  0  0  0  0  0
  159.8560  212.9660  144.6780 C   0  0  0  0  0  0  0  0  0  0  0  0
  157.6500  214.3570  150.5890 C   0  0  0  0  0  2  0  0  0  0  0  0
  161.4670  210.2190  149.5470 O   0  0  0  0  0  0  0  0  0  0  0  0
  158.8490  213.0980  143.9280 O   0  0  0  0  0  0  0  0  0  0  0  0
  161.1410  212.3910  144.1470 C   0  0  2  0  0  3  0  0  0  0  0  0
  163.7340  210.0760  147.6450 O   0  0  0  0  0  1  0  0  0  0  0  0
  161.8570  206.7090  152.2930 C   0  0  0  0  0  2  0  0  0  0  0  0
  160.3200  211.2710  151.2520 N   0  0  0  0  0  0  0  0  0  0  0  0
  160.9540  210.2210  150.8480 C   0  0  0  0  0  0  0  0  0  0  0  0
  163.2020  212.1800  146.9780 O   0  0  0  0  0  0  0  0  0  0  0  0
  162.3510  213.0280  144.8460 C   0  0  2  0  0  3  0  0  0  0  0  0
  159.0510  213.6720  152.4350 C   0  0  1  0  0  3  0  0  0  0  0  0
  157.7870  214.4530  152.1040 C   0  0  0  0  0  2  0  0  0  0  0  0
  159.4530  210.1450  153.2370 C   0  0  0  0  0  2  0  0  0  0  0  0
  162.0200  207.5060  149.9880 C   0  0  0  0  0  1  0  0  0  0  0  0
  159.7410  213.2670  146.0360 O   0  0  0  0  0  0  0  0  0  0  0  0
  161.6600  210.4320  146.8180 O   0  0  0  0  0  1  0  0  0  0  0  0
  162.6920  211.0020  147.5720 C   0  0  0  0  0  0  0  0  0  0  0  0
  158.6770  212.3050  152.5350 O   0  0  0  0  0  0  0  0  0  0  0  0
  162.2240  213.0090  146.3720 C   0  0  1  0  0  3  0  0  0  0  0  0
  161.1180  209.0520  151.7620 C   0  0  1  0  0  3  0  0  0  0  0  0
  158.9810  214.0290  150.1000 N   0  0  0  0  0  0  0  0  0  0  0  0
  161.6520  212.7150  149.2170 C   0  0  0  0  0  2  0  0  0  0  0  0
  162.2320  211.3000  149.0040 C   0  0  1  0  0  3  0  0  0  0  0  0
  161.5960  213.8950  142.1370 C   0  0  0  0  0  2  0  0  0  0  0  0
  160.5460  213.0750  148.2660 C   0  0  0  0  0  0  0  0  0  0  0  0
  159.9170  213.9560  151.2040 C   0  0  0  0  0  2  0  0  0  0  0  0
  159.1840  213.4210  148.8020 C   0  0  0  0  0  0  0  0  0  0  0  0
  160.4610  208.4570  155.3820 C   0  0  0  0  0  2  0  0  0  0  0  0
  161.5230  209.3420  156.0060 C   0  0  0  0  0  2  0  0  0  0  0  0
  161.0020  209.9700  157.2100 N   0  0  0  0  0  2  0  0  0  0  0  0
  161.5020  211.3310  157.2240 C   0  0  2  0  0  3  0  0  0  0  0  0
  161.4160  211.8670  155.9700 O   0  0  0  0  0  0  0  0  0  0  0  0
  163.9390  211.1600  156.4690 O   0  0  0  0  0  0  0  0  0  0  0  0
  162.7010  211.3760  156.5530 C   0  0  0  0  0  0  0  0  0  0  0  0
  161.5210  205.8370  154.5850 C   0  0  0  0  0  2  0  0  0  0  0  0
  160.4170  205.0340  153.9190 C   0  0  0  0  0  2  0  0  0  0  0  0
  162.3130  204.2650  152.5760 O   0  0  0  0  0  0  0  0  0  0  0  0
  160.9600  204.2770  152.8020 N   0  0  0  0  0  0  0  0  0  0  0  0
  160.1980  203.6270  152.0590 O   0  0  0  0  0  0  0  0  0  0  0  0
  2  1  1  0  0  0  0
  3 40  1  0  0  0  0
  4  7  1  1  0  0  0
  4 16  1  0  0  0  0
  5 37  2  0  0  0  0
  6 25  1  6  0  0  0
  8  3  1  0  0  0  0
  8 47  1  1  0  0  0
  9 26  1  6  0  0  0
  9 32  1  0  0  0  0
  9 18  1  0  0  0  0
 10 25  1  6  0  0  0
 10  3  1  0  0  0  0
 11 39  2  0  0  0  0
 12 27  1  0  0  0  0
 13 24  1  0  0  0  0
 14 20  1  0  0  0  0
 15 12  2  0  0  0  0
 16 12  1  1  0  0  0
 16 22  1  0  0  0  0
 18  8  1  0  0  0  0
 19  6  1  0  0  0  0
 20 19  2  0  0  0  0
 21 29  1  0  0  0  0
 22  1  1  6  0  0  0
 22 31  1  0  0  0  0
 23 38  1  6  0  0  0
 23 30  1  0  0  0  0
 24 23  1  0  0  0  0
 27  5  1  0  0  0  0
 28 29  1  0  0  0  0
 29 17  1  0  0  0  0
 29 35  1  0  0  0  0
 30  6  1  0  0  0  0
 31  5  1  6  0  0  0
 31 21  1  0  0  0  0
 32 20  1  1  0  0  0
 32 10  1  0  0  0  0
 33 13  1  0  0  0  0
 33 38  1  0  0  0  0
 35 34  1  6  0  0  0
 35 14  1  0  0  0  0
 36  4  1  0  0  0  0
 36  2  1  0  0  0  0
 37 39  1  0  0  0  0
 37 34  1  0  0  0  0
 39 33  1  0  0  0  0
 40 41  1  0  0  0  0
 41 42  1  0  0  0  0
 43 42  1  6  0  0  0
 44 46  1  0  0  0  0
 44 43  1  0  0  0  0
 45 46  2  0  0  0  0
 46 43  1  0  0  0  0
 48 47  1  0  0  0  0
 49 50  2  0  0  0  0
 50 48  1  0  0  0  0
 51 50  2  0  0  0  0
M  END
>  <MODEL>
3

>  <REMARK>
 VINA RESULT:       2.4      1.981      2.720
  Name = 
  7 active torsions:
  status: ('A' for Active; 'I' for Inactive)
    1  A    between atoms: N_3  and  C_23
    2  A    between atoms: C_4  and  N_37
    3  A    between atoms: C_9  and  N_35
    4  A    between atoms: C_9  and  C_38
    5  A    between atoms: C_10  and  C_38
    6  A    between atoms: C_23  and  C_25
    7  A    between atoms: C_25  and  N_37
                            x       y       z     vdW  Elec       q    Type
                         _______ _______ _______ _____ _____    ______ ____

>  <TORSDO>
F 7

$$$$
=
 OpenBabel11072412343D

 51 58  0  0  1  0  0  0  0  0999 V2000
  161.4400  212.0730  155.5780 C   0  0  0  0  0  2  0  0  0  0  0  0
  161.1470  211.5500  156.9790 C   0  0  0  0  0  2  0  0  0  0  0  0
  157.4140  213.9040  144.7840 N   0  0  0  0  0  0  0  0  0  0  0  0
  159.7370  209.6960  155.9960 C   0  0  1  0  0  3  0  0  0  0  0  0
  161.0770  211.5040  152.2270 C   0  0  0  0  0  0  0  0  0  0  0  0
  160.6730  213.0510  146.4720 C   0  0  2  0  0  3  0  0  0  0  0  0
  158.4030  210.0940  156.6060 C   0  0  0  0  0  1  0  0  0  0  0  0
  156.0850  214.4340  145.1310 C   0  0  2  0  0  3  0  0  0  0  0  0
  156.4780  213.7320  147.4910 C   0  0  1  0  0  3  0  0  0  0  0  0
  158.2720  213.3460  145.8050 C   0  0  0  0  0  0  0  0  0  0  0  0
  162.1560  209.8250  150.1690 O   0  0  0  0  0  0  0  0  0  0  0  0
  160.9110  209.5880  153.7510 C   0  0  0  0  0  0  0  0  0  0  0  0
  163.7440  210.8080  148.0740 C   0  0  0  0  0  2  0  0  0  0  0  0
  158.5400  212.7410  149.4750 O   0  0  0  0  0  0  0  0  0  0  0  0
  161.2320  208.3950  154.0120 O   0  0  0  0  0  0  0  0  0  0  0  0
  159.9050  210.3180  154.5980 C   0  0  2  0  0  3  0  0  0  0  0  0
  157.4450  213.7410  152.0390 O   0  0  0  0  0  1  0  0  0  0  0  0
  155.5120  213.6810  146.3190 C   0  0  0  0  0  2  0  0  0  0  0  0
  160.1250  212.7870  147.7970 N   0  0  0  0  0  0  0  0  0  0  0  0
  158.8850  212.9240  148.1320 C   0  0  0  0  0  0  0  0  0  0  0  0
  159.4910  213.3900  152.9570 O   0  0  0  0  0  0  0  0  0  0  0  0
  160.2400  211.8150  154.6730 C   0  0  2  0  0  3  0  0  0  0  0  0
  162.9420  212.7500  146.8810 C   0  0  1  0  0  3  0  0  0  0  0  0
  164.0120  211.6690  146.8450 C   0  0  0  0  0  2  0  0  0  0  0  0
  159.6130  212.7690  145.4100 C   0  0  0  0  0  2  0  0  0  0  0  0
  155.8810  212.8780  148.5980 C   0  0  0  0  0  1  0  0  0  0  0  0
  161.4270  210.2010  152.6070 O   0  0  0  0  0  0  0  0  0  0  0  0
  158.2880  211.6440  151.9780 O   0  0  0  0  0  1  0  0  0  0  0  0
  158.6220  213.0020  151.9120 C   0  0  0  0  0  0  0  0  0  0  0  0
  161.7810  212.2030  146.2700 O   0  0  0  0  0  0  0  0  0  0  0  0
  160.4810  212.4320  153.2930 C   0  0  1  0  0  3  0  0  0  0  0  0
  157.8670  213.2660  147.0960 C   0  0  0  0  0  0  0  0  0  0  0  0
  162.9610  211.6460  148.9700 N   0  0  0  0  0  0  0  0  0  0  0  0
  160.7880  213.2440  150.5080 C   0  0  0  0  0  2  0  0  0  0  0  0
  159.2480  213.3530  150.5580 C   0  0  1  0  0  3  0  0  0  0  0  0
  160.8930  210.0480  156.9350 C   0  0  0  0  0  2  0  0  0  0  0  0
  161.3240  211.9160  150.9630 C   0  0  0  0  0  0  0  0  0  0  0  0
  162.7700  212.9600  148.3880 C   0  0  0  0  0  2  0  0  0  0  0  0
  162.1390  211.0770  150.0170 C   0  0  0  0  0  0  0  0  0  0  0  0
  158.0280  214.3160  143.5230 C   0  0  0  0  0  2  0  0  0  0  0  0
  158.9370  213.2190  143.0060 C   0  0  0  0  0  2  0  0  0  0  0  0
  159.8460  213.7570  142.0050 N   0  0  0  0  0  2  0  0  0  0  0  0
  160.6140  212.6410  141.4910 C   0  0  2  0  0  3  0  0  0  0  0  0
  160.2810  211.5000  142.1670 O   0  0  0  0  0  0  0  0  0  0  0  0
  162.6180  212.4200  143.0630 O   0  0  0  0  0  0  0  0  0  0  0  0
  161.5400  212.2590  142.4330 C   0  0  0  0  0  0  0  0  0  0  0  0
  155.1240  214.3140  143.9580 C   0  0  0  0  0  2  0  0  0  0  0  0
  153.8720  213.5690  144.3860 C   0  0  0  0  0  2  0  0  0  0  0  0
  152.3990  212.1850  143.0050 O   0  0  0  0  0  0  0  0  0  0  0  0
  152.9790  213.4040  143.2500 N   0  0  0  0  0  0  0  0  0  0  0  0
  152.7290  214.3730  142.5070 O   0  0  0  0  0  0  0  0  0  0  0  0
  1  2  1  0  0  0  0
  3  8  1  0  0  0  0
  3 10  1  0  0  0  0
  4  7  1  1  0  0  0
  4 36  1  0  0  0  0
  5 27  1  0  0  0  0
  6 25  1  6  0  0  0
  6 19  1  0  0  0  0
  8 47  1  6  0  0  0
  8 18  1  0  0  0  0
  9 26  1  1  0  0  0
 10 32  2  0  0  0  0
 12 15  2  0  0  0  0
 13 33  1  0  0  0  0
 14 35  1  0  0  0  0
 16 12  1  1  0  0  0
 16 22  1  0  0  0  0
 16  4  1  0  0  0  0
 18  9  1  0  0  0  0
 19 20  2  0  0  0  0
 20 14  1  0  0  0  0
 21 31  1  0  0  0  0
 22  1  1  1  0  0  0
 23 24  1  1  0  0  0
 23 38  1  0  0  0  0
 24 13  1  0  0  0  0
 25 10  1  0  0  0  0
 27 12  1  0  0  0  0
 29 28  1  0  0  0  0
 29 17  1  0  0  0  0
 29 21  1  0  0  0  0
 30  6  1  0  0  0  0
 30 23  1  0  0  0  0
 31  5  1  6  0  0  0
 31 22  1  0  0  0  0
 32  9  1  0  0  0  0
 32 20  1  0  0  0  0
 33 39  1  0  0  0  0
 34 37  1  0  0  0  0
 35 34  1  1  0  0  0
 35 29  1  0  0  0  0
 36  2  1  0  0  0  0
 37  5  2  0  0  0  0
 38 33  1  0  0  0  0
 39 11  2  0  0  0  0
 39 37  1  0  0  0  0
 40  3  1  0  0  0  0
 41 40  1  0  0  0  0
 42 41  1  0  0  0  0
 43 42  1  1  0  0  0
 43 44  1  0  0  0  0
 43 46  1  0  0  0  0
 44 46  1  0  0  0  0
 46 45  2  0  0  0  0
 47 48  1  0  0  0  0
 49 50  2  0  0  0  0
 50 48  1  0  0  0  0
 51 50  2  0  0  0  0
M  END
>  <MODEL>
4

>  <REMARK>
 VINA RESULT:       3.7      2.919     10.331
  Name = 
  7 active torsions:
  status: ('A' for Active; 'I' for Inactive)
    1  A    between atoms: N_3  and  C_23
    2  A    between atoms: C_4  and  N_37
    3  A    between atoms: C_9  and  N_35
    4  A    between atoms: C_9  and  C_38
    5  A    between atoms: C_10  and  C_38
    6  A    between atoms: C_23  and  C_25
    7  A    between atoms: C_25  and  N_37
                            x       y       z     vdW  Elec       q    Type
                         _______ _______ _______ _____ _____    ______ ____

>  <TORSDO>
F 7

$$$$
