=
 OpenBabel11072414063D

 57 63  0  0  1  0  0  0  0  0999 V2000
  160.3100  211.4800  155.1310 C   0  0  0  0  0  0  0  0  0  0  0  0
  156.4820  213.6200  152.0970 C   0  0  2  0  0  3  0  0  0  0  0  0
  156.2430  211.2220  156.7520 C   0  0  0  0  0  2  0  0  0  0  0  0
  156.1310  213.7000  156.0910 C   0  0  2  0  0  3  0  0  0  0  0  0
  159.7840  213.7450  155.8190 C   0  0  0  0  0  2  0  0  0  0  0  0
  157.4330  213.4370  155.4460 N   0  0  2  0  0  0  0  0  0  0  0  0
  155.4900  212.5040  156.7500 C   0  0  0  0  0  0  0  0  0  0  0  0
  158.9850  214.3750  150.3670 O   0  0  0  0  0  1  0  0  0  0  0  0
  155.2640  214.4530  155.2600 O   0  0  0  0  0  0  0  0  0  0  0  0
  157.2240  212.8510  150.9930 C   0  0  1  0  0  3  0  0  0  0  0  0
  154.3850  212.5830  157.2600 O   0  0  0  0  0  0  0  0  0  0  0  0
  153.6630  212.3340  154.4060 O   0  0  0  0  0  1  0  0  0  0  0  0
  161.9290  212.4190  152.9410 C   0  0  0  0  0  2  0  0  0  0  0  0
  154.7490  213.5330  153.9070 P   0  0  1  0  0  0  0  0  0  0  0  0
  160.7930  208.2710  155.1330 C   0  0  2  0  0  0  0  0  0  0  0  0
  159.4830  212.5190  151.9190 C   0  0  2  0  0  3  0  0  0  0  0  0
  154.0150  214.4510  152.9500 O   0  0  0  0  0  0  0  0  0  0  0  0
  161.1410  207.5380  153.8380 C   0  0  0  0  0  2  0  0  0  0  0  0
  158.0100  212.0880  155.6530 C   0  0  1  0  0  3  0  0  0  0  0  0
  161.1860  212.7390  151.3110 S   0  0  0  0  0  0  0  0  0  0  0  0
  159.4730  212.3050  155.7010 C   0  0  0  0  0  0  0  0  0  0  0  0
  160.7370  208.3280  152.6030 C   0  0  0  0  0  2  0  0  0  0  0  0
  158.9380  211.1830  151.4750 C   0  0  0  0  0  2  0  0  0  0  0  0
  161.9600  208.8850  151.8860 C   0  0  2  0  0  3  0  0  0  0  0  0
  162.5850  210.0390  152.6240 C   0  0  0  0  0  0  0  0  0  0  0  0
  157.7780  214.3260  152.4690 C   0  0  0  0  0  2  0  0  0  0  0  0
  158.5020  213.5540  151.3860 C   0  0  1  0  0  0  0  0  0  0  0  0
  161.7900  211.0120  153.3140 N   0  0  0  0  0  0  0  0  0  0  0  0
  161.1630  210.6670  154.5620 C   0  0  0  0  0  0  0  0  0  0  0  0
  157.6060  211.5190  156.8770 O   0  0  0  0  0  0  0  0  0  0  0  0
  156.0710  212.7770  153.1390 O   0  0  0  0  0  0  0  0  0  0  0  0
  157.4440  211.3730  151.2990 C   0  0  0  0  0  2  0  0  0  0  0  0
  159.4160  208.5250  155.1830 O   0  0  0  0  0  1  0  0  0  0  0  0
  158.4170  214.3860  155.9640 C   0  0  0  0  0  2  0  0  0  0  0  0
  163.8370  210.1670  152.6030 O   0  0  0  0  0  0  0  0  0  0  0  0
  161.5280  209.4930  155.2300 O   0  0  0  0  0  0  0  0  0  0  0  0
  160.3400  206.5570  156.7350 O   0  0  0  0  0  0  0  0  0  0  0  0
  162.4000  207.5290  156.9070 O   0  0  0  0  0  1  0  0  0  0  0  0
  161.1660  207.3840  156.2790 C   0  0  0  0  0  0  0  0  0  0  0  0
  161.5370  209.2690  150.4700 C   0  0  0  0  0  2  0  0  0  0  0  0
  162.4100  208.6700  149.3580 C   0  0  1  0  0  3  0  0  0  0  0  0
  161.1170  205.3810  148.1130 N   0  0  0  0  0  0  0  0  0  0  0  0
  161.7030  206.1210  149.2210 C   0  0  1  0  0  3  0  0  0  0  0  0
  161.7620  207.5070  148.6590 C   0  0  0  0  0  0  0  0  0  0  0  0
  160.9420  206.2170  147.1400 C   0  0  0  0  0  0  0  0  0  0  0  0
  160.3710  205.8150  145.8300 C   0  0  0  0  0  1  0  0  0  0  0  0
  161.3540  207.5460  147.4320 N   0  0  0  0  0  0  0  0  0  0  0  0
  160.7750  206.0540  150.4270 C   0  0  0  0  0  2  0  0  0  0  0  0
  160.8600  204.8020  151.0170 F   0  0  0  0  0  0  0  0  0  0  0  0
  162.7140  209.6970  148.3740 N   0  0  0  0  0  2  0  0  0  0  0  0
  161.9190  210.8770  148.6980 C   0  0  0  0  0  2  0  0  0  0  0  0
  162.6990  212.1410  148.3580 C   0  0  0  0  0  2  0  0  0  0  0  0
  162.7920  213.1970  146.2240 O   0  0  0  0  0  0  0  0  0  0  0  0
  162.0740  212.8580  147.2030 C   0  0  0  0  0  0  0  0  0  0  0  0
  160.6330  213.1450  147.1820 C   0  0  0  0  0  0  0  0  0  0  0  0
  159.7300  212.1860  147.6220 O   0  0  0  0  0  1  0  0  0  0  0  0
  160.2060  214.2540  146.7650 O   0  0  0  0  0  0  0  0  0  0  0  0
  1 21  2  0  0  0  0
  2 26  1  1  0  0  0
  2 31  1  0  0  0  0
  3 30  1  0  0  0  0
  4  9  1  6  0  0  0
  4  7  1  0  0  0  0
  5 34  1  0  0  0  0
  6 19  1  0  0  0  0
  6 34  1  1  0  0  0
  6  4  1  0  0  0  0
  7  3  1  0  0  0  0
  7 11  2  0  0  0  0
 10 32  1  1  0  0  0
 10 27  1  0  0  0  0
 10  2  1  0  0  0  0
 13 28  1  0  0  0  0
 14 17  2  6  0  0  0
 14 12  1  0  0  0  0
 14  9  1  0  0  0  0
 15 33  1  1  0  0  0
 15 36  1  0  0  0  0
 15 39  1  0  0  0  0
 16 23  1  6  0  0  0
 18 15  1  0  0  0  0
 19 21  1  1  0  0  0
 19 30  1  0  0  0  0
 20 16  1  0  0  0  0
 20 13  1  0  0  0  0
 21  5  1  0  0  0  0
 22 18  1  0  0  0  0
 24 40  1  6  0  0  0
 24 22  1  0  0  0  0
 24 25  1  0  0  0  0
 25 28  1  0  0  0  0
 27  8  1  6  0  0  0
 27 16  1  0  0  0  0
 27 26  1  0  0  0  0
 28 29  1  0  0  0  0
 29  1  2  0  0  0  0
 29 36  1  0  0  0  0
 31 14  1  0  0  0  0
 32 23  1  0  0  0  0
 35 25  2  0  0  0  0
 39 37  2  0  0  0  0
 39 38  1  0  0  0  0
 41 40  1  1  0  0  0
 42 43  1  0  0  0  0
 43 48  1  1  0  0  0
 44 43  1  0  0  0  0
 44 41  1  0  0  0  0
 45 47  1  0  0  0  0
 45 42  2  0  0  0  0
 46 45  1  0  0  0  0
 47 44  2  0  0  0  0
 48 49  1  0  0  0  0
 50 51  1  0  0  0  0
 50 41  1  0  0  0  0
 52 51  1  0  0  0  0
 53 54  2  0  0  0  0
 54 52  1  0  0  0  0
 55 54  1  0  0  0  0
 55 56  1  0  0  0  0
 57 55  2  0  0  0  0
M  END
>  <MODEL>
1

>  <REMARK>
 VINA RESULT:      10.0      0.000      0.000
  Name = 
  10 active torsions:
  status: ('A' for Active; 'I' for Inactive)
    1  A    between atoms: C_1  and  C_49
    2  A    between atoms: C_1  and  C_51
    3  A    between atoms: C_5  and  C_51
    4  A    between atoms: N_10  and  C_24
    5  A    between atoms: N_10  and  C_49
    6  A    between atoms: C_22  and  C_30
    7  A    between atoms: C_23  and  C_39
    8  A    between atoms: C_24  and  C_27
    9  A    between atoms: C_24  and  C_33
   10  A    between atoms: C_33  and  C_40
                            x       y       z     vdW  Elec       q    Type
                         _______ _______ _______ _____ _____    ______ ____

>  <TORSDO>
F 10

$$$$
=
 OpenBabel11072414063D

 57 63  0  0  1  0  0  0  0  0999 V2000
  163.0620  207.6490  148.4260 C   0  0  0  0  0  0  0  0  0  0  0  0
  160.4370  203.0530  149.0790 C   0  0  2  0  0  3  0  0  0  0  0  0
  160.9800  206.1380  144.8760 C   0  0  0  0  0  2  0  0  0  0  0  0
  162.0860  203.9140  145.5260 C   0  0  2  0  0  3  0  0  0  0  0  0
  164.3870  205.7510  147.7060 C   0  0  0  0  0  2  0  0  0  0  0  0
  162.4880  204.6390  146.7490 N   0  0  2  0  0  0  0  0  0  0  0  0
  161.2510  204.7110  144.5550 C   0  0  0  0  0  0  0  0  0  0  0  0
  161.7400  203.3030  151.9200 O   0  0  0  0  0  1  0  0  0  0  0  0
  161.5850  202.6190  145.8120 O   0  0  0  0  0  0  0  0  0  0  0  0
  159.9580  203.7560  150.3600 C   0  0  1  0  0  3  0  0  0  0  0  0
  160.8060  204.2000  143.5410 O   0  0  0  0  0  0  0  0  0  0  0  0
  158.8740  203.2190  145.5490 O   0  0  0  0  0  0  0  0  0  0  0  0
  163.6840  207.1530  151.1950 C   0  0  0  0  0  2  0  0  0  0  0  0
  160.0760  202.7020  146.6230 P   0  0  1  0  0  0  0  0  0  0  0  0
  161.4590  210.4710  148.4850 C   0  0  2  0  0  0  0  0  0  0  0  0
  161.6680  205.4840  150.7610 C   0  0  2  0  0  3  0  0  0  0  0  0
  159.7050  201.3110  147.0960 O   0  0  0  0  0  1  0  0  0  0  0  0
  160.6560  210.8810  149.7180 C   0  0  0  0  0  2  0  0  0  0  0  0
  162.1550  206.0820  146.7980 C   0  0  1  0  0  3  0  0  0  0  0  0
  162.6410  206.0470  152.1950 S   0  0  0  0  0  0  0  0  0  0  0  0
  163.2680  206.7030  147.5500 C   0  0  0  0  0  0  0  0  0  0  0  0
  160.2970  209.6910  150.5930 C   0  0  0  0  0  2  0  0  0  0  0  0
  160.3060  206.1370  150.7630 C   0  0  0  0  0  2  0  0  0  0  0  0
  161.1050  209.6980  151.8840 C   0  0  2  0  0  3  0  0  0  0  0  0
  162.5460  209.3150  151.6660 C   0  0  0  0  0  0  0  0  0  0  0  0
  161.8820  203.2840  149.4990 C   0  0  0  0  0  2  0  0  0  0  0  0
  161.3990  203.9850  150.7520 C   0  0  1  0  0  0  0  0  0  0  0  0
  162.9210  208.3070  150.7200 N   0  0  0  0  0  0  0  0  0  0  0  0
  162.8750  208.5950  149.3110 C   0  0  0  0  0  0  0  0  0  0  0  0
  162.1100  206.6620  145.5150 O   0  0  0  0  0  0  0  0  0  0  0  0
  160.1400  203.7980  147.9290 O   0  0  0  0  0  0  0  0  0  0  0  0
  159.3590  205.1390  150.1270 C   0  0  0  0  0  2  0  0  0  0  0  0
  160.7300  209.5480  147.7250 O   0  0  0  0  0  1  0  0  0  0  0  0
  163.9400  204.5500  146.8940 C   0  0  0  0  0  2  0  0  0  0  0  0
  163.4340  209.8760  152.3590 O   0  0  0  0  0  0  0  0  0  0  0  0
  162.7180  209.9140  148.8690 O   0  0  0  0  0  0  0  0  0  0  0  0
  162.8650  212.1250  147.4870 O   0  0  0  0  0  1  0  0  0  0  0  0
  160.6260  212.4240  147.1560 O   0  0  0  0  0  0  0  0  0  0  0  0
  161.6990  211.6970  147.6620 C   0  0  0  0  0  0  0  0  0  0  0  0
  160.4080  208.7720  152.8780 C   0  0  0  0  0  2  0  0  0  0  0  0
  159.8940  209.4670  154.1480 C   0  0  1  0  0  3  0  0  0  0  0  0
  161.9730  209.2460  157.2570 N   0  0  0  0  0  0  0  0  0  0  0  0
  160.8490  208.7130  156.5000 C   0  0  1  0  0  3  0  0  0  0  0  0
  160.9200  209.5260  155.2450 C   0  0  0  0  0  0  0  0  0  0  0  0
  162.5050  210.1890  156.5460 C   0  0  0  0  0  0  0  0  0  0  0  0
  163.6760  210.9770  157.0070 C   0  0  0  0  0  1  0  0  0  0  0  0
  161.8620  210.4110  155.2980 N   0  0  0  0  0  0  0  0  0  0  0  0
  161.0820  207.2350  156.2140 C   0  0  0  0  0  2  0  0  0  0  0  0
  160.0230  206.7260  155.4790 F   0  0  0  0  0  0  0  0  0  0  0  0
  159.4770  210.8220  153.8230 N   0  0  0  0  0  2  0  0  0  0  0  0
  158.3390  211.1560  154.6730 C   0  0  0  0  0  2  0  0  0  0  0  0
  157.4890  212.2310  154.0080 C   0  0  0  0  0  2  0  0  0  0  0  0
  158.8520  214.0960  154.5940 O   0  0  0  0  0  0  0  0  0  0  0  0
  158.3160  213.4300  153.6670 C   0  0  0  0  0  0  0  0  0  0  0  0
  158.5360  213.8220  152.2670 C   0  0  0  0  0  0  0  0  0  0  0  0
  157.5220  214.4510  151.5570 O   0  0  0  0  0  0  0  0  0  0  0  0
  159.6380  213.5900  151.7030 O   0  0  0  0  0  1  0  0  0  0  0  0
  1 29  2  0  0  0  0
  2 26  1  1  0  0  0
  2 10  1  0  0  0  0
  3 30  1  0  0  0  0
  4  7  1  1  0  0  0
  4  9  1  0  0  0  0
  4  6  1  0  0  0  0
  6 19  1  0  0  0  0
  6 34  1  6  0  0  0
  7  3  1  0  0  0  0
  9 14  1  0  0  0  0
 10 32  1  6  0  0  0
 10 27  1  0  0  0  0
 11  7  2  0  0  0  0
 13 20  1  0  0  0  0
 14 12  2  6  0  0  0
 14 17  1  0  0  0  0
 14 31  1  0  0  0  0
 15 33  1  6  0  0  0
 15 36  1  0  0  0  0
 15 18  1  0  0  0  0
 16 23  1  1  0  0  0
 16 20  1  0  0  0  0
 18 22  1  0  0  0  0
 19 30  1  6  0  0  0
 19 21  1  0  0  0  0
 21  5  1  0  0  0  0
 21  1  2  0  0  0  0
 22 24  1  0  0  0  0
 24 40  1  1  0  0  0
 25 24  1  0  0  0  0
 25 35  2  0  0  0  0
 26 27  1  0  0  0  0
 27 16  1  0  0  0  0
 27  8  1  1  0  0  0
 28 13  1  0  0  0  0
 28 25  1  0  0  0  0
 29 28  1  0  0  0  0
 31  2  1  0  0  0  0
 32 23  1  0  0  0  0
 34  5  1  0  0  0  0
 36 29  1  0  0  0  0
 37 39  1  0  0  0  0
 38 39  2  0  0  0  0
 39 15  1  0  0  0  0
 41 40  1  6  0  0  0
 41 44  1  0  0  0  0
 43 48  1  6  0  0  0
 43 42  1  0  0  0  0
 44 47  2  0  0  0  0
 44 43  1  0  0  0  0
 45 46  1  0  0  0  0
 45 42  2  0  0  0  0
 47 45  1  0  0  0  0
 49 48  1  0  0  0  0
 50 41  1  0  0  0  0
 50 51  1  0  0  0  0
 52 51  1  0  0  0  0
 54 52  1  0  0  0  0
 54 53  2  0  0  0  0
 55 54  1  0  0  0  0
 56 55  2  0  0  0  0
 57 55  1  0  0  0  0
M  END
>  <MODEL>
2

>  <REMARK>
 VINA RESULT:      11.4      4.210      9.758
  Name = 
  10 active torsions:
  status: ('A' for Active; 'I' for Inactive)
    1  A    between atoms: C_1  and  C_49
    2  A    between atoms: C_1  and  C_51
    3  A    between atoms: C_5  and  C_51
    4  A    between atoms: N_10  and  C_24
    5  A    between atoms: N_10  and  C_49
    6  A    between atoms: C_22  and  C_30
    7  A    between atoms: C_23  and  C_39
    8  A    between atoms: C_24  and  C_27
    9  A    between atoms: C_24  and  C_33
   10  A    between atoms: C_33  and  C_40
                            x       y       z     vdW  Elec       q    Type
                         _______ _______ _______ _____ _____    ______ ____

>  <TORSDO>
F 10

$$$$
=
 OpenBabel11072414063D

 57 63  0  0  1  0  0  0  0  0999 V2000
  158.7700  213.8240  142.1250 C   0  0  0  0  0  0  0  0  0  0  0  0
  160.6430  209.6480  139.3900 C   0  0  2  0  0  3  0  0  0  0  0  0
  155.8770  211.8280  139.5040 C   0  0  0  0  0  2  0  0  0  0  0  0
  157.7810  211.9540  137.7860 C   0  0  2  0  0  3  0  0  0  0  0  0
  159.4460  214.4530  139.8840 C   0  0  0  0  0  2  0  0  0  0  0  0
  158.5870  212.4250  138.9300 N   0  0  2  0  0  0  0  0  0  0  0  0
  156.3500  211.6030  138.1130 C   0  0  0  0  0  0  0  0  0  0  0  0
  163.2910  210.5610  140.7980 O   0  0  0  0  0  1  0  0  0  0  0  0
  158.4650  210.9840  137.0110 O   0  0  0  0  0  0  0  0  0  0  0  0
  161.2420  209.2910  140.7590 C   0  0  1  0  0  3  0  0  0  0  0  0
  155.6060  211.1420  137.2630 O   0  0  0  0  0  0  0  0  0  0  0  0
  157.1500  208.7370  138.0110 O   0  0  0  0  0  1  0  0  0  0  0  0
  161.4970  213.8490  143.0570 C   0  0  0  0  0  2  0  0  0  0  0  0
  158.6470  209.5150  137.8770 P   0  0  1  0  0  0  0  0  0  0  0  0
  157.0320  213.3630  144.8280 C   0  0  2  0  0  0  0  0  0  0  0  0
  161.2960  211.4410  141.9600 C   0  0  2  0  0  3  0  0  0  0  0  0
  159.5720  208.6040  137.0940 O   0  0  0  0  0  0  0  0  0  0  0  0
  157.6290  212.6060  146.0140 C   0  0  0  0  0  2  0  0  0  0  0  0
  157.8610  212.6350  140.2050 C   0  0  1  0  0  3  0  0  0  0  0  0
  162.5260  212.3520  142.9490 S   0  0  0  0  0  0  0  0  0  0  0  0
  158.5380  213.7860  140.8410 C   0  0  0  0  0  0  0  0  0  0  0  0
  158.8000  211.7270  145.6060 C   0  0  0  0  0  2  0  0  0  0  0  0
  160.5840  210.4220  142.8180 C   0  0  0  0  0  2  0  0  0  0  0  0
  160.1170  212.3030  146.1080 C   0  0  2  0  0  3  0  0  0  0  0  0
  160.5470  213.5210  145.3340 C   0  0  0  0  0  0  0  0  0  0  0  0
  161.3230  211.0080  139.4520 C   0  0  0  0  0  2  0  0  0  0  0  0
  161.8980  210.6510  140.8070 C   0  0  1  0  0  0  0  0  0  0  0  0
  160.3370  213.6270  143.9200 N   0  0  0  0  0  0  0  0  0  0  0  0
  159.0150  213.8770  143.4110 C   0  0  0  0  0  0  0  0  0  0  0  0
  156.5100  212.9750  139.9980 O   0  0  0  0  0  0  0  0  0  0  0  0
  159.2500  209.7970  139.4470 O   0  0  0  0  0  0  0  0  0  0  0  0
  160.2280  209.2710  141.8990 C   0  0  0  0  0  2  0  0  0  0  0  0
  156.6040  212.4560  143.8500 O   0  0  0  0  0  1  0  0  0  0  0  0
  159.1880  213.7120  138.5850 C   0  0  0  0  0  2  0  0  0  0  0  0
  161.1350  214.4520  145.9440 O   0  0  0  0  0  0  0  0  0  0  0  0
  157.9900  214.2700  144.2790 O   0  0  0  0  0  0  0  0  0  0  0  0
  155.7620  214.4530  146.5330 O   0  0  0  0  0  1  0  0  0  0  0  0
  154.8020  214.4440  144.4620 O   0  0  0  0  0  0  0  0  0  0  0  0
  155.8520  214.1390  145.3220 C   0  0  0  0  0  0  0  0  0  0  0  0
  161.1620  211.1910  146.0590 C   0  0  0  0  0  2  0  0  0  0  0  0
  161.8400  210.8900  147.4040 C   0  0  1  0  0  3  0  0  0  0  0  0
  161.6470  213.2140  150.3370 N   0  0  0  0  0  0  0  0  0  0  0  0
  162.4950  212.3910  149.4860 C   0  0  1  0  0  3  0  0  0  0  0  0
  161.5120  211.8990  148.4690 C   0  0  0  0  0  0  0  0  0  0  0  0
  160.4400  213.1330  149.8740 C   0  0  0  0  0  0  0  0  0  0  0  0
  159.2930  213.8370  150.5000 C   0  0  0  0  0  1  0  0  0  0  0  0
  160.3100  212.3040  148.7270 N   0  0  0  0  0  0  0  0  0  0  0  0
  163.5680  213.2590  148.8420 C   0  0  0  0  0  2  0  0  0  0  0  0
  164.2630  212.5220  147.8960 F   0  0  0  0  0  0  0  0  0  0  0  0
  161.4350  209.5720  147.8670 N   0  0  0  0  0  2  0  0  0  0  0  0
  162.5810  208.9580  148.5280 C   0  0  0  0  0  2  0  0  0  0  0  0
  162.6870  207.4910  148.1310 C   0  0  0  0  0  2  0  0  0  0  0  0
  160.4890  206.9370  147.3950 O   0  0  0  0  0  0  0  0  0  0  0  0
  161.3690  206.8000  148.2880 C   0  0  0  0  0  0  0  0  0  0  0  0
  161.1000  205.9410  149.4500 C   0  0  0  0  0  0  0  0  0  0  0  0
  160.5370  204.6850  149.2670 O   0  0  0  0  0  0  0  0  0  0  0  0
  161.3720  206.3360  150.6150 O   0  0  0  0  0  1  0  0  0  0  0  0
  1 29  2  0  0  0  0
  2 31  1  0  0  0  0
  2 26  1  1  0  0  0
  2 10  1  0  0  0  0
  3 30  1  0  0  0  0
  4  9  1  1  0  0  0
  4  7  1  0  0  0  0
  4  6  1  0  0  0  0
  5 21  1  0  0  0  0
  6 34  1  6  0  0  0
  6 19  1  0  0  0  0
  7  3  1  0  0  0  0
  9 14  1  0  0  0  0
 10 27  1  0  0  0  0
 10 32  1  1  0  0  0
 11  7  2  0  0  0  0
 13 28  1  0  0  0  0
 14 17  2  6  0  0  0
 14 12  1  0  0  0  0
 14 31  1  0  0  0  0
 15 33  1  6  0  0  0
 15 39  1  0  0  0  0
 15 18  1  0  0  0  0
 16 23  1  1  0  0  0
 16 20  1  0  0  0  0
 19 30  1  6  0  0  0
 19 21  1  0  0  0  0
 20 13  1  0  0  0  0
 21  1  2  0  0  0  0
 22 18  1  0  0  0  0
 22 24  1  0  0  0  0
 24 40  1  6  0  0  0
 25 35  2  0  0  0  0
 25 24  1  0  0  0  0
 26 27  1  0  0  0  0
 27  8  1  1  0  0  0
 27 16  1  0  0  0  0
 28 25  1  0  0  0  0
 29 28  1  0  0  0  0
 29 36  1  0  0  0  0
 32 23  1  0  0  0  0
 34  5  1  0  0  0  0
 36 15  1  0  0  0  0
 38 39  2  0  0  0  0
 39 37  1  0  0  0  0
 41 40  1  6  0  0  0
 41 50  1  0  0  0  0
 41 44  1  0  0  0  0
 43 48  1  6  0  0  0
 43 42  1  0  0  0  0
 44 47  2  0  0  0  0
 44 43  1  0  0  0  0
 45 42  2  0  0  0  0
 45 46  1  0  0  0  0
 47 45  1  0  0  0  0
 49 48  1  0  0  0  0
 50 51  1  0  0  0  0
 52 54  1  0  0  0  0
 52 51  1  0  0  0  0
 53 54  2  0  0  0  0
 54 55  1  0  0  0  0
 55 57  1  0  0  0  0
 56 55  2  0  0  0  0
M  END
>  <MODEL>
3

>  <REMARK>
 VINA RESULT:      11.8      6.484     12.071
  Name = 
  10 active torsions:
  status: ('A' for Active; 'I' for Inactive)
    1  A    between atoms: C_1  and  C_49
    2  A    between atoms: C_1  and  C_51
    3  A    between atoms: C_5  and  C_51
    4  A    between atoms: N_10  and  C_24
    5  A    between atoms: N_10  and  C_49
    6  A    between atoms: C_22  and  C_30
    7  A    between atoms: C_23  and  C_39
    8  A    between atoms: C_24  and  C_27
    9  A    between atoms: C_24  and  C_33
   10  A    between atoms: C_33  and  C_40
                            x       y       z     vdW  Elec       q    Type
                         _______ _______ _______ _____ _____    ______ ____

>  <TORSDO>
F 10

$$$$
=
 OpenBabel11072414063D

 57 63  0  0  1  0  0  0  0  0999 V2000
  162.9020  207.6800  148.2800 C   0  0  0  0  0  0  0  0  0  0  0  0
  160.4910  203.0300  149.2760 C   0  0  2  0  0  3  0  0  0  0  0  0
  160.6450  205.9640  144.9350 C   0  0  0  0  0  2  0  0  0  0  0  0
  161.8710  203.8060  145.5910 C   0  0  2  0  0  3  0  0  0  0  0  0
  164.2440  205.8010  147.5420 C   0  0  0  0  0  2  0  0  0  0  0  0
  162.3260  204.5910  146.7560 N   0  0  2  0  0  0  0  0  0  0  0  0
  160.9460  204.5360  144.6490 C   0  0  0  0  0  0  0  0  0  0  0  0
  161.9690  203.4320  152.0110 O   0  0  0  0  0  1  0  0  0  0  0  0
  161.4360  202.5070  145.9560 O   0  0  0  0  0  0  0  0  0  0  0  0
  160.0730  203.7650  150.5580 C   0  0  1  0  0  3  0  0  0  0  0  0
  160.4530  203.9720  143.6870 O   0  0  0  0  0  0  0  0  0  0  0  0
  158.6940  203.0060  145.8540 O   0  0  0  0  0  0  0  0  0  0  0  0
  163.7220  207.3140  151.0170 C   0  0  0  0  0  2  0  0  0  0  0  0
  159.9820  202.5720  146.8630 P   0  0  1  0  0  0  0  0  0  0  0  0
  161.2070  210.4480  148.3430 C   0  0  2  0  0  0  0  0  0  0  0  0
  161.7430  205.5630  150.7810 C   0  0  2  0  0  3  0  0  0  0  0  0
  159.6930  201.1880  147.4110 O   0  0  0  0  0  1  0  0  0  0  0  0
  160.4720  210.8790  149.6120 C   0  0  0  0  0  2  0  0  0  0  0  0
  161.9460  206.0230  146.7750 C   0  0  1  0  0  3  0  0  0  0  0  0
  162.7870  206.2130  152.1250 S   0  0  0  0  0  0  0  0  0  0  0  0
  163.0830  206.7080  147.4270 C   0  0  0  0  0  0  0  0  0  0  0  0
  160.2150  209.7120  150.5520 C   0  0  0  0  0  2  0  0  0  0  0  0
  160.3620  206.1700  150.8500 C   0  0  0  0  0  2  0  0  0  0  0  0
  161.1050  209.7960  151.7850 C   0  0  2  0  0  3  0  0  0  0  0  0
  162.5410  209.4540  151.4840 C   0  0  0  0  0  0  0  0  0  0  0  0
  161.9510  203.3240  149.5880 C   0  0  0  0  0  2  0  0  0  0  0  0
  161.5280  204.0570  150.8440 C   0  0  1  0  0  0  0  0  0  0  0  0
  162.8890  208.4220  150.5520 N   0  0  0  0  0  0  0  0  0  0  0  0
  162.7400  208.6540  149.1400 C   0  0  0  0  0  0  0  0  0  0  0  0
  161.7950  206.5510  145.4770 O   0  0  0  0  0  0  0  0  0  0  0  0
  160.0930  203.7180  148.1210 O   0  0  0  0  0  0  0  0  0  0  0  0
  159.4110  205.1170  150.3160 C   0  0  0  0  0  2  0  0  0  0  0  0
  160.4630  209.4720  147.6680 O   0  0  0  0  0  1  0  0  0  0  0  0
  163.7860  204.5560  146.8060 C   0  0  0  0  0  2  0  0  0  0  0  0
  163.4530  210.0690  152.0950 O   0  0  0  0  0  0  0  0  0  0  0  0
  162.5070  209.9480  148.6620 O   0  0  0  0  0  0  0  0  0  0  0  0
  160.5070  211.8750  146.5590 O   0  0  0  0  0  0  0  0  0  0  0  0
  162.4600  212.4770  147.5760 O   0  0  0  0  0  1  0  0  0  0  0  0
  161.3480  211.6490  147.4610 C   0  0  0  0  0  0  0  0  0  0  0  0
  160.5090  208.8870  152.8560 C   0  0  0  0  0  2  0  0  0  0  0  0
  159.9990  209.6200  154.1060 C   0  0  1  0  0  3  0  0  0  0  0  0
  161.9970  209.3160  157.2610 N   0  0  0  0  0  0  0  0  0  0  0  0
  160.8770  208.8210  156.4730 C   0  0  1  0  0  3  0  0  0  0  0  0
  161.0000  209.6410  155.2270 C   0  0  0  0  0  0  0  0  0  0  0  0
  162.5720  210.2490  156.5710 C   0  0  0  0  0  0  0  0  0  0  0  0
  163.7540  210.9980  157.0650 C   0  0  0  0  0  1  0  0  0  0  0  0
  161.9660  210.4990  155.3100 N   0  0  0  0  0  0  0  0  0  0  0  0
  161.0730  207.3400  156.1810 C   0  0  0  0  0  2  0  0  0  0  0  0
  159.9660  206.6250  156.6100 F   0  0  0  0  0  0  0  0  0  0  0  0
  159.6570  210.9910  153.7580 N   0  0  0  0  0  2  0  0  0  0  0  0
  158.2030  211.1110  153.7900 C   0  0  0  0  0  2  0  0  0  0  0  0
  157.7580  211.6980  155.1240 C   0  0  0  0  0  2  0  0  0  0  0  0
  155.5910  210.7080  155.0870 O   0  0  0  0  0  0  0  0  0  0  0  0
  156.2660  211.7660  155.2050 C   0  0  0  0  0  0  0  0  0  0  0  0
  155.5800  213.0430  155.4510 C   0  0  0  0  0  0  0  0  0  0  0  0
  155.2750  213.4260  156.7500 O   0  0  0  0  0  1  0  0  0  0  0  0
  155.2640  213.7950  154.4910 O   0  0  0  0  0  0  0  0  0  0  0  0
  1 29  2  0  0  0  0
  2 26  1  6  0  0  0
  2 10  1  0  0  0  0
  3 30  1  0  0  0  0
  4  7  1  1  0  0  0
  4  9  1  0  0  0  0
  4  6  1  0  0  0  0
  6 19  1  0  0  0  0
  6 34  1  6  0  0  0
  7  3  1  0  0  0  0
  9 14  1  0  0  0  0
 10 32  1  6  0  0  0
 10 27  1  0  0  0  0
 11  7  2  0  0  0  0
 13 20  1  0  0  0  0
 14 12  2  6  0  0  0
 14 17  1  0  0  0  0
 14 31  1  0  0  0  0
 15 33  1  6  0  0  0
 15 36  1  0  0  0  0
 15 18  1  0  0  0  0
 16 27  1  0  0  0  0
 16 23  1  1  0  0  0
 16 20  1  0  0  0  0
 18 22  1  0  0  0  0
 19 30  1  6  0  0  0
 19 21  1  0  0  0  0
 21  5  1  0  0  0  0
 21  1  2  0  0  0  0
 22 24  1  0  0  0  0
 24 40  1  1  0  0  0
 25 24  1  0  0  0  0
 25 35  2  0  0  0  0
 26 27  1  0  0  0  0
 27  8  1  1  0  0  0
 28 13  1  0  0  0  0
 28 25  1  0  0  0  0
 29 28  1  0  0  0  0
 31  2  1  0  0  0  0
 32 23  1  0  0  0  0
 34  5  1  0  0  0  0
 36 29  1  0  0  0  0
 37 39  2  0  0  0  0
 39 38  1  0  0  0  0
 39 15  1  0  0  0  0
 41 40  1  6  0  0  0
 41 44  1  0  0  0  0
 43 48  1  6  0  0  0
 43 42  1  0  0  0  0
 44 47  2  0  0  0  0
 44 43  1  0  0  0  0
 45 46  1  0  0  0  0
 45 42  2  0  0  0  0
 47 45  1  0  0  0  0
 48 49  1  0  0  0  0
 50 51  1  0  0  0  0
 50 41  1  0  0  0  0
 51 52  1  0  0  0  0
 52 54  1  0  0  0  0
 53 54  2  0  0  0  0
 54 55  1  0  0  0  0
 55 56  1  0  0  0  0
 57 55  2  0  0  0  0
M  END
>  <MODEL>
4

>  <REMARK>
 VINA RESULT:      11.8      4.205     10.017
  Name = 
  10 active torsions:
  status: ('A' for Active; 'I' for Inactive)
    1  A    between atoms: C_1  and  C_49
    2  A    between atoms: C_1  and  C_51
    3  A    between atoms: C_5  and  C_51
    4  A    between atoms: N_10  and  C_24
    5  A    between atoms: N_10  and  C_49
    6  A    between atoms: C_22  and  C_30
    7  A    between atoms: C_23  and  C_39
    8  A    between atoms: C_24  and  C_27
    9  A    between atoms: C_24  and  C_33
   10  A    between atoms: C_33  and  C_40
                            x       y       z     vdW  Elec       q    Type
                         _______ _______ _______ _____ _____    ______ ____

>  <TORSDO>
F 10

$$$$
=
 OpenBabel11072414063D

 57 63  0  0  1  0  0  0  0  0999 V2000
  158.6960  213.7880  142.3390 C   0  0  0  0  0  0  0  0  0  0  0  0
  160.6760  209.6440  139.6310 C   0  0  2  0  0  3  0  0  0  0  0  0
  155.8740  211.7450  139.6760 C   0  0  0  0  0  2  0  0  0  0  0  0
  157.8000  211.9040  137.9860 C   0  0  2  0  0  3  0  0  0  0  0  0
  159.3930  214.4290  140.1080 C   0  0  0  0  0  2  0  0  0  0  0  0
  158.5820  212.3870  139.1410 N   0  0  2  0  0  0  0  0  0  0  0  0
  156.3710  211.5290  138.2910 C   0  0  0  0  0  0  0  0  0  0  0  0
  163.2880  210.6000  141.0780 O   0  0  0  0  0  1  0  0  0  0  0  0
  158.5120  210.9450  137.2210 O   0  0  0  0  0  0  0  0  0  0  0  0
  161.2610  209.2960  141.0090 C   0  0  1  0  0  3  0  0  0  0  0  0
  155.6470  211.0560  137.4310 O   0  0  0  0  0  0  0  0  0  0  0  0
  157.2190  208.6760  138.2010 O   0  0  0  0  0  1  0  0  0  0  0  0
  161.4070  213.8570  143.3110 C   0  0  0  0  0  2  0  0  0  0  0  0
  158.7050  209.4790  138.0890 P   0  0  1  0  0  0  0  0  0  0  0  0
  156.9260  213.2970  145.0160 C   0  0  2  0  0  0  0  0  0  0  0  0
  161.2620  211.4470  142.2100 C   0  0  2  0  0  3  0  0  0  0  0  0
  159.6560  208.5840  137.3200 O   0  0  0  0  0  0  0  0  0  0  0  0
  157.5170  212.5500  146.2100 C   0  0  0  0  0  2  0  0  0  0  0  0
  157.8340  212.5850  140.4060 C   0  0  1  0  0  3  0  0  0  0  0  0
  162.4620  212.3770  143.2170 S   0  0  0  0  0  0  0  0  0  0  0  0
  158.4830  213.7470  141.0520 C   0  0  0  0  0  0  0  0  0  0  0  0
  158.7080  211.6900  145.8200 C   0  0  0  0  0  2  0  0  0  0  0  0
  160.5550  210.4160  143.0580 C   0  0  0  0  0  2  0  0  0  0  0  0
  160.0090  212.2880  146.3410 C   0  0  2  0  0  3  0  0  0  0  0  0
  160.4300  213.5130  145.5730 C   0  0  0  0  0  0  0  0  0  0  0  0
  161.3330  211.0150  139.7030 C   0  0  0  0  0  2  0  0  0  0  0  0
  161.8940  210.6670  141.0660 C   0  0  1  0  0  0  0  0  0  0  0  0
  160.2390  213.6160  144.1570 N   0  0  0  0  0  0  0  0  0  0  0  0
  158.9200  213.8450  143.6280 C   0  0  0  0  0  0  0  0  0  0  0  0
  156.4810  212.9030  140.1790 O   0  0  0  0  0  0  0  0  0  0  0  0
  159.2800  209.7710  139.6680 O   0  0  0  0  0  0  0  0  0  0  0  0
  160.2310  209.2590  142.1330 C   0  0  0  0  0  2  0  0  0  0  0  0
  156.5270  212.3840  144.0310 O   0  0  0  0  0  1  0  0  0  0  0  0
  159.1660  213.6840  138.8060 C   0  0  0  0  0  2  0  0  0  0  0  0
  160.9930  214.4530  146.1920 O   0  0  0  0  0  0  0  0  0  0  0  0
  157.8770  214.2200  144.4810 O   0  0  0  0  0  0  0  0  0  0  0  0
  154.8340  214.4040  144.6830 O   0  0  0  0  0  0  0  0  0  0  0  0
  155.6300  214.4530  146.8220 O   0  0  0  0  0  1  0  0  0  0  0  0
  155.7260  214.0540  145.4930 C   0  0  0  0  0  0  0  0  0  0  0  0
  161.0730  211.1930  146.3070 C   0  0  0  0  0  2  0  0  0  0  0  0
  161.4660  210.6400  147.6850 C   0  0  1  0  0  3  0  0  0  0  0  0
  162.6130  207.0920  148.0490 N   0  0  0  0  0  0  0  0  0  0  0  0
  162.7100  208.4620  148.5330 C   0  0  1  0  0  3  0  0  0  0  0  0
  161.6910  209.1540  147.6830 C   0  0  0  0  0  0  0  0  0  0  0  0
  161.7370  207.0810  147.0950 C   0  0  0  0  0  0  0  0  0  0  0  0
  161.3810  205.8480  146.3490 C   0  0  0  0  0  1  0  0  0  0  0  0
  161.1590  208.3500  146.8200 N   0  0  0  0  0  0  0  0  0  0  0  0
  162.3250  208.5110  150.0060 C   0  0  0  0  0  2  0  0  0  0  0  0
  160.9450  208.5070  150.1320 F   0  0  0  0  0  0  0  0  0  0  0  0
  162.6810  211.2970  148.1420 N   0  0  0  0  0  2  0  0  0  0  0  0
  162.2910  212.4800  148.9030 C   0  0  0  0  0  2  0  0  0  0  0  0
  161.1570  212.1340  149.8590 C   0  0  0  0  0  2  0  0  0  0  0  0
  159.9900  213.8400  148.6730 O   0  0  0  0  0  0  0  0  0  0  0  0
  159.9890  213.0470  149.6530 C   0  0  0  0  0  0  0  0  0  0  0  0
  158.8330  213.0100  150.5600 C   0  0  0  0  0  0  0  0  0  0  0  0
  159.0300  213.0020  151.9340 O   0  0  0  0  0  1  0  0  0  0  0  0
  157.6600  212.9810  150.1000 O   0  0  0  0  0  0  0  0  0  0  0  0
  1 29  2  0  0  0  0
  2 31  1  0  0  0  0
  2 26  1  1  0  0  0
  2 10  1  0  0  0  0
  3 30  1  0  0  0  0
  4  9  1  1  0  0  0
  4  7  1  0  0  0  0
  4  6  1  0  0  0  0
  5 21  1  0  0  0  0
  6 34  1  6  0  0  0
  6 19  1  0  0  0  0
  7  3  1  0  0  0  0
  9 14  1  0  0  0  0
 10 27  1  0  0  0  0
 10 32  1  1  0  0  0
 11  7  2  0  0  0  0
 13 28  1  0  0  0  0
 14 17  2  6  0  0  0
 14 12  1  0  0  0  0
 14 31  1  0  0  0  0
 15 33  1  6  0  0  0
 15 39  1  0  0  0  0
 15 18  1  0  0  0  0
 16 23  1  1  0  0  0
 16 20  1  0  0  0  0
 19 30  1  6  0  0  0
 19 21  1  0  0  0  0
 20 13  1  0  0  0  0
 21  1  2  0  0  0  0
 22 18  1  0  0  0  0
 22 24  1  0  0  0  0
 24 40  1  6  0  0  0
 25 35  2  0  0  0  0
 25 24  1  0  0  0  0
 26 27  1  0  0  0  0
 27  8  1  1  0  0  0
 27 16  1  0  0  0  0
 28 25  1  0  0  0  0
 29 28  1  0  0  0  0
 29 36  1  0  0  0  0
 32 23  1  0  0  0  0
 34  5  1  0  0  0  0
 36 15  1  0  0  0  0
 37 39  2  0  0  0  0
 39 38  1  0  0  0  0
 41 40  1  6  0  0  0
 41 50  1  0  0  0  0
 42 43  1  0  0  0  0
 43 48  1  1  0  0  0
 44 41  1  0  0  0  0
 44 43  1  0  0  0  0
 45 42  2  0  0  0  0
 46 45  1  0  0  0  0
 47 45  1  0  0  0  0
 47 44  2  0  0  0  0
 48 49  1  0  0  0  0
 50 51  1  0  0  0  0
 51 52  1  0  0  0  0
 53 54  2  0  0  0  0
 54 52  1  0  0  0  0
 54 55  1  0  0  0  0
 55 56  1  0  0  0  0
 57 55  2  0  0  0  0
M  END
>  <MODEL>
5

>  <REMARK>
 VINA RESULT:      12.4      6.113     11.457
  Name = 
  10 active torsions:
  status: ('A' for Active; 'I' for Inactive)
    1  A    between atoms: C_1  and  C_49
    2  A    between atoms: C_1  and  C_51
    3  A    between atoms: C_5  and  C_51
    4  A    between atoms: N_10  and  C_24
    5  A    between atoms: N_10  and  C_49
    6  A    between atoms: C_22  and  C_30
    7  A    between atoms: C_23  and  C_39
    8  A    between atoms: C_24  and  C_27
    9  A    between atoms: C_24  and  C_33
   10  A    between atoms: C_33  and  C_40
                            x       y       z     vdW  Elec       q    Type
                         _______ _______ _______ _____ _____    ______ ____

>  <TORSDO>
F 10

$$$$
