=
 OpenBabel11072411243D

 42 46  0  0  1  0  0  0  0  0999 V2000
  160.7670  206.3950  152.9860 O   0  0  0  0  0  0  0  0  0  0  0  0
  162.4610  210.2860  151.9060 C   0  0  0  0  0  1  0  0  0  0  0  0
  161.8610  208.9480  152.2150 C   0  0  0  0  0  0  0  0  0  0  0  0
  160.8430  207.3360  153.8190 C   0  0  0  0  0  0  0  0  0  0  0  0
  160.3580  207.1110  155.2180 C   0  0  0  0  0  2  0  0  0  0  0  0
  161.1720  207.8310  156.1470 O   0  0  0  0  0  0  0  0  0  0  0  0
  161.3950  209.7380  154.5200 C   0  0  2  0  0  3  0  0  0  0  0  0
  161.3980  208.6710  153.4530 C   0  0  0  0  0  0  0  0  0  0  0  0
  162.2240  209.7830  156.7670 O   0  0  0  0  0  0  0  0  0  0  0  0
  161.6210  209.1280  155.8740 C   0  0  0  0  0  0  0  0  0  0  0  0
  159.0650  211.0460  154.4730 C   0  0  0  0  0  0  0  0  0  0  0  0
  160.1070  210.4390  154.5030 C   0  0  0  0  0  0  0  0  0  0  0  0
  155.4250  213.2100  154.2870 C   0  0  0  0  0  3  0  0  0  0  0  0
  156.7100  211.3080  155.0440 C   0  0  0  0  0  3  0  0  0  0  0  0
  156.5650  213.7290  153.6650 C   0  0  0  0  0  3  0  0  0  0  0  0
  155.4940  212.0050  154.9860 C   0  0  0  0  0  3  0  0  0  0  0  0
  157.7930  213.0550  153.7450 C   0  0  0  0  0  0  0  0  0  0  0  0
  157.8580  211.8200  154.4230 C   0  0  0  0  0  0  0  0  0  0  0  0
  159.0140  213.6590  153.1080 C   0  0  0  0  0  2  0  0  0  0  0  0
  159.7590  214.3120  150.8760 C   0  0  0  0  0  3  0  0  0  0  0  0
  157.0280  214.0910  151.0820 S   0  0  0  0  0  0  0  0  0  0  0  0
  158.7370  213.2610  149.0230 N   0  0  0  0  0  0  0  0  0  0  0  0
  159.4850  214.4530  149.4210 C   0  0  0  0  0  2  0  0  0  0  0  0
  157.3210  213.4000  149.3870 C   0  0  0  0  0  2  0  0  0  0  0  0
  158.7340  214.0780  151.6960 C   0  0  0  0  0  0  0  0  0  0  0  0
  158.8550  212.9910  147.5830 C   0  0  0  0  0  3  0  0  0  0  0  0
  157.5080  212.8020  146.8870 C   0  0  0  0  0  1  0  0  0  0  0  0
  159.6590  214.0870  146.8980 C   0  0  0  0  0  1  0  0  0  0  0  0
  161.7810  207.9760  151.2080 O   0  0  0  0  0  0  0  0  0  0  0  0
  161.2100  206.3450  148.8270 C   0  0  0  0  0  0  0  0  0  0  0  0
  162.6430  207.9140  150.0740 C   0  0  2  0  0  3  0  0  0  0  0  0
  161.6430  208.4490  147.7550 C   0  0  0  0  0  2  0  0  0  0  0  0
  162.2360  209.0070  149.0600 C   0  0  0  0  0  2  0  0  0  0  0  0
  160.7910  207.2910  148.0380 N   0  0  0  0  0  0  0  0  0  0  0  0
  162.5530  206.5010  149.4790 C   0  0  0  0  0  2  0  0  0  0  0  0
  160.3230  205.2690  149.1610 N   0  0  0  0  0  2  0  0  0  0  0  0
  160.8520  204.1230  151.3120 C   0  0  0  0  0  3  0  0  0  0  0  0
  161.2630  201.7370  151.3190 C   0  0  0  0  0  3  0  0  0  0  0  0
  160.7430  202.8720  149.2440 C   0  0  0  0  0  3  0  0  0  0  0  0
  160.6350  204.0880  149.9220 C   0  0  0  0  0  0  0  0  0  0  0  0
  161.1630  202.9500  152.0060 C   0  0  0  0  0  3  0  0  0  0  0  0
  161.0530  201.7010  149.9370 C   0  0  0  0  0  3  0  0  0  0  0  0
  1  4  2  0  0  0  0
  2  3  1  0  0  0  0
  3  8  2  0  0  0  0
  4  5  1  0  0  0  0
  5  6  1  0  0  0  0
  7 12  1  1  0  0  0
  7 10  1  0  0  0  0
  8  4  1  0  0  0  0
  8  7  1  0  0  0  0
 10  6  1  0  0  0  0
 10  9  2  0  0  0  0
 11 12  3  0  0  0  0
 13 16  1  0  0  0  0
 15 17  1  0  0  0  0
 15 13  2  0  0  0  0
 16 14  2  0  0  0  0
 17 18  2  0  0  0  0
 18 11  1  0  0  0  0
 18 14  1  0  0  0  0
 19 17  1  0  0  0  0
 20 25  2  0  0  0  0
 21 25  1  0  0  0  0
 22 24  1  0  0  0  0
 22 23  1  0  0  0  0
 23 20  1  0  0  0  0
 24 21  1  0  0  0  0
 25 19  1  0  0  0  0
 26 22  1  0  0  0  0
 27 26  1  0  0  0  0
 28 26  1  0  0  0  0
 29  3  1  0  0  0  0
 30 36  1  0  0  0  0
 30 35  1  0  0  0  0
 31 29  1  1  0  0  0
 32 34  1  0  0  0  0
 32 33  1  0  0  0  0
 33 31  1  0  0  0  0
 34 30  2  0  0  0  0
 35 31  1  0  0  0  0
 36 40  1  0  0  0  0
 37 41  1  0  0  0  0
 38 41  2  0  0  0  0
 39 40  1  0  0  0  0
 39 42  2  0  0  0  0
 40 37  2  0  0  0  0
 42 38  1  0  0  0  0
M  END
>  <MODEL>
1

>  <REMARK>
 VINA RESULT:      -7.4      0.000      0.000
  Name = 
  8 active torsions:
  status: ('A' for Active; 'I' for Inactive)
    1  A    between atoms: C_3  and  N_30
    2  A    between atoms: O_4  and  C_11
    3  A    between atoms: O_4  and  C_22
    4  A    between atoms: C_7  and  C_29
    5  A    between atoms: C_12  and  C_28
    6  A    between atoms: C_12  and  C_42
    7  A    between atoms: C_14  and  C_26
    8  A    between atoms: C_32  and  N_38
                            x       y       z     vdW  Elec       q    Type
                         _______ _______ _______ _____ _____    ______ ____

>  <TORSDO>
F 8

$$$$
=
 OpenBabel11072411243D

 42 46  0  0  1  0  0  0  0  0999 V2000
  159.0760  213.4270  146.8500 O   0  0  0  0  0  0  0  0  0  0  0  0
  160.5820  213.7610  150.9480 C   0  0  0  0  0  1  0  0  0  0  0  0
  160.0070  213.6450  149.5690 C   0  0  0  0  0  0  0  0  0  0  0  0
  160.1940  212.9520  147.1840 C   0  0  0  0  0  0  0  0  0  0  0  0
  161.0350  212.2740  146.1470 C   0  0  0  0  0  2  0  0  0  0  0  0
  162.4210  212.5230  146.3920 O   0  0  0  0  0  0  0  0  0  0  0  0
  162.0360  212.3970  148.8760 C   0  0  2  0  0  3  0  0  0  0  0  0
  160.7030  213.0430  148.5820 C   0  0  0  0  0  0  0  0  0  0  0  0
  164.1940  212.6020  147.8590 O   0  0  0  0  0  0  0  0  0  0  0  0
  162.9490  212.5110  147.6890 C   0  0  0  0  0  0  0  0  0  0  0  0
  161.6490  209.8300  149.5120 C   0  0  0  0  0  0  0  0  0  0  0  0
  161.8280  210.9830  149.2050 C   0  0  0  0  0  0  0  0  0  0  0  0
  161.1360  205.8450  150.8650 C   0  0  0  0  0  3  0  0  0  0  0  0
  161.4550  208.2000  151.3130 C   0  0  0  0  0  3  0  0  0  0  0  0
  161.1150  206.1130  149.4920 C   0  0  0  0  0  3  0  0  0  0  0  0
  161.2960  206.8860  151.7800 C   0  0  0  0  0  3  0  0  0  0  0  0
  161.2410  207.4270  149.0170 C   0  0  0  0  0  0  0  0  0  0  0  0
  161.4360  208.4770  149.9390 C   0  0  0  0  0  0  0  0  0  0  0  0
  161.1670  207.6930  147.5390 C   0  0  0  0  0  2  0  0  0  0  0  0
  162.3620  205.5720  147.3380 C   0  0  0  0  0  3  0  0  0  0  0  0
  160.9000  206.2050  145.0990 S   0  0  0  0  0  0  0  0  0  0  0  0
  161.2040  203.7410  146.3960 N   0  0  0  0  0  0  0  0  0  0  0  0
  162.5450  204.2600  146.6620 C   0  0  0  0  0  2  0  0  0  0  0  0
  160.6380  204.3730  145.1980 C   0  0  0  0  0  2  0  0  0  0  0  0
  161.5870  206.4870  146.7530 C   0  0  0  0  0  0  0  0  0  0  0  0
  161.2000  202.2800  146.2360 C   0  0  0  0  0  3  0  0  0  0  0  0
  161.0390  201.5240  147.5540 C   0  0  0  0  0  1  0  0  0  0  0  0
  160.1290  201.8530  145.2430 C   0  0  0  0  0  1  0  0  0  0  0  0
  158.7330  214.1670  149.3040 O   0  0  0  0  0  0  0  0  0  0  0  0
  156.8450  213.5920  151.4870 C   0  0  0  0  0  0  0  0  0  0  0  0
  157.5550  213.3800  149.1370 C   0  0  2  0  0  3  0  0  0  0  0  0
  155.2960  214.4070  149.8440 C   0  0  0  0  0  2  0  0  0  0  0  0
  156.3740  214.3000  148.7530 C   0  0  0  0  0  2  0  0  0  0  0  0
  155.9160  214.4470  151.1700 N   0  0  0  0  0  0  0  0  0  0  0  0
  157.3010  212.6140  150.4430 C   0  0  0  0  0  2  0  0  0  0  0  0
  157.5020  213.7100  152.7550 N   0  0  0  0  0  2  0  0  0  0  0  0
  158.7580  211.5560  152.7480 C   0  0  0  0  0  3  0  0  0  0  0  0
  160.3490  211.0990  154.5140 C   0  0  0  0  0  3  0  0  0  0  0  0
  159.1200  213.1860  154.4980 C   0  0  0  0  0  3  0  0  0  0  0  0
  158.4670  212.8060  153.3230 C   0  0  0  0  0  0  0  0  0  0  0  0
  159.6970  210.7070  153.3420 C   0  0  0  0  0  3  0  0  0  0  0  0
  160.0580  212.3390  155.0910 C   0  0  0  0  0  3  0  0  0  0  0  0
  1  4  2  0  0  0  0
  3  2  1  0  0  0  0
  4  8  1  0  0  0  0
  5  6  1  0  0  0  0
  5  4  1  0  0  0  0
  6 10  1  0  0  0  0
  7 12  1  6  0  0  0
  8  7  1  0  0  0  0
  8  3  2  0  0  0  0
 10  9  2  0  0  0  0
 10  7  1  0  0  0  0
 11 18  1  0  0  0  0
 12 11  3  0  0  0  0
 13 16  1  0  0  0  0
 14 16  2  0  0  0  0
 15 13  2  0  0  0  0
 17 15  1  0  0  0  0
 17 18  2  0  0  0  0
 18 14  1  0  0  0  0
 19 17  1  0  0  0  0
 21 24  1  0  0  0  0
 21 25  1  0  0  0  0
 22 23  1  0  0  0  0
 23 20  1  0  0  0  0
 24 22  1  0  0  0  0
 25 20  2  0  0  0  0
 25 19  1  0  0  0  0
 26 22  1  0  0  0  0
 26 27  1  0  0  0  0
 28 26  1  0  0  0  0
 29  3  1  0  0  0  0
 30 36  1  0  0  0  0
 31 29  1  1  0  0  0
 31 35  1  0  0  0  0
 32 34  1  0  0  0  0
 33 31  1  0  0  0  0
 33 32  1  0  0  0  0
 34 30  2  0  0  0  0
 35 30  1  0  0  0  0
 36 40  1  0  0  0  0
 37 40  2  0  0  0  0
 37 41  1  0  0  0  0
 38 42  1  0  0  0  0
 39 42  2  0  0  0  0
 40 39  1  0  0  0  0
 41 38  2  0  0  0  0
M  END
>  <MODEL>
2

>  <REMARK>
 VINA RESULT:      -6.6      3.757      9.086
  Name = 
  8 active torsions:
  status: ('A' for Active; 'I' for Inactive)
    1  A    between atoms: C_3  and  N_30
    2  A    between atoms: O_4  and  C_11
    3  A    between atoms: O_4  and  C_22
    4  A    between atoms: C_7  and  C_29
    5  A    between atoms: C_12  and  C_28
    6  A    between atoms: C_12  and  C_42
    7  A    between atoms: C_14  and  C_26
    8  A    between atoms: C_32  and  N_38
                            x       y       z     vdW  Elec       q    Type
                         _______ _______ _______ _____ _____    ______ ____

>  <TORSDO>
F 8

$$$$
=
 OpenBabel11072411243D

 42 46  0  0  1  0  0  0  0  0999 V2000
  160.8570  212.0970  153.2730 O   0  0  0  0  0  0  0  0  0  0  0  0
  157.8030  209.8080  155.4190 C   0  0  0  0  0  1  0  0  0  0  0  0
  158.8050  210.6030  154.6380 C   0  0  0  0  0  0  0  0  0  0  0  0
  161.1590  211.1140  154.0020 C   0  0  0  0  0  0  0  0  0  0  0  0
  162.5990  210.7330  154.1510 C   0  0  0  0  0  2  0  0  0  0  0  0
  162.8500  210.2500  155.4730 O   0  0  0  0  0  0  0  0  0  0  0  0
  160.5960  209.1320  155.5250 C   0  0  2  0  0  3  0  0  0  0  0  0
  160.1220  210.3170  154.7180 C   0  0  0  0  0  0  0  0  0  0  0  0
  162.2520  208.8990  157.2390 O   0  0  0  0  0  0  0  0  0  0  0  0
  161.9410  209.4130  156.1310 C   0  0  0  0  0  0  0  0  0  0  0  0
  160.7920  206.9860  153.9450 C   0  0  0  0  0  0  0  0  0  0  0  0
  160.6820  207.9550  154.6550 C   0  0  0  0  0  0  0  0  0  0  0  0
  161.4260  203.5330  151.5690 C   0  0  0  0  0  3  0  0  0  0  0  0
  160.6410  204.5780  153.6030 C   0  0  0  0  0  3  0  0  0  0  0  0
  161.7720  204.7890  151.0610 C   0  0  0  0  0  3  0  0  0  0  0  0
  160.8520  203.4220  152.8360 C   0  0  0  0  0  3  0  0  0  0  0  0
  161.5360  205.9530  151.8080 C   0  0  0  0  0  0  0  0  0  0  0  0
  160.9850  205.8410  153.1020 C   0  0  0  0  0  0  0  0  0  0  0  0
  161.8730  207.2950  151.2190 C   0  0  0  0  0  2  0  0  0  0  0  0
  162.4400  207.8650  148.9130 C   0  0  0  0  0  3  0  0  0  0  0  0
  160.0580  206.5140  149.1360 S   0  0  0  0  0  0  0  0  0  0  0  0
  162.1140  206.2120  147.2570 N   0  0  0  0  0  0  0  0  0  0  0  0
  162.2480  207.6550  147.4530 C   0  0  0  0  0  2  0  0  0  0  0  0
  160.7510  205.7750  147.5840 C   0  0  0  0  0  2  0  0  0  0  0  0
  161.5520  207.3350  149.7540 C   0  0  0  0  0  0  0  0  0  0  0  0
  162.4490  205.8090  145.8840 C   0  0  0  0  0  3  0  0  0  0  0  0
  163.2510  204.5100  145.8100 C   0  0  0  0  0  1  0  0  0  0  0  0
  161.1910  205.7070  145.0340 C   0  0  0  0  0  1  0  0  0  0  0  0
  158.3690  211.6530  153.8180 O   0  0  0  0  0  0  0  0  0  0  0  0
  157.0920  213.7110  152.1470 C   0  0  0  0  0  0  0  0  0  0  0  0
  158.0900  212.9740  154.2760 C   0  0  2  0  0  3  0  0  0  0  0  0
  155.6690  213.8450  154.0760 C   0  0  0  0  0  2  0  0  0  0  0  0
  156.6740  213.0160  154.8930 C   0  0  0  0  0  2  0  0  0  0  0  0
  155.8900  213.6450  152.6420 N   0  0  0  0  0  0  0  0  0  0  0  0
  158.2400  213.9360  153.0880 C   0  0  0  0  0  2  0  0  0  0  0  0
  157.2940  213.4190  150.7580 N   0  0  0  0  0  2  0  0  0  0  0  0
  159.7200  212.9460  150.4340 C   0  0  0  0  0  3  0  0  0  0  0  0
  160.8640  213.8560  148.5030 C   0  0  0  0  0  3  0  0  0  0  0  0
  158.5060  214.2980  148.8380 C   0  0  0  0  0  3  0  0  0  0  0  0
  158.5180  213.5420  150.0120 C   0  0  0  0  0  0  0  0  0  0  0  0
  160.8880  213.1020  149.6800 C   0  0  0  0  0  3  0  0  0  0  0  0
  159.6700  214.4530  148.0840 C   0  0  0  0  0  3  0  0  0  0  0  0
  1  4  2  0  0  0  0
  3  8  2  0  0  0  0
  3  2  1  0  0  0  0
  4  5  1  0  0  0  0
  4  8  1  0  0  0  0
  5  6  1  0  0  0  0
  6 10  1  0  0  0  0
  7 12  1  6  0  0  0
  7 10  1  0  0  0  0
  8  7  1  0  0  0  0
 10  9  2  0  0  0  0
 11 12  3  0  0  0  0
 13 16  1  0  0  0  0
 15 13  2  0  0  0  0
 15 17  1  0  0  0  0
 16 14  2  0  0  0  0
 17 18  2  0  0  0  0
 18 14  1  0  0  0  0
 18 11  1  0  0  0  0
 19 17  1  0  0  0  0
 20 25  2  0  0  0  0
 21 25  1  0  0  0  0
 22 23  1  0  0  0  0
 22 24  1  0  0  0  0
 23 20  1  0  0  0  0
 24 21  1  0  0  0  0
 25 19  1  0  0  0  0
 26 22  1  0  0  0  0
 27 26  1  0  0  0  0
 28 26  1  0  0  0  0
 29  3  1  0  0  0  0
 30 34  2  0  0  0  0
 30 35  1  0  0  0  0
 31 29  1  6  0  0  0
 31 33  1  0  0  0  0
 32 33  1  0  0  0  0
 34 32  1  0  0  0  0
 35 31  1  0  0  0  0
 36 30  1  0  0  0  0
 38 41  1  0  0  0  0
 39 40  2  0  0  0  0
 40 37  1  0  0  0  0
 40 36  1  0  0  0  0
 41 37  2  0  0  0  0
 42 38  2  0  0  0  0
 42 39  1  0  0  0  0
M  END
>  <MODEL>
3

>  <REMARK>
 VINA RESULT:      -6.0      2.423      8.060
  Name = 
  8 active torsions:
  status: ('A' for Active; 'I' for Inactive)
    1  A    between atoms: C_3  and  N_30
    2  A    between atoms: O_4  and  C_11
    3  A    between atoms: O_4  and  C_22
    4  A    between atoms: C_7  and  C_29
    5  A    between atoms: C_12  and  C_28
    6  A    between atoms: C_12  and  C_42
    7  A    between atoms: C_14  and  C_26
    8  A    between atoms: C_32  and  N_38
                            x       y       z     vdW  Elec       q    Type
                         _______ _______ _______ _____ _____    ______ ____

>  <TORSDO>
F 8

$$$$
=
 OpenBabel11072411243D

 42 46  0  0  1  0  0  0  0  0999 V2000
  159.2150  213.6140  147.7390 O   0  0  0  0  0  0  0  0  0  0  0  0
  160.9150  212.4930  151.6150 C   0  0  0  0  0  1  0  0  0  0  0  0
  160.2750  212.8650  150.3120 C   0  0  0  0  0  0  0  0  0  0  0  0
  160.3560  213.0880  147.8330 C   0  0  0  0  0  0  0  0  0  0  0  0
  161.1570  212.8580  146.5880 C   0  0  0  0  0  2  0  0  0  0  0  0
  162.5490  213.0480  146.8520 O   0  0  0  0  0  0  0  0  0  0  0  0
  162.2880  212.0190  149.1340 C   0  0  2  0  0  3  0  0  0  0  0  0
  160.9320  212.6840  149.1470 C   0  0  0  0  0  0  0  0  0  0  0  0
  164.3900  212.6500  148.1760 O   0  0  0  0  0  0  0  0  0  0  0  0
  163.1400  212.5850  148.0340 C   0  0  0  0  0  0  0  0  0  0  0  0
  161.9450  209.3920  148.7860 C   0  0  0  0  0  0  0  0  0  0  0  0
  162.1190  210.5760  148.9360 C   0  0  0  0  0  0  0  0  0  0  0  0
  161.1490  205.2680  148.2130 C   0  0  0  0  0  3  0  0  0  0  0  0
  162.2970  207.3010  147.5860 C   0  0  0  0  0  3  0  0  0  0  0  0
  160.5320  205.9460  149.2680 C   0  0  0  0  0  3  0  0  0  0  0  0
  162.0390  205.9380  147.3740 C   0  0  0  0  0  3  0  0  0  0  0  0
  160.8070  207.3010  149.5080 C   0  0  0  0  0  0  0  0  0  0  0  0
  161.6830  207.9880  148.6410 C   0  0  0  0  0  0  0  0  0  0  0  0
  160.1680  207.9930  150.6790 C   0  0  0  0  0  2  0  0  0  0  0  0
  161.0760  208.9540  152.7320 C   0  0  0  0  0  3  0  0  0  0  0  0
  161.9030  206.3710  152.2900 S   0  0  0  0  0  0  0  0  0  0  0  0
  161.0860  207.6020  154.6700 N   0  0  0  0  0  0  0  0  0  0  0  0
  161.7190  208.7710  154.0610 C   0  0  0  0  0  2  0  0  0  0  0  0
  161.6630  206.3660  154.1280 C   0  0  0  0  0  2  0  0  0  0  0  0
  161.0450  207.9180  151.8930 C   0  0  0  0  0  0  0  0  0  0  0  0
  161.2100  207.6080  156.1350 C   0  0  0  0  0  3  0  0  0  0  0  0
  161.7510  208.9240  156.6930 C   0  0  0  0  0  1  0  0  0  0  0  0
  159.8800  207.2610  156.7860 C   0  0  0  0  0  1  0  0  0  0  0  0
  158.9810  213.4050  150.3050 O   0  0  0  0  0  0  0  0  0  0  0  0
  156.9840  213.7710  152.4350 C   0  0  0  0  0  0  0  0  0  0  0  0
  157.7840  212.6360  150.4000 C   0  0  2  0  0  3  0  0  0  0  0  0
  155.5350  213.8970  150.5240 C   0  0  0  0  0  2  0  0  0  0  0  0
  156.6540  213.3490  149.6230 C   0  0  0  0  0  2  0  0  0  0  0  0
  156.1000  214.4470  151.7590 N   0  0  0  0  0  0  0  0  0  0  0  0
  157.4460  212.4520  151.8860 C   0  0  0  0  0  2  0  0  0  0  0  0
  157.5900  214.3700  153.5870 N   0  0  0  0  0  2  0  0  0  0  0  0
  159.0140  212.4550  154.3120 C   0  0  0  0  0  3  0  0  0  0  0  0
  160.2420  212.6050  156.3930 C   0  0  0  0  0  3  0  0  0  0  0  0
  158.8560  214.4530  155.6660 C   0  0  0  0  0  3  0  0  0  0  0  0
  158.4970  213.7470  154.5160 C   0  0  0  0  0  0  0  0  0  0  0  0
  159.8850  211.8880  155.2480 C   0  0  0  0  0  3  0  0  0  0  0  0
  159.7250  213.8880  156.6000 C   0  0  0  0  0  3  0  0  0  0  0  0
  1  4  2  0  0  0  0
  3  2  1  0  0  0  0
  4  8  1  0  0  0  0
  5  6  1  0  0  0  0
  5  4  1  0  0  0  0
  6 10  1  0  0  0  0
  7 12  1  6  0  0  0
  7  8  1  0  0  0  0
  8  3  2  0  0  0  0
 10  9  2  0  0  0  0
 10  7  1  0  0  0  0
 11 12  3  0  0  0  0
 13 15  1  0  0  0  0
 14 18  2  0  0  0  0
 15 17  2  0  0  0  0
 16 14  1  0  0  0  0
 16 13  2  0  0  0  0
 17 19  1  0  0  0  0
 18 11  1  0  0  0  0
 18 17  1  0  0  0  0
 19 25  1  0  0  0  0
 20 23  1  0  0  0  0
 21 24  1  0  0  0  0
 22 26  1  0  0  0  0
 23 22  1  0  0  0  0
 24 22  1  0  0  0  0
 25 21  1  0  0  0  0
 25 20  2  0  0  0  0
 26 27  1  0  0  0  0
 26 28  1  0  0  0  0
 29  3  1  0  0  0  0
 30 36  1  0  0  0  0
 31 29  1  1  0  0  0
 31 35  1  0  0  0  0
 32 34  1  0  0  0  0
 33 31  1  0  0  0  0
 33 32  1  0  0  0  0
 34 30  2  0  0  0  0
 35 30  1  0  0  0  0
 36 40  1  0  0  0  0
 37 40  2  0  0  0  0
 37 41  1  0  0  0  0
 38 42  1  0  0  0  0
 39 42  2  0  0  0  0
 40 39  1  0  0  0  0
 41 38  2  0  0  0  0
M  END
>  <MODEL>
4

>  <REMARK>
 VINA RESULT:      -5.1      3.677      9.101
  Name = 
  8 active torsions:
  status: ('A' for Active; 'I' for Inactive)
    1  A    between atoms: C_3  and  N_30
    2  A    between atoms: O_4  and  C_11
    3  A    between atoms: O_4  and  C_22
    4  A    between atoms: C_7  and  C_29
    5  A    between atoms: C_12  and  C_28
    6  A    between atoms: C_12  and  C_42
    7  A    between atoms: C_14  and  C_26
    8  A    between atoms: C_32  and  N_38
                            x       y       z     vdW  Elec       q    Type
                         _______ _______ _______ _____ _____    ______ ____

>  <TORSDO>
F 8

$$$$
