=
 OpenBabel11072415273D

 70 73  0  0  1  0  0  0  0  0999 V2000
  162.7430  205.7970  149.8730 S   0  0  0  0  0  0  0  0  0  0  0  0
  162.8440  206.8760  148.6730 C   0  0  2  0  0  3  0  0  0  0  0  0
  160.2190  205.5700  149.2280 O   0  0  0  0  0  0  0  0  0  0  0  0
  161.0070  205.5410  150.1660 C   0  0  0  0  0  0  0  0  0  0  0  0
  160.5120  205.3400  151.5790 C   0  0  2  0  0  3  0  0  0  0  0  0
  160.9950  206.3310  152.6430 C   0  0  1  0  0  3  0  0  0  0  0  0
  160.7840  205.7860  154.3720 S   0  0  0  0  0  0  0  0  0  0  0  0
  160.7560  211.0250  154.6210 C   0  0  0  0  0  1  0  0  0  0  0  0
  161.2070  208.5520  154.1420 C   0  0  1  0  0  3  0  0  0  0  0  0
  159.8930  208.5640  153.6590 O   0  0  0  0  0  1  0  0  0  0  0  0
  161.4450  209.7410  155.0690 C   0  0  2  0  0  3  0  0  0  0  0  0
  161.4100  207.3600  155.0600 C   0  0  1  0  0  3  0  0  0  0  0  0
  159.3570  207.4370  156.5360 C   0  0  0  0  0  1  0  0  0  0  0  0
  160.8500  207.7660  156.4220 C   0  0  2  0  0  3  0  0  0  0  0  0
  160.0600  209.9860  157.0790 O   0  0  0  0  0  1  0  0  0  0  0  0
  161.1210  209.2770  156.4960 C   0  0  2  0  0  3  0  0  0  0  0  0
  162.4530  206.6840  152.3970 C   0  0  0  0  0  2  0  0  0  0  0  0
  162.6010  208.1360  151.9780 C   0  0  0  0  0  2  0  0  0  0  0  0
  161.2870  208.6880  151.4470 C   0  0  0  0  0  1  0  0  0  0  0  0
  160.6240  203.9000  152.0570 C   0  0  0  0  0  2  0  0  0  0  0  0
  160.4470  202.9490  150.8860 C   0  0  2  0  0  3  0  0  0  0  0  0
  161.1190  201.6300  151.1910 C   0  0  0  0  0  2  0  0  0  0  0  0
  161.8030  202.6300  150.2830 C   0  0  1  0  0  3  0  0  0  0  0  0
  161.6190  202.2070  148.8360 C   0  0  0  0  0  2  0  0  0  0  0  0
  161.5600  200.3930  148.7030 S   0  0  0  0  0  0  0  0  0  0  0  0
  161.2800  200.4160  146.9020 C   0  0  0  0  0  2  0  0  0  0  0  0
  161.1970  201.8120  146.3950 C   0  0  0  0  0  0  0  0  0  0  0  0
  162.2450  202.3900  146.0110 O   0  0  0  0  0  0  0  0  0  0  0  0
  159.9680  202.4680  146.3580 O   0  0  0  0  0  0  0  0  0  0  0  0
  159.2440  202.6440  144.0810 C   0  0  0  0  0  1  0  0  0  0  0  0
  159.6470  203.3960  145.3330 C   0  0  0  0  0  2  0  0  0  0  0  0
  163.3080  206.4670  147.3050 C   0  0  0  0  0  2  0  0  0  0  0  0
  161.1590  206.8670  146.1220 C   0  0  1  0  0  3  0  0  0  0  0  0
  162.1500  206.4990  145.0210 C   0  0  1  0  0  3  0  0  0  0  0  0
  159.9290  206.2210  145.9420 O   0  0  0  0  0  1  0  0  0  0  0  0
  162.2510  205.8390  146.3920 C   0  0  1  0  0  3  0  0  0  0  0  0
  161.6050  205.5620  144.1050 O   0  0  0  0  0  0  0  0  0  0  0  0
  161.4920  205.8890  142.7620 C   0  0  0  0  0  3  0  0  0  0  0  0
  162.3020  206.8020  142.2360 C   0  0  0  0  0  3  0  0  0  0  0  0
  162.2370  207.1930  140.7890 C   0  0  2  0  0  3  0  0  0  0  0  0
  161.0370  208.0860  140.5140 C   0  0  0  0  0  2  0  0  0  0  0  0
  160.3910  208.9630  138.3930 O   0  0  0  0  0  1  0  0  0  0  0  0
  161.3540  209.0800  139.3980 C   0  0  1  0  0  3  0  0  0  0  0  0
  161.4190  210.5430  139.8680 C   0  0  2  0  0  3  0  0  0  0  0  0
  160.0950  212.3940  138.9080 S   0  0  0  0  0  0  0  0  0  0  0  0
  160.0580  211.1210  140.2030 C   0  0  0  0  0  2  0  0  0  0  0  0
  161.6720  211.5100  138.7230 C   0  0  1  0  0  3  0  0  0  0  0  0
  162.4850  213.7520  138.7280 O   0  0  0  0  0  1  0  0  0  0  0  0
  162.8150  212.4460  139.0790 C   0  0  0  0  0  2  0  0  0  0  0  0
  162.1790  205.9570  139.8980 C   0  0  0  0  0  2  0  0  0  0  0  0
  163.5660  205.4990  139.4700 C   0  0  0  0  0  2  0  0  0  0  0  0
  163.5270  204.1510  139.0250 O   0  0  0  0  0  0  0  0  0  0  0  0
  162.9910  203.8070  137.7840 C   0  0  0  0  0  0  0  0  0  0  0  0
  162.4960  204.7080  137.0540 O   0  0  0  0  0  0  0  0  0  0  0  0
  163.0000  202.4800  137.3480 O   0  0  0  0  0  1  0  0  0  0  0  0
  162.5570  208.3180  148.9690 C   0  0  0  0  0  2  0  0  0  0  0  0
  162.3570  209.1540  147.7030 C   0  0  2  0  0  3  0  0  0  0  0  0
  162.7640  210.5740  147.9490 C   0  0  0  0  0  0  0  0  0  0  0  0
  163.9870  210.8870  147.9770 O   0  0  0  0  0  0  0  0  0  0  0  0
  161.7570  211.5710  148.1670 N   0  0  0  0  0  2  0  0  0  0  0  0
  162.0790  212.8760  148.7320 C   0  0  0  0  0  2  0  0  0  0  0  0
  161.2860  213.9540  148.0090 C   0  0  0  0  0  2  0  0  0  0  0  0
  159.7830  213.7050  148.1050 C   0  0  0  0  0  2  0  0  0  0  0  0
  159.1970  213.0450  146.8560 C   0  0  2  0  0  3  0  0  0  0  0  0
  160.2660  212.3300  146.0450 C   0  0  0  0  0  1  0  0  0  0  0  0
  158.5230  213.9780  146.0610 O   0  0  0  0  0  0  0  0  0  0  0  0
  158.5030  213.4130  144.7850 C   0  0  0  0  0  2  0  0  0  0  0  0
  158.9980  214.4210  143.7660 C   0  0  0  0  0  1  0  0  0  0  0  0
  160.3630  208.1000  147.9300 O   0  0  0  0  0  1  0  0  0  0  0  0
  160.9670  209.1200  147.2670 N   0  0  0  0  0  2  0  0  0  0  0  0
  1  4  1  0  0  0  0
  2 32  1  1  0  0  0
  2 56  1  0  0  0  0
  2  1  1  0  0  0  0
  3  4  2  0  0  0  0
  4  5  1  0  0  0  0
  5 20  1  1  0  0  0
  5  6  1  0  0  0  0
  6 17  1  6  0  0  0
  6  7  1  0  0  0  0
  9 10  1  1  0  0  0
  9 12  1  0  0  0  0
  9 11  1  0  0  0  0
 11  8  1  6  0  0  0
 11 16  1  0  0  0  0
 12  7  1  6  0  0  0
 12 14  1  0  0  0  0
 14 16  1  0  0  0  0
 14 13  1  6  0  0  0
 16 15  1  6  0  0  0
 18 17  1  0  0  0  0
 19 18  1  0  0  0  0
 21 22  1  0  0  0  0
 21 20  1  1  0  0  0
 23 24  1  6  0  0  0
 23 21  1  0  0  0  0
 23 22  1  0  0  0  0
 25 24  1  0  0  0  0
 26 25  1  0  0  0  0
 27 26  1  0  0  0  0
 28 27  2  0  0  0  0
 29 27  1  0  0  0  0
 30 31  1  0  0  0  0
 31 29  1  0  0  0  0
 33 35  1  6  0  0  0
 33 36  1  0  0  0  0
 34 37  1  6  0  0  0
 34 33  1  0  0  0  0
 34 36  1  0  0  0  0
 36 32  1  1  0  0  0
 38 37  1  0  0  0  0
 39 38  2  0  0  0  0
 40 50  1  6  0  0  0
 40 39  1  0  0  0  0
 41 40  1  0  0  0  0
 43 42  1  6  0  0  0
 43 41  1  0  0  0  0
 44 43  1  6  0  0  0
 44 46  1  0  0  0  0
 45 46  1  0  0  0  0
 47 45  1  0  0  0  0
 47 49  1  1  0  0  0
 47 44  1  0  0  0  0
 48 49  1  0  0  0  0
 51 50  1  0  0  0  0
 52 51  1  0  0  0  0
 53 52  1  0  0  0  0
 54 53  2  0  0  0  0
 55 53  1  0  0  0  0
 57 58  1  0  0  0  0
 57 56  1  1  0  0  0
 58 59  2  0  0  0  0
 58 60  1  0  0  0  0
 60 61  1  0  0  0  0
 62 63  1  0  0  0  0
 62 61  1  0  0  0  0
 64 65  1  6  0  0  0
 64 63  1  0  0  0  0
 66 64  1  0  0  0  0
 67 66  1  0  0  0  0
 68 67  1  0  0  0  0
 70 57  1  0  0  0  0
 70 69  1  0  0  0  0
M  END
>  <MODEL>
1

>  <REMARK>
 VINA RESULT:       6.6      0.000      0.000
  Name = 
  38 active torsions:
  status: ('A' for Active; 'I' for Inactive)
    1  A    between atoms: C_2  and  O_53
    2  A    between atoms: C_4  and  C_9
    3  A    between atoms: C_4  and  C_27
    4  A    between atoms: C_6  and  C_36
    5  A    between atoms: C_6  and  C_67
    6  A    between atoms: C_12  and  C_15
    7  A    between atoms: C_13  and  S_26
    8  A    between atoms: C_14  and  O_53
    9  A    between atoms: C_15  and  C_60
   10  A    between atoms: C_16  and  O_23
   11  A    between atoms: C_18  and  C_39
   12  A    between atoms: C_18  and  O_58
   13  A    between atoms: C_20  and  C_36
   14  A    between atoms: C_21  and  C_65
   15  A    between atoms: C_21  and  S_68
   16  A    between atoms: C_22  and  C_61
   17  A    between atoms: O_23  and  C_40
   18  A    between atoms: S_26  and  C_60
   19  A    between atoms: C_27  and  C_28
   20  A    between atoms: C_27  and  C_60
   21  A    between atoms: C_28  and  S_37
   22  A    between atoms: C_29  and  C_43
   23  A    between atoms: C_29  and  C_62
   24  A    between atoms: C_33  and  C_56
   25  A    between atoms: C_33  and  C_59
   26  A    between atoms: C_33  and  C_63
   27  A    between atoms: C_34  and  O_49
   28  A    between atoms: C_35  and  O_58
   29  A    between atoms: C_36  and  N_64
   30  A    between atoms: C_39  and  S_68
   31  A    between atoms: C_40  and  C_56
   32  A    between atoms: C_41  and  C_57
   33  A    between atoms: C_42  and  O_49
   34  A    between atoms: C_42  and  C_62
   35  A    between atoms: C_43  and  N_54
   36  A    between atoms: C_55  and  C_70
   37  A    between atoms: C_57  and  C_67
   38  A    between atoms: C_61  and  C_63
                            x       y       z     vdW  Elec       q    Type
                         _______ _______ _______ _____ _____    ______ ____

>  <TORSDO>
F 38

$$$$
=
 OpenBabel11072415273D

 70 73  0  0  1  0  0  0  0  0999 V2000
  162.3650  205.8520  149.6720 S   0  0  0  0  0  0  0  0  0  0  0  0
  162.1230  206.9760  148.5360 C   0  0  2  0  0  3  0  0  0  0  0  0
  159.9570  205.0970  148.9870 O   0  0  0  0  0  0  0  0  0  0  0  0
  160.8230  204.9820  149.8460 C   0  0  0  0  0  0  0  0  0  0  0  0
  160.5740  204.1490  151.0820 C   0  0  2  0  0  3  0  0  0  0  0  0
  161.1250  204.6750  152.4110 C   0  0  1  0  0  3  0  0  0  0  0  0
  159.8670  205.1530  153.6430 S   0  0  0  0  0  0  0  0  0  0  0  0
  162.0970  209.7960  154.6360 C   0  0  0  0  0  1  0  0  0  0  0  0
  161.4770  207.4450  153.8370 C   0  0  1  0  0  3  0  0  0  0  0  0
  160.3670  208.0930  153.2820 O   0  0  0  0  0  1  0  0  0  0  0  0
  162.0990  208.3010  154.9370 C   0  0  2  0  0  3  0  0  0  0  0  0
  161.0310  206.2030  154.5860 C   0  0  1  0  0  3  0  0  0  0  0  0
  159.0590  207.0410  155.9310 C   0  0  0  0  0  1  0  0  0  0  0  0
  160.5480  206.6760  155.9550 C   0  0  2  0  0  3  0  0  0  0  0  0
  160.7340  208.9360  156.8730 O   0  0  0  0  0  1  0  0  0  0  0  0
  161.4400  207.8900  156.2610 C   0  0  2  0  0  3  0  0  0  0  0  0
  162.0690  203.6530  153.0200 C   0  0  0  0  0  2  0  0  0  0  0  0
  163.0350  203.1130  151.9810 C   0  0  0  0  0  2  0  0  0  0  0  0
  163.4640  201.6930  152.3180 C   0  0  0  0  0  1  0  0  0  0  0  0
  160.8890  202.6730  150.8850 C   0  0  0  0  0  2  0  0  0  0  0  0
  159.7750  202.0030  150.1010 C   0  0  2  0  0  3  0  0  0  0  0  0
  160.2460  200.6640  149.5820 C   0  0  0  0  0  2  0  0  0  0  0  0
  160.1940  201.8560  148.6500 C   0  0  1  0  0  3  0  0  0  0  0  0
  158.9530  201.7620  147.7780 C   0  0  0  0  0  2  0  0  0  0  0  0
  159.3190  200.8570  146.2430 S   0  0  0  0  0  0  0  0  0  0  0  0
  161.0550  201.4080  146.1910 C   0  0  0  0  0  2  0  0  0  0  0  0
  161.1630  202.7700  145.6020 C   0  0  0  0  0  0  0  0  0  0  0  0
  162.2990  203.2790  145.4340 O   0  0  0  0  0  0  0  0  0  0  0  0
  160.0110  203.4710  145.2520 O   0  0  0  0  0  0  0  0  0  0  0  0
  159.7920  201.8450  143.5070 C   0  0  0  0  0  1  0  0  0  0  0  0
  159.2170  203.0970  144.1360 C   0  0  0  0  0  2  0  0  0  0  0  0
  162.7540  206.8520  147.1790 C   0  0  0  0  0  2  0  0  0  0  0  0
  160.6430  206.9980  145.8750 C   0  0  1  0  0  3  0  0  0  0  0  0
  161.7540  207.0020  144.8270 C   0  0  1  0  0  3  0  0  0  0  0  0
  159.5860  206.1600  145.5000 O   0  0  0  0  0  1  0  0  0  0  0  0
  161.9060  206.1750  146.0990 C   0  0  1  0  0  3  0  0  0  0  0  0
  161.4690  206.1260  143.7470 O   0  0  0  0  0  0  0  0  0  0  0  0
  161.2100  206.6400  142.4860 C   0  0  0  0  0  3  0  0  0  0  0  0
  161.9010  207.6870  142.0460 C   0  0  0  0  0  3  0  0  0  0  0  0
  161.6760  208.2830  140.6890 C   0  0  2  0  0  3  0  0  0  0  0  0
  160.4710  209.2120  140.6890 C   0  0  0  0  0  2  0  0  0  0  0  0
  159.6540  211.3170  139.9260 O   0  0  0  0  0  1  0  0  0  0  0  0
  160.7720  210.4810  139.8940 C   0  0  1  0  0  3  0  0  0  0  0  0
  161.9980  211.2560  140.4030 C   0  0  2  0  0  3  0  0  0  0  0  0
  162.0910  213.7050  140.7100 S   0  0  0  0  0  0  0  0  0  0  0  0
  161.6850  212.1630  141.5770 C   0  0  0  0  0  2  0  0  0  0  0  0
  162.3850  212.4010  139.4800 C   0  0  1  0  0  3  0  0  0  0  0  0
  164.1060  211.3800  138.1800 O   0  0  0  0  0  1  0  0  0  0  0  0
  163.8710  212.3340  139.1670 C   0  0  0  0  0  2  0  0  0  0  0  0
  161.4890  207.1910  139.6430 C   0  0  0  0  0  2  0  0  0  0  0  0
  162.2630  205.9280  139.9930 C   0  0  0  0  0  2  0  0  0  0  0  0
  163.1460  205.5790  138.9380 O   0  0  0  0  0  0  0  0  0  0  0  0
  163.0310  206.1490  137.6700 C   0  0  0  0  0  0  0  0  0  0  0  0
  164.0750  206.4080  137.0120 O   0  0  0  0  0  0  0  0  0  0  0  0
  161.7750  206.4330  137.1300 O   0  0  0  0  0  1  0  0  0  0  0  0
  161.3320  208.2020  148.8870 C   0  0  0  0  0  2  0  0  0  0  0  0
  162.2190  209.4020  149.2270 C   0  0  2  0  0  3  0  0  0  0  0  0
  161.4610  210.3890  150.0600 C   0  0  0  0  0  0  0  0  0  0  0  0
  161.3330  211.5820  149.6680 O   0  0  0  0  0  0  0  0  0  0  0  0
  160.8960  209.9720  151.3110 N   0  0  0  0  0  2  0  0  0  0  0  0
  160.4460  210.9360  152.3080 C   0  0  0  0  0  2  0  0  0  0  0  0
  158.9430  211.1360  152.1810 C   0  0  0  0  0  2  0  0  0  0  0  0
  158.3640  211.8210  153.4170 C   0  0  0  0  0  2  0  0  0  0  0  0
  158.3680  213.3480  153.3210 C   0  0  2  0  0  3  0  0  0  0  0  0
  159.0610  213.8290  152.0560 C   0  0  0  0  0  1  0  0  0  0  0  0
  158.9610  213.9230  154.4500 O   0  0  0  0  0  0  0  0  0  0  0  0
  158.7440  213.0040  155.4780 C   0  0  0  0  0  2  0  0  0  0  0  0
  160.0700  212.4600  155.9730 C   0  0  0  0  0  1  0  0  0  0  0  0
  161.9050  211.1420  147.8080 O   0  0  0  0  0  1  0  0  0  0  0  0
  162.6970  210.0590  148.0170 N   0  0  0  0  0  2  0  0  0  0  0  0
  1  4  1  0  0  0  0
  2 32  1  1  0  0  0
  2 56  1  0  0  0  0
  2  1  1  0  0  0  0
  3  4  2  0  0  0  0
  4  5  1  0  0  0  0
  5 20  1  6  0  0  0
  5  6  1  0  0  0  0
  6 17  1  1  0  0  0
  6  7  1  0  0  0  0
  9 10  1  1  0  0  0
  9 12  1  0  0  0  0
  9 11  1  0  0  0  0
 11  8  1  6  0  0  0
 11 16  1  0  0  0  0
 12  7  1  6  0  0  0
 12 14  1  0  0  0  0
 14 13  1  6  0  0  0
 14 16  1  0  0  0  0
 16 15  1  6  0  0  0
 18 19  1  0  0  0  0
 18 17  1  0  0  0  0
 21 20  1  1  0  0  0
 22 21  1  0  0  0  0
 23 24  1  6  0  0  0
 23 22  1  0  0  0  0
 23 21  1  0  0  0  0
 25 24  1  0  0  0  0
 26 25  1  0  0  0  0
 27 26  1  0  0  0  0
 28 27  2  0  0  0  0
 29 27  1  0  0  0  0
 30 31  1  0  0  0  0
 31 29  1  0  0  0  0
 33 35  1  6  0  0  0
 33 36  1  0  0  0  0
 34 37  1  6  0  0  0
 34 33  1  0  0  0  0
 34 36  1  0  0  0  0
 36 32  1  1  0  0  0
 38 37  1  0  0  0  0
 39 38  2  0  0  0  0
 40 50  1  6  0  0  0
 40 39  1  0  0  0  0
 41 40  1  0  0  0  0
 43 42  1  1  0  0  0
 43 41  1  0  0  0  0
 44 43  1  6  0  0  0
 44 46  1  0  0  0  0
 45 46  1  0  0  0  0
 47 49  1  1  0  0  0
 47 44  1  0  0  0  0
 47 45  1  0  0  0  0
 48 49  1  0  0  0  0
 50 51  1  0  0  0  0
 52 51  1  0  0  0  0
 53 52  1  0  0  0  0
 54 53  2  0  0  0  0
 55 53  1  0  0  0  0
 57 56  1  6  0  0  0
 57 58  1  0  0  0  0
 58 60  1  0  0  0  0
 59 58  2  0  0  0  0
 60 61  1  0  0  0  0
 62 61  1  0  0  0  0
 62 63  1  0  0  0  0
 64 65  1  6  0  0  0
 64 63  1  0  0  0  0
 64 66  1  0  0  0  0
 66 67  1  0  0  0  0
 67 68  1  0  0  0  0
 69 70  1  0  0  0  0
 70 57  1  0  0  0  0
M  END
>  <MODEL>
2

>  <REMARK>
 VINA RESULT:       6.7      2.061      3.363
  Name = 
  38 active torsions:
  status: ('A' for Active; 'I' for Inactive)
    1  A    between atoms: C_2  and  O_53
    2  A    between atoms: C_4  and  C_9
    3  A    between atoms: C_4  and  C_27
    4  A    between atoms: C_6  and  C_36
    5  A    between atoms: C_6  and  C_67
    6  A    between atoms: C_12  and  C_15
    7  A    between atoms: C_13  and  S_26
    8  A    between atoms: C_14  and  O_53
    9  A    between atoms: C_15  and  C_60
   10  A    between atoms: C_16  and  O_23
   11  A    between atoms: C_18  and  C_39
   12  A    between atoms: C_18  and  O_58
   13  A    between atoms: C_20  and  C_36
   14  A    between atoms: C_21  and  C_65
   15  A    between atoms: C_21  and  S_68
   16  A    between atoms: C_22  and  C_61
   17  A    between atoms: O_23  and  C_40
   18  A    between atoms: S_26  and  C_60
   19  A    between atoms: C_27  and  C_28
   20  A    between atoms: C_27  and  C_60
   21  A    between atoms: C_28  and  S_37
   22  A    between atoms: C_29  and  C_43
   23  A    between atoms: C_29  and  C_62
   24  A    between atoms: C_33  and  C_56
   25  A    between atoms: C_33  and  C_59
   26  A    between atoms: C_33  and  C_63
   27  A    between atoms: C_34  and  O_49
   28  A    between atoms: C_35  and  O_58
   29  A    between atoms: C_36  and  N_64
   30  A    between atoms: C_39  and  S_68
   31  A    between atoms: C_40  and  C_56
   32  A    between atoms: C_41  and  C_57
   33  A    between atoms: C_42  and  O_49
   34  A    between atoms: C_42  and  C_62
   35  A    between atoms: C_43  and  N_54
   36  A    between atoms: C_55  and  C_70
   37  A    between atoms: C_57  and  C_67
   38  A    between atoms: C_61  and  C_63
                            x       y       z     vdW  Elec       q    Type
                         _______ _______ _______ _____ _____    ______ ____

>  <TORSDO>
F 38

$$$$
=
 OpenBabel11072415273D

 70 73  0  0  1  0  0  0  0  0999 V2000
  162.6110  205.8770  149.9990 S   0  0  0  0  0  0  0  0  0  0  0  0
  162.6580  207.0440  148.8810 C   0  0  2  0  0  3  0  0  0  0  0  0
  160.1310  205.4380  149.2950 O   0  0  0  0  0  0  0  0  0  0  0  0
  160.8910  205.5030  150.2540 C   0  0  0  0  0  0  0  0  0  0  0  0
  160.3700  205.3160  151.6600 C   0  0  2  0  0  3  0  0  0  0  0  0
  160.7740  206.3600  152.7060 C   0  0  1  0  0  3  0  0  0  0  0  0
  159.4060  207.3620  153.3790 S   0  0  0  0  0  0  0  0  0  0  0  0
  162.6800  211.2320  152.0300 C   0  0  0  0  0  1  0  0  0  0  0  0
  161.5650  209.0520  152.7760 C   0  0  1  0  0  3  0  0  0  0  0  0
  160.9890  209.0910  151.5000 O   0  0  0  0  0  1  0  0  0  0  0  0
  162.0640  210.4370  153.1770 C   0  0  2  0  0  3  0  0  0  0  0  0
  160.5000  208.7610  153.8170 C   0  0  1  0  0  3  0  0  0  0  0  0
  158.6280  210.3280  153.1540 C   0  0  0  0  0  1  0  0  0  0  0  0
  159.8060  210.0900  154.1060 C   0  0  2  0  0  3  0  0  0  0  0  0
  160.4690  212.2970  153.2860 O   0  0  0  0  0  1  0  0  0  0  0  0
  160.9190  211.1340  153.9270 C   0  0  2  0  0  3  0  0  0  0  0  0
  161.5180  205.6870  153.8470 C   0  0  0  0  0  2  0  0  0  0  0  0
  161.7220  206.6450  155.0080 C   0  0  0  0  0  2  0  0  0  0  0  0
  161.1600  206.0670  156.2990 C   0  0  0  0  0  1  0  0  0  0  0  0
  160.5430  203.8970  152.1830 C   0  0  0  0  0  2  0  0  0  0  0  0
  160.1960  202.8970  151.0940 C   0  0  2  0  0  3  0  0  0  0  0  0
  161.1200  201.7040  151.1810 C   0  0  0  0  0  2  0  0  0  0  0  0
  161.3630  202.7690  150.1330 C   0  0  1  0  0  3  0  0  0  0  0  0
  160.8520  202.2810  148.7880 C   0  0  0  0  0  2  0  0  0  0  0  0
  162.2020  202.2430  147.5680 S   0  0  0  0  0  0  0  0  0  0  0  0
  161.3660  201.0210  146.5060 C   0  0  0  0  0  2  0  0  0  0  0  0
  159.9100  201.3130  146.4040 C   0  0  0  0  0  0  0  0  0  0  0  0
  159.1740  201.1240  147.4050 O   0  0  0  0  0  0  0  0  0  0  0  0
  159.3760  201.7810  145.2050 O   0  0  0  0  0  0  0  0  0  0  0  0
  158.8680  203.3300  143.4510 C   0  0  0  0  0  1  0  0  0  0  0  0
  159.4440  203.1500  144.8400 C   0  0  0  0  0  2  0  0  0  0  0  0
  163.1530  206.7620  147.4920 C   0  0  0  0  0  2  0  0  0  0  0  0
  160.9990  206.8650  146.2570 C   0  0  1  0  0  3  0  0  0  0  0  0
  162.0520  206.5900  145.1870 C   0  0  1  0  0  3  0  0  0  0  0  0
  159.8600  206.0700  146.0730 O   0  0  0  0  0  1  0  0  0  0  0  0
  162.2000  205.9850  146.5790 C   0  0  1  0  0  3  0  0  0  0  0  0
  161.6440  205.5690  144.2890 O   0  0  0  0  0  0  0  0  0  0  0  0
  161.5130  205.8440  142.9360 C   0  0  0  0  0  3  0  0  0  0  0  0
  162.5310  206.3820  142.2720 C   0  0  0  0  0  3  0  0  0  0  0  0
  162.4560  206.6950  140.8070 C   0  0  2  0  0  3  0  0  0  0  0  0
  161.0770  207.2100  140.4240 C   0  0  0  0  0  2  0  0  0  0  0  0
  159.9140  208.9060  139.2190 O   0  0  0  0  0  1  0  0  0  0  0  0
  161.1930  208.4490  139.5380 C   0  0  1  0  0  3  0  0  0  0  0  0
  161.9960  209.5950  140.1760 C   0  0  2  0  0  3  0  0  0  0  0  0
  161.3890  211.9860  140.0450 S   0  0  0  0  0  0  0  0  0  0  0  0
  161.1510  210.4960  141.0560 C   0  0  0  0  0  2  0  0  0  0  0  0
  162.3300  210.6940  139.1800 C   0  0  1  0  0  3  0  0  0  0  0  0
  164.0020  212.3930  139.0900 O   0  0  0  0  0  1  0  0  0  0  0  0
  163.8120  211.0230  139.2500 C   0  0  0  0  0  2  0  0  0  0  0  0
  162.8000  205.4660  139.9740 C   0  0  0  0  0  2  0  0  0  0  0  0
  162.7750  205.7650  138.4810 C   0  0  0  0  0  2  0  0  0  0  0  0
  163.3910  204.7120  137.7540 O   0  0  0  0  0  0  0  0  0  0  0  0
  162.9470  203.3940  137.8610 C   0  0  0  0  0  0  0  0  0  0  0  0
  163.4570  202.6400  138.7320 O   0  0  0  0  0  1  0  0  0  0  0  0
  161.9490  202.9090  137.0140 O   0  0  0  0  0  0  0  0  0  0  0  0
  162.2860  208.4420  149.2770 C   0  0  0  0  0  2  0  0  0  0  0  0
  162.1160  209.3730  148.0740 C   0  0  2  0  0  3  0  0  0  0  0  0
  162.3370  210.7960  148.4830 C   0  0  0  0  0  0  0  0  0  0  0  0
  163.2800  211.0900  149.2690 O   0  0  0  0  0  0  0  0  0  0  0  0
  161.4600  211.8190  147.9900 N   0  0  0  0  0  2  0  0  0  0  0  0
  161.4080  213.1430  148.5960 C   0  0  0  0  0  2  0  0  0  0  0  0
  162.3710  214.0730  147.8730 C   0  0  0  0  0  2  0  0  0  0  0  0
  162.4490  213.7490  146.3830 C   0  0  0  0  0  2  0  0  0  0  0  0
  161.0860  213.4540  145.7550 C   0  0  2  0  0  3  0  0  0  0  0  0
  161.1850  213.3040  144.2440 C   0  0  0  0  0  1  0  0  0  0  0  0
  160.1530  214.4420  146.0860 O   0  0  0  0  0  0  0  0  0  0  0  0
  159.0390  213.7430  146.5530 C   0  0  0  0  0  2  0  0  0  0  0  0
  157.8340  214.0530  145.6880 C   0  0  0  0  0  1  0  0  0  0  0  0
  160.5750  210.3320  146.7150 O   0  0  0  0  0  1  0  0  0  0  0  0
  160.7870  209.2390  147.4930 N   0  0  0  0  0  2  0  0  0  0  0  0
  1  4  1  0  0  0  0
  2 32  1  1  0  0  0
  2 56  1  0  0  0  0
  2  1  1  0  0  0  0
  3  4  2  0  0  0  0
  4  5  1  0  0  0  0
  5 20  1  1  0  0  0
  5  6  1  0  0  0  0
  6  7  1  0  0  0  0
  6 17  1  1  0  0  0
  9 10  1  6  0  0  0
  9 11  1  0  0  0  0
  9 12  1  0  0  0  0
 11  8  1  6  0  0  0
 11 16  1  0  0  0  0
 12  7  1  6  0  0  0
 12 14  1  0  0  0  0
 14 13  1  6  0  0  0
 16 15  1  6  0  0  0
 16 14  1  0  0  0  0
 17 18  1  0  0  0  0
 18 19  1  0  0  0  0
 21 22  1  0  0  0  0
 21 20  1  1  0  0  0
 23 24  1  6  0  0  0
 23 21  1  0  0  0  0
 23 22  1  0  0  0  0
 25 24  1  0  0  0  0
 26 25  1  0  0  0  0
 27 26  1  0  0  0  0
 27 28  2  0  0  0  0
 29 27  1  0  0  0  0
 30 31  1  0  0  0  0
 31 29  1  0  0  0  0
 33 35  1  6  0  0  0
 33 36  1  0  0  0  0
 34 37  1  6  0  0  0
 34 33  1  0  0  0  0
 34 36  1  0  0  0  0
 36 32  1  1  0  0  0
 38 37  1  0  0  0  0
 39 38  2  0  0  0  0
 40 50  1  6  0  0  0
 40 39  1  0  0  0  0
 41 40  1  0  0  0  0
 43 42  1  1  0  0  0
 43 41  1  0  0  0  0
 44 43  1  6  0  0  0
 44 46  1  0  0  0  0
 45 46  1  0  0  0  0
 47 49  1  1  0  0  0
 47 45  1  0  0  0  0
 47 44  1  0  0  0  0
 48 49  1  0  0  0  0
 51 50  1  0  0  0  0
 52 53  1  0  0  0  0
 52 51  1  0  0  0  0
 53 54  1  0  0  0  0
 55 53  2  0  0  0  0
 57 58  1  0  0  0  0
 57 56  1  1  0  0  0
 58 59  2  0  0  0  0
 60 58  1  0  0  0  0
 60 61  1  0  0  0  0
 62 61  1  0  0  0  0
 63 62  1  0  0  0  0
 64 65  1  6  0  0  0
 64 66  1  0  0  0  0
 64 63  1  0  0  0  0
 66 67  1  0  0  0  0
 68 67  1  0  0  0  0
 69 70  1  0  0  0  0
 70 57  1  0  0  0  0
M  END
>  <MODEL>
3

>  <REMARK>
 VINA RESULT:       7.6      1.373      1.862
  Name = 
  38 active torsions:
  status: ('A' for Active; 'I' for Inactive)
    1  A    between atoms: C_2  and  O_53
    2  A    between atoms: C_4  and  C_9
    3  A    between atoms: C_4  and  C_27
    4  A    between atoms: C_6  and  C_36
    5  A    between atoms: C_6  and  C_67
    6  A    between atoms: C_12  and  C_15
    7  A    between atoms: C_13  and  S_26
    8  A    between atoms: C_14  and  O_53
    9  A    between atoms: C_15  and  C_60
   10  A    between atoms: C_16  and  O_23
   11  A    between atoms: C_18  and  C_39
   12  A    between atoms: C_18  and  O_58
   13  A    between atoms: C_20  and  C_36
   14  A    between atoms: C_21  and  C_65
   15  A    between atoms: C_21  and  S_68
   16  A    between atoms: C_22  and  C_61
   17  A    between atoms: O_23  and  C_40
   18  A    between atoms: S_26  and  C_60
   19  A    between atoms: C_27  and  C_28
   20  A    between atoms: C_27  and  C_60
   21  A    between atoms: C_28  and  S_37
   22  A    between atoms: C_29  and  C_43
   23  A    between atoms: C_29  and  C_62
   24  A    between atoms: C_33  and  C_56
   25  A    between atoms: C_33  and  C_59
   26  A    between atoms: C_33  and  C_63
   27  A    between atoms: C_34  and  O_49
   28  A    between atoms: C_35  and  O_58
   29  A    between atoms: C_36  and  N_64
   30  A    between atoms: C_39  and  S_68
   31  A    between atoms: C_40  and  C_56
   32  A    between atoms: C_41  and  C_57
   33  A    between atoms: C_42  and  O_49
   34  A    between atoms: C_42  and  C_62
   35  A    between atoms: C_43  and  N_54
   36  A    between atoms: C_55  and  C_70
   37  A    between atoms: C_57  and  C_67
   38  A    between atoms: C_61  and  C_63
                            x       y       z     vdW  Elec       q    Type
                         _______ _______ _______ _____ _____    ______ ____

>  <TORSDO>
F 38

$$$$
=
 OpenBabel11072415273D

 70 74  0  0  1  0  0  0  0  0999 V2000
  162.5770  205.7100  149.8050 S   0  0  0  0  0  0  0  0  0  0  0  0
  162.4410  206.8930  148.7120 C   0  0  2  0  0  3  0  0  0  0  0  0
  160.2600  204.8850  148.9200 O   0  0  0  0  0  0  0  0  0  0  0  0
  160.9740  204.9460  149.9140 C   0  0  0  0  0  0  0  0  0  0  0  0
  160.4860  204.4240  151.2450 C   0  0  2  0  0  3  0  0  0  0  0  0
  160.9220  205.1820  152.5030 C   0  0  1  0  0  3  0  0  0  0  0  0
  159.6870  206.3390  153.1850 S   0  0  0  0  0  0  0  0  0  0  0  0
  161.3900  210.8620  155.2270 C   0  0  0  0  0  1  0  0  0  0  0  0
  160.8860  208.8050  153.7880 C   0  0  1  0  0  3  0  0  0  0  0  0
  159.5650  209.2620  153.8710 O   0  0  0  0  0  1  0  0  0  0  0  0
  161.7300  209.4090  154.9070 C   0  0  2  0  0  3  0  0  0  0  0  0
  160.9410  207.3180  154.0870 C   0  0  1  0  0  3  0  0  0  0  0  0
  159.4970  207.1120  156.1540 C   0  0  0  0  0  1  0  0  0  0  0  0
  160.9280  207.1850  155.6080 C   0  0  2  0  0  3  0  0  0  0  0  0
  161.0900  209.0010  157.2400 O   0  0  0  0  0  1  0  0  0  0  0  0
  161.6730  208.4380  156.0950 C   0  0  2  0  0  3  0  0  0  0  0  0
  161.3440  204.1970  153.5800 C   0  0  0  0  0  2  0  0  0  0  0  0
  161.8420  202.8990  152.9700 C   0  0  2  0  0  3  0  0  0  0  0  0
  163.0790  203.1350  152.1160 C   0  0  0  0  0  1  0  0  0  0  0  0
  160.6630  202.9200  151.4030 C   0  0  2  0  0  3  0  0  0  0  0  0
  160.2760  202.2140  150.1160 C   0  0  2  0  0  3  0  0  0  0  0  0
  161.3520  201.2250  149.7300 C   0  0  0  0  0  2  0  0  0  0  0  0
  161.2730  202.5630  149.0260 C   0  0  1  0  0  3  0  0  0  0  0  0
  160.6140  202.3820  147.6690 C   0  0  0  0  0  2  0  0  0  0  0  0
  158.8220  202.1260  147.8590 S   0  0  0  0  0  0  0  0  0  0  0  0
  158.6250  201.4300  146.1860 C   0  0  0  0  0  2  0  0  0  0  0  0
  159.9070  201.4880  145.4320 C   0  0  0  0  0  0  0  0  0  0  0  0
  160.3900  202.6070  145.1260 O   0  0  0  0  0  0  0  0  0  0  0  0
  160.5540  200.3100  145.0660 O   0  0  0  0  0  0  0  0  0  0  0  0
  161.8140  199.2090  146.7800 C   0  0  0  0  0  1  0  0  0  0  0  0
  161.8730  200.0150  145.4980 C   0  0  0  0  0  2  0  0  0  0  0  0
  163.0920  206.7770  147.3650 C   0  0  0  0  0  2  0  0  0  0  0  0
  161.0310  206.6090  145.9850 C   0  0  1  0  0  3  0  0  0  0  0  0
  162.1780  206.6200  144.9780 C   0  0  1  0  0  3  0  0  0  0  0  0
  160.0690  205.6460  145.6580 O   0  0  0  0  0  1  0  0  0  0  0  0
  162.3520  205.9300  146.3270 C   0  0  1  0  0  3  0  0  0  0  0  0
  162.0160  205.6280  143.9770 O   0  0  0  0  0  0  0  0  0  0  0  0
  161.8880  205.9970  142.6460 C   0  0  0  0  0  3  0  0  0  0  0  0
  162.5910  207.0240  142.1770 C   0  0  0  0  0  3  0  0  0  0  0  0
  162.5040  207.4670  140.7470 C   0  0  2  0  0  3  0  0  0  0  0  0
  161.3650  208.4540  140.5440 C   0  0  0  0  0  2  0  0  0  0  0  0
  162.6280  209.8880  139.1200 O   0  0  0  0  0  1  0  0  0  0  0  0
  161.9090  209.8620  140.3160 C   0  0  1  0  0  3  0  0  0  0  0  0
  160.8210  210.9490  140.2760 C   0  0  2  0  0  3  0  0  0  0  0  0
  159.8880  211.9350  138.2120 S   0  0  0  0  0  0  0  0  0  0  0  0
  159.6430  210.5800  139.3960 C   0  0  0  0  0  2  0  0  0  0  0  0
  161.2250  212.1430  139.4250 C   0  0  1  0  0  3  0  0  0  0  0  0
  161.6690  213.3720  141.4210 O   0  0  0  0  0  1  0  0  0  0  0  0
  161.0010  213.4300  140.2000 C   0  0  0  0  0  2  0  0  0  0  0  0
  162.3250  206.2700  139.8200 C   0  0  0  0  0  2  0  0  0  0  0  0
  163.2280  206.3570  138.5980 C   0  0  0  0  0  2  0  0  0  0  0  0
  162.4520  206.4980  137.4170 O   0  0  0  0  0  0  0  0  0  0  0  0
  161.7030  207.6480  137.1690 C   0  0  0  0  0  0  0  0  0  0  0  0
  160.4510  207.5580  137.0580 O   0  0  0  0  0  1  0  0  0  0  0  0
  162.3280  208.8910  137.0430 O   0  0  0  0  0  0  0  0  0  0  0  0
  161.7300  208.1560  149.0970 C   0  0  0  0  0  2  0  0  0  0  0  0
  161.8060  209.2330  148.0110 C   0  0  2  0  0  3  0  0  0  0  0  0
  161.6490  210.5940  148.6170 C   0  0  0  0  0  0  0  0  0  0  0  0
  161.3570  211.5820  147.8880 O   0  0  0  0  0  0  0  0  0  0  0  0
  161.8490  210.7680  150.0270 N   0  0  0  0  0  2  0  0  0  0  0  0
  162.0400  212.0860  150.6170 C   0  0  0  0  0  2  0  0  0  0  0  0
  160.8130  212.4610  151.4350 C   0  0  0  0  0  2  0  0  0  0  0  0
  159.6930  213.0010  150.5490 C   0  0  0  0  0  2  0  0  0  0  0  0
  159.0050  214.2380  151.1290 C   0  0  2  0  0  3  0  0  0  0  0  0
  159.2430  214.3620  152.6270 C   0  0  0  0  0  1  0  0  0  0  0  0
  157.6340  214.2300  150.8530 O   0  0  0  0  0  0  0  0  0  0  0  0
  157.5440  214.4220  149.4740 C   0  0  0  0  0  2  0  0  0  0  0  0
  157.9350  213.1500  148.7480 C   0  0  0  0  0  1  0  0  0  0  0  0
  160.7990  210.1130  146.1810 O   0  0  0  0  0  1  0  0  0  0  0  0
  160.7740  209.0330  147.0030 N   0  0  0  0  0  2  0  0  0  0  0  0
  1  4  1  0  0  0  0
  2 32  1  1  0  0  0
  2 56  1  0  0  0  0
  2  1  1  0  0  0  0
  3  4  2  0  0  0  0
  5  4  1  6  0  0  0
  5 20  1  0  0  0  0
  5  6  1  0  0  0  0
  6  7  1  1  0  0  0
  6 17  1  0  0  0  0
  9 10  1  1  0  0  0
  9 12  1  0  0  0  0
  9 11  1  0  0  0  0
 11  8  1  1  0  0  0
 11 16  1  0  0  0  0
 12  7  1  6  0  0  0
 12 14  1  0  0  0  0
 14 16  1  0  0  0  0
 14 13  1  1  0  0  0
 16 15  1  1  0  0  0
 18 19  1  6  0  0  0
 18 17  1  0  0  0  0
 20 21  1  6  0  0  0
 20 18  1  0  0  0  0
 21 22  1  1  0  0  0
 23 24  1  6  0  0  0
 23 22  1  0  0  0  0
 23 21  1  0  0  0  0
 24 25  1  0  0  0  0
 26 25  1  0  0  0  0
 27 26  1  0  0  0  0
 28 27  2  0  0  0  0
 29 27  1  0  0  0  0
 29 31  1  0  0  0  0
 31 30  1  0  0  0  0
 33 35  1  6  0  0  0
 33 36  1  0  0  0  0
 34 37  1  6  0  0  0
 34 33  1  0  0  0  0
 34 36  1  0  0  0  0
 36 32  1  1  0  0  0
 38 37  1  0  0  0  0
 39 38  2  0  0  0  0
 40 50  1  6  0  0  0
 40 39  1  0  0  0  0
 41 40  1  0  0  0  0
 43 42  1  6  0  0  0
 43 41  1  0  0  0  0
 44 43  1  6  0  0  0
 45 46  1  0  0  0  0
 45 47  1  0  0  0  0
 46 44  1  0  0  0  0
 47 49  1  1  0  0  0
 47 44  1  0  0  0  0
 49 48  1  0  0  0  0
 51 50  1  0  0  0  0
 52 51  1  0  0  0  0
 53 52  1  0  0  0  0
 54 53  1  0  0  0  0
 55 53  2  0  0  0  0
 57 58  1  0  0  0  0
 57 56  1  1  0  0  0
 58 60  1  0  0  0  0
 59 58  2  0  0  0  0
 60 61  1  0  0  0  0
 61 62  1  0  0  0  0
 63 64  1  0  0  0  0
 63 62  1  0  0  0  0
 64 65  1  1  0  0  0
 66 64  1  0  0  0  0
 67 66  1  0  0  0  0
 68 67  1  0  0  0  0
 69 70  1  0  0  0  0
 70 57  1  0  0  0  0
M  END
>  <MODEL>
4

>  <REMARK>
 VINA RESULT:       8.0      1.816      2.591
  Name = 
  38 active torsions:
  status: ('A' for Active; 'I' for Inactive)
    1  A    between atoms: C_2  and  O_53
    2  A    between atoms: C_4  and  C_9
    3  A    between atoms: C_4  and  C_27
    4  A    between atoms: C_6  and  C_36
    5  A    between atoms: C_6  and  C_67
    6  A    between atoms: C_12  and  C_15
    7  A    between atoms: C_13  and  S_26
    8  A    between atoms: C_14  and  O_53
    9  A    between atoms: C_15  and  C_60
   10  A    between atoms: C_16  and  O_23
   11  A    between atoms: C_18  and  C_39
   12  A    between atoms: C_18  and  O_58
   13  A    between atoms: C_20  and  C_36
   14  A    between atoms: C_21  and  C_65
   15  A    between atoms: C_21  and  S_68
   16  A    between atoms: C_22  and  C_61
   17  A    between atoms: O_23  and  C_40
   18  A    between atoms: S_26  and  C_60
   19  A    between atoms: C_27  and  C_28
   20  A    between atoms: C_27  and  C_60
   21  A    between atoms: C_28  and  S_37
   22  A    between atoms: C_29  and  C_43
   23  A    between atoms: C_29  and  C_62
   24  A    between atoms: C_33  and  C_56
   25  A    between atoms: C_33  and  C_59
   26  A    between atoms: C_33  and  C_63
   27  A    between atoms: C_34  and  O_49
   28  A    between atoms: C_35  and  O_58
   29  A    between atoms: C_36  and  N_64
   30  A    between atoms: C_39  and  S_68
   31  A    between atoms: C_40  and  C_56
   32  A    between atoms: C_41  and  C_57
   33  A    between atoms: C_42  and  O_49
   34  A    between atoms: C_42  and  C_62
   35  A    between atoms: C_43  and  N_54
   36  A    between atoms: C_55  and  C_70
   37  A    between atoms: C_57  and  C_67
   38  A    between atoms: C_61  and  C_63
                            x       y       z     vdW  Elec       q    Type
                         _______ _______ _______ _____ _____    ______ ____

>  <TORSDO>
F 38

$$$$
