=
 OpenBabel11072414333D

 36 40  0  0  1  0  0  0  0  0999 V2000
  160.7740  208.5750  154.4530 C   0  0  2  0  0  3  0  0  0  0  0  0
  160.2030  212.9130  150.0400 C   0  0  0  0  0  0  0  0  0  0  0  0
  161.3810  212.6920  149.1250 C   0  0  1  0  0  3  0  0  0  0  0  0
  161.8890  211.2790  149.2120 C   0  0  0  0  0  3  0  0  0  0  0  0
  159.0750  213.2530  149.5890 O   0  0  0  0  0  0  0  0  0  0  0  0
  162.2360  210.7700  150.3660 C   0  0  0  0  0  0  0  0  0  0  0  0
  161.8280  209.1550  152.1900 C   0  0  2  0  0  3  0  0  0  0  0  0
  159.3110  212.4550  152.3530 C   0  0  0  0  0  3  0  0  0  0  0  0
  160.3200  209.1170  151.9400 C   0  0  0  0  0  2  0  0  0  0  0  0
  160.7140  210.9720  153.5500 O   0  0  0  0  0  0  0  0  0  0  0  0
  160.3770  212.6550  151.4330 N   0  0  0  0  0  2  0  0  0  0  0  0
  160.8410  209.5680  153.2890 C   0  0  1  0  0  0  0  0  0  0  0  0
  162.5130  210.3390  151.5700 C   0  0  0  0  0  3  0  0  0  0  0  0
  161.0390  213.0040  147.7460 N   0  0  0  0  0  1  0  0  0  0  0  0
  159.4990  211.6560  153.3980 C   0  0  0  0  0  0  0  0  0  0  0  0
  158.3930  211.4660  154.3730 C   0  0  0  0  0  1  0  0  0  0  0  0
  162.2950  209.7070  156.1020 O   0  0  0  0  0  0  0  0  0  0  0  0
  161.0300  209.2310  155.7740 C   0  0  0  0  0  0  0  0  0  0  0  0
  160.0860  209.3660  156.5950 O   0  0  0  0  0  1  0  0  0  0  0  0
  161.7000  207.3850  154.2280 C   0  0  0  0  0  2  0  0  0  0  0  0
  160.9660  206.2900  153.6990 O   0  0  0  0  0  0  0  0  0  0  0  0
  162.4610  205.8450  151.9950 O   0  0  0  0  0  0  0  0  0  0  0  0
  161.4790  205.4730  152.6910 C   0  0  0  0  0  0  0  0  0  0  0  0
  160.8500  204.1500  152.4290 C   0  0  0  0  0  2  0  0  0  0  0  0
  161.5030  203.4990  151.2230 C   0  0  0  0  0  2  0  0  0  0  0  0
  160.9050  206.2550  145.2830 O   0  0  0  0  0  1  0  0  0  0  0  0
  161.3450  205.0950  148.7560 C   0  0  0  0  0  2  0  0  0  0  0  0
  160.7220  205.3090  146.2900 C   0  0  1  0  0  3  0  0  0  0  0  0
  161.3720  202.9360  146.6860 C   0  0  0  0  0  2  0  0  0  0  0  0
  161.5260  202.7250  148.1750 C   0  0  1  0  0  3  0  0  0  0  0  0
  161.8880  204.3300  146.2750 C   0  0  2  0  0  3  0  0  0  0  0  0
  160.6800  203.7260  148.8390 C   0  0  1  0  0  3  0  0  0  0  0  0
  160.4420  203.1010  150.1980 C   0  0  1  0  0  3  0  0  0  0  0  0
  161.8170  205.4650  147.3260 C   0  0  2  0  0  3  0  0  0  0  0  0
  160.9150  201.4530  148.6980 C   0  0  0  0  0  2  0  0  0  0  0  0
  160.4620  201.6970  150.0170 O   0  0  0  0  0  0  0  0  0  0  0  0
  1 20  1  6  0  0  0
  1 18  1  0  0  0  0
  2 11  1  0  0  0  0
  3 14  1  6  0  0  0
  3  4  1  0  0  0  0
  3  2  1  0  0  0  0
  4  6  2  0  0  0  0
  5  2  2  0  0  0  0
  6 13  2  0  0  0  0
  7 13  1  6  0  0  0
  7 12  1  0  0  0  0
  8 15  2  0  0  0  0
  9  7  1  0  0  0  0
  9 12  1  0  0  0  0
 11  8  1  0  0  0  0
 12 10  1  0  0  0  0
 12  1  1  1  0  0  0
 15 10  1  0  0  0  0
 15 16  1  0  0  0  0
 18 17  2  0  0  0  0
 18 19  1  0  0  0  0
 21 20  1  0  0  0  0
 22 23  2  0  0  0  0
 23 21  1  0  0  0  0
 24 23  1  0  0  0  0
 25 24  1  0  0  0  0
 28 26  1  6  0  0  0
 28 34  1  0  0  0  0
 30 29  1  6  0  0  0
 30 35  1  0  0  0  0
 30 32  1  0  0  0  0
 31 28  1  0  0  0  0
 31 29  1  1  0  0  0
 31 34  1  0  0  0  0
 32 27  1  1  0  0  0
 32 33  1  0  0  0  0
 33 25  1  1  0  0  0
 34 27  1  1  0  0  0
 35 36  1  0  0  0  0
 36 33  1  0  0  0  0
M  END
>  <MODEL>
1

>  <REMARK>
 VINA RESULT:      -7.9      0.000      0.000
  Name = 
  8 active torsions:
  status: ('A' for Active; 'I' for Inactive)
    1  A    between atoms: C_10  and  C_16
    2  A    between atoms: C_10  and  C_22
    3  A    between atoms: C_15  and  C_17
    4  A    between atoms: C_16  and  C_34
    5  A    between atoms: C_17  and  C_25
    6  A    between atoms: C_17  and  C_31
    7  A    between atoms: O_21  and  C_25
    8  A    between atoms: O_21  and  C_34
                            x       y       z     vdW  Elec       q    Type
                         _______ _______ _______ _____ _____    ______ ____

>  <TORSDO>
F 8

$$$$
=
 OpenBabel11072414333D

 36 40  0  0  1  0  0  0  0  0999 V2000
  162.0920  209.0850  150.8410 C   0  0  2  0  0  3  0  0  0  0  0  0
  160.9610  202.9780  151.0270 C   0  0  0  0  0  0  0  0  0  0  0  0
  160.6030  202.6070  149.6110 C   0  0  1  0  0  3  0  0  0  0  0  0
  161.1790  203.5840  148.6230 C   0  0  0  0  0  3  0  0  0  0  0  0
  161.6350  202.2030  151.7590 O   0  0  0  0  0  0  0  0  0  0  0  0
  160.9230  204.8620  148.7300 C   0  0  0  0  0  0  0  0  0  0  0  0
  161.7060  207.1590  149.1960 C   0  0  2  0  0  3  0  0  0  0  0  0
  161.1420  204.9070  152.6410 C   0  0  0  0  0  3  0  0  0  0  0  0
  162.8250  206.6850  150.1240 C   0  0  0  0  0  2  0  0  0  0  0  0
  160.8130  206.9840  151.5550 O   0  0  0  0  0  0  0  0  0  0  0  0
  160.5790  204.2690  151.5000 N   0  0  0  0  0  2  0  0  0  0  0  0
  161.7490  207.6040  150.6630 C   0  0  1  0  0  0  0  0  0  0  0  0
  160.6470  206.1230  148.9500 C   0  0  0  0  0  3  0  0  0  0  0  0
  161.0570  201.2630  149.2900 N   0  0  0  0  0  1  0  0  0  0  0  0
  161.2210  206.2330  152.6670 C   0  0  0  0  0  0  0  0  0  0  0  0
  161.7870  206.9010  153.8680 C   0  0  0  0  0  1  0  0  0  0  0  0
  162.1430  210.2860  153.0480 O   0  0  0  0  0  1  0  0  0  0  0  0
  161.4090  209.6890  152.0290 C   0  0  0  0  0  0  0  0  0  0  0  0
  160.1530  209.6660  152.1010 O   0  0  0  0  0  0  0  0  0  0  0  0
  161.8160  209.8810  149.5700 C   0  0  0  0  0  2  0  0  0  0  0  0
  162.0680  211.2610  149.7940 O   0  0  0  0  0  0  0  0  0  0  0  0
  163.1140  212.1030  147.9150 O   0  0  0  0  0  0  0  0  0  0  0  0
  162.1690  212.1750  148.7460 C   0  0  0  0  0  0  0  0  0  0  0  0
  161.1540  213.2550  148.6130 C   0  0  0  0  0  2  0  0  0  0  0  0
  161.6400  214.3010  147.6270 C   0  0  0  0  0  2  0  0  0  0  0  0
  163.2850  214.1830  141.2620 O   0  0  0  0  0  1  0  0  0  0  0  0
  162.7280  214.4530  144.8970 C   0  0  0  0  0  2  0  0  0  0  0  0
  162.4560  214.1240  142.3810 C   0  0  1  0  0  3  0  0  0  0  0  0
  161.0550  212.4000  143.5090 C   0  0  0  0  0  2  0  0  0  0  0  0
  161.0130  212.7100  144.9880 C   0  0  1  0  0  3  0  0  0  0  0  0
  162.4490  212.7020  142.9250 C   0  0  2  0  0  3  0  0  0  0  0  0
  161.2520  214.1530  145.1290 C   0  0  1  0  0  3  0  0  0  0  0  0
  160.6400  214.4530  146.4820 C   0  0  1  0  0  3  0  0  0  0  0  0
  163.2920  213.8090  143.6050 C   0  0  2  0  0  3  0  0  0  0  0  0
  159.6530  212.5890  145.6200 C   0  0  0  0  0  2  0  0  0  0  0  0
  159.5710  213.5420  146.6640 O   0  0  0  0  0  0  0  0  0  0  0  0
  1 20  1  6  0  0  0
  1 18  1  0  0  0  0
  2 11  1  0  0  0  0
  2  5  2  0  0  0  0
  3 14  1  6  0  0  0
  3  2  1  0  0  0  0
  4  6  2  0  0  0  0
  4  3  1  0  0  0  0
  6 13  2  0  0  0  0
  7 13  1  1  0  0  0
  7  9  1  0  0  0  0
  7 12  1  0  0  0  0
  8 15  2  0  0  0  0
  9 12  1  0  0  0  0
 10 15  1  0  0  0  0
 11  8  1  0  0  0  0
 12  1  1  1  0  0  0
 12 10  1  0  0  0  0
 15 16  1  0  0  0  0
 18 19  2  0  0  0  0
 18 17  1  0  0  0  0
 20 21  1  0  0  0  0
 22 23  2  0  0  0  0
 23 21  1  0  0  0  0
 24 23  1  0  0  0  0
 25 24  1  0  0  0  0
 28 26  1  6  0  0  0
 28 31  1  0  0  0  0
 28 34  1  0  0  0  0
 30 29  1  6  0  0  0
 30 32  1  0  0  0  0
 30 35  1  0  0  0  0
 31 29  1  1  0  0  0
 31 34  1  0  0  0  0
 32 27  1  1  0  0  0
 32 33  1  0  0  0  0
 33 36  1  0  0  0  0
 33 25  1  1  0  0  0
 34 27  1  1  0  0  0
 35 36  1  0  0  0  0
M  END
>  <MODEL>
2

>  <REMARK>
 VINA RESULT:      -7.8      4.145      8.413
  Name = 
  8 active torsions:
  status: ('A' for Active; 'I' for Inactive)
    1  A    between atoms: C_10  and  C_16
    2  A    between atoms: C_10  and  C_22
    3  A    between atoms: C_15  and  C_17
    4  A    between atoms: C_16  and  C_34
    5  A    between atoms: C_17  and  C_25
    6  A    between atoms: C_17  and  C_31
    7  A    between atoms: O_21  and  C_25
    8  A    between atoms: O_21  and  C_34
                            x       y       z     vdW  Elec       q    Type
                         _______ _______ _______ _____ _____    ______ ____

>  <TORSDO>
F 8

$$$$
=
 OpenBabel11072414333D

 36 40  0  0  1  0  0  0  0  0999 V2000
  161.7160  209.1680  152.3070 C   0  0  2  0  0  3  0  0  0  0  0  0
  158.6800  212.8680  156.2700 C   0  0  0  0  0  0  0  0  0  0  0  0
  158.0960  213.9600  155.4100 C   0  0  1  0  0  3  0  0  0  0  0  0
  157.9270  213.5090  153.9860 C   0  0  0  0  0  3  0  0  0  0  0  0
  158.0500  212.4040  157.2590 O   0  0  0  0  0  0  0  0  0  0  0  0
  158.9460  213.0370  153.3150 C   0  0  0  0  0  0  0  0  0  0  0  0
  160.0740  211.1330  152.2160 C   0  0  2  0  0  3  0  0  0  0  0  0
  160.4450  211.0700  156.3530 C   0  0  0  0  0  3  0  0  0  0  0  0
  159.4240  210.1010  153.1370 C   0  0  0  0  0  2  0  0  0  0  0  0
  161.5240  210.8120  154.2630 O   0  0  0  0  0  0  0  0  0  0  0  0
  159.9410  212.3180  155.8910 N   0  0  0  0  0  2  0  0  0  0  0  0
  160.9330  210.2190  153.0990 C   0  0  1  0  0  0  0  0  0  0  0  0
  160.0140  212.5370  152.7470 C   0  0  0  0  0  3  0  0  0  0  0  0
  156.8170  214.4130  155.9340 N   0  0  0  0  0  1  0  0  0  0  0  0
  161.2400  210.3610  155.5600 C   0  0  0  0  0  0  0  0  0  0  0  0
  161.7870  209.0680  156.0510 C   0  0  0  0  0  1  0  0  0  0  0  0
  161.9560  209.1920  149.8060 O   0  0  0  0  0  0  0  0  0  0  0  0
  162.2970  209.7240  151.0450 C   0  0  0  0  0  0  0  0  0  0  0  0
  163.0950  210.6950  151.1030 O   0  0  0  0  0  1  0  0  0  0  0  0
  160.8720  207.9260  152.0380 C   0  0  0  0  0  2  0  0  0  0  0  0
  161.6610  206.7560  152.2020 O   0  0  0  0  0  0  0  0  0  0  0  0
  161.0870  205.9500  154.2890 O   0  0  0  0  0  0  0  0  0  0  0  0
  161.2870  205.7270  153.0650 C   0  0  0  0  0  0  0  0  0  0  0  0
  161.1340  204.3450  152.5360 C   0  0  0  0  0  2  0  0  0  0  0  0
  161.6520  204.2770  151.1120 C   0  0  0  0  0  2  0  0  0  0  0  0
  161.0720  206.1730  144.8420 O   0  0  0  0  0  1  0  0  0  0  0  0
  161.5250  205.5050  148.4400 C   0  0  0  0  0  2  0  0  0  0  0  0
  160.8620  205.3940  145.9780 C   0  0  1  0  0  3  0  0  0  0  0  0
  161.3940  203.0720  146.7070 C   0  0  0  0  0  2  0  0  0  0  0  0
  161.5690  203.0700  148.2090 C   0  0  1  0  0  3  0  0  0  0  0  0
  161.9740  204.3600  146.0910 C   0  0  2  0  0  3  0  0  0  0  0  0
  160.7910  204.2020  148.7310 C   0  0  1  0  0  3  0  0  0  0  0  0
  160.5500  203.7940  150.1700 C   0  0  1  0  0  3  0  0  0  0  0  0
  161.9850  205.6380  146.9660 C   0  0  2  0  0  3  0  0  0  0  0  0
  160.9030  201.9230  148.9200 C   0  0  0  0  0  2  0  0  0  0  0  0
  160.4920  202.3800  150.1950 O   0  0  0  0  0  0  0  0  0  0  0  0
  1 20  1  6  0  0  0
  2  5  2  0  0  0  0
  3 14  1  1  0  0  0
  3  2  1  0  0  0  0
  4  3  1  0  0  0  0
  6  4  2  0  0  0  0
  7 13  1  1  0  0  0
  7 12  1  0  0  0  0
  7  9  1  0  0  0  0
 10 15  1  0  0  0  0
 11  2  1  0  0  0  0
 11  8  1  0  0  0  0
 12  1  1  6  0  0  0
 12  9  1  0  0  0  0
 12 10  1  0  0  0  0
 13  6  2  0  0  0  0
 15 16  1  0  0  0  0
 15  8  2  0  0  0  0
 17 18  2  0  0  0  0
 18 19  1  0  0  0  0
 18  1  1  0  0  0  0
 20 21  1  0  0  0  0
 21 23  1  0  0  0  0
 23 22  2  0  0  0  0
 24 23  1  0  0  0  0
 25 24  1  0  0  0  0
 28 26  1  6  0  0  0
 28 31  1  0  0  0  0
 28 34  1  0  0  0  0
 30 29  1  6  0  0  0
 30 32  1  0  0  0  0
 30 35  1  0  0  0  0
 31 29  1  1  0  0  0
 31 34  1  0  0  0  0
 32 27  1  1  0  0  0
 32 33  1  0  0  0  0
 33 36  1  0  0  0  0
 33 25  1  1  0  0  0
 34 27  1  1  0  0  0
 35 36  1  0  0  0  0
M  END
>  <MODEL>
3

>  <REMARK>
 VINA RESULT:      -7.7      2.240      3.845
  Name = 
  8 active torsions:
  status: ('A' for Active; 'I' for Inactive)
    1  A    between atoms: C_10  and  C_16
    2  A    between atoms: C_10  and  C_22
    3  A    between atoms: C_15  and  C_17
    4  A    between atoms: C_16  and  C_34
    5  A    between atoms: C_17  and  C_25
    6  A    between atoms: C_17  and  C_31
    7  A    between atoms: O_21  and  C_25
    8  A    between atoms: O_21  and  C_34
                            x       y       z     vdW  Elec       q    Type
                         _______ _______ _______ _____ _____    ______ ____

>  <TORSDO>
F 8

$$$$
=
 OpenBabel11072414333D

 36 40  0  0  1  0  0  0  0  0999 V2000
  160.4710  210.1110  155.0310 C   0  0  2  0  0  3  0  0  0  0  0  0
  156.1860  213.9220  152.6380 C   0  0  0  0  0  0  0  0  0  0  0  0
  156.7010  214.2710  151.2640 C   0  0  1  0  0  3  0  0  0  0  0  0
  157.6430  213.2190  150.7460 C   0  0  0  0  0  3  0  0  0  0  0  0
  154.9550  213.7520  152.8540 O   0  0  0  0  0  0  0  0  0  0  0  0
  158.6950  212.8710  151.4420 C   0  0  0  0  0  0  0  0  0  0  0  0
  159.9030  211.1740  152.7700 C   0  0  2  0  0  3  0  0  0  0  0  0
  156.8620  213.0370  154.8990 C   0  0  0  0  0  3  0  0  0  0  0  0
  158.6170  210.4920  153.2340 C   0  0  0  0  0  2  0  0  0  0  0  0
  159.1020  212.2730  154.9010 O   0  0  0  0  0  0  0  0  0  0  0  0
  157.1390  213.7150  153.6800 N   0  0  0  0  0  2  0  0  0  0  0  0
  159.5640  211.0750  154.2620 C   0  0  1  0  0  0  0  0  0  0  0  0
  159.6910  212.5600  152.2320 C   0  0  0  0  0  3  0  0  0  0  0  0
  155.6070  214.4530  150.3240 N   0  0  0  0  0  1  0  0  0  0  0  0
  157.8370  212.3620  155.5000 C   0  0  0  0  0  0  0  0  0  0  0  0
  157.5550  211.6730  156.7870 C   0  0  0  0  0  1  0  0  0  0  0  0
  160.9830  211.2050  157.2350 O   0  0  0  0  0  1  0  0  0  0  0  0
  161.4000  210.8270  155.9630 C   0  0  0  0  0  0  0  0  0  0  0  0
  162.5770  211.0770  155.5960 O   0  0  0  0  0  0  0  0  0  0  0  0
  161.2280  209.1810  154.0880 C   0  0  0  0  0  2  0  0  0  0  0  0
  160.6380  207.8890  154.1020 O   0  0  0  0  0  0  0  0  0  0  0  0
  161.1070  205.6720  153.6510 O   0  0  0  0  0  0  0  0  0  0  0  0
  161.0730  206.8690  153.2570 C   0  0  0  0  0  0  0  0  0  0  0  0
  161.5130  207.2000  151.8740 C   0  0  0  0  0  2  0  0  0  0  0  0
  161.8930  205.9300  151.1360 C   0  0  0  0  0  2  0  0  0  0  0  0
  161.1630  205.7600  144.6030 O   0  0  0  0  0  1  0  0  0  0  0  0
  161.7600  206.2310  148.2120 C   0  0  0  0  0  2  0  0  0  0  0  0
  160.9230  205.4330  145.9360 C   0  0  1  0  0  3  0  0  0  0  0  0
  161.1710  203.4190  147.3820 C   0  0  0  0  0  2  0  0  0  0  0  0
  161.4450  203.8760  148.7960 C   0  0  1  0  0  3  0  0  0  0  0  0
  161.8840  204.3330  146.3640 C   0  0  2  0  0  3  0  0  0  0  0  0
  160.8710  205.2220  148.9290 C   0  0  1  0  0  3  0  0  0  0  0  0
  160.6730  205.3450  150.4260 C   0  0  1  0  0  3  0  0  0  0  0  0
  162.1330  205.8060  146.7680 C   0  0  2  0  0  3  0  0  0  0  0  0
  160.6750  203.1390  149.8580 C   0  0  0  0  0  2  0  0  0  0  0  0
  160.4190  204.0420  150.9180 O   0  0  0  0  0  0  0  0  0  0  0  0
  1 20  1  6  0  0  0
  1 18  1  0  0  0  0
  2  5  2  0  0  0  0
  2 11  1  0  0  0  0
  3 14  1  6  0  0  0
  3  2  1  0  0  0  0
  4  3  1  0  0  0  0
  4  6  2  0  0  0  0
  6 13  2  0  0  0  0
  7 13  1  6  0  0  0
  7  9  1  0  0  0  0
  7 12  1  0  0  0  0
  8 15  2  0  0  0  0
  9 12  1  0  0  0  0
 10 15  1  0  0  0  0
 11  8  1  0  0  0  0
 12 10  1  0  0  0  0
 12  1  1  1  0  0  0
 15 16  1  0  0  0  0
 18 17  1  0  0  0  0
 19 18  2  0  0  0  0
 20 21  1  0  0  0  0
 23 22  2  0  0  0  0
 23 21  1  0  0  0  0
 24 23  1  0  0  0  0
 25 24  1  0  0  0  0
 28 26  1  6  0  0  0
 28 31  1  0  0  0  0
 28 34  1  0  0  0  0
 30 29  1  6  0  0  0
 30 32  1  0  0  0  0
 30 35  1  0  0  0  0
 31 34  1  0  0  0  0
 31 29  1  1  0  0  0
 32 27  1  1  0  0  0
 32 33  1  0  0  0  0
 33 36  1  0  0  0  0
 33 25  1  1  0  0  0
 34 27  1  1  0  0  0
 35 36  1  0  0  0  0
M  END
>  <MODEL>
4

>  <REMARK>
 VINA RESULT:      -7.7      2.331      2.972
  Name = 
  8 active torsions:
  status: ('A' for Active; 'I' for Inactive)
    1  A    between atoms: C_10  and  C_16
    2  A    between atoms: C_10  and  C_22
    3  A    between atoms: C_15  and  C_17
    4  A    between atoms: C_16  and  C_34
    5  A    between atoms: C_17  and  C_25
    6  A    between atoms: C_17  and  C_31
    7  A    between atoms: O_21  and  C_25
    8  A    between atoms: O_21  and  C_34
                            x       y       z     vdW  Elec       q    Type
                         _______ _______ _______ _____ _____    ______ ____

>  <TORSDO>
F 8

$$$$
=
 OpenBabel11072414333D

 36 40  0  0  1  0  0  0  0  0999 V2000
  160.9610  207.5840  152.0160 C   0  0  2  0  0  3  0  0  0  0  0  0
  161.8070  205.0650  146.3990 C   0  0  0  0  0  0  0  0  0  0  0  0
  161.7170  203.5770  146.6230 C   0  0  1  0  0  3  0  0  0  0  0  0
  160.9240  203.2540  147.8600 C   0  0  0  0  0  3  0  0  0  0  0  0
  161.3410  205.6010  145.3560 O   0  0  0  0  0  0  0  0  0  0  0  0
  161.2610  203.7670  149.0150 C   0  0  0  0  0  0  0  0  0  0  0  0
  160.7580  205.2870  150.8970 C   0  0  2  0  0  3  0  0  0  0  0  0
  162.1970  207.2760  147.5460 C   0  0  0  0  0  3  0  0  0  0  0  0
  159.9380  206.2400  150.0260 C   0  0  0  0  0  2  0  0  0  0  0  0
  162.2920  207.0310  149.8980 O   0  0  0  0  0  0  0  0  0  0  0  0
  162.3710  205.8680  147.4340 N   0  0  0  0  0  2  0  0  0  0  0  0
  161.1670  206.7580  150.7430 C   0  0  1  0  0  0  0  0  0  0  0  0
  161.6480  204.3670  150.1120 C   0  0  0  0  0  3  0  0  0  0  0  0
  161.1260  202.9070  145.4760 N   0  0  0  0  0  1  0  0  0  0  0  0
  162.1920  207.8330  148.7520 C   0  0  0  0  0  0  0  0  0  0  0  0
  162.0340  209.3070  148.8680 C   0  0  0  0  0  1  0  0  0  0  0  0
  160.4850  210.0320  151.7070 O   0  0  0  0  0  0  0  0  0  0  0  0
  161.4100  209.0030  151.8500 C   0  0  0  0  0  0  0  0  0  0  0  0
  162.6390  209.2700  151.8540 O   0  0  0  0  0  1  0  0  0  0  0  0
  161.6160  206.9240  153.2240 C   0  0  0  0  0  2  0  0  0  0  0  0
  160.6430  206.6670  154.2270 O   0  0  0  0  0  0  0  0  0  0  0  0
  160.2410  206.8460  156.4940 O   0  0  0  0  0  0  0  0  0  0  0  0
  160.5960  207.3930  155.4160 C   0  0  0  0  0  0  0  0  0  0  0  0
  160.9600  208.8360  155.4090 C   0  0  0  0  0  2  0  0  0  0  0  0
  159.7070  209.6850  155.5160 C   0  0  0  0  0  2  0  0  0  0  0  0
  154.9870  213.9600  153.8760 O   0  0  0  0  0  1  0  0  0  0  0  0
  157.3810  211.2610  154.6390 C   0  0  0  0  0  2  0  0  0  0  0  0
  156.2650  213.5160  154.2100 C   0  0  1  0  0  3  0  0  0  0  0  0
  157.8520  213.8230  156.1070 C   0  0  0  0  0  2  0  0  0  0  0  0
  158.6900  212.5720  156.2370 C   0  0  1  0  0  3  0  0  0  0  0  0
  156.4000  213.4710  155.7260 C   0  0  2  0  0  3  0  0  0  0  0  0
  158.7190  211.9370  154.9120 C   0  0  1  0  0  3  0  0  0  0  0  0
  159.9740  211.0910  154.9840 C   0  0  1  0  0  3  0  0  0  0  0  0
  156.1600  212.1770  154.9120 C   0  0  2  0  0  3  0  0  0  0  0  0
  160.1580  212.8170  156.4600 C   0  0  0  0  0  2  0  0  0  0  0  0
  160.8750  211.7610  155.8470 O   0  0  0  0  0  0  0  0  0  0  0  0
  1 20  1  1  0  0  0
  2  3  1  0  0  0  0
  2 11  1  0  0  0  0
  3 14  1  6  0  0  0
  3  4  1  0  0  0  0
  4  6  2  0  0  0  0
  5  2  2  0  0  0  0
  6 13  2  0  0  0  0
  7  9  1  6  0  0  0
  8 15  2  0  0  0  0
  9 12  1  0  0  0  0
 10 12  1  0  0  0  0
 11  8  1  0  0  0  0
 12  7  1  0  0  0  0
 12  1  1  1  0  0  0
 13  7  1  0  0  0  0
 15 16  1  0  0  0  0
 15 10  1  0  0  0  0
 17 18  2  0  0  0  0
 18 19  1  0  0  0  0
 18  1  1  0  0  0  0
 20 21  1  0  0  0  0
 21 23  1  0  0  0  0
 23 22  2  0  0  0  0
 24 23  1  0  0  0  0
 24 25  1  0  0  0  0
 28 26  1  1  0  0  0
 28 34  1  0  0  0  0
 28 31  1  0  0  0  0
 30 29  1  6  0  0  0
 30 35  1  0  0  0  0
 31 29  1  6  0  0  0
 32 27  1  1  0  0  0
 32 33  1  0  0  0  0
 32 30  1  0  0  0  0
 33 25  1  1  0  0  0
 33 36  1  0  0  0  0
 34 27  1  6  0  0  0
 34 31  1  0  0  0  0
 36 35  1  0  0  0  0
M  END
>  <MODEL>
5

>  <REMARK>
 VINA RESULT:      -7.3      2.997      8.602
  Name = 
  8 active torsions:
  status: ('A' for Active; 'I' for Inactive)
    1  A    between atoms: C_10  and  C_16
    2  A    between atoms: C_10  and  C_22
    3  A    between atoms: C_15  and  C_17
    4  A    between atoms: C_16  and  C_34
    5  A    between atoms: C_17  and  C_25
    6  A    between atoms: C_17  and  C_31
    7  A    between atoms: O_21  and  C_25
    8  A    between atoms: O_21  and  C_34
                            x       y       z     vdW  Elec       q    Type
                         _______ _______ _______ _____ _____    ______ ____

>  <TORSDO>
F 8

$$$$
=
 OpenBabel11072414333D

 36 40  0  0  1  0  0  0  0  0999 V2000
  160.6560  212.3650  149.2430 C   0  0  2  0  0  3  0  0  0  0  0  0
  159.8270  213.6610  143.2230 C   0  0  0  0  0  0  0  0  0  0  0  0
  161.2110  213.9250  142.6890 C   0  0  1  0  0  3  0  0  0  0  0  0
  162.2630  213.2550  143.5290 C   0  0  0  0  0  3  0  0  0  0  0  0
  158.9590  213.0620  142.5310 O   0  0  0  0  0  0  0  0  0  0  0  0
  162.3290  213.4850  144.8160 C   0  0  0  0  0  0  0  0  0  0  0  0
  162.0830  212.6800  147.1390 C   0  0  2  0  0  3  0  0  0  0  0  0
  158.4460  213.5490  145.3300 C   0  0  0  0  0  3  0  0  0  0  0  0
  161.0240  211.6440  146.7620 C   0  0  0  0  0  2  0  0  0  0  0  0
  159.7940  213.7460  147.2650 O   0  0  0  0  0  0  0  0  0  0  0  0
  159.5410  214.0440  144.5680 N   0  0  0  0  0  2  0  0  0  0  0  0
  160.6800  212.7320  147.7570 C   0  0  1  0  0  0  0  0  0  0  0  0
  162.2820  213.7440  146.0980 C   0  0  0  0  0  3  0  0  0  0  0  0
  161.3350  213.4830  141.3090 N   0  0  0  0  0  1  0  0  0  0  0  0
  158.5730  213.4380  146.6480 C   0  0  0  0  0  0  0  0  0  0  0  0
  157.4210  212.9440  147.4470 C   0  0  0  0  0  1  0  0  0  0  0  0
  158.8750  213.4810  150.6210 O   0  0  0  0  0  1  0  0  0  0  0  0
  160.1640  213.4910  150.0990 C   0  0  0  0  0  0  0  0  0  0  0  0
  160.9310  214.4530  150.3610 O   0  0  0  0  0  0  0  0  0  0  0  0
  162.0120  211.8510  149.7160 C   0  0  0  0  0  2  0  0  0  0  0  0
  161.8420  210.6750  150.4960 O   0  0  0  0  0  0  0  0  0  0  0  0
  162.3110  209.2120  148.7710 O   0  0  0  0  0  0  0  0  0  0  0  0
  161.8440  209.4030  149.9260 C   0  0  0  0  0  0  0  0  0  0  0  0
  161.2770  208.2570  150.6880 C   0  0  0  0  0  2  0  0  0  0  0  0
  161.8180  206.9520  150.1350 C   0  0  0  0  0  2  0  0  0  0  0  0
  161.3490  205.0650  143.8540 O   0  0  0  0  0  1  0  0  0  0  0  0
  161.7690  206.4880  147.2300 C   0  0  0  0  0  2  0  0  0  0  0  0
  161.0860  205.0670  145.2220 C   0  0  1  0  0  3  0  0  0  0  0  0
  161.4470  203.5160  147.1390 C   0  0  0  0  0  2  0  0  0  0  0  0
  161.6290  204.3400  148.3930 C   0  0  1  0  0  3  0  0  0  0  0  0
  162.1190  204.2020  145.9320 C   0  0  2  0  0  3  0  0  0  0  0  0
  160.9410  205.6190  148.1680 C   0  0  1  0  0  3  0  0  0  0  0  0
  160.6780  206.0990  149.5810 C   0  0  1  0  0  3  0  0  0  0  0  0
  162.2300  205.7460  145.9490 C   0  0  2  0  0  3  0  0  0  0  0  0
  160.8830  203.8300  149.5960 C   0  0  0  0  0  2  0  0  0  0  0  0
  160.5150  204.9460  150.3860 O   0  0  0  0  0  0  0  0  0  0  0  0
  1 20  1  1  0  0  0
  1 18  1  0  0  0  0
  2 11  1  0  0  0  0
  3 14  1  6  0  0  0
  3  2  1  0  0  0  0
  3  4  1  0  0  0  0
  4  6  2  0  0  0  0
  5  2  2  0  0  0  0
  6 13  2  0  0  0  0
  7 13  1  6  0  0  0
  7 12  1  0  0  0  0
  8 15  2  0  0  0  0
  9  7  1  0  0  0  0
  9 12  1  0  0  0  0
 10 12  1  0  0  0  0
 11  8  1  0  0  0  0
 12  1  1  1  0  0  0
 15 10  1  0  0  0  0
 15 16  1  0  0  0  0
 18 19  2  0  0  0  0
 18 17  1  0  0  0  0
 20 21  1  0  0  0  0
 22 23  2  0  0  0  0
 23 21  1  0  0  0  0
 23 24  1  0  0  0  0
 25 24  1  0  0  0  0
 28 26  1  6  0  0  0
 28 31  1  0  0  0  0
 28 34  1  0  0  0  0
 30 29  1  6  0  0  0
 30 35  1  0  0  0  0
 31 34  1  0  0  0  0
 31 29  1  1  0  0  0
 32 27  1  1  0  0  0
 32 30  1  0  0  0  0
 32 33  1  0  0  0  0
 33 25  1  1  0  0  0
 33 36  1  0  0  0  0
 34 27  1  1  0  0  0
 35 36  1  0  0  0  0
M  END
>  <MODEL>
6

>  <REMARK>
 VINA RESULT:      -7.2      3.310      5.448
  Name = 
  8 active torsions:
  status: ('A' for Active; 'I' for Inactive)
    1  A    between atoms: C_10  and  C_16
    2  A    between atoms: C_10  and  C_22
    3  A    between atoms: C_15  and  C_17
    4  A    between atoms: C_16  and  C_34
    5  A    between atoms: C_17  and  C_25
    6  A    between atoms: C_17  and  C_31
    7  A    between atoms: O_21  and  C_25
    8  A    between atoms: O_21  and  C_34
                            x       y       z     vdW  Elec       q    Type
                         _______ _______ _______ _____ _____    ______ ____

>  <TORSDO>
F 8

$$$$
=
 OpenBabel11072414333D

 36 40  0  0  1  0  0  0  0  0999 V2000
  161.5420  207.9220  152.3810 C   0  0  2  0  0  3  0  0  0  0  0  0
  161.4770  203.9590  147.5950 C   0  0  0  0  0  0  0  0  0  0  0  0
  161.5920  204.8290  146.3700 C   0  0  1  0  0  3  0  0  0  0  0  0
  162.2400  206.1480  146.6900 C   0  0  0  0  0  3  0  0  0  0  0  0
  162.0460  202.8350  147.6590 O   0  0  0  0  0  0  0  0  0  0  0  0
  161.7470  206.9170  147.6260 C   0  0  0  0  0  0  0  0  0  0  0  0
  161.9620  207.9650  149.8540 C   0  0  2  0  0  3  0  0  0  0  0  0
  160.8700  203.9620  150.0420 C   0  0  0  0  0  3  0  0  0  0  0  0
  162.8470  206.8420  150.3950 C   0  0  0  0  0  2  0  0  0  0  0  0
  160.4990  206.1570  150.8440 O   0  0  0  0  0  0  0  0  0  0  0  0
  160.7620  204.4720  148.7190 N   0  0  0  0  0  2  0  0  0  0  0  0
  161.5220  207.1360  151.0670 C   0  0  1  0  0  0  0  0  0  0  0  0
  161.2080  207.5920  148.6100 C   0  0  0  0  0  3  0  0  0  0  0  0
  162.3420  204.1590  145.3190 N   0  0  0  0  0  1  0  0  0  0  0  0
  160.7090  204.7890  151.0690 C   0  0  0  0  0  0  0  0  0  0  0  0
  160.7980  204.2520  152.4530 C   0  0  0  0  0  1  0  0  0  0  0  0
  160.2810  207.0710  154.3810 O   0  0  0  0  0  1  0  0  0  0  0  0
  161.4150  207.0300  153.5770 C   0  0  0  0  0  0  0  0  0  0  0  0
  162.3400  206.2240  153.8520 O   0  0  0  0  0  0  0  0  0  0  0  0
  160.4910  209.0270  152.3900 C   0  0  0  0  0  2  0  0  0  0  0  0
  161.1210  210.2980  152.4650 O   0  0  0  0  0  0  0  0  0  0  0  0
  160.5170  211.5300  154.3230 O   0  0  0  0  0  0  0  0  0  0  0  0
  160.5060  211.3930  153.0700 C   0  0  0  0  0  0  0  0  0  0  0  0
  159.8190  212.4080  152.2260 C   0  0  0  0  0  2  0  0  0  0  0  0
  160.4780  212.4750  150.8610 C   0  0  0  0  0  2  0  0  0  0  0  0
  162.8950  214.3430  145.0380 O   0  0  0  0  0  1  0  0  0  0  0  0
  161.9250  213.1400  148.3860 C   0  0  0  0  0  2  0  0  0  0  0  0
  162.0280  214.3270  146.1290 C   0  0  1  0  0  3  0  0  0  0  0  0
  159.6460  213.7250  146.5410 C   0  0  0  0  0  2  0  0  0  0  0  0
  159.5160  213.2280  147.9630 C   0  0  1  0  0  3  0  0  0  0  0  0
  160.9720  213.2510  145.9140 C   0  0  2  0  0  3  0  0  0  0  0  0
  160.6130  213.8360  148.7290 C   0  0  1  0  0  3  0  0  0  0  0  0
  160.0920  213.7710  150.1500 C   0  0  1  0  0  3  0  0  0  0  0  0
  162.1720  213.0080  146.8610 C   0  0  2  0  0  3  0  0  0  0  0  0
  158.3250  213.7600  148.7110 C   0  0  0  0  0  2  0  0  0  0  0  0
  158.6810  213.8680  150.0780 O   0  0  0  0  0  0  0  0  0  0  0  0
  1 20  1  6  0  0  0
  1 18  1  0  0  0  0
  2  5  2  0  0  0  0
  2 11  1  0  0  0  0
  3 14  1  6  0  0  0
  3  4  1  0  0  0  0
  3  2  1  0  0  0  0
  4  6  2  0  0  0  0
  6 13  2  0  0  0  0
  7 13  1  6  0  0  0
  7  9  1  0  0  0  0
  7 12  1  0  0  0  0
  8 15  2  0  0  0  0
  9 12  1  0  0  0  0
 10 12  1  0  0  0  0
 10 15  1  0  0  0  0
 11  8  1  0  0  0  0
 12  1  1  1  0  0  0
 15 16  1  0  0  0  0
 18 19  2  0  0  0  0
 18 17  1  0  0  0  0
 20 21  1  0  0  0  0
 21 23  1  0  0  0  0
 23 22  2  0  0  0  0
 24 23  1  0  0  0  0
 25 24  1  0  0  0  0
 28 26  1  6  0  0  0
 28 34  1  0  0  0  0
 30 29  1  6  0  0  0
 30 35  1  0  0  0  0
 30 32  1  0  0  0  0
 31 28  1  0  0  0  0
 31 29  1  1  0  0  0
 31 34  1  0  0  0  0
 32 27  1  1  0  0  0
 32 33  1  0  0  0  0
 33 25  1  6  0  0  0
 34 27  1  1  0  0  0
 35 36  1  0  0  0  0
 36 33  1  0  0  0  0
M  END
>  <MODEL>
7

>  <REMARK>
 VINA RESULT:      -7.1      2.945      7.801
  Name = 
  8 active torsions:
  status: ('A' for Active; 'I' for Inactive)
    1  A    between atoms: C_10  and  C_16
    2  A    between atoms: C_10  and  C_22
    3  A    between atoms: C_15  and  C_17
    4  A    between atoms: C_16  and  C_34
    5  A    between atoms: C_17  and  C_25
    6  A    between atoms: C_17  and  C_31
    7  A    between atoms: O_21  and  C_25
    8  A    between atoms: O_21  and  C_34
                            x       y       z     vdW  Elec       q    Type
                         _______ _______ _______ _____ _____    ______ ____

>  <TORSDO>
F 8

$$$$
=
 OpenBabel11072414333D

 36 40  0  0  1  0  0  0  0  0999 V2000
  161.4460  208.0040  152.3030 C   0  0  2  0  0  3  0  0  0  0  0  0
  161.6660  205.0410  146.8460 C   0  0  0  0  0  0  0  0  0  0  0  0
  161.5820  203.5770  147.1960 C   0  0  1  0  0  3  0  0  0  0  0  0
  160.9190  203.3670  148.5290 C   0  0  0  0  0  3  0  0  0  0  0  0
  161.1010  205.5040  145.8180 O   0  0  0  0  0  0  0  0  0  0  0  0
  161.3810  203.9610  149.5990 C   0  0  0  0  0  0  0  0  0  0  0  0
  161.0970  205.6320  151.3970 C   0  0  2  0  0  3  0  0  0  0  0  0
  162.2030  207.3250  147.7680 C   0  0  0  0  0  3  0  0  0  0  0  0
  160.2030  206.5310  150.5430 C   0  0  0  0  0  2  0  0  0  0  0  0
  162.5410  207.2600  150.1090 O   0  0  0  0  0  0  0  0  0  0  0  0
  162.3460  205.9090  147.7510 N   0  0  0  0  0  2  0  0  0  0  0  0
  161.5070  207.0770  151.0860 C   0  0  1  0  0  0  0  0  0  0  0  0
  161.8890  204.6360  150.5990 C   0  0  0  0  0  3  0  0  0  0  0  0
  160.8650  202.8330  146.1720 N   0  0  0  0  0  1  0  0  0  0  0  0
  162.3310  207.9740  148.9200 C   0  0  0  0  0  0  0  0  0  0  0  0
  162.2050  209.4550  148.9350 C   0  0  0  0  0  1  0  0  0  0  0  0
  161.9760  206.2040  153.9750 O   0  0  0  0  0  0  0  0  0  0  0  0
  161.1630  207.2580  153.5710 C   0  0  0  0  0  0  0  0  0  0  0  0
  160.1870  207.5970  154.2870 O   0  0  0  0  0  1  0  0  0  0  0  0
  160.4560  209.1450  152.0900 C   0  0  0  0  0  2  0  0  0  0  0  0
  161.0960  210.3930  152.3160 O   0  0  0  0  0  0  0  0  0  0  0  0
  160.3340  211.7050  154.0580 O   0  0  0  0  0  0  0  0  0  0  0  0
  160.4070  211.4970  152.8170 C   0  0  0  0  0  0  0  0  0  0  0  0
  159.7410  212.4360  151.8740 C   0  0  0  0  0  2  0  0  0  0  0  0
  160.5670  212.5670  150.6080 C   0  0  0  0  0  2  0  0  0  0  0  0
  163.0690  214.2540  144.7650 O   0  0  0  0  0  1  0  0  0  0  0  0
  162.0620  213.2100  148.1560 C   0  0  0  0  0  2  0  0  0  0  0  0
  162.1480  214.2150  145.8110 C   0  0  1  0  0  3  0  0  0  0  0  0
  159.8390  213.3480  146.1600 C   0  0  0  0  0  2  0  0  0  0  0  0
  159.6900  212.9540  147.6120 C   0  0  1  0  0  3  0  0  0  0  0  0
  161.2480  212.9990  145.6410 C   0  0  2  0  0  3  0  0  0  0  0  0
  160.6570  213.7580  148.3740 C   0  0  1  0  0  3  0  0  0  0  0  0
  160.0650  213.7410  149.7690 C   0  0  1  0  0  3  0  0  0  0  0  0
  162.4120  212.9880  146.6620 C   0  0  2  0  0  3  0  0  0  0  0  0
  158.4000  213.3880  148.2540 C   0  0  0  0  0  2  0  0  0  0  0  0
  158.6600  213.6510  149.6210 O   0  0  0  0  0  0  0  0  0  0  0  0
  1 20  1  6  0  0  0
  1 18  1  0  0  0  0
  2  3  1  0  0  0  0
  2 11  1  0  0  0  0
  3 14  1  6  0  0  0
  3  4  1  0  0  0  0
  4  6  2  0  0  0  0
  5  2  2  0  0  0  0
  6 13  2  0  0  0  0
  7  9  1  6  0  0  0
  8 15  2  0  0  0  0
  9 12  1  0  0  0  0
 10 12  1  0  0  0  0
 11  8  1  0  0  0  0
 12  7  1  0  0  0  0
 12  1  1  1  0  0  0
 13  7  1  0  0  0  0
 15 16  1  0  0  0  0
 15 10  1  0  0  0  0
 18 17  2  0  0  0  0
 18 19  1  0  0  0  0
 20 21  1  0  0  0  0
 21 23  1  0  0  0  0
 23 22  2  0  0  0  0
 24 23  1  0  0  0  0
 25 24  1  0  0  0  0
 28 26  1  6  0  0  0
 28 34  1  0  0  0  0
 30 29  1  6  0  0  0
 30 35  1  0  0  0  0
 30 32  1  0  0  0  0
 31 28  1  0  0  0  0
 31 29  1  1  0  0  0
 31 34  1  0  0  0  0
 32 27  1  1  0  0  0
 32 33  1  0  0  0  0
 33 25  1  1  0  0  0
 34 27  1  1  0  0  0
 35 36  1  0  0  0  0
 36 33  1  0  0  0  0
M  END
>  <MODEL>
8

>  <REMARK>
 VINA RESULT:      -7.0      2.944      7.716
  Name = 
  8 active torsions:
  status: ('A' for Active; 'I' for Inactive)
    1  A    between atoms: C_10  and  C_16
    2  A    between atoms: C_10  and  C_22
    3  A    between atoms: C_15  and  C_17
    4  A    between atoms: C_16  and  C_34
    5  A    between atoms: C_17  and  C_25
    6  A    between atoms: C_17  and  C_31
    7  A    between atoms: O_21  and  C_25
    8  A    between atoms: O_21  and  C_34
                            x       y       z     vdW  Elec       q    Type
                         _______ _______ _______ _____ _____    ______ ____

>  <TORSDO>
F 8

$$$$
=
 OpenBabel11072414333D

 36 40  0  0  1  0  0  0  0  0999 V2000
  160.8310  207.6270  152.4130 C   0  0  2  0  0  3  0  0  0  0  0  0
  161.6940  203.8930  147.5220 C   0  0  0  0  0  0  0  0  0  0  0  0
  161.7750  204.8200  146.3360 C   0  0  1  0  0  3  0  0  0  0  0  0
  162.2010  206.2030  146.7460 C   0  0  0  0  0  3  0  0  0  0  0  0
  162.4130  202.8590  147.5980 O   0  0  0  0  0  0  0  0  0  0  0  0
  161.5340  206.8560  147.6620 C   0  0  0  0  0  0  0  0  0  0  0  0
  161.4290  207.8320  149.9300 C   0  0  2  0  0  3  0  0  0  0  0  0
  160.9110  203.7110  149.9120 C   0  0  0  0  0  3  0  0  0  0  0  0
  162.4230  206.8240  150.5070 C   0  0  0  0  0  2  0  0  0  0  0  0
  160.1700  205.7970  150.7460 O   0  0  0  0  0  0  0  0  0  0  0  0
  160.8310  204.2540  148.5990 N   0  0  0  0  0  2  0  0  0  0  0  0
  161.0220  206.9010  151.0790 C   0  0  1  0  0  0  0  0  0  0  0  0
  160.8310  207.4080  148.6190 C   0  0  0  0  0  3  0  0  0  0  0  0
  162.6900  204.3050  145.3290 N   0  0  0  0  0  1  0  0  0  0  0  0
  160.5570  204.4640  150.9470 C   0  0  0  0  0  0  0  0  0  0  0  0
  160.6180  203.8890  152.3160 C   0  0  0  0  0  1  0  0  0  0  0  0
  162.3470  209.6310  152.4630 O   0  0  0  0  0  1  0  0  0  0  0  0
  161.0720  209.1010  152.2970 C   0  0  0  0  0  0  0  0  0  0  0  0
  160.1110  209.8690  152.0340 O   0  0  0  0  0  0  0  0  0  0  0  0
  161.6780  207.0040  153.5170 C   0  0  0  0  0  2  0  0  0  0  0  0
  160.8450  206.5540  154.5760 O   0  0  0  0  0  0  0  0  0  0  0  0
  159.7700  206.9530  156.5810 O   0  0  0  0  0  0  0  0  0  0  0  0
  160.5500  207.3570  155.6770 C   0  0  0  0  0  0  0  0  0  0  0  0
  161.1540  208.7120  155.7790 C   0  0  0  0  0  2  0  0  0  0  0  0
  160.0620  209.7540  155.9310 C   0  0  0  0  0  2  0  0  0  0  0  0
  156.2510  214.1470  152.8620 O   0  0  0  0  0  1  0  0  0  0  0  0
  158.1690  211.3860  154.3770 C   0  0  0  0  0  2  0  0  0  0  0  0
  157.3580  213.6620  153.5560 C   0  0  1  0  0  3  0  0  0  0  0  0
  158.3820  214.0070  155.8000 C   0  0  0  0  0  2  0  0  0  0  0  0
  159.0730  212.7270  156.2130 C   0  0  1  0  0  3  0  0  0  0  0  0
  157.0700  213.7030  155.0500 C   0  0  2  0  0  3  0  0  0  0  0  0
  159.4210  212.0120  154.9770 C   0  0  1  0  0  3  0  0  0  0  0  0
  160.5530  211.1120  155.4310 C   0  0  1  0  0  3  0  0  0  0  0  0
  156.9800  212.3750  154.2600 C   0  0  2  0  0  3  0  0  0  0  0  0
  160.4360  212.9130  156.8220 C   0  0  0  0  0  2  0  0  0  0  0  0
  161.2240  211.7880  156.4790 O   0  0  0  0  0  0  0  0  0  0  0  0
  1 20  1  1  0  0  0
  2  5  2  0  0  0  0
  2 11  1  0  0  0  0
  3 14  1  6  0  0  0
  3  4  1  0  0  0  0
  3  2  1  0  0  0  0
  4  6  2  0  0  0  0
  6 13  2  0  0  0  0
  7 13  1  6  0  0  0
  7  9  1  0  0  0  0
  7 12  1  0  0  0  0
  8 15  2  0  0  0  0
  9 12  1  0  0  0  0
 10 15  1  0  0  0  0
 10 12  1  0  0  0  0
 11  8  1  0  0  0  0
 12  1  1  1  0  0  0
 15 16  1  0  0  0  0
 18  1  1  0  0  0  0
 18 17  1  0  0  0  0
 19 18  2  0  0  0  0
 20 21  1  0  0  0  0
 21 23  1  0  0  0  0
 23 24  1  0  0  0  0
 23 22  2  0  0  0  0
 24 25  1  0  0  0  0
 28 26  1  6  0  0  0
 28 34  1  0  0  0  0
 28 31  1  0  0  0  0
 30 29  1  6  0  0  0
 30 35  1  0  0  0  0
 31 29  1  1  0  0  0
 32 27  1  1  0  0  0
 32 33  1  0  0  0  0
 32 30  1  0  0  0  0
 33 25  1  1  0  0  0
 33 36  1  0  0  0  0
 34 27  1  1  0  0  0
 34 31  1  0  0  0  0
 36 35  1  0  0  0  0
M  END
>  <MODEL>
9

>  <REMARK>
 VINA RESULT:      -6.9      3.043      8.464
  Name = 
  8 active torsions:
  status: ('A' for Active; 'I' for Inactive)
    1  A    between atoms: C_10  and  C_16
    2  A    between atoms: C_10  and  C_22
    3  A    between atoms: C_15  and  C_17
    4  A    between atoms: C_16  and  C_34
    5  A    between atoms: C_17  and  C_25
    6  A    between atoms: C_17  and  C_31
    7  A    between atoms: O_21  and  C_25
    8  A    between atoms: O_21  and  C_34
                            x       y       z     vdW  Elec       q    Type
                         _______ _______ _______ _____ _____    ______ ____

>  <TORSDO>
F 8

$$$$
