=
 OpenBabel11072410253D

 51 56  0  0  1  0  0  0  0  0999 V2000
  162.1440  209.9440  148.4350 C   0  0  0  0  0  3  0  0  0  0  0  0
  162.1140  209.7480  151.2850 C   0  0  1  0  0  3  0  0  0  0  0  0
  161.9260  208.6390  150.3970 O   0  0  0  0  0  0  0  0  0  0  0  0
  162.1100  208.7450  149.0130 C   0  0  0  0  0  0  0  0  0  0  0  0
  161.8910  211.0660  150.5870 C   0  0  0  0  0  3  0  0  0  0  0  0
  161.9630  211.1530  149.2560 C   0  0  0  0  0  0  0  0  0  0  0  0
  161.8340  212.4200  148.6220 N   0  0  0  0  0  0  0  0  0  0  0  0
  161.6500  213.9010  148.6570 C   0  0  0  0  0  2  0  0  0  0  0  0
  161.7320  213.2980  147.4190 C   0  0  2  0  0  3  0  0  0  0  0  0
  160.3520  213.1260  146.8070 C   0  0  2  0  0  3  0  0  0  0  0  0
  160.4490  212.3010  145.6110 N   0  0  0  0  0  2  0  0  0  0  0  0
  160.1720  213.4010  144.7690 N   0  0  0  0  0  0  0  0  0  0  0  0
  160.0340  214.2890  145.9140 C   0  0  0  0  0  2  0  0  0  0  0  0
  158.8460  213.1880  144.2040 C   0  0  0  0  0  2  0  0  0  0  0  0
  158.9400  213.0680  142.8150 O   0  0  0  0  0  1  0  0  0  0  0  0
  159.9560  209.2590  152.1920 F   0  0  0  0  0  0  0  0  0  0  0  0
  161.7660  208.5850  153.3330 F   0  0  0  0  0  0  0  0  0  0  0  0
  161.2500  209.6050  152.5500 C   0  0  0  0  0  0  0  0  0  0  0  0
  160.6620  209.5350  155.4930 C   0  0  0  0  0  1  0  0  0  0  0  0
  160.6470  211.9140  155.4730 O   0  0  0  0  0  0  0  0  0  0  0  0
  161.1930  210.8960  153.3980 C   0  0  2  0  0  3  0  0  0  0  0  0
  161.2970  210.7940  154.9170 C   0  0  2  0  0  0  0  0  0  0  0  0
  159.8140  212.4820  154.4800 C   0  0  1  0  0  3  0  0  0  0  0  0
  160.0050  211.7730  153.1570 C   0  0  0  0  0  2  0  0  0  0  0  0
  162.6420  210.8190  155.2800 O   0  0  0  0  0  1  0  0  0  0  0  0
  158.3620  212.4010  154.9160 C   0  0  0  0  0  2  0  0  0  0  0  0
  158.0770  211.1380  155.4090 F   0  0  0  0  0  0  0  0  0  0  0  0
  162.2500  207.5180  148.1830 C   0  0  0  0  0  2  0  0  0  0  0  0
  161.0200  207.1950  147.6080 O   0  0  0  0  0  0  0  0  0  0  0  0
  161.3090  206.1570  146.7210 C   0  0  0  0  0  2  0  0  0  0  0  0
  160.4590  206.2980  145.4770 C   0  0  0  0  0  2  0  0  0  0  0  0
  160.9170  205.3810  144.4950 O   0  0  0  0  0  0  0  0  0  0  0  0
  161.0970  204.0270  144.7740 C   0  0  0  0  0  0  0  0  0  0  0  0
  162.2620  203.5900  144.9780 O   0  0  0  0  0  0  0  0  0  0  0  0
  159.9790  203.1390  144.8370 N   0  0  0  0  0  2  0  0  0  0  0  0
  160.1550  201.7740  145.1070 N   0  0  0  0  0  2  0  0  0  0  0  0
  160.9130  201.6170  146.3520 C   0  0  2  0  0  3  0  0  0  0  0  0
  161.6820  199.9010  147.8290 O   0  0  0  0  0  1  0  0  0  0  0  0
  161.2790  200.1930  146.6740 C   0  0  0  0  0  0  0  0  0  0  0  0
  161.2090  199.1990  145.7020 O   0  0  0  0  0  0  0  0  0  0  0  0
  160.3110  202.3540  147.4680 N   0  0  0  0  0  2  0  0  0  0  0  0
  161.3210  202.8670  148.2980 N   0  0  0  0  0  2  0  0  0  0  0  0
  160.5300  205.5250  150.1520 N   0  0  0  0  0  2  0  0  0  0  0  0
  160.7000  203.1810  149.5740 C   0  0  1  0  0  3  0  0  0  0  0  0
  160.5180  206.0130  151.5140 C   0  0  0  0  0  2  0  0  0  0  0  0
  161.7770  205.4540  153.3990 C   0  0  0  0  0  1  0  0  0  0  0  0
  160.9530  202.0820  150.5570 C   0  0  0  0  0  2  0  0  0  0  0  0
  160.8810  204.9100  152.3900 N   0  0  0  0  0  0  0  0  0  0  0  0
  161.6360  204.0160  151.6120 N   0  0  1  0  0  0  0  0  0  0  0  0
  161.1140  202.7260  151.8490 N   0  0  0  0  0  2  0  0  0  0  0  0
  161.3880  204.3560  150.2100 C   0  0  2  0  0  3  0  0  0  0  0  0
  1  4  2  0  0  0  0
  1  6  1  0  0  0  0
  2 18  1  1  0  0  0
  3  2  1  0  0  0  0
  4  3  1  0  0  0  0
  5  2  1  0  0  0  0
  6  5  2  0  0  0  0
  7  8  1  0  0  0  0
  7  6  1  0  0  0  0
  9  7  1  0  0  0  0
  9  8  1  1  0  0  0
 10 13  1  6  0  0  0
 10  9  1  0  0  0  0
 11 10  1  0  0  0  0
 12 11  1  0  0  0  0
 12 13  1  0  0  0  0
 14 12  1  0  0  0  0
 15 14  1  0  0  0  0
 16 18  1  0  0  0  0
 18 17  1  0  0  0  0
 21 18  1  6  0  0  0
 21 22  1  0  0  0  0
 22 25  1  0  0  0  0
 22 20  1  0  0  0  0
 22 19  1  1  0  0  0
 23 26  1  1  0  0  0
 23 20  1  0  0  0  0
 24 21  1  0  0  0  0
 24 23  1  0  0  0  0
 26 27  1  0  0  0  0
 28  4  1  0  0  0  0
 29 28  1  0  0  0  0
 30 29  1  0  0  0  0
 31 30  1  0  0  0  0
 32 33  1  0  0  0  0
 32 31  1  0  0  0  0
 33 35  1  0  0  0  0
 33 34  2  0  0  0  0
 35 36  1  0  0  0  0
 37 36  1  6  0  0  0
 37 39  1  0  0  0  0
 37 41  1  0  0  0  0
 39 38  1  0  0  0  0
 40 39  2  0  0  0  0
 41 42  1  0  0  0  0
 43 45  1  0  0  0  0
 44 42  1  6  0  0  0
 44 51  1  0  0  0  0
 44 47  1  0  0  0  0
 45 48  1  0  0  0  0
 47 50  1  0  0  0  0
 48 46  1  0  0  0  0
 49 50  1  6  0  0  0
 49 48  1  0  0  0  0
 51 43  1  1  0  0  0
 51 49  1  0  0  0  0
M  END
>  <MODEL>
1

>  <REMARK>
 VINA RESULT:      -7.5      0.000      0.000
  Name = 
  18 active torsions:
  status: ('A' for Active; 'I' for Inactive)
    1  A    between atoms: C_1  and  C_15
    2  A    between atoms: C_1  and  N_40
    3  A    between atoms: C_1  and  N_46
    4  A    between atoms: C_3  and  O_14
    5  A    between atoms: N_5  and  C_33
    6  A    between atoms: C_6  and  C_24
    7  A    between atoms: C_6  and  O_43
    8  A    between atoms: C_9  and  N_36
    9  A    between atoms: C_10  and  C_38
   10  A    between atoms: C_12  and  C_27
   11  A    between atoms: C_12  and  O_43
   12  A    between atoms: O_14  and  C_24
   13  A    between atoms: C_17  and  C_37
   14  A    between atoms: C_23  and  N_34
   15  A    between atoms: C_29  and  C_37
   16  A    between atoms: N_36  and  N_46
   17  A    between atoms: C_39  and  C_41
   18  A    between atoms: N_40  and  N_44
                            x       y       z     vdW  Elec       q    Type
                         _______ _______ _______ _____ _____    ______ ____

>  <TORSDO>
F 18

$$$$
=
 OpenBabel11072410253D

 51 56  0  0  1  0  0  0  0  0999 V2000
  161.6810  208.8410  149.5730 C   0  0  0  0  0  3  0  0  0  0  0  0
  160.8670  209.8040  152.1360 C   0  0  1  0  0  3  0  0  0  0  0  0
  161.6640  210.5510  151.2090 O   0  0  0  0  0  0  0  0  0  0  0  0
  161.9050  210.1120  149.9020 C   0  0  0  0  0  0  0  0  0  0  0  0
  160.8730  208.3300  151.8170 C   0  0  0  0  0  3  0  0  0  0  0  0
  161.2030  207.8970  150.5980 C   0  0  0  0  0  0  0  0  0  0  0  0
  161.1230  206.5100  150.2920 N   0  0  0  0  0  0  0  0  0  0  0  0
  161.3670  205.0720  150.6110 C   0  0  0  0  0  2  0  0  0  0  0  0
  160.7750  205.3660  149.4000 C   0  0  2  0  0  3  0  0  0  0  0  0
  161.7910  205.3040  148.2710 C   0  0  2  0  0  3  0  0  0  0  0  0
  161.3570  206.1610  147.1780 N   0  0  0  0  0  2  0  0  0  0  0  0
  161.0710  205.0510  146.3530 N   0  0  0  0  0  0  0  0  0  0  0  0
  161.5100  204.1250  147.3870 C   0  0  0  0  0  2  0  0  0  0  0  0
  162.0650  205.0370  145.2880 C   0  0  0  0  0  2  0  0  0  0  0  0
  161.4300  205.1730  144.0510 O   0  0  0  0  0  1  0  0  0  0  0  0
  161.0890  208.9520  154.3590 F   0  0  0  0  0  0  0  0  0  0  0  0
  162.6340  210.3980  153.6170 F   0  0  0  0  0  0  0  0  0  0  0  0
  161.2840  210.0880  153.5900 C   0  0  0  0  0  0  0  0  0  0  0  0
  159.8070  209.7540  156.1820 C   0  0  0  0  0  1  0  0  0  0  0  0
  158.9690  211.9640  155.9050 O   0  0  0  0  0  0  0  0  0  0  0  0
  160.4980  211.2540  154.2330 C   0  0  2  0  0  3  0  0  0  0  0  0
  160.1150  211.1680  155.7070 C   0  0  2  0  0  0  0  0  0  0  0  0
  158.3750  212.2070  154.6440 C   0  0  1  0  0  3  0  0  0  0  0  0
  159.2330  211.6400  153.5340 C   0  0  0  0  0  2  0  0  0  0  0  0
  161.1610  211.6770  156.4750 O   0  0  0  0  0  1  0  0  0  0  0  0
  156.9870  211.5930  154.6000 C   0  0  0  0  0  2  0  0  0  0  0  0
  156.8110  210.7230  155.6640 F   0  0  0  0  0  0  0  0  0  0  0  0
  162.4280  211.0600  148.8810 C   0  0  0  0  0  2  0  0  0  0  0  0
  161.6520  212.2200  148.8740 O   0  0  0  0  0  0  0  0  0  0  0  0
  161.1840  212.3210  147.5630 C   0  0  0  0  0  2  0  0  0  0  0  0
  162.1510  213.1420  146.7380 C   0  0  0  0  0  2  0  0  0  0  0  0
  161.6160  213.3220  145.4360 O   0  0  0  0  0  0  0  0  0  0  0  0
  162.3540  213.0380  144.2880 C   0  0  0  0  0  0  0  0  0  0  0  0
  163.6010  213.2290  144.2940 O   0  0  0  0  0  0  0  0  0  0  0  0
  161.7140  212.5330  143.1140 N   0  0  0  0  0  2  0  0  0  0  0  0
  162.4500  212.2560  141.9530 N   0  0  0  0  0  2  0  0  0  0  0  0
  161.6340  211.4520  141.0380 C   0  0  2  0  0  3  0  0  0  0  0  0
  163.4160  211.1550  139.4720 O   0  0  0  0  0  0  0  0  0  0  0  0
  162.4330  210.6350  140.0580 C   0  0  0  0  0  0  0  0  0  0  0  0
  162.0790  209.3210  139.7670 O   0  0  0  0  0  1  0  0  0  0  0  0
  160.5450  212.2270  140.4350 N   0  0  0  0  0  2  0  0  0  0  0  0
  159.3230  211.5640  140.6360 N   0  0  0  0  0  2  0  0  0  0  0  0
  157.0820  213.0820  138.6860 N   0  0  0  0  0  2  0  0  0  0  0  0
  158.7070  211.4080  139.3280 C   0  0  1  0  0  3  0  0  0  0  0  0
  155.9820  212.8210  137.7820 C   0  0  0  0  0  2  0  0  0  0  0  0
  154.4890  211.0370  137.5900 C   0  0  0  0  0  1  0  0  0  0  0  0
  158.6200  209.9580  138.9670 C   0  0  0  0  0  2  0  0  0  0  0  0
  155.9010  211.3840  137.5740 N   0  0  0  0  0  0  0  0  0  0  0  0
  156.4830  210.7860  138.7040 N   0  0  1  0  0  0  0  0  0  0  0  0
  157.3770  209.8010  138.2320 N   0  0  0  0  0  2  0  0  0  0  0  0
  157.2640  211.8210  139.3820 C   0  0  2  0  0  3  0  0  0  0  0  0
  1  4  2  0  0  0  0
  1  6  1  0  0  0  0
  2 18  1  1  0  0  0
  3  2  1  0  0  0  0
  4  3  1  0  0  0  0
  5  2  1  0  0  0  0
  6  5  2  0  0  0  0
  7  6  1  0  0  0  0
  7  8  1  0  0  0  0
  9  7  1  0  0  0  0
  9  8  1  1  0  0  0
 10 13  1  6  0  0  0
 10  9  1  0  0  0  0
 11 10  1  0  0  0  0
 12 11  1  0  0  0  0
 12 13  1  0  0  0  0
 14 12  1  0  0  0  0
 15 14  1  0  0  0  0
 18 17  1  0  0  0  0
 18 16  1  0  0  0  0
 21 18  1  6  0  0  0
 21 22  1  0  0  0  0
 22 20  1  0  0  0  0
 22 19  1  1  0  0  0
 22 25  1  0  0  0  0
 23 26  1  1  0  0  0
 23 20  1  0  0  0  0
 24 21  1  0  0  0  0
 24 23  1  0  0  0  0
 26 27  1  0  0  0  0
 28  4  1  0  0  0  0
 29 28  1  0  0  0  0
 30 29  1  0  0  0  0
 31 30  1  0  0  0  0
 32 31  1  0  0  0  0
 33 34  2  0  0  0  0
 33 32  1  0  0  0  0
 35 33  1  0  0  0  0
 36 35  1  0  0  0  0
 37 39  1  6  0  0  0
 37 36  1  0  0  0  0
 38 39  2  0  0  0  0
 40 39  1  0  0  0  0
 41 42  1  0  0  0  0
 41 37  1  0  0  0  0
 44 51  1  0  0  0  0
 44 42  1  1  0  0  0
 45 43  1  0  0  0  0
 47 44  1  0  0  0  0
 48 46  1  0  0  0  0
 48 45  1  0  0  0  0
 48 49  1  0  0  0  0
 49 50  1  6  0  0  0
 49 51  1  0  0  0  0
 50 47  1  0  0  0  0
 51 43  1  6  0  0  0
M  END
>  <MODEL>
2

>  <REMARK>
 VINA RESULT:      -7.1      3.883      9.201
  Name = 
  18 active torsions:
  status: ('A' for Active; 'I' for Inactive)
    1  A    between atoms: C_1  and  C_15
    2  A    between atoms: C_1  and  N_40
    3  A    between atoms: C_1  and  N_46
    4  A    between atoms: C_3  and  O_14
    5  A    between atoms: N_5  and  C_33
    6  A    between atoms: C_6  and  C_24
    7  A    between atoms: C_6  and  O_43
    8  A    between atoms: C_9  and  N_36
    9  A    between atoms: C_10  and  C_38
   10  A    between atoms: C_12  and  C_27
   11  A    between atoms: C_12  and  O_43
   12  A    between atoms: O_14  and  C_24
   13  A    between atoms: C_17  and  C_37
   14  A    between atoms: C_23  and  N_34
   15  A    between atoms: C_29  and  C_37
   16  A    between atoms: N_36  and  N_46
   17  A    between atoms: C_39  and  C_41
   18  A    between atoms: N_40  and  N_44
                            x       y       z     vdW  Elec       q    Type
                         _______ _______ _______ _____ _____    ______ ____

>  <TORSDO>
F 18

$$$$
=
 OpenBabel11072410253D

 51 56  0  0  1  0  0  0  0  0999 V2000
  161.9280  208.8660  150.9950 C   0  0  0  0  0  3  0  0  0  0  0  0
  161.9290  207.0250  148.8110 C   0  0  1  0  0  3  0  0  0  0  0  0
  161.7990  208.4450  148.6700 O   0  0  0  0  0  0  0  0  0  0  0  0
  161.9660  209.3250  149.7450 C   0  0  0  0  0  0  0  0  0  0  0  0
  161.6260  206.5730  150.2180 C   0  0  0  0  0  3  0  0  0  0  0  0
  161.6840  207.4340  151.2370 C   0  0  0  0  0  0  0  0  0  0  0  0
  161.4770  206.9720  152.5670 N   0  0  0  0  0  0  0  0  0  0  0  0
  160.9820  205.9660  153.5520 C   0  0  0  0  0  2  0  0  0  0  0  0
  161.5420  207.1250  154.0500 C   0  0  2  0  0  3  0  0  0  0  0  0
  160.4650  208.1040  154.4860 C   0  0  2  0  0  3  0  0  0  0  0  0
  160.5430  209.3080  153.6720 N   0  0  0  0  0  2  0  0  0  0  0  0
  161.0200  210.0730  154.7590 N   0  0  0  0  0  0  0  0  0  0  0  0
  160.9490  208.9220  155.6470 C   0  0  0  0  0  2  0  0  0  0  0  0
  159.9580  210.9960  155.1360 C   0  0  0  0  0  2  0  0  0  0  0  0
  160.5150  212.1650  155.6600 O   0  0  0  0  0  1  0  0  0  0  0  0
  159.9280  205.7960  148.3600 F   0  0  0  0  0  0  0  0  0  0  0  0
  160.7140  207.1670  146.7680 F   0  0  0  0  0  0  0  0  0  0  0  0
  161.0830  206.2780  147.7650 C   0  0  0  0  0  0  0  0  0  0  0  0
  160.3520  205.2620  145.0360 C   0  0  0  0  0  1  0  0  0  0  0  0
  161.9250  203.5040  145.3490 O   0  0  0  0  0  0  0  0  0  0  0  0
  161.8280  205.0900  147.1140 C   0  0  2  0  0  3  0  0  0  0  0  0
  161.7090  204.8720  145.6080 C   0  0  2  0  0  0  0  0  0  0  0  0
  161.7690  202.7930  146.5620 C   0  0  1  0  0  3  0  0  0  0  0  0
  161.5500  203.7480  147.7140 C   0  0  0  0  0  2  0  0  0  0  0  0
  162.6940  205.6200  144.9650 O   0  0  0  0  0  1  0  0  0  0  0  0
  160.6010  201.8290  146.4490 C   0  0  0  0  0  2  0  0  0  0  0  0
  160.0510  201.8860  145.1780 F   0  0  0  0  0  0  0  0  0  0  0  0
  162.1710  210.7770  149.4960 C   0  0  0  0  0  2  0  0  0  0  0  0
  161.5650  211.1390  148.2910 O   0  0  0  0  0  0  0  0  0  0  0  0
  161.7320  212.5220  148.2160 C   0  0  0  0  0  2  0  0  0  0  0  0
  160.6830  213.1130  147.2980 C   0  0  0  0  0  2  0  0  0  0  0  0
  160.8480  212.5740  145.9960 O   0  0  0  0  0  0  0  0  0  0  0  0
  161.2870  213.3520  144.9250 C   0  0  0  0  0  0  0  0  0  0  0  0
  162.4730  213.7800  144.9190 O   0  0  0  0  0  0  0  0  0  0  0  0
  160.4110  213.6620  143.8400 N   0  0  0  0  0  2  0  0  0  0  0  0
  160.8430  214.4530  142.7650 N   0  0  0  0  0  2  0  0  0  0  0  0
  160.0270  214.1590  141.5840 C   0  0  2  0  0  3  0  0  0  0  0  0
  157.7830  214.4340  140.8040 O   0  0  0  0  0  0  0  0  0  0  0  0
  158.5480  214.3380  141.7980 C   0  0  0  0  0  0  0  0  0  0  0  0
  158.0170  214.4320  143.0810 O   0  0  0  0  0  1  0  0  0  0  0  0
  160.3980  212.8890  140.9510 N   0  0  0  0  0  2  0  0  0  0  0  0
  160.6090  213.0860  139.5770 N   0  0  0  0  0  2  0  0  0  0  0  0
  160.6290  210.4680  137.5100 N   0  0  0  0  0  2  0  0  0  0  0  0
  161.5080  212.0340  139.1320 C   0  0  1  0  0  3  0  0  0  0  0  0
  161.0830  209.0980  137.3960 C   0  0  0  0  0  2  0  0  0  0  0  0
  161.5620  207.4590  138.9880 C   0  0  0  0  0  1  0  0  0  0  0  0
  162.4650  211.6760  140.2250 C   0  0  0  0  0  2  0  0  0  0  0  0
  161.9140  208.8020  138.5520 N   0  0  0  0  0  0  0  0  0  0  0  0
  161.5090  209.6820  139.5700 N   0  0  1  0  0  0  0  0  0  0  0  0
  162.6830  210.2440  140.1160 N   0  0  0  0  0  2  0  0  0  0  0  0
  160.7470  210.7540  138.9290 C   0  0  2  0  0  3  0  0  0  0  0  0
  1  6  1  0  0  0  0
  2 18  1  6  0  0  0
  2  5  1  0  0  0  0
  3  2  1  0  0  0  0
  3  4  1  0  0  0  0
  4  1  2  0  0  0  0
  5  6  2  0  0  0  0
  6  7  1  0  0  0  0
  7  8  1  0  0  0  0
  7  9  1  0  0  0  0
  9  8  1  1  0  0  0
  9 10  1  0  0  0  0
 10 13  1  1  0  0  0
 11 10  1  0  0  0  0
 11 12  1  0  0  0  0
 12 14  1  0  0  0  0
 12 13  1  0  0  0  0
 14 15  1  0  0  0  0
 17 18  1  0  0  0  0
 18 16  1  0  0  0  0
 20 22  1  0  0  0  0
 20 23  1  0  0  0  0
 21 24  1  0  0  0  0
 21 18  1  1  0  0  0
 22 19  1  6  0  0  0
 22 21  1  0  0  0  0
 23 26  1  6  0  0  0
 23 24  1  0  0  0  0
 25 22  1  0  0  0  0
 27 26  1  0  0  0  0
 28  4  1  0  0  0  0
 29 28  1  0  0  0  0
 30 29  1  0  0  0  0
 31 30  1  0  0  0  0
 32 31  1  0  0  0  0
 33 32  1  0  0  0  0
 34 33  2  0  0  0  0
 35 33  1  0  0  0  0
 36 35  1  0  0  0  0
 37 41  1  1  0  0  0
 37 39  1  0  0  0  0
 37 36  1  0  0  0  0
 38 39  2  0  0  0  0
 39 40  1  0  0  0  0
 42 41  1  0  0  0  0
 44 42  1  1  0  0  0
 44 47  1  0  0  0  0
 45 43  1  0  0  0  0
 45 48  1  0  0  0  0
 48 46  1  0  0  0  0
 48 49  1  0  0  0  0
 49 50  1  6  0  0  0
 50 47  1  0  0  0  0
 51 43  1  6  0  0  0
 51 44  1  0  0  0  0
 51 49  1  0  0  0  0
M  END
>  <MODEL>
3

>  <REMARK>
 VINA RESULT:      -7.1      3.970     10.851
  Name = 
  18 active torsions:
  status: ('A' for Active; 'I' for Inactive)
    1  A    between atoms: C_1  and  C_15
    2  A    between atoms: C_1  and  N_40
    3  A    between atoms: C_1  and  N_46
    4  A    between atoms: C_3  and  O_14
    5  A    between atoms: N_5  and  C_33
    6  A    between atoms: C_6  and  C_24
    7  A    between atoms: C_6  and  O_43
    8  A    between atoms: C_9  and  N_36
    9  A    between atoms: C_10  and  C_38
   10  A    between atoms: C_12  and  C_27
   11  A    between atoms: C_12  and  O_43
   12  A    between atoms: O_14  and  C_24
   13  A    between atoms: C_17  and  C_37
   14  A    between atoms: C_23  and  N_34
   15  A    between atoms: C_29  and  C_37
   16  A    between atoms: N_36  and  N_46
   17  A    between atoms: C_39  and  C_41
   18  A    between atoms: N_40  and  N_44
                            x       y       z     vdW  Elec       q    Type
                         _______ _______ _______ _____ _____    ______ ____

>  <TORSDO>
F 18

$$$$
=
 OpenBabel11072410253D

 51 56  0  0  1  0  0  0  0  0999 V2000
  161.2490  206.1410  149.7680 C   0  0  0  0  0  3  0  0  0  0  0  0
  160.5710  207.5150  152.1790 C   0  0  1  0  0  3  0  0  0  0  0  0
  161.1690  208.1380  151.0350 O   0  0  0  0  0  0  0  0  0  0  0  0
  161.3360  207.4690  149.8170 C   0  0  0  0  0  0  0  0  0  0  0  0
  160.7390  206.0170  152.1500 C   0  0  0  0  0  3  0  0  0  0  0  0
  161.0020  205.3820  151.0060 C   0  0  0  0  0  0  0  0  0  0  0  0
  161.0740  203.9610  150.9840 N   0  0  0  0  0  0  0  0  0  0  0  0
  161.6060  202.6590  151.4840 C   0  0  0  0  0  2  0  0  0  0  0  0
  160.7200  202.6230  150.4270 C   0  0  2  0  0  3  0  0  0  0  0  0
  161.4550  202.4340  149.1100 C   0  0  2  0  0  3  0  0  0  0  0  0
  160.7250  203.1060  148.0450 N   0  0  0  0  0  2  0  0  0  0  0  0
  160.3380  201.8770  147.4660 N   0  0  0  0  0  0  0  0  0  0  0  0
  161.0640  201.1290  148.4820 C   0  0  0  0  0  2  0  0  0  0  0  0
  161.0630  201.7450  146.2090 C   0  0  0  0  0  2  0  0  0  0  0  0
  160.1610  201.4990  145.1700 O   0  0  0  0  0  1  0  0  0  0  0  0
  160.2710  207.7480  154.5390 F   0  0  0  0  0  0  0  0  0  0  0  0
  162.3640  207.6570  153.7390 F   0  0  0  0  0  0  0  0  0  0  0  0
  161.0870  208.1350  153.4890 C   0  0  0  0  0  0  0  0  0  0  0  0
  161.1650  209.7680  156.0070 C   0  0  0  0  0  1  0  0  0  0  0  0
  161.0000  211.7220  154.6580 O   0  0  0  0  0  0  0  0  0  0  0  0
  161.1380  209.6800  153.4540 C   0  0  2  0  0  3  0  0  0  0  0  0
  161.5790  210.4380  154.7030 C   0  0  2  0  0  0  0  0  0  0  0  0
  159.9360  211.6960  153.7250 C   0  0  1  0  0  3  0  0  0  0  0  0
  159.8750  210.3560  153.0260 C   0  0  0  0  0  2  0  0  0  0  0  0
  162.9670  210.5630  154.6890 O   0  0  0  0  0  1  0  0  0  0  0  0
  158.6230  211.9810  154.4320 C   0  0  0  0  0  2  0  0  0  0  0  0
  157.5950  211.2570  153.8490 F   0  0  0  0  0  0  0  0  0  0  0  0
  161.6270  208.2390  148.5770 C   0  0  0  0  0  2  0  0  0  0  0  0
  162.5410  209.2560  148.8580 O   0  0  0  0  0  0  0  0  0  0  0  0
  161.7560  210.3190  149.3050 C   0  0  0  0  0  2  0  0  0  0  0  0
  162.0050  211.5360  148.4410 C   0  0  0  0  0  2  0  0  0  0  0  0
  160.9560  211.6550  147.4920 O   0  0  0  0  0  0  0  0  0  0  0  0
  161.0040  212.5790  146.4490 C   0  0  0  0  0  0  0  0  0  0  0  0
  161.5120  213.7150  146.6550 O   0  0  0  0  0  0  0  0  0  0  0  0
  160.4900  212.2500  145.1570 N   0  0  0  0  0  2  0  0  0  0  0  0
  160.5260  213.1790  144.1070 N   0  0  0  0  0  2  0  0  0  0  0  0
  161.4200  212.6900  143.0530 C   0  0  2  0  0  3  0  0  0  0  0  0
  163.5340  213.2240  144.0340 O   0  0  0  0  0  1  0  0  0  0  0  0
  162.7740  213.3480  143.0400 C   0  0  0  0  0  0  0  0  0  0  0  0
  163.1850  214.1180  141.9570 O   0  0  0  0  0  0  0  0  0  0  0  0
  160.7610  212.6360  141.7440 N   0  0  0  0  0  2  0  0  0  0  0  0
  161.6030  212.0040  140.8140 N   0  0  0  0  0  2  0  0  0  0  0  0
  161.9130  208.7200  140.3150 N   0  0  0  0  0  2  0  0  0  0  0  0
  160.8520  210.8940  140.2500 C   0  0  1  0  0  3  0  0  0  0  0  0
  161.6530  207.6760  139.3480 C   0  0  0  0  0  2  0  0  0  0  0  0
  161.4330  207.7000  137.0240 C   0  0  0  0  0  1  0  0  0  0  0  0
  159.9720  211.3760  139.1400 C   0  0  0  0  0  2  0  0  0  0  0  0
  160.8900  208.2550  138.2540 N   0  0  0  0  0  0  0  0  0  0  0  0
  161.1860  209.6290  138.2470 N   0  0  1  0  0  0  0  0  0  0  0  0
  159.9540  210.3120  138.1510 N   0  0  0  0  0  2  0  0  0  0  0  0
  161.7800  209.9450  139.5470 C   0  0  2  0  0  3  0  0  0  0  0  0
  1  4  2  0  0  0  0
  1  6  1  0  0  0  0
  2 18  1  1  0  0  0
  3  2  1  0  0  0  0
  4  3  1  0  0  0  0
  5  2  1  0  0  0  0
  6  5  2  0  0  0  0
  7  6  1  0  0  0  0
  7  8  1  0  0  0  0
  9  7  1  0  0  0  0
  9  8  1  1  0  0  0
 10 13  1  6  0  0  0
 10  9  1  0  0  0  0
 11 10  1  0  0  0  0
 12 11  1  0  0  0  0
 12 13  1  0  0  0  0
 14 12  1  0  0  0  0
 15 14  1  0  0  0  0
 18 17  1  0  0  0  0
 18 16  1  0  0  0  0
 20 22  1  0  0  0  0
 21 18  1  1  0  0  0
 21 22  1  0  0  0  0
 22 19  1  1  0  0  0
 23 26  1  1  0  0  0
 23 20  1  0  0  0  0
 24 21  1  0  0  0  0
 24 23  1  0  0  0  0
 25 22  1  0  0  0  0
 27 26  1  0  0  0  0
 28 29  1  0  0  0  0
 28  4  1  0  0  0  0
 29 30  1  0  0  0  0
 31 30  1  0  0  0  0
 32 31  1  0  0  0  0
 33 34  2  0  0  0  0
 33 32  1  0  0  0  0
 35 33  1  0  0  0  0
 36 35  1  0  0  0  0
 37 41  1  6  0  0  0
 37 36  1  0  0  0  0
 39 37  1  0  0  0  0
 39 38  1  0  0  0  0
 40 39  2  0  0  0  0
 42 41  1  0  0  0  0
 44 42  1  6  0  0  0
 45 43  1  0  0  0  0
 46 48  1  0  0  0  0
 47 44  1  0  0  0  0
 48 45  1  0  0  0  0
 49 50  1  1  0  0  0
 49 48  1  0  0  0  0
 49 51  1  0  0  0  0
 50 47  1  0  0  0  0
 51 44  1  0  0  0  0
 51 43  1  1  0  0  0
M  END
>  <MODEL>
4

>  <REMARK>
 VINA RESULT:      -6.9      3.495      9.427
  Name = 
  18 active torsions:
  status: ('A' for Active; 'I' for Inactive)
    1  A    between atoms: C_1  and  C_15
    2  A    between atoms: C_1  and  N_40
    3  A    between atoms: C_1  and  N_46
    4  A    between atoms: C_3  and  O_14
    5  A    between atoms: N_5  and  C_33
    6  A    between atoms: C_6  and  C_24
    7  A    between atoms: C_6  and  O_43
    8  A    between atoms: C_9  and  N_36
    9  A    between atoms: C_10  and  C_38
   10  A    between atoms: C_12  and  C_27
   11  A    between atoms: C_12  and  O_43
   12  A    between atoms: O_14  and  C_24
   13  A    between atoms: C_17  and  C_37
   14  A    between atoms: C_23  and  N_34
   15  A    between atoms: C_29  and  C_37
   16  A    between atoms: N_36  and  N_46
   17  A    between atoms: C_39  and  C_41
   18  A    between atoms: N_40  and  N_44
                            x       y       z     vdW  Elec       q    Type
                         _______ _______ _______ _____ _____    ______ ____

>  <TORSDO>
F 18

$$$$
=
 OpenBabel11072410253D

 51 56  0  0  1  0  0  0  0  0999 V2000
  161.3690  210.8130  150.3870 C   0  0  0  0  0  3  0  0  0  0  0  0
  161.2280  211.0140  153.2330 C   0  0  1  0  0  3  0  0  0  0  0  0
  161.5230  209.8050  152.5230 O   0  0  0  0  0  0  0  0  0  0  0  0
  161.7440  209.7810  151.1410 C   0  0  0  0  0  0  0  0  0  0  0  0
  160.5790  212.0420  152.3400 C   0  0  0  0  0  3  0  0  0  0  0  0
  160.7000  211.9660  151.0130 C   0  0  0  0  0  0  0  0  0  0  0  0
  160.1520  212.9910  150.1920 N   0  0  0  0  0  0  0  0  0  0  0  0
  159.0180  213.8400  149.7210 C   0  0  0  0  0  2  0  0  0  0  0  0
  160.2440  214.0160  149.1110 C   0  0  2  0  0  3  0  0  0  0  0  0
  160.2890  213.3060  147.7690 C   0  0  2  0  0  3  0  0  0  0  0  0
  161.6720  213.0210  147.4150 N   0  0  0  0  0  2  0  0  0  0  0  0
  161.6570  213.9800  146.3780 N   0  0  0  0  0  0  0  0  0  0  0  0
  160.2660  214.3070  146.6520 C   0  0  0  0  0  2  0  0  0  0  0  0
  161.7070  213.2520  145.1170 C   0  0  0  0  0  2  0  0  0  0  0  0
  163.0360  213.0980  144.7150 O   0  0  0  0  0  1  0  0  0  0  0  0
  159.7280  209.5290  154.3550 F   0  0  0  0  0  0  0  0  0  0  0  0
  161.2540  210.6230  155.5810 F   0  0  0  0  0  0  0  0  0  0  0  0
  160.3970  210.7330  154.4970 C   0  0  0  0  0  0  0  0  0  0  0  0
  159.2880  211.1370  157.2570 C   0  0  0  0  0  1  0  0  0  0  0  0
  157.8220  212.7770  156.3500 O   0  0  0  0  0  0  0  0  0  0  0  0
  159.3580  211.8370  154.8020 C   0  0  2  0  0  3  0  0  0  0  0  0
  159.1320  212.2670  156.2480 C   0  0  2  0  0  0  0  0  0  0  0  0
  157.0870  212.3400  155.2220 C   0  0  1  0  0  3  0  0  0  0  0  0
  157.9850  211.5940  154.2590 C   0  0  0  0  0  2  0  0  0  0  0  0
  160.0410  213.2760  156.5650 O   0  0  0  0  0  1  0  0  0  0  0  0
  155.9400  211.4510  155.6670 C   0  0  0  0  0  2  0  0  0  0  0  0
  156.2400  210.1200  155.4270 F   0  0  0  0  0  0  0  0  0  0  0  0
  162.3820  208.5950  150.5080 C   0  0  0  0  0  2  0  0  0  0  0  0
  161.6410  208.1990  149.3930 O   0  0  0  0  0  0  0  0  0  0  0  0
  162.5980  207.8000  148.4600 C   0  0  0  0  0  2  0  0  0  0  0  0
  162.0020  206.7680  147.5270 C   0  0  0  0  0  2  0  0  0  0  0  0
  163.0510  206.0430  146.9040 O   0  0  0  0  0  0  0  0  0  0  0  0
  162.8170  204.8570  146.2080 C   0  0  0  0  0  0  0  0  0  0  0  0
  163.7980  204.1560  145.8380 O   0  0  0  0  0  0  0  0  0  0  0  0
  161.4840  204.4320  145.9170 N   0  0  0  0  0  2  0  0  0  0  0  0
  161.2430  203.2460  145.2080 N   0  0  0  0  0  2  0  0  0  0  0  0
  161.1050  202.1330  146.1510 C   0  0  2  0  0  3  0  0  0  0  0  0
  160.8260  199.7640  145.9850 O   0  0  0  0  0  1  0  0  0  0  0  0
  160.4850  200.8960  145.5570 C   0  0  0  0  0  0  0  0  0  0  0  0
  159.5630  200.9860  144.5190 O   0  0  0  0  0  0  0  0  0  0  0  0
  160.5140  202.5530  147.4270 N   0  0  0  0  0  2  0  0  0  0  0  0
  161.2510  202.0100  148.4920 N   0  0  0  0  0  2  0  0  0  0  0  0
  160.4280  204.9520  149.8330 N   0  0  0  0  0  2  0  0  0  0  0  0
  160.6800  202.5470  149.7170 C   0  0  1  0  0  3  0  0  0  0  0  0
  160.4600  205.6990  151.0710 C   0  0  0  0  0  2  0  0  0  0  0  0
  161.8370  205.5710  152.9520 C   0  0  0  0  0  1  0  0  0  0  0  0
  161.0340  201.6750  150.8790 C   0  0  0  0  0  2  0  0  0  0  0  0
  160.9190  204.8060  152.1240 N   0  0  0  0  0  0  0  0  0  0  0  0
  161.6760  203.8040  151.4930 N   0  0  1  0  0  0  0  0  0  0  0  0
  161.2290  202.5680  152.0080 N   0  0  0  0  0  2  0  0  0  0  0  0
  161.3430  203.8500  150.0690 C   0  0  2  0  0  3  0  0  0  0  0  0
  1  6  1  0  0  0  0
  1  4  2  0  0  0  0
  2 18  1  1  0  0  0
  3  2  1  0  0  0  0
  4  3  1  0  0  0  0
  5  2  1  0  0  0  0
  6  5  2  0  0  0  0
  7  6  1  0  0  0  0
  8  7  1  0  0  0  0
  9  8  1  6  0  0  0
  9  7  1  0  0  0  0
 10 13  1  6  0  0  0
 10  9  1  0  0  0  0
 11 10  1  0  0  0  0
 12 13  1  0  0  0  0
 12 11  1  0  0  0  0
 14 12  1  0  0  0  0
 15 14  1  0  0  0  0
 16 18  1  0  0  0  0
 18 17  1  0  0  0  0
 21 18  1  1  0  0  0
 21 22  1  0  0  0  0
 22 20  1  0  0  0  0
 22 25  1  0  0  0  0
 22 19  1  1  0  0  0
 23 26  1  1  0  0  0
 23 20  1  0  0  0  0
 24 21  1  0  0  0  0
 24 23  1  0  0  0  0
 27 26  1  0  0  0  0
 28  4  1  0  0  0  0
 29 28  1  0  0  0  0
 30 29  1  0  0  0  0
 31 30  1  0  0  0  0
 32 31  1  0  0  0  0
 33 32  1  0  0  0  0
 34 33  2  0  0  0  0
 35 33  1  0  0  0  0
 36 35  1  0  0  0  0
 37 36  1  6  0  0  0
 37 41  1  0  0  0  0
 39 38  1  0  0  0  0
 39 37  1  0  0  0  0
 40 39  2  0  0  0  0
 41 42  1  0  0  0  0
 43 45  1  0  0  0  0
 44 42  1  6  0  0  0
 44 51  1  0  0  0  0
 44 47  1  0  0  0  0
 45 48  1  0  0  0  0
 47 50  1  0  0  0  0
 48 46  1  0  0  0  0
 49 50  1  1  0  0  0
 49 48  1  0  0  0  0
 51 43  1  1  0  0  0
 51 49  1  0  0  0  0
M  END
>  <MODEL>
5

>  <REMARK>
 VINA RESULT:      -6.2      1.716      2.246
  Name = 
  18 active torsions:
  status: ('A' for Active; 'I' for Inactive)
    1  A    between atoms: C_1  and  C_15
    2  A    between atoms: C_1  and  N_40
    3  A    between atoms: C_1  and  N_46
    4  A    between atoms: C_3  and  O_14
    5  A    between atoms: N_5  and  C_33
    6  A    between atoms: C_6  and  C_24
    7  A    between atoms: C_6  and  O_43
    8  A    between atoms: C_9  and  N_36
    9  A    between atoms: C_10  and  C_38
   10  A    between atoms: C_12  and  C_27
   11  A    between atoms: C_12  and  O_43
   12  A    between atoms: O_14  and  C_24
   13  A    between atoms: C_17  and  C_37
   14  A    between atoms: C_23  and  N_34
   15  A    between atoms: C_29  and  C_37
   16  A    between atoms: N_36  and  N_46
   17  A    between atoms: C_39  and  C_41
   18  A    between atoms: N_40  and  N_44
                            x       y       z     vdW  Elec       q    Type
                         _______ _______ _______ _____ _____    ______ ____

>  <TORSDO>
F 18

$$$$
=
 OpenBabel11072410253D

 51 56  0  0  1  0  0  0  0  0999 V2000
  161.9570  208.8890  149.0940 C   0  0  0  0  0  3  0  0  0  0  0  0
  160.8360  208.2570  151.6450 C   0  0  1  0  0  3  0  0  0  0  0  0
  161.6050  209.4350  151.3700 O   0  0  0  0  0  0  0  0  0  0  0  0
  161.9980  209.7900  150.0740 C   0  0  0  0  0  0  0  0  0  0  0  0
  161.0470  207.1950  150.5950 C   0  0  0  0  0  3  0  0  0  0  0  0
  161.5210  207.5130  149.3880 C   0  0  0  0  0  0  0  0  0  0  0  0
  161.6340  206.5110  148.3850 N   0  0  0  0  0  0  0  0  0  0  0  0
  161.4850  206.0270  146.9800 C   0  0  0  0  0  2  0  0  0  0  0  0
  161.9450  205.1280  147.9200 C   0  0  2  0  0  3  0  0  0  0  0  0
  160.8300  204.2000  148.3730 C   0  0  2  0  0  3  0  0  0  0  0  0
  160.9540  203.9510  149.8020 N   0  0  0  0  0  2  0  0  0  0  0  0
  161.3450  202.6120  149.5870 N   0  0  0  0  0  0  0  0  0  0  0  0
  161.2230  202.7700  148.1450 C   0  0  0  0  0  2  0  0  0  0  0  0
  160.2500  201.7640  150.0400 C   0  0  0  0  0  2  0  0  0  0  0  0
  160.6780  200.4350  150.1010 O   0  0  0  0  0  1  0  0  0  0  0  0
  160.0800  206.8770  153.4450 F   0  0  0  0  0  0  0  0  0  0  0  0
  162.2870  207.0140  153.0660 F   0  0  0  0  0  0  0  0  0  0  0  0
  161.1020  207.7330  153.0670 C   0  0  0  0  0  0  0  0  0  0  0  0
  159.7320  207.5380  155.7300 C   0  0  0  0  0  1  0  0  0  0  0  0
  160.4520  209.7600  156.1830 O   0  0  0  0  0  0  0  0  0  0  0  0
  161.2110  208.8590  154.1210 C   0  0  2  0  0  3  0  0  0  0  0  0
  160.8540  208.5550  155.5730 C   0  0  2  0  0  0  0  0  0  0  0  0
  160.1420  210.6910  155.1630 C   0  0  1  0  0  3  0  0  0  0  0  0
  160.4630  210.1140  153.8020 C   0  0  0  0  0  2  0  0  0  0  0  0
  161.9880  208.0700  156.2240 O   0  0  0  0  0  1  0  0  0  0  0  0
  158.6740  211.0700  155.2400 C   0  0  0  0  0  2  0  0  0  0  0  0
  157.8900  209.9360  155.3820 F   0  0  0  0  0  0  0  0  0  0  0  0
  162.4790  211.1700  149.7920 C   0  0  0  0  0  2  0  0  0  0  0  0
  161.4190  211.9530  149.3330 O   0  0  0  0  0  0  0  0  0  0  0  0
  161.5830  211.9880  147.9470 C   0  0  0  0  0  2  0  0  0  0  0  0
  161.5990  213.4240  147.4720 C   0  0  0  0  0  2  0  0  0  0  0  0
  160.8770  213.5190  146.2530 O   0  0  0  0  0  0  0  0  0  0  0  0
  161.5030  213.4000  145.0130 C   0  0  0  0  0  0  0  0  0  0  0  0
  162.6880  213.8090  144.8780 O   0  0  0  0  0  0  0  0  0  0  0  0
  160.8160  212.8200  143.9020 N   0  0  0  0  0  2  0  0  0  0  0  0
  161.4360  212.7070  142.6490 N   0  0  0  0  0  2  0  0  0  0  0  0
  160.7680  213.5940  141.6920 C   0  0  2  0  0  3  0  0  0  0  0  0
  158.7500  212.5870  140.8950 O   0  0  0  0  0  0  0  0  0  0  0  0
  159.2700  213.4430  141.6560 C   0  0  0  0  0  0  0  0  0  0  0  0
  158.4500  214.2580  142.4300 O   0  0  0  0  0  1  0  0  0  0  0  0
  161.4090  213.5770  140.3730 N   0  0  0  0  0  2  0  0  0  0  0  0
  162.1500  212.3930  140.2210 N   0  0  0  0  0  2  0  0  0  0  0  0
  160.1810  209.9110  139.1780 N   0  0  0  0  0  2  0  0  0  0  0  0
  161.7100  211.7760  138.9800 C   0  0  1  0  0  3  0  0  0  0  0  0
  160.0990  208.8400  138.2080 C   0  0  0  0  0  2  0  0  0  0  0  0
  161.7290  207.6170  137.0690 C   0  0  0  0  0  1  0  0  0  0  0  0
  162.7770  211.8920  137.9370 C   0  0  0  0  0  2  0  0  0  0  0  0
  161.2310  208.9630  137.3040 N   0  0  0  0  0  0  0  0  0  0  0  0
  162.2310  209.6510  138.0110 N   0  0  1  0  0  0  0  0  0  0  0  0
  162.7110  210.6680  137.1580 N   0  0  0  0  0  2  0  0  0  0  0  0
  161.5820  210.2900  139.1570 C   0  0  2  0  0  3  0  0  0  0  0  0
  1  6  1  0  0  0  0
  1  4  2  0  0  0  0
  2 18  1  1  0  0  0
  3  2  1  0  0  0  0
  4  3  1  0  0  0  0
  5  2  1  0  0  0  0
  6  5  2  0  0  0  0
  7  6  1  0  0  0  0
  8  7  1  0  0  0  0
  9  8  1  6  0  0  0
  9 10  1  0  0  0  0
  9  7  1  0  0  0  0
 10 13  1  6  0  0  0
 10 11  1  0  0  0  0
 12 11  1  0  0  0  0
 12 14  1  0  0  0  0
 13 12  1  0  0  0  0
 14 15  1  0  0  0  0
 17 18  1  0  0  0  0
 18 16  1  0  0  0  0
 21 18  1  6  0  0  0
 21 22  1  0  0  0  0
 22 19  1  1  0  0  0
 22 20  1  0  0  0  0
 22 25  1  0  0  0  0
 23 26  1  6  0  0  0
 23 20  1  0  0  0  0
 24 21  1  0  0  0  0
 24 23  1  0  0  0  0
 26 27  1  0  0  0  0
 28  4  1  0  0  0  0
 29 28  1  0  0  0  0
 30 29  1  0  0  0  0
 31 30  1  0  0  0  0
 32 31  1  0  0  0  0
 33 32  1  0  0  0  0
 34 33  2  0  0  0  0
 35 33  1  0  0  0  0
 36 35  1  0  0  0  0
 37 41  1  6  0  0  0
 37 36  1  0  0  0  0
 38 39  2  0  0  0  0
 39 37  1  0  0  0  0
 39 40  1  0  0  0  0
 42 41  1  0  0  0  0
 44 51  1  0  0  0  0
 44 42  1  1  0  0  0
 45 43  1  0  0  0  0
 46 48  1  0  0  0  0
 47 44  1  0  0  0  0
 48 49  1  0  0  0  0
 48 45  1  0  0  0  0
 49 50  1  6  0  0  0
 49 51  1  0  0  0  0
 50 47  1  0  0  0  0
 51 43  1  6  0  0  0
M  END
>  <MODEL>
6

>  <REMARK>
 VINA RESULT:      -6.2      3.777      9.720
  Name = 
  18 active torsions:
  status: ('A' for Active; 'I' for Inactive)
    1  A    between atoms: C_1  and  C_15
    2  A    between atoms: C_1  and  N_40
    3  A    between atoms: C_1  and  N_46
    4  A    between atoms: C_3  and  O_14
    5  A    between atoms: N_5  and  C_33
    6  A    between atoms: C_6  and  C_24
    7  A    between atoms: C_6  and  O_43
    8  A    between atoms: C_9  and  N_36
    9  A    between atoms: C_10  and  C_38
   10  A    between atoms: C_12  and  C_27
   11  A    between atoms: C_12  and  O_43
   12  A    between atoms: O_14  and  C_24
   13  A    between atoms: C_17  and  C_37
   14  A    between atoms: C_23  and  N_34
   15  A    between atoms: C_29  and  C_37
   16  A    between atoms: N_36  and  N_46
   17  A    between atoms: C_39  and  C_41
   18  A    between atoms: N_40  and  N_44
                            x       y       z     vdW  Elec       q    Type
                         _______ _______ _______ _____ _____    ______ ____

>  <TORSDO>
F 18

$$$$
=
 OpenBabel11072410253D

 51 56  0  0  1  0  0  0  0  0999 V2000
  161.5030  210.2250  150.4780 C   0  0  0  0  0  3  0  0  0  0  0  0
  161.9500  212.2570  148.5210 C   0  0  1  0  0  3  0  0  0  0  0  0
  161.1900  212.4450  149.7210 O   0  0  0  0  0  0  0  0  0  0  0  0
  161.1300  211.4790  150.7310 C   0  0  0  0  0  0  0  0  0  0  0  0
  162.1120  210.7950  148.1860 C   0  0  0  0  0  3  0  0  0  0  0  0
  161.9540  209.8590  149.1250 C   0  0  0  0  0  0  0  0  0  0  0  0
  162.1940  208.4920  148.8110 N   0  0  0  0  0  0  0  0  0  0  0  0
  163.1040  207.3380  148.5530 C   0  0  0  0  0  2  0  0  0  0  0  0
  161.7460  207.1180  148.4410 C   0  0  2  0  0  3  0  0  0  0  0  0
  161.3150  207.1220  146.9850 C   0  0  2  0  0  3  0  0  0  0  0  0
  160.1940  206.2090  146.8060 N   0  0  0  0  0  2  0  0  0  0  0  0
  160.9890  205.2950  146.0810 N   0  0  0  0  0  0  0  0  0  0  0  0
  162.1530  206.1610  146.1940 C   0  0  0  0  0  2  0  0  0  0  0  0
  160.5350  205.3310  144.6970 C   0  0  0  0  0  2  0  0  0  0  0  0
  160.4550  204.0300  144.1950 O   0  0  0  0  0  1  0  0  0  0  0  0
  161.2890  214.4000  147.6940 F   0  0  0  0  0  0  0  0  0  0  0  0
  162.1960  212.9400  146.2530 F   0  0  0  0  0  0  0  0  0  0  0  0
  161.3570  213.0600  147.3500 C   0  0  0  0  0  0  0  0  0  0  0  0
  159.9550  214.1800  144.9430 C   0  0  0  0  0  1  0  0  0  0  0  0
  158.0380  212.9130  145.5600 O   0  0  0  0  0  0  0  0  0  0  0  0
  159.9430  212.5880  146.9400 C   0  0  2  0  0  3  0  0  0  0  0  0
  159.4460  212.8680  145.5250 C   0  0  2  0  0  0  0  0  0  0  0  0
  157.6340  213.0890  146.9050 C   0  0  1  0  0  3  0  0  0  0  0  0
  158.8300  213.0430  147.8300 C   0  0  0  0  0  2  0  0  0  0  0  0
  159.8480  211.8260  144.6910 O   0  0  0  0  0  1  0  0  0  0  0  0
  156.9030  214.4110  147.0560 C   0  0  0  0  0  2  0  0  0  0  0  0
  155.8340  214.2740  147.9270 F   0  0  0  0  0  0  0  0  0  0  0  0
  160.6330  211.8450  152.0850 C   0  0  0  0  0  2  0  0  0  0  0  0
  160.9550  210.8360  152.9950 O   0  0  0  0  0  0  0  0  0  0  0  0
  160.8100  211.4340  154.2470 C   0  0  0  0  0  2  0  0  0  0  0  0
  159.6910  210.7570  155.0090 C   0  0  0  0  0  2  0  0  0  0  0  0
  160.2500  209.8910  155.9840 O   0  0  0  0  0  0  0  0  0  0  0  0
  160.1710  208.5030  155.8720 C   0  0  0  0  0  0  0  0  0  0  0  0
  159.7100  207.8320  156.8350 O   0  0  0  0  0  0  0  0  0  0  0  0
  160.6030  207.8410  154.6820 N   0  0  0  0  0  2  0  0  0  0  0  0
  160.5360  206.4450  154.5670 N   0  0  0  0  0  2  0  0  0  0  0  0
  161.4660  205.9960  153.5270 C   0  0  2  0  0  3  0  0  0  0  0  0
  160.6630  207.7200  152.0780 O   0  0  0  0  0  1  0  0  0  0  0  0
  161.6170  206.9580  152.3790 C   0  0  0  0  0  0  0  0  0  0  0  0
  162.7860  206.9940  151.6250 O   0  0  0  0  0  0  0  0  0  0  0  0
  161.2240  204.6060  153.1240 N   0  0  0  0  0  2  0  0  0  0  0  0
  160.6860  204.5750  151.8270 N   0  0  0  0  0  2  0  0  0  0  0  0
  161.4840  203.7620  148.6920 N   0  0  0  0  0  2  0  0  0  0  0  0
  161.3960  203.5360  151.1000 C   0  0  1  0  0  3  0  0  0  0  0  0
  161.5860  202.6370  147.7880 C   0  0  0  0  0  2  0  0  0  0  0  0
  160.5290  200.5560  147.7360 C   0  0  0  0  0  1  0  0  0  0  0  0
  161.2920  202.2320  151.8270 C   0  0  0  0  0  2  0  0  0  0  0  0
  161.3630  201.4210  148.5550 N   0  0  0  0  0  0  0  0  0  0  0  0
  160.5960  201.7910  149.6720 N   0  0  1  0  0  0  0  0  0  0  0  0
  161.2070  201.2070  150.8010 N   0  0  0  0  0  2  0  0  0  0  0  0
  160.7010  203.2450  149.8000 C   0  0  2  0  0  3  0  0  0  0  0  0
  1  4  2  0  0  0  0
  2 18  1  6  0  0  0
  2  3  1  0  0  0  0
  3  4  1  0  0  0  0
  4 28  1  0  0  0  0
  5  2  1  0  0  0  0
  5  6  2  0  0  0  0
  6  1  1  0  0  0  0
  7  6  1  0  0  0  0
  8  7  1  0  0  0  0
  9  8  1  6  0  0  0
  9  7  1  0  0  0  0
 10 13  1  6  0  0  0
 10  9  1  0  0  0  0
 11 10  1  0  0  0  0
 12 13  1  0  0  0  0
 12 11  1  0  0  0  0
 14 12  1  0  0  0  0
 15 14  1  0  0  0  0
 17 18  1  0  0  0  0
 18 16  1  0  0  0  0
 20 23  1  0  0  0  0
 21 18  1  1  0  0  0
 21 24  1  0  0  0  0
 22 19  1  6  0  0  0
 22 20  1  0  0  0  0
 22 21  1  0  0  0  0
 23 26  1  6  0  0  0
 23 24  1  0  0  0  0
 25 22  1  0  0  0  0
 26 27  1  0  0  0  0
 28 29  1  0  0  0  0
 29 30  1  0  0  0  0
 30 31  1  0  0  0  0
 31 32  1  0  0  0  0
 33 32  1  0  0  0  0
 33 34  2  0  0  0  0
 35 33  1  0  0  0  0
 36 35  1  0  0  0  0
 37 39  1  6  0  0  0
 37 36  1  0  0  0  0
 38 39  1  0  0  0  0
 40 39  2  0  0  0  0
 41 37  1  0  0  0  0
 42 41  1  0  0  0  0
 44 42  1  1  0  0  0
 44 47  1  0  0  0  0
 45 48  1  0  0  0  0
 45 43  1  0  0  0  0
 46 48  1  0  0  0  0
 48 49  1  0  0  0  0
 49 51  1  0  0  0  0
 49 50  1  1  0  0  0
 50 47  1  0  0  0  0
 51 43  1  6  0  0  0
 51 44  1  0  0  0  0
M  END
>  <MODEL>
7

>  <REMARK>
 VINA RESULT:      -5.8      2.994      7.536
  Name = 
  18 active torsions:
  status: ('A' for Active; 'I' for Inactive)
    1  A    between atoms: C_1  and  C_15
    2  A    between atoms: C_1  and  N_40
    3  A    between atoms: C_1  and  N_46
    4  A    between atoms: C_3  and  O_14
    5  A    between atoms: N_5  and  C_33
    6  A    between atoms: C_6  and  C_24
    7  A    between atoms: C_6  and  O_43
    8  A    between atoms: C_9  and  N_36
    9  A    between atoms: C_10  and  C_38
   10  A    between atoms: C_12  and  C_27
   11  A    between atoms: C_12  and  O_43
   12  A    between atoms: O_14  and  C_24
   13  A    between atoms: C_17  and  C_37
   14  A    between atoms: C_23  and  N_34
   15  A    between atoms: C_29  and  C_37
   16  A    between atoms: N_36  and  N_46
   17  A    between atoms: C_39  and  C_41
   18  A    between atoms: N_40  and  N_44
                            x       y       z     vdW  Elec       q    Type
                         _______ _______ _______ _____ _____    ______ ____

>  <TORSDO>
F 18

$$$$
=
 OpenBabel11072410253D

 51 56  0  0  1  0  0  0  0  0999 V2000
  161.7550  208.1920  148.3070 C   0  0  0  0  0  3  0  0  0  0  0  0
  160.8400  206.4020  150.3370 C   0  0  1  0  0  3  0  0  0  0  0  0
  161.5900  207.5960  150.5920 O   0  0  0  0  0  0  0  0  0  0  0  0
  161.8780  208.5300  149.5900 C   0  0  0  0  0  0  0  0  0  0  0  0
  160.9610  205.9620  148.8990 C   0  0  0  0  0  3  0  0  0  0  0  0
  161.3370  206.8250  147.9520 C   0  0  0  0  0  0  0  0  0  0  0  0
  161.3640  206.4140  146.5900 N   0  0  0  0  0  0  0  0  0  0  0  0
  160.7080  206.1700  145.2720 C   0  0  0  0  0  2  0  0  0  0  0  0
  162.0460  205.8550  145.3860 C   0  0  2  0  0  3  0  0  0  0  0  0
  162.2370  204.3610  145.5850 C   0  0  2  0  0  3  0  0  0  0  0  0
  161.6360  203.6410  144.4720 N   0  0  0  0  0  2  0  0  0  0  0  0
  160.5990  203.1420  145.2900 N   0  0  0  0  0  0  0  0  0  0  0  0
  161.1490  203.8120  146.4590 C   0  0  0  0  0  2  0  0  0  0  0  0
  160.8220  201.7110  145.4450 C   0  0  0  0  0  2  0  0  0  0  0  0
  159.7400  201.0050  144.9140 O   0  0  0  0  0  1  0  0  0  0  0  0
  162.5830  205.0540  151.2650 F   0  0  0  0  0  0  0  0  0  0  0  0
  160.9040  205.6920  152.6090 F   0  0  0  0  0  0  0  0  0  0  0  0
  161.2170  205.2820  151.3230 C   0  0  0  0  0  0  0  0  0  0  0  0
  162.2760  202.6590  152.3270 C   0  0  0  0  0  1  0  0  0  0  0  0
  160.5340  201.5760  151.1210 O   0  0  0  0  0  0  0  0  0  0  0  0
  160.4870  203.9490  151.0400 C   0  0  2  0  0  3  0  0  0  0  0  0
  160.8200  202.7250  151.8870 C   0  0  2  0  0  0  0  0  0  0  0  0
  160.4410  201.9620  149.7620 C   0  0  1  0  0  3  0  0  0  0  0  0
  160.5570  203.4640  149.6270 C   0  0  0  0  0  2  0  0  0  0  0  0
  160.0120  202.7280  153.0230 O   0  0  0  0  0  1  0  0  0  0  0  0
  161.5290  201.2760  148.9560 C   0  0  0  0  0  2  0  0  0  0  0  0
  160.9900  200.2530  148.1920 F   0  0  0  0  0  0  0  0  0  0  0  0
  162.3400  209.8970  149.9540 C   0  0  0  0  0  2  0  0  0  0  0  0
  162.3920  210.6970  148.8120 O   0  0  0  0  0  0  0  0  0  0  0  0
  161.7850  211.8940  149.1950 C   0  0  0  0  0  2  0  0  0  0  0  0
  160.8700  212.3770  148.0900 C   0  0  0  0  0  2  0  0  0  0  0  0
  160.1300  213.4960  148.5540 O   0  0  0  0  0  0  0  0  0  0  0  0
  159.9750  213.7660  149.9130 C   0  0  0  0  0  0  0  0  0  0  0  0
  160.8830  214.3920  150.5250 O   0  0  0  0  0  0  0  0  0  0  0  0
  158.8010  213.3470  150.6120 N   0  0  0  0  0  2  0  0  0  0  0  0
  158.6440  213.6070  151.9810 N   0  0  0  0  0  2  0  0  0  0  0  0
  158.1730  212.3950  152.6570 C   0  0  2  0  0  3  0  0  0  0  0  0
  156.6570  211.7160  154.3770 O   0  0  0  0  0  0  0  0  0  0  0  0
  157.3130  212.6590  153.8640 C   0  0  0  0  0  0  0  0  0  0  0  0
  157.2070  213.9380  154.4020 O   0  0  0  0  0  1  0  0  0  0  0  0
  159.2520  211.4270  152.8830 N   0  0  0  0  0  2  0  0  0  0  0  0
  160.3650  212.0780  153.4410 N   0  0  0  0  0  2  0  0  0  0  0  0
  161.2050  208.8730  153.8270 N   0  0  0  0  0  2  0  0  0  0  0  0
  160.9060  211.1910  154.4570 C   0  0  1  0  0  3  0  0  0  0  0  0
  161.1480  207.7760  154.7680 C   0  0  0  0  0  2  0  0  0  0  0  0
  159.7080  207.2960  156.5430 C   0  0  0  0  0  1  0  0  0  0  0  0
  160.4970  211.6530  155.8200 C   0  0  0  0  0  2  0  0  0  0  0  0
  160.6370  208.2910  156.0290 N   0  0  0  0  0  0  0  0  0  0  0  0
  159.8800  209.4320  155.7150 N   0  0  1  0  0  0  0  0  0  0  0  0
  160.2840  210.4490  156.6050 N   0  0  0  0  0  2  0  0  0  0  0  0
  160.2600  209.8370  154.3610 C   0  0  2  0  0  3  0  0  0  0  0  0
  1  4  2  0  0  0  0
  2  3  1  0  0  0  0
  2 18  1  1  0  0  0
  4 28  1  0  0  0  0
  4  3  1  0  0  0  0
  5  2  1  0  0  0  0
  6  1  1  0  0  0  0
  6  5  2  0  0  0  0
  7  6  1  0  0  0  0
  8  7  1  0  0  0  0
  9  8  1  6  0  0  0
  9 10  1  0  0  0  0
  9  7  1  0  0  0  0
 10 13  1  1  0  0  0
 11 12  1  0  0  0  0
 11 10  1  0  0  0  0
 12 14  1  0  0  0  0
 12 13  1  0  0  0  0
 15 14  1  0  0  0  0
 16 18  1  0  0  0  0
 18 17  1  0  0  0  0
 20 22  1  0  0  0  0
 21 18  1  6  0  0  0
 21 22  1  0  0  0  0
 22 19  1  1  0  0  0
 22 25  1  0  0  0  0
 23 26  1  6  0  0  0
 23 20  1  0  0  0  0
 24 23  1  0  0  0  0
 24 21  1  0  0  0  0
 27 26  1  0  0  0  0
 29 30  1  0  0  0  0
 29 28  1  0  0  0  0
 31 32  1  0  0  0  0
 31 30  1  0  0  0  0
 32 33  1  0  0  0  0
 33 34  2  0  0  0  0
 33 35  1  0  0  0  0
 35 36  1  0  0  0  0
 37 36  1  1  0  0  0
 37 41  1  0  0  0  0
 37 39  1  0  0  0  0
 39 38  2  0  0  0  0
 39 40  1  0  0  0  0
 41 42  1  0  0  0  0
 43 45  1  0  0  0  0
 44 42  1  6  0  0  0
 44 47  1  0  0  0  0
 45 48  1  0  0  0  0
 47 50  1  0  0  0  0
 48 46  1  0  0  0  0
 49 48  1  0  0  0  0
 49 50  1  1  0  0  0
 51 43  1  1  0  0  0
 51 44  1  0  0  0  0
 51 49  1  0  0  0  0
M  END
>  <MODEL>
8

>  <REMARK>
 VINA RESULT:      -5.8      3.365      9.188
  Name = 
  18 active torsions:
  status: ('A' for Active; 'I' for Inactive)
    1  A    between atoms: C_1  and  C_15
    2  A    between atoms: C_1  and  N_40
    3  A    between atoms: C_1  and  N_46
    4  A    between atoms: C_3  and  O_14
    5  A    between atoms: N_5  and  C_33
    6  A    between atoms: C_6  and  C_24
    7  A    between atoms: C_6  and  O_43
    8  A    between atoms: C_9  and  N_36
    9  A    between atoms: C_10  and  C_38
   10  A    between atoms: C_12  and  C_27
   11  A    between atoms: C_12  and  O_43
   12  A    between atoms: O_14  and  C_24
   13  A    between atoms: C_17  and  C_37
   14  A    between atoms: C_23  and  N_34
   15  A    between atoms: C_29  and  C_37
   16  A    between atoms: N_36  and  N_46
   17  A    between atoms: C_39  and  C_41
   18  A    between atoms: N_40  and  N_44
                            x       y       z     vdW  Elec       q    Type
                         _______ _______ _______ _____ _____    ______ ____

>  <TORSDO>
F 18

$$$$
=
 OpenBabel11072410253D

 51 56  0  0  1  0  0  0  0  0999 V2000
  161.2950  207.5860  148.2730 C   0  0  0  0  0  3  0  0  0  0  0  0
  161.7030  205.0000  149.4150 C   0  0  1  0  0  3  0  0  0  0  0  0
  161.1780  205.2290  148.1020 O   0  0  0  0  0  0  0  0  0  0  0  0
  161.1450  206.5000  147.5170 C   0  0  0  0  0  0  0  0  0  0  0  0
  161.6050  206.2330  150.2790 C   0  0  0  0  0  3  0  0  0  0  0  0
  161.4700  207.4420  149.7280 C   0  0  0  0  0  0  0  0  0  0  0  0
  161.4640  208.6000  150.5540 N   0  0  0  0  0  0  0  0  0  0  0  0
  161.9520  209.9620  150.9210 C   0  0  0  0  0  2  0  0  0  0  0  0
  161.0070  209.3810  151.7410 C   0  0  2  0  0  3  0  0  0  0  0  0
  161.6540  208.7980  152.9860 C   0  0  2  0  0  3  0  0  0  0  0  0
  160.8390  207.7030  153.4910 N   0  0  0  0  0  2  0  0  0  0  0  0
  160.4410  208.4530  154.6190 N   0  0  0  0  0  0  0  0  0  0  0  0
  161.2500  209.5860  154.1970 C   0  0  0  0  0  2  0  0  0  0  0  0
  161.0800  207.8540  155.7830 C   0  0  0  0  0  2  0  0  0  0  0  0
  160.1040  207.3910  156.6700 O   0  0  0  0  0  1  0  0  0  0  0  0
  162.0030  203.0690  150.7920 F   0  0  0  0  0  0  0  0  0  0  0  0
  160.0770  204.2060  150.9630 F   0  0  0  0  0  0  0  0  0  0  0  0
  161.0500  203.7740  150.0750 C   0  0  0  0  0  0  0  0  0  0  0  0
  160.7750  200.8360  150.6320 C   0  0  0  0  0  1  0  0  0  0  0  0
  159.9290  200.5700  148.4240 O   0  0  0  0  0  0  0  0  0  0  0  0
  160.3940  202.8110  149.0580 C   0  0  2  0  0  3  0  0  0  0  0  0
  159.9140  201.4420  149.5320 C   0  0  2  0  0  0  0  0  0  0  0  0
  160.7400  201.1460  147.4180 C   0  0  1  0  0  3  0  0  0  0  0  0
  161.1980  202.5280  147.8290 C   0  0  0  0  0  2  0  0  0  0  0  0
  158.6080  201.5600  150.0030 O   0  0  0  0  0  1  0  0  0  0  0  0
  161.9380  200.2530  147.1470 C   0  0  0  0  0  2  0  0  0  0  0  0
  161.6000  199.2520  146.2500 F   0  0  0  0  0  0  0  0  0  0  0  0
  160.9260  206.6410  146.0520 C   0  0  0  0  0  2  0  0  0  0  0  0
  161.7900  205.7900  145.3610 O   0  0  0  0  0  0  0  0  0  0  0  0
  161.2010  205.6350  144.1060 C   0  0  0  0  0  2  0  0  0  0  0  0
  162.2320  205.8810  143.0250 C   0  0  0  0  0  2  0  0  0  0  0  0
  161.5770  205.9690  141.7690 O   0  0  0  0  0  0  0  0  0  0  0  0
  162.1080  206.7020  140.7090 C   0  0  0  0  0  0  0  0  0  0  0  0
  163.0440  206.2060  140.0250 O   0  0  0  0  0  0  0  0  0  0  0  0
  161.6000  207.9990  140.3910 N   0  0  0  0  0  2  0  0  0  0  0  0
  162.1370  208.7460  139.3320 N   0  0  0  0  0  2  0  0  0  0  0  0
  161.4650  210.0460  139.2610 C   0  0  2  0  0  3  0  0  0  0  0  0
  162.9680  211.2160  137.8160 O   0  0  0  0  0  1  0  0  0  0  0  0
  161.7870  210.8380  138.0220 C   0  0  0  0  0  0  0  0  0  0  0  0
  160.7890  211.1870  137.1160 O   0  0  0  0  0  0  0  0  0  0  0  0
  161.5820  210.8040  140.5110 N   0  0  0  0  0  2  0  0  0  0  0  0
  161.8380  212.1550  140.2250 N   0  0  0  0  0  2  0  0  0  0  0  0
  162.5630  212.8850  143.3980 N   0  0  0  0  0  2  0  0  0  0  0  0
  161.3020  212.9290  141.3330 C   0  0  1  0  0  3  0  0  0  0  0  0
  161.9630  213.0550  144.7040 C   0  0  0  0  0  2  0  0  0  0  0  0
  160.0140  212.2020  145.6650 C   0  0  0  0  0  1  0  0  0  0  0  0
  159.8090  212.9840  141.2520 C   0  0  0  0  0  2  0  0  0  0  0  0
  160.5190  212.9850  144.5480 N   0  0  0  0  0  0  0  0  0  0  0  0
  160.2800  212.2360  143.3830 N   0  0  1  0  0  0  0  0  0  0  0  0
  159.3310  212.9520  142.6230 N   0  0  0  0  0  2  0  0  0  0  0  0
  161.5350  212.2070  142.6300 C   0  0  2  0  0  3  0  0  0  0  0  0
  1  6  1  0  0  0  0
  2 18  1  1  0  0  0
  2  5  1  0  0  0  0
  3  2  1  0  0  0  0
  4  3  1  0  0  0  0
  4  1  2  0  0  0  0
  6  5  2  0  0  0  0
  6  7  1  0  0  0  0
  7  8  1  0  0  0  0
  7  9  1  0  0  0  0
  9  8  1  6  0  0  0
  9 10  1  0  0  0  0
 10 11  1  0  0  0  0
 10 13  1  1  0  0  0
 11 12  1  0  0  0  0
 12 14  1  0  0  0  0
 13 12  1  0  0  0  0
 14 15  1  0  0  0  0
 18 16  1  0  0  0  0
 18 17  1  0  0  0  0
 20 22  1  0  0  0  0
 21 22  1  0  0  0  0
 21 18  1  1  0  0  0
 22 25  1  0  0  0  0
 22 19  1  1  0  0  0
 23 26  1  1  0  0  0
 23 24  1  0  0  0  0
 23 20  1  0  0  0  0
 24 21  1  0  0  0  0
 27 26  1  0  0  0  0
 28  4  1  0  0  0  0
 29 28  1  0  0  0  0
 30 29  1  0  0  0  0
 31 30  1  0  0  0  0
 32 31  1  0  0  0  0
 33 32  1  0  0  0  0
 34 33  2  0  0  0  0
 35 33  1  0  0  0  0
 36 35  1  0  0  0  0
 37 39  1  6  0  0  0
 37 36  1  0  0  0  0
 37 41  1  0  0  0  0
 38 39  1  0  0  0  0
 40 39  2  0  0  0  0
 42 41  1  0  0  0  0
 43 45  1  0  0  0  0
 44 42  1  6  0  0  0
 44 51  1  0  0  0  0
 47 44  1  0  0  0  0
 47 50  1  0  0  0  0
 48 45  1  0  0  0  0
 48 46  1  0  0  0  0
 49 50  1  6  0  0  0
 49 48  1  0  0  0  0
 51 49  1  0  0  0  0
 51 43  1  1  0  0  0
M  END
>  <MODEL>
9

>  <REMARK>
 VINA RESULT:      -5.6      3.889      9.812
  Name = 
  18 active torsions:
  status: ('A' for Active; 'I' for Inactive)
    1  A    between atoms: C_1  and  C_15
    2  A    between atoms: C_1  and  N_40
    3  A    between atoms: C_1  and  N_46
    4  A    between atoms: C_3  and  O_14
    5  A    between atoms: N_5  and  C_33
    6  A    between atoms: C_6  and  C_24
    7  A    between atoms: C_6  and  O_43
    8  A    between atoms: C_9  and  N_36
    9  A    between atoms: C_10  and  C_38
   10  A    between atoms: C_12  and  C_27
   11  A    between atoms: C_12  and  O_43
   12  A    between atoms: O_14  and  C_24
   13  A    between atoms: C_17  and  C_37
   14  A    between atoms: C_23  and  N_34
   15  A    between atoms: C_29  and  C_37
   16  A    between atoms: N_36  and  N_46
   17  A    between atoms: C_39  and  C_41
   18  A    between atoms: N_40  and  N_44
                            x       y       z     vdW  Elec       q    Type
                         _______ _______ _______ _____ _____    ______ ____

>  <TORSDO>
F 18

$$$$
