=
 OpenBabel11072412343D

 51 55  0  0  1  0  0  0  0  0999 V2000
  157.2110  211.0820  154.7700 C   0  0  1  0  0  3  0  0  0  0  0  0
  158.4440  214.4150  150.4390 C   0  0  0  0  0  2  0  0  0  0  0  0
  162.9250  207.2670  152.5290 C   0  0  0  0  0  2  0  0  0  0  0  0
  161.9650  205.3180  151.8570 C   0  0  0  0  0  2  0  0  0  0  0  0
  158.4170  210.3200  154.2280 C   0  0  0  0  0  2  0  0  0  0  0  0
  156.9360  212.4170  154.0590 C   0  0  2  0  0  3  0  0  0  0  0  0
  161.4920  209.3960  148.6200 O   0  0  0  0  0  0  0  0  0  0  0  0
  160.4930  210.3810  148.5670 C   0  0  0  0  0  2  0  0  0  0  0  0
  161.0070  208.4710  149.4890 N   0  0  2  0  0  0  0  0  0  0  0  0
  159.7840  209.1750  151.8060 O   0  0  0  0  0  1  0  0  0  0  0  0
  163.0260  212.9000  147.9110 C   0  0  0  0  0  0  0  0  0  0  0  0
  164.0130  213.6290  148.1950 O   0  0  0  0  0  0  0  0  0  0  0  0
  163.1350  205.8780  152.4030 O   0  0  0  0  0  0  0  0  0  0  0  0
  161.0260  211.6960  148.0230 C   0  0  2  0  0  3  0  0  0  0  0  0
  161.9970  212.0280  151.9460 C   0  0  0  0  0  1  0  0  0  0  0  0
  160.2760  213.6670  151.9350 O   0  0  0  0  0  0  0  0  0  0  0  0
  160.5150  209.3620  156.3360 O   0  0  0  0  0  1  0  0  0  0  0  0
  159.1630  213.9890  149.1650 C   0  0  0  0  0  2  0  0  0  0  0  0
  161.5460  213.3820  149.8870 C   0  0  2  0  0  3  0  0  0  0  0  0
  161.6290  211.5710  146.6230 C   0  0  0  0  0  2  0  0  0  0  0  0
  162.1020  212.3240  148.9130 C   0  0  2  0  0  3  0  0  0  0  0  0
  160.7330  209.7920  154.9040 P   0  0  2  0  0  0  0  0  0  0  0  0
  161.6820  207.6640  151.7610 C   0  0  1  0  0  0  0  0  0  0  0  0
  160.9350  208.7940  152.5020 C   0  0  2  0  0  3  0  0  0  0  0  0
  156.8700  212.3540  152.5170 C   0  0  0  0  0  2  0  0  0  0  0  0
  158.2320  212.2410  151.8300 C   0  0  0  0  0  2  0  0  0  0  0  0
  158.8820  213.6210  151.6820 C   0  0  2  0  0  3  0  0  0  0  0  0
  162.1230  208.0820  150.3450 C   0  0  0  0  0  2  0  0  0  0  0  0
  160.9260  212.7190  151.1250 C   0  0  1  0  0  3  0  0  0  0  0  0
  159.6060  210.9980  154.5020 O   0  0  0  0  0  0  0  0  0  0  0  0
  160.5690  208.3920  153.8560 N   0  0  0  0  0  2  0  0  0  0  0  0
  162.7320  212.5180  146.5860 N   0  0  0  0  0  2  0  0  0  0  0  0
  160.6260  214.4210  149.2110 C   0  0  0  0  0  2  0  0  0  0  0  0
  160.9010  206.3820  151.7410 C   0  0  0  0  0  2  0  0  0  0  0  0
  162.2950  210.4210  154.7600 O   0  0  0  0  0  0  0  0  0  0  0  0
  161.6260  206.1770  148.8220 C   0  0  0  0  0  2  0  0  0  0  0  0
  161.5910  207.0800  147.6000 C   0  0  2  0  0  3  0  0  0  0  0  0
  160.5910  207.2880  148.7320 C   0  0  2  0  0  3  0  0  0  0  0  0
  160.9370  206.4040  146.4320 C   0  0  0  0  0  3  0  0  0  0  0  0
  161.4240  205.3220  145.9320 N   0  0  0  0  0  0  0  0  0  0  0  0
  160.8080  204.6970  144.7920 C   0  0  0  0  0  2  0  0  0  0  0  0
  159.5700  202.6290  144.3630 C   0  0  0  0  0  2  0  0  0  0  0  0
  161.2110  202.5500  146.1650 C   0  0  0  0  0  1  0  0  0  0  0  0
  160.4410  203.2880  145.1270 C   0  0  0  0  0  0  0  0  0  0  0  0
  157.8020  213.5470  154.6130 C   0  0  0  0  0  2  0  0  0  0  0  0
  157.0470  214.3370  155.6620 C   0  0  0  0  0  2  0  0  0  0  0  0
  157.6990  214.1510  157.0140 C   0  0  0  0  0  1  0  0  0  0  0  0
  155.9790  210.1990  154.7190 C   0  0  0  0  0  2  0  0  0  0  0  0
  154.9570  210.6270  155.7590 C   0  0  2  0  0  3  0  0  0  0  0  0
  155.6710  211.1240  156.9970 C   0  0  0  0  0  1  0  0  0  0  0  0
  154.1420  209.5440  156.0970 O   0  0  0  0  0  1  0  0  0  0  0  0
  1 48  1  6  0  0  0
  4 13  1  0  0  0  0
  5 30  1  0  0  0  0
  5  1  1  0  0  0  0
  6 45  1  6  0  0  0
  6  1  1  0  0  0  0
  7  9  1  0  0  0  0
  8  7  1  0  0  0  0
  9 28  1  1  0  0  0
 11 12  2  0  0  0  0
 13  3  1  0  0  0  0
 14 20  1  6  0  0  0
 14  8  1  0  0  0  0
 14 21  1  0  0  0  0
 18 33  1  0  0  0  0
 18  2  1  0  0  0  0
 19 33  1  6  0  0  0
 19 29  1  0  0  0  0
 21 11  1  6  0  0  0
 21 19  1  0  0  0  0
 22 35  2  6  0  0  0
 22 17  1  0  0  0  0
 23 28  1  6  0  0  0
 23 24  1  0  0  0  0
 23  3  1  0  0  0  0
 24 10  1  6  0  0  0
 24 31  1  0  0  0  0
 25  6  1  0  0  0  0
 26 25  1  0  0  0  0
 27  2  1  6  0  0  0
 27 26  1  0  0  0  0
 27 16  1  0  0  0  0
 29 16  1  0  0  0  0
 29 15  1  1  0  0  0
 30 22  1  0  0  0  0
 31 22  1  0  0  0  0
 32 20  1  0  0  0  0
 32 11  1  0  0  0  0
 34 23  1  0  0  0  0
 34  4  1  0  0  0  0
 37 39  1  6  0  0  0
 37 38  1  0  0  0  0
 37 36  1  0  0  0  0
 38 36  1  1  0  0  0
 38  9  1  0  0  0  0
 40 39  2  0  0  0  0
 41 44  1  0  0  0  0
 41 40  1  0  0  0  0
 42 44  2  0  0  0  0
 44 43  1  0  0  0  0
 45 46  1  0  0  0  0
 46 47  1  0  0  0  0
 48 49  1  0  0  0  0
 49 51  1  0  0  0  0
 49 50  1  1  0  0  0
M  END
>  <MODEL>
1

>  <REMARK>
 VINA RESULT:       5.9      0.000      0.000
  Name = 
  8 active torsions:
  status: ('A' for Active; 'I' for Inactive)
    1  A    between atoms: C_1  and  C_11
    2  A    between atoms: C_4  and  C_9
    3  A    between atoms: C_4  and  C_12
    4  A    between atoms: C_5  and  C_36
    5  A    between atoms: C_5  and  N_45
    6  A    between atoms: C_11  and  C_28
    7  A    between atoms: N_17  and  C_29
    8  A    between atoms: C_25  and  C_26
                            x       y       z     vdW  Elec       q    Type
                         _______ _______ _______ _____ _____    ______ ____

>  <TORSDO>
F 8

$$$$
