=
 OpenBabel11072412483D

 55 60  0  0  1  0  0  0  0  0999 V2000
  160.8540  206.9020  150.5670 C   0  0  0  0  0  2  0  0  0  0  0  0
  160.6380  205.0450  148.8970 C   0  0  1  0  0  3  0  0  0  0  0  0
  162.2020  203.4210  148.0060 O   0  0  0  0  0  1  0  0  0  0  0  0
  161.8370  205.3770  146.6320 C   0  0  2  0  0  0  0  0  0  0  0  0
  161.3970  206.3220  149.2690 C   0  0  1  0  0  3  0  0  0  0  0  0
  161.2450  204.3780  147.6500 C   0  0  2  0  0  3  0  0  0  0  0  0
  161.2940  207.3610  148.1410 C   0  0  0  0  0  2  0  0  0  0  0  0
  160.5880  204.1480  149.9690 O   0  0  0  0  0  1  0  0  0  0  0  0
  163.1930  205.5540  146.8600 F   0  0  0  0  0  0  0  0  0  0  0  0
  161.1380  206.7390  146.7440 C   0  0  0  0  0  2  0  0  0  0  0  0
  161.6070  204.7190  144.9500 P   0  0  1  0  0  0  0  0  0  0  0  0
  162.8930  204.0720  144.4840 O   0  0  0  0  0  0  0  0  0  0  0  0
  160.3760  203.5610  144.9670 O   0  0  0  0  0  1  0  0  0  0  0  0
  161.1920  206.0360  143.8570 N   0  0  0  0  0  2  0  0  0  0  0  0
  161.9190  205.8360  142.6080 C   0  0  0  0  0  2  0  0  0  0  0  0
  161.3870  206.7460  141.5090 C   0  0  0  0  0  2  0  0  0  0  0  0
  162.3230  206.7390  140.3090 C   0  0  0  0  0  2  0  0  0  0  0  0
  158.7280  208.6780  137.9160 C   0  0  0  0  0  1  0  0  0  0  0  0
  159.7030  210.2810  139.3270 C   0  0  0  0  0  2  0  0  0  0  0  0
  162.2510  209.3020  140.2680 C   0  0  0  0  0  2  0  0  0  0  0  0
  161.9890  208.1650  138.2210 C   0  0  0  0  0  0  0  0  0  0  0  0
  162.2440  208.0110  139.6060 N   0  0  0  0  0  0  0  0  0  0  0  0
  160.8340  211.1170  139.4290 O   0  0  0  0  0  0  0  0  0  0  0  0
  161.8640  207.1930  137.4290 O   0  0  0  0  0  0  0  0  0  0  0  0
  161.9830  210.3390  139.1550 C   0  0  2  0  0  3  0  0  0  0  0  0
  161.8910  209.5820  137.8080 C   0  0  2  0  0  3  0  0  0  0  0  0
  160.5800  209.8800  137.0630 C   0  0  0  0  0  2  0  0  0  0  0  0
  159.3890  209.9740  137.9270 N   0  0  0  0  0  0  0  0  0  0  0  0
  162.2710  206.6150  152.4670 O   0  0  0  0  0  1  0  0  0  0  0  0
  161.9400  207.5150  151.4490 C   0  0  2  0  0  3  0  0  0  0  0  0
  161.4030  208.8070  152.0650 C   0  0  1  0  0  3  0  0  0  0  0  0
  160.9380  208.6240  153.4750 C   0  0  0  0  0  0  0  0  0  0  0  0
  160.6570  207.4620  153.8820 O   0  0  0  0  0  0  0  0  0  0  0  0
  160.8280  209.7230  154.3370 O   0  0  0  0  0  0  0  0  0  0  0  0
  161.0680  209.6080  155.7360 C   0  0  0  0  0  2  0  0  0  0  0  0
  161.7700  210.8480  156.2710 C   0  0  0  0  0  2  0  0  0  0  0  0
  159.5030  211.3590  157.1180 C   0  0  0  0  0  1  0  0  0  0  0  0
  160.7770  211.9560  156.5650 C   0  0  0  0  0  2  0  0  0  0  0  0
  162.4130  209.9550  151.9790 C   0  0  0  0  0  2  0  0  0  0  0  0
  162.0580  210.9020  150.8440 C   0  0  0  0  0  2  0  0  0  0  0  0
  161.8110  210.1250  149.5500 C   0  0  2  0  0  3  0  0  0  0  0  0
  162.8710  210.5020  148.5360 C   0  0  0  0  0  2  0  0  0  0  0  0
  161.4450  210.9780  148.3250 C   0  0  2  0  0  3  0  0  0  0  0  0
  162.1420  214.4490  147.1480 C   0  0  0  0  0  2  0  0  0  0  0  0
  159.2720  213.0280  144.3040 C   0  0  0  0  0  2  0  0  0  0  0  0
  159.9620  212.9960  148.1310 C   0  0  0  0  0  2  0  0  0  0  0  0
  161.0160  214.1120  146.2140 C   0  0  0  0  0  0  0  0  0  0  0  0
  159.9780  213.3830  146.6770 C   0  0  0  0  0  0  0  0  0  0  0  0
  162.5400  213.2060  147.9470 C   0  0  0  0  0  2  0  0  0  0  0  0
  158.8440  212.9550  145.7730 C   0  0  1  0  0  3  0  0  0  0  0  0
  161.1730  214.3810  144.7370 C   0  0  0  0  0  2  0  0  0  0  0  0
  161.3390  212.4790  148.5970 C   0  0  2  0  0  3  0  0  0  0  0  0
  159.8940  214.3230  144.0360 N   0  0  0  0  0  2  0  0  0  0  0  0
  156.9570  213.4600  147.1570 O   0  0  0  0  0  1  0  0  0  0  0  0
  157.6280  213.8470  145.9950 C   0  0  0  0  0  2  0  0  0  0  0  0
  1 30  1  0  0  0  0
  2  5  1  0  0  0  0
  2  8  1  1  0  0  0
  4 10  1  0  0  0  0
  4  9  1  1  0  0  0
  4  6  1  0  0  0  0
  5  1  1  1  0  0  0
  6  3  1  1  0  0  0
  6  2  1  0  0  0  0
  7  5  1  0  0  0  0
 10  7  1  0  0  0  0
 11 12  2  6  0  0  0
 11 13  1  0  0  0  0
 11  4  1  0  0  0  0
 14 11  1  0  0  0  0
 15 14  1  0  0  0  0
 16 15  1  0  0  0  0
 17 16  1  0  0  0  0
 18 28  1  0  0  0  0
 19 23  1  0  0  0  0
 21 22  1  0  0  0  0
 22 20  1  0  0  0  0
 22 17  1  0  0  0  0
 24 21  2  0  0  0  0
 25 23  1  0  0  0  0
 25 20  1  1  0  0  0
 26 27  1  1  0  0  0
 26 21  1  0  0  0  0
 26 25  1  0  0  0  0
 27 28  1  0  0  0  0
 28 19  1  0  0  0  0
 30 31  1  0  0  0  0
 30 29  1  1  0  0  0
 31 39  1  1  0  0  0
 31 32  1  0  0  0  0
 32 33  2  0  0  0  0
 32 34  1  0  0  0  0
 34 35  1  0  0  0  0
 35 36  1  0  0  0  0
 36 38  1  0  0  0  0
 38 37  1  0  0  0  0
 40 39  1  0  0  0  0
 41 40  1  1  0  0  0
 42 41  1  0  0  0  0
 43 42  1  6  0  0  0
 43 52  1  0  0  0  0
 43 41  1  0  0  0  0
 44 49  1  0  0  0  0
 45 50  1  0  0  0  0
 46 52  1  0  0  0  0
 47 48  2  0  0  0  0
 47 44  1  0  0  0  0
 48 46  1  0  0  0  0
 50 55  1  6  0  0  0
 50 48  1  0  0  0  0
 51 47  1  0  0  0  0
 52 49  1  6  0  0  0
 53 45  1  0  0  0  0
 53 51  1  0  0  0  0
 55 54  1  0  0  0  0
M  END
>  <MODEL>
1

>  <REMARK>
 VINA RESULT:      -4.9      0.000      0.000
  Name = 
  19 active torsions:
  status: ('A' for Active; 'I' for Inactive)
    1  A    between atoms: C_2  and  N_33
    2  A    between atoms: C_2  and  C_54
    3  A    between atoms: C_3  and  C_14
    4  A    between atoms: C_3  and  C_44
    5  A    between atoms: P_4  and  N_15
    6  A    between atoms: P_4  and  C_23
    7  A    between atoms: C_8  and  C_14
    8  A    between atoms: C_9  and  O_32
    9  A    between atoms: C_9  and  C_44
   10  A    between atoms: N_15  and  C_35
   11  A    between atoms: C_24  and  C_40
   12  A    between atoms: C_25  and  C_51
   13  A    between atoms: C_28  and  C_39
   14  A    between atoms: C_30  and  C_40
   15  A    between atoms: C_30  and  C_44
   16  A    between atoms: C_31  and  O_32
   17  A    between atoms: C_31  and  C_49
   18  A    between atoms: C_35  and  C_54
   19  A    between atoms: C_48  and  C_49
                            x       y       z     vdW  Elec       q    Type
                         _______ _______ _______ _____ _____    ______ ____

>  <TORSDO>
F 19

$$$$
=
 OpenBabel11072412483D

 55 60  0  0  1  0  0  0  0  0999 V2000
  161.8350  211.2550  151.2070 C   0  0  0  0  0  2  0  0  0  0  0  0
  161.5630  211.2520  148.7160 C   0  0  1  0  0  3  0  0  0  0  0  0
  162.5680  212.5510  146.9320 O   0  0  0  0  0  1  0  0  0  0  0  0
  160.3940  213.3090  147.6740 C   0  0  2  0  0  0  0  0  0  0  0  0
  161.5060  212.1040  149.9870 C   0  0  1  0  0  3  0  0  0  0  0  0
  161.3470  212.1130  147.4570 C   0  0  2  0  0  3  0  0  0  0  0  0
  160.1200  212.7480  150.1470 C   0  0  0  0  0  2  0  0  0  0  0  0
  162.7610  210.5350  148.6310 O   0  0  0  0  0  1  0  0  0  0  0  0
  161.1140  214.4490  147.9960 F   0  0  0  0  0  0  0  0  0  0  0  0
  159.4080  213.0130  148.8110 C   0  0  0  0  0  2  0  0  0  0  0  0
  159.4680  213.6160  146.1370 P   0  0  1  0  0  0  0  0  0  0  0  0
  158.2450  214.4530  146.4470 O   0  0  0  0  0  1  0  0  0  0  0  0
  160.4540  214.4530  145.0480 O   0  0  0  0  0  0  0  0  0  0  0  0
  158.9560  212.0800  145.4430 N   0  0  0  0  0  2  0  0  0  0  0  0
  159.6010  211.9320  144.1430 C   0  0  0  0  0  2  0  0  0  0  0  0
  159.4110  213.1790  143.2900 C   0  0  0  0  0  2  0  0  0  0  0  0
  159.2250  212.8020  141.8270 C   0  0  0  0  0  2  0  0  0  0  0  0
  161.3550  210.4770  138.2950 C   0  0  0  0  0  1  0  0  0  0  0  0
  161.1750  212.7550  137.7560 C   0  0  0  0  0  2  0  0  0  0  0  0
  160.4940  214.2480  140.1320 C   0  0  0  0  0  2  0  0  0  0  0  0
  161.6020  212.3630  141.0100 C   0  0  0  0  0  0  0  0  0  0  0  0
  160.4200  213.1430  141.0680 N   0  0  0  0  0  0  0  0  0  0  0  0
  161.7580  214.0060  138.0460 O   0  0  0  0  0  0  0  0  0  0  0  0
  161.7660  211.3060  141.6760 O   0  0  0  0  0  0  0  0  0  0  0  0
  161.8740  214.1220  139.4510 C   0  0  2  0  0  3  0  0  0  0  0  0
  162.6180  212.9270  140.0950 C   0  0  2  0  0  3  0  0  0  0  0  0
  163.0880  211.9030  139.0490 C   0  0  0  0  0  2  0  0  0  0  0  0
  162.1310  211.6600  137.9540 N   0  0  0  0  0  0  0  0  0  0  0  0
  160.1380  212.2170  152.5840 O   0  0  0  0  0  1  0  0  0  0  0  0
  160.6230  210.9980  152.1000 C   0  0  2  0  0  3  0  0  0  0  0  0
  161.0530  210.1180  153.2740 C   0  0  1  0  0  3  0  0  0  0  0  0
  160.6140  210.6640  154.5950 C   0  0  0  0  0  0  0  0  0  0  0  0
  161.2820  211.5960  155.1250 O   0  0  0  0  0  0  0  0  0  0  0  0
  159.4730  210.1590  155.2320 O   0  0  0  0  0  0  0  0  0  0  0  0
  158.2310  210.8550  155.2110 C   0  0  0  0  0  2  0  0  0  0  0  0
  158.3450  212.1910  155.9330 C   0  0  0  0  0  2  0  0  0  0  0  0
  155.9340  211.9380  156.4210 C   0  0  0  0  0  1  0  0  0  0  0  0
  157.0090  212.9050  155.9790 C   0  0  0  0  0  2  0  0  0  0  0  0
  160.5890  208.6680  153.1140 C   0  0  0  0  0  2  0  0  0  0  0  0
  160.9800  208.1240  151.7480 C   0  0  0  0  0  2  0  0  0  0  0  0
  162.0160  207.0080  151.8870 C   0  0  2  0  0  3  0  0  0  0  0  0
  162.8230  206.9200  150.6080 C   0  0  0  0  0  2  0  0  0  0  0  0
  161.8360  205.8150  150.9360 C   0  0  2  0  0  3  0  0  0  0  0  0
  160.4290  206.9120  147.6600 C   0  0  0  0  0  2  0  0  0  0  0  0
  163.1760  203.8230  146.5390 C   0  0  0  0  0  2  0  0  0  0  0  0
  160.4680  204.5910  149.2220 C   0  0  0  0  0  2  0  0  0  0  0  0
  161.2250  205.7320  147.1830 C   0  0  0  0  0  0  0  0  0  0  0  0
  161.2730  204.6220  147.9510 C   0  0  0  0  0  0  0  0  0  0  0  0
  160.7220  207.1700  149.1400 C   0  0  0  0  0  2  0  0  0  0  0  0
  162.1080  203.4230  147.5600 C   0  0  1  0  0  3  0  0  0  0  0  0
  162.1390  205.8880  145.9930 C   0  0  0  0  0  2  0  0  0  0  0  0
  160.6150  205.9020  150.0210 C   0  0  2  0  0  3  0  0  0  0  0  0
  162.5620  204.5960  145.4600 N   0  0  0  0  0  2  0  0  0  0  0  0
  160.2680  201.9320  147.9090 O   0  0  0  0  0  1  0  0  0  0  0  0
  161.2200  202.3330  146.9700 C   0  0  0  0  0  2  0  0  0  0  0  0
  1 30  1  0  0  0  0
  2  8  1  6  0  0  0
  2  5  1  0  0  0  0
  4  9  1  1  0  0  0
  4 10  1  0  0  0  0
  5  7  1  0  0  0  0
  5  1  1  1  0  0  0
  6  3  1  1  0  0  0
  6  4  1  0  0  0  0
  6  2  1  0  0  0  0
 10  7  1  0  0  0  0
 11 13  2  6  0  0  0
 11 12  1  0  0  0  0
 11  4  1  0  0  0  0
 14 11  1  0  0  0  0
 15 14  1  0  0  0  0
 16 15  1  0  0  0  0
 17 16  1  0  0  0  0
 19 28  1  0  0  0  0
 19 23  1  0  0  0  0
 20 22  1  0  0  0  0
 21 22  1  0  0  0  0
 21 24  2  0  0  0  0
 22 17  1  0  0  0  0
 23 25  1  0  0  0  0
 25 26  1  0  0  0  0
 25 20  1  1  0  0  0
 26 27  1  6  0  0  0
 26 21  1  0  0  0  0
 28 18  1  0  0  0  0
 28 27  1  0  0  0  0
 30 29  1  1  0  0  0
 30 31  1  0  0  0  0
 31 39  1  6  0  0  0
 31 32  1  0  0  0  0
 32 33  2  0  0  0  0
 32 34  1  0  0  0  0
 35 34  1  0  0  0  0
 35 36  1  0  0  0  0
 36 38  1  0  0  0  0
 38 37  1  0  0  0  0
 40 39  1  0  0  0  0
 41 40  1  6  0  0  0
 42 41  1  0  0  0  0
 43 42  1  6  0  0  0
 43 41  1  0  0  0  0
 44 49  1  0  0  0  0
 45 50  1  0  0  0  0
 46 52  1  0  0  0  0
 47 44  1  0  0  0  0
 47 48  2  0  0  0  0
 48 46  1  0  0  0  0
 50 55  1  6  0  0  0
 50 48  1  0  0  0  0
 51 47  1  0  0  0  0
 52 49  1  6  0  0  0
 52 43  1  0  0  0  0
 53 51  1  0  0  0  0
 53 45  1  0  0  0  0
 55 54  1  0  0  0  0
M  END
>  <MODEL>
2

>  <REMARK>
 VINA RESULT:      -4.0      3.003      6.760
  Name = 
  19 active torsions:
  status: ('A' for Active; 'I' for Inactive)
    1  A    between atoms: C_2  and  N_33
    2  A    between atoms: C_2  and  C_54
    3  A    between atoms: C_3  and  C_14
    4  A    between atoms: C_3  and  C_44
    5  A    between atoms: P_4  and  N_15
    6  A    between atoms: P_4  and  C_23
    7  A    between atoms: C_8  and  C_14
    8  A    between atoms: C_9  and  O_32
    9  A    between atoms: C_9  and  C_44
   10  A    between atoms: N_15  and  C_35
   11  A    between atoms: C_24  and  C_40
   12  A    between atoms: C_25  and  C_51
   13  A    between atoms: C_28  and  C_39
   14  A    between atoms: C_30  and  C_40
   15  A    between atoms: C_30  and  C_44
   16  A    between atoms: C_31  and  O_32
   17  A    between atoms: C_31  and  C_49
   18  A    between atoms: C_35  and  C_54
   19  A    between atoms: C_48  and  C_49
                            x       y       z     vdW  Elec       q    Type
                         _______ _______ _______ _____ _____    ______ ____

>  <TORSDO>
F 19

$$$$
=
 OpenBabel11072412483D

 55 60  0  0  1  0  0  0  0  0999 V2000
  162.3770  208.1670  150.4580 C   0  0  0  0  0  2  0  0  0  0  0  0
  162.1930  210.6650  150.3580 C   0  0  1  0  0  3  0  0  0  0  0  0
  160.3390  212.1820  149.9890 O   0  0  0  0  0  1  0  0  0  0  0  0
  161.6900  211.6990  148.0430 C   0  0  2  0  0  0  0  0  0  0  0  0
  161.9230  209.3520  149.6170 C   0  0  1  0  0  3  0  0  0  0  0  0
  161.6390  211.8710  149.5770 C   0  0  2  0  0  3  0  0  0  0  0  0
  162.6380  209.3400  148.2570 C   0  0  0  0  0  2  0  0  0  0  0  0
  161.6820  210.6350  151.6590 O   0  0  0  0  0  1  0  0  0  0  0  0
  160.4890  211.1910  147.5730 F   0  0  0  0  0  0  0  0  0  0  0  0
  162.8190  210.7390  147.6450 C   0  0  0  0  0  2  0  0  0  0  0  0
  161.9810  213.3230  147.2730 P   0  0  1  0  0  0  0  0  0  0  0  0
  160.6520  213.9640  146.9350 O   0  0  0  0  0  0  0  0  0  0  0  0
  162.8170  214.3140  148.3580 O   0  0  0  0  0  1  0  0  0  0  0  0
  162.9140  213.1120  145.7940 N   0  0  0  0  0  2  0  0  0  0  0  0
  162.1750  213.7290  144.6980 C   0  0  0  0  0  2  0  0  0  0  0  0
  161.9960  212.7570  143.5390 C   0  0  0  0  0  2  0  0  0  0  0  0
  161.5910  213.5020  142.2760 C   0  0  0  0  0  2  0  0  0  0  0  0
  160.5000  212.3650  137.8110 C   0  0  0  0  0  1  0  0  0  0  0  0
  162.3170  213.8530  137.8340 C   0  0  0  0  0  2  0  0  0  0  0  0
  163.3800  214.0200  140.5120 C   0  0  0  0  0  2  0  0  0  0  0  0
  162.4010  211.8780  140.4830 C   0  0  0  0  0  0  0  0  0  0  0  0
  162.4560  213.1160  141.1690 N   0  0  0  0  0  0  0  0  0  0  0  0
  163.7030  213.8940  138.0860 O   0  0  0  0  0  0  0  0  0  0  0  0
  161.6240  210.9400  140.8090 O   0  0  0  0  0  0  0  0  0  0  0  0
  163.9480  213.2320  139.3120 C   0  0  2  0  0  3  0  0  0  0  0  0
  163.3530  211.8030  139.3540 C   0  0  2  0  0  3  0  0  0  0  0  0
  162.6600  211.4240  138.0350 C   0  0  0  0  0  2  0  0  0  0  0  0
  161.8900  212.5140  137.4090 N   0  0  0  0  0  0  0  0  0  0  0  0
  160.3990  207.1640  149.5730 O   0  0  0  0  0  1  0  0  0  0  0  0
  161.6640  206.8670  150.0920 C   0  0  2  0  0  3  0  0  0  0  0  0
  161.5110  206.0170  151.3540 C   0  0  1  0  0  3  0  0  0  0  0  0
  161.2640  204.5740  151.0500 C   0  0  0  0  0  0  0  0  0  0  0  0
  160.6370  203.8680  151.8900 O   0  0  0  0  0  0  0  0  0  0  0  0
  161.7090  204.0120  149.8450 O   0  0  0  0  0  0  0  0  0  0  0  0
  161.0220  202.9330  149.2200 C   0  0  0  0  0  2  0  0  0  0  0  0
  161.1640  203.0030  147.7060 C   0  0  0  0  0  2  0  0  0  0  0  0
  161.9960  204.3330  145.7940 C   0  0  0  0  0  1  0  0  0  0  0  0
  161.6390  204.3720  147.2630 C   0  0  0  0  0  2  0  0  0  0  0  0
  162.7010  206.1680  152.3040 C   0  0  0  0  0  2  0  0  0  0  0  0
  162.2420  206.6430  153.6730 C   0  0  0  0  0  2  0  0  0  0  0  0
  160.7300  206.4700  153.8270 C   0  0  2  0  0  3  0  0  0  0  0  0
  160.0330  207.7020  153.2870 C   0  0  0  0  0  2  0  0  0  0  0  0
  160.0440  207.4560  154.7840 C   0  0  2  0  0  3  0  0  0  0  0  0
  161.8970  210.6900  154.6240 C   0  0  0  0  0  2  0  0  0  0  0  0
  157.7990  211.9340  154.6950 C   0  0  0  0  0  2  0  0  0  0  0  0
  160.1800  209.3750  156.4000 C   0  0  0  0  0  2  0  0  0  0  0  0
  160.5100  211.2310  154.8250 C   0  0  0  0  0  0  0  0  0  0  0  0
  159.6690  210.5800  155.6560 C   0  0  0  0  0  0  0  0  0  0  0  0
  161.8370  209.1760  154.4140 C   0  0  0  0  0  2  0  0  0  0  0  0
  158.2400  211.0330  155.8520 C   0  0  1  0  0  3  0  0  0  0  0  0
  160.0090  212.3340  153.9260 C   0  0  0  0  0  2  0  0  0  0  0  0
  160.9890  208.4390  155.4780 C   0  0  2  0  0  3  0  0  0  0  0  0
  158.8070  212.9660  154.4620 N   0  0  0  0  0  2  0  0  0  0  0  0
  159.0960  212.7690  157.2610 O   0  0  0  0  0  1  0  0  0  0  0  0
  158.1040  211.7910  157.1680 C   0  0  0  0  0  2  0  0  0  0  0  0
  2  8  1  1  0  0  0
  4  9  1  6  0  0  0
  4  6  1  0  0  0  0
  5  2  1  0  0  0  0
  5  1  1  1  0  0  0
  6  3  1  1  0  0  0
  6  2  1  0  0  0  0
  7  5  1  0  0  0  0
 10  4  1  0  0  0  0
 10  7  1  0  0  0  0
 11 12  2  6  0  0  0
 11  4  1  0  0  0  0
 11 13  1  0  0  0  0
 14 11  1  0  0  0  0
 15 14  1  0  0  0  0
 16 15  1  0  0  0  0
 17 16  1  0  0  0  0
 19 23  1  0  0  0  0
 20 22  1  0  0  0  0
 21 24  2  0  0  0  0
 21 22  1  0  0  0  0
 22 17  1  0  0  0  0
 23 25  1  0  0  0  0
 25 26  1  0  0  0  0
 25 20  1  1  0  0  0
 26 27  1  6  0  0  0
 26 21  1  0  0  0  0
 28 18  1  0  0  0  0
 28 19  1  0  0  0  0
 28 27  1  0  0  0  0
 30 29  1  1  0  0  0
 30  1  1  0  0  0  0
 30 31  1  0  0  0  0
 31 39  1  1  0  0  0
 32 31  1  0  0  0  0
 32 33  2  0  0  0  0
 34 32  1  0  0  0  0
 35 34  1  0  0  0  0
 36 35  1  0  0  0  0
 37 38  1  0  0  0  0
 38 36  1  0  0  0  0
 39 40  1  0  0  0  0
 41 40  1  1  0  0  0
 41 43  1  0  0  0  0
 42 41  1  0  0  0  0
 43 42  1  6  0  0  0
 43 52  1  0  0  0  0
 44 47  1  0  0  0  0
 45 50  1  0  0  0  0
 47 48  2  0  0  0  0
 48 50  1  0  0  0  0
 48 46  1  0  0  0  0
 49 44  1  0  0  0  0
 50 55  1  1  0  0  0
 51 53  1  0  0  0  0
 51 47  1  0  0  0  0
 52 49  1  6  0  0  0
 52 46  1  0  0  0  0
 53 45  1  0  0  0  0
 55 54  1  0  0  0  0
M  END
>  <MODEL>
3

>  <REMARK>
 VINA RESULT:      -4.0      3.296      7.402
  Name = 
  19 active torsions:
  status: ('A' for Active; 'I' for Inactive)
    1  A    between atoms: C_2  and  N_33
    2  A    between atoms: C_2  and  C_54
    3  A    between atoms: C_3  and  C_14
    4  A    between atoms: C_3  and  C_44
    5  A    between atoms: P_4  and  N_15
    6  A    between atoms: P_4  and  C_23
    7  A    between atoms: C_8  and  C_14
    8  A    between atoms: C_9  and  O_32
    9  A    between atoms: C_9  and  C_44
   10  A    between atoms: N_15  and  C_35
   11  A    between atoms: C_24  and  C_40
   12  A    between atoms: C_25  and  C_51
   13  A    between atoms: C_28  and  C_39
   14  A    between atoms: C_30  and  C_40
   15  A    between atoms: C_30  and  C_44
   16  A    between atoms: C_31  and  O_32
   17  A    between atoms: C_31  and  C_49
   18  A    between atoms: C_35  and  C_54
   19  A    between atoms: C_48  and  C_49
                            x       y       z     vdW  Elec       q    Type
                         _______ _______ _______ _____ _____    ______ ____

>  <TORSDO>
F 19

$$$$
=
 OpenBabel11072412483D

 55 60  0  0  1  0  0  0  0  0999 V2000
  161.9690  208.1770  153.4780 C   0  0  0  0  0  2  0  0  0  0  0  0
  162.3730  206.6650  151.5200 C   0  0  1  0  0  3  0  0  0  0  0  0
  161.0690  206.1060  149.5540 O   0  0  0  0  0  1  0  0  0  0  0  0
  160.9210  204.5310  151.3840 C   0  0  2  0  0  0  0  0  0  0  0  0
  161.4240  207.0060  152.6730 C   0  0  1  0  0  3  0  0  0  0  0  0
  161.7870  205.5590  150.6230 C   0  0  2  0  0  3  0  0  0  0  0  0
  161.2180  205.7860  153.5850 C   0  0  0  0  0  2  0  0  0  0  0  0
  162.6950  207.8000  150.7680 O   0  0  0  0  0  1  0  0  0  0  0  0
  159.5850  204.8960  151.3370 F   0  0  0  0  0  0  0  0  0  0  0  0
  161.3550  204.4410  152.8520 C   0  0  0  0  0  2  0  0  0  0  0  0
  161.1100  202.8990  150.5990 P   0  0  1  0  0  0  0  0  0  0  0  0
  162.0570  203.0130  149.4240 O   0  0  0  0  0  0  0  0  0  0  0  0
  161.7470  201.8090  151.7230 O   0  0  0  0  0  1  0  0  0  0  0  0
  159.5420  202.3390  150.0260 N   0  0  0  0  0  2  0  0  0  0  0  0
  159.7570  201.1660  149.1850 C   0  0  0  0  0  2  0  0  0  0  0  0
  160.8870  201.4020  148.1910 C   0  0  0  0  0  2  0  0  0  0  0  0
  160.3290  201.6430  146.7970 C   0  0  0  0  0  2  0  0  0  0  0  0
  159.3200  206.1470  145.7420 C   0  0  0  0  0  1  0  0  0  0  0  0
  161.4860  206.0040  146.6360 C   0  0  0  0  0  2  0  0  0  0  0  0
  162.3290  203.2430  146.6580 C   0  0  0  0  0  2  0  0  0  0  0  0
  160.7670  203.2870  144.8960 C   0  0  0  0  0  0  0  0  0  0  0  0
  161.1290  202.6460  146.1060 N   0  0  0  0  0  0  0  0  0  0  0  0
  162.7980  205.6200  146.2890 O   0  0  0  0  0  0  0  0  0  0  0  0
  159.7240  203.0030  144.2470 O   0  0  0  0  0  0  0  0  0  0  0  0
  162.7350  204.3520  145.6640 C   0  0  2  0  0  3  0  0  0  0  0  0
  161.7440  204.3150  144.4750 C   0  0  2  0  0  3  0  0  0  0  0  0
  161.0800  205.6800  144.2300 C   0  0  0  0  0  2  0  0  0  0  0  0
  160.7200  206.4180  145.4540 N   0  0  0  0  0  0  0  0  0  0  0  0
  159.7340  208.1760  154.3170 O   0  0  0  0  0  1  0  0  0  0  0  0
  160.8770  208.9720  154.1900 C   0  0  2  0  0  3  0  0  0  0  0  0
  160.5450  210.2100  153.3560 C   0  0  1  0  0  3  0  0  0  0  0  0
  160.0360  211.3450  154.1850 C   0  0  0  0  0  0  0  0  0  0  0  0
  160.7960  211.8590  155.0540 O   0  0  0  0  0  0  0  0  0  0  0  0
  158.7400  211.8430  153.9940 O   0  0  0  0  0  0  0  0  0  0  0  0
  158.1110  211.8300  152.7170 C   0  0  0  0  0  2  0  0  0  0  0  0
  157.8060  213.2460  152.2470 C   0  0  0  0  0  2  0  0  0  0  0  0
  159.6440  214.4530  151.1150 C   0  0  0  0  0  1  0  0  0  0  0  0
  158.9990  214.1590  152.4500 C   0  0  0  0  0  2  0  0  0  0  0  0
  161.7260  210.6640  152.4950 C   0  0  0  0  0  2  0  0  0  0  0  0
  161.2400  211.2680  151.1860 C   0  0  0  0  0  2  0  0  0  0  0  0
  161.6160  210.3730  150.0050 C   0  0  2  0  0  3  0  0  0  0  0  0
  162.9400  210.8360  149.4340 C   0  0  0  0  0  2  0  0  0  0  0  0
  161.6710  211.0700  148.6370 C   0  0  2  0  0  3  0  0  0  0  0  0
  162.0980  214.4470  147.1100 C   0  0  0  0  0  2  0  0  0  0  0  0
  160.1310  212.2340  144.0140 C   0  0  0  0  0  2  0  0  0  0  0  0
  159.9890  212.7680  147.8630 C   0  0  0  0  0  2  0  0  0  0  0  0
  161.2560  213.8150  146.0380 C   0  0  0  0  0  0  0  0  0  0  0  0
  160.2580  212.9790  146.3980 C   0  0  0  0  0  0  0  0  0  0  0  0
  162.4900  213.3920  148.1470 C   0  0  0  0  0  2  0  0  0  0  0  0
  159.4150  212.2610  145.3680 C   0  0  1  0  0  3  0  0  0  0  0  0
  161.6830  213.9330  144.5960 C   0  0  0  0  0  2  0  0  0  0  0  0
  161.2950  212.5520  148.6560 C   0  0  2  0  0  3  0  0  0  0  0  0
  160.6040  213.5760  143.6800 N   0  0  0  0  0  2  0  0  0  0  0  0
  157.1220  212.3430  146.0480 O   0  0  0  0  0  1  0  0  0  0  0  0
  158.0650  212.9530  145.2180 C   0  0  0  0  0  2  0  0  0  0  0  0
  1 30  1  0  0  0  0
  2  8  1  6  0  0  0
  2  5  1  0  0  0  0
  4  9  1  6  0  0  0
  4 10  1  0  0  0  0
  5  1  1  1  0  0  0
  5  7  1  0  0  0  0
  6  3  1  6  0  0  0
  6  4  1  0  0  0  0
  6  2  1  0  0  0  0
 10  7  1  0  0  0  0
 11 12  2  6  0  0  0
 11  4  1  0  0  0  0
 11 13  1  0  0  0  0
 14 11  1  0  0  0  0
 15 14  1  0  0  0  0
 16 15  1  0  0  0  0
 17 16  1  0  0  0  0
 21 22  1  0  0  0  0
 22 20  1  0  0  0  0
 22 17  1  0  0  0  0
 23 19  1  0  0  0  0
 24 21  2  0  0  0  0
 25 23  1  0  0  0  0
 25 20  1  1  0  0  0
 26 27  1  1  0  0  0
 26 21  1  0  0  0  0
 26 25  1  0  0  0  0
 27 28  1  0  0  0  0
 28 18  1  0  0  0  0
 28 19  1  0  0  0  0
 30 29  1  6  0  0  0
 31 39  1  1  0  0  0
 31 32  1  0  0  0  0
 31 30  1  0  0  0  0
 32 33  2  0  0  0  0
 34 32  1  0  0  0  0
 35 34  1  0  0  0  0
 36 38  1  0  0  0  0
 36 35  1  0  0  0  0
 37 38  1  0  0  0  0
 40 39  1  0  0  0  0
 41 40  1  1  0  0  0
 42 41  1  0  0  0  0
 43 52  1  0  0  0  0
 43 42  1  1  0  0  0
 43 41  1  0  0  0  0
 44 49  1  0  0  0  0
 45 50  1  0  0  0  0
 47 48  2  0  0  0  0
 47 44  1  0  0  0  0
 48 46  1  0  0  0  0
 49 52  1  0  0  0  0
 50 55  1  6  0  0  0
 50 48  1  0  0  0  0
 51 47  1  0  0  0  0
 52 46  1  6  0  0  0
 53 45  1  0  0  0  0
 53 51  1  0  0  0  0
 55 54  1  0  0  0  0
M  END
>  <MODEL>
4

>  <REMARK>
 VINA RESULT:      -3.7      3.519      5.399
  Name = 
  19 active torsions:
  status: ('A' for Active; 'I' for Inactive)
    1  A    between atoms: C_2  and  N_33
    2  A    between atoms: C_2  and  C_54
    3  A    between atoms: C_3  and  C_14
    4  A    between atoms: C_3  and  C_44
    5  A    between atoms: P_4  and  N_15
    6  A    between atoms: P_4  and  C_23
    7  A    between atoms: C_8  and  C_14
    8  A    between atoms: C_9  and  O_32
    9  A    between atoms: C_9  and  C_44
   10  A    between atoms: N_15  and  C_35
   11  A    between atoms: C_24  and  C_40
   12  A    between atoms: C_25  and  C_51
   13  A    between atoms: C_28  and  C_39
   14  A    between atoms: C_30  and  C_40
   15  A    between atoms: C_30  and  C_44
   16  A    between atoms: C_31  and  O_32
   17  A    between atoms: C_31  and  C_49
   18  A    between atoms: C_35  and  C_54
   19  A    between atoms: C_48  and  C_49
                            x       y       z     vdW  Elec       q    Type
                         _______ _______ _______ _____ _____    ______ ____

>  <TORSDO>
F 19

$$$$
=
 OpenBabel11072412483D

 55 60  0  0  1  0  0  0  0  0999 V2000
  160.9030  211.3880  151.7390 C   0  0  0  0  0  2  0  0  0  0  0  0
  161.3030  211.0380  149.2890 C   0  0  1  0  0  3  0  0  0  0  0  0
  163.0400  211.7750  147.7660 O   0  0  0  0  0  1  0  0  0  0  0  0
  161.0190  213.1030  147.7610 C   0  0  2  0  0  0  0  0  0  0  0  0
  161.1360  212.0770  150.4020 C   0  0  1  0  0  3  0  0  0  0  0  0
  161.6540  211.7080  147.9480 C   0  0  2  0  0  3  0  0  0  0  0  0
  159.9700  213.0270  150.0850 C   0  0  0  0  0  2  0  0  0  0  0  0
  162.2550  210.0710  149.6290 O   0  0  0  0  0  1  0  0  0  0  0  0
  161.8970  214.0940  148.1720 F   0  0  0  0  0  0  0  0  0  0  0  0
  159.7260  213.2210  148.5800 C   0  0  0  0  0  2  0  0  0  0  0  0
  160.6390  213.3510  145.9980 P   0  0  1  0  0  0  0  0  0  0  0  0
  160.2300  212.0310  145.3810 O   0  0  0  0  0  0  0  0  0  0  0  0
  159.3650  214.4530  145.8500 O   0  0  0  0  0  1  0  0  0  0  0  0
  162.0700  213.9580  145.1690 N   0  0  0  0  0  2  0  0  0  0  0  0
  162.1660  213.2870  143.8770 C   0  0  0  0  0  2  0  0  0  0  0  0
  161.9720  214.2700  142.7310 C   0  0  0  0  0  2  0  0  0  0  0  0
  161.0460  213.6840  141.6760 C   0  0  0  0  0  2  0  0  0  0  0  0
  159.9360  211.8760  137.4430 C   0  0  0  0  0  1  0  0  0  0  0  0
  162.1790  212.5720  137.4500 C   0  0  0  0  0  2  0  0  0  0  0  0
  163.0220  213.0490  140.1700 C   0  0  0  0  0  2  0  0  0  0  0  0
  161.2970  211.4680  140.4380 C   0  0  0  0  0  0  0  0  0  0  0  0
  161.7740  212.7390  140.8400 N   0  0  0  0  0  0  0  0  0  0  0  0
  163.4510  212.1830  137.9180 O   0  0  0  0  0  0  0  0  0  0  0  0
  160.1970  210.9890  140.8230 O   0  0  0  0  0  0  0  0  0  0  0  0
  163.3300  211.8250  139.2810 C   0  0  2  0  0  3  0  0  0  0  0  0
  162.2280  210.7660  139.5290 C   0  0  2  0  0  3  0  0  0  0  0  0
  161.5440  210.3240  138.2250 C   0  0  0  0  0  2  0  0  0  0  0  0
  161.3020  211.4100  137.2580 N   0  0  0  0  0  0  0  0  0  0  0  0
  162.8810  210.1090  151.3500 O   0  0  0  0  0  1  0  0  0  0  0  0
  162.1790  210.8040  152.3400 C   0  0  2  0  0  3  0  0  0  0  0  0
  161.7980  209.8410  153.4660 C   0  0  1  0  0  3  0  0  0  0  0  0
  161.6980  210.5190  154.7950 C   0  0  0  0  0  0  0  0  0  0  0  0
  162.7550  210.7560  155.4440 O   0  0  0  0  0  0  0  0  0  0  0  0
  160.4510  210.8980  155.3090 O   0  0  0  0  0  0  0  0  0  0  0  0
  159.3480  211.2020  154.4600 C   0  0  0  0  0  2  0  0  0  0  0  0
  158.0290  211.0270  155.2000 C   0  0  0  0  0  2  0  0  0  0  0  0
  157.6770  213.2380  156.2500 C   0  0  0  0  0  1  0  0  0  0  0  0
  158.0290  211.7910  156.5090 C   0  0  0  0  0  2  0  0  0  0  0  0
  160.5120  209.0700  153.1600 C   0  0  0  0  0  2  0  0  0  0  0  0
  160.7310  208.0850  152.0220 C   0  0  0  0  0  2  0  0  0  0  0  0
  161.7030  206.9820  152.4400 C   0  0  2  0  0  3  0  0  0  0  0  0
  162.6930  206.7430  151.3200 C   0  0  0  0  0  2  0  0  0  0  0  0
  161.6380  205.6910  151.6100 C   0  0  2  0  0  3  0  0  0  0  0  0
  160.8090  205.0490  148.0290 C   0  0  0  0  0  2  0  0  0  0  0  0
  161.7290  201.1400  149.5190 C   0  0  0  0  0  2  0  0  0  0  0  0
  159.7970  204.3550  150.5450 C   0  0  0  0  0  2  0  0  0  0  0  0
  160.9360  203.6260  148.4940 C   0  0  0  0  0  0  0  0  0  0  0  0
  160.4780  203.2960  149.7200 C   0  0  0  0  0  0  0  0  0  0  0  0
  161.2390  205.9990  149.1500 C   0  0  0  0  0  2  0  0  0  0  0  0
  160.6330  201.8970  150.2740 C   0  0  1  0  0  3  0  0  0  0  0  0
  161.7750  202.6590  147.6960 C   0  0  0  0  0  2  0  0  0  0  0  0
  160.5740  205.6880  150.5120 C   0  0  2  0  0  3  0  0  0  0  0  0
  161.5180  201.2740  148.0790 N   0  0  0  0  0  2  0  0  0  0  0  0
  158.6760  201.4670  148.9640 O   0  0  0  0  0  1  0  0  0  0  0  0
  159.3160  201.1370  150.1610 C   0  0  0  0  0  2  0  0  0  0  0  0
  1 30  1  0  0  0  0
  2  8  1  1  0  0  0
  2  5  1  0  0  0  0
  4  6  1  0  0  0  0
  4  9  1  1  0  0  0
  4 10  1  0  0  0  0
  5  1  1  1  0  0  0
  6  3  1  1  0  0  0
  6  2  1  0  0  0  0
  7  5  1  0  0  0  0
 10  7  1  0  0  0  0
 11 12  2  6  0  0  0
 11  4  1  0  0  0  0
 13 11  1  0  0  0  0
 14 11  1  0  0  0  0
 15 14  1  0  0  0  0
 16 15  1  0  0  0  0
 17 16  1  0  0  0  0
 19 23  1  0  0  0  0
 20 22  1  0  0  0  0
 21 24  2  0  0  0  0
 21 22  1  0  0  0  0
 22 17  1  0  0  0  0
 23 25  1  0  0  0  0
 25 26  1  0  0  0  0
 25 20  1  1  0  0  0
 26 27  1  6  0  0  0
 26 21  1  0  0  0  0
 28 18  1  0  0  0  0
 28 19  1  0  0  0  0
 28 27  1  0  0  0  0
 30 29  1  6  0  0  0
 30 31  1  0  0  0  0
 31 39  1  6  0  0  0
 31 32  1  0  0  0  0
 32 34  1  0  0  0  0
 32 33  2  0  0  0  0
 35 36  1  0  0  0  0
 35 34  1  0  0  0  0
 36 38  1  0  0  0  0
 37 38  1  0  0  0  0
 40 39  1  0  0  0  0
 41 40  1  6  0  0  0
 42 41  1  0  0  0  0
 43 42  1  6  0  0  0
 43 41  1  0  0  0  0
 44 47  1  0  0  0  0
 44 49  1  0  0  0  0
 45 50  1  0  0  0  0
 47 48  2  0  0  0  0
 48 50  1  0  0  0  0
 48 46  1  0  0  0  0
 50 55  1  6  0  0  0
 51 53  1  0  0  0  0
 51 47  1  0  0  0  0
 52 49  1  6  0  0  0
 52 46  1  0  0  0  0
 52 43  1  0  0  0  0
 53 45  1  0  0  0  0
 54 55  1  0  0  0  0
M  END
>  <MODEL>
5

>  <REMARK>
 VINA RESULT:      -3.3      3.212      7.130
  Name = 
  19 active torsions:
  status: ('A' for Active; 'I' for Inactive)
    1  A    between atoms: C_2  and  N_33
    2  A    between atoms: C_2  and  C_54
    3  A    between atoms: C_3  and  C_14
    4  A    between atoms: C_3  and  C_44
    5  A    between atoms: P_4  and  N_15
    6  A    between atoms: P_4  and  C_23
    7  A    between atoms: C_8  and  C_14
    8  A    between atoms: C_9  and  O_32
    9  A    between atoms: C_9  and  C_44
   10  A    between atoms: N_15  and  C_35
   11  A    between atoms: C_24  and  C_40
   12  A    between atoms: C_25  and  C_51
   13  A    between atoms: C_28  and  C_39
   14  A    between atoms: C_30  and  C_40
   15  A    between atoms: C_30  and  C_44
   16  A    between atoms: C_31  and  O_32
   17  A    between atoms: C_31  and  C_49
   18  A    between atoms: C_35  and  C_54
   19  A    between atoms: C_48  and  C_49
                            x       y       z     vdW  Elec       q    Type
                         _______ _______ _______ _____ _____    ______ ____

>  <TORSDO>
F 19

$$$$
=
 OpenBabel11072412483D

 55 60  0  0  1  0  0  0  0  0999 V2000
  161.5700  204.5390  150.8930 C   0  0  0  0  0  2  0  0  0  0  0  0
  160.7550  203.6500  148.6950 C   0  0  1  0  0  3  0  0  0  0  0  0
  161.8580  202.5650  146.8280 O   0  0  0  0  0  1  0  0  0  0  0  0
  161.4850  204.9420  146.5790 C   0  0  2  0  0  0  0  0  0  0  0  0
  161.7430  204.5970  149.3820 C   0  0  1  0  0  3  0  0  0  0  0  0
  160.9890  203.6050  147.1740 C   0  0  2  0  0  3  0  0  0  0  0  0
  161.5490  206.0380  148.8820 C   0  0  0  0  0  2  0  0  0  0  0  0
  160.8090  202.3650  149.2460 O   0  0  0  0  0  1  0  0  0  0  0  0
  162.8690  204.9580  146.5150 F   0  0  0  0  0  0  0  0  0  0  0  0
  161.0190  206.1220  147.4410 C   0  0  0  0  0  2  0  0  0  0  0  0
  160.8180  205.1260  144.8950 P   0  0  1  0  0  0  0  0  0  0  0  0
  160.3790  203.7730  144.3780 O   0  0  0  0  0  0  0  0  0  0  0  0
  159.4860  206.1670  144.9320 O   0  0  0  0  0  1  0  0  0  0  0  0
  162.0690  205.7710  143.8360 N   0  0  0  0  0  2  0  0  0  0  0  0
  161.5810  205.7060  142.4630 C   0  0  0  0  0  2  0  0  0  0  0  0
  162.3790  206.6270  141.5510 C   0  0  0  0  0  2  0  0  0  0  0  0
  161.7430  206.6930  140.1700 C   0  0  0  0  0  2  0  0  0  0  0  0
  158.6930  209.4300  137.8000 C   0  0  0  0  0  1  0  0  0  0  0  0
  159.8160  210.7050  139.4210 C   0  0  0  0  0  2  0  0  0  0  0  0
  162.0950  209.2240  140.3910 C   0  0  0  0  0  2  0  0  0  0  0  0
  161.7960  208.3440  138.2260 C   0  0  0  0  0  0  0  0  0  0  0  0
  161.9240  208.0210  139.5990 N   0  0  0  0  0  0  0  0  0  0  0  0
  161.0580  211.3240  139.6700 O   0  0  0  0  0  0  0  0  0  0  0  0
  161.5700  207.4850  137.3310 O   0  0  0  0  0  0  0  0  0  0  0  0
  162.0800  210.3900  139.3800 C   0  0  2  0  0  3  0  0  0  0  0  0
  161.9610  209.7890  137.9580 C   0  0  2  0  0  3  0  0  0  0  0  0
  160.7730  210.3740  137.1780 C   0  0  0  0  0  2  0  0  0  0  0  0
  159.5550  210.5880  137.9810 N   0  0  0  0  0  0  0  0  0  0  0  0
  160.1140  206.3720  150.4260 O   0  0  0  0  0  1  0  0  0  0  0  0
  160.8240  205.7460  151.4560 C   0  0  2  0  0  3  0  0  0  0  0  0
  161.8410  206.7250  152.0430 C   0  0  1  0  0  3  0  0  0  0  0  0
  161.5520  208.1460  151.6770 C   0  0  0  0  0  0  0  0  0  0  0  0
  160.3780  208.5900  151.8220 O   0  0  0  0  0  0  0  0  0  0  0  0
  162.5700  208.9780  151.1920 O   0  0  0  0  0  0  0  0  0  0  0  0
  162.2980  210.2830  150.6890 C   0  0  0  0  0  2  0  0  0  0  0  0
  161.9500  210.2330  149.2080 C   0  0  0  0  0  2  0  0  0  0  0  0
  161.2310  212.4740  148.4480 C   0  0  0  0  0  1  0  0  0  0  0  0
  162.3860  211.5000  148.5000 C   0  0  0  0  0  2  0  0  0  0  0  0
  161.9790  206.5800  153.5600 C   0  0  0  0  0  2  0  0  0  0  0  0
  161.2500  207.7050  154.2780 C   0  0  0  0  0  2  0  0  0  0  0  0
  160.4890  207.1690  155.4910 C   0  0  2  0  0  3  0  0  0  0  0  0
  159.2010  207.9490  155.6520 C   0  0  0  0  0  2  0  0  0  0  0  0
  160.3200  208.1550  156.6560 C   0  0  2  0  0  3  0  0  0  0  0  0
  161.0270  210.9860  154.3330 C   0  0  0  0  0  2  0  0  0  0  0  0
  156.7840  211.2230  154.8710 C   0  0  0  0  0  2  0  0  0  0  0  0
  160.0340  210.6360  156.9250 C   0  0  0  0  0  2  0  0  0  0  0  0
  159.5740  211.2630  154.5960 C   0  0  0  0  0  0  0  0  0  0  0  0
  159.0850  211.0640  155.8380 C   0  0  0  0  0  0  0  0  0  0  0  0
  161.4220  209.6510  154.9690 C   0  0  0  0  0  2  0  0  0  0  0  0
  157.6200  211.2610  156.1540 C   0  0  1  0  0  3  0  0  0  0  0  0
  158.6480  211.5230  153.4330 C   0  0  0  0  0  2  0  0  0  0  0  0
  160.9820  209.5170  156.4460 C   0  0  2  0  0  3  0  0  0  0  0  0
  157.3810  212.1020  153.8680 N   0  0  0  0  0  2  0  0  0  0  0  0
  156.0490  212.7910  157.1150 O   0  0  0  0  0  1  0  0  0  0  0  0
  157.4080  212.5950  156.8610 C   0  0  0  0  0  2  0  0  0  0  0  0
  1 30  1  0  0  0  0
  2  8  1  1  0  0  0
  2  5  1  0  0  0  0
  4  9  1  6  0  0  0
  4  6  1  0  0  0  0
  4 10  1  0  0  0  0
  5  1  1  1  0  0  0
  6  3  1  1  0  0  0
  6  2  1  0  0  0  0
  7  5  1  0  0  0  0
 10  7  1  0  0  0  0
 11 12  2  6  0  0  0
 11 13  1  0  0  0  0
 11  4  1  0  0  0  0
 14 11  1  0  0  0  0
 15 14  1  0  0  0  0
 16 15  1  0  0  0  0
 17 16  1  0  0  0  0
 18 28  1  0  0  0  0
 19 23  1  0  0  0  0
 21 22  1  0  0  0  0
 22 17  1  0  0  0  0
 22 20  1  0  0  0  0
 24 21  2  0  0  0  0
 25 23  1  0  0  0  0
 25 20  1  1  0  0  0
 26 27  1  1  0  0  0
 26 21  1  0  0  0  0
 26 25  1  0  0  0  0
 27 28  1  0  0  0  0
 28 19  1  0  0  0  0
 30 29  1  6  0  0  0
 30 31  1  0  0  0  0
 31 39  1  1  0  0  0
 32 33  2  0  0  0  0
 32 31  1  0  0  0  0
 34 32  1  0  0  0  0
 35 34  1  0  0  0  0
 36 35  1  0  0  0  0
 37 38  1  0  0  0  0
 38 36  1  0  0  0  0
 39 40  1  0  0  0  0
 41 40  1  6  0  0  0
 41 42  1  0  0  0  0
 41 43  1  0  0  0  0
 43 42  1  6  0  0  0
 44 47  1  0  0  0  0
 44 49  1  0  0  0  0
 45 50  1  0  0  0  0
 47 48  2  0  0  0  0
 48 50  1  0  0  0  0
 48 46  1  0  0  0  0
 50 55  1  6  0  0  0
 51 53  1  0  0  0  0
 51 47  1  0  0  0  0
 52 49  1  6  0  0  0
 52 43  1  0  0  0  0
 52 46  1  0  0  0  0
 53 45  1  0  0  0  0
 55 54  1  0  0  0  0
M  END
>  <MODEL>
6

>  <REMARK>
 VINA RESULT:      -3.3      2.239      5.465
  Name = 
  19 active torsions:
  status: ('A' for Active; 'I' for Inactive)
    1  A    between atoms: C_2  and  N_33
    2  A    between atoms: C_2  and  C_54
    3  A    between atoms: C_3  and  C_14
    4  A    between atoms: C_3  and  C_44
    5  A    between atoms: P_4  and  N_15
    6  A    between atoms: P_4  and  C_23
    7  A    between atoms: C_8  and  C_14
    8  A    between atoms: C_9  and  O_32
    9  A    between atoms: C_9  and  C_44
   10  A    between atoms: N_15  and  C_35
   11  A    between atoms: C_24  and  C_40
   12  A    between atoms: C_25  and  C_51
   13  A    between atoms: C_28  and  C_39
   14  A    between atoms: C_30  and  C_40
   15  A    between atoms: C_30  and  C_44
   16  A    between atoms: C_31  and  O_32
   17  A    between atoms: C_31  and  C_49
   18  A    between atoms: C_35  and  C_54
   19  A    between atoms: C_48  and  C_49
                            x       y       z     vdW  Elec       q    Type
                         _______ _______ _______ _____ _____    ______ ____

>  <TORSDO>
F 19

$$$$
=
 OpenBabel11072412483D

 55 60  0  0  1  0  0  0  0  0999 V2000
  160.5280  206.4690  149.6820 C   0  0  0  0  0  2  0  0  0  0  0  0
  161.0730  204.7960  147.8970 C   0  0  1  0  0  3  0  0  0  0  0  0
  163.1180  204.2150  146.7310 O   0  0  0  0  0  1  0  0  0  0  0  0
  161.6480  205.7380  145.5610 C   0  0  2  0  0  0  0  0  0  0  0  0
  161.1230  206.2730  148.2950 C   0  0  1  0  0  3  0  0  0  0  0  0
  161.7730  204.5560  146.5470 C   0  0  2  0  0  3  0  0  0  0  0  0
  160.3710  207.1370  147.2700 C   0  0  0  0  0  2  0  0  0  0  0  0
  161.6170  203.9780  148.8940 O   0  0  0  0  0  1  0  0  0  0  0  0
  162.7450  206.5770  145.6700 F   0  0  0  0  0  0  0  0  0  0  0  0
  160.3780  206.5490  145.8490 C   0  0  0  0  0  2  0  0  0  0  0  0
  161.5740  205.0880  143.8620 P   0  0  1  0  0  0  0  0  0  0  0  0
  162.8460  204.3250  143.5600 O   0  0  0  0  0  0  0  0  0  0  0  0
  160.2520  204.0430  143.7200 O   0  0  0  0  0  1  0  0  0  0  0  0
  161.4200  206.4260  142.7270 N   0  0  0  0  0  2  0  0  0  0  0  0
  162.3060  206.1680  141.5970 C   0  0  0  0  0  2  0  0  0  0  0  0
  162.4230  207.3930  140.6990 C   0  0  0  0  0  2  0  0  0  0  0  0
  161.2080  207.5060  139.7900 C   0  0  0  0  0  2  0  0  0  0  0  0
  160.9040  212.1410  140.7040 C   0  0  0  0  0  1  0  0  0  0  0  0
  162.7930  211.7120  139.3780 C   0  0  0  0  0  2  0  0  0  0  0  0
  162.6130  209.0430  138.2930 C   0  0  0  0  0  2  0  0  0  0  0  0
  160.3520  209.6120  138.6330 C   0  0  0  0  0  0  0  0  0  0  0  0
  161.3560  208.6490  138.8990 N   0  0  0  0  0  0  0  0  0  0  0  0
  163.1630  211.4190  138.0500 O   0  0  0  0  0  0  0  0  0  0  0  0
  159.1840  209.5420  139.1010 O   0  0  0  0  0  0  0  0  0  0  0  0
  162.3260  210.3810  137.5780 C   0  0  2  0  0  3  0  0  0  0  0  0
  160.8200  210.7000  137.7460 C   0  0  2  0  0  3  0  0  0  0  0  0
  160.5850  212.0900  138.3590 C   0  0  0  0  0  2  0  0  0  0  0  0
  161.5300  212.4580  139.4290 N   0  0  0  0  0  0  0  0  0  0  0  0
  162.3720  207.9650  149.9290 O   0  0  0  0  0  1  0  0  0  0  0  0
  161.0850  207.6940  150.4040 C   0  0  2  0  0  3  0  0  0  0  0  0
  161.1470  207.3980  151.9030 C   0  0  1  0  0  3  0  0  0  0  0  0
  161.9490  206.1760  152.2170 C   0  0  0  0  0  0  0  0  0  0  0  0
  163.0650  206.0110  151.6460 O   0  0  0  0  0  0  0  0  0  0  0  0
  161.4800  205.2320  153.1400 O   0  0  0  0  0  0  0  0  0  0  0  0
  160.5420  204.2240  152.7730 C   0  0  0  0  0  2  0  0  0  0  0  0
  160.9230  203.5850  151.4450 C   0  0  0  0  0  2  0  0  0  0  0  0
  160.8650  201.3080  150.4790 C   0  0  0  0  0  1  0  0  0  0  0  0
  161.3610  202.1460  151.6360 C   0  0  0  0  0  2  0  0  0  0  0  0
  161.6550  208.5940  152.7120 C   0  0  0  0  0  2  0  0  0  0  0  0
  161.3750  208.4020  154.1940 C   0  0  0  0  0  2  0  0  0  0  0  0
  161.8590  209.6090  154.9970 C   0  0  2  0  0  3  0  0  0  0  0  0
  161.4480  209.4400  156.4440 C   0  0  0  0  0  2  0  0  0  0  0  0
  160.7550  210.4920  155.5980 C   0  0  2  0  0  3  0  0  0  0  0  0
  157.1030  211.2220  155.8110 C   0  0  0  0  0  2  0  0  0  0  0  0
  158.5590  214.3440  153.2660 C   0  0  0  0  0  2  0  0  0  0  0  0
  158.9610  210.5190  153.8400 C   0  0  0  0  0  2  0  0  0  0  0  0
  157.4800  212.2410  154.7750 C   0  0  0  0  0  0  0  0  0  0  0  0
  158.4000  211.9160  153.8420 C   0  0  0  0  0  0  0  0  0  0  0  0
  158.3650  210.5550  156.3640 C   0  0  0  0  0  2  0  0  0  0  0  0
  158.8720  212.9160  152.8110 C   0  0  1  0  0  3  0  0  0  0  0  0
  157.0130  213.6670  154.9340 C   0  0  0  0  0  2  0  0  0  0  0  0
  159.3290  210.0520  155.2640 C   0  0  2  0  0  3  0  0  0  0  0  0
  157.1660  214.4300  153.6990 N   0  0  0  0  0  2  0  0  0  0  0  0
  158.7430  213.4760  150.4870 O   0  0  0  0  0  1  0  0  0  0  0  0
  158.1960  212.6490  151.4700 C   0  0  0  0  0  2  0  0  0  0  0  0
  1 30  1  0  0  0  0
  2  5  1  0  0  0  0
  2  8  1  1  0  0  0
  4  9  1  1  0  0  0
  4 10  1  0  0  0  0
  4  6  1  0  0  0  0
  5  1  1  1  0  0  0
  6  3  1  1  0  0  0
  6  2  1  0  0  0  0
  7  5  1  0  0  0  0
 10  7  1  0  0  0  0
 11 12  2  6  0  0  0
 11  4  1  0  0  0  0
 13 11  1  0  0  0  0
 14 11  1  0  0  0  0
 15 14  1  0  0  0  0
 16 15  1  0  0  0  0
 17 16  1  0  0  0  0
 19 28  1  0  0  0  0
 20 22  1  0  0  0  0
 21 22  1  0  0  0  0
 21 24  2  0  0  0  0
 22 17  1  0  0  0  0
 23 19  1  0  0  0  0
 25 26  1  0  0  0  0
 25 23  1  0  0  0  0
 25 20  1  1  0  0  0
 26 27  1  1  0  0  0
 26 21  1  0  0  0  0
 27 28  1  0  0  0  0
 28 18  1  0  0  0  0
 30 29  1  6  0  0  0
 30 31  1  0  0  0  0
 31 32  1  0  0  0  0
 31 39  1  1  0  0  0
 32 34  1  0  0  0  0
 33 32  2  0  0  0  0
 35 34  1  0  0  0  0
 36 38  1  0  0  0  0
 36 35  1  0  0  0  0
 37 38  1  0  0  0  0
 39 40  1  0  0  0  0
 41 40  1  6  0  0  0
 41 43  1  0  0  0  0
 41 42  1  0  0  0  0
 43 42  1  1  0  0  0
 44 49  1  0  0  0  0
 45 53  1  0  0  0  0
 46 48  1  0  0  0  0
 47 51  1  0  0  0  0
 47 44  1  0  0  0  0
 48 47  2  0  0  0  0
 50 55  1  6  0  0  0
 50 45  1  0  0  0  0
 50 48  1  0  0  0  0
 52 46  1  6  0  0  0
 52 43  1  0  0  0  0
 52 49  1  0  0  0  0
 53 51  1  0  0  0  0
 54 55  1  0  0  0  0
M  END
>  <MODEL>
7

>  <REMARK>
 VINA RESULT:      -2.5      2.887      5.355
  Name = 
  19 active torsions:
  status: ('A' for Active; 'I' for Inactive)
    1  A    between atoms: C_2  and  N_33
    2  A    between atoms: C_2  and  C_54
    3  A    between atoms: C_3  and  C_14
    4  A    between atoms: C_3  and  C_44
    5  A    between atoms: P_4  and  N_15
    6  A    between atoms: P_4  and  C_23
    7  A    between atoms: C_8  and  C_14
    8  A    between atoms: C_9  and  O_32
    9  A    between atoms: C_9  and  C_44
   10  A    between atoms: N_15  and  C_35
   11  A    between atoms: C_24  and  C_40
   12  A    between atoms: C_25  and  C_51
   13  A    between atoms: C_28  and  C_39
   14  A    between atoms: C_30  and  C_40
   15  A    between atoms: C_30  and  C_44
   16  A    between atoms: C_31  and  O_32
   17  A    between atoms: C_31  and  C_49
   18  A    between atoms: C_35  and  C_54
   19  A    between atoms: C_48  and  C_49
                            x       y       z     vdW  Elec       q    Type
                         _______ _______ _______ _____ _____    ______ ____

>  <TORSDO>
F 19

$$$$
=
 OpenBabel11072412483D

 55 60  0  0  1  0  0  0  0  0999 V2000
  160.7180  205.6560  149.4820 C   0  0  0  0  0  2  0  0  0  0  0  0
  161.4020  204.3410  147.4610 C   0  0  1  0  0  3  0  0  0  0  0  0
  163.4290  204.2660  146.1340 O   0  0  0  0  0  1  0  0  0  0  0  0
  161.6590  205.6580  145.2530 C   0  0  2  0  0  0  0  0  0  0  0  0
  161.2420  205.7430  148.0560 C   0  0  1  0  0  3  0  0  0  0  0  0
  162.0380  204.3970  146.0600 C   0  0  2  0  0  3  0  0  0  0  0  0
  160.2930  206.5920  147.1940 C   0  0  0  0  0  2  0  0  0  0  0  0
  162.1350  203.5040  148.3090 O   0  0  0  0  0  1  0  0  0  0  0  0
  162.6130  206.6490  145.4260 F   0  0  0  0  0  0  0  0  0  0  0  0
  160.2980  206.2010  145.7070 C   0  0  0  0  0  2  0  0  0  0  0  0
  161.5750  205.2280  143.4850 P   0  0  1  0  0  0  0  0  0  0  0  0
  162.8050  204.4340  143.1030 O   0  0  0  0  0  0  0  0  0  0  0  0
  160.1970  204.2900  143.2030 O   0  0  0  0  0  1  0  0  0  0  0  0
  161.5170  206.7040  142.5250 N   0  0  0  0  0  2  0  0  0  0  0  0
  162.2750  206.4780  141.2990 C   0  0  0  0  0  2  0  0  0  0  0  0
  161.7650  207.3600  140.1670 C   0  0  0  0  0  2  0  0  0  0  0  0
  162.2680  208.7870  140.3350 C   0  0  0  0  0  2  0  0  0  0  0  0
  158.5620  211.5220  139.2410 C   0  0  0  0  0  1  0  0  0  0  0  0
  160.5600  212.6280  138.6910 C   0  0  0  0  0  2  0  0  0  0  0  0
  162.7420  210.7390  138.7400 C   0  0  0  0  0  2  0  0  0  0  0  0
  160.8860  209.3660  138.2700 C   0  0  0  0  0  0  0  0  0  0  0  0
  161.9960  209.5570  139.1290 N   0  0  0  0  0  0  0  0  0  0  0  0
  161.5810  212.6400  137.7190 O   0  0  0  0  0  0  0  0  0  0  0  0
  160.0370  208.4480  138.4310 O   0  0  0  0  0  0  0  0  0  0  0  0
  162.0040  211.3070  137.5090 C   0  0  2  0  0  3  0  0  0  0  0  0
  160.8350  210.3510  137.1680 C   0  0  2  0  0  3  0  0  0  0  0  0
  159.4850  211.0830  137.1050 C   0  0  0  0  0  2  0  0  0  0  0  0
  159.2990  212.1190  138.1370 N   0  0  0  0  0  0  0  0  0  0  0  0
  162.2910  207.3970  149.9220 O   0  0  0  0  0  1  0  0  0  0  0  0
  161.0480  206.8920  150.3160 C   0  0  2  0  0  3  0  0  0  0  0  0
  161.1050  206.4920  151.7910 C   0  0  1  0  0  3  0  0  0  0  0  0
  161.6770  205.1260  151.9960 C   0  0  0  0  0  0  0  0  0  0  0  0
  162.9180  205.0050  152.2020 O   0  0  0  0  0  0  0  0  0  0  0  0
  160.8490  203.9950  151.9730 O   0  0  0  0  0  0  0  0  0  0  0  0
  161.2800  202.7600  151.4110 C   0  0  0  0  0  2  0  0  0  0  0  0
  160.0880  201.9120  150.9870 C   0  0  0  0  0  2  0  0  0  0  0  0
  161.1770  200.6620  149.1500 C   0  0  0  0  0  1  0  0  0  0  0  0
  160.0970  201.6640  149.4910 C   0  0  0  0  0  2  0  0  0  0  0  0
  161.8530  207.5190  152.6440 C   0  0  0  0  0  2  0  0  0  0  0  0
  160.8770  208.3800  153.4310 C   0  0  0  0  0  2  0  0  0  0  0  0
  160.4150  209.5750  152.5970 C   0  0  2  0  0  3  0  0  0  0  0  0
  161.3120  210.7600  152.8900 C   0  0  0  0  0  2  0  0  0  0  0  0
  159.8810  210.7740  153.3960 C   0  0  2  0  0  3  0  0  0  0  0  0
  159.7680  212.3420  156.7790 C   0  0  0  0  0  2  0  0  0  0  0  0
  155.9520  213.3590  155.1210 C   0  0  0  0  0  2  0  0  0  0  0  0
  158.3960  210.3460  155.3760 C   0  0  0  0  0  2  0  0  0  0  0  0
  158.3470  212.5950  156.3610 C   0  0  0  0  0  0  0  0  0  0  0  0
  157.6940  211.6470  155.6560 C   0  0  0  0  0  0  0  0  0  0  0  0
  160.5570  211.7630  155.6030 C   0  0  0  0  0  2  0  0  0  0  0  0
  156.2860  211.8650  155.1500 C   0  0  1  0  0  3  0  0  0  0  0  0
  157.7640  213.9770  156.5240 C   0  0  0  0  0  2  0  0  0  0  0  0
  159.8500  210.5730  154.9110 C   0  0  2  0  0  3  0  0  0  0  0  0
  156.3090  213.9700  156.4000 N   0  0  0  0  0  2  0  0  0  0  0  0
  154.8850  209.9450  155.4330 O   0  0  0  0  0  1  0  0  0  0  0  0
  155.2870  211.1360  156.0410 C   0  0  0  0  0  2  0  0  0  0  0  0
  1 30  1  0  0  0  0
  2  5  1  0  0  0  0
  2  8  1  1  0  0  0
  4  9  1  1  0  0  0
  4 10  1  0  0  0  0
  4  6  1  0  0  0  0
  5  1  1  1  0  0  0
  6  3  1  1  0  0  0
  6  2  1  0  0  0  0
  7  5  1  0  0  0  0
 10  7  1  0  0  0  0
 11 12  2  6  0  0  0
 11  4  1  0  0  0  0
 13 11  1  0  0  0  0
 14 11  1  0  0  0  0
 15 14  1  0  0  0  0
 16 17  1  0  0  0  0
 16 15  1  0  0  0  0
 20 22  1  0  0  0  0
 21 24  2  0  0  0  0
 21 22  1  0  0  0  0
 22 17  1  0  0  0  0
 23 19  1  0  0  0  0
 25 23  1  0  0  0  0
 25 20  1  1  0  0  0
 26 27  1  1  0  0  0
 26 25  1  0  0  0  0
 26 21  1  0  0  0  0
 27 28  1  0  0  0  0
 28 19  1  0  0  0  0
 28 18  1  0  0  0  0
 30 29  1  6  0  0  0
 30 31  1  0  0  0  0
 31 32  1  0  0  0  0
 31 39  1  1  0  0  0
 32 33  2  0  0  0  0
 34 32  1  0  0  0  0
 35 34  1  0  0  0  0
 36 35  1  0  0  0  0
 37 38  1  0  0  0  0
 38 36  1  0  0  0  0
 39 40  1  0  0  0  0
 41 42  1  0  0  0  0
 41 43  1  0  0  0  0
 41 40  1  1  0  0  0
 43 42  1  1  0  0  0
 43 52  1  0  0  0  0
 45 50  1  0  0  0  0
 45 53  1  0  0  0  0
 46 48  1  0  0  0  0
 47 51  1  0  0  0  0
 47 44  1  0  0  0  0
 48 47  2  0  0  0  0
 49 44  1  0  0  0  0
 50 48  1  0  0  0  0
 50 55  1  1  0  0  0
 52 46  1  1  0  0  0
 52 49  1  0  0  0  0
 53 51  1  0  0  0  0
 54 55  1  0  0  0  0
M  END
>  <MODEL>
8

>  <REMARK>
 VINA RESULT:      -2.4      3.532      6.025
  Name = 
  19 active torsions:
  status: ('A' for Active; 'I' for Inactive)
    1  A    between atoms: C_2  and  N_33
    2  A    between atoms: C_2  and  C_54
    3  A    between atoms: C_3  and  C_14
    4  A    between atoms: C_3  and  C_44
    5  A    between atoms: P_4  and  N_15
    6  A    between atoms: P_4  and  C_23
    7  A    between atoms: C_8  and  C_14
    8  A    between atoms: C_9  and  O_32
    9  A    between atoms: C_9  and  C_44
   10  A    between atoms: N_15  and  C_35
   11  A    between atoms: C_24  and  C_40
   12  A    between atoms: C_25  and  C_51
   13  A    between atoms: C_28  and  C_39
   14  A    between atoms: C_30  and  C_40
   15  A    between atoms: C_30  and  C_44
   16  A    between atoms: C_31  and  O_32
   17  A    between atoms: C_31  and  C_49
   18  A    between atoms: C_35  and  C_54
   19  A    between atoms: C_48  and  C_49
                            x       y       z     vdW  Elec       q    Type
                         _______ _______ _______ _____ _____    ______ ____

>  <TORSDO>
F 19

$$$$
=
 OpenBabel11072412483D

 55 60  0  0  1  0  0  0  0  0999 V2000
  160.8480  209.5080  155.0750 C   0  0  0  0  0  2  0  0  0  0  0  0
  160.9660  207.4310  153.6780 C   0  0  1  0  0  3  0  0  0  0  0  0
  162.8060  206.1260  152.7910 O   0  0  0  0  0  1  0  0  0  0  0  0
  161.8190  207.7110  151.2540 C   0  0  2  0  0  0  0  0  0  0  0  0
  161.3980  208.8950  153.7960 C   0  0  1  0  0  3  0  0  0  0  0  0
  161.6050  206.7570  152.4500 C   0  0  2  0  0  3  0  0  0  0  0  0
  160.9240  209.7010  152.5760 C   0  0  0  0  0  2  0  0  0  0  0  0
  161.2510  206.7160  154.8450 O   0  0  0  0  0  1  0  0  0  0  0  0
  163.0980  208.2450  151.2840 F   0  0  0  0  0  0  0  0  0  0  0  0
  160.8050  208.8610  151.2930 C   0  0  0  0  0  2  0  0  0  0  0  0
  161.6110  206.7770  149.7050 P   0  0  1  0  0  0  0  0  0  0  0  0
  162.8950  206.0450  149.3830 O   0  0  0  0  0  0  0  0  0  0  0  0
  160.3620  205.6530  149.8940 O   0  0  0  0  0  1  0  0  0  0  0  0
  161.2360  207.8920  148.3940 N   0  0  0  0  0  2  0  0  0  0  0  0
  161.6930  207.2940  147.1440 C   0  0  0  0  0  2  0  0  0  0  0  0
  160.7620  206.1750  146.6970 C   0  0  0  0  0  2  0  0  0  0  0  0
  161.1990  205.6230  145.3480 C   0  0  0  0  0  2  0  0  0  0  0  0
  160.7000  202.6190  148.9720 C   0  0  0  0  0  1  0  0  0  0  0  0
  159.2520  202.0110  147.2270 C   0  0  0  0  0  2  0  0  0  0  0  0
  160.0160  203.4100  144.8200 C   0  0  0  0  0  2  0  0  0  0  0  0
  162.0410  203.3110  146.0210 C   0  0  0  0  0  0  0  0  0  0  0  0
  161.1300  204.1690  145.3560 N   0  0  0  0  0  0  0  0  0  0  0  0
  159.2510  201.3830  145.9650 O   0  0  0  0  0  0  0  0  0  0  0  0
  163.0610  203.7270  146.6320 O   0  0  0  0  0  0  0  0  0  0  0  0
  160.2990  201.9390  145.1950 C   0  0  2  0  0  3  0  0  0  0  0  0
  161.6690  201.8830  145.9140 C   0  0  2  0  0  3  0  0  0  0  0  0
  161.5760  201.2030  147.2890 C   0  0  0  0  0  2  0  0  0  0  0  0
  160.3640  201.5370  148.0590 N   0  0  0  0  0  0  0  0  0  0  0  0
  161.4950  211.3030  156.5100 O   0  0  0  0  0  1  0  0  0  0  0  0
  161.1330  211.0040  155.1920 C   0  0  2  0  0  3  0  0  0  0  0  0
  159.8680  211.7780  154.8220 C   0  0  1  0  0  3  0  0  0  0  0  0
  159.4660  212.7630  155.8720 C   0  0  0  0  0  0  0  0  0  0  0  0
  160.2850  213.6620  156.2160 O   0  0  0  0  0  0  0  0  0  0  0  0
  158.1960  212.7010  156.4600 O   0  0  0  0  0  0  0  0  0  0  0  0
  157.4220  211.5050  156.4520 C   0  0  0  0  0  2  0  0  0  0  0  0
  156.0500  211.7500  155.8380 C   0  0  0  0  0  2  0  0  0  0  0  0
  154.6430  213.4770  154.7640 C   0  0  0  0  0  1  0  0  0  0  0  0
  155.7290  213.2300  155.7870 C   0  0  0  0  0  2  0  0  0  0  0  0
  159.9860  212.4660  153.4600 C   0  0  0  0  0  2  0  0  0  0  0  0
  158.6130  212.6850  152.8440 C   0  0  0  0  0  2  0  0  0  0  0  0
  158.3950  214.1630  152.5200 C   0  0  2  0  0  3  0  0  0  0  0  0
  156.9080  214.4350  152.4220 C   0  0  0  0  0  2  0  0  0  0  0  0
  157.7460  214.4530  151.1570 C   0  0  2  0  0  3  0  0  0  0  0  0
  157.2280  213.0230  147.7510 C   0  0  0  0  0  2  0  0  0  0  0  0
  161.3430  214.2080  147.6790 C   0  0  0  0  0  2  0  0  0  0  0  0
  158.7720  212.4640  150.0170 C   0  0  0  0  0  2  0  0  0  0  0  0
  158.7130  213.2360  147.6870 C   0  0  0  0  0  0  0  0  0  0  0  0
  159.4570  212.9980  148.7880 C   0  0  0  0  0  0  0  0  0  0  0  0
  156.6740  213.6340  149.0400 C   0  0  0  0  0  2  0  0  0  0  0  0
  160.9470  213.2540  148.8100 C   0  0  1  0  0  3  0  0  0  0  0  0
  159.3100  213.9300  146.4870 C   0  0  0  0  0  2  0  0  0  0  0  0
  157.4560  213.2150  150.3080 C   0  0  2  0  0  3  0  0  0  0  0  0
  160.7570  213.7520  146.4200 N   0  0  0  0  0  2  0  0  0  0  0  0
  162.1080  211.7700  147.3340 O   0  0  0  0  0  1  0  0  0  0  0  0
  161.7090  211.9420  148.6610 C   0  0  0  0  0  2  0  0  0  0  0  0
  1 30  1  0  0  0  0
  2  5  1  0  0  0  0
  2  8  1  1  0  0  0
  4  9  1  1  0  0  0
  4 10  1  0  0  0  0
  4  6  1  0  0  0  0
  5  1  1  1  0  0  0
  6  3  1  1  0  0  0
  6  2  1  0  0  0  0
  7  5  1  0  0  0  0
 10  7  1  0  0  0  0
 11 12  2  6  0  0  0
 11 13  1  0  0  0  0
 11  4  1  0  0  0  0
 14 11  1  0  0  0  0
 15 14  1  0  0  0  0
 16 15  1  0  0  0  0
 17 22  1  0  0  0  0
 17 16  1  0  0  0  0
 19 28  1  0  0  0  0
 20 22  1  0  0  0  0
 21 24  2  0  0  0  0
 22 21  1  0  0  0  0
 23 19  1  0  0  0  0
 25 20  1  1  0  0  0
 25 26  1  0  0  0  0
 25 23  1  0  0  0  0
 26 21  1  0  0  0  0
 26 27  1  1  0  0  0
 27 28  1  0  0  0  0
 28 18  1  0  0  0  0
 30 29  1  1  0  0  0
 31 39  1  6  0  0  0
 31 30  1  0  0  0  0
 31 32  1  0  0  0  0
 32 33  2  0  0  0  0
 32 34  1  0  0  0  0
 35 34  1  0  0  0  0
 36 35  1  0  0  0  0
 37 38  1  0  0  0  0
 38 36  1  0  0  0  0
 40 39  1  0  0  0  0
 41 40  1  6  0  0  0
 42 41  1  0  0  0  0
 43 42  1  1  0  0  0
 43 41  1  0  0  0  0
 44 49  1  0  0  0  0
 45 50  1  0  0  0  0
 46 52  1  0  0  0  0
 47 44  1  0  0  0  0
 47 48  2  0  0  0  0
 48 50  1  0  0  0  0
 48 46  1  0  0  0  0
 50 55  1  6  0  0  0
 51 47  1  0  0  0  0
 52 49  1  6  0  0  0
 52 43  1  0  0  0  0
 53 51  1  0  0  0  0
 53 45  1  0  0  0  0
 54 55  1  0  0  0  0
M  END
>  <MODEL>
9

>  <REMARK>
 VINA RESULT:      -2.3      4.260      6.656
  Name = 
  19 active torsions:
  status: ('A' for Active; 'I' for Inactive)
    1  A    between atoms: C_2  and  N_33
    2  A    between atoms: C_2  and  C_54
    3  A    between atoms: C_3  and  C_14
    4  A    between atoms: C_3  and  C_44
    5  A    between atoms: P_4  and  N_15
    6  A    between atoms: P_4  and  C_23
    7  A    between atoms: C_8  and  C_14
    8  A    between atoms: C_9  and  O_32
    9  A    between atoms: C_9  and  C_44
   10  A    between atoms: N_15  and  C_35
   11  A    between atoms: C_24  and  C_40
   12  A    between atoms: C_25  and  C_51
   13  A    between atoms: C_28  and  C_39
   14  A    between atoms: C_30  and  C_40
   15  A    between atoms: C_30  and  C_44
   16  A    between atoms: C_31  and  O_32
   17  A    between atoms: C_31  and  C_49
   18  A    between atoms: C_35  and  C_54
   19  A    between atoms: C_48  and  C_49
                            x       y       z     vdW  Elec       q    Type
                         _______ _______ _______ _____ _____    ______ ____

>  <TORSDO>
F 19

$$$$
