=
 OpenBabel11072411573D

 60 65  0  0  1  0  0  0  0  0999 V2000
  162.3110  208.1900  153.4420 C   0  0  0  0  0  2  0  0  0  0  0  0
  159.6670  209.5050  152.9570 O   0  0  0  0  0  0  0  0  0  0  0  0
  160.1350  208.2530  152.4660 C   0  0  0  0  0  2  0  0  0  0  0  0
  160.8300  207.9940  153.7550 C   0  0  1  0  0  0  0  0  0  0  0  0
  161.8940  207.0220  154.2740 C   0  0  1  0  0  3  0  0  0  0  0  0
  160.3360  209.3230  154.2020 C   0  0  2  0  0  3  0  0  0  0  0  0
  160.6220  205.1340  153.5470 O   0  0  0  0  0  1  0  0  0  0  0  0
  161.8730  205.7460  153.4350 C   0  0  1  0  0  3  0  0  0  0  0  0
  161.9050  205.7510  147.3360 C   0  0  1  0  0  3  0  0  0  0  0  0
  160.1310  204.8700  150.4180 C   0  0  2  0  0  3  0  0  0  0  0  0
  160.7770  206.7850  147.4870 C   0  0  0  0  0  2  0  0  0  0  0  0
  162.1740  206.0640  152.0000 C   0  0  0  0  0  0  0  0  0  0  0  0
  161.3210  205.6180  150.9480 N   0  0  0  0  0  0  0  0  0  0  0  0
  160.4090  203.3760  150.4920 C   0  0  0  0  0  1  0  0  0  0  0  0
  163.1820  206.7660  151.7180 O   0  0  0  0  0  0  0  0  0  0  0  0
  161.9600  204.9180  148.6200 C   0  0  0  0  0  2  0  0  0  0  0  0
  160.4220  206.8740  148.9620 C   0  0  2  0  0  3  0  0  0  0  0  0
  161.1170  207.9310  149.5240 F   0  0  0  0  0  0  0  0  0  0  0  0
  160.9210  205.5630  149.5130 C   0  0  1  0  0  0  0  0  0  0  0  0
  161.7660  204.9230  146.0260 C   0  0  1  0  0  0  0  0  0  0  0  0
  163.1400  204.4310  145.5310 C   0  0  0  0  0  2  0  0  0  0  0  0
  163.7930  203.7080  146.5310 O   0  0  0  0  0  1  0  0  0  0  0  0
  160.8550  203.8390  146.1730 O   0  0  0  0  0  0  0  0  0  0  0  0
  161.1980  202.7740  145.3160 C   0  0  0  0  0  2  0  0  0  0  0  0
  160.8470  201.4460  145.9650 C   0  0  0  0  0  2  0  0  0  0  0  0
  159.6890  201.6800  147.9720 C   0  0  0  0  0  1  0  0  0  0  0  0
  161.4690  200.3120  147.8180 O   0  0  0  0  0  1  0  0  0  0  0  0
  161.0170  201.5180  147.4080 N   0  0  0  0  0  0  0  0  0  0  0  0
  161.0220  206.0340  144.7580 S   0  0  0  0  0  0  0  0  0  0  0  0
  161.6350  206.2180  142.1890 C   0  0  0  0  0  0  0  0  0  0  0  0
  161.9150  205.4290  143.2820 C   0  0  2  0  0  3  0  0  0  0  0  0
  161.7780  207.2700  141.5070 O   0  0  0  0  0  0  0  0  0  0  0  0
  161.0160  204.8720  142.4140 O   0  0  0  0  0  0  0  0  0  0  0  0
  159.3510  209.2240  155.3820 C   0  0  1  0  0  3  0  0  0  0  0  0
  160.8140  208.4520  157.2520 O   0  0  0  0  0  1  0  0  0  0  0  0
  159.3490  206.9870  156.2770 O   0  0  0  0  0  0  0  0  0  0  0  0
  159.8180  208.1540  156.3340 C   0  0  0  0  0  0  0  0  0  0  0  0
  159.0700  210.5400  156.0060 N   0  0  0  0  0  0  0  0  0  0  0  0
  157.6810  210.9880  155.8330 C   0  0  0  0  0  2  0  0  0  0  0  0
  157.2130  211.5780  157.0110 O   0  0  0  0  0  0  0  0  0  0  0  0
  155.9260  212.0250  156.7040 C   0  0  0  0  0  2  0  0  0  0  0  0
  155.7200  213.4230  157.2560 C   0  0  0  0  0  2  0  0  0  0  0  0
  154.7270  214.0790  156.5310 O   0  0  0  0  0  1  0  0  0  0  0  0
  159.9900  211.5210  155.4050 C   0  0  1  0  0  3  0  0  0  0  0  0
  159.3810  212.4900  154.4020 C   0  0  0  0  0  0  0  0  0  0  0  0
  159.7270  213.6640  154.4190 O   0  0  0  0  0  0  0  0  0  0  0  0
  158.3200  212.0490  153.4380 C   0  0  1  0  0  3  0  0  0  0  0  0
  157.0870  212.9370  153.5680 C   0  0  0  0  0  1  0  0  0  0  0  0
  158.8390  212.0670  152.0070 C   0  0  0  0  0  2  0  0  0  0  0  0
  159.9100  213.0450  151.8900 N   0  0  0  0  0  2  0  0  0  0  0  0
  159.9810  213.4650  150.4980 C   0  0  0  0  0  2  0  0  0  0  0  0
  161.4300  213.1670  148.4380 C   0  0  1  0  0  0  0  0  0  0  0  0
  161.3650  213.1670  149.9250 C   0  0  2  0  0  3  0  0  0  0  0  0
  162.8110  213.3430  147.8350 C   0  0  0  0  0  1  0  0  0  0  0  0
  161.3170  211.9730  149.1680 O   0  0  0  0  0  0  0  0  0  0  0  0
  160.2060  213.4380  147.6090 C   0  0  0  0  0  3  0  0  0  0  0  0
  160.1640  214.4520  146.7470 C   0  0  0  0  0  2  0  0  0  0  0  0
  161.1700  212.2280  156.6210 S   0  0  0  0  0  0  0  0  0  0  0  0
  163.2230  210.9190  155.4020 C   0  0  0  0  0  1  0  0  0  0  0  0
  162.3180  210.8210  156.6110 C   0  0  0  0  0  2  0  0  0  0  0  0
  1  4  1  0  0  0  0
  1  5  1  0  0  0  0
  2  6  1  0  0  0  0
  3  2  1  0  0  0  0
  4  3  1  6  0  0  0
  4  6  1  0  0  0  0
  4  5  1  0  0  0  0
  5  8  1  6  0  0  0
  6 34  1  1  0  0  0
  8  7  1  6  0  0  0
  9 20  1  6  0  0  0
  9 11  1  0  0  0  0
  9 16  1  0  0  0  0
 10 14  1  6  0  0  0
 10 13  1  0  0  0  0
 11 17  1  0  0  0  0
 12  8  1  0  0  0  0
 13 12  1  0  0  0  0
 15 12  2  0  0  0  0
 17 19  1  0  0  0  0
 17 18  1  1  0  0  0
 19 16  1  6  0  0  0
 19 10  1  0  0  0  0
 19 13  1  0  0  0  0
 20 21  1  6  0  0  0
 20 23  1  0  0  0  0
 21 22  1  0  0  0  0
 24 25  1  0  0  0  0
 24 23  1  0  0  0  0
 25 28  1  0  0  0  0
 28 27  1  0  0  0  0
 28 26  1  0  0  0  0
 29 20  1  0  0  0  0
 30 33  1  0  0  0  0
 30 31  1  0  0  0  0
 31 29  1  1  0  0  0
 32 30  2  0  0  0  0
 33 31  1  0  0  0  0
 34 38  1  0  0  0  0
 34 37  1  1  0  0  0
 36 37  2  0  0  0  0
 37 35  1  0  0  0  0
 39 38  1  0  0  0  0
 39 40  1  0  0  0  0
 41 40  1  0  0  0  0
 41 42  1  0  0  0  0
 43 42  1  0  0  0  0
 44 45  1  1  0  0  0
 44 38  1  0  0  0  0
 44 58  1  0  0  0  0
 45 46  2  0  0  0  0
 47 48  1  6  0  0  0
 47 45  1  0  0  0  0
 49 47  1  0  0  0  0
 50 49  1  0  0  0  0
 51 50  1  0  0  0  0
 52 54  1  6  0  0  0
 52 55  1  0  0  0  0
 52 53  1  0  0  0  0
 53 51  1  6  0  0  0
 55 53  1  0  0  0  0
 56 52  1  0  0  0  0
 57 56  2  0  0  0  0
 59 60  1  0  0  0  0
 60 58  1  0  0  0  0
M  END
>  <MODEL>
1

>  <REMARK>
 VINA RESULT:      -1.4      0.000      0.000
  Name = 
  27 active torsions:
  status: ('A' for Active; 'I' for Inactive)
    1  A    between atoms: C_1  and  C_18
    2  A    between atoms: C_1  and  N_19
    3  A    between atoms: C_1  and  C_55
    4  A    between atoms: C_2  and  O_41
    5  A    between atoms: C_2  and  C_50
    6  A    between atoms: C_4  and  C_20
    7  A    between atoms: C_6  and  C_20
    8  A    between atoms: C_7  and  C_12
    9  A    between atoms: C_7  and  C_16
   10  A    between atoms: C_8  and  C_17
   11  A    between atoms: S_10  and  C_20
   12  A    between atoms: S_10  and  C_23
   13  A    between atoms: C_12  and  N_19
   14  A    between atoms: C_12  and  S_24
   15  A    between atoms: C_14  and  C_26
   16  A    between atoms: C_14  and  N_57
   17  A    between atoms: C_16  and  C_52
   18  A    between atoms: N_19  and  C_21
   19  A    between atoms: C_20  and  O_29
   20  A    between atoms: C_21  and  O_41
   21  A    between atoms: S_24  and  C_54
   22  A    between atoms: O_29  and  C_39
   23  A    between atoms: C_30  and  C_46
   24  A    between atoms: C_39  and  C_40
   25  A    between atoms: C_40  and  N_48
   26  A    between atoms: C_46  and  C_47
   27  A    between atoms: C_52  and  N_57
                            x       y       z     vdW  Elec       q    Type
                         _______ _______ _______ _____ _____    ______ ____

>  <TORSDO>
F 27

$$$$
=
 OpenBabel11072411573D

 60 65  0  0  1  0  0  0  0  0999 V2000
  162.4370  207.2090  153.4400 C   0  0  0  0  0  2  0  0  0  0  0  0
  160.2060  209.1370  152.9280 O   0  0  0  0  0  0  0  0  0  0  0  0
  160.4640  207.8930  152.2850 C   0  0  0  0  0  2  0  0  0  0  0  0
  160.9190  207.3080  153.5750 C   0  0  1  0  0  0  0  0  0  0  0  0
  161.6840  206.0600  154.0260 C   0  0  1  0  0  3  0  0  0  0  0  0
  160.6580  208.6390  154.1840 C   0  0  2  0  0  3  0  0  0  0  0  0
  160.1700  204.5470  152.9630 O   0  0  0  0  0  1  0  0  0  0  0  0
  161.5070  204.9510  152.9910 C   0  0  1  0  0  3  0  0  0  0  0  0
  162.0700  205.6950  146.9640 C   0  0  1  0  0  3  0  0  0  0  0  0
  160.0170  204.5010  149.7540 C   0  0  2  0  0  3  0  0  0  0  0  0
  160.9540  206.7370  147.1470 C   0  0  0  0  0  2  0  0  0  0  0  0
  161.9390  205.4320  151.6370 C   0  0  0  0  0  0  0  0  0  0  0  0
  161.1710  205.1420  150.4700 N   0  0  0  0  0  0  0  0  0  0  0  0
  160.2590  203.0010  149.6660 C   0  0  0  0  0  1  0  0  0  0  0  0
  162.9810  206.1320  151.5300 O   0  0  0  0  0  0  0  0  0  0  0  0
  161.9970  204.7120  148.1360 C   0  0  0  0  0  2  0  0  0  0  0  0
  160.4740  206.6570  148.5870 C   0  0  2  0  0  3  0  0  0  0  0  0
  161.1380  207.6160  149.3310 F   0  0  0  0  0  0  0  0  0  0  0  0
  160.8970  205.2740  149.0110 C   0  0  1  0  0  0  0  0  0  0  0  0
  162.0290  205.0370  145.5550 C   0  0  1  0  0  0  0  0  0  0  0  0
  163.1770  204.0230  145.3820 C   0  0  0  0  0  2  0  0  0  0  0  0
  164.3550  204.5130  145.9480 O   0  0  0  0  0  1  0  0  0  0  0  0
  160.7680  204.4350  145.2830 O   0  0  0  0  0  0  0  0  0  0  0  0
  160.9160  203.0610  145.0070 C   0  0  0  0  0  2  0  0  0  0  0  0
  160.5110  202.2390  146.2190 C   0  0  0  0  0  2  0  0  0  0  0  0
  161.2200  200.4960  147.5910 C   0  0  0  0  0  1  0  0  0  0  0  0
  160.3850  200.0870  145.5420 O   0  0  0  0  0  1  0  0  0  0  0  0
  161.1820  200.9480  146.2130 N   0  0  0  0  0  0  0  0  0  0  0  0
  162.2170  206.3890  144.3180 S   0  0  0  0  0  0  0  0  0  0  0  0
  161.9360  206.2160  141.6910 C   0  0  0  0  0  0  0  0  0  0  0  0
  162.1120  205.3980  142.7860 C   0  0  2  0  0  3  0  0  0  0  0  0
  162.3670  207.0180  140.8180 O   0  0  0  0  0  0  0  0  0  0  0  0
  160.8260  205.4320  142.3210 O   0  0  0  0  0  0  0  0  0  0  0  0
  159.5310  208.5990  155.2340 C   0  0  1  0  0  3  0  0  0  0  0  0
  160.9990  207.4170  156.8700 O   0  0  0  0  0  1  0  0  0  0  0  0
  158.9350  206.5610  156.3700 O   0  0  0  0  0  0  0  0  0  0  0  0
  159.7870  207.4730  156.1990 C   0  0  0  0  0  0  0  0  0  0  0  0
  159.2870  209.9210  155.8620 N   0  0  0  0  0  0  0  0  0  0  0  0
  158.0900  210.6030  155.3490 C   0  0  0  0  0  2  0  0  0  0  0  0
  157.2930  211.0450  156.4100 O   0  0  0  0  0  0  0  0  0  0  0  0
  156.2960  211.8190  155.8130 C   0  0  0  0  0  2  0  0  0  0  0  0
  154.9400  211.4390  156.3790 C   0  0  0  0  0  2  0  0  0  0  0  0
  154.8890  210.0660  156.6120 O   0  0  0  0  0  1  0  0  0  0  0  0
  160.4780  210.7530  155.6220 C   0  0  1  0  0  3  0  0  0  0  0  0
  160.3440  211.8310  154.5550 C   0  0  0  0  0  0  0  0  0  0  0  0
  161.1480  211.8640  153.6340 O   0  0  0  0  0  0  0  0  0  0  0  0
  159.2850  212.8900  154.6480 C   0  0  1  0  0  3  0  0  0  0  0  0
  159.9170  214.2410  154.9690 C   0  0  0  0  0  1  0  0  0  0  0  0
  158.4810  212.9730  153.3590 C   0  0  0  0  0  2  0  0  0  0  0  0
  158.2720  214.3680  153.0040 N   0  0  0  0  0  2  0  0  0  0  0  0
  158.0570  214.4360  151.5650 C   0  0  0  0  0  2  0  0  0  0  0  0
  159.2480  214.1530  149.3440 C   0  0  1  0  0  0  0  0  0  0  0  0
  159.3800  214.2550  150.8230 C   0  0  2  0  0  3  0  0  0  0  0  0
  160.5060  214.4410  148.5460 C   0  0  0  0  0  1  0  0  0  0  0  0
  159.3800  213.0120  150.1500 O   0  0  0  0  0  0  0  0  0  0  0  0
  157.9020  214.2220  148.6790 C   0  0  0  0  0  3  0  0  0  0  0  0
  157.5610  213.3670  147.7170 C   0  0  0  0  0  2  0  0  0  0  0  0
  161.3360  211.2320  157.1730 S   0  0  0  0  0  0  0  0  0  0  0  0
  164.0330  211.5500  156.9740 C   0  0  0  0  0  1  0  0  0  0  0  0
  162.9480  210.5260  156.7230 C   0  0  0  0  0  2  0  0  0  0  0  0
  1  4  1  0  0  0  0
  1  5  1  0  0  0  0
  2  6  1  0  0  0  0
  3  2  1  0  0  0  0
  4  3  1  6  0  0  0
  4  5  1  0  0  0  0
  4  6  1  0  0  0  0
  5  8  1  6  0  0  0
  6 34  1  1  0  0  0
  8  7  1  6  0  0  0
  9 20  1  6  0  0  0
  9 11  1  0  0  0  0
  9 16  1  0  0  0  0
 10 14  1  6  0  0  0
 10 13  1  0  0  0  0
 11 17  1  0  0  0  0
 12  8  1  0  0  0  0
 13 12  1  0  0  0  0
 15 12  2  0  0  0  0
 17 19  1  0  0  0  0
 17 18  1  1  0  0  0
 19 16  1  6  0  0  0
 19 10  1  0  0  0  0
 19 13  1  0  0  0  0
 20 21  1  6  0  0  0
 21 22  1  0  0  0  0
 23 20  1  0  0  0  0
 24 23  1  0  0  0  0
 24 25  1  0  0  0  0
 27 28  1  0  0  0  0
 28 25  1  0  0  0  0
 28 26  1  0  0  0  0
 29 20  1  0  0  0  0
 30 33  1  0  0  0  0
 30 31  1  0  0  0  0
 31 29  1  1  0  0  0
 32 30  2  0  0  0  0
 33 31  1  0  0  0  0
 34 38  1  0  0  0  0
 34 37  1  1  0  0  0
 37 36  2  0  0  0  0
 37 35  1  0  0  0  0
 39 38  1  0  0  0  0
 39 40  1  0  0  0  0
 41 42  1  0  0  0  0
 41 40  1  0  0  0  0
 42 43  1  0  0  0  0
 44 45  1  1  0  0  0
 44 38  1  0  0  0  0
 44 58  1  0  0  0  0
 45 47  1  0  0  0  0
 46 45  2  0  0  0  0
 47 48  1  6  0  0  0
 49 47  1  0  0  0  0
 50 49  1  0  0  0  0
 51 50  1  0  0  0  0
 52 54  1  6  0  0  0
 52 55  1  0  0  0  0
 52 53  1  0  0  0  0
 53 51  1  1  0  0  0
 55 53  1  0  0  0  0
 56 52  1  0  0  0  0
 57 56  2  0  0  0  0
 60 59  1  0  0  0  0
 60 58  1  0  0  0  0
M  END
>  <MODEL>
2

>  <REMARK>
 VINA RESULT:      -1.0      1.311      1.527
  Name = 
  27 active torsions:
  status: ('A' for Active; 'I' for Inactive)
    1  A    between atoms: C_1  and  C_18
    2  A    between atoms: C_1  and  N_19
    3  A    between atoms: C_1  and  C_55
    4  A    between atoms: C_2  and  O_41
    5  A    between atoms: C_2  and  C_50
    6  A    between atoms: C_4  and  C_20
    7  A    between atoms: C_6  and  C_20
    8  A    between atoms: C_7  and  C_12
    9  A    between atoms: C_7  and  C_16
   10  A    between atoms: C_8  and  C_17
   11  A    between atoms: S_10  and  C_20
   12  A    between atoms: S_10  and  C_23
   13  A    between atoms: C_12  and  N_19
   14  A    between atoms: C_12  and  S_24
   15  A    between atoms: C_14  and  C_26
   16  A    between atoms: C_14  and  N_57
   17  A    between atoms: C_16  and  C_52
   18  A    between atoms: N_19  and  C_21
   19  A    between atoms: C_20  and  O_29
   20  A    between atoms: C_21  and  O_41
   21  A    between atoms: S_24  and  C_54
   22  A    between atoms: O_29  and  C_39
   23  A    between atoms: C_30  and  C_46
   24  A    between atoms: C_39  and  C_40
   25  A    between atoms: C_40  and  N_48
   26  A    between atoms: C_46  and  C_47
   27  A    between atoms: C_52  and  N_57
                            x       y       z     vdW  Elec       q    Type
                         _______ _______ _______ _____ _____    ______ ____

>  <TORSDO>
F 27

$$$$
=
 OpenBabel11072411573D

 60 65  0  0  1  0  0  0  0  0999 V2000
  161.3970  212.5690  151.0750 C   0  0  0  0  0  2  0  0  0  0  0  0
  159.2710  210.7970  152.2120 O   0  0  0  0  0  0  0  0  0  0  0  0
  159.1830  211.6820  151.1000 C   0  0  0  0  0  2  0  0  0  0  0  0
  160.5740  211.3380  150.7020 C   0  0  1  0  0  0  0  0  0  0  0  0
  161.6370  211.9080  149.7580 C   0  0  1  0  0  3  0  0  0  0  0  0
  160.6170  210.4520  151.8960 C   0  0  2  0  0  3  0  0  0  0  0  0
  160.8720  214.0360  148.9860 O   0  0  0  0  0  1  0  0  0  0  0  0
  160.9580  212.6870  148.6340 C   0  0  1  0  0  3  0  0  0  0  0  0
  162.5540  212.6510  142.7480 C   0  0  1  0  0  3  0  0  0  0  0  0
  160.3190  213.9640  145.3380 C   0  0  2  0  0  3  0  0  0  0  0  0
  163.0280  214.0860  143.0290 C   0  0  0  0  0  2  0  0  0  0  0  0
  161.7240  212.5260  147.3550 C   0  0  0  0  0  0  0  0  0  0  0  0
  161.2860  213.1460  146.1470 N   0  0  0  0  0  0  0  0  0  0  0  0
  159.0660  213.1410  145.0790 C   0  0  0  0  0  1  0  0  0  0  0  0
  162.7930  211.8580  147.3500 O   0  0  0  0  0  0  0  0  0  0  0  0
  161.4970  212.2860  143.7950 C   0  0  0  0  0  2  0  0  0  0  0  0
  162.5950  214.4500  144.4400 C   0  0  2  0  0  3  0  0  0  0  0  0
  163.6480  214.2080  145.3050 F   0  0  0  0  0  0  0  0  0  0  0  0
  161.4620  213.4930  144.7080 C   0  0  1  0  0  0  0  0  0  0  0  0
  162.1010  212.4650  141.2710 C   0  0  1  0  0  0  0  0  0  0  0  0
  162.9270  213.3550  140.3200 C   0  0  0  0  0  2  0  0  0  0  0  0
  163.6760  212.5720  139.4400 O   0  0  0  0  0  1  0  0  0  0  0  0
  162.1460  211.1010  140.8660 O   0  0  0  0  0  0  0  0  0  0  0  0
  160.8470  210.5760  140.7220 C   0  0  0  0  0  2  0  0  0  0  0  0
  160.9150  209.0980  140.3790 C   0  0  0  0  0  2  0  0  0  0  0  0
  161.4590  207.4790  138.7950 C   0  0  0  0  0  1  0  0  0  0  0  0
  160.7780  209.5300  138.1650 O   0  0  0  0  0  1  0  0  0  0  0  0
  161.5450  208.8990  139.0820 N   0  0  0  0  0  0  0  0  0  0  0  0
  160.3280  212.9560  141.1800 S   0  0  0  0  0  0  0  0  0  0  0  0
  159.0650  213.8560  139.0340 C   0  0  0  0  0  0  0  0  0  0  0  0
  160.3390  213.7880  139.5530 C   0  0  2  0  0  3  0  0  0  0  0  0
  157.9100  214.3600  138.9780 O   0  0  0  0  0  0  0  0  0  0  0  0
  160.0880  212.8620  138.5780 O   0  0  0  0  0  0  0  0  0  0  0  0
  160.7650  208.9650  151.5240 C   0  0  1  0  0  3  0  0  0  0  0  0
  163.2420  208.8160  151.7910 O   0  0  0  0  0  1  0  0  0  0  0  0
  162.3000  208.4900  149.7300 O   0  0  0  0  0  0  0  0  0  0  0  0
  162.1390  208.7250  150.9560 C   0  0  0  0  0  0  0  0  0  0  0  0
  160.3770  208.0570  152.6310 N   0  0  0  0  0  0  0  0  0  0  0  0
  161.0300  208.3750  153.9090 C   0  0  0  0  0  2  0  0  0  0  0  0
  160.0710  208.7000  154.8740 O   0  0  0  0  0  0  0  0  0  0  0  0
  160.8030  209.1790  155.9620 C   0  0  0  0  0  2  0  0  0  0  0  0
  159.8610  209.5720  157.0850 C   0  0  0  0  0  2  0  0  0  0  0  0
  159.6860  210.9550  157.0970 O   0  0  0  0  0  1  0  0  0  0  0  0
  160.7230  206.6850  152.2220 C   0  0  1  0  0  3  0  0  0  0  0  0
  160.7180  206.4060  150.7250 C   0  0  0  0  0  0  0  0  0  0  0  0
  159.8120  206.8550  150.0360 O   0  0  0  0  0  0  0  0  0  0  0  0
  161.7660  205.5390  150.0920 C   0  0  1  0  0  3  0  0  0  0  0  0
  161.6940  204.1250  150.6580 C   0  0  0  0  0  1  0  0  0  0  0  0
  161.6120  205.5130  148.5780 C   0  0  0  0  0  2  0  0  0  0  0  0
  160.3430  204.8960  148.2280 N   0  0  0  0  0  2  0  0  0  0  0  0
  160.6240  203.5800  147.6720 C   0  0  0  0  0  2  0  0  0  0  0  0
  161.9060  204.3050  145.6070 C   0  0  1  0  0  0  0  0  0  0  0  0
  161.9510  203.5970  146.9160 C   0  0  2  0  0  3  0  0  0  0  0  0
  163.2440  204.7540  145.0510 C   0  0  0  0  0  1  0  0  0  0  0  0
  161.8070  202.9070  145.6900 O   0  0  0  0  0  0  0  0  0  0  0  0
  160.6340  204.9310  145.1080 C   0  0  0  0  0  3  0  0  0  0  0  0
  160.5280  206.2490  144.9480 C   0  0  0  0  0  2  0  0  0  0  0  0
  162.1230  205.9880  153.1840 S   0  0  0  0  0  0  0  0  0  0  0  0
  160.6160  203.7270  153.0030 C   0  0  0  0  0  1  0  0  0  0  0  0
  161.1520  204.7040  154.0260 C   0  0  0  0  0  2  0  0  0  0  0  0
  3  2  1  0  0  0  0
  4  1  1  1  0  0  0
  4  3  1  0  0  0  0
  4  6  1  0  0  0  0
  5  8  1  6  0  0  0
  5  4  1  0  0  0  0
  5  1  1  0  0  0  0
  6 34  1  6  0  0  0
  6  2  1  0  0  0  0
  8  7  1  1  0  0  0
  9 20  1  6  0  0  0
  9 11  1  0  0  0  0
  9 16  1  0  0  0  0
 10 14  1  6  0  0  0
 10 13  1  0  0  0  0
 11 17  1  0  0  0  0
 12  8  1  0  0  0  0
 13 12  1  0  0  0  0
 15 12  2  0  0  0  0
 17 19  1  0  0  0  0
 17 18  1  1  0  0  0
 19 16  1  6  0  0  0
 19 10  1  0  0  0  0
 19 13  1  0  0  0  0
 20 21  1  6  0  0  0
 22 21  1  0  0  0  0
 23 20  1  0  0  0  0
 24 23  1  0  0  0  0
 25 24  1  0  0  0  0
 26 28  1  0  0  0  0
 27 28  1  0  0  0  0
 28 25  1  0  0  0  0
 29 20  1  0  0  0  0
 30 31  1  0  0  0  0
 31 29  1  1  0  0  0
 32 30  2  0  0  0  0
 33 30  1  0  0  0  0
 33 31  1  0  0  0  0
 34 37  1  1  0  0  0
 34 38  1  0  0  0  0
 36 37  2  0  0  0  0
 37 35  1  0  0  0  0
 38 39  1  0  0  0  0
 39 40  1  0  0  0  0
 40 41  1  0  0  0  0
 41 42  1  0  0  0  0
 42 43  1  0  0  0  0
 44 45  1  6  0  0  0
 44 38  1  0  0  0  0
 44 58  1  0  0  0  0
 46 45  2  0  0  0  0
 47 48  1  1  0  0  0
 47 45  1  0  0  0  0
 49 47  1  0  0  0  0
 50 49  1  0  0  0  0
 51 50  1  0  0  0  0
 52 54  1  6  0  0  0
 52 55  1  0  0  0  0
 52 53  1  0  0  0  0
 53 51  1  1  0  0  0
 55 53  1  0  0  0  0
 56 52  1  0  0  0  0
 57 56  2  0  0  0  0
 58 60  1  0  0  0  0
 59 60  1  0  0  0  0
M  END
>  <MODEL>
3

>  <REMARK>
 VINA RESULT:      -0.6      4.052      8.251
  Name = 
  27 active torsions:
  status: ('A' for Active; 'I' for Inactive)
    1  A    between atoms: C_1  and  C_18
    2  A    between atoms: C_1  and  N_19
    3  A    between atoms: C_1  and  C_55
    4  A    between atoms: C_2  and  O_41
    5  A    between atoms: C_2  and  C_50
    6  A    between atoms: C_4  and  C_20
    7  A    between atoms: C_6  and  C_20
    8  A    between atoms: C_7  and  C_12
    9  A    between atoms: C_7  and  C_16
   10  A    between atoms: C_8  and  C_17
   11  A    between atoms: S_10  and  C_20
   12  A    between atoms: S_10  and  C_23
   13  A    between atoms: C_12  and  N_19
   14  A    between atoms: C_12  and  S_24
   15  A    between atoms: C_14  and  C_26
   16  A    between atoms: C_14  and  N_57
   17  A    between atoms: C_16  and  C_52
   18  A    between atoms: N_19  and  C_21
   19  A    between atoms: C_20  and  O_29
   20  A    between atoms: C_21  and  O_41
   21  A    between atoms: S_24  and  C_54
   22  A    between atoms: O_29  and  C_39
   23  A    between atoms: C_30  and  C_46
   24  A    between atoms: C_39  and  C_40
   25  A    between atoms: C_40  and  N_48
   26  A    between atoms: C_46  and  C_47
   27  A    between atoms: C_52  and  N_57
                            x       y       z     vdW  Elec       q    Type
                         _______ _______ _______ _____ _____    ______ ____

>  <TORSDO>
F 27

$$$$
=
 OpenBabel11072411573D

 60 65  0  0  1  0  0  0  0  0999 V2000
  161.3910  212.5980  151.0800 C   0  0  0  0  0  2  0  0  0  0  0  0
  159.3590  210.9130  152.4890 O   0  0  0  0  0  0  0  0  0  0  0  0
  159.1680  211.7850  151.3800 C   0  0  0  0  0  2  0  0  0  0  0  0
  160.4920  211.3900  150.8270 C   0  0  1  0  0  0  0  0  0  0  0  0
  161.4540  211.9110  149.7550 C   0  0  1  0  0  3  0  0  0  0  0  0
  160.6460  210.5190  152.0230 C   0  0  2  0  0  3  0  0  0  0  0  0
  160.6240  214.0450  149.0720 O   0  0  0  0  0  1  0  0  0  0  0  0
  160.6720  212.6980  148.7060 C   0  0  1  0  0  3  0  0  0  0  0  0
  161.6620  212.5950  142.6890 C   0  0  1  0  0  3  0  0  0  0  0  0
  159.6420  213.8650  145.4690 C   0  0  2  0  0  3  0  0  0  0  0  0
  162.0930  214.0570  142.8930 C   0  0  0  0  0  2  0  0  0  0  0  0
  161.3110  212.5420  147.3580 C   0  0  0  0  0  0  0  0  0  0  0  0
  160.7230  213.1120  146.1900 N   0  0  0  0  0  0  0  0  0  0  0  0
  158.4100  212.9790  145.3560 C   0  0  0  0  0  1  0  0  0  0  0  0
  162.4050  211.9240  147.2570 O   0  0  0  0  0  0  0  0  0  0  0  0
  160.7360  212.2070  143.8450 C   0  0  0  0  0  2  0  0  0  0  0  0
  161.7880  214.4340  144.3340 C   0  0  2  0  0  3  0  0  0  0  0  0
  162.9340  214.2610  145.0910 F   0  0  0  0  0  0  0  0  0  0  0  0
  160.7360  213.4320  144.7340 C   0  0  1  0  0  0  0  0  0  0  0  0
  161.0720  212.3530  141.2700 C   0  0  1  0  0  0  0  0  0  0  0  0
  161.0080  210.8470  140.9440 C   0  0  0  0  0  2  0  0  0  0  0  0
  162.2930  210.3160  140.8210 O   0  0  0  0  0  1  0  0  0  0  0  0
  159.7990  212.9670  141.1090 O   0  0  0  0  0  0  0  0  0  0  0  0
  159.0200  212.2690  140.1650 C   0  0  0  0  0  2  0  0  0  0  0  0
  157.5540  212.6350  140.3230 C   0  0  0  0  0  2  0  0  0  0  0  0
  156.2770  214.4330  139.5740 C   0  0  0  0  0  1  0  0  0  0  0  0
  157.0080  214.3410  141.7010 O   0  0  0  0  0  1  0  0  0  0  0  0
  157.3920  214.0770  140.4320 N   0  0  0  0  0  0  0  0  0  0  0  0
  162.1890  213.1910  140.0670 S   0  0  0  0  0  0  0  0  0  0  0  0
  162.5930  212.4780  137.5490 C   0  0  0  0  0  0  0  0  0  0  0  0
  161.6350  212.3670  138.5330 C   0  0  2  0  0  3  0  0  0  0  0  0
  163.6830  212.1420  137.0120 O   0  0  0  0  0  0  0  0  0  0  0  0
  161.3540  213.3190  137.5920 O   0  0  0  0  0  0  0  0  0  0  0  0
  160.7020  209.0230  151.6620 C   0  0  1  0  0  3  0  0  0  0  0  0
  163.1590  208.6470  151.4280 O   0  0  0  0  0  1  0  0  0  0  0  0
  161.8320  208.6790  149.5630 O   0  0  0  0  0  0  0  0  0  0  0  0
  161.9190  208.7570  150.8160 C   0  0  0  0  0  0  0  0  0  0  0  0
  160.5570  208.1420  152.8470 N   0  0  0  0  0  0  0  0  0  0  0  0
  161.2920  208.6190  154.0270 C   0  0  0  0  0  2  0  0  0  0  0  0
  160.4260  209.2880  154.8980 O   0  0  0  0  0  0  0  0  0  0  0  0
  160.0880  208.3420  155.8670 C   0  0  0  0  0  2  0  0  0  0  0  0
  160.9180  208.5630  157.1170 C   0  0  0  0  0  2  0  0  0  0  0  0
  161.3390  209.8900  157.1810 O   0  0  0  0  0  1  0  0  0  0  0  0
  161.0390  206.8030  152.4660 C   0  0  1  0  0  3  0  0  0  0  0  0
  160.6690  206.3250  151.0690 C   0  0  0  0  0  0  0  0  0  0  0  0
  159.7150  206.8340  150.4960 O   0  0  0  0  0  0  0  0  0  0  0  0
  161.4110  205.2000  150.4100 C   0  0  1  0  0  3  0  0  0  0  0  0
  161.3180  203.9370  151.2600 C   0  0  0  0  0  1  0  0  0  0  0  0
  160.8740  204.9380  149.0100 C   0  0  0  0  0  2  0  0  0  0  0  0
  161.3050  203.6230  148.5610 N   0  0  0  0  0  2  0  0  0  0  0  0
  162.2650  203.8120  147.4820 C   0  0  0  0  0  2  0  0  0  0  0  0
  161.1160  204.6280  145.3730 C   0  0  1  0  0  0  0  0  0  0  0  0
  161.8560  204.9980  146.6110 C   0  0  2  0  0  3  0  0  0  0  0  0
  160.2990  205.7350  144.7350 C   0  0  0  0  0  1  0  0  0  0  0  0
  162.4930  204.9040  145.3520 O   0  0  0  0  0  0  0  0  0  0  0  0
  160.8240  203.1910  145.0460 C   0  0  0  0  0  3  0  0  0  0  0  0
  159.6040  202.6780  145.2060 C   0  0  0  0  0  2  0  0  0  0  0  0
  162.7620  206.4850  153.0150 S   0  0  0  0  0  0  0  0  0  0  0  0
  160.8150  205.5780  154.6890 C   0  0  0  0  0  1  0  0  0  0  0  0
  162.3170  205.7400  154.6100 C   0  0  0  0  0  2  0  0  0  0  0  0
  3  2  1  0  0  0  0
  4  1  1  1  0  0  0
  4  3  1  0  0  0  0
  4  6  1  0  0  0  0
  5  8  1  6  0  0  0
  5  4  1  0  0  0  0
  5  1  1  0  0  0  0
  6 34  1  6  0  0  0
  6  2  1  0  0  0  0
  8  7  1  1  0  0  0
  9 20  1  6  0  0  0
  9 11  1  0  0  0  0
  9 16  1  0  0  0  0
 10 14  1  6  0  0  0
 10 13  1  0  0  0  0
 11 17  1  0  0  0  0
 12  8  1  0  0  0  0
 13 12  1  0  0  0  0
 15 12  2  0  0  0  0
 17 19  1  0  0  0  0
 17 18  1  1  0  0  0
 19 16  1  6  0  0  0
 19 10  1  0  0  0  0
 19 13  1  0  0  0  0
 20 21  1  6  0  0  0
 22 21  1  0  0  0  0
 23 20  1  0  0  0  0
 24 25  1  0  0  0  0
 24 23  1  0  0  0  0
 25 28  1  0  0  0  0
 26 28  1  0  0  0  0
 28 27  1  0  0  0  0
 29 20  1  0  0  0  0
 30 33  1  0  0  0  0
 30 31  1  0  0  0  0
 31 29  1  1  0  0  0
 32 30  2  0  0  0  0
 33 31  1  0  0  0  0
 34 37  1  1  0  0  0
 34 38  1  0  0  0  0
 36 37  2  0  0  0  0
 37 35  1  0  0  0  0
 38 39  1  0  0  0  0
 39 40  1  0  0  0  0
 40 41  1  0  0  0  0
 41 42  1  0  0  0  0
 42 43  1  0  0  0  0
 44 45  1  6  0  0  0
 44 38  1  0  0  0  0
 44 58  1  0  0  0  0
 46 45  2  0  0  0  0
 47 45  1  0  0  0  0
 47 48  1  1  0  0  0
 49 47  1  0  0  0  0
 50 49  1  0  0  0  0
 51 50  1  0  0  0  0
 52 54  1  6  0  0  0
 52 53  1  0  0  0  0
 53 51  1  1  0  0  0
 55 52  1  0  0  0  0
 55 53  1  0  0  0  0
 56 57  2  0  0  0  0
 56 52  1  0  0  0  0
 58 60  1  0  0  0  0
 60 59  1  0  0  0  0
M  END
>  <MODEL>
4

>  <REMARK>
 VINA RESULT:      -0.4      4.300      8.610
  Name = 
  27 active torsions:
  status: ('A' for Active; 'I' for Inactive)
    1  A    between atoms: C_1  and  C_18
    2  A    between atoms: C_1  and  N_19
    3  A    between atoms: C_1  and  C_55
    4  A    between atoms: C_2  and  O_41
    5  A    between atoms: C_2  and  C_50
    6  A    between atoms: C_4  and  C_20
    7  A    between atoms: C_6  and  C_20
    8  A    between atoms: C_7  and  C_12
    9  A    between atoms: C_7  and  C_16
   10  A    between atoms: C_8  and  C_17
   11  A    between atoms: S_10  and  C_20
   12  A    between atoms: S_10  and  C_23
   13  A    between atoms: C_12  and  N_19
   14  A    between atoms: C_12  and  S_24
   15  A    between atoms: C_14  and  C_26
   16  A    between atoms: C_14  and  N_57
   17  A    between atoms: C_16  and  C_52
   18  A    between atoms: N_19  and  C_21
   19  A    between atoms: C_20  and  O_29
   20  A    between atoms: C_21  and  O_41
   21  A    between atoms: S_24  and  C_54
   22  A    between atoms: O_29  and  C_39
   23  A    between atoms: C_30  and  C_46
   24  A    between atoms: C_39  and  C_40
   25  A    between atoms: C_40  and  N_48
   26  A    between atoms: C_46  and  C_47
   27  A    between atoms: C_52  and  N_57
                            x       y       z     vdW  Elec       q    Type
                         _______ _______ _______ _____ _____    ______ ____

>  <TORSDO>
F 27

$$$$
=
 OpenBabel11072411573D

 60 65  0  0  1  0  0  0  0  0999 V2000
  162.6160  204.8350  151.0310 C   0  0  0  0  0  2  0  0  0  0  0  0
  162.2130  201.8720  150.9190 O   0  0  0  0  0  0  0  0  0  0  0  0
  161.8760  202.7710  151.9710 C   0  0  0  0  0  2  0  0  0  0  0  0
  161.4880  203.8070  150.9770 C   0  0  1  0  0  0  0  0  0  0  0  0
  161.2010  205.3120  150.9870 C   0  0  1  0  0  3  0  0  0  0  0  0
  161.8840  202.8360  149.9230 C   0  0  2  0  0  3  0  0  0  0  0  0
  161.6520  205.2910  153.3340 O   0  0  0  0  0  1  0  0  0  0  0  0
  160.7330  205.7320  152.3790 C   0  0  1  0  0  3  0  0  0  0  0  0
  159.9790  211.4410  154.3880 C   0  0  1  0  0  3  0  0  0  0  0  0
  160.9370  207.9910  155.1640 C   0  0  2  0  0  3  0  0  0  0  0  0
  161.5130  211.4400  154.4930 C   0  0  0  0  0  2  0  0  0  0  0  0
  160.5810  207.2230  152.4460 C   0  0  0  0  0  0  0  0  0  0  0  0
  160.7200  207.9260  153.6790 N   0  0  0  0  0  0  0  0  0  0  0  0
  159.6830  207.4980  155.8720 C   0  0  0  0  0  1  0  0  0  0  0  0
  160.3590  207.8730  151.3890 O   0  0  0  0  0  0  0  0  0  0  0  0
  159.4990  209.9880  154.4380 C   0  0  0  0  0  2  0  0  0  0  0  0
  161.9980  210.0300  154.1970 C   0  0  2  0  0  3  0  0  0  0  0  0
  162.3470  209.9510  152.8600 F   0  0  0  0  0  0  0  0  0  0  0  0
  160.7810  209.1850  154.4750 C   0  0  1  0  0  0  0  0  0  0  0  0
  159.3220  212.3820  155.4380 C   0  0  1  0  0  0  0  0  0  0  0  0
  160.3810  212.9790  156.3880 C   0  0  0  0  0  2  0  0  0  0  0  0
  160.8910  211.9960  157.2360 O   0  0  0  0  0  1  0  0  0  0  0  0
  158.5450  213.4060  154.8280 O   0  0  0  0  0  0  0  0  0  0  0  0
  158.8750  213.5430  153.4650 C   0  0  0  0  0  2  0  0  0  0  0  0
  157.8690  214.4450  152.7710 C   0  0  0  0  0  2  0  0  0  0  0  0
  158.3680  212.8470  151.1520 C   0  0  0  0  0  1  0  0  0  0  0  0
  156.5530  214.1640  150.9560 O   0  0  0  0  0  1  0  0  0  0  0  0
  157.8490  214.1890  151.3390 N   0  0  0  0  0  0  0  0  0  0  0  0
  158.1350  211.3640  156.4120 S   0  0  0  0  0  0  0  0  0  0  0  0
  155.5770  211.0290  155.8160 C   0  0  0  0  0  0  0  0  0  0  0  0
  156.5700  211.9760  155.6940 C   0  0  2  0  0  3  0  0  0  0  0  0
  154.7080  210.4040  156.4840 O   0  0  0  0  0  0  0  0  0  0  0  0
  156.3120  211.2930  154.5380 O   0  0  0  0  0  0  0  0  0  0  0  0
  160.6940  202.3900  149.0520 C   0  0  1  0  0  3  0  0  0  0  0  0
  158.6650  201.2300  149.9300 O   0  0  0  0  0  0  0  0  0  0  0  0
  159.0640  203.4110  150.5020 O   0  0  0  0  0  1  0  0  0  0  0  0
  159.4400  202.3800  149.8850 C   0  0  0  0  0  0  0  0  0  0  0  0
  160.5980  203.1500  147.7810 N   0  0  0  0  0  0  0  0  0  0  0  0
  161.3030  202.5130  146.6610 C   0  0  0  0  0  2  0  0  0  0  0  0
  160.5550  201.4400  146.1650 O   0  0  0  0  0  0  0  0  0  0  0  0
  161.2340  200.2980  146.5940 C   0  0  0  0  0  2  0  0  0  0  0  0
  161.4870  199.3750  145.4170 C   0  0  0  0  0  2  0  0  0  0  0  0
  160.8330  198.1600  145.6150 O   0  0  0  0  0  1  0  0  0  0  0  0
  161.1550  204.4910  148.0250 C   0  0  1  0  0  3  0  0  0  0  0  0
  162.5130  204.7810  147.4010 C   0  0  0  0  0  0  0  0  0  0  0  0
  163.3060  203.8630  147.2410 O   0  0  0  0  0  0  0  0  0  0  0  0
  162.9210  206.1790  147.0380 C   0  0  1  0  0  3  0  0  0  0  0  0
  163.0420  206.3160  145.5230 C   0  0  0  0  0  1  0  0  0  0  0  0
  161.9300  207.1970  147.5850 C   0  0  0  0  0  2  0  0  0  0  0  0
  162.6530  208.2750  148.2410 N   0  0  0  0  0  2  0  0  0  0  0  0
  161.6980  209.3310  148.5470 C   0  0  0  0  0  2  0  0  0  0  0  0
  161.8450  211.8400  148.2010 C   0  0  1  0  0  0  0  0  0  0  0  0
  162.4320  210.6360  148.8520 C   0  0  2  0  0  3  0  0  0  0  0  0
  162.2200  213.1740  148.8170 C   0  0  0  0  0  1  0  0  0  0  0  0
  162.9560  211.1760  147.6550 O   0  0  0  0  0  0  0  0  0  0  0  0
  160.6330  211.7300  147.3190 C   0  0  0  0  0  3  0  0  0  0  0  0
  160.4890  212.5010  146.2420 C   0  0  0  0  0  2  0  0  0  0  0  0
  159.8930  205.8190  147.9000 S   0  0  0  0  0  0  0  0  0  0  0  0
  159.0500  205.5270  145.3270 C   0  0  0  0  0  1  0  0  0  0  0  0
  160.1570  206.1660  146.1370 C   0  0  0  0  0  2  0  0  0  0  0  0
  2  3  1  0  0  0  0
  4  5  1  0  0  0  0
  4  1  1  1  0  0  0
  4  3  1  0  0  0  0
  5  1  1  0  0  0  0
  5  8  1  1  0  0  0
  6 34  1  6  0  0  0
  6  2  1  0  0  0  0
  6  4  1  0  0  0  0
  8 12  1  0  0  0  0
  8  7  1  1  0  0  0
  9 16  1  0  0  0  0
  9 11  1  0  0  0  0
  9 20  1  1  0  0  0
 10 14  1  1  0  0  0
 12 13  1  0  0  0  0
 13 19  1  0  0  0  0
 13 10  1  0  0  0  0
 15 12  2  0  0  0  0
 17 18  1  6  0  0  0
 17 19  1  0  0  0  0
 17 11  1  0  0  0  0
 19 16  1  1  0  0  0
 19 10  1  0  0  0  0
 20 21  1  1  0  0  0
 20 29  1  0  0  0  0
 21 22  1  0  0  0  0
 23 20  1  0  0  0  0
 24 23  1  0  0  0  0
 25 24  1  0  0  0  0
 26 28  1  0  0  0  0
 27 28  1  0  0  0  0
 28 25  1  0  0  0  0
 30 32  2  0  0  0  0
 31 30  1  0  0  0  0
 31 29  1  1  0  0  0
 33 31  1  0  0  0  0
 33 30  1  0  0  0  0
 34 37  1  1  0  0  0
 37 35  2  0  0  0  0
 37 36  1  0  0  0  0
 38 44  1  0  0  0  0
 38 34  1  0  0  0  0
 39 38  1  0  0  0  0
 40 41  1  0  0  0  0
 40 39  1  0  0  0  0
 42 43  1  0  0  0  0
 42 41  1  0  0  0  0
 44 45  1  6  0  0  0
 46 45  2  0  0  0  0
 47 48  1  6  0  0  0
 47 45  1  0  0  0  0
 47 49  1  0  0  0  0
 49 50  1  0  0  0  0
 50 51  1  0  0  0  0
 52 54  1  1  0  0  0
 52 53  1  0  0  0  0
 53 51  1  6  0  0  0
 55 52  1  0  0  0  0
 55 53  1  0  0  0  0
 56 52  1  0  0  0  0
 57 56  2  0  0  0  0
 58 44  1  0  0  0  0
 59 60  1  0  0  0  0
 60 58  1  0  0  0  0
M  END
>  <MODEL>
5

>  <REMARK>
 VINA RESULT:       1.1      2.367     10.429
  Name = 
  27 active torsions:
  status: ('A' for Active; 'I' for Inactive)
    1  A    between atoms: C_1  and  C_18
    2  A    between atoms: C_1  and  N_19
    3  A    between atoms: C_1  and  C_55
    4  A    between atoms: C_2  and  O_41
    5  A    between atoms: C_2  and  C_50
    6  A    between atoms: C_4  and  C_20
    7  A    between atoms: C_6  and  C_20
    8  A    between atoms: C_7  and  C_12
    9  A    between atoms: C_7  and  C_16
   10  A    between atoms: C_8  and  C_17
   11  A    between atoms: S_10  and  C_20
   12  A    between atoms: S_10  and  C_23
   13  A    between atoms: C_12  and  N_19
   14  A    between atoms: C_12  and  S_24
   15  A    between atoms: C_14  and  C_26
   16  A    between atoms: C_14  and  N_57
   17  A    between atoms: C_16  and  C_52
   18  A    between atoms: N_19  and  C_21
   19  A    between atoms: C_20  and  O_29
   20  A    between atoms: C_21  and  O_41
   21  A    between atoms: S_24  and  C_54
   22  A    between atoms: O_29  and  C_39
   23  A    between atoms: C_30  and  C_46
   24  A    between atoms: C_39  and  C_40
   25  A    between atoms: C_40  and  N_48
   26  A    between atoms: C_46  and  C_47
   27  A    between atoms: C_52  and  N_57
                            x       y       z     vdW  Elec       q    Type
                         _______ _______ _______ _____ _____    ______ ____

>  <TORSDO>
F 27

$$$$
