=
 OpenBabel11072410153D

 37 41  0  0  1  0  0  0  0  0999 V2000
  161.3190  208.0390  153.3100 N   0  0  0  0  0  0  0  0  0  0  0  0
  161.6930  206.7280  151.3630 C   0  0  0  0  0  3  0  0  0  0  0  0
  161.8810  209.1330  151.2560 C   0  0  0  0  0  0  0  0  0  0  0  0
  162.1350  210.3790  150.4710 C   0  0  0  0  0  1  0  0  0  0  0  0
  161.3860  206.8140  152.7240 C   0  0  0  0  0  0  0  0  0  0  0  0
  161.9440  207.8850  150.6220 C   0  0  0  0  0  0  0  0  0  0  0  0
  161.5570  209.1910  152.6240 C   0  0  0  0  0  0  0  0  0  0  0  0
  159.1530  210.6510  152.4570 O   0  0  0  0  0  0  0  0  0  0  0  0
  159.4820  211.5050  154.7010 C   0  0  0  0  0  2  0  0  0  0  0  0
  160.3580  209.2320  155.7010 O   0  0  0  0  0  1  0  0  0  0  0  0
  161.6250  211.4310  155.7940 C   0  0  2  0  0  3  0  0  0  0  0  0
  161.4510  210.5160  153.3290 C   0  0  2  0  0  3  0  0  0  0  0  0
  162.2350  210.5620  154.6590 C   0  0  2  0  0  3  0  0  0  0  0  0
  161.5730  209.9020  155.8720 C   0  0  0  0  0  0  0  0  0  0  0  0
  160.4500  212.1830  155.4640 O   0  0  0  0  0  0  0  0  0  0  0  0
  160.0590  211.1340  153.3600 C   0  0  1  0  0  0  0  0  0  0  0  0
  159.9350  213.1110  151.7460 O   0  0  0  0  0  0  0  0  0  0  0  0
  162.4650  209.3300  156.7760 O   0  0  0  0  0  1  0  0  0  0  0  0
  159.7830  212.0100  152.3390 C   0  0  0  0  0  0  0  0  0  0  0  0
  160.9500  205.7330  154.7740 O   0  0  0  0  0  0  0  0  0  0  0  0
  161.0910  205.6050  153.5310 C   0  0  0  0  0  0  0  0  0  0  0  0
  160.9570  204.2940  152.9640 N   0  0  0  0  0  2  0  0  0  0  0  0
  160.5640  204.0900  149.2070 C   0  0  0  0  0  2  0  0  0  0  0  0
  160.2160  204.4670  150.6460 C   0  0  0  0  0  2  0  0  0  0  0  0
  161.2810  203.9270  151.5930 C   0  0  2  0  0  3  0  0  0  0  0  0
  160.6780  202.5720  149.0650 C   0  0  2  0  0  3  0  0  0  0  0  0
  161.7330  202.0330  150.0300 C   0  0  0  0  0  2  0  0  0  0  0  0
  161.3690  202.4070  151.4630 C   0  0  0  0  0  2  0  0  0  0  0  0
  161.2040  200.8670  147.7630 C   0  0  0  0  0  1  0  0  0  0  0  0
  161.0370  202.2510  147.7560 O   0  0  0  0  0  0  0  0  0  0  0  0
  162.2610  207.8100  149.2600 O   0  0  0  0  0  0  0  0  0  0  0  0
  161.2840  207.6420  148.2400 C   0  0  0  0  0  2  0  0  0  0  0  0
  161.8800  206.8950  147.0590 C   0  0  1  0  0  3  0  0  0  0  0  0
  162.7580  205.8530  147.5580 N   0  0  0  0  0  1  0  0  0  0  0  0
  160.7800  206.2590  146.2270 C   0  0  0  0  0  2  0  0  0  0  0  0
  160.9290  204.3000  144.8270 N   0  0  0  0  0  2  0  0  0  0  0  0
  161.3540  205.4800  145.0890 C   0  0  0  0  0  3  0  0  0  0  0  0
  2  5  2  0  0  0  0
  3  7  1  0  0  0  0
  4  3  1  0  0  0  0
  5  1  1  0  0  0  0
  5 21  1  0  0  0  0
  6  3  2  0  0  0  0
  6  2  1  0  0  0  0
  7  1  2  0  0  0  0
  8 16  1  0  0  0  0
  9 15  1  0  0  0  0
 10 14  1  0  0  0  0
 11 15  1  6  0  0  0
 11 14  1  0  0  0  0
 12  7  1  1  0  0  0
 12 16  1  0  0  0  0
 12 13  1  0  0  0  0
 13 11  1  0  0  0  0
 13 14  1  1  0  0  0
 14 18  1  0  0  0  0
 16  9  1  1  0  0  0
 17 19  2  0  0  0  0
 19  8  1  0  0  0  0
 19 16  1  0  0  0  0
 21 20  2  0  0  0  0
 22 21  1  0  0  0  0
 23 24  1  0  0  0  0
 24 25  1  0  0  0  0
 25 22  1  1  0  0  0
 26 30  1  6  0  0  0
 26 23  1  0  0  0  0
 26 27  1  0  0  0  0
 27 28  1  0  0  0  0
 28 25  1  0  0  0  0
 30 29  1  0  0  0  0
 31  6  1  0  0  0  0
 32 31  1  0  0  0  0
 33 34  1  1  0  0  0
 33 32  1  0  0  0  0
 35 33  1  0  0  0  0
 36 37  2  0  0  0  0
 37 35  1  0  0  0  0
M  END
>  <MODEL>
1

>  <REMARK>
 VINA RESULT:      -7.5      0.000      0.000
  Name = 
  9 active torsions:
  status: ('A' for Active; 'I' for Inactive)
    1  A    between atoms: O_1  and  C_16
    2  A    between atoms: O_1  and  C_25
    3  A    between atoms: C_4  and  C_16
    4  A    between atoms: C_4  and  C_37
    5  A    between atoms: C_12  and  C_34
    6  A    between atoms: C_17  and  C_18
    7  A    between atoms: O_27  and  C_30
    8  A    between atoms: C_29  and  N_31
    9  A    between atoms: C_36  and  C_37
                            x       y       z     vdW  Elec       q    Type
                         _______ _______ _______ _____ _____    ______ ____

>  <TORSDO>
F 9

$$$$
=
 OpenBabel11072410153D

 37 41  0  0  1  0  0  0  0  0999 V2000
  160.9870  209.3390  151.7600 N   0  0  0  0  0  0  0  0  0  0  0  0
  161.8630  207.2430  151.0600 C   0  0  0  0  0  3  0  0  0  0  0  0
  160.8940  207.4740  153.2600 C   0  0  0  0  0  0  0  0  0  0  0  0
  160.5330  206.8850  154.5850 C   0  0  0  0  0  1  0  0  0  0  0  0
  161.5830  208.5860  150.7960 C   0  0  0  0  0  0  0  0  0  0  0  0
  161.5200  206.6780  152.2910 C   0  0  0  0  0  0  0  0  0  0  0  0
  160.6350  208.8270  152.9720 C   0  0  0  0  0  0  0  0  0  0  0  0
  162.2260  209.9480  155.0100 O   0  0  0  0  0  0  0  0  0  0  0  0
  160.8500  211.9420  155.0270 C   0  0  0  0  0  2  0  0  0  0  0  0
  160.5890  212.0810  152.4100 O   0  0  0  0  0  1  0  0  0  0  0  0
  158.6510  211.9860  154.0500 C   0  0  2  0  0  3  0  0  0  0  0  0
  159.9920  209.7180  154.0010 C   0  0  2  0  0  3  0  0  0  0  0  0
  158.8390  210.5720  153.4300 C   0  0  2  0  0  3  0  0  0  0  0  0
  159.2350  211.8240  152.6420 C   0  0  0  0  0  0  0  0  0  0  0  0
  159.5000  212.3180  155.1550 O   0  0  0  0  0  0  0  0  0  0  0  0
  160.9540  210.4430  154.9340 C   0  0  1  0  0  0  0  0  0  0  0  0
  160.8870  209.3880  157.2610 O   0  0  0  0  0  0  0  0  0  0  0  0
  158.3640  212.1530  151.6050 O   0  0  0  0  0  1  0  0  0  0  0  0
  161.2210  209.7980  156.1180 C   0  0  0  0  0  0  0  0  0  0  0  0
  161.9490  210.4750  149.4320 O   0  0  0  0  0  0  0  0  0  0  0  0
  161.9570  209.2190  149.5090 C   0  0  0  0  0  0  0  0  0  0  0  0
  162.3310  208.4700  148.3430 N   0  0  0  0  0  2  0  0  0  0  0  0
  162.7580  205.0710  146.7400 C   0  0  0  0  0  2  0  0  0  0  0  0
  162.8820  206.5850  146.8950 C   0  0  0  0  0  2  0  0  0  0  0  0
  162.2050  207.0280  148.1870 C   0  0  2  0  0  3  0  0  0  0  0  0
  161.2880  204.6520  146.7380 C   0  0  2  0  0  3  0  0  0  0  0  0
  160.6090  205.1150  148.0270 C   0  0  0  0  0  2  0  0  0  0  0  0
  160.7300  206.6290  148.1650 C   0  0  0  0  0  2  0  0  0  0  0  0
  160.8670  203.0250  145.3040 C   0  0  0  0  0  1  0  0  0  0  0  0
  161.1970  203.2640  146.6370 O   0  0  0  0  0  0  0  0  0  0  0  0
  161.7880  205.3310  152.5630 O   0  0  0  0  0  0  0  0  0  0  0  0
  162.2540  204.4150  151.5800 C   0  0  0  0  0  2  0  0  0  0  0  0
  161.4720  203.1150  151.6590 C   0  0  1  0  0  3  0  0  0  0  0  0
  160.4380  203.2500  152.6680 N   0  0  0  0  0  1  0  0  0  0  0  0
  160.8210  202.8080  150.3210 C   0  0  0  0  0  2  0  0  0  0  0  0
  161.1160  200.8980  148.8790 N   0  0  0  0  0  2  0  0  0  0  0  0
  160.8320  201.3400  150.0470 C   0  0  0  0  0  3  0  0  0  0  0  0
  1  7  1  0  0  0  0
  2  6  2  0  0  0  0
  3  4  1  0  0  0  0
  5  2  1  0  0  0  0
  5  1  2  0  0  0  0
  6 31  1  0  0  0  0
  6  3  1  0  0  0  0
  7  3  2  0  0  0  0
  8 19  1  0  0  0  0
  9 15  1  0  0  0  0
 10 14  1  0  0  0  0
 11 15  1  1  0  0  0
 12  7  1  6  0  0  0
 12 16  1  0  0  0  0
 13 14  1  6  0  0  0
 13 12  1  0  0  0  0
 13 11  1  0  0  0  0
 14 11  1  0  0  0  0
 16  8  1  0  0  0  0
 16  9  1  1  0  0  0
 16 19  1  0  0  0  0
 18 14  1  0  0  0  0
 19 17  2  0  0  0  0
 20 21  2  0  0  0  0
 21  5  1  0  0  0  0
 22 21  1  0  0  0  0
 23 24  1  0  0  0  0
 24 25  1  0  0  0  0
 25 22  1  6  0  0  0
 26 30  1  1  0  0  0
 26 23  1  0  0  0  0
 26 27  1  0  0  0  0
 27 28  1  0  0  0  0
 28 25  1  0  0  0  0
 29 30  1  0  0  0  0
 32 33  1  0  0  0  0
 32 31  1  0  0  0  0
 33 34  1  1  0  0  0
 35 33  1  0  0  0  0
 36 37  2  0  0  0  0
 37 35  1  0  0  0  0
M  END
>  <MODEL>
2

>  <REMARK>
 VINA RESULT:      -7.3      1.735      4.431
  Name = 
  9 active torsions:
  status: ('A' for Active; 'I' for Inactive)
    1  A    between atoms: O_1  and  C_16
    2  A    between atoms: O_1  and  C_25
    3  A    between atoms: C_4  and  C_16
    4  A    between atoms: C_4  and  C_37
    5  A    between atoms: C_12  and  C_34
    6  A    between atoms: C_17  and  C_18
    7  A    between atoms: O_27  and  C_30
    8  A    between atoms: C_29  and  N_31
    9  A    between atoms: C_36  and  C_37
                            x       y       z     vdW  Elec       q    Type
                         _______ _______ _______ _____ _____    ______ ____

>  <TORSDO>
F 9

$$$$
=
 OpenBabel11072410153D

 37 41  0  0  1  0  0  0  0  0999 V2000
  161.3150  211.0320  150.7030 N   0  0  0  0  0  0  0  0  0  0  0  0
  162.2350  209.6450  149.0060 C   0  0  0  0  0  3  0  0  0  0  0  0
  161.2100  208.6530  150.9550 C   0  0  0  0  0  0  0  0  0  0  0  0
  160.8250  207.4420  151.7410 C   0  0  0  0  0  1  0  0  0  0  0  0
  161.9430  210.9180  149.5020 C   0  0  0  0  0  0  0  0  0  0  0  0
  161.8690  208.5060  149.7260 C   0  0  0  0  0  0  0  0  0  0  0  0
  160.9400  209.9480  151.4360 C   0  0  0  0  0  0  0  0  0  0  0  0
  162.5090  210.4410  153.7240 O   0  0  0  0  0  0  0  0  0  0  0  0
  160.7730  211.8580  154.6450 C   0  0  0  0  0  2  0  0  0  0  0  0
  160.1720  213.0230  152.3610 O   0  0  0  0  0  1  0  0  0  0  0  0
  158.5070  211.7940  153.8340 C   0  0  2  0  0  3  0  0  0  0  0  0
  160.2620  210.1430  152.7650 C   0  0  2  0  0  3  0  0  0  0  0  0
  158.9000  210.8620  152.6530 C   0  0  2  0  0  3  0  0  0  0  0  0
  158.9360  212.3830  152.4860 C   0  0  0  0  0  0  0  0  0  0  0  0
  159.4000  211.8170  154.9540 O   0  0  0  0  0  0  0  0  0  0  0  0
  161.1640  210.6080  153.9010 C   0  0  1  0  0  0  0  0  0  0  0  0
  161.5960  208.6870  155.5290 O   0  0  0  0  0  0  0  0  0  0  0  0
  157.8970  212.9040  151.7180 O   0  0  0  0  0  1  0  0  0  0  0  0
  161.6980  209.6070  154.6750 C   0  0  0  0  0  0  0  0  0  0  0  0
  163.5660  212.3820  148.6150 O   0  0  0  0  0  0  0  0  0  0  0  0
  162.3400  212.1460  148.7710 C   0  0  0  0  0  0  0  0  0  0  0  0
  161.3950  213.0800  148.2300 N   0  0  0  0  0  2  0  0  0  0  0  0
  157.7070  212.6900  147.4830 C   0  0  0  0  0  2  0  0  0  0  0  0
  159.2100  212.7040  147.2110 C   0  0  0  0  0  2  0  0  0  0  0  0
  159.9610  213.0760  148.4840 C   0  0  2  0  0  3  0  0  0  0  0  0
  157.2430  214.0560  147.9910 C   0  0  2  0  0  3  0  0  0  0  0  0
  158.0130  214.4330  149.2570 C   0  0  0  0  0  2  0  0  0  0  0  0
  159.5100  214.4530  148.9700 C   0  0  0  0  0  2  0  0  0  0  0  0
  155.7950  214.1690  149.6550 C   0  0  0  0  0  1  0  0  0  0  0  0
  155.8770  214.0100  148.2730 O   0  0  0  0  0  0  0  0  0  0  0  0
  162.1480  207.2250  149.2350 O   0  0  0  0  0  0  0  0  0  0  0  0
  162.1820  206.9120  147.8480 C   0  0  0  0  0  2  0  0  0  0  0  0
  161.1130  205.8870  147.5130 C   0  0  1  0  0  3  0  0  0  0  0  0
  160.5700  206.1870  146.2010 N   0  0  0  0  0  1  0  0  0  0  0  0
  161.7070  204.4900  147.4950 C   0  0  0  0  0  2  0  0  0  0  0  0
  161.1250  204.0150  149.7870 N   0  0  0  0  0  2  0  0  0  0  0  0
  161.1020  203.6380  148.5630 C   0  0  0  0  0  3  0  0  0  0  0  0
  1  7  1  0  0  0  0
  2  5  1  0  0  0  0
  2  6  2  0  0  0  0
  3  7  2  0  0  0  0
  3  4  1  0  0  0  0
  5  1  2  0  0  0  0
  6  3  1  0  0  0  0
  8 16  1  0  0  0  0
  8 19  1  0  0  0  0
  9 15  1  0  0  0  0
 10 14  1  0  0  0  0
 11 15  1  1  0  0  0
 12  7  1  6  0  0  0
 12 16  1  0  0  0  0
 13 14  1  6  0  0  0
 13 12  1  0  0  0  0
 13 11  1  0  0  0  0
 14 11  1  0  0  0  0
 16  9  1  1  0  0  0
 16 19  1  0  0  0  0
 18 14  1  0  0  0  0
 19 17  2  0  0  0  0
 20 21  2  0  0  0  0
 21  5  1  0  0  0  0
 22 21  1  0  0  0  0
 23 26  1  0  0  0  0
 24 23  1  0  0  0  0
 24 25  1  0  0  0  0
 25 22  1  6  0  0  0
 25 28  1  0  0  0  0
 26 30  1  1  0  0  0
 26 27  1  0  0  0  0
 28 27  1  0  0  0  0
 30 29  1  0  0  0  0
 31  6  1  0  0  0  0
 32 31  1  0  0  0  0
 33 34  1  6  0  0  0
 33 32  1  0  0  0  0
 35 33  1  0  0  0  0
 35 37  1  0  0  0  0
 37 36  2  0  0  0  0
M  END
>  <MODEL>
3

>  <REMARK>
 VINA RESULT:      -7.1      3.065      6.777
  Name = 
  9 active torsions:
  status: ('A' for Active; 'I' for Inactive)
    1  A    between atoms: O_1  and  C_16
    2  A    between atoms: O_1  and  C_25
    3  A    between atoms: C_4  and  C_16
    4  A    between atoms: C_4  and  C_37
    5  A    between atoms: C_12  and  C_34
    6  A    between atoms: C_17  and  C_18
    7  A    between atoms: O_27  and  C_30
    8  A    between atoms: C_29  and  N_31
    9  A    between atoms: C_36  and  C_37
                            x       y       z     vdW  Elec       q    Type
                         _______ _______ _______ _____ _____    ______ ____

>  <TORSDO>
F 9

$$$$
=
 OpenBabel11072410153D

 37 41  0  0  1  0  0  0  0  0999 V2000
  160.2700  210.2160  153.6480 N   0  0  0  0  0  0  0  0  0  0  0  0
  161.0790  209.9580  151.4280 C   0  0  0  0  0  3  0  0  0  0  0  0
  160.1320  212.0650  152.1330 C   0  0  0  0  0  0  0  0  0  0  0  0
  159.7320  213.4720  151.8280 C   0  0  0  0  0  1  0  0  0  0  0  0
  160.8560  209.4320  152.7020 C   0  0  0  0  0  0  0  0  0  0  0  0
  160.7210  211.2760  151.1340 C   0  0  0  0  0  0  0  0  0  0  0  0
  159.9070  211.5050  153.4040 C   0  0  0  0  0  0  0  0  0  0  0  0
  157.1820  211.0790  153.9780 O   0  0  0  0  0  0  0  0  0  0  0  0
  157.5700  211.5640  156.3200 C   0  0  0  0  0  2  0  0  0  0  0  0
  159.8550  210.2640  156.4640 O   0  0  0  0  0  1  0  0  0  0  0  0
  159.5460  212.7090  157.0780 C   0  0  2  0  0  3  0  0  0  0  0  0
  159.2490  212.3140  154.4890 C   0  0  2  0  0  3  0  0  0  0  0  0
  160.1950  212.6360  155.6670 C   0  0  2  0  0  3  0  0  0  0  0  0
  160.4290  211.5190  156.6870 C   0  0  0  0  0  0  0  0  0  0  0  0
  158.1210  212.5700  157.1350 O   0  0  0  0  0  0  0  0  0  0  0  0
  157.8410  211.8750  154.8720 C   0  0  1  0  0  0  0  0  0  0  0  0
  156.1230  213.5380  153.9700 O   0  0  0  0  0  0  0  0  0  0  0  0
  161.6980  211.5170  157.2610 O   0  0  0  0  0  1  0  0  0  0  0  0
  156.8250  212.5200  154.2090 C   0  0  0  0  0  0  0  0  0  0  0  0
  161.4770  207.7460  154.2300 O   0  0  0  0  0  0  0  0  0  0  0  0
  161.2040  208.0300  153.0360 C   0  0  0  0  0  0  0  0  0  0  0  0
  161.2420  206.9770  152.0620 N   0  0  0  0  0  2  0  0  0  0  0  0
  160.4060  206.1180  148.4740 C   0  0  0  0  0  2  0  0  0  0  0  0
  160.5090  205.9260  149.9860 C   0  0  0  0  0  2  0  0  0  0  0  0
  161.1530  207.1530  150.6200 C   0  0  2  0  0  3  0  0  0  0  0  0
  161.7910  206.3590  147.8720 C   0  0  2  0  0  3  0  0  0  0  0  0
  162.4410  207.5790  148.5240 C   0  0  0  0  0  2  0  0  0  0  0  0
  162.5470  207.3710  150.0310 C   0  0  0  0  0  2  0  0  0  0  0  0
  162.2120  205.4310  145.9120 C   0  0  0  0  0  1  0  0  0  0  0  0
  161.6710  206.5740  146.4980 O   0  0  0  0  0  0  0  0  0  0  0  0
  160.9480  211.8160  149.8630 O   0  0  0  0  0  0  0  0  0  0  0  0
  162.1970  211.7270  149.1890 C   0  0  0  0  0  2  0  0  0  0  0  0
  162.0580  212.2100  147.7560 C   0  0  1  0  0  3  0  0  0  0  0  0
  160.6490  212.2840  147.4200 N   0  0  0  0  0  1  0  0  0  0  0  0
  162.6770  213.5880  147.6010 C   0  0  0  0  0  2  0  0  0  0  0  0
  162.6880  214.1700  145.2600 N   0  0  0  0  0  2  0  0  0  0  0  0
  162.1240  214.2910  146.4030 C   0  0  0  0  0  3  0  0  0  0  0  0
  2  5  1  0  0  0  0
  3  7  2  0  0  0  0
  4  3  1  0  0  0  0
  5 21  1  0  0  0  0
  5  1  2  0  0  0  0
  6  2  2  0  0  0  0
  6  3  1  0  0  0  0
  7  1  1  0  0  0  0
  8 19  1  0  0  0  0
  8 16  1  0  0  0  0
  9 15  1  0  0  0  0
 10 14  1  0  0  0  0
 11 15  1  6  0  0  0
 12  7  1  1  0  0  0
 12 16  1  0  0  0  0
 12 13  1  0  0  0  0
 13 14  1  1  0  0  0
 13 11  1  0  0  0  0
 14 11  1  0  0  0  0
 14 18  1  0  0  0  0
 16  9  1  1  0  0  0
 17 19  2  0  0  0  0
 19 16  1  0  0  0  0
 21 20  2  0  0  0  0
 22 21  1  0  0  0  0
 23 24  1  0  0  0  0
 24 25  1  0  0  0  0
 25 22  1  1  0  0  0
 26 30  1  6  0  0  0
 26 23  1  0  0  0  0
 26 27  1  0  0  0  0
 27 28  1  0  0  0  0
 28 25  1  0  0  0  0
 29 30  1  0  0  0  0
 31  6  1  0  0  0  0
 32 31  1  0  0  0  0
 33 34  1  1  0  0  0
 33 32  1  0  0  0  0
 35 33  1  0  0  0  0
 36 37  2  0  0  0  0
 37 35  1  0  0  0  0
M  END
>  <MODEL>
4

>  <REMARK>
 VINA RESULT:      -6.6      2.879      4.312
  Name = 
  9 active torsions:
  status: ('A' for Active; 'I' for Inactive)
    1  A    between atoms: O_1  and  C_16
    2  A    between atoms: O_1  and  C_25
    3  A    between atoms: C_4  and  C_16
    4  A    between atoms: C_4  and  C_37
    5  A    between atoms: C_12  and  C_34
    6  A    between atoms: C_17  and  C_18
    7  A    between atoms: O_27  and  C_30
    8  A    between atoms: C_29  and  N_31
    9  A    between atoms: C_36  and  C_37
                            x       y       z     vdW  Elec       q    Type
                         _______ _______ _______ _____ _____    ______ ____

>  <TORSDO>
F 9

$$$$
=
 OpenBabel11072410153D

 37 41  0  0  1  0  0  0  0  0999 V2000
  161.0770  208.2880  152.8160 N   0  0  0  0  0  0  0  0  0  0  0  0
  161.7880  208.0390  150.5610 C   0  0  0  0  0  3  0  0  0  0  0  0
  161.6120  210.2410  151.5380 C   0  0  0  0  0  0  0  0  0  0  0  0
  161.7280  211.7260  151.4150 C   0  0  0  0  0  1  0  0  0  0  0  0
  161.3740  207.4720  151.7690 C   0  0  0  0  0  0  0  0  0  0  0  0
  161.9110  209.4260  150.4380 C   0  0  0  0  0  0  0  0  0  0  0  0
  161.1850  209.6430  152.7380 C   0  0  0  0  0  0  0  0  0  0  0  0
  158.5630  210.6490  152.9730 O   0  0  0  0  0  0  0  0  0  0  0  0
  158.6790  210.4670  155.3860 C   0  0  0  0  0  2  0  0  0  0  0  0
  159.9230  208.1460  155.3970 O   0  0  0  0  0  1  0  0  0  0  0  0
  160.7720  210.2430  156.5520 C   0  0  2  0  0  3  0  0  0  0  0  0
  160.8260  210.4910  153.9290 C   0  0  2  0  0  3  0  0  0  0  0  0
  161.5560  210.0640  155.2210 C   0  0  2  0  0  3  0  0  0  0  0  0
  160.9930  208.8470  155.9600 C   0  0  0  0  0  0  0  0  0  0  0  0
  159.4910  210.8770  156.4600 O   0  0  0  0  0  0  0  0  0  0  0  0
  159.3450  210.8150  154.0810 C   0  0  1  0  0  0  0  0  0  0  0  0
  158.9100  213.2570  153.4680 O   0  0  0  0  0  0  0  0  0  0  0  0
  161.9500  208.0770  156.6170 O   0  0  0  0  0  1  0  0  0  0  0  0
  158.9420  211.9990  153.5130 C   0  0  0  0  0  0  0  0  0  0  0  0
  161.1460  205.5270  153.0830 O   0  0  0  0  0  0  0  0  0  0  0  0
  161.2110  206.0060  151.9220 C   0  0  0  0  0  0  0  0  0  0  0  0
  161.1210  205.1040  150.8100 N   0  0  0  0  0  2  0  0  0  0  0  0
  160.4590  206.5810  147.3910 C   0  0  0  0  0  2  0  0  0  0  0  0
  160.1860  206.2120  148.8480 C   0  0  0  0  0  2  0  0  0  0  0  0
  161.3750  205.4480  149.4180 C   0  0  2  0  0  3  0  0  0  0  0  0
  160.7270  205.3240  146.5630 C   0  0  2  0  0  3  0  0  0  0  0  0
  161.9080  204.5510  147.1500 C   0  0  0  0  0  2  0  0  0  0  0  0
  161.6190  204.1800  148.6000 C   0  0  0  0  0  2  0  0  0  0  0  0
  160.9300  204.4940  144.5250 C   0  0  0  0  0  1  0  0  0  0  0  0
  161.0150  205.6840  145.2460 O   0  0  0  0  0  0  0  0  0  0  0  0
  162.3340  210.0050  149.2360 O   0  0  0  0  0  0  0  0  0  0  0  0
  161.4360  210.5000  148.2510 C   0  0  0  0  0  2  0  0  0  0  0  0
  161.6580  211.9870  148.0360 C   0  0  1  0  0  3  0  0  0  0  0  0
  163.0800  212.2320  147.8840 N   0  0  0  0  0  1  0  0  0  0  0  0
  160.9390  212.4530  146.7820 C   0  0  0  0  0  2  0  0  0  0  0  0
  159.2910  213.3700  148.2850 N   0  0  0  0  0  2  0  0  0  0  0  0
  159.5690  212.9550  147.1060 C   0  0  0  0  0  3  0  0  0  0  0  0
  2  5  1  0  0  0  0
  3  7  2  0  0  0  0
  4  3  1  0  0  0  0
  5 21  1  0  0  0  0
  5  1  2  0  0  0  0
  6  2  2  0  0  0  0
  6  3  1  0  0  0  0
  7  1  1  0  0  0  0
  8 19  1  0  0  0  0
  8 16  1  0  0  0  0
  9 15  1  0  0  0  0
 10 14  1  0  0  0  0
 11 15  1  6  0  0  0
 12  7  1  6  0  0  0
 12 16  1  0  0  0  0
 12 13  1  0  0  0  0
 13 14  1  6  0  0  0
 13 11  1  0  0  0  0
 14 11  1  0  0  0  0
 14 18  1  0  0  0  0
 16  9  1  1  0  0  0
 17 19  2  0  0  0  0
 19 16  1  0  0  0  0
 21 20  2  0  0  0  0
 22 21  1  0  0  0  0
 23 24  1  0  0  0  0
 24 25  1  0  0  0  0
 25 22  1  1  0  0  0
 26 30  1  6  0  0  0
 26 27  1  0  0  0  0
 26 23  1  0  0  0  0
 27 28  1  0  0  0  0
 28 25  1  0  0  0  0
 29 30  1  0  0  0  0
 31  6  1  0  0  0  0
 32 31  1  0  0  0  0
 33 34  1  6  0  0  0
 33 32  1  0  0  0  0
 35 37  1  0  0  0  0
 35 33  1  0  0  0  0
 37 36  2  0  0  0  0
M  END
>  <MODEL>
5

>  <REMARK>
 VINA RESULT:      -6.3      2.508      3.406
  Name = 
  9 active torsions:
  status: ('A' for Active; 'I' for Inactive)
    1  A    between atoms: O_1  and  C_16
    2  A    between atoms: O_1  and  C_25
    3  A    between atoms: C_4  and  C_16
    4  A    between atoms: C_4  and  C_37
    5  A    between atoms: C_12  and  C_34
    6  A    between atoms: C_17  and  C_18
    7  A    between atoms: O_27  and  C_30
    8  A    between atoms: C_29  and  N_31
    9  A    between atoms: C_36  and  C_37
                            x       y       z     vdW  Elec       q    Type
                         _______ _______ _______ _____ _____    ______ ____

>  <TORSDO>
F 9

$$$$
=
 OpenBabel11072410153D

 37 41  0  0  1  0  0  0  0  0999 V2000
  160.0960  211.8570  152.4730 N   0  0  0  0  0  0  0  0  0  0  0  0
  161.2480  211.4960  150.4250 C   0  0  0  0  0  3  0  0  0  0  0  0
  161.1430  209.7400  152.0800 C   0  0  0  0  0  0  0  0  0  0  0  0
  161.4990  208.3600  152.5280 C   0  0  0  0  0  1  0  0  0  0  0  0
  160.4920  212.3240  151.2580 C   0  0  0  0  0  0  0  0  0  0  0  0
  161.5770  210.2000  150.8290 C   0  0  0  0  0  0  0  0  0  0  0  0
  160.3930  210.6000  152.9030 C   0  0  0  0  0  0  0  0  0  0  0  0
  162.2120  210.6620  155.0550 O   0  0  0  0  0  0  0  0  0  0  0  0
  160.4170  211.1880  156.5950 C   0  0  0  0  0  2  0  0  0  0  0  0
  159.1940  212.8700  154.9800 O   0  0  0  0  0  1  0  0  0  0  0  0
  158.1040  210.8310  156.0310 C   0  0  2  0  0  3  0  0  0  0  0  0
  159.9380  210.1490  154.2650 C   0  0  2  0  0  3  0  0  0  0  0  0
  158.4610  210.4910  154.5560 C   0  0  2  0  0  3  0  0  0  0  0  0
  158.1560  211.9340  154.9680 C   0  0  0  0  0  0  0  0  0  0  0  0
  159.1590  210.6960  156.9910 O   0  0  0  0  0  0  0  0  0  0  0  0
  160.9150  210.4110  155.4040 C   0  0  1  0  0  0  0  0  0  0  0  0
  162.0110  208.2260  156.1470 O   0  0  0  0  0  0  0  0  0  0  0  0
  156.9130  212.4040  154.5510 O   0  0  0  0  0  1  0  0  0  0  0  0
  161.7710  209.3760  155.6940 C   0  0  0  0  0  0  0  0  0  0  0  0
  159.5850  214.4530  151.7140 O   0  0  0  0  0  0  0  0  0  0  0  0
  160.1480  213.7130  150.8680 C   0  0  0  0  0  0  0  0  0  0  0  0
  160.4270  214.2570  149.5700 N   0  0  0  0  0  2  0  0  0  0  0  0
  162.4010  213.5050  146.4310 C   0  0  0  0  0  2  0  0  0  0  0  0
  161.9150  214.3080  147.6370 C   0  0  0  0  0  2  0  0  0  0  0  0
  160.8840  213.4980  148.4140 C   0  0  2  0  0  3  0  0  0  0  0  0
  161.2250  213.1370  145.5260 C   0  0  2  0  0  3  0  0  0  0  0  0
  160.1860  212.3410  146.3150 C   0  0  0  0  0  2  0  0  0  0  0  0
  159.7010  213.1570  147.5090 C   0  0  0  0  0  2  0  0  0  0  0  0
  162.9000  212.9490  144.0960 C   0  0  0  0  0  1  0  0  0  0  0  0
  161.6840  212.3690  144.4540 O   0  0  0  0  0  0  0  0  0  0  0  0
  162.3270  209.3580  149.9990 O   0  0  0  0  0  0  0  0  0  0  0  0
  161.7910  208.7190  148.8470 C   0  0  0  0  0  2  0  0  0  0  0  0
  161.9270  207.2120  148.9690 C   0  0  1  0  0  3  0  0  0  0  0  0
  160.7040  206.6740  149.5340 N   0  0  0  0  0  1  0  0  0  0  0  0
  162.1570  206.5890  147.6030 C   0  0  0  0  0  2  0  0  0  0  0  0
  160.8480  205.9660  145.6750 N   0  0  0  0  0  2  0  0  0  0  0  0
  160.8620  206.3740  146.8890 C   0  0  0  0  0  3  0  0  0  0  0  0
  1  7  1  0  0  0  0
  2  6  2  0  0  0  0
  2  5  1  0  0  0  0
  3  4  1  0  0  0  0
  3  7  2  0  0  0  0
  5  1  2  0  0  0  0
  6  3  1  0  0  0  0
  8 16  1  0  0  0  0
  8 19  1  0  0  0  0
  9 15  1  0  0  0  0
 11 15  1  1  0  0  0
 12  7  1  6  0  0  0
 12 13  1  0  0  0  0
 12 16  1  0  0  0  0
 13 14  1  6  0  0  0
 13 11  1  0  0  0  0
 14 10  1  0  0  0  0
 14 11  1  0  0  0  0
 16 19  1  0  0  0  0
 16  9  1  1  0  0  0
 18 14  1  0  0  0  0
 19 17  2  0  0  0  0
 21  5  1  0  0  0  0
 21 20  2  0  0  0  0
 22 21  1  0  0  0  0
 23 24  1  0  0  0  0
 24 25  1  0  0  0  0
 25 22  1  1  0  0  0
 26 30  1  6  0  0  0
 26 27  1  0  0  0  0
 26 23  1  0  0  0  0
 27 28  1  0  0  0  0
 28 25  1  0  0  0  0
 29 30  1  0  0  0  0
 31  6  1  0  0  0  0
 32 33  1  0  0  0  0
 32 31  1  0  0  0  0
 33 34  1  6  0  0  0
 35 33  1  0  0  0  0
 36 37  2  0  0  0  0
 37 35  1  0  0  0  0
M  END
>  <MODEL>
6

>  <REMARK>
 VINA RESULT:      -6.2      3.200      6.516
  Name = 
  9 active torsions:
  status: ('A' for Active; 'I' for Inactive)
    1  A    between atoms: O_1  and  C_16
    2  A    between atoms: O_1  and  C_25
    3  A    between atoms: C_4  and  C_16
    4  A    between atoms: C_4  and  C_37
    5  A    between atoms: C_12  and  C_34
    6  A    between atoms: C_17  and  C_18
    7  A    between atoms: O_27  and  C_30
    8  A    between atoms: C_29  and  N_31
    9  A    between atoms: C_36  and  C_37
                            x       y       z     vdW  Elec       q    Type
                         _______ _______ _______ _____ _____    ______ ____

>  <TORSDO>
F 9

$$$$
=
 OpenBabel11072410153D

 37 41  0  0  1  0  0  0  0  0999 V2000
  161.1790  206.0910  150.8970 N   0  0  0  0  0  0  0  0  0  0  0  0
  161.7840  208.3820  150.7010 C   0  0  0  0  0  3  0  0  0  0  0  0
  161.2050  207.1110  148.7310 C   0  0  0  0  0  0  0  0  0  0  0  0
  161.0260  207.0270  147.2490 C   0  0  0  0  0  1  0  0  0  0  0  0
  161.5570  207.2540  151.4940 C   0  0  0  0  0  0  0  0  0  0  0  0
  161.6080  208.3190  149.3160 C   0  0  0  0  0  0  0  0  0  0  0  0
  160.9960  205.9870  149.5520 C   0  0  0  0  0  0  0  0  0  0  0  0
  162.6720  204.7740  147.6390 O   0  0  0  0  0  0  0  0  0  0  0  0
  162.0400  202.5750  148.4390 C   0  0  0  0  0  2  0  0  0  0  0  0
  162.0830  203.2210  150.9910 O   0  0  0  0  0  1  0  0  0  0  0  0
  160.0810  202.2220  149.7910 C   0  0  2  0  0  3  0  0  0  0  0  0
  160.5920  204.6670  148.9520 C   0  0  2  0  0  3  0  0  0  0  0  0
  159.8460  203.7510  149.9460 C   0  0  2  0  0  3  0  0  0  0  0  0
  160.7050  202.9910  150.9600 C   0  0  0  0  0  0  0  0  0  0  0  0
  160.8850  201.8080  148.6800 O   0  0  0  0  0  0  0  0  0  0  0  0
  161.6490  203.9870  148.0910 C   0  0  1  0  0  0  0  0  0  0  0  0
  161.0210  204.1670  145.6200 O   0  0  0  0  0  0  0  0  0  0  0  0
  160.0930  202.7800  152.1940 O   0  0  0  0  0  1  0  0  0  0  0  0
  161.5760  204.2630  146.7460 C   0  0  0  0  0  0  0  0  0  0  0  0
  162.3330  206.3080  153.5100 O   0  0  0  0  0  0  0  0  0  0  0  0
  161.7580  207.2840  152.9620 C   0  0  0  0  0  0  0  0  0  0  0  0
  161.3320  208.3740  153.7920 N   0  0  0  0  0  2  0  0  0  0  0  0
  160.4570  211.7970  152.4410 C   0  0  0  0  0  2  0  0  0  0  0  0
  161.3480  210.6420  152.8950 C   0  0  0  0  0  2  0  0  0  0  0  0
  160.4850  209.4800  153.3690 C   0  0  2  0  0  3  0  0  0  0  0  0
  159.5440  212.2470  153.5820 C   0  0  2  0  0  3  0  0  0  0  0  0
  158.6930  211.0730  154.0670 C   0  0  0  0  0  2  0  0  0  0  0  0
  159.5940  209.9310  154.5260 C   0  0  0  0  0  2  0  0  0  0  0  0
  158.3510  212.9010  151.8410 C   0  0  0  0  0  1  0  0  0  0  0  0
  158.7090  213.2730  153.1360 O   0  0  0  0  0  0  0  0  0  0  0  0
  161.8240  209.4450  148.5130 O   0  0  0  0  0  0  0  0  0  0  0  0
  162.3240  210.6780  149.0160 C   0  0  0  0  0  2  0  0  0  0  0  0
  161.7410  211.8410  148.2330 C   0  0  1  0  0  3  0  0  0  0  0  0
  161.0800  212.7440  149.1560 N   0  0  0  0  0  1  0  0  0  0  0  0
  162.8420  212.5940  147.5060 C   0  0  0  0  0  2  0  0  0  0  0  0
  161.1390  212.9700  145.8410 N   0  0  0  0  0  2  0  0  0  0  0  0
  162.3210  213.2300  146.2590 C   0  0  0  0  0  3  0  0  0  0  0  0
  1  5  1  0  0  0  0
  2  5  2  0  0  0  0
  3  6  2  0  0  0  0
  3  7  1  0  0  0  0
  4  3  1  0  0  0  0
  5 21  1  0  0  0  0
  6  2  1  0  0  0  0
  7  1  2  0  0  0  0
  8 16  1  0  0  0  0
  9 15  1  0  0  0  0
 11 15  1  6  0  0  0
 11 13  1  0  0  0  0
 11 14  1  0  0  0  0
 12  7  1  1  0  0  0
 12 13  1  0  0  0  0
 13 14  1  1  0  0  0
 14 10  1  0  0  0  0
 14 18  1  0  0  0  0
 16  9  1  1  0  0  0
 16 12  1  0  0  0  0
 17 19  2  0  0  0  0
 19  8  1  0  0  0  0
 19 16  1  0  0  0  0
 21 20  2  0  0  0  0
 21 22  1  0  0  0  0
 23 24  1  0  0  0  0
 23 26  1  0  0  0  0
 24 25  1  0  0  0  0
 25 22  1  1  0  0  0
 25 28  1  0  0  0  0
 26 30  1  6  0  0  0
 26 27  1  0  0  0  0
 27 28  1  0  0  0  0
 29 30  1  0  0  0  0
 31 32  1  0  0  0  0
 31  6  1  0  0  0  0
 33 32  1  0  0  0  0
 33 34  1  1  0  0  0
 35 33  1  0  0  0  0
 36 37  2  0  0  0  0
 37 35  1  0  0  0  0
M  END
>  <MODEL>
7

>  <REMARK>
 VINA RESULT:      -5.5      2.559      7.778
  Name = 
  9 active torsions:
  status: ('A' for Active; 'I' for Inactive)
    1  A    between atoms: O_1  and  C_16
    2  A    between atoms: O_1  and  C_25
    3  A    between atoms: C_4  and  C_16
    4  A    between atoms: C_4  and  C_37
    5  A    between atoms: C_12  and  C_34
    6  A    between atoms: C_17  and  C_18
    7  A    between atoms: O_27  and  C_30
    8  A    between atoms: C_29  and  N_31
    9  A    between atoms: C_36  and  C_37
                            x       y       z     vdW  Elec       q    Type
                         _______ _______ _______ _____ _____    ______ ____

>  <TORSDO>
F 9

$$$$
=
 OpenBabel11072410153D

 37 41  0  0  1  0  0  0  0  0999 V2000
  161.6910  209.5860  150.2040 N   0  0  0  0  0  0  0  0  0  0  0  0
  161.9910  208.8750  147.9560 C   0  0  0  0  0  3  0  0  0  0  0  0
  161.0180  207.3750  149.5790 C   0  0  0  0  0  0  0  0  0  0  0  0
  160.4460  206.0400  149.9300 C   0  0  0  0  0  1  0  0  0  0  0  0
  162.1030  209.8630  148.9370 C   0  0  0  0  0  0  0  0  0  0  0  0
  161.4470  207.6270  148.2680 C   0  0  0  0  0  0  0  0  0  0  0  0
  161.1540  208.3840  150.5500 C   0  0  0  0  0  0  0  0  0  0  0  0
  162.7080  206.6830  152.1720 O   0  0  0  0  0  0  0  0  0  0  0  0
  162.1760  208.0120  154.1260 C   0  0  0  0  0  2  0  0  0  0  0  0
  162.3930  210.3360  152.9080 O   0  0  0  0  0  1  0  0  0  0  0  0
  160.3270  209.5520  154.1600 C   0  0  2  0  0  3  0  0  0  0  0  0
  160.7320  208.1370  151.9740 C   0  0  2  0  0  3  0  0  0  0  0  0
  160.0770  209.3680  152.6360 C   0  0  2  0  0  3  0  0  0  0  0  0
  161.0210  210.4630  153.1410 C   0  0  0  0  0  0  0  0  0  0  0  0
  161.0560  208.5090  154.8180 O   0  0  0  0  0  0  0  0  0  0  0  0
  161.7350  207.3780  152.8330 C   0  0  1  0  0  0  0  0  0  0  0  0
  160.9260  204.9870  153.2300 O   0  0  0  0  0  0  0  0  0  0  0  0
  160.5040  211.7540  153.0620 O   0  0  0  0  0  1  0  0  0  0  0  0
  161.5600  206.0160  152.8760 C   0  0  0  0  0  0  0  0  0  0  0  0
  163.9150  211.3730  148.9010 O   0  0  0  0  0  0  0  0  0  0  0  0
  162.6980  211.1880  148.6400 C   0  0  0  0  0  0  0  0  0  0  0  0
  161.9550  212.2740  148.0680 N   0  0  0  0  0  2  0  0  0  0  0  0
  158.6600  212.6840  146.2550 C   0  0  0  0  0  2  0  0  0  0  0  0
  160.1760  212.6580  146.4430 C   0  0  0  0  0  2  0  0  0  0  0  0
  160.5110  212.3100  147.8880 C   0  0  2  0  0  3  0  0  0  0  0  0
  158.0220  213.6970  147.2050 C   0  0  2  0  0  3  0  0  0  0  0  0
  158.3760  213.3550  148.6520 C   0  0  0  0  0  2  0  0  0  0  0  0
  159.8900  213.3420  148.8290 C   0  0  0  0  0  2  0  0  0  0  0  0
  156.4310  213.8130  145.6760 C   0  0  0  0  0  1  0  0  0  0  0  0
  156.6350  213.6760  147.0480 O   0  0  0  0  0  0  0  0  0  0  0  0
  161.3220  206.6330  147.2910 O   0  0  0  0  0  0  0  0  0  0  0  0
  162.3400  206.3370  146.3440 C   0  0  0  0  0  2  0  0  0  0  0  0
  162.2830  204.8720  145.9490 C   0  0  1  0  0  3  0  0  0  0  0  0
  163.6250  204.3220  145.9910 N   0  0  0  0  0  1  0  0  0  0  0  0
  161.4020  204.0980  146.9140 C   0  0  0  0  0  2  0  0  0  0  0  0
  160.7400  202.1540  145.6490 N   0  0  0  0  0  2  0  0  0  0  0  0
  161.4330  202.6350  146.6120 C   0  0  0  0  0  3  0  0  0  0  0  0
  1  7  1  0  0  0  0
  2  6  2  0  0  0  0
  2  5  1  0  0  0  0
  3  4  1  0  0  0  0
  3  7  2  0  0  0  0
  5  1  2  0  0  0  0
  6  3  1  0  0  0  0
  8 16  1  0  0  0  0
  8 19  1  0  0  0  0
  9 15  1  0  0  0  0
 10 14  1  0  0  0  0
 11 15  1  6  0  0  0
 12  7  1  6  0  0  0
 12 13  1  0  0  0  0
 12 16  1  0  0  0  0
 13 14  1  6  0  0  0
 13 11  1  0  0  0  0
 14 11  1  0  0  0  0
 16 19  1  0  0  0  0
 16  9  1  1  0  0  0
 18 14  1  0  0  0  0
 19 17  2  0  0  0  0
 21 20  2  0  0  0  0
 21  5  1  0  0  0  0
 22 21  1  0  0  0  0
 23 24  1  0  0  0  0
 23 26  1  0  0  0  0
 24 25  1  0  0  0  0
 25 22  1  6  0  0  0
 25 28  1  0  0  0  0
 26 30  1  1  0  0  0
 26 27  1  0  0  0  0
 27 28  1  0  0  0  0
 29 30  1  0  0  0  0
 31  6  1  0  0  0  0
 32 31  1  0  0  0  0
 33 34  1  1  0  0  0
 33 32  1  0  0  0  0
 33 35  1  0  0  0  0
 36 37  2  0  0  0  0
 37 35  1  0  0  0  0
M  END
>  <MODEL>
8

>  <REMARK>
 VINA RESULT:      -5.1      3.228      6.622
  Name = 
  9 active torsions:
  status: ('A' for Active; 'I' for Inactive)
    1  A    between atoms: O_1  and  C_16
    2  A    between atoms: O_1  and  C_25
    3  A    between atoms: C_4  and  C_16
    4  A    between atoms: C_4  and  C_37
    5  A    between atoms: C_12  and  C_34
    6  A    between atoms: C_17  and  C_18
    7  A    between atoms: O_27  and  C_30
    8  A    between atoms: C_29  and  N_31
    9  A    between atoms: C_36  and  C_37
                            x       y       z     vdW  Elec       q    Type
                         _______ _______ _______ _____ _____    ______ ____

>  <TORSDO>
F 9

$$$$
=
 OpenBabel11072410153D

 37 41  0  0  1  0  0  0  0  0999 V2000
  161.6780  209.1800  148.9860 N   0  0  0  0  0  0  0  0  0  0  0  0
  162.0590  210.7990  150.6850 C   0  0  0  0  0  3  0  0  0  0  0  0
  161.2310  208.6070  151.2680 C   0  0  0  0  0  0  0  0  0  0  0  0
  160.7610  207.6310  152.2970 C   0  0  0  0  0  1  0  0  0  0  0  0
  162.0870  210.4290  149.3380 C   0  0  0  0  0  0  0  0  0  0  0  0
  161.6330  209.8920  151.6580 C   0  0  0  0  0  0  0  0  0  0  0  0
  161.2570  208.2650  149.9030 C   0  0  0  0  0  0  0  0  0  0  0  0
  162.3420  207.1700  147.5440 O   0  0  0  0  0  0  0  0  0  0  0  0
  162.1910  204.9390  148.4760 C   0  0  0  0  0  2  0  0  0  0  0  0
  162.9820  205.6290  150.8910 O   0  0  0  0  0  1  0  0  0  0  0  0
  160.7990  204.4390  150.3750 C   0  0  2  0  0  3  0  0  0  0  0  0
  160.8020  206.9050  149.4460 C   0  0  2  0  0  3  0  0  0  0  0  0
  160.4920  205.9440  150.6140 C   0  0  2  0  0  3  0  0  0  0  0  0
  161.6910  205.2780  151.2960 C   0  0  0  0  0  0  0  0  0  0  0  0
  161.2440  204.0780  149.0620 O   0  0  0  0  0  0  0  0  0  0  0  0
  161.5880  206.3060  148.2870 C   0  0  1  0  0  0  0  0  0  0  0  0
  160.1980  206.3890  146.1440 O   0  0  0  0  0  0  0  0  0  0  0  0
  161.5210  205.0360  152.6570 O   0  0  0  0  0  1  0  0  0  0  0  0
  161.0700  206.5510  147.0380 C   0  0  0  0  0  0  0  0  0  0  0  0
  163.7370  211.4810  148.0220 O   0  0  0  0  0  0  0  0  0  0  0  0
  162.5110  211.3790  148.2810 C   0  0  0  0  0  0  0  0  0  0  0  0
  161.5900  212.1870  147.5340 N   0  0  0  0  0  2  0  0  0  0  0  0
  157.9190  212.7950  146.8530 C   0  0  0  0  0  2  0  0  0  0  0  0
  159.4060  212.6380  146.5430 C   0  0  0  0  0  2  0  0  0  0  0  0
  160.1730  212.3470  147.8280 C   0  0  2  0  0  3  0  0  0  0  0  0
  157.7000  213.9190  147.8660 C   0  0  2  0  0  3  0  0  0  0  0  0
  158.4860  213.6330  149.1450 C   0  0  0  0  0  2  0  0  0  0  0  0
  159.9700  213.4890  148.8240 C   0  0  0  0  0  2  0  0  0  0  0  0
  156.2670  213.8240  149.5450 C   0  0  0  0  0  1  0  0  0  0  0  0
  156.3410  214.0190  148.1670 O   0  0  0  0  0  0  0  0  0  0  0  0
  161.6100  210.2480  153.0110 O   0  0  0  0  0  0  0  0  0  0  0  0
  160.7790  211.2770  153.5330 C   0  0  0  0  0  2  0  0  0  0  0  0
  160.7520  211.2150  155.0500 C   0  0  1  0  0  3  0  0  0  0  0  0
  159.4220  211.5630  155.5110 N   0  0  0  0  0  1  0  0  0  0  0  0
  161.0910  209.8140  155.5270 C   0  0  0  0  0  2  0  0  0  0  0  0
  163.2050  210.7150  156.2570 N   0  0  0  0  0  2  0  0  0  0  0  0
  162.2960  209.8260  156.4100 C   0  0  0  0  0  3  0  0  0  0  0  0
  1  5  2  0  0  0  0
  1  7  1  0  0  0  0
  2  6  2  0  0  0  0
  3  6  1  0  0  0  0
  3  4  1  0  0  0  0
  5  2  1  0  0  0  0
  6 31  1  0  0  0  0
  7  3  2  0  0  0  0
  8 16  1  0  0  0  0
  9 15  1  0  0  0  0
 10 14  1  0  0  0  0
 11 15  1  6  0  0  0
 11 13  1  0  0  0  0
 11 14  1  0  0  0  0
 12  7  1  1  0  0  0
 12 13  1  0  0  0  0
 13 14  1  1  0  0  0
 14 18  1  0  0  0  0
 16  9  1  1  0  0  0
 16 12  1  0  0  0  0
 17 19  2  0  0  0  0
 19  8  1  0  0  0  0
 19 16  1  0  0  0  0
 20 21  2  0  0  0  0
 21  5  1  0  0  0  0
 22 21  1  0  0  0  0
 23 26  1  0  0  0  0
 24 23  1  0  0  0  0
 24 25  1  0  0  0  0
 25 22  1  6  0  0  0
 25 28  1  0  0  0  0
 26 30  1  1  0  0  0
 26 27  1  0  0  0  0
 28 27  1  0  0  0  0
 30 29  1  0  0  0  0
 31 32  1  0  0  0  0
 32 33  1  0  0  0  0
 33 34  1  6  0  0  0
 33 35  1  0  0  0  0
 35 37  1  0  0  0  0
 36 37  2  0  0  0  0
M  END
>  <MODEL>
9

>  <REMARK>
 VINA RESULT:      -4.9      3.159      8.605
  Name = 
  9 active torsions:
  status: ('A' for Active; 'I' for Inactive)
    1  A    between atoms: O_1  and  C_16
    2  A    between atoms: O_1  and  C_25
    3  A    between atoms: C_4  and  C_16
    4  A    between atoms: C_4  and  C_37
    5  A    between atoms: C_12  and  C_34
    6  A    between atoms: C_17  and  C_18
    7  A    between atoms: O_27  and  C_30
    8  A    between atoms: C_29  and  N_31
    9  A    between atoms: C_36  and  C_37
                            x       y       z     vdW  Elec       q    Type
                         _______ _______ _______ _____ _____    ______ ____

>  <TORSDO>
F 9

$$$$
