=
 OpenBabel11072413353D

 43 48  0  0  1  0  0  0  0  0999 V2000
  161.6130  206.7650  148.3160 C   0  0  1  0  0  3  0  0  0  0  0  0
  160.0910  206.8600  150.2600 C   0  0  0  0  0  2  0  0  0  0  0  0
  160.2870  206.2670  148.8750 C   0  0  2  0  0  3  0  0  0  0  0  0
  161.0160  208.0580  150.3160 C   0  0  2  0  0  3  0  0  0  0  0  0
  161.5030  208.2130  147.8840 C   0  0  0  0  0  2  0  0  0  0  0  0
  162.0790  207.8750  149.2440 C   0  0  2  0  0  3  0  0  0  0  0  0
  160.1520  204.8590  148.8340 O   0  0  0  0  0  0  0  0  0  0  0  0
  161.2080  202.4550  151.1140 C   0  0  0  0  0  2  0  0  0  0  0  0
  161.3440  204.2430  149.2740 C   0  0  2  0  0  3  0  0  0  0  0  0
  161.6870  203.0000  148.4320 C   0  0  1  0  0  3  0  0  0  0  0  0
  160.4550  202.1450  148.1870 C   0  0  0  0  0  0  0  0  0  0  0  0
  159.6520  201.6310  149.3310 C   0  0  0  0  0  0  0  0  0  0  0  0
  160.0170  201.9440  146.9670 C   0  0  0  0  0  0  0  0  0  0  0  0
  158.6010  200.9730  149.0980 O   0  0  0  0  0  0  0  0  0  0  0  0
  161.2610  203.9440  150.7770 C   0  0  2  0  0  3  0  0  0  0  0  0
  159.9900  201.8670  150.6720 O   0  0  0  0  0  0  0  0  0  0  0  0
  159.6030  201.7550  145.8160 O   0  0  0  0  0  0  0  0  0  0  0  0
  162.5190  203.3520  147.1860 C   0  0  2  0  0  3  0  0  0  0  0  0
  162.2910  204.6710  145.2260 C   0  0  0  0  0  2  0  0  0  0  0  0
  163.2320  204.5430  147.3900 O   0  0  0  0  0  0  0  0  0  0  0  0
  161.6280  203.5570  145.9760 C   0  0  0  0  0  2  0  0  0  0  0  0
  163.4560  205.0590  146.1050 C   0  0  0  0  0  2  0  0  0  0  0  0
  162.4120  204.5510  151.4510 C   0  0  0  0  0  0  0  0  0  0  0  0
  163.3600  205.0540  152.0020 C   0  0  0  0  0  3  0  0  0  0  0  0
  161.6780  208.1490  151.6800 C   0  0  0  0  0  2  0  0  0  0  0  0
  161.5430  210.4750  152.6260 C   0  0  0  0  0  3  0  0  0  0  0  0
  162.2040  209.5280  151.9410 C   0  0  0  0  0  3  0  0  0  0  0  0
  158.1350  212.4830  156.7340 C   0  0  0  0  0  0  0  0  0  0  0  0
  156.0640  211.4650  154.9590 C   0  0  0  0  0  2  0  0  0  0  0  0
  156.7660  212.8580  156.8620 N   0  0  0  0  0  2  0  0  0  0  0  0
  160.1710  210.3270  153.2430 C   0  0  1  0  0  3  0  0  0  0  0  0
  158.1190  211.8890  153.5510 C   0  0  0  0  0  0  0  0  0  0  0  0
  158.4500  211.2270  155.9760 C   0  0  2  0  0  3  0  0  0  0  0  0
  159.9460  211.0500  155.6960 C   0  0  0  0  0  2  0  0  0  0  0  0
  160.1620  209.8820  154.7330 C   0  0  2  0  0  3  0  0  0  0  0  0
  157.5540  211.1180  154.7160 C   0  0  1  0  0  3  0  0  0  0  0  0
  155.7430  211.9370  156.3840 C   0  0  0  0  0  2  0  0  0  0  0  0
  159.0360  213.1870  157.2610 O   0  0  0  0  0  0  0  0  0  0  0  0
  157.5350  212.9250  153.1340 O   0  0  0  0  0  0  0  0  0  0  0  0
  159.3640  211.5160  152.9480 N   0  0  0  0  0  2  0  0  0  0  0  0
  160.8660  207.5190  155.2130 C   0  0  0  0  0  1  0  0  0  0  0  0
  161.8680  209.3470  156.5150 C   0  0  0  0  0  1  0  0  0  0  0  0
  161.3240  208.9660  155.1480 C   0  0  0  0  0  3  0  0  0  0  0  0
  1  5  1  6  0  0  0
  1  3  1  0  0  0  0
  1  6  1  0  0  0  0
  2  4  1  0  0  0  0
  3  7  1  1  0  0  0
  3  2  1  0  0  0  0
  4 25  1  1  0  0  0
  6  5  1  6  0  0  0
  6  4  1  0  0  0  0
  9  7  1  6  0  0  0
  9 15  1  0  0  0  0
 10 11  1  6  0  0  0
 10  9  1  0  0  0  0
 11 12  1  0  0  0  0
 12 16  1  0  0  0  0
 13 11  2  0  0  0  0
 14 12  2  0  0  0  0
 15  8  1  0  0  0  0
 15 23  1  1  0  0  0
 16  8  1  0  0  0  0
 17 13  2  0  0  0  0
 18 21  1  6  0  0  0
 18 20  1  0  0  0  0
 18 10  1  0  0  0  0
 19 21  1  0  0  0  0
 19 22  1  0  0  0  0
 22 20  1  0  0  0  0
 23 24  3  0  0  0  0
 25 27  1  0  0  0  0
 27 26  2  0  0  0  0
 28 30  1  0  0  0  0
 28 38  2  0  0  0  0
 29 37  1  0  0  0  0
 31 26  1  1  0  0  0
 31 35  1  0  0  0  0
 32 36  1  0  0  0  0
 33 34  1  6  0  0  0
 33 28  1  0  0  0  0
 35 43  1  1  0  0  0
 35 34  1  0  0  0  0
 36 29  1  1  0  0  0
 36 33  1  0  0  0  0
 37 30  1  0  0  0  0
 39 32  2  0  0  0  0
 40 31  1  0  0  0  0
 40 32  1  0  0  0  0
 43 41  1  0  0  0  0
 43 42  1  0  0  0  0
M  END
>  <MODEL>
1

>  <REMARK>
 VINA RESULT:      -4.7      0.000      0.000
  Name = 
  8 active torsions:
  status: ('A' for Active; 'I' for Inactive)
    1  A    between atoms: C_3  and  C_16
    2  A    between atoms: C_4  and  C_11
    3  A    between atoms: C_9  and  O_18
    4  A    between atoms: C_13  and  O_18
    5  A    between atoms: C_15  and  C_35
    6  A    between atoms: C_22  and  C_37
    7  A    between atoms: C_25  and  C_29
    8  A    between atoms: C_34  and  C_37
                            x       y       z     vdW  Elec       q    Type
                         _______ _______ _______ _____ _____    ______ ____

>  <TORSDO>
F 8

$$$$
=
 OpenBabel11072413353D

 43 48  0  0  1  0  0  0  0  0999 V2000
  160.7780  210.4210  151.8850 C   0  0  1  0  0  3  0  0  0  0  0  0
  161.9620  209.2820  153.7310 C   0  0  0  0  0  2  0  0  0  0  0  0
  161.2680  210.5700  153.3190 C   0  0  2  0  0  3  0  0  0  0  0  0
  162.3140  208.5860  152.4330 C   0  0  2  0  0  3  0  0  0  0  0  0
  161.9340  210.5130  150.9110 C   0  0  0  0  0  2  0  0  0  0  0  0
  161.4200  209.1550  151.3430 C   0  0  2  0  0  3  0  0  0  0  0  0
  160.2590  210.9870  154.2190 O   0  0  0  0  0  0  0  0  0  0  0  0
  160.8020  212.7330  157.1790 C   0  0  0  0  0  2  0  0  0  0  0  0
  160.6670  210.7490  155.5510 C   0  0  2  0  0  3  0  0  0  0  0  0
  159.4720  210.4010  156.4580 C   0  0  1  0  0  3  0  0  0  0  0  0
  158.2950  211.3250  156.1960 C   0  0  0  0  0  0  0  0  0  0  0  0
  158.4530  212.8010  156.3070 C   0  0  0  0  0  0  0  0  0  0  0  0
  157.1570  210.8420  155.7550 C   0  0  0  0  0  0  0  0  0  0  0  0
  157.4750  213.5470  156.0270 O   0  0  0  0  0  0  0  0  0  0  0  0
  161.4900  211.9350  156.0720 C   0  0  2  0  0  3  0  0  0  0  0  0
  159.6550  213.4170  156.6870 O   0  0  0  0  0  0  0  0  0  0  0  0
  156.0840  210.3880  155.3380 O   0  0  0  0  0  0  0  0  0  0  0  0
  159.1580  208.8950  156.4550 C   0  0  2  0  0  3  0  0  0  0  0  0
  159.8300  206.9530  155.2680 C   0  0  0  0  0  2  0  0  0  0  0  0
  160.0730  208.1990  157.2600 O   0  0  0  0  0  0  0  0  0  0  0  0
  159.2560  208.3200  155.0560 C   0  0  0  0  0  2  0  0  0  0  0  0
  160.0840  206.8910  156.7550 C   0  0  0  0  0  2  0  0  0  0  0  0
  162.7810  211.4460  156.5610 C   0  0  0  0  0  0  0  0  0  0  0  0
  163.8420  211.0430  156.9690 C   0  0  0  0  0  3  0  0  0  0  0  0
  162.0780  207.0900  152.5570 C   0  0  0  0  0  2  0  0  0  0  0  0
  160.4440  206.0200  150.9730 C   0  0  0  0  0  3  0  0  0  0  0  0
  160.7030  206.7150  152.0930 C   0  0  0  0  0  3  0  0  0  0  0  0
  161.0790  203.7860  145.7650 C   0  0  0  0  0  0  0  0  0  0  0  0
  163.7540  204.8970  146.0510 C   0  0  0  0  0  2  0  0  0  0  0  0
  161.9580  203.9590  144.6560 N   0  0  0  0  0  2  0  0  0  0  0  0
  161.4730  205.5050  149.9920 C   0  0  1  0  0  3  0  0  0  0  0  0
  162.2340  206.1870  147.6040 C   0  0  0  0  0  0  0  0  0  0  0  0
  161.6810  203.7570  147.1390 C   0  0  2  0  0  3  0  0  0  0  0  0
  160.6350  203.8080  148.2580 C   0  0  0  0  0  2  0  0  0  0  0  0
  161.3240  204.0060  149.6080 C   0  0  2  0  0  3  0  0  0  0  0  0
  162.7930  204.8290  147.2640 C   0  0  1  0  0  3  0  0  0  0  0  0
  163.3950  203.9510  144.8970 C   0  0  0  0  0  2  0  0  0  0  0  0
  159.8420  203.6470  145.5770 O   0  0  0  0  0  0  0  0  0  0  0  0
  162.2720  207.1180  146.7560 O   0  0  0  0  0  0  0  0  0  0  0  0
  161.5780  206.4260  148.8560 N   0  0  0  0  0  2  0  0  0  0  0  0
  161.7710  202.9190  151.8280 C   0  0  0  0  0  1  0  0  0  0  0  0
  160.4000  201.7260  150.1730 C   0  0  0  0  0  1  0  0  0  0  0  0
  160.7560  203.1010  150.7130 C   0  0  0  0  0  3  0  0  0  0  0  0
  1  5  1  6  0  0  0
  1  3  1  0  0  0  0
  3  2  1  0  0  0  0
  3  7  1  1  0  0  0
  4 25  1  1  0  0  0
  4  2  1  0  0  0  0
  6  5  1  6  0  0  0
  6  1  1  0  0  0  0
  6  4  1  0  0  0  0
  9  7  1  6  0  0  0
  9 15  1  0  0  0  0
  9 10  1  0  0  0  0
 10 11  1  6  0  0  0
 11 12  1  0  0  0  0
 12 16  1  0  0  0  0
 13 11  2  0  0  0  0
 14 12  2  0  0  0  0
 15 23  1  1  0  0  0
 15  8  1  0  0  0  0
 16  8  1  0  0  0  0
 17 13  2  0  0  0  0
 18 21  1  6  0  0  0
 18 10  1  0  0  0  0
 18 20  1  0  0  0  0
 19 22  1  0  0  0  0
 21 19  1  0  0  0  0
 22 20  1  0  0  0  0
 23 24  3  0  0  0  0
 26 27  2  0  0  0  0
 27 25  1  0  0  0  0
 28 33  1  0  0  0  0
 30 37  1  0  0  0  0
 30 28  1  0  0  0  0
 31 26  1  6  0  0  0
 32 40  1  0  0  0  0
 33 36  1  0  0  0  0
 33 34  1  1  0  0  0
 34 35  1  0  0  0  0
 35 31  1  0  0  0  0
 35 43  1  1  0  0  0
 36 29  1  6  0  0  0
 36 32  1  0  0  0  0
 37 29  1  0  0  0  0
 38 28  2  0  0  0  0
 39 32  2  0  0  0  0
 40 31  1  0  0  0  0
 42 43  1  0  0  0  0
 43 41  1  0  0  0  0
M  END
>  <MODEL>
2

>  <REMARK>
 VINA RESULT:      -4.3      2.784     10.177
  Name = 
  8 active torsions:
  status: ('A' for Active; 'I' for Inactive)
    1  A    between atoms: C_3  and  C_16
    2  A    between atoms: C_4  and  C_11
    3  A    between atoms: C_9  and  O_18
    4  A    between atoms: C_13  and  O_18
    5  A    between atoms: C_15  and  C_35
    6  A    between atoms: C_22  and  C_37
    7  A    between atoms: C_25  and  C_29
    8  A    between atoms: C_34  and  C_37
                            x       y       z     vdW  Elec       q    Type
                         _______ _______ _______ _____ _____    ______ ____

>  <TORSDO>
F 8

$$$$
=
 OpenBabel11072413353D

 43 48  0  0  1  0  0  0  0  0999 V2000
  160.2070  211.7200  151.7830 C   0  0  1  0  0  3  0  0  0  0  0  0
  161.7530  210.2980  153.0860 C   0  0  0  0  0  2  0  0  0  0  0  0
  160.7740  211.4570  153.1710 C   0  0  2  0  0  3  0  0  0  0  0  0
  162.1340  210.2050  151.6220 C   0  0  2  0  0  3  0  0  0  0  0  0
  161.2340  212.4080  150.9070 C   0  0  0  0  0  2  0  0  0  0  0  0
  161.0520  210.9070  150.8160 C   0  0  2  0  0  3  0  0  0  0  0  0
  159.7790  211.2900  154.1630 O   0  0  0  0  0  0  0  0  0  0  0  0
  160.5990  212.6460  157.2600 C   0  0  0  0  0  2  0  0  0  0  0  0
  160.3720  210.9030  155.3860 C   0  0  2  0  0  3  0  0  0  0  0  0
  159.3290  210.3400  156.3700 C   0  0  1  0  0  3  0  0  0  0  0  0
  158.0740  211.1960  156.3920 C   0  0  0  0  0  0  0  0  0  0  0  0
  158.1560  212.6500  156.7000 C   0  0  0  0  0  0  0  0  0  0  0  0
  156.9200  210.6920  156.0250 C   0  0  0  0  0  0  0  0  0  0  0  0
  157.1070  213.3500  156.6530 O   0  0  0  0  0  0  0  0  0  0  0  0
  161.1830  212.0660  155.9730 C   0  0  2  0  0  3  0  0  0  0  0  0
  159.3590  213.3000  157.0170 O   0  0  0  0  0  0  0  0  0  0  0  0
  155.8310  210.2170  155.6790 O   0  0  0  0  0  0  0  0  0  0  0  0
  159.1080  208.8290  156.1840 C   0  0  2  0  0  3  0  0  0  0  0  0
  160.2750  206.9730  155.2740 C   0  0  0  0  0  2  0  0  0  0  0  0
  159.6680  208.1130  157.2530 O   0  0  0  0  0  0  0  0  0  0  0  0
  159.7670  208.3350  154.9110 C   0  0  0  0  0  2  0  0  0  0  0  0
  159.9330  206.8360  156.7390 C   0  0  0  0  0  2  0  0  0  0  0  0
  162.5540  211.6160  156.2250 C   0  0  0  0  0  0  0  0  0  0  0  0
  163.6830  211.2420  156.4280 C   0  0  0  0  0  3  0  0  0  0  0  0
  162.2260  208.7500  151.1950 C   0  0  0  0  0  2  0  0  0  0  0  0
  160.6270  206.8130  151.0690 C   0  0  0  0  0  3  0  0  0  0  0  0
  161.0090  207.9810  151.6120 C   0  0  0  0  0  3  0  0  0  0  0  0
  160.2640  202.2970  147.6060 C   0  0  0  0  0  0  0  0  0  0  0  0
  162.0280  203.9220  145.9580 C   0  0  0  0  0  2  0  0  0  0  0  0
  160.4920  202.0200  146.2270 N   0  0  0  0  0  2  0  0  0  0  0  0
  161.3390  206.0790  149.9550 C   0  0  1  0  0  3  0  0  0  0  0  0
  160.7730  205.4920  147.4890 C   0  0  0  0  0  0  0  0  0  0  0  0
  161.2660  203.1500  148.3260 C   0  0  2  0  0  3  0  0  0  0  0  0
  160.8030  203.5790  149.7210 C   0  0  0  0  0  2  0  0  0  0  0  0
  161.7640  204.6220  150.2920 C   0  0  2  0  0  3  0  0  0  0  0  0
  161.7230  204.3240  147.4220 C   0  0  1  0  0  3  0  0  0  0  0  0
  161.7490  202.4500  145.6280 C   0  0  0  0  0  2  0  0  0  0  0  0
  159.2550  201.8190  148.1890 O   0  0  0  0  0  0  0  0  0  0  0  0
  160.0680  205.7940  146.4890 O   0  0  0  0  0  0  0  0  0  0  0  0
  160.5890  206.2290  148.7040 N   0  0  0  0  0  2  0  0  0  0  0  0
  160.8610  204.2270  152.6020 C   0  0  0  0  0  1  0  0  0  0  0  0
  162.9380  205.5140  152.3410 C   0  0  0  0  0  1  0  0  0  0  0  0
  162.1200  204.3700  151.7660 C   0  0  0  0  0  3  0  0  0  0  0  0
  1  5  1  6  0  0  0
  1  3  1  0  0  0  0
  2  3  1  0  0  0  0
  3  7  1  1  0  0  0
  4 25  1  6  0  0  0
  4  2  1  0  0  0  0
  6  5  1  6  0  0  0
  6  4  1  0  0  0  0
  6  1  1  0  0  0  0
  9  7  1  6  0  0  0
  9 15  1  0  0  0  0
  9 10  1  0  0  0  0
 10 11  1  6  0  0  0
 11 12  1  0  0  0  0
 12 16  1  0  0  0  0
 13 11  2  0  0  0  0
 14 12  2  0  0  0  0
 15 23  1  1  0  0  0
 15  8  1  0  0  0  0
 16  8  1  0  0  0  0
 17 13  2  0  0  0  0
 18 21  1  6  0  0  0
 18 10  1  0  0  0  0
 18 20  1  0  0  0  0
 19 22  1  0  0  0  0
 21 19  1  0  0  0  0
 22 20  1  0  0  0  0
 23 24  3  0  0  0  0
 25 27  1  0  0  0  0
 26 27  2  0  0  0  0
 28 38  2  0  0  0  0
 28 33  1  0  0  0  0
 30 28  1  0  0  0  0
 31 35  1  0  0  0  0
 31 26  1  1  0  0  0
 32 40  1  0  0  0  0
 33 34  1  1  0  0  0
 34 35  1  0  0  0  0
 35 43  1  1  0  0  0
 36 29  1  6  0  0  0
 36 32  1  0  0  0  0
 36 33  1  0  0  0  0
 37 29  1  0  0  0  0
 37 30  1  0  0  0  0
 39 32  2  0  0  0  0
 40 31  1  0  0  0  0
 43 42  1  0  0  0  0
 43 41  1  0  0  0  0
M  END
>  <MODEL>
3

>  <REMARK>
 VINA RESULT:      -4.1      2.721      9.972
  Name = 
  8 active torsions:
  status: ('A' for Active; 'I' for Inactive)
    1  A    between atoms: C_3  and  C_16
    2  A    between atoms: C_4  and  C_11
    3  A    between atoms: C_9  and  O_18
    4  A    between atoms: C_13  and  O_18
    5  A    between atoms: C_15  and  C_35
    6  A    between atoms: C_22  and  C_37
    7  A    between atoms: C_25  and  C_29
    8  A    between atoms: C_34  and  C_37
                            x       y       z     vdW  Elec       q    Type
                         _______ _______ _______ _____ _____    ______ ____

>  <TORSDO>
F 8

$$$$
=
 OpenBabel11072413353D

 43 48  0  0  1  0  0  0  0  0999 V2000
  160.6270  211.4170  153.7740 C   0  0  1  0  0  3  0  0  0  0  0  0
  159.1000  209.5840  154.4190 C   0  0  0  0  0  2  0  0  0  0  0  0
  159.2410  211.0940  154.3150 C   0  0  2  0  0  3  0  0  0  0  0  0
  160.5170  209.0500  154.4200 C   0  0  2  0  0  3  0  0  0  0  0  0
  161.6810  211.2040  154.8420 C   0  0  0  0  0  2  0  0  0  0  0  0
  161.4170  210.1190  153.8190 C   0  0  2  0  0  3  0  0  0  0  0  0
  158.1960  211.7160  153.5920 O   0  0  0  0  0  0  0  0  0  0  0  0
  157.1830  214.3550  151.5650 C   0  0  0  0  0  2  0  0  0  0  0  0
  158.5100  213.0720  153.3530 C   0  0  2  0  0  3  0  0  0  0  0  0
  157.7090  214.0120  154.2730 C   0  0  1  0  0  3  0  0  0  0  0  0
  156.2510  213.5910  154.3540 C   0  0  0  0  0  0  0  0  0  0  0  0
  155.4310  213.4610  153.1190 C   0  0  0  0  0  0  0  0  0  0  0  0
  155.7290  213.2230  155.5000 C   0  0  0  0  0  0  0  0  0  0  0  0
  154.2410  213.0530  153.2100 O   0  0  0  0  0  0  0  0  0  0  0  0
  158.3380  213.4000  151.8630 C   0  0  2  0  0  3  0  0  0  0  0  0
  155.9260  213.7470  151.8370 O   0  0  0  0  0  0  0  0  0  0  0  0
  155.2360  212.8760  156.5810 O   0  0  0  0  0  0  0  0  0  0  0  0
  158.4150  214.2530  155.6180 C   0  0  2  0  0  3  0  0  0  0  0  0
  159.5640  212.9820  157.2610 C   0  0  0  0  0  2  0  0  0  0  0  0
  159.7900  214.4520  155.4240 O   0  0  0  0  0  0  0  0  0  0  0  0
  158.2540  213.0590  156.5390 C   0  0  0  0  0  2  0  0  0  0  0  0
  160.3870  214.0850  156.6390 C   0  0  0  0  0  2  0  0  0  0  0  0
  159.5840  213.9760  151.3520 C   0  0  0  0  0  0  0  0  0  0  0  0
  160.6100  214.4480  150.9260 C   0  0  0  0  0  3  0  0  0  0  0  0
  160.6020  207.7830  153.5850 C   0  0  0  0  0  2  0  0  0  0  0  0
  162.2090  206.7950  151.9220 C   0  0  0  0  0  3  0  0  0  0  0  0
  161.9340  207.6660  152.9060 C   0  0  0  0  0  3  0  0  0  0  0  0
  161.6590  202.8100  147.8800 C   0  0  0  0  0  0  0  0  0  0  0  0
  159.6190  201.8140  149.7020 C   0  0  0  0  0  2  0  0  0  0  0  0
  161.1200  201.4940  147.7790 N   0  0  0  0  0  2  0  0  0  0  0  0
  161.2460  205.7880  151.3350 C   0  0  1  0  0  3  0  0  0  0  0  0
  161.2290  203.2050  151.0640 C   0  0  0  0  0  0  0  0  0  0  0  0
  160.8670  203.8360  148.6360 C   0  0  2  0  0  3  0  0  0  0  0  0
  161.6430  205.1340  148.8840 C   0  0  0  0  0  2  0  0  0  0  0  0
  160.8640  206.0300  149.8470 C   0  0  2  0  0  3  0  0  0  0  0  0
  160.2550  203.2100  149.9150 C   0  0  1  0  0  3  0  0  0  0  0  0
  159.7750  201.2510  148.2830 C   0  0  0  0  0  2  0  0  0  0  0  0
  162.7580  203.0880  147.3310 O   0  0  0  0  0  0  0  0  0  0  0  0
  161.7020  202.1160  151.4890 O   0  0  0  0  0  0  0  0  0  0  0  0
  161.7020  204.4280  151.6420 N   0  0  0  0  0  2  0  0  0  0  0  0
  161.1210  207.6250  147.9240 C   0  0  0  0  0  1  0  0  0  0  0  0
  161.8830  208.3190  150.1550 C   0  0  0  0  0  1  0  0  0  0  0  0
  160.8380  207.5040  149.4110 C   0  0  0  0  0  3  0  0  0  0  0  0
  1  6  1  0  0  0  0
  1  3  1  0  0  0  0
  1  5  1  1  0  0  0
  2  4  1  0  0  0  0
  3  7  1  6  0  0  0
  3  2  1  0  0  0  0
  4 25  1  6  0  0  0
  6  4  1  0  0  0  0
  6  5  1  1  0  0  0
  8 16  1  0  0  0  0
  8 15  1  0  0  0  0
  9  7  1  6  0  0  0
  9 10  1  0  0  0  0
 10 11  1  1  0  0  0
 10 18  1  0  0  0  0
 11 13  2  0  0  0  0
 12 14  2  0  0  0  0
 12 11  1  0  0  0  0
 13 17  2  0  0  0  0
 15 23  1  1  0  0  0
 15  9  1  0  0  0  0
 16 12  1  0  0  0  0
 18 21  1  1  0  0  0
 20 18  1  0  0  0  0
 20 22  1  0  0  0  0
 21 19  1  0  0  0  0
 22 19  1  0  0  0  0
 24 23  3  0  0  0  0
 26 27  2  0  0  0  0
 27 25  1  0  0  0  0
 28 33  1  0  0  0  0
 30 28  1  0  0  0  0
 30 37  1  0  0  0  0
 31 40  1  0  0  0  0
 31 26  1  6  0  0  0
 32 39  2  0  0  0  0
 32 40  1  0  0  0  0
 33 34  1  1  0  0  0
 33 36  1  0  0  0  0
 34 35  1  0  0  0  0
 35 43  1  6  0  0  0
 35 31  1  0  0  0  0
 36 29  1  6  0  0  0
 36 32  1  0  0  0  0
 37 29  1  0  0  0  0
 38 28  2  0  0  0  0
 41 43  1  0  0  0  0
 43 42  1  0  0  0  0
M  END
>  <MODEL>
4

>  <REMARK>
 VINA RESULT:      -3.7      2.843     10.763
  Name = 
  8 active torsions:
  status: ('A' for Active; 'I' for Inactive)
    1  A    between atoms: C_3  and  C_16
    2  A    between atoms: C_4  and  C_11
    3  A    between atoms: C_9  and  O_18
    4  A    between atoms: C_13  and  O_18
    5  A    between atoms: C_15  and  C_35
    6  A    between atoms: C_22  and  C_37
    7  A    between atoms: C_25  and  C_29
    8  A    between atoms: C_34  and  C_37
                            x       y       z     vdW  Elec       q    Type
                         _______ _______ _______ _____ _____    ______ ____

>  <TORSDO>
F 8

$$$$
=
 OpenBabel11072413353D

 43 48  0  0  1  0  0  0  0  0999 V2000
  160.6370  209.5070  151.6670 C   0  0  1  0  0  3  0  0  0  0  0  0
  162.5290  208.6490  153.0040 C   0  0  0  0  0  2  0  0  0  0  0  0
  161.7540  209.8990  152.6250 C   0  0  2  0  0  3  0  0  0  0  0  0
  162.2070  207.6360  151.9250 C   0  0  2  0  0  3  0  0  0  0  0  0
  161.1940  209.2080  150.2890 C   0  0  0  0  0  2  0  0  0  0  0  0
  160.9150  208.0710  151.2510 C   0  0  2  0  0  3  0  0  0  0  0  0
  161.3030  210.6490  153.7370 O   0  0  0  0  0  0  0  0  0  0  0  0
  160.6010  209.4250  156.9160 C   0  0  0  0  0  2  0  0  0  0  0  0
  160.2870  209.9440  154.4190 C   0  0  2  0  0  3  0  0  0  0  0  0
  159.2260  210.8970  155.0020 C   0  0  1  0  0  3  0  0  0  0  0  0
  159.8740  212.0980  155.6700 C   0  0  0  0  0  0  0  0  0  0  0  0
  160.8710  211.9110  156.7590 C   0  0  0  0  0  0  0  0  0  0  0  0
  159.6520  213.3100  155.2180 C   0  0  0  0  0  0  0  0  0  0  0  0
  161.4370  212.9240  157.2560 O   0  0  0  0  0  0  0  0  0  0  0  0
  160.9030  209.0160  155.4750 C   0  0  2  0  0  3  0  0  0  0  0  0
  161.2400  210.6500  157.2520 O   0  0  0  0  0  0  0  0  0  0  0  0
  159.4430  214.4530  154.7910 O   0  0  0  0  0  0  0  0  0  0  0  0
  158.1080  211.2120  153.9920 C   0  0  2  0  0  3  0  0  0  0  0  0
  156.5230  212.9320  153.5920 C   0  0  0  0  0  2  0  0  0  0  0  0
  158.5990  212.0060  152.9450 O   0  0  0  0  0  0  0  0  0  0  0  0
  156.9780  211.9760  154.6520 C   0  0  0  0  0  2  0  0  0  0  0  0
  157.4790  212.6880  152.4490 C   0  0  0  0  0  2  0  0  0  0  0  0
  160.4260  207.6500  155.2510 C   0  0  0  0  0  0  0  0  0  0  0  0
  160.0330  206.5240  155.0710 C   0  0  0  0  0  3  0  0  0  0  0  0
  162.0230  206.2570  152.5350 C   0  0  0  0  0  2  0  0  0  0  0  0
  160.4410  205.0220  151.0200 C   0  0  0  0  0  3  0  0  0  0  0  0
  160.6930  205.6700  152.1690 C   0  0  0  0  0  3  0  0  0  0  0  0
  160.8680  203.8380  145.4580 C   0  0  0  0  0  0  0  0  0  0  0  0
  163.4800  205.0750  145.8040 C   0  0  0  0  0  2  0  0  0  0  0  0
  161.6580  204.2780  144.3570 N   0  0  0  0  0  2  0  0  0  0  0  0
  161.4330  204.7750  149.9060 C   0  0  1  0  0  3  0  0  0  0  0  0
  161.9890  205.9390  147.6520 C   0  0  0  0  0  0  0  0  0  0  0  0
  161.5610  203.6020  146.7680 C   0  0  2  0  0  3  0  0  0  0  0  0
  160.5910  203.3680  147.9310 C   0  0  0  0  0  2  0  0  0  0  0  0
  161.3540  203.3650  149.2550 C   0  0  2  0  0  3  0  0  0  0  0  0
  162.6090  204.7130  147.0330 C   0  0  1  0  0  3  0  0  0  0  0  0
  163.1060  204.3330  144.5140 C   0  0  0  0  0  2  0  0  0  0  0  0
  159.6320  203.6440  145.3130 O   0  0  0  0  0  0  0  0  0  0  0  0
  161.9110  207.0110  146.9940 O   0  0  0  0  0  0  0  0  0  0  0  0
  161.4040  205.8940  148.9590 N   0  0  0  0  0  2  0  0  0  0  0  0
  161.7860  202.2140  151.4450 C   0  0  0  0  0  1  0  0  0  0  0  0
  161.0370  200.8750  149.5250 C   0  0  0  0  0  1  0  0  0  0  0  0
  160.9190  202.2320  150.1990 C   0  0  0  0  0  3  0  0  0  0  0  0
  1  5  1  6  0  0  0
  1  3  1  0  0  0  0
  3  2  1  0  0  0  0
  3  7  1  1  0  0  0
  4 25  1  1  0  0  0
  4  2  1  0  0  0  0
  6  5  1  6  0  0  0
  6  1  1  0  0  0  0
  6  4  1  0  0  0  0
  8 16  1  0  0  0  0
  9  7  1  1  0  0  0
  9 10  1  0  0  0  0
  9 15  1  0  0  0  0
 10 11  1  6  0  0  0
 11 12  1  0  0  0  0
 12 16  1  0  0  0  0
 12 14  2  0  0  0  0
 13 11  2  0  0  0  0
 15 23  1  6  0  0  0
 15  8  1  0  0  0  0
 17 13  2  0  0  0  0
 18 21  1  1  0  0  0
 18 10  1  0  0  0  0
 19 21  1  0  0  0  0
 20 18  1  0  0  0  0
 22 20  1  0  0  0  0
 22 19  1  0  0  0  0
 24 23  3  0  0  0  0
 26 27  2  0  0  0  0
 27 25  1  0  0  0  0
 28 33  1  0  0  0  0
 30 37  1  0  0  0  0
 30 28  1  0  0  0  0
 31 26  1  1  0  0  0
 32 40  1  0  0  0  0
 33 36  1  0  0  0  0
 33 34  1  1  0  0  0
 34 35  1  0  0  0  0
 35 31  1  0  0  0  0
 35 43  1  1  0  0  0
 36 29  1  6  0  0  0
 36 32  1  0  0  0  0
 37 29  1  0  0  0  0
 38 28  2  0  0  0  0
 39 32  2  0  0  0  0
 40 31  1  0  0  0  0
 42 43  1  0  0  0  0
 43 41  1  0  0  0  0
M  END
>  <MODEL>
5

>  <REMARK>
 VINA RESULT:      -3.5      2.767     10.188
  Name = 
  8 active torsions:
  status: ('A' for Active; 'I' for Inactive)
    1  A    between atoms: C_3  and  C_16
    2  A    between atoms: C_4  and  C_11
    3  A    between atoms: C_9  and  O_18
    4  A    between atoms: C_13  and  O_18
    5  A    between atoms: C_15  and  C_35
    6  A    between atoms: C_22  and  C_37
    7  A    between atoms: C_25  and  C_29
    8  A    between atoms: C_34  and  C_37
                            x       y       z     vdW  Elec       q    Type
                         _______ _______ _______ _____ _____    ______ ____

>  <TORSDO>
F 8

$$$$
=
 OpenBabel11072413353D

 43 48  0  0  1  0  0  0  0  0999 V2000
  160.1050  210.1840  151.8250 C   0  0  1  0  0  3  0  0  0  0  0  0
  160.9990  209.3790  153.9830 C   0  0  0  0  0  2  0  0  0  0  0  0
  160.1600  210.4590  153.3210 C   0  0  2  0  0  3  0  0  0  0  0  0
  161.8260  208.7760  152.8670 C   0  0  2  0  0  3  0  0  0  0  0  0
  161.4220  210.5410  151.1660 C   0  0  0  0  0  2  0  0  0  0  0  0
  161.1390  209.1040  151.5510 C   0  0  2  0  0  3  0  0  0  0  0  0
  158.8840  210.6300  153.9090 O   0  0  0  0  0  0  0  0  0  0  0  0
  159.9240  213.6300  155.3310 C   0  0  0  0  0  2  0  0  0  0  0  0
  159.0120  211.2320  155.1810 C   0  0  2  0  0  3  0  0  0  0  0  0
  157.7190  211.9580  155.5980 C   0  0  1  0  0  3  0  0  0  0  0  0
  157.1470  212.7680  154.4470 C   0  0  0  0  0  0  0  0  0  0  0  0
  157.9730  213.8030  153.7660 C   0  0  0  0  0  0  0  0  0  0  0  0
  155.9610  212.4880  153.9620 C   0  0  0  0  0  0  0  0  0  0  0  0
  157.4940  214.4190  152.7750 O   0  0  0  0  0  0  0  0  0  0  0  0
  160.2480  212.1410  155.2140 C   0  0  2  0  0  3  0  0  0  0  0  0
  159.2850  214.1140  154.1550 O   0  0  0  0  0  0  0  0  0  0  0  0
  154.8420  212.2230  153.5050 O   0  0  0  0  0  0  0  0  0  0  0  0
  156.7320  211.0230  156.3180 C   0  0  2  0  0  3  0  0  0  0  0  0
  154.4890  211.0820  157.0910 C   0  0  0  0  0  2  0  0  0  0  0  0
  155.9440  210.3290  155.3880 O   0  0  0  0  0  0  0  0  0  0  0  0
  155.7940  211.8080  157.2130 C   0  0  0  0  0  2  0  0  0  0  0  0
  154.7700  209.9960  156.0800 C   0  0  0  0  0  2  0  0  0  0  0  0
  161.1050  211.7450  156.3340 C   0  0  0  0  0  0  0  0  0  0  0  0
  161.8100  211.4230  157.2590 C   0  0  0  0  0  3  0  0  0  0  0  0
  161.9150  207.2680  153.0340 C   0  0  0  0  0  2  0  0  0  0  0  0
  160.3120  205.8870  151.6760 C   0  0  0  0  0  3  0  0  0  0  0  0
  160.5940  206.6110  152.7710 C   0  0  0  0  0  3  0  0  0  0  0  0
  160.8180  203.0640  146.7470 C   0  0  0  0  0  0  0  0  0  0  0  0
  162.7980  205.1320  146.2270 C   0  0  0  0  0  2  0  0  0  0  0  0
  161.3210  203.3300  145.4400 N   0  0  0  0  0  2  0  0  0  0  0  0
  161.2560  205.6120  150.5280 C   0  0  1  0  0  3  0  0  0  0  0  0
  161.2050  206.0380  147.9670 C   0  0  0  0  0  0  0  0  0  0  0  0
  161.6250  203.5380  147.9200 C   0  0  2  0  0  3  0  0  0  0  0  0
  160.8820  203.4140  149.2540 C   0  0  0  0  0  2  0  0  0  0  0  0
  161.6690  204.1220  150.3570 C   0  0  2  0  0  3  0  0  0  0  0  0
  162.1980  204.9520  147.6440 C   0  0  1  0  0  3  0  0  0  0  0  0
  162.6510  203.9110  145.3100 C   0  0  0  0  0  2  0  0  0  0  0  0
  159.7360  202.4350  146.8930 O   0  0  0  0  0  0  0  0  0  0  0  0
  160.6960  206.7260  147.0420 O   0  0  0  0  0  0  0  0  0  0  0  0
  160.7570  206.2580  149.3100 N   0  0  0  0  0  2  0  0  0  0  0  0
  162.6660  202.1160  151.4930 C   0  0  0  0  0  1  0  0  0  0  0  0
  160.3740  202.7920  152.0670 C   0  0  0  0  0  1  0  0  0  0  0  0
  161.7430  203.3100  151.6600 C   0  0  0  0  0  3  0  0  0  0  0  0
  1  5  1  6  0  0  0
  1  3  1  0  0  0  0
  3  7  1  1  0  0  0
  3  2  1  0  0  0  0
  4 25  1  1  0  0  0
  4  2  1  0  0  0  0
  6  5  1  6  0  0  0
  6  1  1  0  0  0  0
  6  4  1  0  0  0  0
  9  7  1  6  0  0  0
  9 15  1  0  0  0  0
  9 10  1  0  0  0  0
 10 11  1  6  0  0  0
 10 18  1  0  0  0  0
 12 16  1  0  0  0  0
 12 11  1  0  0  0  0
 13 11  2  0  0  0  0
 14 12  2  0  0  0  0
 15  8  1  0  0  0  0
 15 23  1  1  0  0  0
 16  8  1  0  0  0  0
 17 13  2  0  0  0  0
 18 21  1  1  0  0  0
 19 21  1  0  0  0  0
 20 22  1  0  0  0  0
 20 18  1  0  0  0  0
 22 19  1  0  0  0  0
 23 24  3  0  0  0  0
 26 27  2  0  0  0  0
 27 25  1  0  0  0  0
 28 38  2  0  0  0  0
 28 33  1  0  0  0  0
 30 28  1  0  0  0  0
 31 26  1  1  0  0  0
 32 40  1  0  0  0  0
 33 34  1  1  0  0  0
 34 35  1  0  0  0  0
 35 31  1  0  0  0  0
 35 43  1  1  0  0  0
 36 29  1  6  0  0  0
 36 33  1  0  0  0  0
 36 32  1  0  0  0  0
 37 30  1  0  0  0  0
 37 29  1  0  0  0  0
 39 32  2  0  0  0  0
 40 31  1  0  0  0  0
 41 43  1  0  0  0  0
 43 42  1  0  0  0  0
M  END
>  <MODEL>
6

>  <REMARK>
 VINA RESULT:      -3.4      2.586     10.493
  Name = 
  8 active torsions:
  status: ('A' for Active; 'I' for Inactive)
    1  A    between atoms: C_3  and  C_16
    2  A    between atoms: C_4  and  C_11
    3  A    between atoms: C_9  and  O_18
    4  A    between atoms: C_13  and  O_18
    5  A    between atoms: C_15  and  C_35
    6  A    between atoms: C_22  and  C_37
    7  A    between atoms: C_25  and  C_29
    8  A    between atoms: C_34  and  C_37
                            x       y       z     vdW  Elec       q    Type
                         _______ _______ _______ _____ _____    ______ ____

>  <TORSDO>
F 8

$$$$
=
 OpenBabel11072413353D

 43 48  0  0  1  0  0  0  0  0999 V2000
  160.9920  208.6270  150.9230 C   0  0  1  0  0  3  0  0  0  0  0  0
  161.5210  207.9050  153.2270 C   0  0  0  0  0  2  0  0  0  0  0  0
  161.0500  209.0740  152.3780 C   0  0  2  0  0  3  0  0  0  0  0  0
  162.1990  206.9570  152.2590 C   0  0  2  0  0  3  0  0  0  0  0  0
  162.3860  208.5220  150.3390 C   0  0  0  0  0  2  0  0  0  0  0  0
  161.6940  207.2800  150.8620 C   0  0  2  0  0  3  0  0  0  0  0  0
  159.8460  209.6610  152.8340 O   0  0  0  0  0  0  0  0  0  0  0  0
  158.0220  212.5590  153.4450 C   0  0  0  0  0  2  0  0  0  0  0  0
  160.0590  211.0210  153.1530 C   0  0  2  0  0  3  0  0  0  0  0  0
  160.1370  211.2420  154.6760 C   0  0  1  0  0  3  0  0  0  0  0  0
  159.0460  210.4720  155.4000 C   0  0  0  0  0  0  0  0  0  0  0  0
  157.6150  210.6770  155.0490 C   0  0  0  0  0  0  0  0  0  0  0  0
  159.3570  209.5320  156.2610 C   0  0  0  0  0  0  0  0  0  0  0  0
  156.7340  209.9810  155.6240 O   0  0  0  0  0  0  0  0  0  0  0  0
  158.9980  211.8960  152.4740 C   0  0  2  0  0  3  0  0  0  0  0  0
  157.1880  211.5960  154.0780 O   0  0  0  0  0  0  0  0  0  0  0  0
  159.6500  208.6450  157.0740 O   0  0  0  0  0  0  0  0  0  0  0  0
  161.5650  211.0580  155.2190 C   0  0  2  0  0  3  0  0  0  0  0  0
  162.7410  211.4160  157.2490 C   0  0  0  0  0  2  0  0  0  0  0  0
  161.6900  209.8170  155.8630 O   0  0  0  0  0  0  0  0  0  0  0  0
  161.9050  212.1320  156.2330 C   0  0  0  0  0  2  0  0  0  0  0  0
  162.7430  209.9830  156.7740 C   0  0  0  0  0  2  0  0  0  0  0  0
  159.6650  212.9300  151.6790 C   0  0  0  0  0  0  0  0  0  0  0  0
  160.2140  213.7790  151.0210 C   0  0  0  0  0  3  0  0  0  0  0  0
  161.8550  205.5180  152.6050 C   0  0  0  0  0  2  0  0  0  0  0  0
  160.2200  204.6860  150.8860 C   0  0  0  0  0  3  0  0  0  0  0  0
  160.4860  205.1510  152.1170 C   0  0  0  0  0  3  0  0  0  0  0  0
  160.7830  204.0440  145.2470 C   0  0  0  0  0  0  0  0  0  0  0  0
  163.4830  204.9720  145.8140 C   0  0  0  0  0  2  0  0  0  0  0  0
  161.6610  204.5130  144.2270 N   0  0  0  0  0  2  0  0  0  0  0  0
  161.2330  204.4570  149.7870 C   0  0  1  0  0  3  0  0  0  0  0  0
  161.9990  205.7860  147.6900 C   0  0  0  0  0  0  0  0  0  0  0  0
  161.3900  203.6060  146.5480 C   0  0  2  0  0  3  0  0  0  0  0  0
  160.3500  203.3520  147.6440 C   0  0  0  0  0  2  0  0  0  0  0  0
  161.0500  203.1370  148.9860 C   0  0  2  0  0  3  0  0  0  0  0  0
  162.5260  204.5740  146.9660 C   0  0  1  0  0  3  0  0  0  0  0  0
  163.0980  204.4070  144.4400 C   0  0  0  0  0  2  0  0  0  0  0  0
  159.5420  203.9900  145.0400 O   0  0  0  0  0  0  0  0  0  0  0  0
  162.0540  206.9220  147.1480 O   0  0  0  0  0  0  0  0  0  0  0  0
  161.3540  205.6660  148.9640 N   0  0  0  0  0  2  0  0  0  0  0  0
  161.5440  200.9370  150.0930 C   0  0  0  0  0  1  0  0  0  0  0  0
  159.3580  201.2630  149.0180 C   0  0  0  0  0  1  0  0  0  0  0  0
  160.4660  201.9620  149.7880 C   0  0  0  0  0  3  0  0  0  0  0  0
  1  5  1  6  0  0  0
  1  3  1  0  0  0  0
  3  7  1  1  0  0  0
  3  2  1  0  0  0  0
  4 25  1  1  0  0  0
  4  2  1  0  0  0  0
  6  5  1  6  0  0  0
  6  1  1  0  0  0  0
  6  4  1  0  0  0  0
  8 16  1  0  0  0  0
  9  7  1  1  0  0  0
  9 10  1  0  0  0  0
 10 18  1  0  0  0  0
 10 11  1  1  0  0  0
 11 13  2  0  0  0  0
 12 11  1  0  0  0  0
 12 14  2  0  0  0  0
 13 17  2  0  0  0  0
 15 23  1  1  0  0  0
 15  9  1  0  0  0  0
 15  8  1  0  0  0  0
 16 12  1  0  0  0  0
 18 20  1  0  0  0  0
 18 21  1  1  0  0  0
 20 22  1  0  0  0  0
 21 19  1  0  0  0  0
 22 19  1  0  0  0  0
 24 23  3  0  0  0  0
 26 27  2  0  0  0  0
 27 25  1  0  0  0  0
 28 33  1  0  0  0  0
 30 37  1  0  0  0  0
 30 28  1  0  0  0  0
 31 26  1  1  0  0  0
 32 40  1  0  0  0  0
 33 36  1  0  0  0  0
 33 34  1  1  0  0  0
 34 35  1  0  0  0  0
 35 31  1  0  0  0  0
 35 43  1  1  0  0  0
 36 29  1  6  0  0  0
 36 32  1  0  0  0  0
 37 29  1  0  0  0  0
 38 28  2  0  0  0  0
 39 32  2  0  0  0  0
 40 31  1  0  0  0  0
 42 43  1  0  0  0  0
 43 41  1  0  0  0  0
M  END
>  <MODEL>
7

>  <REMARK>
 VINA RESULT:      -3.4      2.924     10.121
  Name = 
  8 active torsions:
  status: ('A' for Active; 'I' for Inactive)
    1  A    between atoms: C_3  and  C_16
    2  A    between atoms: C_4  and  C_11
    3  A    between atoms: C_9  and  O_18
    4  A    between atoms: C_13  and  O_18
    5  A    between atoms: C_15  and  C_35
    6  A    between atoms: C_22  and  C_37
    7  A    between atoms: C_25  and  C_29
    8  A    between atoms: C_34  and  C_37
                            x       y       z     vdW  Elec       q    Type
                         _______ _______ _______ _____ _____    ______ ____

>  <TORSDO>
F 8

$$$$
=
 OpenBabel11072413353D

 43 48  0  0  1  0  0  0  0  0999 V2000
  161.2040  211.5880  150.8950 C   0  0  1  0  0  3  0  0  0  0  0  0
  162.6940  209.6200  151.0130 C   0  0  0  0  0  2  0  0  0  0  0  0
  162.2770  210.8960  151.7250 C   0  0  2  0  0  3  0  0  0  0  0  0
  162.2550  209.8040  149.5750 C   0  0  2  0  0  3  0  0  0  0  0  0
  161.8140  212.2470  149.6740 C   0  0  0  0  0  2  0  0  0  0  0  0
  161.1780  210.8780  149.5510 C   0  0  2  0  0  3  0  0  0  0  0  0
  161.9030  210.6990  153.0750 O   0  0  0  0  0  0  0  0  0  0  0  0
  160.8770  207.9340  154.9200 C   0  0  0  0  0  2  0  0  0  0  0  0
  160.8170  209.7980  153.1530 C   0  0  2  0  0  3  0  0  0  0  0  0
  159.7130  210.3180  154.0930 C   0  0  1  0  0  3  0  0  0  0  0  0
  160.3030  210.8830  155.3740 C   0  0  0  0  0  0  0  0  0  0  0  0
  161.1850  210.0460  156.2330 C   0  0  0  0  0  0  0  0  0  0  0  0
  160.1390  212.1480  155.6800 C   0  0  0  0  0  0  0  0  0  0  0  0
  161.7080  210.5580  157.2610 O   0  0  0  0  0  0  0  0  0  0  0  0
  161.3170  208.3980  153.5320 C   0  0  2  0  0  3  0  0  0  0  0  0
  161.4910  208.7080  155.9430 O   0  0  0  0  0  0  0  0  0  0  0  0
  159.9840  213.3410  155.9690 O   0  0  0  0  0  0  0  0  0  0  0  0
  158.7040  211.2220  153.3620 C   0  0  2  0  0  3  0  0  0  0  0  0
  157.0830  212.8640  153.9150 C   0  0  0  0  0  2  0  0  0  0  0  0
  159.2680  212.4800  153.1020 O   0  0  0  0  0  0  0  0  0  0  0  0
  157.4640  211.4450  154.2050 C   0  0  0  0  0  2  0  0  0  0  0  0
  158.1770  213.3540  152.9960 C   0  0  0  0  0  2  0  0  0  0  0  0
  160.8520  207.4350  152.5310 C   0  0  0  0  0  0  0  0  0  0  0  0
  160.4650  206.6450  151.7050 C   0  0  0  0  0  3  0  0  0  0  0  0
  161.6910  208.5040  149.0260 C   0  0  0  0  0  2  0  0  0  0  0  0
  162.6240  206.4810  147.8610 C   0  0  0  0  0  3  0  0  0  0  0  0
  162.7030  207.7800  148.1900 C   0  0  0  0  0  3  0  0  0  0  0  0
  161.4030  200.9630  148.6260 C   0  0  0  0  0  0  0  0  0  0  0  0
  159.3810  202.0690  150.4020 C   0  0  0  0  0  2  0  0  0  0  0  0
  160.7200  200.1710  149.5940 N   0  0  0  0  0  2  0  0  0  0  0  0
  161.5240  205.5280  148.2700 C   0  0  1  0  0  3  0  0  0  0  0  0
  161.2110  203.7970  150.1800 C   0  0  0  0  0  0  0  0  0  0  0  0
  160.7750  202.2610  148.2110 C   0  0  2  0  0  3  0  0  0  0  0  0
  161.7000  203.1350  147.3580 C   0  0  0  0  0  2  0  0  0  0  0  0
  161.0820  204.5200  147.1710 C   0  0  2  0  0  3  0  0  0  0  0  0
  160.1760  202.9880  149.4420 C   0  0  1  0  0  3  0  0  0  0  0  0
  159.3890  200.5840  150.0180 C   0  0  0  0  0  2  0  0  0  0  0  0
  162.4910  200.5620  148.1330 O   0  0  0  0  0  0  0  0  0  0  0  0
  161.5870  203.4450  151.3310 O   0  0  0  0  0  0  0  0  0  0  0  0
  161.8480  204.9240  149.5660 N   0  0  0  0  0  2  0  0  0  0  0  0
  160.2400  206.2010  145.5050 C   0  0  0  0  0  1  0  0  0  0  0  0
  160.8470  203.9520  144.7220 C   0  0  0  0  0  1  0  0  0  0  0  0
  161.1910  205.0380  145.7270 C   0  0  0  0  0  3  0  0  0  0  0  0
  1  5  1  6  0  0  0
  1  3  1  0  0  0  0
  2  3  1  0  0  0  0
  3  7  1  1  0  0  0
  4 25  1  1  0  0  0
  4  2  1  0  0  0  0
  6  4  1  0  0  0  0
  6  5  1  6  0  0  0
  6  1  1  0  0  0  0
  8 16  1  0  0  0  0
  9  7  1  1  0  0  0
  9 15  1  0  0  0  0
  9 10  1  0  0  0  0
 10 11  1  1  0  0  0
 11 13  2  0  0  0  0
 11 12  1  0  0  0  0
 12 14  2  0  0  0  0
 13 17  2  0  0  0  0
 15 23  1  6  0  0  0
 15  8  1  0  0  0  0
 16 12  1  0  0  0  0
 18 10  1  0  0  0  0
 18 21  1  1  0  0  0
 19 21  1  0  0  0  0
 20 18  1  0  0  0  0
 22 20  1  0  0  0  0
 22 19  1  0  0  0  0
 24 23  3  0  0  0  0
 26 27  2  0  0  0  0
 27 25  1  0  0  0  0
 28 30  1  0  0  0  0
 30 37  1  0  0  0  0
 31 26  1  6  0  0  0
 31 40  1  0  0  0  0
 32 39  2  0  0  0  0
 33 34  1  1  0  0  0
 33 28  1  0  0  0  0
 33 36  1  0  0  0  0
 35 43  1  6  0  0  0
 35 34  1  0  0  0  0
 35 31  1  0  0  0  0
 36 32  1  0  0  0  0
 36 29  1  1  0  0  0
 37 29  1  0  0  0  0
 38 28  2  0  0  0  0
 40 32  1  0  0  0  0
 41 43  1  0  0  0  0
 42 43  1  0  0  0  0
M  END
>  <MODEL>
8

>  <REMARK>
 VINA RESULT:      -3.3      2.934      9.887
  Name = 
  8 active torsions:
  status: ('A' for Active; 'I' for Inactive)
    1  A    between atoms: C_3  and  C_16
    2  A    between atoms: C_4  and  C_11
    3  A    between atoms: C_9  and  O_18
    4  A    between atoms: C_13  and  O_18
    5  A    between atoms: C_15  and  C_35
    6  A    between atoms: C_22  and  C_37
    7  A    between atoms: C_25  and  C_29
    8  A    between atoms: C_34  and  C_37
                            x       y       z     vdW  Elec       q    Type
                         _______ _______ _______ _____ _____    ______ ____

>  <TORSDO>
F 8

$$$$
=
 OpenBabel11072413353D

 43 48  0  0  1  0  0  0  0  0999 V2000
  159.3890  212.5830  151.7510 C   0  0  1  0  0  3  0  0  0  0  0  0
  160.7530  211.4120  153.4460 C   0  0  0  0  0  2  0  0  0  0  0  0
  159.6670  212.4550  153.2420 C   0  0  2  0  0  3  0  0  0  0  0  0
  161.4470  211.2910  152.1050 C   0  0  2  0  0  3  0  0  0  0  0  0
  160.5060  213.3400  151.0610 C   0  0  0  0  0  2  0  0  0  0  0  0
  160.4990  211.8250  151.0420 C   0  0  2  0  0  3  0  0  0  0  0  0
  158.5030  212.2250  154.0140 O   0  0  0  0  0  0  0  0  0  0  0  0
  157.6780  214.3150  156.6690 C   0  0  0  0  0  2  0  0  0  0  0  0
  158.7920  212.3860  155.3880 C   0  0  2  0  0  3  0  0  0  0  0  0
  157.8300  211.5690  156.2700 C   0  0  1  0  0  3  0  0  0  0  0  0
  156.3940  211.7050  155.7920 C   0  0  0  0  0  0  0  0  0  0  0  0
  155.7630  213.0470  155.6660 C   0  0  0  0  0  0  0  0  0  0  0  0
  155.7320  210.6530  155.3720 C   0  0  0  0  0  0  0  0  0  0  0  0
  154.5900  213.1350  155.2100 O   0  0  0  0  0  0  0  0  0  0  0  0
  158.8180  213.8770  155.7510 C   0  0  2  0  0  3  0  0  0  0  0  0
  156.4210  214.2380  156.0060 O   0  0  0  0  0  0  0  0  0  0  0  0
  155.1060  209.6610  154.9760 O   0  0  0  0  0  0  0  0  0  0  0  0
  158.3290  210.1310  156.4990 C   0  0  2  0  0  3  0  0  0  0  0  0
  159.8380  208.6040  155.4890 C   0  0  0  0  0  2  0  0  0  0  0  0
  159.5090  210.1350  157.2580 O   0  0  0  0  0  0  0  0  0  0  0  0
  158.6370  209.4450  155.1830 C   0  0  0  0  0  2  0  0  0  0  0  0
  160.1610  208.9390  156.9250 C   0  0  0  0  0  2  0  0  0  0  0  0
  160.0990  214.1930  156.3880 C   0  0  0  0  0  0  0  0  0  0  0  0
  161.1550  214.4480  156.9120 C   0  0  0  0  0  3  0  0  0  0  0  0
  161.7750  209.8360  151.8110 C   0  0  0  0  0  2  0  0  0  0  0  0
  160.3560  207.7980  151.4170 C   0  0  0  0  0  3  0  0  0  0  0  0
  160.5940  208.9490  152.0660 C   0  0  0  0  0  3  0  0  0  0  0  0
  160.9800  203.2220  148.0700 C   0  0  0  0  0  0  0  0  0  0  0  0
  162.3890  205.1380  146.3930 C   0  0  0  0  0  2  0  0  0  0  0  0
  161.2780  202.9650  146.7010 N   0  0  0  0  0  2  0  0  0  0  0  0
  161.2180  207.2010  150.3270 C   0  0  1  0  0  3  0  0  0  0  0  0
  160.8170  206.4500  147.8740 C   0  0  0  0  0  0  0  0  0  0  0  0
  161.7750  204.2820  148.7750 C   0  0  2  0  0  3  0  0  0  0  0  0
  161.2160  204.6390  150.1560 C   0  0  0  0  0  2  0  0  0  0  0  0
  161.9330  205.8720  150.7050 C   0  0  2  0  0  3  0  0  0  0  0  0
  161.9890  205.5030  147.8440 C   0  0  1  0  0  3  0  0  0  0  0  0
  162.4250  203.6330  146.0990 C   0  0  0  0  0  2  0  0  0  0  0  0
  160.0860  202.5590  148.6590 O   0  0  0  0  0  0  0  0  0  0  0  0
  160.0770  206.5740  146.8610 O   0  0  0  0  0  0  0  0  0  0  0  0
  160.4680  207.1610  149.0680 N   0  0  0  0  0  2  0  0  0  0  0  0
  163.5440  204.8560  152.3430 C   0  0  0  0  0  1  0  0  0  0  0  0
  161.1880  205.1130  152.9950 C   0  0  0  0  0  1  0  0  0  0  0  0
  162.3160  205.7350  152.1880 C   0  0  0  0  0  3  0  0  0  0  0  0
  1  5  1  6  0  0  0
  1  3  1  0  0  0  0
  3  2  1  0  0  0  0
  3  7  1  1  0  0  0
  4 25  1  6  0  0  0
  4  2  1  0  0  0  0
  6  5  1  6  0  0  0
  6  1  1  0  0  0  0
  6  4  1  0  0  0  0
  9  7  1  6  0  0  0
  9 15  1  0  0  0  0
  9 10  1  0  0  0  0
 10 11  1  6  0  0  0
 10 18  1  0  0  0  0
 12 11  1  0  0  0  0
 12 16  1  0  0  0  0
 13 11  2  0  0  0  0
 14 12  2  0  0  0  0
 15 23  1  1  0  0  0
 15  8  1  0  0  0  0
 16  8  1  0  0  0  0
 17 13  2  0  0  0  0
 18 21  1  6  0  0  0
 18 20  1  0  0  0  0
 19 22  1  0  0  0  0
 21 19  1  0  0  0  0
 22 20  1  0  0  0  0
 23 24  3  0  0  0  0
 25 27  1  0  0  0  0
 26 27  2  0  0  0  0
 28 38  2  0  0  0  0
 28 33  1  0  0  0  0
 30 28  1  0  0  0  0
 31 35  1  0  0  0  0
 31 26  1  1  0  0  0
 32 40  1  0  0  0  0
 33 34  1  1  0  0  0
 34 35  1  0  0  0  0
 35 43  1  1  0  0  0
 36 29  1  6  0  0  0
 36 32  1  0  0  0  0
 36 33  1  0  0  0  0
 37 29  1  0  0  0  0
 37 30  1  0  0  0  0
 39 32  2  0  0  0  0
 40 31  1  0  0  0  0
 43 41  1  0  0  0  0
 43 42  1  0  0  0  0
M  END
>  <MODEL>
9

>  <REMARK>
 VINA RESULT:      -3.2      2.672     10.170
  Name = 
  8 active torsions:
  status: ('A' for Active; 'I' for Inactive)
    1  A    between atoms: C_3  and  C_16
    2  A    between atoms: C_4  and  C_11
    3  A    between atoms: C_9  and  O_18
    4  A    between atoms: C_13  and  O_18
    5  A    between atoms: C_15  and  C_35
    6  A    between atoms: C_22  and  C_37
    7  A    between atoms: C_25  and  C_29
    8  A    between atoms: C_34  and  C_37
                            x       y       z     vdW  Elec       q    Type
                         _______ _______ _______ _____ _____    ______ ____

>  <TORSDO>
F 8

$$$$
