=
 OpenBabel11072410483D

 38 42  0  0  1  0  0  0  0  0999 V2000
  161.7450  208.9470  152.3240 C   0  0  0  0  0  3  0  0  0  0  0  0
  160.1200  206.2710  149.4950 C   0  0  0  0  0  1  0  0  0  0  0  0
  162.1770  206.9360  150.8310 C   0  0  2  0  0  3  0  0  0  0  0  0
  161.9440  209.2570  149.9230 C   0  0  0  0  0  0  0  0  0  0  0  0
  161.6030  211.1680  151.3800 C   0  0  0  0  0  3  0  0  0  0  0  0
  161.5780  210.3210  152.4890 C   0  0  0  0  0  3  0  0  0  0  0  0
  162.0870  208.6890  148.6140 N   0  0  0  0  0  0  0  0  0  0  0  0
  161.8010  210.6550  150.0890 C   0  0  0  0  0  0  0  0  0  0  0  0
  161.9960  207.4150  148.3680 C   0  0  0  0  0  0  0  0  0  0  0  0
  161.7220  206.0460  151.9830 C   0  0  0  0  0  1  0  0  0  0  0  0
  161.9100  208.4060  151.0450 C   0  0  0  0  0  0  0  0  0  0  0  0
  161.6320  206.4500  149.4750 C   0  0  2  0  0  3  0  0  0  0  0  0
  161.8590  211.5590  148.9660 N   0  0  0  0  0  0  0  0  0  0  0  0
  162.9710  211.4640  148.0210 C   0  0  0  0  0  2  0  0  0  0  0  0
  163.8920  212.4810  148.2750 O   0  0  0  0  0  1  0  0  0  0  0  0
  160.6900  212.3660  148.6100 C   0  0  2  0  0  3  0  0  0  0  0  0
  159.8380  211.9090  146.2740 C   0  0  0  0  0  3  0  0  0  0  0  0
  161.3970  213.6800  146.6490 N   0  0  0  0  0  0  0  0  0  0  0  0
  160.5960  213.2790  144.4350 C   0  0  0  0  0  3  0  0  0  0  0  0
  160.6530  212.6520  147.1390 C   0  0  0  0  0  0  0  0  0  0  0  0
  161.3880  214.0030  145.3290 C   0  0  0  0  0  3  0  0  0  0  0  0
  159.8160  212.2260  144.9150 C   0  0  0  0  0  3  0  0  0  0  0  0
  160.5770  213.6240  149.4710 C   0  0  1  0  0  3  0  0  0  0  0  0
  159.3230  214.3150  149.1940 C   0  0  0  0  0  2  0  0  0  0  0  0
  159.4410  213.4750  150.3940 N   0  0  0  0  0  2  0  0  0  0  0  0
  162.1430  206.9880  147.0440 O   0  0  0  0  0  0  0  0  0  0  0  0
  162.4060  205.6720  146.6380 C   0  0  0  0  0  0  0  0  0  0  0  0
  163.5860  205.2460  146.5230 O   0  0  0  0  0  0  0  0  0  0  0  0
  161.2650  204.7460  146.3470 C   0  0  2  0  0  3  0  0  0  0  0  0
  160.7270  200.7210  147.9560 C   0  0  0  0  0  2  0  0  0  0  0  0
  161.4600  201.7580  148.8050 C   0  0  0  0  0  2  0  0  0  0  0  0
  160.7770  202.2880  146.0080 C   0  0  0  0  0  2  0  0  0  0  0  0
  161.1360  203.1670  148.3150 C   0  0  0  0  0  2  0  0  0  0  0  0
  161.1040  200.8790  146.4850 C   0  0  0  0  0  2  0  0  0  0  0  0
  161.5390  203.3210  146.8460 C   0  0  0  0  0  3  0  0  0  0  0  0
  160.9880  204.7760  144.8750 C   0  0  0  0  0  0  0  0  0  0  0  0
  159.9190  204.0670  144.3420 O   0  0  0  0  0  1  0  0  0  0  0  0
  161.7640  205.4030  144.1080 O   0  0  0  0  0  0  0  0  0  0  0  0
  1  6  1  0  0  0  0
  3 11  1  0  0  0  0
  3 10  1  1  0  0  0
  4  8  2  0  0  0  0
  4 11  1  0  0  0  0
  5  6  2  0  0  0  0
  7  4  1  0  0  0  0
  8  5  1  0  0  0  0
  9  7  2  0  0  0  0
  9 12  1  0  0  0  0
 11  1  2  0  0  0  0
 12  2  1  1  0  0  0
 12  3  1  0  0  0  0
 13  8  1  0  0  0  0
 14 15  1  0  0  0  0
 14 13  1  0  0  0  0
 16 13  1  6  0  0  0
 17 20  1  0  0  0  0
 18 20  2  0  0  0  0
 19 22  1  0  0  0  0
 19 21  2  0  0  0  0
 20 16  1  0  0  0  0
 21 18  1  0  0  0  0
 22 17  2  0  0  0  0
 23 16  1  6  0  0  0
 23 25  1  0  0  0  0
 24 23  1  0  0  0  0
 24 25  1  0  0  0  0
 26  9  1  0  0  0  0
 27 26  1  0  0  0  0
 28 27  2  0  0  0  0
 29 36  1  6  0  0  0
 29 27  1  0  0  0  0
 29 35  1  0  0  0  0
 30 31  1  0  0  0  0
 32 34  1  0  0  0  0
 32 35  1  0  0  0  0
 33 31  1  0  0  0  0
 34 30  1  0  0  0  0
 35 33  1  0  0  0  0
 37 36  1  0  0  0  0
 38 36  2  0  0  0  0
M  END
>  <MODEL>
1

>  <REMARK>
 VINA RESULT:      -7.4      0.000      0.000
  Name = 
  10 active torsions:
  status: ('A' for Active; 'I' for Inactive)
    1  A    between atoms: C_3  and  C_7
    2  A    between atoms: C_3  and  N_10
    3  A    between atoms: C_3  and  C_31
    4  A    between atoms: N_10  and  C_13
    5  A    between atoms: N_10  and  C_21
    6  A    between atoms: C_14  and  O_26
    7  A    between atoms: C_14  and  C_30
    8  A    between atoms: C_23  and  C_30
    9  A    between atoms: C_25  and  C_30
   10  A    between atoms: O_26  and  C_28
                            x       y       z     vdW  Elec       q    Type
                         _______ _______ _______ _____ _____    ______ ____

>  <TORSDO>
F 10

$$$$
=
 OpenBabel11072410483D

 38 42  0  0  1  0  0  0  0  0999 V2000
  161.0900  211.0670  156.9880 C   0  0  0  0  0  3  0  0  0  0  0  0
  159.8410  207.2990  155.5540 C   0  0  0  0  0  1  0  0  0  0  0  0
  161.7880  208.9080  155.8420 C   0  0  2  0  0  3  0  0  0  0  0  0
  160.4310  210.6650  154.6850 C   0  0  0  0  0  0  0  0  0  0  0  0
  159.8400  212.7470  155.7810 C   0  0  0  0  0  3  0  0  0  0  0  0
  160.4710  212.3150  156.9490 C   0  0  0  0  0  3  0  0  0  0  0  0
  160.3820  209.7860  153.5510 N   0  0  0  0  0  0  0  0  0  0  0  0
  159.8230  211.9410  154.6320 C   0  0  0  0  0  0  0  0  0  0  0  0
  160.7140  208.5300  153.5990 C   0  0  0  0  0  0  0  0  0  0  0  0
  162.0720  208.3250  157.2220 C   0  0  0  0  0  1  0  0  0  0  0  0
  161.0590  210.2290  155.8680 C   0  0  0  0  0  0  0  0  0  0  0  0
  161.0920  207.8920  154.9180 C   0  0  2  0  0  3  0  0  0  0  0  0
  159.1960  212.4310  153.4290 N   0  0  0  0  0  0  0  0  0  0  0  0
  159.6360  211.9250  152.1290 C   0  0  0  0  0  2  0  0  0  0  0  0
  160.3760  212.9060  151.4690 O   0  0  0  0  0  1  0  0  0  0  0  0
  157.9540  213.2020  153.5090 C   0  0  2  0  0  3  0  0  0  0  0  0
  156.7070  213.5760  155.6770 C   0  0  0  0  0  3  0  0  0  0  0  0
  156.6310  211.4390  154.6120 N   0  0  0  0  0  0  0  0  0  0  0  0
  155.4340  211.7710  156.6520 C   0  0  0  0  0  3  0  0  0  0  0  0
  157.0860  212.7200  154.6340 C   0  0  0  0  0  0  0  0  0  0  0  0
  155.8240  210.9510  155.5910 C   0  0  0  0  0  3  0  0  0  0  0  0
  155.8790  213.0920  156.6910 C   0  0  0  0  0  3  0  0  0  0  0  0
  157.2230  213.2550  152.1670 C   0  0  1  0  0  3  0  0  0  0  0  0
  156.3550  214.4270  152.1110 C   0  0  0  0  0  2  0  0  0  0  0  0
  157.6570  214.4530  151.4310 N   0  0  0  0  0  2  0  0  0  0  0  0
  160.6100  207.7770  152.4240 O   0  0  0  0  0  0  0  0  0  0  0  0
  161.4930  207.8400  151.3370 C   0  0  0  0  0  0  0  0  0  0  0  0
  162.5910  208.4510  151.4210 O   0  0  0  0  0  0  0  0  0  0  0  0
  161.1340  207.1590  150.0520 C   0  0  2  0  0  3  0  0  0  0  0  0
  160.8050  202.8170  150.4050 C   0  0  0  0  0  2  0  0  0  0  0  0
  161.5780  203.5840  151.4770 C   0  0  0  0  0  2  0  0  0  0  0  0
  160.6730  204.8960  149.0220 C   0  0  0  0  0  2  0  0  0  0  0  0
  161.1880  205.0590  151.4570 C   0  0  0  0  0  2  0  0  0  0  0  0
  161.0650  203.4250  149.0290 C   0  0  0  0  0  2  0  0  0  0  0  0
  161.4750  205.6630  150.0800 C   0  0  0  0  0  3  0  0  0  0  0  0
  161.8240  207.8670  148.9260 C   0  0  0  0  0  0  0  0  0  0  0  0
  162.8350  207.2390  148.2110 O   0  0  0  0  0  0  0  0  0  0  0  0
  161.5230  209.0610  148.6650 O   0  0  0  0  0  1  0  0  0  0  0  0
  3 11  1  0  0  0  0
  3 10  1  1  0  0  0
  4 11  1  0  0  0  0
  5  6  2  0  0  0  0
  6  1  1  0  0  0  0
  7  9  2  0  0  0  0
  7  4  1  0  0  0  0
  8  4  2  0  0  0  0
  8  5  1  0  0  0  0
  9 12  1  0  0  0  0
 11  1  2  0  0  0  0
 12  2  1  1  0  0  0
 12  3  1  0  0  0  0
 13  8  1  0  0  0  0
 14 13  1  0  0  0  0
 15 14  1  0  0  0  0
 16 13  1  6  0  0  0
 16 20  1  0  0  0  0
 17 22  1  0  0  0  0
 18 20  1  0  0  0  0
 18 21  2  0  0  0  0
 19 22  2  0  0  0  0
 20 17  2  0  0  0  0
 21 19  1  0  0  0  0
 23 16  1  1  0  0  0
 24 23  1  0  0  0  0
 25 24  1  0  0  0  0
 25 23  1  0  0  0  0
 26  9  1  0  0  0  0
 27 28  2  0  0  0  0
 27 26  1  0  0  0  0
 29 36  1  6  0  0  0
 29 35  1  0  0  0  0
 29 27  1  0  0  0  0
 30 31  1  0  0  0  0
 32 34  1  0  0  0  0
 32 35  1  0  0  0  0
 33 31  1  0  0  0  0
 34 30  1  0  0  0  0
 35 33  1  0  0  0  0
 37 36  2  0  0  0  0
 38 36  1  0  0  0  0
M  END
>  <MODEL>
2

>  <REMARK>
 VINA RESULT:      -7.3      4.052      6.340
  Name = 
  10 active torsions:
  status: ('A' for Active; 'I' for Inactive)
    1  A    between atoms: C_3  and  C_7
    2  A    between atoms: C_3  and  N_10
    3  A    between atoms: C_3  and  C_31
    4  A    between atoms: N_10  and  C_13
    5  A    between atoms: N_10  and  C_21
    6  A    between atoms: C_14  and  O_26
    7  A    between atoms: C_14  and  C_30
    8  A    between atoms: C_23  and  C_30
    9  A    between atoms: C_25  and  C_30
   10  A    between atoms: O_26  and  C_28
                            x       y       z     vdW  Elec       q    Type
                         _______ _______ _______ _____ _____    ______ ____

>  <TORSDO>
F 10

$$$$
=
 OpenBabel11072410483D

 38 42  0  0  1  0  0  0  0  0999 V2000
  161.0730  205.6650  153.8750 C   0  0  0  0  0  3  0  0  0  0  0  0
  159.7730  204.7720  149.9600 C   0  0  0  0  0  1  0  0  0  0  0  0
  161.6860  204.6430  151.6290 C   0  0  2  0  0  3  0  0  0  0  0  0
  161.4790  207.1150  151.9680 C   0  0  0  0  0  0  0  0  0  0  0  0
  160.9630  208.0650  154.1410 C   0  0  0  0  0  3  0  0  0  0  0  0
  160.8580  206.7830  154.6800 C   0  0  0  0  0  3  0  0  0  0  0  0
  161.7530  207.2640  150.5670 N   0  0  0  0  0  0  0  0  0  0  0  0
  161.2870  208.2520  152.7880 C   0  0  0  0  0  0  0  0  0  0  0  0
  161.7150  206.2790  149.7180 C   0  0  0  0  0  0  0  0  0  0  0  0
  161.1510  203.3120  152.1460 C   0  0  0  0  0  1  0  0  0  0  0  0
  161.3650  205.8230  152.5150 C   0  0  0  0  0  0  0  0  0  0  0  0
  161.2770  204.9030  150.1680 C   0  0  2  0  0  3  0  0  0  0  0  0
  161.4240  209.5910  152.2680 N   0  0  0  0  0  0  0  0  0  0  0  0
  161.8870  209.7870  150.8940 C   0  0  0  0  0  2  0  0  0  0  0  0
  161.8890  211.1480  150.5890 O   0  0  0  0  0  1  0  0  0  0  0  0
  160.8440  210.7240  152.9920 C   0  0  2  0  0  3  0  0  0  0  0  0
  160.4290  210.7900  155.4860 C   0  0  0  0  0  3  0  0  0  0  0  0
  162.6670  210.7450  154.6510 N   0  0  0  0  0  0  0  0  0  0  0  0
  162.3010  210.7930  157.0100 C   0  0  0  0  0  3  0  0  0  0  0  0
  161.3280  210.7680  154.4110 C   0  0  0  0  0  0  0  0  0  0  0  0
  163.1660  210.7610  155.9150 C   0  0  0  0  0  3  0  0  0  0  0  0
  160.9230  210.8070  156.7900 C   0  0  0  0  0  3  0  0  0  0  0  0
  159.3200  210.7590  152.8760 C   0  0  1  0  0  3  0  0  0  0  0  0
  158.8020  212.0150  153.4090 C   0  0  0  0  0  2  0  0  0  0  0  0
  158.9330  211.8410  151.9560 N   0  0  0  0  0  2  0  0  0  0  0  0
  161.9900  206.5580  148.3750 O   0  0  0  0  0  0  0  0  0  0  0  0
  162.2660  205.6030  147.3860 C   0  0  0  0  0  0  0  0  0  0  0  0
  163.4500  205.3040  147.0780 O   0  0  0  0  0  0  0  0  0  0  0  0
  161.1340  204.9140  146.6880 C   0  0  2  0  0  3  0  0  0  0  0  0
  160.6070  200.5780  146.7030 C   0  0  0  0  0  2  0  0  0  0  0  0
  161.5760  201.2020  147.7060 C   0  0  0  0  0  2  0  0  0  0  0  0
  160.3930  202.7840  145.5450 C   0  0  0  0  0  2  0  0  0  0  0  0
  161.2740  202.6890  147.8770 C   0  0  0  0  0  2  0  0  0  0  0  0
  160.6950  201.3020  145.3620 C   0  0  0  0  0  2  0  0  0  0  0  0
  161.3880  203.4080  146.5300 C   0  0  0  0  0  3  0  0  0  0  0  0
  160.9100  205.5830  145.3660 C   0  0  0  0  0  0  0  0  0  0  0  0
  161.8530  205.4770  144.3520 O   0  0  0  0  0  0  0  0  0  0  0  0
  159.8850  206.2920  145.1940 O   0  0  0  0  0  1  0  0  0  0  0  0
  1  6  1  0  0  0  0
  3 10  1  1  0  0  0
  3 11  1  0  0  0  0
  4 11  1  0  0  0  0
  4  8  2  0  0  0  0
  5  6  2  0  0  0  0
  7  4  1  0  0  0  0
  8  5  1  0  0  0  0
  9 12  1  0  0  0  0
  9  7  2  0  0  0  0
 11  1  2  0  0  0  0
 12  2  1  1  0  0  0
 12  3  1  0  0  0  0
 13  8  1  0  0  0  0
 14 13  1  0  0  0  0
 15 14  1  0  0  0  0
 16 13  1  1  0  0  0
 16 20  1  0  0  0  0
 17 22  1  0  0  0  0
 18 21  2  0  0  0  0
 20 18  1  0  0  0  0
 20 17  2  0  0  0  0
 21 19  1  0  0  0  0
 22 19  2  0  0  0  0
 23 16  1  1  0  0  0
 23 24  1  0  0  0  0
 25 23  1  0  0  0  0
 25 24  1  0  0  0  0
 26  9  1  0  0  0  0
 27 26  1  0  0  0  0
 28 27  2  0  0  0  0
 29 36  1  6  0  0  0
 29 27  1  0  0  0  0
 30 31  1  0  0  0  0
 31 33  1  0  0  0  0
 32 35  1  0  0  0  0
 34 32  1  0  0  0  0
 34 30  1  0  0  0  0
 35 29  1  0  0  0  0
 35 33  1  0  0  0  0
 37 36  2  0  0  0  0
 38 36  1  0  0  0  0
M  END
>  <MODEL>
3

>  <REMARK>
 VINA RESULT:      -6.7      3.150      4.855
  Name = 
  10 active torsions:
  status: ('A' for Active; 'I' for Inactive)
    1  A    between atoms: C_3  and  C_7
    2  A    between atoms: C_3  and  N_10
    3  A    between atoms: C_3  and  C_31
    4  A    between atoms: N_10  and  C_13
    5  A    between atoms: N_10  and  C_21
    6  A    between atoms: C_14  and  O_26
    7  A    between atoms: C_14  and  C_30
    8  A    between atoms: C_23  and  C_30
    9  A    between atoms: C_25  and  C_30
   10  A    between atoms: O_26  and  C_28
                            x       y       z     vdW  Elec       q    Type
                         _______ _______ _______ _____ _____    ______ ____

>  <TORSDO>
F 10

$$$$
=
 OpenBabel11072410483D

 38 42  0  0  1  0  0  0  0  0999 V2000
  160.0410  214.2470  149.9190 C   0  0  0  0  0  3  0  0  0  0  0  0
  163.3320  212.2860  148.1490 C   0  0  0  0  0  1  0  0  0  0  0  0
  160.8300  212.7180  148.0470 C   0  0  2  0  0  3  0  0  0  0  0  0
  160.6600  211.9530  150.4250 C   0  0  0  0  0  0  0  0  0  0  0  0
  159.8350  213.4140  152.1780 C   0  0  0  0  0  3  0  0  0  0  0  0
  159.7060  214.4530  151.2560 C   0  0  0  0  0  3  0  0  0  0  0  0
  161.1930  210.6940  149.9880 N   0  0  0  0  0  0  0  0  0  0  0  0
  160.2970  212.1500  151.7780 C   0  0  0  0  0  0  0  0  0  0  0  0
  161.7530  210.5130  148.8280 C   0  0  0  0  0  0  0  0  0  0  0  0
  161.0750  213.9640  147.2010 C   0  0  0  0  0  1  0  0  0  0  0  0
  160.5360  213.0070  149.4990 C   0  0  0  0  0  0  0  0  0  0  0  0
  161.9580  211.6830  147.8910 C   0  0  2  0  0  3  0  0  0  0  0  0
  160.3840  211.0840  152.7470 N   0  0  0  0  0  0  0  0  0  0  0  0
  161.2650  209.9460  152.4890 C   0  0  0  0  0  2  0  0  0  0  0  0
  162.5860  210.3020  152.7590 O   0  0  0  0  0  1  0  0  0  0  0  0
  159.8290  211.2650  154.0900 C   0  0  2  0  0  3  0  0  0  0  0  0
  160.3860  209.1310  155.3260 C   0  0  0  0  0  3  0  0  0  0  0  0
  161.5900  211.1380  155.8090 N   0  0  0  0  0  0  0  0  0  0  0  0
  162.1450  209.1320  156.9800 C   0  0  0  0  0  3  0  0  0  0  0  0
  160.6140  210.4980  155.1110 C   0  0  0  0  0  0  0  0  0  0  0  0
  162.3500  210.4910  156.7320 C   0  0  0  0  0  3  0  0  0  0  0  0
  161.1560  208.4510  156.2700 C   0  0  0  0  0  3  0  0  0  0  0  0
  158.3300  210.9690  154.1350 C   0  0  1  0  0  3  0  0  0  0  0  0
  157.7930  211.2840  155.4550 C   0  0  0  0  0  2  0  0  0  0  0  0
  157.5970  212.2270  154.3460 N   0  0  0  0  0  2  0  0  0  0  0  0
  162.2450  209.2380  148.5280 O   0  0  0  0  0  0  0  0  0  0  0  0
  162.2120  208.1310  149.3870 C   0  0  0  0  0  0  0  0  0  0  0  0
  162.9550  208.0670  150.4020 O   0  0  0  0  0  0  0  0  0  0  0  0
  161.2680  207.0030  149.1040 C   0  0  2  0  0  3  0  0  0  0  0  0
  160.5860  203.7200  151.9030 C   0  0  0  0  0  2  0  0  0  0  0  0
  161.3120  204.9690  152.4000 C   0  0  0  0  0  2  0  0  0  0  0  0
  160.7380  204.5730  149.5570 C   0  0  0  0  0  2  0  0  0  0  0  0
  161.0360  206.1470  151.4690 C   0  0  0  0  0  2  0  0  0  0  0  0
  161.0170  203.3910  150.4760 C   0  0  0  0  0  2  0  0  0  0  0  0
  161.4930  205.8130  150.0470 C   0  0  0  0  0  3  0  0  0  0  0  0
  161.4110  206.6090  147.6650 C   0  0  0  0  0  0  0  0  0  0  0  0
  160.3020  206.5690  146.8300 O   0  0  0  0  0  0  0  0  0  0  0  0
  162.5360  206.2550  147.2260 O   0  0  0  0  0  1  0  0  0  0  0  0
  1  6  1  0  0  0  0
  3 10  1  6  0  0  0
  3 11  1  0  0  0  0
  4  8  2  0  0  0  0
  6  5  2  0  0  0  0
  7  4  1  0  0  0  0
  8  5  1  0  0  0  0
  8 13  1  0  0  0  0
  9  7  2  0  0  0  0
 11  1  2  0  0  0  0
 11  4  1  0  0  0  0
 12  3  1  0  0  0  0
 12  2  1  1  0  0  0
 12  9  1  0  0  0  0
 14 13  1  0  0  0  0
 14 15  1  0  0  0  0
 16 13  1  6  0  0  0
 16 20  1  0  0  0  0
 17 22  1  0  0  0  0
 18 21  2  0  0  0  0
 20 17  2  0  0  0  0
 20 18  1  0  0  0  0
 21 19  1  0  0  0  0
 22 19  2  0  0  0  0
 23 16  1  1  0  0  0
 23 25  1  0  0  0  0
 23 24  1  0  0  0  0
 25 24  1  0  0  0  0
 26  9  1  0  0  0  0
 26 27  1  0  0  0  0
 27 28  2  0  0  0  0
 29 36  1  6  0  0  0
 29 27  1  0  0  0  0
 29 35  1  0  0  0  0
 30 31  1  0  0  0  0
 32 35  1  0  0  0  0
 32 34  1  0  0  0  0
 33 31  1  0  0  0  0
 34 30  1  0  0  0  0
 35 33  1  0  0  0  0
 37 36  2  0  0  0  0
 38 36  1  0  0  0  0
M  END
>  <MODEL>
4

>  <REMARK>
 VINA RESULT:      -6.5      2.770      6.216
  Name = 
  10 active torsions:
  status: ('A' for Active; 'I' for Inactive)
    1  A    between atoms: C_3  and  C_7
    2  A    between atoms: C_3  and  N_10
    3  A    between atoms: C_3  and  C_31
    4  A    between atoms: N_10  and  C_13
    5  A    between atoms: N_10  and  C_21
    6  A    between atoms: C_14  and  O_26
    7  A    between atoms: C_14  and  C_30
    8  A    between atoms: C_23  and  C_30
    9  A    between atoms: C_25  and  C_30
   10  A    between atoms: O_26  and  C_28
                            x       y       z     vdW  Elec       q    Type
                         _______ _______ _______ _____ _____    ______ ____

>  <TORSDO>
F 10

$$$$
=
 OpenBabel11072410483D

 38 42  0  0  1  0  0  0  0  0999 V2000
  161.1880  206.5510  153.8700 C   0  0  0  0  0  3  0  0  0  0  0  0
  162.6940  210.4520  153.2960 C   0  0  0  0  0  1  0  0  0  0  0  0
  160.6450  209.0340  153.8000 C   0  0  2  0  0  3  0  0  0  0  0  0
  161.1290  207.7060  151.7340 C   0  0  0  0  0  0  0  0  0  0  0  0
  161.5730  205.3220  151.8250 C   0  0  0  0  0  3  0  0  0  0  0  0
  161.4710  205.3530  153.2160 C   0  0  0  0  0  3  0  0  0  0  0  0
  160.9950  208.9300  150.9960 N   0  0  0  0  0  0  0  0  0  0  0  0
  161.3900  206.4880  151.0640 C   0  0  0  0  0  0  0  0  0  0  0  0
  160.9820  210.1070  151.5500 C   0  0  0  0  0  0  0  0  0  0  0  0
  160.9640  209.0940  155.2910 C   0  0  0  0  0  1  0  0  0  0  0  0
  161.0340  207.7340  153.1380 C   0  0  0  0  0  0  0  0  0  0  0  0
  161.2060  210.2490  153.0390 C   0  0  2  0  0  3  0  0  0  0  0  0
  161.4650  206.4170  149.6250 N   0  0  0  0  0  0  0  0  0  0  0  0
  161.7250  207.6330  148.8560 C   0  0  0  0  0  2  0  0  0  0  0  0
  163.0820  207.7100  148.5410 O   0  0  0  0  0  1  0  0  0  0  0  0
  161.5660  205.1170  148.9580 C   0  0  2  0  0  3  0  0  0  0  0  0
  162.6420  204.7840  146.6940 C   0  0  0  0  0  3  0  0  0  0  0  0
  160.5130  205.8570  146.8560 N   0  0  0  0  0  0  0  0  0  0  0  0
  161.5010  205.5420  144.7050 C   0  0  0  0  0  3  0  0  0  0  0  0
  161.5780  205.2700  147.4660 C   0  0  0  0  0  0  0  0  0  0  0  0
  160.4550  206.0040  145.5060 C   0  0  0  0  0  3  0  0  0  0  0  0
  162.6000  204.9270  145.3070 C   0  0  0  0  0  3  0  0  0  0  0  0
  160.5050  204.1340  149.4530 C   0  0  1  0  0  3  0  0  0  0  0  0
  160.6030  202.8750  148.7220 C   0  0  0  0  0  2  0  0  0  0  0  0
  161.1730  202.9780  150.0730 N   0  0  0  0  0  2  0  0  0  0  0  0
  160.8590  211.2240  150.7170 O   0  0  0  0  0  0  0  0  0  0  0  0
  161.6690  211.5050  149.6080 C   0  0  0  0  0  0  0  0  0  0  0  0
  162.6710  210.7930  149.3330 O   0  0  0  0  0  0  0  0  0  0  0  0
  161.3330  212.6640  148.7220 C   0  0  2  0  0  3  0  0  0  0  0  0
  158.3970  212.9280  145.4980 C   0  0  0  0  0  2  0  0  0  0  0  0
  157.9130  212.5820  146.9050 C   0  0  0  0  0  2  0  0  0  0  0  0
  160.7660  212.6720  146.2570 C   0  0  0  0  0  2  0  0  0  0  0  0
  158.9540  212.9990  147.9400 C   0  0  0  0  0  2  0  0  0  0  0  0
  159.7360  212.2500  145.2180 C   0  0  0  0  0  2  0  0  0  0  0  0
  160.2850  212.2950  147.6630 C   0  0  0  0  0  3  0  0  0  0  0  0
  162.5980  213.1730  148.0990 C   0  0  0  0  0  0  0  0  0  0  0  0
  163.4510  212.3080  147.4250 O   0  0  0  0  0  0  0  0  0  0  0  0
  162.9180  214.3820  148.2380 O   0  0  0  0  0  1  0  0  0  0  0  0
  3 10  1  1  0  0  0
  4 11  1  0  0  0  0
  5  6  2  0  0  0  0
  6  1  1  0  0  0  0
  7  9  2  0  0  0  0
  7  4  1  0  0  0  0
  8  4  2  0  0  0  0
  8  5  1  0  0  0  0
  9 12  1  0  0  0  0
 11  3  1  0  0  0  0
 11  1  2  0  0  0  0
 12  2  1  6  0  0  0
 12  3  1  0  0  0  0
 13  8  1  0  0  0  0
 14 13  1  0  0  0  0
 15 14  1  0  0  0  0
 16 13  1  1  0  0  0
 17 20  1  0  0  0  0
 18 20  2  0  0  0  0
 19 22  1  0  0  0  0
 19 21  2  0  0  0  0
 20 16  1  0  0  0  0
 21 18  1  0  0  0  0
 22 17  2  0  0  0  0
 23 16  1  6  0  0  0
 23 25  1  0  0  0  0
 24 23  1  0  0  0  0
 24 25  1  0  0  0  0
 26  9  1  0  0  0  0
 27 26  1  0  0  0  0
 28 27  2  0  0  0  0
 29 36  1  6  0  0  0
 29 27  1  0  0  0  0
 30 31  1  0  0  0  0
 31 33  1  0  0  0  0
 32 35  1  0  0  0  0
 34 30  1  0  0  0  0
 34 32  1  0  0  0  0
 35 33  1  0  0  0  0
 35 29  1  0  0  0  0
 36 38  1  0  0  0  0
 37 36  2  0  0  0  0
M  END
>  <MODEL>
5

>  <REMARK>
 VINA RESULT:      -6.3      2.470      7.646
  Name = 
  10 active torsions:
  status: ('A' for Active; 'I' for Inactive)
    1  A    between atoms: C_3  and  C_7
    2  A    between atoms: C_3  and  N_10
    3  A    between atoms: C_3  and  C_31
    4  A    between atoms: N_10  and  C_13
    5  A    between atoms: N_10  and  C_21
    6  A    between atoms: C_14  and  O_26
    7  A    between atoms: C_14  and  C_30
    8  A    between atoms: C_23  and  C_30
    9  A    between atoms: C_25  and  C_30
   10  A    between atoms: O_26  and  C_28
                            x       y       z     vdW  Elec       q    Type
                         _______ _______ _______ _____ _____    ______ ____

>  <TORSDO>
F 10

$$$$
=
 OpenBabel11072410483D

 38 42  0  0  1  0  0  0  0  0999 V2000
  160.5080  213.5260  150.3760 C   0  0  0  0  0  3  0  0  0  0  0  0
  163.1440  210.3590  151.2870 C   0  0  0  0  0  1  0  0  0  0  0  0
  161.2030  211.1390  149.8440 C   0  0  2  0  0  3  0  0  0  0  0  0
  159.9680  211.7450  151.9360 C   0  0  0  0  0  0  0  0  0  0  0  0
  159.2550  214.0210  152.3830 C   0  0  0  0  0  3  0  0  0  0  0  0
  159.8590  214.4460  151.1990 C   0  0  0  0  0  3  0  0  0  0  0  0
  160.0730  210.3650  152.3190 N   0  0  0  0  0  0  0  0  0  0  0  0
  159.2860  212.6690  152.7610 C   0  0  0  0  0  0  0  0  0  0  0  0
  160.8670  209.5150  151.7360 C   0  0  0  0  0  0  0  0  0  0  0  0
  162.1830  211.7050  148.8220 C   0  0  0  0  0  1  0  0  0  0  0  0
  160.5830  212.1790  150.7460 C   0  0  0  0  0  0  0  0  0  0  0  0
  161.8130  209.9790  150.6500 C   0  0  2  0  0  3  0  0  0  0  0  0
  158.6200  212.2540  153.9720 N   0  0  0  0  0  0  0  0  0  0  0  0
  157.3760  211.4920  153.8860 C   0  0  0  0  0  2  0  0  0  0  0  0
  156.2900  212.3660  153.8570 O   0  0  0  0  0  1  0  0  0  0  0  0
  159.3150  212.3410  155.2590 C   0  0  2  0  0  3  0  0  0  0  0  0
  159.3790  209.9050  155.9310 C   0  0  0  0  0  3  0  0  0  0  0  0
  161.4120  211.0590  155.4370 N   0  0  0  0  0  0  0  0  0  0  0  0
  161.4980  208.7540  156.0560 C   0  0  0  0  0  3  0  0  0  0  0  0
  160.0580  211.0740  155.5630 C   0  0  0  0  0  0  0  0  0  0  0  0
  162.1390  209.9350  155.6770 C   0  0  0  0  0  3  0  0  0  0  0  0
  160.1090  208.7420  156.1810 C   0  0  0  0  0  3  0  0  0  0  0  0
  158.3800  212.7760  156.3880 C   0  0  1  0  0  3  0  0  0  0  0  0
  159.0470  213.7440  157.2520 C   0  0  0  0  0  2  0  0  0  0  0  0
  158.0860  214.2100  156.2430 N   0  0  0  0  0  2  0  0  0  0  0  0
  160.8860  208.2000  152.2120 O   0  0  0  0  0  0  0  0  0  0  0  0
  161.5990  207.1380  151.6380 C   0  0  0  0  0  0  0  0  0  0  0  0
  162.7160  206.7770  152.0950 O   0  0  0  0  0  0  0  0  0  0  0  0
  161.0190  206.4070  150.4670 C   0  0  2  0  0  3  0  0  0  0  0  0
  160.6920  202.0510  150.5130 C   0  0  0  0  0  2  0  0  0  0  0  0
  161.2010  202.7620  151.7650 C   0  0  0  0  0  2  0  0  0  0  0  0
  160.8300  204.2010  149.2440 C   0  0  0  0  0  2  0  0  0  0  0  0
  160.8010  204.2340  151.7380 C   0  0  0  0  0  2  0  0  0  0  0  0
  161.2350  202.7330  149.2600 C   0  0  0  0  0  2  0  0  0  0  0  0
  161.3710  204.9130  150.4900 C   0  0  0  0  0  3  0  0  0  0  0  0
  161.4900  207.0700  149.2080 C   0  0  0  0  0  0  0  0  0  0  0  0
  160.6080  207.3050  148.1610 O   0  0  0  0  0  0  0  0  0  0  0  0
  162.7060  207.3650  149.0770 O   0  0  0  0  0  1  0  0  0  0  0  0
  1 11  2  0  0  0  0
  1  6  1  0  0  0  0
  3 10  1  1  0  0  0
  3 12  1  0  0  0  0
  3 11  1  0  0  0  0
  4  7  1  0  0  0  0
  4  8  2  0  0  0  0
  5  8  1  0  0  0  0
  6  5  2  0  0  0  0
  8 13  1  0  0  0  0
  9 26  1  0  0  0  0
  9  7  2  0  0  0  0
 11  4  1  0  0  0  0
 12  2  1  1  0  0  0
 12  9  1  0  0  0  0
 14 13  1  0  0  0  0
 15 14  1  0  0  0  0
 16 13  1  6  0  0  0
 16 20  1  0  0  0  0
 17 22  1  0  0  0  0
 18 20  1  0  0  0  0
 18 21  2  0  0  0  0
 19 22  2  0  0  0  0
 20 17  2  0  0  0  0
 21 19  1  0  0  0  0
 23 16  1  6  0  0  0
 23 24  1  0  0  0  0
 25 23  1  0  0  0  0
 25 24  1  0  0  0  0
 27 28  2  0  0  0  0
 27 26  1  0  0  0  0
 29 36  1  6  0  0  0
 29 35  1  0  0  0  0
 29 27  1  0  0  0  0
 30 31  1  0  0  0  0
 32 34  1  0  0  0  0
 32 35  1  0  0  0  0
 33 31  1  0  0  0  0
 34 30  1  0  0  0  0
 35 33  1  0  0  0  0
 37 36  2  0  0  0  0
 38 36  1  0  0  0  0
M  END
>  <MODEL>
6

>  <REMARK>
 VINA RESULT:      -6.2      3.627      6.454
  Name = 
  10 active torsions:
  status: ('A' for Active; 'I' for Inactive)
    1  A    between atoms: C_3  and  C_7
    2  A    between atoms: C_3  and  N_10
    3  A    between atoms: C_3  and  C_31
    4  A    between atoms: N_10  and  C_13
    5  A    between atoms: N_10  and  C_21
    6  A    between atoms: C_14  and  O_26
    7  A    between atoms: C_14  and  C_30
    8  A    between atoms: C_23  and  C_30
    9  A    between atoms: C_25  and  C_30
   10  A    between atoms: O_26  and  C_28
                            x       y       z     vdW  Elec       q    Type
                         _______ _______ _______ _____ _____    ______ ____

>  <TORSDO>
F 10

$$$$
=
 OpenBabel11072410483D

 38 42  0  0  1  0  0  0  0  0999 V2000
  159.5660  213.5540  151.2190 C   0  0  0  0  0  3  0  0  0  0  0  0
  162.9600  211.8210  149.4060 C   0  0  0  0  0  1  0  0  0  0  0  0
  160.4210  211.9000  149.4880 C   0  0  2  0  0  3  0  0  0  0  0  0
  160.5450  211.4540  151.9480 C   0  0  0  0  0  0  0  0  0  0  0  0
  159.6550  213.0200  153.5740 C   0  0  0  0  0  3  0  0  0  0  0  0
  159.3080  213.8970  152.5450 C   0  0  0  0  0  3  0  0  0  0  0  0
  161.2180  210.2290  151.6250 N   0  0  0  0  0  0  0  0  0  0  0  0
  160.2620  211.7860  153.2940 C   0  0  0  0  0  0  0  0  0  0  0  0
  161.7090  209.9650  150.4490 C   0  0  0  0  0  0  0  0  0  0  0  0
  160.4190  213.0390  148.4730 C   0  0  0  0  0  1  0  0  0  0  0  0
  160.2000  212.3450  150.9130 C   0  0  0  0  0  0  0  0  0  0  0  0
  161.6710  211.0110  149.3570 C   0  0  2  0  0  3  0  0  0  0  0  0
  160.5750  210.8850  154.3760 N   0  0  0  0  0  0  0  0  0  0  0  0
  161.7940  211.0920  155.1570 C   0  0  0  0  0  2  0  0  0  0  0  0
  162.8970  210.6350  154.4360 O   0  0  0  0  0  1  0  0  0  0  0  0
  159.5600  209.9540  154.8740 C   0  0  2  0  0  3  0  0  0  0  0  0
  158.5430  211.3450  156.7240 C   0  0  0  0  0  3  0  0  0  0  0  0
  157.2250  210.7400  154.8260 N   0  0  0  0  0  0  0  0  0  0  0  0
  156.2450  212.0660  156.5530 C   0  0  0  0  0  3  0  0  0  0  0  0
  158.4080  210.6860  155.4950 C   0  0  0  0  0  0  0  0  0  0  0  0
  156.1510  211.4070  155.3260 C   0  0  0  0  0  3  0  0  0  0  0  0
  157.4510  212.0340  157.2530 C   0  0  0  0  0  3  0  0  0  0  0  0
  160.1600  208.8880  155.7920 C   0  0  1  0  0  3  0  0  0  0  0  0
  159.3310  207.6860  155.7790 C   0  0  0  0  0  2  0  0  0  0  0  0
  160.5640  207.7280  154.9820 N   0  0  0  0  0  2  0  0  0  0  0  0
  162.3540  208.7370  150.2660 O   0  0  0  0  0  0  0  0  0  0  0  0
  162.1990  207.8950  149.1560 C   0  0  0  0  0  0  0  0  0  0  0  0
  162.9130  208.0320  148.1270 O   0  0  0  0  0  0  0  0  0  0  0  0
  161.1750  206.8040  149.1930 C   0  0  2  0  0  3  0  0  0  0  0  0
  160.8270  203.8720  152.4130 C   0  0  0  0  0  2  0  0  0  0  0  0
  161.5780  205.1740  152.6840 C   0  0  0  0  0  2  0  0  0  0  0  0
  160.7310  204.4420  149.9800 C   0  0  0  0  0  2  0  0  0  0  0  0
  161.1930  206.2320  151.6540 C   0  0  0  0  0  2  0  0  0  0  0  0
  161.1190  203.3780  150.9980 C   0  0  0  0  0  2  0  0  0  0  0  0
  161.5120  205.7350  150.2420 C   0  0  0  0  0  3  0  0  0  0  0  0
  161.0510  206.2170  147.8200 C   0  0  0  0  0  0  0  0  0  0  0  0
  162.0090  205.3320  147.3410 O   0  0  0  0  0  1  0  0  0  0  0  0
  160.1030  206.5730  147.0740 O   0  0  0  0  0  0  0  0  0  0  0  0
  1  6  1  0  0  0  0
  3 10  1  6  0  0  0
  3 11  1  0  0  0  0
  4  8  2  0  0  0  0
  6  5  2  0  0  0  0
  7  4  1  0  0  0  0
  8  5  1  0  0  0  0
  8 13  1  0  0  0  0
  9  7  2  0  0  0  0
 11  1  2  0  0  0  0
 11  4  1  0  0  0  0
 12  2  1  1  0  0  0
 12  3  1  0  0  0  0
 12  9  1  0  0  0  0
 13 14  1  0  0  0  0
 15 14  1  0  0  0  0
 16 13  1  1  0  0  0
 16 20  1  0  0  0  0
 17 22  1  0  0  0  0
 18 21  2  0  0  0  0
 18 20  1  0  0  0  0
 19 22  2  0  0  0  0
 20 17  2  0  0  0  0
 21 19  1  0  0  0  0
 23 16  1  6  0  0  0
 24 23  1  0  0  0  0
 25 24  1  0  0  0  0
 25 23  1  0  0  0  0
 26  9  1  0  0  0  0
 27 29  1  0  0  0  0
 27 26  1  0  0  0  0
 28 27  2  0  0  0  0
 29 36  1  6  0  0  0
 29 35  1  0  0  0  0
 30 31  1  0  0  0  0
 32 35  1  0  0  0  0
 32 34  1  0  0  0  0
 33 31  1  0  0  0  0
 34 30  1  0  0  0  0
 35 33  1  0  0  0  0
 37 36  1  0  0  0  0
 38 36  2  0  0  0  0
M  END
>  <MODEL>
7

>  <REMARK>
 VINA RESULT:      -5.8      3.512      6.536
  Name = 
  10 active torsions:
  status: ('A' for Active; 'I' for Inactive)
    1  A    between atoms: C_3  and  C_7
    2  A    between atoms: C_3  and  N_10
    3  A    between atoms: C_3  and  C_31
    4  A    between atoms: N_10  and  C_13
    5  A    between atoms: N_10  and  C_21
    6  A    between atoms: C_14  and  O_26
    7  A    between atoms: C_14  and  C_30
    8  A    between atoms: C_23  and  C_30
    9  A    between atoms: C_25  and  C_30
   10  A    between atoms: O_26  and  C_28
                            x       y       z     vdW  Elec       q    Type
                         _______ _______ _______ _____ _____    ______ ____

>  <TORSDO>
F 10

$$$$
=
 OpenBabel11072410483D

 38 42  0  0  1  0  0  0  0  0999 V2000
  159.7830  213.3790  151.0040 C   0  0  0  0  0  3  0  0  0  0  0  0
  163.0210  211.9270  148.7190 C   0  0  0  0  0  1  0  0  0  0  0  0
  160.4980  211.9510  149.0260 C   0  0  2  0  0  3  0  0  0  0  0  0
  160.8380  211.2260  151.3980 C   0  0  0  0  0  0  0  0  0  0  0  0
  160.0810  212.5780  153.2660 C   0  0  0  0  0  3  0  0  0  0  0  0
  159.6390  213.5610  152.3790 C   0  0  0  0  0  3  0  0  0  0  0  0
  161.4900  210.0580  150.8790 N   0  0  0  0  0  0  0  0  0  0  0  0
  160.6700  211.3960  152.7930 C   0  0  0  0  0  0  0  0  0  0  0  0
  161.8790  209.9410  149.6430 C   0  0  0  0  0  0  0  0  0  0  0  0
  160.3990  213.1980  148.1540 C   0  0  0  0  0  1  0  0  0  0  0  0
  160.3980  212.2240  150.5080 C   0  0  0  0  0  0  0  0  0  0  0  0
  161.7390  211.1050  148.6870 C   0  0  2  0  0  3  0  0  0  0  0  0
  161.0840  210.3810  153.7330 N   0  0  0  0  0  0  0  0  0  0  0  0
  162.4770  210.3310  154.1730 C   0  0  0  0  0  2  0  0  0  0  0  0
  162.6140  211.0170  155.3790 O   0  0  0  0  0  1  0  0  0  0  0  0
  160.0800  209.5960  154.4540 C   0  0  2  0  0  3  0  0  0  0  0  0
  157.8520  210.7020  154.9110 C   0  0  0  0  0  3  0  0  0  0  0  0
  159.6780  211.0330  156.4160 N   0  0  0  0  0  0  0  0  0  0  0  0
  157.5800  212.0760  156.8770 C   0  0  0  0  0  3  0  0  0  0  0  0
  159.1870  210.4770  155.2760 C   0  0  0  0  0  0  0  0  0  0  0  0
  158.9110  211.8220  157.2140 C   0  0  0  0  0  3  0  0  0  0  0  0
  157.0500  211.5090  155.7180 C   0  0  0  0  0  3  0  0  0  0  0  0
  160.7110  208.4600  155.2600 C   0  0  1  0  0  3  0  0  0  0  0  0
  159.6770  207.5610  155.7610 C   0  0  0  0  0  2  0  0  0  0  0  0
  160.4560  207.1840  154.5740 N   0  0  0  0  0  2  0  0  0  0  0  0
  162.5160  208.7540  149.2640 O   0  0  0  0  0  0  0  0  0  0  0  0
  161.8690  207.5790  148.8560 C   0  0  0  0  0  0  0  0  0  0  0  0
  161.0830  207.5720  147.8720 O   0  0  0  0  0  0  0  0  0  0  0  0
  162.1230  206.3010  149.5950 C   0  0  2  0  0  3  0  0  0  0  0  0
  161.0800  202.3350  148.0900 C   0  0  0  0  0  2  0  0  0  0  0  0
  161.2090  203.4870  147.0950 C   0  0  0  0  0  2  0  0  0  0  0  0
  161.2500  203.9600  149.9830 C   0  0  0  0  0  2  0  0  0  0  0  0
  162.0200  204.6260  147.7060 C   0  0  0  0  0  2  0  0  0  0  0  0
  160.4320  202.8240  149.3840 C   0  0  0  0  0  2  0  0  0  0  0  0
  161.3480  205.1230  148.9890 C   0  0  0  0  0  3  0  0  0  0  0  0
  161.7830  206.5080  151.0400 C   0  0  0  0  0  0  0  0  0  0  0  0
  162.7060  206.2060  152.0330 O   0  0  0  0  0  1  0  0  0  0  0  0
  160.6310  206.9020  151.3580 O   0  0  0  0  0  0  0  0  0  0  0  0
  1  6  1  0  0  0  0
  3 10  1  6  0  0  0
  3 11  1  0  0  0  0
  4  8  2  0  0  0  0
  6  5  2  0  0  0  0
  7  4  1  0  0  0  0
  8  5  1  0  0  0  0
  8 13  1  0  0  0  0
  9  7  2  0  0  0  0
 11  1  2  0  0  0  0
 11  4  1  0  0  0  0
 12  2  1  1  0  0  0
 12  3  1  0  0  0  0
 12  9  1  0  0  0  0
 13 14  1  0  0  0  0
 14 15  1  0  0  0  0
 16 13  1  1  0  0  0
 16 20  1  0  0  0  0
 17 20  2  0  0  0  0
 17 22  1  0  0  0  0
 18 21  2  0  0  0  0
 19 21  1  0  0  0  0
 20 18  1  0  0  0  0
 22 19  2  0  0  0  0
 23 16  1  6  0  0  0
 23 24  1  0  0  0  0
 25 23  1  0  0  0  0
 25 24  1  0  0  0  0
 26  9  1  0  0  0  0
 27 26  1  0  0  0  0
 28 27  2  0  0  0  0
 29 27  1  6  0  0  0
 29 36  1  0  0  0  0
 30 34  1  0  0  0  0
 31 33  1  0  0  0  0
 31 30  1  0  0  0  0
 33 35  1  0  0  0  0
 34 32  1  0  0  0  0
 35 29  1  0  0  0  0
 35 32  1  0  0  0  0
 36 38  2  0  0  0  0
 36 37  1  0  0  0  0
M  END
>  <MODEL>
8

>  <REMARK>
 VINA RESULT:      -5.7      3.401      6.472
  Name = 
  10 active torsions:
  status: ('A' for Active; 'I' for Inactive)
    1  A    between atoms: C_3  and  C_7
    2  A    between atoms: C_3  and  N_10
    3  A    between atoms: C_3  and  C_31
    4  A    between atoms: N_10  and  C_13
    5  A    between atoms: N_10  and  C_21
    6  A    between atoms: C_14  and  O_26
    7  A    between atoms: C_14  and  C_30
    8  A    between atoms: C_23  and  C_30
    9  A    between atoms: C_25  and  C_30
   10  A    between atoms: O_26  and  C_28
                            x       y       z     vdW  Elec       q    Type
                         _______ _______ _______ _____ _____    ______ ____

>  <TORSDO>
F 10

$$$$
=
 OpenBabel11072410483D

 38 42  0  0  1  0  0  0  0  0999 V2000
  160.8940  212.1660  157.0430 C   0  0  0  0  0  3  0  0  0  0  0  0
  160.1490  208.2890  155.5510 C   0  0  0  0  0  1  0  0  0  0  0  0
  161.8490  210.1610  155.8050 C   0  0  2  0  0  3  0  0  0  0  0  0
  160.1970  211.7240  154.7580 C   0  0  0  0  0  0  0  0  0  0  0  0
  159.3570  213.6700  155.9400 C   0  0  0  0  0  3  0  0  0  0  0  0
  160.0960  213.3090  157.0670 C   0  0  0  0  0  3  0  0  0  0  0  0
  160.2260  210.8760  153.6020 N   0  0  0  0  0  0  0  0  0  0  0  0
  159.4060  212.8980  154.7690 C   0  0  0  0  0  0  0  0  0  0  0  0
  160.7410  209.6810  153.5980 C   0  0  0  0  0  0  0  0  0  0  0  0
  162.2770  209.5950  157.1550 C   0  0  0  0  0  1  0  0  0  0  0  0
  160.9350  211.3590  155.9010 C   0  0  0  0  0  0  0  0  0  0  0  0
  161.2680  209.0760  154.8810 C   0  0  2  0  0  3  0  0  0  0  0  0
  158.6600  213.3170  153.6080 N   0  0  0  0  0  0  0  0  0  0  0  0
  159.2680  214.2460  152.6560 C   0  0  0  0  0  2  0  0  0  0  0  0
  160.1810  213.5650  151.8520 O   0  0  0  0  0  1  0  0  0  0  0  0
  157.4320  212.6140  153.2300 C   0  0  2  0  0  3  0  0  0  0  0  0
  155.7800  213.9810  151.8920 C   0  0  0  0  0  3  0  0  0  0  0  0
  157.5160  212.7810  150.7730 N   0  0  0  0  0  0  0  0  0  0  0  0
  155.9770  214.0770  149.4870 C   0  0  0  0  0  3  0  0  0  0  0  0
  156.8890  213.1260  151.9290 C   0  0  0  0  0  0  0  0  0  0  0  0
  157.0850  213.2310  149.5650 C   0  0  0  0  0  3  0  0  0  0  0  0
  155.3230  214.4530  150.6610 C   0  0  0  0  0  3  0  0  0  0  0  0
  156.3980  212.6190  154.3570 C   0  0  1  0  0  3  0  0  0  0  0  0
  155.3330  211.6640  154.0690 C   0  0  0  0  0  2  0  0  0  0  0  0
  156.3970  211.3030  155.0140 N   0  0  0  0  0  2  0  0  0  0  0  0
  160.6950  208.9490  152.4070 O   0  0  0  0  0  0  0  0  0  0  0  0
  161.8090  208.5540  151.6530 C   0  0  0  0  0  0  0  0  0  0  0  0
  162.6250  209.3990  151.1980 O   0  0  0  0  0  0  0  0  0  0  0  0
  162.0460  207.0990  151.3890 C   0  0  2  0  0  3  0  0  0  0  0  0
  161.2790  205.3410  147.4640 C   0  0  0  0  0  2  0  0  0  0  0  0
  161.1880  206.8580  147.6190 C   0  0  0  0  0  2  0  0  0  0  0  0
  161.4650  205.1040  149.9470 C   0  0  0  0  0  2  0  0  0  0  0  0
  161.9310  207.3070  148.8740 C   0  0  0  0  0  2  0  0  0  0  0  0
  160.7160  204.6470  148.7020 C   0  0  0  0  0  2  0  0  0  0  0  0
  161.3420  206.6240  150.1100 C   0  0  0  0  0  3  0  0  0  0  0  0
  161.6060  206.3170  152.5900 C   0  0  0  0  0  0  0  0  0  0  0  0
  162.5130  205.9860  153.5880 O   0  0  0  0  0  1  0  0  0  0  0  0
  160.4180  205.9090  152.6660 O   0  0  0  0  0  0  0  0  0  0  0  0
  1  6  1  0  0  0  0
  3 11  1  0  0  0  0
  3 10  1  1  0  0  0
  4  8  2  0  0  0  0
  4 11  1  0  0  0  0
  5  6  2  0  0  0  0
  7  4  1  0  0  0  0
  8  5  1  0  0  0  0
  9  7  2  0  0  0  0
  9 12  1  0  0  0  0
 11  1  2  0  0  0  0
 12  2  1  1  0  0  0
 12  3  1  0  0  0  0
 13  8  1  0  0  0  0
 14 13  1  0  0  0  0
 15 14  1  0  0  0  0
 16 13  1  1  0  0  0
 17 20  1  0  0  0  0
 18 20  2  0  0  0  0
 19 21  2  0  0  0  0
 19 22  1  0  0  0  0
 20 16  1  0  0  0  0
 21 18  1  0  0  0  0
 22 17  2  0  0  0  0
 23 16  1  6  0  0  0
 23 25  1  0  0  0  0
 24 23  1  0  0  0  0
 24 25  1  0  0  0  0
 26  9  1  0  0  0  0
 27 26  1  0  0  0  0
 28 27  2  0  0  0  0
 29 27  1  1  0  0  0
 29 36  1  0  0  0  0
 30 31  1  0  0  0  0
 30 34  1  0  0  0  0
 31 33  1  0  0  0  0
 32 35  1  0  0  0  0
 33 35  1  0  0  0  0
 34 32  1  0  0  0  0
 35 29  1  0  0  0  0
 36 38  2  0  0  0  0
 36 37  1  0  0  0  0
M  END
>  <MODEL>
9

>  <REMARK>
 VINA RESULT:      -5.5      4.013      6.173
  Name = 
  10 active torsions:
  status: ('A' for Active; 'I' for Inactive)
    1  A    between atoms: C_3  and  C_7
    2  A    between atoms: C_3  and  N_10
    3  A    between atoms: C_3  and  C_31
    4  A    between atoms: N_10  and  C_13
    5  A    between atoms: N_10  and  C_21
    6  A    between atoms: C_14  and  O_26
    7  A    between atoms: C_14  and  C_30
    8  A    between atoms: C_23  and  C_30
    9  A    between atoms: C_25  and  C_30
   10  A    between atoms: O_26  and  C_28
                            x       y       z     vdW  Elec       q    Type
                         _______ _______ _______ _____ _____    ______ ____

>  <TORSDO>
F 10

$$$$
