=
 OpenBabel11072413283D

 41 45  0  0  1  0  0  0  0  0999 V2000
  161.1520  206.4210  152.5100 C   0  0  0  0  0  0  0  0  0  0  0  0
  160.3780  207.1270  154.8430 C   0  0  0  0  0  2  0  0  0  0  0  0
  159.5840  210.7350  153.0860 C   0  0  0  0  0  3  0  0  0  0  0  0
  161.4040  206.8990  151.2230 C   0  0  0  0  0  0  0  0  0  0  0  0
  161.2720  210.1810  154.8870 C   0  0  1  0  0  3  0  0  0  0  0  0
  160.8400  208.6970  152.8730 C   0  0  0  0  0  0  0  0  0  0  0  0
  161.2200  208.5750  151.2330 S   0  0  0  0  0  0  0  0  0  0  0  0
  161.5150  204.1680  151.7360 C   0  0  0  0  0  3  0  0  0  0  0  0
  161.7210  206.0260  150.1610 C   0  0  0  0  0  0  0  0  0  0  0  0
  161.0940  209.8420  157.2550 O   0  0  0  0  0  1  0  0  0  0  0  0
  161.1630  207.8990  155.8950 C   0  0  0  0  0  2  0  0  0  0  0  0
  161.7720  204.6520  150.4440 C   0  0  0  0  0  3  0  0  0  0  0  0
  160.8410  207.4210  153.4420 C   0  0  0  0  0  0  0  0  0  0  0  0
  161.2000  205.0510  152.7770 C   0  0  0  0  0  3  0  0  0  0  0  0
  161.3530  211.5350  155.2240 O   0  0  0  0  0  1  0  0  0  0  0  0
  160.6800  209.3410  156.0190 C   0  0  2  0  0  3  0  0  0  0  0  0
  160.5470  209.9450  153.5820 C   0  0  0  0  0  0  0  0  0  0  0  0
  157.9890  211.6480  154.5720 O   0  0  0  0  0  0  0  0  0  0  0  0
  159.0700  211.9840  153.7330 C   0  0  2  0  0  3  0  0  0  0  0  0
  157.5450  212.8310  155.1920 C   0  0  1  0  0  3  0  0  0  0  0  0
  158.1190  214.1760  153.2880 O   0  0  0  0  0  0  0  0  0  0  0  0
  157.0480  213.8080  154.1230 C   0  0  0  0  0  2  0  0  0  0  0  0
  158.6080  213.0050  152.6660 C   0  0  1  0  0  3  0  0  0  0  0  0
  156.4480  212.5160  156.1500 C   0  0  0  0  0  0  0  0  0  0  0  0
  155.9620  211.3540  156.1720 O   0  0  0  0  0  0  0  0  0  0  0  0
  154.6910  214.0840  156.8650 C   0  0  0  0  0  1  0  0  0  0  0  0
  155.9780  213.5040  157.0170 O   0  0  0  0  0  0  0  0  0  0  0  0
  159.7290  213.3640  151.6870 C   0  0  1  0  0  3  0  0  0  0  0  0
  160.2310  212.2120  151.1100 F   0  0  0  0  0  0  0  0  0  0  0  0
  158.1090  213.8030  149.9900 O   0  0  0  0  0  1  0  0  0  0  0  0
  159.2490  214.3200  150.6040 C   0  0  0  0  0  2  0  0  0  0  0  0
  161.9890  206.4320  148.8460 O   0  0  0  0  0  0  0  0  0  0  0  0
  161.1500  206.1730  147.7280 C   0  0  0  0  0  2  0  0  0  0  0  0
  161.9240  205.4310  146.6510 C   0  0  0  0  0  2  0  0  0  0  0  0
  160.5300  202.0620  145.2440 C   0  0  0  0  0  3  0  0  0  0  0  0
  161.1170  201.8250  147.5420 C   0  0  0  0  0  0  0  0  0  0  0  0
  161.4840  204.0070  146.5540 C   0  0  0  0  0  0  0  0  0  0  0  0
  161.5660  203.2150  147.6260 C   0  0  0  0  0  3  0  0  0  0  0  0
  160.8560  203.5350  145.2650 C   0  0  0  0  0  2  0  0  0  0  0  0
  160.6410  201.3080  146.2970 N   0  0  0  0  0  0  0  0  0  0  0  0
  161.1690  201.0810  148.5560 O   0  0  0  0  0  0  0  0  0  0  0  0
  1 14  1  0  0  0  0
  1 13  1  0  0  0  0
  2 11  1  0  0  0  0
  3 17  2  0  0  0  0
  4  7  1  0  0  0  0
  4  1  2  0  0  0  0
  5 15  1  1  0  0  0
  5 16  1  0  0  0  0
  6 13  2  0  0  0  0
  6 17  1  0  0  0  0
  7  6  1  0  0  0  0
  8 14  2  0  0  0  0
  9 12  2  0  0  0  0
  9  4  1  0  0  0  0
 11 16  1  0  0  0  0
 12  8  1  0  0  0  0
 13  2  1  0  0  0  0
 16 10  1  1  0  0  0
 17  5  1  0  0  0  0
 18 20  1  0  0  0  0
 19  3  1  6  0  0  0
 19 18  1  0  0  0  0
 20 24  1  1  0  0  0
 21 22  1  0  0  0  0
 22 20  1  0  0  0  0
 23 28  1  6  0  0  0
 23 21  1  0  0  0  0
 23 19  1  0  0  0  0
 24 25  2  0  0  0  0
 24 27  1  0  0  0  0
 26 27  1  0  0  0  0
 28 29  1  6  0  0  0
 30 31  1  0  0  0  0
 31 28  1  0  0  0  0
 32  9  1  0  0  0  0
 33 32  1  0  0  0  0
 34 33  1  0  0  0  0
 35 39  1  0  0  0  0
 35 40  2  0  0  0  0
 36 38  1  0  0  0  0
 36 41  2  0  0  0  0
 37 34  1  0  0  0  0
 37 38  2  0  0  0  0
 39 37  1  0  0  0  0
 40 36  1  0  0  0  0
M  END
>  <MODEL>
1

>  <REMARK>
 VINA RESULT:      -9.0      0.000      0.000
  Name = 
  9 active torsions:
  status: ('A' for Active; 'I' for Inactive)
    1  A    between atoms: C_4  and  C_15
    2  A    between atoms: C_6  and  C_8
    3  A    between atoms: C_7  and  C_12
    4  A    between atoms: C_8  and  O_11
    5  A    between atoms: C_9  and  C_23
    6  A    between atoms: C_9  and  C_37
    7  A    between atoms: C_12  and  C_39
    8  A    between atoms: C_27  and  O_34
    9  A    between atoms: O_34  and  C_39
                            x       y       z     vdW  Elec       q    Type
                         _______ _______ _______ _____ _____    ______ ____

>  <TORSDO>
F 9

$$$$
