=
 OpenBabel11072411453D

 49 56  0  0  1  0  0  0  0  0999 V2000
  162.1940  209.2110  155.7130 O   0  0  0  0  0  0  0  0  0  0  0  0
  160.9880  212.3120  155.4120 C   0  0  0  0  0  3  0  0  0  0  0  0
  156.7540  209.1190  156.1790 O   0  0  0  0  0  0  0  0  0  0  0  0
  158.1250  208.9480  156.1990 C   0  0  0  0  0  0  0  0  0  0  0  0
  160.1110  213.3050  155.2390 C   0  0  0  0  0  0  0  0  0  0  0  0
  160.1010  210.0080  155.3600 C   0  0  0  0  0  0  0  0  0  0  0  0
  160.2740  207.9720  156.6870 C   0  0  0  0  0  3  0  0  0  0  0  0
  159.6060  213.3920  152.7950 C   0  0  1  0  0  3  0  0  0  0  0  0
  158.7140  209.9530  155.4900 C   0  0  0  0  0  0  0  0  0  0  0  0
  158.5150  213.1530  151.7710 C   0  0  0  0  0  1  0  0  0  0  0  0
  159.0400  213.2290  154.2020 C   0  0  0  0  0  2  0  0  0  0  0  0
  160.7900  211.0990  153.1140 C   0  0  2  0  0  3  0  0  0  0  0  0
  160.9970  210.9940  154.6640 C   0  0  1  0  0  0  0  0  0  0  0  0
  162.3930  210.3670  154.8990 C   0  0  0  0  0  2  0  0  0  0  0  0
  157.7420  210.7910  154.9800 O   0  0  0  0  0  0  0  0  0  0  0  0
  160.8370  212.5170  152.5070 C   0  0  0  0  0  2  0  0  0  0  0  0
  158.8690  207.9330  156.8170 C   0  0  0  0  0  3  0  0  0  0  0  0
  156.4600  210.2890  155.3930 C   0  0  1  0  0  0  0  0  0  0  0  0
  155.7220  209.9200  154.2650 O   0  0  0  0  0  1  0  0  0  0  0  0
  160.8540  209.0230  155.9510 C   0  0  0  0  0  0  0  0  0  0  0  0
  160.2260  214.4530  156.0120 O   0  0  0  0  0  1  0  0  0  0  0  0
  159.9270  208.7000  152.9570 C   0  0  0  0  0  2  0  0  0  0  0  0
  160.4840  209.0220  151.5950 C   0  0  1  0  0  0  0  0  0  0  0  0
  159.9020  210.1630  151.0210 O   0  0  0  0  0  0  0  0  0  0  0  0
  159.8080  210.1120  152.4250 C   0  0  2  0  0  0  0  0  0  0  0  0
  162.0110  209.1130  151.5780 C   0  0  0  0  0  2  0  0  0  0  0  0
  162.5470  208.0990  150.7770 O   0  0  0  0  0  0  0  0  0  0  0  0
  161.8800  206.9320  151.1600 C   0  0  1  0  0  3  0  0  0  0  0  0
  160.4060  205.9510  147.6470 C   0  0  2  0  0  3  0  0  0  0  0  0
  159.9650  204.8630  151.2590 O   0  0  0  0  0  0  0  0  0  0  0  0
  160.8960  206.8550  148.7920 C   0  0  2  0  0  3  0  0  0  0  0  0
  161.5530  202.4900  147.6780 O   0  0  0  0  0  0  0  0  0  0  0  0
  160.7440  204.8430  150.2690 C   0  0  0  0  0  0  0  0  0  0  0  0
  160.8120  203.6860  149.4860 O   0  0  0  0  0  0  0  0  0  0  0  0
  161.2630  203.6190  148.1560 C   0  0  0  0  0  0  0  0  0  0  0  0
  161.7690  207.8220  148.2910 O   0  0  0  0  0  1  0  0  0  0  0  0
  161.3720  204.8220  147.2510 C   0  0  2  0  0  3  0  0  0  0  0  0
  160.0450  206.7070  146.5300 O   0  0  0  0  0  1  0  0  0  0  0  0
  161.5680  206.0600  149.9250 C   0  0  2  0  0  3  0  0  0  0  0  0
  162.8260  205.2650  147.0730 C   0  0  0  0  0  3  0  0  0  0  0  0
  163.0030  205.9220  145.7170 C   0  0  0  0  0  2  0  0  0  0  0  0
  163.4530  204.4920  145.9280 C   0  0  0  0  0  2  0  0  0  0  0  0
  162.7620  206.1740  152.1500 C   0  0  0  0  0  2  0  0  0  0  0  0
  161.2260  205.6200  153.8150 C   0  0  0  0  0  1  0  0  0  0  0  0
  162.3580  206.4780  153.5120 N   0  0  0  0  0  2  0  0  0  0  0  0
  155.2260  212.3450  155.3720 O   0  0  0  0  0  1  0  0  0  0  0  0
  155.7000  211.3430  156.2180 C   0  0  0  0  0  0  0  0  0  0  0  0
  156.6080  211.9750  157.2610 C   0  0  0  0  0  1  0  0  0  0  0  0
  154.5210  210.7080  156.9340 C   0  0  0  0  0  1  0  0  0  0  0  0
  1 20  1  0  0  0  0
  3  4  1  0  0  0  0
  4 17  1  0  0  0  0
  5  2  2  0  0  0  0
  5 21  1  0  0  0  0
  6  9  1  0  0  0  0
  6 20  2  0  0  0  0
  7 17  2  0  0  0  0
  8 10  1  6  0  0  0
  8 11  1  0  0  0  0
  9  4  2  0  0  0  0
 11  5  1  0  0  0  0
 12 16  1  1  0  0  0
 12 13  1  0  0  0  0
 13 14  1  1  0  0  0
 13  6  1  0  0  0  0
 13  2  1  0  0  0  0
 14  1  1  0  0  0  0
 15 18  1  0  0  0  0
 15  9  1  0  0  0  0
 16  8  1  0  0  0  0
 18 19  1  6  0  0  0
 18  3  1  0  0  0  0
 18 47  1  0  0  0  0
 20  7  1  0  0  0  0
 23 26  1  1  0  0  0
 23 25  1  0  0  0  0
 23 22  1  0  0  0  0
 24 23  1  0  0  0  0
 24 25  1  0  0  0  0
 25 22  1  1  0  0  0
 25 12  1  0  0  0  0
 27 28  1  0  0  0  0
 27 26  1  0  0  0  0
 28 43  1  1  0  0  0
 29 38  1  6  0  0  0
 29 31  1  0  0  0  0
 31 36  1  6  0  0  0
 31 39  1  0  0  0  0
 32 35  2  0  0  0  0
 33 30  2  0  0  0  0
 34 33  1  0  0  0  0
 35 34  1  0  0  0  0
 37 40  1  1  0  0  0
 37 29  1  0  0  0  0
 37 35  1  0  0  0  0
 39 33  1  0  0  0  0
 39 28  1  1  0  0  0
 41 42  1  0  0  0  0
 41 40  1  0  0  0  0
 42 40  1  0  0  0  0
 43 45  1  0  0  0  0
 45 44  1  0  0  0  0
 46 47  1  0  0  0  0
 47 49  1  0  0  0  0
 47 48  1  0  0  0  0
M  END
>  <MODEL>
1

>  <REMARK>
 VINA RESULT:       3.3      0.000      0.000
  Name = 
  9 active torsions:
  status: ('A' for Active; 'I' for Inactive)
    1  A    between atoms: C_3  and  C_8
    2  A    between atoms: C_3  and  N_44
    3  A    between atoms: C_8  and  O_43
    4  A    between atoms: C_8  and  C_47
    5  A    between atoms: C_13  and  C_42
    6  A    between atoms: C_15  and  C_37
    7  A    between atoms: C_16  and  C_48
    8  A    between atoms: C_25  and  C_40
    9  A    between atoms: O_43  and  C_48
                            x       y       z     vdW  Elec       q    Type
                         _______ _______ _______ _____ _____    ______ ____

>  <TORSDO>
F 9

$$$$
