=
 OpenBabel11072411153D

 28 31  0  0  1  0  0  0  0  0999 V2000
  159.8520  211.9470  151.9230 N   0  0  0  0  0  2  0  0  0  0  0  0
  160.3300  214.0350  149.0500 C   0  0  2  0  0  3  0  0  0  0  0  0
  160.3660  214.3800  147.5840 C   0  0  0  0  0  3  0  0  0  0  0  0
  161.6010  209.0940  148.4040 O   0  0  0  0  0  1  0  0  0  0  0  0
  161.7830  212.5000  147.1620 C   0  0  0  0  0  3  0  0  0  0  0  0
  162.2680  209.3730  150.6930 C   0  0  1  0  0  3  0  0  0  0  0  0
  159.3400  213.2810  151.8610 C   0  0  0  0  0  0  0  0  0  0  0  0
  159.5850  214.0970  152.7890 O   0  0  0  0  0  0  0  0  0  0  0  0
  158.4710  213.7170  150.7220 C   0  0  2  0  0  3  0  0  0  0  0  0
  161.2160  208.3740  151.1850 C   0  0  2  0  0  3  0  0  0  0  0  0
  157.0810  213.1380  150.8880 C   0  0  0  0  0  1  0  0  0  0  0  0
  161.7780  210.0440  149.4120 C   0  0  1  0  0  3  0  0  0  0  0  0
  161.0160  213.6350  146.7380 N   0  0  0  0  0  0  0  0  0  0  0  0
  162.4250  210.4070  151.8010 C   0  0  0  0  0  2  0  0  0  0  0  0
  160.5510  211.4550  153.1050 C   0  0  0  0  0  2  0  0  0  0  0  0
  161.9790  212.2890  148.4630 C   0  0  0  0  0  0  0  0  0  0  0  0
  161.4230  213.1760  149.3940 O   0  0  0  0  0  0  0  0  0  0  0  0
  162.7510  211.1090  148.9300 C   0  0  0  0  0  2  0  0  0  0  0  0
  161.3170  210.1700  152.8110 C   0  0  1  0  0  3  0  0  0  0  0  0
  160.4160  209.0800  152.2640 C   0  0  0  0  0  2  0  0  0  0  0  0
  159.0260  213.3150  149.3610 C   0  0  0  0  0  2  0  0  0  0  0  0
  163.0440  206.9410  151.2150 O   0  0  0  0  0  1  0  0  0  0  0  0
  161.7890  207.1240  151.7040 N   0  0  0  0  0  0  0  0  0  0  0  0
  160.9420  205.9970  151.3040 C   0  0  2  0  0  3  0  0  0  0  0  0
  161.2160  204.7970  152.1840 C   0  0  0  0  0  2  0  0  0  0  0  0
  160.8760  204.2650  149.9010 C   0  0  0  0  0  2  0  0  0  0  0  0
  161.1580  205.6360  149.9620 O   0  0  0  0  0  0  0  0  0  0  0  0
  161.2400  203.6440  151.2280 C   0  0  0  0  0  2  0  0  0  0  0  0
  1 15  1  0  0  0  0
  2  3  1  6  0  0  0
  2 21  1  0  0  0  0
  2 17  1  0  0  0  0
  5 16  2  0  0  0  0
  6 10  1  0  0  0  0
  6 14  1  1  0  0  0
  7  1  1  0  0  0  0
  7  8  2  0  0  0  0
  9 11  1  1  0  0  0
  9  7  1  0  0  0  0
 10 23  1  1  0  0  0
 10 20  1  0  0  0  0
 12  4  1  6  0  0  0
 12  6  1  0  0  0  0
 13  5  1  0  0  0  0
 13  3  2  0  0  0  0
 16 18  1  0  0  0  0
 16 17  1  0  0  0  0
 18 12  1  0  0  0  0
 19 14  1  6  0  0  0
 19 15  1  0  0  0  0
 20 19  1  0  0  0  0
 21  9  1  0  0  0  0
 22 23  1  0  0  0  0
 24 23  1  1  0  0  0
 24 25  1  0  0  0  0
 26 27  1  0  0  0  0
 26 28  1  0  0  0  0
 27 24  1  0  0  0  0
 28 25  1  0  0  0  0
M  END
>  <MODEL>
1

>  <REMARK>
 VINA RESULT:      -6.2      0.000      0.000
  Name = 
  2 active torsions:
  status: ('A' for Active; 'I' for Inactive)
    1  A    between atoms: C_5  and  N_28
    2  A    between atoms: C_13  and  N_28
                            x       y       z     vdW  Elec       q    Type
                         _______ _______ _______ _____ _____    ______ ____

>  <TORSDO>
F 2

$$$$
=
 OpenBabel11072411153D

 28 31  0  0  1  0  0  0  0  0999 V2000
  160.9990  208.2180  153.4310 N   0  0  0  0  0  2  0  0  0  0  0  0
  161.6590  211.0010  151.2730 C   0  0  2  0  0  3  0  0  0  0  0  0
  161.5100  211.8640  150.0470 C   0  0  0  0  0  3  0  0  0  0  0  0
  160.5630  206.5840  148.8790 O   0  0  0  0  0  1  0  0  0  0  0  0
  161.8760  209.9600  148.6460 C   0  0  0  0  0  3  0  0  0  0  0  0
  161.7750  205.7190  150.7610 C   0  0  1  0  0  3  0  0  0  0  0  0
  161.0940  209.5560  153.9260 C   0  0  0  0  0  0  0  0  0  0  0  0
  161.8570  209.8210  154.8930 O   0  0  0  0  0  0  0  0  0  0  0  0
  160.2590  210.6520  153.3390 C   0  0  2  0  0  3  0  0  0  0  0  0
  160.5380  204.9910  151.3000 C   0  0  2  0  0  3  0  0  0  0  0  0
  158.8300  210.5210  153.8230 C   0  0  0  0  0  1  0  0  0  0  0  0
  161.3400  206.9550  149.9770 C   0  0  1  0  0  3  0  0  0  0  0  0
  161.5820  211.3480  148.8540 N   0  0  0  0  0  0  0  0  0  0  0  0
  162.5910  206.1290  151.9800 C   0  0  0  0  0  2  0  0  0  0  0  0
  161.6710  207.1100  154.1010 C   0  0  0  0  0  2  0  0  0  0  0  0
  162.2480  209.2060  149.6790 C   0  0  0  0  0  0  0  0  0  0  0  0
  162.3370  209.7820  150.9530 O   0  0  0  0  0  0  0  0  0  0  0  0
  162.5370  207.7600  149.4950 C   0  0  0  0  0  2  0  0  0  0  0  0
  161.7410  205.8740  153.2110 C   0  0  1  0  0  3  0  0  0  0  0  0
  160.3690  205.4280  152.7430 C   0  0  0  0  0  2  0  0  0  0  0  0
  160.2770  210.6650  151.8160 C   0  0  0  0  0  2  0  0  0  0  0  0
  161.8890  203.1150  151.5360 O   0  0  0  0  0  1  0  0  0  0  0  0
  160.6340  203.5270  151.2140 N   0  0  0  0  0  0  0  0  0  0  0  0
  160.3170  203.0970  149.8480 C   0  0  2  0  0  3  0  0  0  0  0  0
  160.2640  201.5870  149.7730 C   0  0  0  0  0  2  0  0  0  0  0  0
  161.2780  202.6160  147.8950 C   0  0  0  0  0  2  0  0  0  0  0  0
  161.2670  203.5670  148.9240 O   0  0  0  0  0  0  0  0  0  0  0  0
  160.9720  201.2630  148.4920 C   0  0  0  0  0  2  0  0  0  0  0  0
  1  7  1  0  0  0  0
  1 15  1  0  0  0  0
  2  3  1  6  0  0  0
  2 21  1  0  0  0  0
  5 13  1  0  0  0  0
  5 16  2  0  0  0  0
  6 10  1  0  0  0  0
  6 14  1  1  0  0  0
  7  8  2  0  0  0  0
  9 11  1  6  0  0  0
  9  7  1  0  0  0  0
 10 23  1  1  0  0  0
 10 20  1  0  0  0  0
 12  4  1  6  0  0  0
 12  6  1  0  0  0  0
 13  3  2  0  0  0  0
 16 17  1  0  0  0  0
 17  2  1  0  0  0  0
 18 16  1  0  0  0  0
 18 12  1  0  0  0  0
 19 14  1  6  0  0  0
 19 15  1  0  0  0  0
 20 19  1  0  0  0  0
 21  9  1  0  0  0  0
 23 22  1  0  0  0  0
 24 23  1  1  0  0  0
 25 24  1  0  0  0  0
 26 28  1  0  0  0  0
 26 27  1  0  0  0  0
 27 24  1  0  0  0  0
 28 25  1  0  0  0  0
M  END
>  <MODEL>
2

>  <REMARK>
 VINA RESULT:      -6.2      2.591      3.798
  Name = 
  2 active torsions:
  status: ('A' for Active; 'I' for Inactive)
    1  A    between atoms: C_5  and  N_28
    2  A    between atoms: C_13  and  N_28
                            x       y       z     vdW  Elec       q    Type
                         _______ _______ _______ _____ _____    ______ ____

>  <TORSDO>
F 2

$$$$
=
 OpenBabel11072411153D

 28 31  0  0  1  0  0  0  0  0999 V2000
  161.6150  210.9120  150.1860 N   0  0  0  0  0  2  0  0  0  0  0  0
  160.0280  211.5690  153.3310 C   0  0  2  0  0  3  0  0  0  0  0  0
  158.8760  211.7810  154.2800 C   0  0  0  0  0  3  0  0  0  0  0  0
  157.6070  213.4760  149.2140 O   0  0  0  0  0  1  0  0  0  0  0  0
  157.9700  213.4500  152.8260 C   0  0  0  0  0  3  0  0  0  0  0  0
  159.8800  213.7610  148.4980 C   0  0  1  0  0  3  0  0  0  0  0  0
  162.0280  210.2660  151.3940 C   0  0  0  0  0  0  0  0  0  0  0  0
  163.2410  210.2760  151.7350 O   0  0  0  0  0  0  0  0  0  0  0  0
  161.0400  209.5320  152.2470 C   0  0  2  0  0  3  0  0  0  0  0  0
  159.7060  212.7680  147.3440 C   0  0  2  0  0  3  0  0  0  0  0  0
  160.6910  208.2070  151.5990 C   0  0  0  0  0  1  0  0  0  0  0  0
  158.9350  213.3920  149.6380 C   0  0  1  0  0  3  0  0  0  0  0  0
  157.9300  212.6300  154.0010 N   0  0  0  0  0  0  0  0  0  0  0  0
  161.3280  213.6330  148.9540 C   0  0  0  0  0  2  0  0  0  0  0  0
  162.5870  211.4800  149.2580 C   0  0  0  0  0  2  0  0  0  0  0  0
  159.0730  213.4740  152.0790 C   0  0  0  0  0  0  0  0  0  0  0  0
  160.1710  212.6890  152.4520 O   0  0  0  0  0  0  0  0  0  0  0  0
  159.1320  214.2990  150.8440 C   0  0  0  0  0  2  0  0  0  0  0  0
  161.9250  212.4220  148.2590 C   0  0  1  0  0  3  0  0  0  0  0  0
  160.8160  211.7430  147.4800 C   0  0  0  0  0  2  0  0  0  0  0  0
  159.7630  210.3230  152.4970 C   0  0  0  0  0  2  0  0  0  0  0  0
  158.4880  213.6960  145.5970 O   0  0  0  0  0  1  0  0  0  0  0  0
  159.7460  213.3970  146.0160 N   0  0  0  0  0  0  0  0  0  0  0  0
  160.3720  212.4790  145.0610 C   0  0  2  0  0  3  0  0  0  0  0  0
  161.5850  213.1270  144.4290 C   0  0  0  0  0  2  0  0  0  0  0  0
  160.2810  211.8410  142.9260 C   0  0  0  0  0  2  0  0  0  0  0  0
  159.4770  212.0990  144.0440 O   0  0  0  0  0  0  0  0  0  0  0  0
  161.4820  212.7530  142.9820 C   0  0  0  0  0  2  0  0  0  0  0  0
  1  7  1  0  0  0  0
  2 21  1  6  0  0  0
  2  3  1  0  0  0  0
  5 13  1  0  0  0  0
  6 14  1  1  0  0  0
  6 12  1  0  0  0  0
  7  8  2  0  0  0  0
  7  9  1  0  0  0  0
  9 11  1  6  0  0  0
  9 21  1  0  0  0  0
 10 23  1  6  0  0  0
 10 20  1  0  0  0  0
 10  6  1  0  0  0  0
 12  4  1  6  0  0  0
 12 18  1  0  0  0  0
 13  3  2  0  0  0  0
 15  1  1  0  0  0  0
 16 17  1  0  0  0  0
 16  5  2  0  0  0  0
 17  2  1  0  0  0  0
 18 16  1  0  0  0  0
 19 20  1  1  0  0  0
 19 14  1  0  0  0  0
 19 15  1  0  0  0  0
 22 23  1  0  0  0  0
 24 23  1  1  0  0  0
 25 24  1  0  0  0  0
 26 28  1  0  0  0  0
 26 27  1  0  0  0  0
 27 24  1  0  0  0  0
 28 25  1  0  0  0  0
M  END
>  <MODEL>
3

>  <REMARK>
 VINA RESULT:      -4.9      2.490      6.878
  Name = 
  2 active torsions:
  status: ('A' for Active; 'I' for Inactive)
    1  A    between atoms: C_5  and  N_28
    2  A    between atoms: C_13  and  N_28
                            x       y       z     vdW  Elec       q    Type
                         _______ _______ _______ _____ _____    ______ ____

>  <TORSDO>
F 2

$$$$
=
 OpenBabel11072411153D

 28 31  0  0  1  0  0  0  0  0999 V2000
  161.8610  206.6160  148.4080 N   0  0  0  0  0  2  0  0  0  0  0  0
  161.4920  203.0860  147.9090 C   0  0  2  0  0  3  0  0  0  0  0  0
  160.8310  201.7370  148.0230 C   0  0  0  0  0  3  0  0  0  0  0  0
  159.7110  204.8630  152.3940 O   0  0  0  0  0  1  0  0  0  0  0  0
  160.6840  201.9930  150.3960 C   0  0  0  0  0  3  0  0  0  0  0  0
  161.6070  206.3100  152.1250 C   0  0  1  0  0  3  0  0  0  0  0  0
  162.0910  206.0010  147.1370 C   0  0  0  0  0  0  0  0  0  0  0  0
  163.1660  206.2160  146.5150 O   0  0  0  0  0  0  0  0  0  0  0  0
  161.0490  205.1310  146.5050 C   0  0  2  0  0  3  0  0  0  0  0  0
  160.7190  207.5540  152.0110 C   0  0  2  0  0  3  0  0  0  0  0  0
  159.9370  205.9940  145.9420 C   0  0  0  0  0  1  0  0  0  0  0  0
  160.8460  205.0890  151.6140 C   0  0  1  0  0  3  0  0  0  0  0  0
  160.4420  201.2780  149.1770 N   0  0  0  0  0  0  0  0  0  0  0  0
  162.8250  206.5760  151.2500 C   0  0  0  0  0  2  0  0  0  0  0  0
  162.7890  207.5990  148.9560 C   0  0  0  0  0  2  0  0  0  0  0  0
  161.4680  203.0710  150.3810 C   0  0  0  0  0  0  0  0  0  0  0  0
  162.0340  203.4900  149.1710 O   0  0  0  0  0  0  0  0  0  0  0  0
  161.7170  203.8420  151.6260 C   0  0  0  0  0  2  0  0  0  0  0  0
  162.5480  207.8310  150.4430 C   0  0  1  0  0  3  0  0  0  0  0  0
  161.1220  208.2620  150.7310 C   0  0  0  0  0  2  0  0  0  0  0  0
  160.4560  204.1120  147.4700 C   0  0  0  0  0  2  0  0  0  0  0  0
  161.7720  209.4150  152.9190 O   0  0  0  0  0  1  0  0  0  0  0  0
  160.8310  208.4640  153.1600 N   0  0  0  0  0  0  0  0  0  0  0  0
  161.2060  207.6990  154.3530 C   0  0  2  0  0  3  0  0  0  0  0  0
  159.9760  207.1070  155.0040 C   0  0  0  0  0  2  0  0  0  0  0  0
  161.5810  207.9330  156.5380 C   0  0  0  0  0  2  0  0  0  0  0  0
  161.8780  208.5010  155.2920 O   0  0  0  0  0  0  0  0  0  0  0  0
  160.2000  207.3280  156.4690 C   0  0  0  0  0  2  0  0  0  0  0  0
  1 15  1  0  0  0  0
  2 21  1  1  0  0  0
  2  3  1  0  0  0  0
  2 17  1  0  0  0  0
  3 13  2  0  0  0  0
  6 14  1  6  0  0  0
  7  1  1  0  0  0  0
  8  7  2  0  0  0  0
  9 11  1  1  0  0  0
  9  7  1  0  0  0  0
  9 21  1  0  0  0  0
 10  6  1  0  0  0  0
 10 23  1  1  0  0  0
 12 18  1  0  0  0  0
 12  6  1  0  0  0  0
 12  4  1  1  0  0  0
 13  5  1  0  0  0  0
 16  5  2  0  0  0  0
 16 18  1  0  0  0  0
 17 16  1  0  0  0  0
 19 15  1  6  0  0  0
 19 20  1  0  0  0  0
 19 14  1  0  0  0  0
 20 10  1  0  0  0  0
 22 23  1  0  0  0  0
 24 23  1  6  0  0  0
 24 25  1  0  0  0  0
 24 27  1  0  0  0  0
 25 28  1  0  0  0  0
 27 26  1  0  0  0  0
 28 26  1  0  0  0  0
M  END
>  <MODEL>
4

>  <REMARK>
 VINA RESULT:      -4.8      4.175      7.680
  Name = 
  2 active torsions:
  status: ('A' for Active; 'I' for Inactive)
    1  A    between atoms: C_5  and  N_28
    2  A    between atoms: C_13  and  N_28
                            x       y       z     vdW  Elec       q    Type
                         _______ _______ _______ _____ _____    ______ ____

>  <TORSDO>
F 2

$$$$
=
 OpenBabel11072411153D

 28 31  0  0  1  0  0  0  0  0999 V2000
  160.7150  203.0660  149.6430 N   0  0  0  0  0  2  0  0  0  0  0  0
  160.6520  203.3550  146.0710 C   0  0  2  0  0  3  0  0  0  0  0  0
  161.1740  203.7200  144.7050 C   0  0  0  0  0  3  0  0  0  0  0  0
  163.0730  207.1640  148.5350 O   0  0  0  0  0  1  0  0  0  0  0  0
  161.5950  205.9540  145.4490 C   0  0  0  0  0  3  0  0  0  0  0  0
  161.3240  206.7230  150.1190 C   0  0  1  0  0  3  0  0  0  0  0  0
  160.2880  201.9900  148.8020 C   0  0  0  0  0  0  0  0  0  0  0  0
  159.1830  201.4220  149.0120 O   0  0  0  0  0  0  0  0  0  0  0  0
  161.1600  201.4920  147.6910 C   0  0  2  0  0  3  0  0  0  0  0  0
  162.3220  206.2600  151.1850 C   0  0  2  0  0  3  0  0  0  0  0  0
  162.2920  200.6620  148.2630 C   0  0  0  0  0  1  0  0  0  0  0  0
  161.8930  206.4450  148.7300 C   0  0  1  0  0  3  0  0  0  0  0  0
  161.6310  204.9140  144.4620 N   0  0  0  0  0  0  0  0  0  0  0  0
  160.0560  205.9090  150.3410 C   0  0  0  0  0  2  0  0  0  0  0  0
  159.9600  203.4470  150.8310 C   0  0  0  0  0  2  0  0  0  0  0  0
  160.9340  205.7550  146.5880 C   0  0  0  0  0  0  0  0  0  0  0  0
  160.2910  204.5300  146.8040 O   0  0  0  0  0  0  0  0  0  0  0  0
  160.9000  206.8090  147.6360 C   0  0  0  0  0  2  0  0  0  0  0  0
  160.3790  204.8180  151.3470 C   0  0  1  0  0  3  0  0  0  0  0  0
  161.8640  204.8890  151.6450 C   0  0  0  0  0  2  0  0  0  0  0  0
  161.7390  202.6140  146.8370 C   0  0  0  0  0  2  0  0  0  0  0  0
  162.1340  206.5260  153.4850 O   0  0  0  0  0  1  0  0  0  0  0  0
  162.4290  207.1770  152.3290 N   0  0  0  0  0  0  0  0  0  0  0  0
  161.4970  208.2940  152.1470 C   0  0  2  0  0  3  0  0  0  0  0  0
  162.2590  209.5860  151.9490 C   0  0  0  0  0  2  0  0  0  0  0  0
  160.3220  209.8010  153.2960 C   0  0  0  0  0  2  0  0  0  0  0  0
  160.6380  208.4360  153.2510 O   0  0  0  0  0  0  0  0  0  0  0  0
  161.5060  210.5810  152.7780 C   0  0  0  0  0  2  0  0  0  0  0  0
  1 15  1  0  0  0  0
  2  3  1  6  0  0  0
  2 17  1  0  0  0  0
  2 21  1  0  0  0  0
  5 16  2  0  0  0  0
  6 14  1  1  0  0  0
  6 10  1  0  0  0  0
  7  8  2  0  0  0  0
  7  1  1  0  0  0  0
  9 11  1  1  0  0  0
  9  7  1  0  0  0  0
 10 20  1  0  0  0  0
 10 23  1  1  0  0  0
 12  4  1  6  0  0  0
 12  6  1  0  0  0  0
 13  3  2  0  0  0  0
 13  5  1  0  0  0  0
 15 19  1  0  0  0  0
 16 17  1  0  0  0  0
 16 18  1  0  0  0  0
 18 12  1  0  0  0  0
 19 14  1  6  0  0  0
 19 20  1  0  0  0  0
 21  9  1  0  0  0  0
 23 22  1  0  0  0  0
 24 23  1  1  0  0  0
 24 27  1  0  0  0  0
 25 24  1  0  0  0  0
 25 28  1  0  0  0  0
 27 26  1  0  0  0  0
 28 26  1  0  0  0  0
M  END
>  <MODEL>
5

>  <REMARK>
 VINA RESULT:      -4.7      3.959      7.883
  Name = 
  2 active torsions:
  status: ('A' for Active; 'I' for Inactive)
    1  A    between atoms: C_5  and  N_28
    2  A    between atoms: C_13  and  N_28
                            x       y       z     vdW  Elec       q    Type
                         _______ _______ _______ _____ _____    ______ ____

>  <TORSDO>
F 2

$$$$
=
 OpenBabel11072411153D

 28 31  0  0  1  0  0  0  0  0999 V2000
  161.6090  208.4420  149.8670 N   0  0  0  0  0  2  0  0  0  0  0  0
  161.7970  204.9890  150.8070 C   0  0  2  0  0  3  0  0  0  0  0  0
  161.3460  203.7090  151.4620 C   0  0  0  0  0  3  0  0  0  0  0  0
  159.6230  208.0910  154.2850 O   0  0  0  0  0  1  0  0  0  0  0  0
  161.0850  204.8520  153.5470 C   0  0  0  0  0  3  0  0  0  0  0  0
  161.2840  209.5870  153.4110 C   0  0  1  0  0  3  0  0  0  0  0  0
  161.9710  207.4210  148.9340 C   0  0  0  0  0  0  0  0  0  0  0  0
  163.0200  207.5350  148.2450 O   0  0  0  0  0  0  0  0  0  0  0  0
  161.0930  206.2250  148.7270 C   0  0  2  0  0  3  0  0  0  0  0  0
  160.2210  210.5340  152.8450 C   0  0  2  0  0  3  0  0  0  0  0  0
  159.8830  206.6170  147.9040 C   0  0  0  0  0  1  0  0  0  0  0  0
  160.7350  208.1630  153.4450 C   0  0  1  0  0  3  0  0  0  0  0  0
  160.9940  203.6880  152.7150 N   0  0  0  0  0  0  0  0  0  0  0  0
  162.4750  209.6690  152.4650 C   0  0  0  0  0  2  0  0  0  0  0  0
  162.3580  209.6910  149.9560 C   0  0  0  0  0  2  0  0  0  0  0  0
  161.6960  205.9430  153.0850 C   0  0  0  0  0  0  0  0  0  0  0  0
  162.2310  205.9340  151.7910 O   0  0  0  0  0  0  0  0  0  0  0  0
  161.7850  207.1690  153.9190 C   0  0  0  0  0  2  0  0  0  0  0  0
  162.0360  210.4490  151.2390 C   0  0  1  0  0  3  0  0  0  0  0  0
  160.5540  210.7350  151.3780 C   0  0  0  0  0  2  0  0  0  0  0  0
  160.6320  205.5890  150.0320 C   0  0  0  0  0  2  0  0  0  0  0  0
  160.5900  211.6980  154.8210 O   0  0  0  0  0  1  0  0  0  0  0  0
  160.1570  211.8280  153.5400 N   0  0  0  0  0  0  0  0  0  0  0  0
  158.7730  212.3120  153.5400 C   0  0  2  0  0  3  0  0  0  0  0  0
  158.6790  213.6290  154.2790 C   0  0  0  0  0  2  0  0  0  0  0  0
  156.8640  212.1610  154.6820 C   0  0  0  0  0  2  0  0  0  0  0  0
  157.9010  211.3880  154.1430 O   0  0  0  0  0  0  0  0  0  0  0  0
  157.4310  213.4960  155.0980 C   0  0  0  0  0  2  0  0  0  0  0  0
  1 15  1  0  0  0  0
  2 21  1  1  0  0  0
  2  3  1  0  0  0  0
  2 17  1  0  0  0  0
  3 13  2  0  0  0  0
  6 14  1  6  0  0  0
  6 12  1  0  0  0  0
  7  1  1  0  0  0  0
  8  7  2  0  0  0  0
  9 11  1  1  0  0  0
  9  7  1  0  0  0  0
  9 21  1  0  0  0  0
 10  6  1  0  0  0  0
 10 23  1  1  0  0  0
 12 18  1  0  0  0  0
 12  4  1  1  0  0  0
 13  5  1  0  0  0  0
 16  5  2  0  0  0  0
 16 18  1  0  0  0  0
 17 16  1  0  0  0  0
 19 15  1  6  0  0  0
 19 20  1  0  0  0  0
 19 14  1  0  0  0  0
 20 10  1  0  0  0  0
 23 22  1  0  0  0  0
 24 23  1  1  0  0  0
 24 27  1  0  0  0  0
 24 25  1  0  0  0  0
 25 28  1  0  0  0  0
 26 28  1  0  0  0  0
 27 26  1  0  0  0  0
M  END
>  <MODEL>
6

>  <REMARK>
 VINA RESULT:      -4.6      2.837      7.430
  Name = 
  2 active torsions:
  status: ('A' for Active; 'I' for Inactive)
    1  A    between atoms: C_5  and  N_28
    2  A    between atoms: C_13  and  N_28
                            x       y       z     vdW  Elec       q    Type
                         _______ _______ _______ _____ _____    ______ ____

>  <TORSDO>
F 2

$$$$
=
 OpenBabel11072411153D

 28 31  0  0  1  0  0  0  0  0999 V2000
  161.5240  207.8770  149.6410 N   0  0  0  0  0  2  0  0  0  0  0  0
  161.6080  204.2980  149.8050 C   0  0  2  0  0  3  0  0  0  0  0  0
  161.1320  202.9210  150.1890 C   0  0  0  0  0  3  0  0  0  0  0  0
  159.7080  206.6370  153.9710 O   0  0  0  0  0  1  0  0  0  0  0  0
  161.0040  203.5910  152.4820 C   0  0  0  0  0  3  0  0  0  0  0  0
  161.3920  208.2340  153.3600 C   0  0  1  0  0  3  0  0  0  0  0  0
  161.8050  207.0710  148.4930 C   0  0  0  0  0  0  0  0  0  0  0  0
  162.8290  207.3000  147.7950 O   0  0  0  0  0  0  0  0  0  0  0  0
  160.8720  205.9770  148.0760 C   0  0  2  0  0  3  0  0  0  0  0  0
  160.3470  209.3140  153.0640 C   0  0  2  0  0  3  0  0  0  0  0  0
  159.6460  206.5750  147.4170 C   0  0  0  0  0  1  0  0  0  0  0  0
  160.7860  206.8540  153.1130 C   0  0  1  0  0  3  0  0  0  0  0  0
  160.8320  202.6390  151.4240 N   0  0  0  0  0  0  0  0  0  0  0  0
  162.5460  208.4820  152.3970 C   0  0  0  0  0  2  0  0  0  0  0  0
  162.3270  209.0520  149.9600 C   0  0  0  0  0  2  0  0  0  0  0  0
  161.6400  204.7360  152.2370 C   0  0  0  0  0  0  0  0  0  0  0  0
  162.1210  204.9920  150.9470 O   0  0  0  0  0  0  0  0  0  0  0  0
  161.8130  205.7490  153.3100 C   0  0  0  0  0  2  0  0  0  0  0  0
  162.0900  209.5230  151.3900 C   0  0  1  0  0  3  0  0  0  0  0  0
  160.6270  209.8190  151.6600 C   0  0  0  0  0  2  0  0  0  0  0  0
  160.4390  205.0880  149.2350 C   0  0  0  0  0  2  0  0  0  0  0  0
  160.8310  211.5570  153.4280 O   0  0  0  0  0  1  0  0  0  0  0  0
  160.3640  210.4280  154.0230 N   0  0  0  0  0  0  0  0  0  0  0  0
  161.2270  210.0820  155.1560 C   0  0  2  0  0  3  0  0  0  0  0  0
  160.5790  210.5020  156.4570 C   0  0  0  0  0  2  0  0  0  0  0  0
  162.9180  210.8720  156.3770 C   0  0  0  0  0  2  0  0  0  0  0  0
  162.4870  210.6990  155.0550 O   0  0  0  0  0  0  0  0  0  0  0  0
  161.7050  211.0960  157.2480 C   0  0  0  0  0  2  0  0  0  0  0  0
  1 15  1  0  0  0  0
  2 21  1  1  0  0  0
  2  3  1  0  0  0  0
  2 17  1  0  0  0  0
  3 13  2  0  0  0  0
  6 14  1  6  0  0  0
  7  1  1  0  0  0  0
  8  7  2  0  0  0  0
  9 11  1  1  0  0  0
  9  7  1  0  0  0  0
  9 21  1  0  0  0  0
 10  6  1  0  0  0  0
 10 23  1  1  0  0  0
 12 18  1  0  0  0  0
 12  6  1  0  0  0  0
 12  4  1  1  0  0  0
 13  5  1  0  0  0  0
 16  5  2  0  0  0  0
 16 18  1  0  0  0  0
 17 16  1  0  0  0  0
 19 15  1  6  0  0  0
 19 20  1  0  0  0  0
 19 14  1  0  0  0  0
 20 10  1  0  0  0  0
 22 23  1  0  0  0  0
 24 23  1  6  0  0  0
 24 25  1  0  0  0  0
 25 28  1  0  0  0  0
 26 28  1  0  0  0  0
 27 24  1  0  0  0  0
 27 26  1  0  0  0  0
M  END
>  <MODEL>
7

>  <REMARK>
 VINA RESULT:      -3.5      3.220      7.361
  Name = 
  2 active torsions:
  status: ('A' for Active; 'I' for Inactive)
    1  A    between atoms: C_5  and  N_28
    2  A    between atoms: C_13  and  N_28
                            x       y       z     vdW  Elec       q    Type
                         _______ _______ _______ _____ _____    ______ ____

>  <TORSDO>
F 2

$$$$
