=
 OpenBabel11072415023D

 39 44  0  0  1  0  0  0  0  0999 V2000
  160.9010  209.4440  154.3440 C   0  0  0  0  0  0  0  0  0  0  0  0
  158.0500  213.0290  154.7840 C   0  0  0  0  0  2  0  0  0  0  0  0
  159.3960  210.2930  156.0290 C   0  0  0  0  0  0  0  0  0  0  0  0
  158.3430  211.0280  156.1490 N   0  0  0  0  0  0  0  0  0  0  0  0
  159.0530  211.2330  152.4650 C   0  0  0  0  0  2  0  0  0  0  0  0
  159.8140  210.1540  154.6790 C   0  0  0  0  0  0  0  0  0  0  0  0
  160.0820  209.6570  157.1030 N   0  0  0  0  0  0  0  0  0  0  0  0
  158.7360  213.7760  152.4640 C   0  0  2  0  0  3  0  0  0  0  0  0
  161.7440  208.8300  155.4500 C   0  0  0  0  0  2  0  0  0  0  0  0
  161.1600  208.9680  156.8520 C   0  0  0  0  0  3  0  0  0  0  0  0
  157.9490  211.5060  154.8120 C   0  0  2  0  0  3  0  0  0  0  0  0
  159.7240  212.5930  152.3320 C   0  0  0  0  0  2  0  0  0  0  0  0
  158.9040  210.8880  153.8740 N   0  0  0  0  0  0  0  0  0  0  0  0
  157.5750  213.5710  153.4450 C   0  0  0  0  0  2  0  0  0  0  0  0
  161.3220  209.2520  152.9470 C   0  0  0  0  0  0  0  0  0  0  0  0
  162.3010  210.1660  150.9220 C   0  0  0  0  0  3  0  0  0  0  0  0
  161.5090  207.8810  150.9520 C   0  0  0  0  0  3  0  0  0  0  0  0
  161.9100  210.3180  152.2530 C   0  0  0  0  0  3  0  0  0  0  0  0
  162.1030  208.9470  150.2720 C   0  0  0  0  0  3  0  0  0  0  0  0
  161.1100  208.0240  152.2920 C   0  0  0  0  0  0  0  0  0  0  0  0
  160.5190  206.9590  152.9870 O   0  0  0  0  0  0  0  0  0  0  0  0
  161.2500  205.8410  153.4760 C   0  0  0  0  0  2  0  0  0  0  0  0
  160.8260  204.5810  152.7430 C   0  0  0  0  0  2  0  0  0  0  0  0
  161.0990  204.1250  149.0650 N   0  0  0  0  0  1  0  0  0  0  0  0
  161.0210  202.4700  150.8840 N   0  0  0  0  0  1  0  0  0  0  0  0
  161.0080  203.8300  150.4540 C   0  0  0  0  0  0  0  0  0  0  0  0
  160.9190  204.8010  151.3080 N   0  0  0  0  0  0  0  0  0  0  0  0
  158.2460  214.2890  151.1780 N   0  0  1  0  0  0  0  0  0  0  0  0
  159.1830  213.8930  150.1240 C   0  0  0  0  0  2  0  0  0  0  0  0
  156.4420  214.2860  149.5180 C   0  0  0  0  0  2  0  0  0  0  0  0
  156.9070  213.7640  150.8770 C   0  0  0  0  0  2  0  0  0  0  0  0
  157.3740  213.8520  148.4800 N   0  0  0  0  0  0  0  0  0  0  0  0
  158.6920  214.4130  148.7740 C   0  0  0  0  0  2  0  0  0  0  0  0
  156.9220  214.4510  147.2350 C   0  0  0  0  0  2  0  0  0  0  0  0
  159.0460  212.5110  145.4170 C   0  0  0  0  0  3  0  0  0  0  0  0
  158.7900  213.4300  144.5090 C   0  0  0  0  0  3  0  0  0  0  0  0
  157.5120  214.1290  144.8240 C   0  0  0  0  0  2  0  0  0  0  0  0
  158.0400  212.4590  146.4110 N   0  0  0  0  0  2  0  0  0  0  0  0
  157.0210  213.4440  146.1000 C   0  0  1  0  0  3  0  0  0  0  0  0
  1  6  2  0  0  0  0
  1  9  1  0  0  0  0
  3  4  2  0  0  0  0
  3  7  1  0  0  0  0
  5 13  1  0  0  0  0
  6  3  1  0  0  0  0
  8 12  1  6  0  0  0
  8 14  1  0  0  0  0
  9 10  1  0  0  0  0
 10  7  2  0  0  0  0
 11  2  1  1  0  0  0
 11  4  1  0  0  0  0
 12  5  1  0  0  0  0
 13  6  1  0  0  0  0
 13 11  1  0  0  0  0
 14  2  1  0  0  0  0
 15  1  1  0  0  0  0
 16 18  1  0  0  0  0
 17 20  2  0  0  0  0
 18 15  2  0  0  0  0
 19 16  2  0  0  0  0
 19 17  1  0  0  0  0
 20 15  1  0  0  0  0
 20 21  1  0  0  0  0
 21 22  1  0  0  0  0
 23 22  1  0  0  0  0
 24 26  1  0  0  0  0
 26 25  1  0  0  0  0
 26 27  2  0  0  0  0
 27 23  1  0  0  0  0
 28 29  1  6  0  0  0
 28  8  1  0  0  0  0
 30 31  1  0  0  0  0
 31 28  1  0  0  0  0
 32 33  1  0  0  0  0
 32 30  1  0  0  0  0
 33 29  1  0  0  0  0
 34 32  1  0  0  0  0
 35 38  1  0  0  0  0
 36 37  1  0  0  0  0
 36 35  2  0  0  0  0
 37 39  1  0  0  0  0
 39 38  1  0  0  0  0
 39 34  1  1  0  0  0
M  END
>  <MODEL>
1

>  <REMARK>
 VINA RESULT:      -6.8      0.000      0.000
  Name = 
  8 active torsions:
  status: ('A' for Active; 'I' for Inactive)
    1  A    between atoms: C_2  and  C_4
    2  A    between atoms: C_3  and  C_30
    3  A    between atoms: C_3  and  N_31
    4  A    between atoms: N_8  and  C_21
    5  A    between atoms: C_14  and  C_32
    6  A    between atoms: C_14  and  N_36
    7  A    between atoms: O_20  and  C_30
    8  A    between atoms: O_20  and  C_34
                            x       y       z     vdW  Elec       q    Type
                         _______ _______ _______ _____ _____    ______ ____

>  <TORSDO>
F 8

$$$$
=
 OpenBabel11072415023D

 39 44  0  0  1  0  0  0  0  0999 V2000
  159.9260  211.6550  155.9260 C   0  0  0  0  0  0  0  0  0  0  0  0
  160.5470  212.4270  151.4330 C   0  0  0  0  0  2  0  0  0  0  0  0
  159.2720  213.3420  154.3290 C   0  0  0  0  0  0  0  0  0  0  0  0
  159.0810  213.4980  153.0630 N   0  0  0  0  0  0  0  0  0  0  0  0
  160.2740  209.9410  153.2650 C   0  0  0  0  0  2  0  0  0  0  0  0
  159.6610  212.0180  154.6630 C   0  0  0  0  0  0  0  0  0  0  0  0
  159.1050  214.3540  155.3170 N   0  0  0  0  0  0  0  0  0  0  0  0
  161.9070  210.2950  151.3210 C   0  0  2  0  0  3  0  0  0  0  0  0
  159.8750  212.7130  157.0170 C   0  0  0  0  0  2  0  0  0  0  0  0
  159.3670  214.0780  156.5640 C   0  0  0  0  0  3  0  0  0  0  0  0
  159.3710  212.2240  152.3840 C   0  0  2  0  0  3  0  0  0  0  0  0
  161.7320  210.0560  152.8400 C   0  0  0  0  0  2  0  0  0  0  0  0
  159.7070  211.2710  153.4570 N   0  0  0  0  0  0  0  0  0  0  0  0
  160.8280  211.1540  150.6510 C   0  0  0  0  0  2  0  0  0  0  0  0
  160.2840  210.2770  156.2970 C   0  0  0  0  0  0  0  0  0  0  0  0
  159.6730  207.9300  156.4330 C   0  0  0  0  0  3  0  0  0  0  0  0
  161.8250  208.6650  157.2570 C   0  0  0  0  0  3  0  0  0  0  0  0
  159.3630  209.2430  156.0740 C   0  0  0  0  0  3  0  0  0  0  0  0
  160.9050  207.6410  157.0230 C   0  0  0  0  0  3  0  0  0  0  0  0
  161.5230  209.9910  156.9000 C   0  0  0  0  0  0  0  0  0  0  0  0
  162.4410  211.0260  157.1250 O   0  0  0  0  0  0  0  0  0  0  0  0
  163.8420  210.8150  157.2610 C   0  0  0  0  0  2  0  0  0  0  0  0
  164.5890  211.5680  156.1750 C   0  0  0  0  0  2  0  0  0  0  0  0
  167.6960  213.5200  156.7640 N   0  0  0  0  0  1  0  0  0  0  0  0
  166.8320  212.4600  154.7180 N   0  0  0  0  0  1  0  0  0  0  0  0
  166.6890  212.7600  156.1050 C   0  0  0  0  0  0  0  0  0  0  0  0
  165.6580  212.3510  156.7750 N   0  0  0  0  0  0  0  0  0  0  0  0
  162.1500  209.0680  150.5500 N   0  0  1  0  0  0  0  0  0  0  0  0
  161.2700  208.0110  151.0550 C   0  0  0  0  0  2  0  0  0  0  0  0
  162.1210  207.9860  148.3510 C   0  0  0  0  0  2  0  0  0  0  0  0
  161.8960  209.2870  149.1200 C   0  0  0  0  0  2  0  0  0  0  0  0
  161.2110  206.9570  148.8500 N   0  0  0  0  0  0  0  0  0  0  0  0
  161.5020  206.7250  150.2640 C   0  0  0  0  0  2  0  0  0  0  0  0
  161.5360  205.7310  148.1390 C   0  0  0  0  0  2  0  0  0  0  0  0
  161.0760  205.0110  144.8450 C   0  0  0  0  0  3  0  0  0  0  0  0
  162.2300  204.4020  145.0210 C   0  0  0  0  0  3  0  0  0  0  0  0
  162.9350  204.9590  146.2110 C   0  0  0  0  0  2  0  0  0  0  0  0
  160.8510  206.0070  145.8250 N   0  0  0  0  0  2  0  0  0  0  0  0
  161.9910  206.0480  146.7230 C   0  0  1  0  0  3  0  0  0  0  0  0
  1 15  1  0  0  0  0
  1  9  1  0  0  0  0
  3  6  1  0  0  0  0
  3  7  1  0  0  0  0
  4  3  2  0  0  0  0
  5 13  1  0  0  0  0
  6  1  2  0  0  0  0
  7 10  2  0  0  0  0
  8 14  1  6  0  0  0
  8 12  1  0  0  0  0
 10  9  1  0  0  0  0
 11  2  1  6  0  0  0
 11  4  1  0  0  0  0
 11 13  1  0  0  0  0
 12  5  1  0  0  0  0
 13  6  1  0  0  0  0
 14  2  1  0  0  0  0
 15 20  1  0  0  0  0
 16 19  2  0  0  0  0
 18 15  2  0  0  0  0
 18 16  1  0  0  0  0
 19 17  1  0  0  0  0
 20 21  1  0  0  0  0
 20 17  2  0  0  0  0
 21 22  1  0  0  0  0
 23 27  1  0  0  0  0
 23 22  1  0  0  0  0
 25 26  1  0  0  0  0
 26 24  1  0  0  0  0
 26 27  2  0  0  0  0
 28 31  1  6  0  0  0
 28 29  1  0  0  0  0
 28  8  1  0  0  0  0
 30 32  1  0  0  0  0
 30 31  1  0  0  0  0
 32 33  1  0  0  0  0
 33 29  1  0  0  0  0
 34 32  1  0  0  0  0
 35 36  2  0  0  0  0
 35 38  1  0  0  0  0
 36 37  1  0  0  0  0
 37 39  1  0  0  0  0
 38 39  1  0  0  0  0
 39 34  1  1  0  0  0
M  END
>  <MODEL>
2

>  <REMARK>
 VINA RESULT:      -5.9      3.575      7.129
  Name = 
  8 active torsions:
  status: ('A' for Active; 'I' for Inactive)
    1  A    between atoms: C_2  and  C_4
    2  A    between atoms: C_3  and  C_30
    3  A    between atoms: C_3  and  N_31
    4  A    between atoms: N_8  and  C_21
    5  A    between atoms: C_14  and  C_32
    6  A    between atoms: C_14  and  N_36
    7  A    between atoms: O_20  and  C_30
    8  A    between atoms: O_20  and  C_34
                            x       y       z     vdW  Elec       q    Type
                         _______ _______ _______ _____ _____    ______ ____

>  <TORSDO>
F 8

$$$$
=
 OpenBabel11072415023D

 39 44  0  0  1  0  0  0  0  0999 V2000
  159.9810  211.7590  155.7040 C   0  0  0  0  0  0  0  0  0  0  0  0
  160.6560  212.4360  151.2030 C   0  0  0  0  0  2  0  0  0  0  0  0
  159.3600  213.4200  154.0660 C   0  0  0  0  0  0  0  0  0  0  0  0
  159.1840  213.5530  152.7960 N   0  0  0  0  0  0  0  0  0  0  0  0
  160.3400  209.9900  153.0810 C   0  0  0  0  0  2  0  0  0  0  0  0
  159.7320  212.1000  154.4310 C   0  0  0  0  0  0  0  0  0  0  0  0
  159.1930  214.4530  155.0330 N   0  0  0  0  0  0  0  0  0  0  0  0
  161.9960  210.2890  151.1480 C   0  0  2  0  0  3  0  0  0  0  0  0
  159.9290  212.8390  156.7730 C   0  0  0  0  0  2  0  0  0  0  0  0
  159.4390  214.1990  156.2870 C   0  0  0  0  0  3  0  0  0  0  0  0
  159.4670  212.2630  152.1450 C   0  0  2  0  0  3  0  0  0  0  0  0
  161.8020  210.0820  152.6680 C   0  0  0  0  0  2  0  0  0  0  0  0
  159.7830  211.3280  153.2400 N   0  0  0  0  0  0  0  0  0  0  0  0
  160.9320  211.1450  150.4490 C   0  0  0  0  0  2  0  0  0  0  0  0
  160.3220  210.3850  156.1050 C   0  0  0  0  0  0  0  0  0  0  0  0
  161.9950  208.7810  156.8300 C   0  0  0  0  0  3  0  0  0  0  0  0
  159.7130  208.0640  156.4720 C   0  0  0  0  0  3  0  0  0  0  0  0
  161.6430  210.0810  156.4640 C   0  0  0  0  0  3  0  0  0  0  0  0
  161.0290  207.7730  156.8370 C   0  0  0  0  0  3  0  0  0  0  0  0
  159.3480  209.3690  156.1000 C   0  0  0  0  0  0  0  0  0  0  0  0
  158.0280  209.6740  155.7380 O   0  0  0  0  0  0  0  0  0  0  0  0
  157.2660  210.7060  156.3540 C   0  0  0  0  0  2  0  0  0  0  0  0
  155.9470  210.8850  155.6240 C   0  0  0  0  0  2  0  0  0  0  0  0
  155.8730  214.2070  153.9590 N   0  0  0  0  0  1  0  0  0  0  0  0
  155.2160  213.5390  156.2350 N   0  0  0  0  0  1  0  0  0  0  0  0
  155.7300  213.1940  154.9500 C   0  0  0  0  0  0  0  0  0  0  0  0
  156.0660  211.9750  154.6680 N   0  0  0  0  0  0  0  0  0  0  0  0
  162.2340  209.0450  150.4030 N   0  0  1  0  0  0  0  0  0  0  0  0
  161.3490  208.0020  150.9290 C   0  0  0  0  0  2  0  0  0  0  0  0
  162.2050  207.9160  148.2280 C   0  0  0  0  0  2  0  0  0  0  0  0
  161.9840  209.2340  148.9680 C   0  0  0  0  0  2  0  0  0  0  0  0
  161.2890  206.9020  148.7470 N   0  0  0  0  0  0  0  0  0  0  0  0
  161.5760  206.6990  150.1660 C   0  0  0  0  0  2  0  0  0  0  0  0
  161.6100  205.6590  148.0630 C   0  0  0  0  0  2  0  0  0  0  0  0
  160.8800  204.9140  144.8240 C   0  0  0  0  0  3  0  0  0  0  0  0
  162.0160  204.2560  144.9270 C   0  0  0  0  0  3  0  0  0  0  0  0
  162.8290  204.7980  146.0530 C   0  0  0  0  0  2  0  0  0  0  0  0
  160.7710  205.9330  145.8010 N   0  0  0  0  0  2  0  0  0  0  0  0
  161.9740  205.9360  146.6130 C   0  0  1  0  0  3  0  0  0  0  0  0
  1 15  1  0  0  0  0
  1  9  1  0  0  0  0
  3  6  1  0  0  0  0
  3  7  1  0  0  0  0
  4  3  2  0  0  0  0
  5 13  1  0  0  0  0
  6  1  2  0  0  0  0
  7 10  2  0  0  0  0
  8 14  1  6  0  0  0
  8 12  1  0  0  0  0
 10  9  1  0  0  0  0
 11  2  1  6  0  0  0
 11  4  1  0  0  0  0
 11 13  1  0  0  0  0
 12  5  1  0  0  0  0
 13  6  1  0  0  0  0
 14  2  1  0  0  0  0
 15 18  1  0  0  0  0
 16 19  1  0  0  0  0
 17 19  2  0  0  0  0
 18 16  2  0  0  0  0
 20 15  2  0  0  0  0
 20 17  1  0  0  0  0
 21 20  1  0  0  0  0
 21 22  1  0  0  0  0
 23 22  1  0  0  0  0
 24 26  1  0  0  0  0
 26 25  1  0  0  0  0
 27 26  2  0  0  0  0
 27 23  1  0  0  0  0
 28 31  1  6  0  0  0
 28 29  1  0  0  0  0
 28  8  1  0  0  0  0
 30 32  1  0  0  0  0
 30 31  1  0  0  0  0
 32 33  1  0  0  0  0
 33 29  1  0  0  0  0
 34 32  1  0  0  0  0
 35 36  2  0  0  0  0
 35 38  1  0  0  0  0
 36 37  1  0  0  0  0
 37 39  1  0  0  0  0
 38 39  1  0  0  0  0
 39 34  1  1  0  0  0
M  END
>  <MODEL>
3

>  <REMARK>
 VINA RESULT:      -5.8      3.475      7.042
  Name = 
  8 active torsions:
  status: ('A' for Active; 'I' for Inactive)
    1  A    between atoms: C_2  and  C_4
    2  A    between atoms: C_3  and  C_30
    3  A    between atoms: C_3  and  N_31
    4  A    between atoms: N_8  and  C_21
    5  A    between atoms: C_14  and  C_32
    6  A    between atoms: C_14  and  N_36
    7  A    between atoms: O_20  and  C_30
    8  A    between atoms: O_20  and  C_34
                            x       y       z     vdW  Elec       q    Type
                         _______ _______ _______ _____ _____    ______ ____

>  <TORSDO>
F 8

$$$$
=
 OpenBabel11072415023D

 39 44  0  0  1  0  0  0  0  0999 V2000
  159.4520  212.9870  153.8800 C   0  0  0  0  0  0  0  0  0  0  0  0
  161.2960  208.9510  155.0980 C   0  0  0  0  0  2  0  0  0  0  0  0
  160.4470  212.0390  155.8640 C   0  0  0  0  0  0  0  0  0  0  0  0
  161.2700  211.1150  156.2240 N   0  0  0  0  0  0  0  0  0  0  0  0
  161.0990  210.6340  152.5020 C   0  0  0  0  0  2  0  0  0  0  0  0
  160.2810  212.1040  154.4560 C   0  0  0  0  0  0  0  0  0  0  0  0
  159.7710  212.9300  156.7470 N   0  0  0  0  0  0  0  0  0  0  0  0
  160.8160  208.1010  152.7620 C   0  0  2  0  0  3  0  0  0  0  0  0
  158.6160  213.8930  154.7690 C   0  0  0  0  0  2  0  0  0  0  0  0
  158.9330  213.7990  156.2580 C   0  0  0  0  0  3  0  0  0  0  0  0
  161.7410  210.4090  155.0200 C   0  0  2  0  0  3  0  0  0  0  0  0
  160.1600  209.4440  152.3650 C   0  0  0  0  0  2  0  0  0  0  0  0
  161.1080  211.1020  153.8840 N   0  0  0  0  0  0  0  0  0  0  0  0
  161.8310  208.1660  153.9100 C   0  0  0  0  0  2  0  0  0  0  0  0
  159.3030  213.0990  152.4200 C   0  0  0  0  0  0  0  0  0  0  0  0
  160.3330  213.2670  150.2280 C   0  0  0  0  0  3  0  0  0  0  0  0
  157.9250  213.3200  150.4340 C   0  0  0  0  0  3  0  0  0  0  0  0
  160.4490  213.1420  151.6130 C   0  0  0  0  0  3  0  0  0  0  0  0
  159.0710  213.3530  149.6380 C   0  0  0  0  0  3  0  0  0  0  0  0
  158.0290  213.1960  151.8300 C   0  0  0  0  0  0  0  0  0  0  0  0
  156.8840  213.1550  152.6390 O   0  0  0  0  0  0  0  0  0  0  0  0
  155.8280  214.1040  152.5500 C   0  0  0  0  0  2  0  0  0  0  0  0
  154.6870  213.7000  153.4650 C   0  0  0  0  0  2  0  0  0  0  0  0
  155.3790  214.4420  157.0400 N   0  0  0  0  0  1  0  0  0  0  0  0
  155.5810  212.3440  155.7710 N   0  0  0  0  0  1  0  0  0  0  0  0
  155.2540  213.7320  155.8130 C   0  0  0  0  0  0  0  0  0  0  0  0
  154.8430  214.3560  154.7540 N   0  0  0  0  0  0  0  0  0  0  0  0
  161.3630  207.3460  151.6260 N   0  0  1  0  0  0  0  0  0  0  0  0
  160.6620  206.0640  151.5290 C   0  0  0  0  0  2  0  0  0  0  0  0
  161.7500  207.2710  149.2070 C   0  0  0  0  0  2  0  0  0  0  0  0
  161.2070  208.0960  150.3730 C   0  0  0  0  0  2  0  0  0  0  0  0
  161.0140  206.0120  149.1110 N   0  0  0  0  0  0  0  0  0  0  0  0
  161.2110  205.2620  150.3500 C   0  0  0  0  0  2  0  0  0  0  0  0
  161.6360  205.2450  148.0430 C   0  0  0  0  0  2  0  0  0  0  0  0
  160.4640  205.7310  144.8850 C   0  0  0  0  0  3  0  0  0  0  0  0
  161.6350  205.2080  144.5840 C   0  0  0  0  0  3  0  0  0  0  0  0
  162.5790  205.3580  145.7270 C   0  0  0  0  0  2  0  0  0  0  0  0
  160.4520  206.2780  146.1910 N   0  0  0  0  0  2  0  0  0  0  0  0
  161.7620  206.0950  146.7890 C   0  0  1  0  0  3  0  0  0  0  0  0
  1  6  2  0  0  0  0
  1  9  1  0  0  0  0
  3  4  2  0  0  0  0
  3  7  1  0  0  0  0
  5 13  1  0  0  0  0
  6  3  1  0  0  0  0
  8 12  1  6  0  0  0
  8 14  1  0  0  0  0
  9 10  1  0  0  0  0
 10  7  2  0  0  0  0
 11  2  1  1  0  0  0
 11  4  1  0  0  0  0
 12  5  1  0  0  0  0
 13  6  1  0  0  0  0
 13 11  1  0  0  0  0
 14  2  1  0  0  0  0
 15  1  1  0  0  0  0
 16 18  1  0  0  0  0
 17 20  2  0  0  0  0
 18 15  2  0  0  0  0
 19 16  2  0  0  0  0
 19 17  1  0  0  0  0
 20 15  1  0  0  0  0
 20 21  1  0  0  0  0
 22 21  1  0  0  0  0
 22 23  1  0  0  0  0
 23 27  1  0  0  0  0
 25 26  1  0  0  0  0
 26 24  1  0  0  0  0
 27 26  2  0  0  0  0
 28 31  1  6  0  0  0
 28  8  1  0  0  0  0
 29 28  1  0  0  0  0
 30 31  1  0  0  0  0
 32 30  1  0  0  0  0
 32 33  1  0  0  0  0
 33 29  1  0  0  0  0
 34 32  1  0  0  0  0
 35 38  1  0  0  0  0
 36 35  2  0  0  0  0
 36 37  1  0  0  0  0
 37 39  1  0  0  0  0
 38 39  1  0  0  0  0
 39 34  1  1  0  0  0
M  END
>  <MODEL>
4

>  <REMARK>
 VINA RESULT:      -5.8      3.038      7.522
  Name = 
  8 active torsions:
  status: ('A' for Active; 'I' for Inactive)
    1  A    between atoms: C_2  and  C_4
    2  A    between atoms: C_3  and  C_30
    3  A    between atoms: C_3  and  N_31
    4  A    between atoms: N_8  and  C_21
    5  A    between atoms: C_14  and  C_32
    6  A    between atoms: C_14  and  N_36
    7  A    between atoms: O_20  and  C_30
    8  A    between atoms: O_20  and  C_34
                            x       y       z     vdW  Elec       q    Type
                         _______ _______ _______ _____ _____    ______ ____

>  <TORSDO>
F 8

$$$$
=
 OpenBabel11072415023D

 39 44  0  0  1  0  0  0  0  0999 V2000
  161.6450  206.9120  151.7770 C   0  0  0  0  0  0  0  0  0  0  0  0
  160.8650  211.3340  152.7810 C   0  0  0  0  0  2  0  0  0  0  0  0
  160.8390  208.1650  153.6760 C   0  0  0  0  0  0  0  0  0  0  0  0
  160.2700  209.2850  153.9640 N   0  0  0  0  0  0  0  0  0  0  0  0
  160.7380  209.5530  150.2470 C   0  0  0  0  0  2  0  0  0  0  0  0
  161.0490  208.0020  152.2820 C   0  0  0  0  0  0  0  0  0  0  0  0
  161.2150  207.1660  154.6200 N   0  0  0  0  0  0  0  0  0  0  0  0
  161.6610  211.9350  150.4540 C   0  0  2  0  0  3  0  0  0  0  0  0
  162.1710  205.8560  152.7360 C   0  0  0  0  0  2  0  0  0  0  0  0
  161.8190  206.0890  154.2020 C   0  0  0  0  0  3  0  0  0  0  0  0
  160.0590  210.0400  152.7170 C   0  0  2  0  0  3  0  0  0  0  0  0
  161.9610  210.4520  150.1310 C   0  0  0  0  0  2  0  0  0  0  0  0
  160.5410  209.1600  151.6370 N   0  0  0  0  0  0  0  0  0  0  0  0
  160.6120  212.1820  151.5450 C   0  0  0  0  0  2  0  0  0  0  0  0
  161.8280  206.7060  150.3320 C   0  0  0  0  0  0  0  0  0  0  0  0
  162.7250  207.4840  148.2140 C   0  0  0  0  0  3  0  0  0  0  0  0
  161.4370  205.4390  148.2980 C   0  0  0  0  0  3  0  0  0  0  0  0
  162.5540  207.6480  149.5890 C   0  0  0  0  0  3  0  0  0  0  0  0
  162.1690  206.3780  147.5690 C   0  0  0  0  0  3  0  0  0  0  0  0
  161.2570  205.5950  149.6830 C   0  0  0  0  0  0  0  0  0  0  0  0
  160.5290  204.6550  150.4270 O   0  0  0  0  0  0  0  0  0  0  0  0
  161.0440  203.3810  150.7960 C   0  0  0  0  0  2  0  0  0  0  0  0
  160.1810  202.2810  150.2050 C   0  0  0  0  0  2  0  0  0  0  0  0
  160.8280  201.6970  146.5920 N   0  0  0  0  0  1  0  0  0  0  0  0
  161.5930  200.4610  148.5780 N   0  0  0  0  0  1  0  0  0  0  0  0
  160.8520  201.5380  148.0060 C   0  0  0  0  0  0  0  0  0  0  0  0
  160.2030  202.3750  148.7530 N   0  0  0  0  0  0  0  0  0  0  0  0
  161.3860  212.7590  149.2690 N   0  0  1  0  0  0  0  0  0  0  0  0
  161.9390  212.0900  148.0890 C   0  0  0  0  0  2  0  0  0  0  0  0
  159.6860  213.7910  147.8360 C   0  0  0  0  0  2  0  0  0  0  0  0
  159.9410  212.9630  149.0950 C   0  0  0  0  0  2  0  0  0  0  0  0
  160.2170  213.0890  146.6700 N   0  0  0  0  0  0  0  0  0  0  0  0
  161.6600  212.9270  146.8420 C   0  0  0  0  0  2  0  0  0  0  0  0
  160.0180  213.9660  145.5270 C   0  0  0  0  0  2  0  0  0  0  0  0
  160.1370  211.9350  142.8000 C   0  0  0  0  0  3  0  0  0  0  0  0
  159.8620  213.0690  142.1900 C   0  0  0  0  0  3  0  0  0  0  0  0
  159.2510  214.0370  143.1460 C   0  0  0  0  0  2  0  0  0  0  0  0
  159.7720  211.9700  144.1670 N   0  0  0  0  0  2  0  0  0  0  0  0
  159.1880  213.2640  144.4640 C   0  0  1  0  0  3  0  0  0  0  0  0
  1  6  2  0  0  0  0
  1  9  1  0  0  0  0
  3  4  2  0  0  0  0
  3  7  1  0  0  0  0
  5 13  1  0  0  0  0
  6  3  1  0  0  0  0
  8 12  1  6  0  0  0
  8 14  1  0  0  0  0
  9 10  1  0  0  0  0
 10  7  2  0  0  0  0
 11  2  1  1  0  0  0
 11  4  1  0  0  0  0
 12  5  1  0  0  0  0
 13  6  1  0  0  0  0
 13 11  1  0  0  0  0
 14  2  1  0  0  0  0
 15  1  1  0  0  0  0
 16 18  1  0  0  0  0
 17 20  2  0  0  0  0
 18 15  2  0  0  0  0
 19 16  2  0  0  0  0
 19 17  1  0  0  0  0
 20 15  1  0  0  0  0
 20 21  1  0  0  0  0
 21 22  1  0  0  0  0
 23 22  1  0  0  0  0
 24 26  1  0  0  0  0
 26 25  1  0  0  0  0
 26 27  2  0  0  0  0
 27 23  1  0  0  0  0
 28 29  1  6  0  0  0
 28  8  1  0  0  0  0
 30 31  1  0  0  0  0
 31 28  1  0  0  0  0
 32 33  1  0  0  0  0
 32 30  1  0  0  0  0
 33 29  1  0  0  0  0
 34 32  1  0  0  0  0
 35 38  1  0  0  0  0
 36 35  2  0  0  0  0
 36 37  1  0  0  0  0
 37 39  1  0  0  0  0
 38 39  1  0  0  0  0
 39 34  1  1  0  0  0
M  END
>  <MODEL>
5

>  <REMARK>
 VINA RESULT:      -4.6      2.499      3.532
  Name = 
  8 active torsions:
  status: ('A' for Active; 'I' for Inactive)
    1  A    between atoms: C_2  and  C_4
    2  A    between atoms: C_3  and  C_30
    3  A    between atoms: C_3  and  N_31
    4  A    between atoms: N_8  and  C_21
    5  A    between atoms: C_14  and  C_32
    6  A    between atoms: C_14  and  N_36
    7  A    between atoms: O_20  and  C_30
    8  A    between atoms: O_20  and  C_34
                            x       y       z     vdW  Elec       q    Type
                         _______ _______ _______ _____ _____    ______ ____

>  <TORSDO>
F 8

$$$$
=
 OpenBabel11072415023D

 39 44  0  0  1  0  0  0  0  0999 V2000
  161.3660  203.2970  148.2560 C   0  0  0  0  0  0  0  0  0  0  0  0
  161.3980  206.0250  151.9620 C   0  0  0  0  0  2  0  0  0  0  0  0
  160.6800  203.1310  150.5640 C   0  0  0  0  0  0  0  0  0  0  0  0
  160.3230  203.8730  151.5550 N   0  0  0  0  0  0  0  0  0  0  0  0
  161.1170  206.4070  148.8980 C   0  0  0  0  0  2  0  0  0  0  0  0
  160.9600  203.8820  149.3920 C   0  0  0  0  0  0  0  0  0  0  0  0
  160.7790  201.7100  150.5930 N   0  0  0  0  0  0  0  0  0  0  0  0
  162.4730  207.8270  150.5450 C   0  0  2  0  0  3  0  0  0  0  0  0
  161.5990  201.7950  148.2490 C   0  0  0  0  0  2  0  0  0  0  0  0
  161.1890  201.0770  149.5310 C   0  0  0  0  0  3  0  0  0  0  0  0
  160.3600  205.2810  151.1260 C   0  0  2  0  0  3  0  0  0  0  0  0
  162.4990  206.8970  149.3100 C   0  0  0  0  0  2  0  0  0  0  0  0
  160.7410  205.2500  149.7020 N   0  0  0  0  0  0  0  0  0  0  0  0
  161.4130  207.5030  151.6040 C   0  0  0  0  0  2  0  0  0  0  0  0
  161.6150  204.0550  147.0200 C   0  0  0  0  0  0  0  0  0  0  0  0
  162.7500  205.8800  145.8870 C   0  0  0  0  0  3  0  0  0  0  0  0
  161.1910  204.4900  144.6690 C   0  0  0  0  0  3  0  0  0  0  0  0
  162.5110  205.1340  147.0430 C   0  0  0  0  0  3  0  0  0  0  0  0
  162.0920  205.5560  144.7000 C   0  0  0  0  0  3  0  0  0  0  0  0
  160.9420  203.7320  145.8270 C   0  0  0  0  0  0  0  0  0  0  0  0
  160.0450  202.6550  145.8060 O   0  0  0  0  0  0  0  0  0  0  0  0
  159.4880  202.1220  144.6100 C   0  0  0  0  0  2  0  0  0  0  0  0
  159.8460  200.6530  144.4790 C   0  0  0  0  0  2  0  0  0  0  0  0
  161.9470  198.7630  146.8920 N   0  0  0  0  0  1  0  0  0  0  0  0
  161.2570  198.2140  144.5950 N   0  0  0  0  0  1  0  0  0  0  0  0
  161.2420  199.1090  145.7060 C   0  0  0  0  0  0  0  0  0  0  0  0
  160.5930  200.2300  145.6540 N   0  0  0  0  0  0  0  0  0  0  0  0
  162.4570  209.2580  150.2120 N   0  0  1  0  0  0  0  0  0  0  0  0
  162.1720  209.4080  148.7830 C   0  0  0  0  0  2  0  0  0  0  0  0
  161.4240  211.4460  150.6060 C   0  0  0  0  0  2  0  0  0  0  0  0
  161.4420  209.9690  151.0000 C   0  0  0  0  0  2  0  0  0  0  0  0
  161.1060  211.5710  149.1850 N   0  0  0  0  0  0  0  0  0  0  0  0
  162.1450  210.8900  148.4140 C   0  0  0  0  0  2  0  0  0  0  0  0
  161.1900  212.9860  148.8600 C   0  0  0  0  0  2  0  0  0  0  0  0
  160.0470  212.5870  145.6800 C   0  0  0  0  0  3  0  0  0  0  0  0
  160.4940  213.8220  145.5760 C   0  0  0  0  0  3  0  0  0  0  0  0
  160.5900  214.4530  146.9230 C   0  0  0  0  0  2  0  0  0  0  0  0
  159.7890  212.2320  147.0250 N   0  0  0  0  0  2  0  0  0  0  0  0
  160.0940  213.3660  147.8770 C   0  0  1  0  0  3  0  0  0  0  0  0
  1  6  2  0  0  0  0
  3  7  1  0  0  0  0
  3  4  2  0  0  0  0
  5 12  1  0  0  0  0
  5 13  1  0  0  0  0
  6 13  1  0  0  0  0
  6  3  1  0  0  0  0
  8 12  1  6  0  0  0
  8 14  1  0  0  0  0
  9  1  1  0  0  0  0
  9 10  1  0  0  0  0
 10  7  2  0  0  0  0
 11  4  1  0  0  0  0
 11  2  1  1  0  0  0
 13 11  1  0  0  0  0
 14  2  1  0  0  0  0
 15 18  1  0  0  0  0
 15  1  1  0  0  0  0
 16 18  2  0  0  0  0
 17 19  2  0  0  0  0
 17 20  1  0  0  0  0
 19 16  1  0  0  0  0
 20 15  2  0  0  0  0
 21 20  1  0  0  0  0
 22 21  1  0  0  0  0
 23 22  1  0  0  0  0
 23 27  1  0  0  0  0
 25 26  1  0  0  0  0
 26 24  1  0  0  0  0
 27 26  2  0  0  0  0
 28 29  1  6  0  0  0
 28  8  1  0  0  0  0
 28 31  1  0  0  0  0
 30 31  1  0  0  0  0
 32 30  1  0  0  0  0
 33 29  1  0  0  0  0
 33 32  1  0  0  0  0
 34 32  1  0  0  0  0
 35 38  1  0  0  0  0
 36 35  2  0  0  0  0
 36 37  1  0  0  0  0
 37 39  1  0  0  0  0
 38 39  1  0  0  0  0
 39 34  1  1  0  0  0
M  END
>  <MODEL>
6

>  <REMARK>
 VINA RESULT:      -4.5      3.887      7.167
  Name = 
  8 active torsions:
  status: ('A' for Active; 'I' for Inactive)
    1  A    between atoms: C_2  and  C_4
    2  A    between atoms: C_3  and  C_30
    3  A    between atoms: C_3  and  N_31
    4  A    between atoms: N_8  and  C_21
    5  A    between atoms: C_14  and  C_32
    6  A    between atoms: C_14  and  N_36
    7  A    between atoms: O_20  and  C_30
    8  A    between atoms: O_20  and  C_34
                            x       y       z     vdW  Elec       q    Type
                         _______ _______ _______ _____ _____    ______ ____

>  <TORSDO>
F 8

$$$$
=
 OpenBabel11072415023D

 39 44  0  0  1  0  0  0  0  0999 V2000
  160.4610  211.4100  153.5700 C   0  0  0  0  0  0  0  0  0  0  0  0
  160.7460  206.9550  154.6870 C   0  0  0  0  0  2  0  0  0  0  0  0
  160.6500  210.1180  155.6000 C   0  0  0  0  0  0  0  0  0  0  0  0
  161.0690  208.9740  156.0200 N   0  0  0  0  0  0  0  0  0  0  0  0
  161.6510  208.7350  152.3160 C   0  0  0  0  0  2  0  0  0  0  0  0
  160.8460  210.2940  154.2050 C   0  0  0  0  0  0  0  0  0  0  0  0
  160.0660  211.1310  156.4150 N   0  0  0  0  0  0  0  0  0  0  0  0
  160.6100  206.3960  152.2230 C   0  0  2  0  0  3  0  0  0  0  0  0
  159.7310  212.4850  154.3590 C   0  0  0  0  0  2  0  0  0  0  0  0
  159.6480  212.2330  155.8610 C   0  0  0  0  0  3  0  0  0  0  0  0
  161.5900  208.2140  154.8710 C   0  0  2  0  0  3  0  0  0  0  0  0
  160.4740  207.8910  151.8500 C   0  0  0  0  0  2  0  0  0  0  0  0
  161.4670  209.1160  153.7120 N   0  0  0  0  0  0  0  0  0  0  0  0
  161.3000  206.1010  153.5590 C   0  0  0  0  0  2  0  0  0  0  0  0
  160.6990  211.6270  152.1350 C   0  0  0  0  0  0  0  0  0  0  0  0
  162.0090  211.1570  150.1450 C   0  0  0  0  0  3  0  0  0  0  0  0
  160.1710  212.7230  150.0330 C   0  0  0  0  0  3  0  0  0  0  0  0
  161.7530  210.9530  151.5020 C   0  0  0  0  0  3  0  0  0  0  0  0
  161.2170  212.0400  149.4100 C   0  0  0  0  0  3  0  0  0  0  0  0
  159.9040  212.5270  151.3990 C   0  0  0  0  0  0  0  0  0  0  0  0
  158.8520  213.2020  152.0340 O   0  0  0  0  0  0  0  0  0  0  0  0
  158.0140  214.1440  151.3740 C   0  0  0  0  0  2  0  0  0  0  0  0
  156.8020  214.4530  152.2330 C   0  0  0  0  0  2  0  0  0  0  0  0
  155.8350  212.5750  155.2900 N   0  0  0  0  0  1  0  0  0  0  0  0
  154.5590  214.1690  153.9180 N   0  0  0  0  0  1  0  0  0  0  0  0
  155.7640  213.4490  154.1690 C   0  0  0  0  0  0  0  0  0  0  0  0
  156.7950  213.5790  153.3950 N   0  0  0  0  0  0  0  0  0  0  0  0
  161.1720  205.5630  151.1500 N   0  0  1  0  0  0  0  0  0  0  0  0
  160.6880  204.1910  151.3140 C   0  0  0  0  0  2  0  0  0  0  0  0
  161.3530  205.1690  148.7380 C   0  0  0  0  0  2  0  0  0  0  0  0
  160.7840  206.0750  149.8290 C   0  0  0  0  0  2  0  0  0  0  0  0
  160.8300  203.8140  148.9030 N   0  0  0  0  0  0  0  0  0  0  0  0
  161.2570  203.3060  150.2060 C   0  0  0  0  0  2  0  0  0  0  0  0
  161.4750  202.9910  147.8920 C   0  0  0  0  0  2  0  0  0  0  0  0
  161.5770  199.6750  147.1350 C   0  0  0  0  0  3  0  0  0  0  0  0
  161.2050  200.1350  145.9580 C   0  0  0  0  0  3  0  0  0  0  0  0
  160.5870  201.4840  146.1010 C   0  0  0  0  0  2  0  0  0  0  0  0
  161.2790  200.5870  148.1760 N   0  0  0  0  0  2  0  0  0  0  0  0
  160.6350  201.7560  147.6050 C   0  0  1  0  0  3  0  0  0  0  0  0
  1  6  2  0  0  0  0
  1  9  1  0  0  0  0
  3  4  2  0  0  0  0
  3  7  1  0  0  0  0
  5 13  1  0  0  0  0
  6  3  1  0  0  0  0
  8 12  1  6  0  0  0
  8 14  1  0  0  0  0
  9 10  1  0  0  0  0
 10  7  2  0  0  0  0
 11  2  1  6  0  0  0
 11  4  1  0  0  0  0
 12  5  1  0  0  0  0
 13  6  1  0  0  0  0
 13 11  1  0  0  0  0
 14  2  1  0  0  0  0
 15  1  1  0  0  0  0
 16 18  2  0  0  0  0
 17 20  1  0  0  0  0
 18 15  1  0  0  0  0
 19 17  2  0  0  0  0
 19 16  1  0  0  0  0
 20 21  1  0  0  0  0
 20 15  2  0  0  0  0
 22 21  1  0  0  0  0
 22 23  1  0  0  0  0
 23 27  1  0  0  0  0
 25 26  1  0  0  0  0
 26 24  1  0  0  0  0
 27 26  2  0  0  0  0
 28 31  1  6  0  0  0
 28 29  1  0  0  0  0
 28  8  1  0  0  0  0
 30 32  1  0  0  0  0
 30 31  1  0  0  0  0
 32 33  1  0  0  0  0
 33 29  1  0  0  0  0
 34 32  1  0  0  0  0
 35 38  1  0  0  0  0
 36 37  1  0  0  0  0
 36 35  2  0  0  0  0
 37 39  1  0  0  0  0
 39 34  1  6  0  0  0
 39 38  1  0  0  0  0
M  END
>  <MODEL>
7

>  <REMARK>
 VINA RESULT:      -4.5      2.921      8.417
  Name = 
  8 active torsions:
  status: ('A' for Active; 'I' for Inactive)
    1  A    between atoms: C_2  and  C_4
    2  A    between atoms: C_3  and  C_30
    3  A    between atoms: C_3  and  N_31
    4  A    between atoms: N_8  and  C_21
    5  A    between atoms: C_14  and  C_32
    6  A    between atoms: C_14  and  N_36
    7  A    between atoms: O_20  and  C_30
    8  A    between atoms: O_20  and  C_34
                            x       y       z     vdW  Elec       q    Type
                         _______ _______ _______ _____ _____    ______ ____

>  <TORSDO>
F 8

$$$$
=
 OpenBabel11072415023D

 39 44  0  0  1  0  0  0  0  0999 V2000
  161.3110  204.8140  148.5640 C   0  0  0  0  0  0  0  0  0  0  0  0
  161.9280  209.3540  148.9930 C   0  0  0  0  0  2  0  0  0  0  0  0
  162.0770  206.6210  147.1600 C   0  0  0  0  0  0  0  0  0  0  0  0
  162.6050  207.7950  147.2420 N   0  0  0  0  0  0  0  0  0  0  0  0
  162.1110  206.8800  150.8520 C   0  0  0  0  0  2  0  0  0  0  0  0
  161.8670  206.0270  148.4320 C   0  0  0  0  0  0  0  0  0  0  0  0
  161.7430  205.9520  145.9480 N   0  0  0  0  0  0  0  0  0  0  0  0
  161.0990  209.1750  151.3780 C   0  0  2  0  0  3  0  0  0  0  0  0
  160.8290  204.0900  147.3170 C   0  0  0  0  0  2  0  0  0  0  0  0
  161.1780  204.7780  146.0020 C   0  0  0  0  0  3  0  0  0  0  0  0
  162.7820  208.1320  148.6650 C   0  0  2  0  0  3  0  0  0  0  0  0
  160.8540  207.6560  151.2220 C   0  0  0  0  0  2  0  0  0  0  0  0
  162.3290  206.9450  149.4120 N   0  0  0  0  0  0  0  0  0  0  0  0
  162.1430  209.7850  150.4340 C   0  0  0  0  0  2  0  0  0  0  0  0
  161.1300  204.1640  149.8720 C   0  0  0  0  0  0  0  0  0  0  0  0
  160.6520  204.3540  152.2450 C   0  0  0  0  0  3  0  0  0  0  0  0
  161.1410  202.1890  151.2850 C   0  0  0  0  0  3  0  0  0  0  0  0
  160.8110  204.9460  150.9910 C   0  0  0  0  0  3  0  0  0  0  0  0
  160.8150  202.9760  152.3920 C   0  0  0  0  0  3  0  0  0  0  0  0
  161.3050  202.7740  150.0180 C   0  0  0  0  0  0  0  0  0  0  0  0
  161.6260  201.9940  148.8980 O   0  0  0  0  0  0  0  0  0  0  0  0
  161.3540  200.6000  148.8100 C   0  0  0  0  0  2  0  0  0  0  0  0
  161.5250  200.1260  147.3790 C   0  0  0  0  0  2  0  0  0  0  0  0
  159.7040  201.6310  144.5100 N   0  0  0  0  0  1  0  0  0  0  0  0
  160.4660  199.3230  144.8920 N   0  0  0  0  0  1  0  0  0  0  0  0
  160.3560  200.6730  145.3370 C   0  0  0  0  0  0  0  0  0  0  0  0
  160.8420  201.0440  146.4790 N   0  0  0  0  0  0  0  0  0  0  0  0
  161.3390  209.6000  152.7640 N   0  0  1  0  0  0  0  0  0  0  0  0
  160.8320  210.9640  152.9340 C   0  0  0  0  0  2  0  0  0  0  0  0
  160.9080  209.1870  155.1420 C   0  0  0  0  0  2  0  0  0  0  0  0
  160.6720  208.6980  153.7130 C   0  0  0  0  0  2  0  0  0  0  0  0
  160.3670  210.5360  155.2960 N   0  0  0  0  0  0  0  0  0  0  0  0
  161.0660  211.4270  154.3710 C   0  0  0  0  0  2  0  0  0  0  0  0
  160.7000  210.9690  156.6430 C   0  0  0  0  0  2  0  0  0  0  0  0
  157.7910  212.6050  155.9800 C   0  0  0  0  0  3  0  0  0  0  0  0
  158.5440  213.6470  156.2650 C   0  0  0  0  0  3  0  0  0  0  0  0
  159.7200  213.2300  157.0800 C   0  0  0  0  0  2  0  0  0  0  0  0
  158.3150  211.4110  156.5310 N   0  0  0  0  0  2  0  0  0  0  0  0
  159.5320  211.7230  157.2580 C   0  0  1  0  0  3  0  0  0  0  0  0
  1 15  1  0  0  0  0
  2 14  1  0  0  0  0
  3  4  2  0  0  0  0
  3  6  1  0  0  0  0
  4 11  1  0  0  0  0
  5 12  1  0  0  0  0
  6  1  2  0  0  0  0
  6 13  1  0  0  0  0
  7 10  2  0  0  0  0
  7  3  1  0  0  0  0
  8 14  1  6  0  0  0
  8 28  1  0  0  0  0
  9  1  1  0  0  0  0
 10  9  1  0  0  0  0
 11  2  1  1  0  0  0
 11 13  1  0  0  0  0
 12  8  1  0  0  0  0
 13  5  1  0  0  0  0
 15 20  2  0  0  0  0
 15 18  1  0  0  0  0
 16 19  1  0  0  0  0
 17 19  2  0  0  0  0
 18 16  2  0  0  0  0
 20 17  1  0  0  0  0
 21 20  1  0  0  0  0
 22 21  1  0  0  0  0
 23 22  1  0  0  0  0
 24 26  1  0  0  0  0
 25 26  1  0  0  0  0
 26 27  2  0  0  0  0
 27 23  1  0  0  0  0
 28 29  1  6  0  0  0
 28 31  1  0  0  0  0
 29 33  1  0  0  0  0
 30 32  1  0  0  0  0
 31 30  1  0  0  0  0
 32 34  1  0  0  0  0
 33 32  1  0  0  0  0
 35 36  2  0  0  0  0
 35 38  1  0  0  0  0
 36 37  1  0  0  0  0
 37 39  1  0  0  0  0
 38 39  1  0  0  0  0
 39 34  1  6  0  0  0
M  END
>  <MODEL>
8

>  <REMARK>
 VINA RESULT:      -4.4      4.044      8.091
  Name = 
  8 active torsions:
  status: ('A' for Active; 'I' for Inactive)
    1  A    between atoms: C_2  and  C_4
    2  A    between atoms: C_3  and  C_30
    3  A    between atoms: C_3  and  N_31
    4  A    between atoms: N_8  and  C_21
    5  A    between atoms: C_14  and  C_32
    6  A    between atoms: C_14  and  N_36
    7  A    between atoms: O_20  and  C_30
    8  A    between atoms: O_20  and  C_34
                            x       y       z     vdW  Elec       q    Type
                         _______ _______ _______ _____ _____    ______ ____

>  <TORSDO>
F 8

$$$$
=
 OpenBabel11072415023D

 39 44  0  0  1  0  0  0  0  0999 V2000
  159.9010  211.2520  154.3400 C   0  0  0  0  0  0  0  0  0  0  0  0
  160.9660  206.7970  154.7880 C   0  0  0  0  0  2  0  0  0  0  0  0
  160.4030  209.7410  156.1540 C   0  0  0  0  0  0  0  0  0  0  0  0
  161.0240  208.6370  156.3910 N   0  0  0  0  0  0  0  0  0  0  0  0
  161.4440  209.0160  152.6770 C   0  0  0  0  0  2  0  0  0  0  0  0
  160.4950  210.1390  154.7940 C   0  0  0  0  0  0  0  0  0  0  0  0
  159.7050  210.5170  157.1230 N   0  0  0  0  0  0  0  0  0  0  0  0
  160.7950  206.5700  152.2730 C   0  0  2  0  0  3  0  0  0  0  0  0
  159.0480  212.0680  155.2970 C   0  0  0  0  0  2  0  0  0  0  0  0
  159.0850  211.6000  156.7480 C   0  0  0  0  0  3  0  0  0  0  0  0
  161.6020  208.1420  155.1290 C   0  0  2  0  0  3  0  0  0  0  0  0
  160.3980  208.0580  152.1250 C   0  0  0  0  0  2  0  0  0  0  0  0
  161.2730  209.1630  154.1180 N   0  0  0  0  0  0  0  0  0  0  0  0
  161.5930  206.2130  153.5330 C   0  0  0  0  0  2  0  0  0  0  0  0
  160.0260  211.7030  152.9450 C   0  0  0  0  0  0  0  0  0  0  0  0
  161.3590  211.8800  150.9230 C   0  0  0  0  0  3  0  0  0  0  0  0
  159.1450  212.8490  150.9940 C   0  0  0  0  0  3  0  0  0  0  0  0
  161.2110  211.4450  152.2410 C   0  0  0  0  0  3  0  0  0  0  0  0
  160.3260  212.5790  150.2990 C   0  0  0  0  0  3  0  0  0  0  0  0
  158.9850  212.4170  152.3220 C   0  0  0  0  0  0  0  0  0  0  0  0
  157.8020  212.6770  153.0280 O   0  0  0  0  0  0  0  0  0  0  0  0
  156.9950  213.8280  152.8080 C   0  0  0  0  0  2  0  0  0  0  0  0
  155.9680  213.9640  153.9170 C   0  0  0  0  0  2  0  0  0  0  0  0
  155.3460  211.1750  156.2940 N   0  0  0  0  0  1  0  0  0  0  0  0
  155.6700  213.5810  156.6950 N   0  0  0  0  0  1  0  0  0  0  0  0
  155.5840  212.4840  155.7880 C   0  0  0  0  0  0  0  0  0  0  0  0
  155.7210  212.6590  154.5110 N   0  0  0  0  0  0  0  0  0  0  0  0
  161.4290  206.0020  151.0760 N   0  0  1  0  0  0  0  0  0  0  0  0
  160.8820  204.6640  150.8410 C   0  0  0  0  0  2  0  0  0  0  0  0
  161.8300  206.2160  148.6670 C   0  0  0  0  0  2  0  0  0  0  0  0
  161.1910  206.8510  149.9010 C   0  0  0  0  0  2  0  0  0  0  0  0
  161.2460  204.8970  148.4350 N   0  0  0  0  0  0  0  0  0  0  0  0
  161.5240  204.0540  149.5970 C   0  0  0  0  0  2  0  0  0  0  0  0
  161.9550  204.3170  147.3060 C   0  0  0  0  0  2  0  0  0  0  0  0
  161.5770  205.4500  144.1190 C   0  0  0  0  0  3  0  0  0  0  0  0
  160.6640  206.1970  144.7050 C   0  0  0  0  0  3  0  0  0  0  0  0
  160.2390  205.5810  145.9940 C   0  0  0  0  0  2  0  0  0  0  0  0
  161.8780  204.2940  144.8790 N   0  0  0  0  0  2  0  0  0  0  0  0
  161.0600  204.2940  146.0770 C   0  0  1  0  0  3  0  0  0  0  0  0
  1  6  2  0  0  0  0
  1  9  1  0  0  0  0
  3  4  2  0  0  0  0
  3  7  1  0  0  0  0
  5 13  1  0  0  0  0
  6  3  1  0  0  0  0
  8 12  1  6  0  0  0
  8 14  1  0  0  0  0
  9 10  1  0  0  0  0
 10  7  2  0  0  0  0
 11  2  1  6  0  0  0
 11  4  1  0  0  0  0
 12  5  1  0  0  0  0
 13  6  1  0  0  0  0
 13 11  1  0  0  0  0
 14  2  1  0  0  0  0
 15  1  1  0  0  0  0
 16 18  1  0  0  0  0
 17 20  2  0  0  0  0
 18 15  2  0  0  0  0
 19 16  2  0  0  0  0
 19 17  1  0  0  0  0
 20 15  1  0  0  0  0
 20 21  1  0  0  0  0
 22 21  1  0  0  0  0
 22 23  1  0  0  0  0
 23 27  1  0  0  0  0
 26 24  1  0  0  0  0
 26 25  1  0  0  0  0
 27 26  2  0  0  0  0
 28 31  1  6  0  0  0
 28  8  1  0  0  0  0
 29 28  1  0  0  0  0
 30 31  1  0  0  0  0
 32 30  1  0  0  0  0
 32 33  1  0  0  0  0
 33 29  1  0  0  0  0
 34 32  1  0  0  0  0
 35 36  2  0  0  0  0
 35 38  1  0  0  0  0
 36 37  1  0  0  0  0
 37 39  1  0  0  0  0
 38 39  1  0  0  0  0
 39 34  1  1  0  0  0
M  END
>  <MODEL>
9

>  <REMARK>
 VINA RESULT:      -4.2      3.237      7.524
  Name = 
  8 active torsions:
  status: ('A' for Active; 'I' for Inactive)
    1  A    between atoms: C_2  and  C_4
    2  A    between atoms: C_3  and  C_30
    3  A    between atoms: C_3  and  N_31
    4  A    between atoms: N_8  and  C_21
    5  A    between atoms: C_14  and  C_32
    6  A    between atoms: C_14  and  N_36
    7  A    between atoms: O_20  and  C_30
    8  A    between atoms: O_20  and  C_34
                            x       y       z     vdW  Elec       q    Type
                         _______ _______ _______ _____ _____    ______ ____

>  <TORSDO>
F 8

$$$$
