=
 OpenBabel11072414523D

 47 54  0  0  1  0  0  0  0  0999 V2000
  160.4790  209.1170  151.6420 F   0  0  0  0  0  0  0  0  0  0  0  0
  161.6480  209.0390  152.3920 C   0  0  0  0  0  0  0  0  0  0  0  0
  162.6380  209.7330  151.7140 F   0  0  0  0  0  0  0  0  0  0  0  0
  162.4620  210.6220  153.9810 O   0  0  0  0  0  1  0  0  0  0  0  0
  161.4550  208.7600  154.7660 F   0  0  0  0  0  0  0  0  0  0  0  0
  161.4230  209.7140  153.7590 C   0  0  2  0  0  0  0  0  0  0  0  0
  155.8670  212.3340  155.3290 C   0  0  0  0  0  2  0  0  0  0  0  0
  156.6470  212.6340  154.0400 C   0  0  0  0  0  2  0  0  0  0  0  0
  158.1600  212.3810  154.1650 C   0  0  2  0  0  3  0  0  0  0  0  0
  160.1470  211.6270  153.0110 O   0  0  0  0  0  0  0  0  0  0  0  0
  158.8190  212.0600  152.8080 C   0  0  2  0  0  3  0  0  0  0  0  0
  159.7740  210.8480  155.1320 O   0  0  0  0  0  0  0  0  0  0  0  0
  158.4150  211.2030  155.1190 C   0  0  1  0  0  3  0  0  0  0  0  0
  157.9430  211.5340  156.5390 C   0  0  0  0  0  2  0  0  0  0  0  0
  160.0880  210.4710  153.8140 C   0  0  2  0  0  3  0  0  0  0  0  0
  156.7460  212.4950  156.5690 C   0  0  0  0  0  2  0  0  0  0  0  0
  158.8230  213.2910  151.8940 C   0  0  1  0  0  3  0  0  0  0  0  0
  158.6080  214.4530  152.6410 O   0  0  0  0  0  1  0  0  0  0  0  0
  160.1510  213.4130  151.1610 C   0  0  0  0  0  2  0  0  0  0  0  0
  160.4830  214.4530  148.1670 N   0  0  0  0  0  0  0  0  0  0  0  0
  161.2150  213.4170  148.9250 C   0  0  1  0  0  3  0  0  0  0  0  0
  160.2090  214.0940  146.7780 C   0  0  0  0  0  1  0  0  0  0  0  0
  159.2900  214.0980  148.9240 C   0  0  0  0  0  2  0  0  0  0  0  0
  159.9920  213.0040  149.7040 C   0  0  2  0  0  3  0  0  0  0  0  0
  162.0570  211.1720  148.9550 O   0  0  0  0  0  1  0  0  0  0  0  0
  161.7620  212.2400  148.1070 C   0  0  0  0  0  2  0  0  0  0  0  0
  162.3620  207.0360  151.3300 O   0  0  0  0  0  0  0  0  0  0  0  0
  162.1230  207.5850  152.5500 C   0  0  2  0  0  3  0  0  0  0  0  0
  161.1900  206.6530  151.9640 N   0  0  0  0  0  0  0  0  0  0  0  0
  161.4510  205.3620  152.5720 C   0  0  0  0  0  2  0  0  0  0  0  0
  161.7850  204.3480  151.4850 C   0  0  2  0  0  3  0  0  0  0  0  0
  160.5460  204.0880  150.6400 C   0  0  2  0  0  3  0  0  0  0  0  0
  160.1850  203.0010  152.7300 O   0  0  0  0  0  1  0  0  0  0  0  0
  161.0290  203.0280  151.6160 C   0  0  2  0  0  3  0  0  0  0  0  0
  160.4370  202.4820  148.6110 C   0  0  0  0  0  2  0  0  0  0  0  0
  160.9450  203.7980  149.1810 C   0  0  0  0  0  0  0  0  0  0  0  0
  161.8660  202.5920  149.1160 C   0  0  0  0  0  2  0  0  0  0  0  0
  161.9090  203.9490  145.8090 C   0  0  0  0  0  3  0  0  0  0  0  0
  160.1340  206.8320  147.2310 N   0  0  0  0  0  2  0  0  0  0  0  0
  162.7820  205.2780  148.2700 C   0  0  0  0  0  1  0  0  0  0  0  0
  161.2970  204.9310  148.1720 C   0  0  2  0  0  0  0  0  0  0  0  0
  161.9750  204.3070  144.5200 C   0  0  0  0  0  3  0  0  0  0  0  0
  160.4790  206.2030  148.4990 C   0  0  0  0  0  2  0  0  0  0  0  0
  160.4460  205.9250  146.1980 C   0  0  0  0  0  0  0  0  0  0  0  0
  160.5570  206.2650  144.9170 C   0  0  0  0  0  3  0  0  0  0  0  0
  160.8980  204.6160  146.7120 C   0  0  1  0  0  3  0  0  0  0  0  0
  161.2040  205.3820  144.0370 O   0  0  0  0  0  0  0  0  0  0  0  0
  1  2  1  0  0  0  0
  2  6  1  0  0  0  0
  3  2  1  0  0  0  0
  6  4  1  1  0  0  0
  6  5  1  0  0  0  0
  7 16  1  0  0  0  0
  8  7  1  0  0  0  0
  9  8  1  6  0  0  0
  9 13  1  0  0  0  0
 10 15  1  0  0  0  0
 11 17  1  6  0  0  0
 11 10  1  0  0  0  0
 11  9  1  0  0  0  0
 13 12  1  0  0  0  0
 13 14  1  1  0  0  0
 14 16  1  0  0  0  0
 15  6  1  1  0  0  0
 15 12  1  0  0  0  0
 17 18  1  1  0  0  0
 19 17  1  0  0  0  0
 20 23  1  0  0  0  0
 20 21  1  0  0  0  0
 21 26  1  6  0  0  0
 21 24  1  0  0  0  0
 22 20  1  0  0  0  0
 23 24  1  0  0  0  0
 24 19  1  1  0  0  0
 26 25  1  0  0  0  0
 27 29  1  0  0  0  0
 27 28  1  0  0  0  0
 28  2  1  6  0  0  0
 29 28  1  0  0  0  0
 29 30  1  0  0  0  0
 31 34  1  0  0  0  0
 31 30  1  1  0  0  0
 32 36  1  6  0  0  0
 32 31  1  0  0  0  0
 32 34  1  0  0  0  0
 34 33  1  1  0  0  0
 35 37  1  0  0  0  0
 35 36  1  0  0  0  0
 37 36  1  0  0  0  0
 39 43  1  0  0  0  0
 41 40  1  1  0  0  0
 41 43  1  0  0  0  0
 41 36  1  0  0  0  0
 42 38  2  0  0  0  0
 44 46  1  0  0  0  0
 44 39  1  0  0  0  0
 45 44  2  0  0  0  0
 46 38  1  6  0  0  0
 46 41  1  0  0  0  0
 47 42  1  0  0  0  0
 47 45  1  0  0  0  0
M  END
>  <MODEL>
1

>  <REMARK>
 VINA RESULT:      -7.1      0.000      0.000
  Name = 
  11 active torsions:
  status: ('A' for Active; 'I' for Inactive)
    1  A    between atoms: C_1  and  C_7
    2  A    between atoms: C_1  and  C_47
    3  A    between atoms: C_7  and  C_24
    4  A    between atoms: C_11  and  C_41
    5  A    between atoms: C_14  and  C_40
    6  A    between atoms: C_15  and  C_23
    7  A    between atoms: C_15  and  C_28
    8  A    between atoms: C_20  and  C_21
    9  A    between atoms: C_20  and  C_22
   10  A    between atoms: N_26  and  C_40
   11  A    between atoms: C_28  and  C_38
                            x       y       z     vdW  Elec       q    Type
                         _______ _______ _______ _____ _____    ______ ____

>  <TORSDO>
F 11

$$$$
=
 OpenBabel11072414523D

 47 54  0  0  1  0  0  0  0  0999 V2000
  159.3990  210.0010  152.1430 F   0  0  0  0  0  0  0  0  0  0  0  0
  160.5040  209.8290  152.9700 C   0  0  0  0  0  0  0  0  0  0  0  0
  161.4880  210.7140  152.5570 F   0  0  0  0  0  0  0  0  0  0  0  0
  161.2230  210.7350  155.0570 O   0  0  0  0  0  1  0  0  0  0  0  0
  159.7650  209.0120  155.0990 F   0  0  0  0  0  0  0  0  0  0  0  0
  160.1130  210.1700  154.4210 C   0  0  2  0  0  0  0  0  0  0  0  0
  155.1180  213.7450  155.9900 C   0  0  0  0  0  2  0  0  0  0  0  0
  155.9880  213.9510  154.7410 C   0  0  0  0  0  2  0  0  0  0  0  0
  157.4170  213.4010  154.8910 C   0  0  2  0  0  3  0  0  0  0  0  0
  159.2620  212.3320  153.7500 O   0  0  0  0  0  0  0  0  0  0  0  0
  158.0510  213.0260  153.5360 C   0  0  2  0  0  3  0  0  0  0  0  0
  158.6670  211.5340  155.8120 O   0  0  0  0  0  0  0  0  0  0  0  0
  157.4050  212.1490  155.7830 C   0  0  1  0  0  3  0  0  0  0  0  0
  156.9530  212.4940  157.2070 C   0  0  0  0  0  2  0  0  0  0  0  0
  158.9500  211.1700  154.4830 C   0  0  2  0  0  3  0  0  0  0  0  0
  155.9650  213.6690  157.2600 C   0  0  0  0  0  2  0  0  0  0  0  0
  158.3270  214.2760  152.6930 C   0  0  1  0  0  3  0  0  0  0  0  0
  159.6710  214.3180  152.3090 O   0  0  0  0  0  1  0  0  0  0  0  0
  157.4560  214.2880  151.4460 C   0  0  0  0  0  2  0  0  0  0  0  0
  157.5770  213.9300  148.2820 N   0  0  0  0  0  0  0  0  0  0  0  0
  158.5900  214.4050  149.2480 C   0  0  1  0  0  3  0  0  0  0  0  0
  158.1120  213.0660  147.2320 C   0  0  0  0  0  1  0  0  0  0  0  0
  157.0690  213.0440  149.3210 C   0  0  0  0  0  2  0  0  0  0  0  0
  158.1080  213.4780  150.3360 C   0  0  2  0  0  3  0  0  0  0  0  0
  160.4740  212.9520  149.5420 O   0  0  0  0  0  1  0  0  0  0  0  0
  160.0530  214.1120  148.8920 C   0  0  0  0  0  2  0  0  0  0  0  0
  162.1210  208.3900  151.9860 O   0  0  0  0  0  0  0  0  0  0  0  0
  161.0790  208.4070  152.8580 C   0  0  2  0  0  3  0  0  0  0  0  0
  160.9200  207.8710  151.5280 N   0  0  0  0  0  0  0  0  0  0  0  0
  161.0220  206.4280  151.6430 C   0  0  0  0  0  2  0  0  0  0  0  0
  161.8040  205.8800  150.4560 C   0  0  2  0  0  3  0  0  0  0  0  0
  160.8810  205.7700  149.2510 C   0  0  2  0  0  3  0  0  0  0  0  0
  160.2650  204.0170  150.7420 O   0  0  0  0  0  1  0  0  0  0  0  0
  161.3250  204.5110  149.9770 C   0  0  2  0  0  3  0  0  0  0  0  0
  162.6580  207.1820  148.0020 C   0  0  0  0  0  2  0  0  0  0  0  0
  161.6650  206.0300  147.9510 C   0  0  0  0  0  0  0  0  0  0  0  0
  161.2900  207.3830  147.3720 C   0  0  0  0  0  2  0  0  0  0  0  0
  161.4400  202.5270  147.8800 C   0  0  0  0  0  3  0  0  0  0  0  0
  160.9640  204.3550  144.7310 N   0  0  0  0  0  2  0  0  0  0  0  0
  163.3740  204.4950  146.8930 C   0  0  0  0  0  1  0  0  0  0  0  0
  161.9060  204.9180  146.8860 C   0  0  2  0  0  0  0  0  0  0  0  0
  161.1470  201.2790  147.4910 C   0  0  0  0  0  3  0  0  0  0  0  0
  161.5630  205.4550  145.4770 C   0  0  0  0  0  2  0  0  0  0  0  0
  160.6910  203.3130  145.6400 C   0  0  0  0  0  0  0  0  0  0  0  0
  160.4370  202.0580  145.2790 C   0  0  0  0  0  3  0  0  0  0  0  0
  160.9760  203.6930  147.0390 C   0  0  1  0  0  3  0  0  0  0  0  0
  160.5270  201.0450  146.2480 O   0  0  0  0  0  0  0  0  0  0  0  0
  1  2  1  0  0  0  0
  2  6  1  0  0  0  0
  3  2  1  0  0  0  0
  6  4  1  1  0  0  0
  6  5  1  0  0  0  0
  7 16  1  0  0  0  0
  8  7  1  0  0  0  0
  9  8  1  6  0  0  0
  9 13  1  0  0  0  0
 10 15  1  0  0  0  0
 11 17  1  6  0  0  0
 11 10  1  0  0  0  0
 11  9  1  0  0  0  0
 13 12  1  0  0  0  0
 13 14  1  1  0  0  0
 14 16  1  0  0  0  0
 15  6  1  1  0  0  0
 15 12  1  0  0  0  0
 17 18  1  6  0  0  0
 19 17  1  0  0  0  0
 20 21  1  0  0  0  0
 20 23  1  0  0  0  0
 21 26  1  6  0  0  0
 21 24  1  0  0  0  0
 22 20  1  0  0  0  0
 23 24  1  0  0  0  0
 24 19  1  1  0  0  0
 26 25  1  0  0  0  0
 27 28  1  0  0  0  0
 28  2  1  6  0  0  0
 29 30  1  0  0  0  0
 29 27  1  0  0  0  0
 29 28  1  0  0  0  0
 31 30  1  1  0  0  0
 32 36  1  6  0  0  0
 32 34  1  0  0  0  0
 32 31  1  0  0  0  0
 34 31  1  0  0  0  0
 34 33  1  1  0  0  0
 36 35  1  0  0  0  0
 37 36  1  0  0  0  0
 37 35  1  0  0  0  0
 39 43  1  0  0  0  0
 39 44  1  0  0  0  0
 41 40  1  1  0  0  0
 41 46  1  0  0  0  0
 41 36  1  0  0  0  0
 42 38  2  0  0  0  0
 43 41  1  0  0  0  0
 44 46  1  0  0  0  0
 45 44  2  0  0  0  0
 45 47  1  0  0  0  0
 46 38  1  1  0  0  0
 47 42  1  0  0  0  0
M  END
>  <MODEL>
2

>  <REMARK>
 VINA RESULT:      -6.6      1.780      2.471
  Name = 
  11 active torsions:
  status: ('A' for Active; 'I' for Inactive)
    1  A    between atoms: C_1  and  C_7
    2  A    between atoms: C_1  and  C_47
    3  A    between atoms: C_7  and  C_24
    4  A    between atoms: C_11  and  C_41
    5  A    between atoms: C_14  and  C_40
    6  A    between atoms: C_15  and  C_23
    7  A    between atoms: C_15  and  C_28
    8  A    between atoms: C_20  and  C_21
    9  A    between atoms: C_20  and  C_22
   10  A    between atoms: N_26  and  C_40
   11  A    between atoms: C_28  and  C_38
                            x       y       z     vdW  Elec       q    Type
                         _______ _______ _______ _____ _____    ______ ____

>  <TORSDO>
F 11

$$$$
=
 OpenBabel11072414523D

 47 54  0  0  1  0  0  0  0  0999 V2000
  161.2960  208.8670  150.2500 F   0  0  0  0  0  0  0  0  0  0  0  0
  161.6080  208.7980  151.6030 C   0  0  0  0  0  0  0  0  0  0  0  0
  162.9870  208.7300  151.7210 F   0  0  0  0  0  0  0  0  0  0  0  0
  161.9380  210.3190  153.4110 O   0  0  0  0  0  1  0  0  0  0  0  0
  159.8180  209.8990  152.7570 F   0  0  0  0  0  0  0  0  0  0  0  0
  161.1170  210.0780  152.3050 C   0  0  2  0  0  0  0  0  0  0  0  0
  162.2550  214.3030  147.7170 C   0  0  0  0  0  2  0  0  0  0  0  0
  161.1780  214.4530  148.8020 C   0  0  0  0  0  2  0  0  0  0  0  0
  160.6970  213.1100  149.3790 C   0  0  2  0  0  3  0  0  0  0  0  0
  159.9310  211.9660  151.3670 O   0  0  0  0  0  0  0  0  0  0  0  0
  160.1500  213.2460  150.8150 C   0  0  2  0  0  3  0  0  0  0  0  0
  161.4950  210.9200  150.0610 O   0  0  0  0  0  0  0  0  0  0  0  0
  161.8590  212.1030  149.3970 C   0  0  1  0  0  3  0  0  0  0  0  0
  162.3310  211.7850  147.9730 C   0  0  0  0  0  2  0  0  0  0  0  0
  161.1720  211.3000  151.3770 C   0  0  2  0  0  3  0  0  0  0  0  0
  162.1480  212.9580  147.0000 C   0  0  0  0  0  2  0  0  0  0  0  0
  158.8360  214.0350  150.8300 C   0  0  1  0  0  3  0  0  0  0  0  0
  157.8120  213.2870  150.2420 O   0  0  0  0  0  1  0  0  0  0  0  0
  158.4350  214.3880  152.2550 C   0  0  0  0  0  2  0  0  0  0  0  0
  156.8580  213.4670  154.8650 N   0  0  0  0  0  0  0  0  0  0  0  0
  156.4000  214.1700  153.6490 C   0  0  1  0  0  3  0  0  0  0  0  0
  155.9220  212.4600  155.3600 C   0  0  0  0  0  1  0  0  0  0  0  0
  157.8220  212.7560  154.0360 C   0  0  0  0  0  2  0  0  0  0  0  0
  157.3650  213.4300  152.7570 C   0  0  2  0  0  3  0  0  0  0  0  0
  154.8020  214.1950  151.8630 O   0  0  0  0  0  1  0  0  0  0  0  0
  154.9510  213.9080  153.2200 C   0  0  0  0  0  2  0  0  0  0  0  0
  161.6030  207.3190  153.4640 O   0  0  0  0  0  0  0  0  0  0  0  0
  161.0220  207.5350  152.2550 C   0  0  2  0  0  3  0  0  0  0  0  0
  162.0210  206.5070  152.4210 N   0  0  0  0  0  0  0  0  0  0  0  0
  161.3100  205.2500  152.5640 C   0  0  0  0  0  2  0  0  0  0  0  0
  161.7390  204.2980  151.4550 C   0  0  2  0  0  3  0  0  0  0  0  0
  160.5160  203.8670  150.6590 C   0  0  2  0  0  3  0  0  0  0  0  0
  160.3990  202.7340  152.7520 O   0  0  0  0  0  1  0  0  0  0  0  0
  161.1840  202.8830  151.6050 C   0  0  2  0  0  3  0  0  0  0  0  0
  160.3460  202.3660  148.5540 C   0  0  0  0  0  2  0  0  0  0  0  0
  160.8910  203.6410  149.1830 C   0  0  0  0  0  0  0  0  0  0  0  0
  161.7830  202.4180  149.0470 C   0  0  0  0  0  2  0  0  0  0  0  0
  161.8840  203.9310  145.8270 C   0  0  0  0  0  3  0  0  0  0  0  0
  160.1160  206.7620  147.3600 N   0  0  0  0  0  2  0  0  0  0  0  0
  162.7450  205.1460  148.3510 C   0  0  0  0  0  1  0  0  0  0  0  0
  161.2590  204.8140  148.2260 C   0  0  2  0  0  0  0  0  0  0  0  0
  161.9620  204.3450  144.5560 C   0  0  0  0  0  3  0  0  0  0  0  0
  160.4470  206.0760  148.6020 C   0  0  0  0  0  2  0  0  0  0  0  0
  160.4300  205.8990  146.2910 C   0  0  0  0  0  0  0  0  0  0  0  0
  160.5540  206.2930  145.0270 C   0  0  0  0  0  3  0  0  0  0  0  0
  160.8700  204.5650  146.7510 C   0  0  1  0  0  3  0  0  0  0  0  0
  161.2020  205.4450  144.1140 O   0  0  0  0  0  0  0  0  0  0  0  0
  1  2  1  0  0  0  0
  2  3  1  0  0  0  0
  2  6  1  0  0  0  0
  6  5  1  1  0  0  0
  6  4  1  0  0  0  0
  7  8  1  0  0  0  0
  9  8  1  1  0  0  0
  9 13  1  0  0  0  0
  9 11  1  0  0  0  0
 10 15  1  0  0  0  0
 11 17  1  6  0  0  0
 11 10  1  0  0  0  0
 12 15  1  0  0  0  0
 13 14  1  6  0  0  0
 13 12  1  0  0  0  0
 15  6  1  1  0  0  0
 16  7  1  0  0  0  0
 16 14  1  0  0  0  0
 17 18  1  1  0  0  0
 17 19  1  0  0  0  0
 20 22  1  0  0  0  0
 21 26  1  6  0  0  0
 21 20  1  0  0  0  0
 23 20  1  0  0  0  0
 24 19  1  1  0  0  0
 24 21  1  0  0  0  0
 24 23  1  0  0  0  0
 25 26  1  0  0  0  0
 28  2  1  6  0  0  0
 28 29  1  0  0  0  0
 28 27  1  0  0  0  0
 29 30  1  0  0  0  0
 29 27  1  0  0  0  0
 31 34  1  0  0  0  0
 31 30  1  1  0  0  0
 32 36  1  6  0  0  0
 32 31  1  0  0  0  0
 32 34  1  0  0  0  0
 34 33  1  1  0  0  0
 35 37  1  0  0  0  0
 35 36  1  0  0  0  0
 37 36  1  0  0  0  0
 39 43  1  0  0  0  0
 41 40  1  1  0  0  0
 41 43  1  0  0  0  0
 41 36  1  0  0  0  0
 42 38  2  0  0  0  0
 44 46  1  0  0  0  0
 44 39  1  0  0  0  0
 45 44  2  0  0  0  0
 46 38  1  6  0  0  0
 46 41  1  0  0  0  0
 47 42  1  0  0  0  0
 47 45  1  0  0  0  0
M  END
>  <MODEL>
3

>  <REMARK>
 VINA RESULT:      -6.3      1.691      4.422
  Name = 
  11 active torsions:
  status: ('A' for Active; 'I' for Inactive)
    1  A    between atoms: C_1  and  C_7
    2  A    between atoms: C_1  and  C_47
    3  A    between atoms: C_7  and  C_24
    4  A    between atoms: C_11  and  C_41
    5  A    between atoms: C_14  and  C_40
    6  A    between atoms: C_15  and  C_23
    7  A    between atoms: C_15  and  C_28
    8  A    between atoms: C_20  and  C_21
    9  A    between atoms: C_20  and  C_22
   10  A    between atoms: N_26  and  C_40
   11  A    between atoms: C_28  and  C_38
                            x       y       z     vdW  Elec       q    Type
                         _______ _______ _______ _____ _____    ______ ____

>  <TORSDO>
F 11

$$$$
=
 OpenBabel11072414523D

 47 54  0  0  1  0  0  0  0  0999 V2000
  161.5050  207.1830  151.0360 F   0  0  0  0  0  0  0  0  0  0  0  0
  161.5630  206.2980  152.1060 C   0  0  0  0  0  0  0  0  0  0  0  0
  162.8910  205.9560  152.3080 F   0  0  0  0  0  0  0  0  0  0  0  0
  162.0440  206.9700  154.3440 O   0  0  0  0  0  1  0  0  0  0  0  0
  159.9390  206.3080  153.8700 F   0  0  0  0  0  0  0  0  0  0  0  0
  161.0370  206.9960  153.3750 C   0  0  2  0  0  0  0  0  0  0  0  0
  158.7960  212.9240  153.5550 C   0  0  0  0  0  2  0  0  0  0  0  0
  159.7800  212.3880  152.5050 C   0  0  0  0  0  2  0  0  0  0  0  0
  160.6130  211.1910  152.9980 C   0  0  2  0  0  3  0  0  0  0  0  0
  161.6540  209.1040  152.3630 O   0  0  0  0  0  0  0  0  0  0  0  0
  161.0900  210.2880  151.8430 C   0  0  2  0  0  3  0  0  0  0  0  0
  160.4540  209.1570  154.3130 O   0  0  0  0  0  0  0  0  0  0  0  0
  159.7780  210.3390  153.9670 C   0  0  1  0  0  3  0  0  0  0  0  0
  159.4230  211.1320  155.2310 C   0  0  0  0  0  2  0  0  0  0  0  0
  160.6480  208.4570  153.1080 C   0  0  2  0  0  3  0  0  0  0  0  0
  159.2780  212.6400  154.9760 C   0  0  0  0  0  2  0  0  0  0  0  0
  162.1310  211.0070  150.9770 C   0  0  1  0  0  3  0  0  0  0  0  0
  163.3900  210.4190  151.1400 O   0  0  0  0  0  1  0  0  0  0  0  0
  161.7440  210.9450  149.5070 C   0  0  0  0  0  2  0  0  0  0  0  0
  162.0400  212.6500  146.8310 N   0  0  0  0  0  0  0  0  0  0  0  0
  160.8500  212.2940  147.6320 C   0  0  1  0  0  3  0  0  0  0  0  0
  162.0280  214.0190  146.3210 C   0  0  0  0  0  1  0  0  0  0  0  0
  162.8070  212.6820  148.0690 C   0  0  0  0  0  2  0  0  0  0  0  0
  161.6080  212.3490  148.9360 C   0  0  2  0  0  3  0  0  0  0  0  0
  159.3500  213.6320  148.9390 O   0  0  0  0  0  1  0  0  0  0  0  0
  159.7020  213.3110  147.6270 C   0  0  0  0  0  2  0  0  0  0  0  0
  161.3740  203.9520  152.4440 O   0  0  0  0  0  0  0  0  0  0  0  0
  160.7890  205.0020  151.8110 C   0  0  2  0  0  3  0  0  0  0  0  0
  161.5940  204.0540  151.0790 N   0  0  0  0  0  0  0  0  0  0  0  0
  160.6760  203.1290  150.4410 C   0  0  0  0  0  2  0  0  0  0  0  0
  161.3000  202.6030  149.1550 C   0  0  2  0  0  3  0  0  0  0  0  0
  160.1990  202.2610  148.1620 C   0  0  2  0  0  3  0  0  0  0  0  0
  160.1550  200.5680  149.8370 O   0  0  0  0  0  1  0  0  0  0  0  0
  160.9630  201.1450  148.8530 C   0  0  2  0  0  3  0  0  0  0  0  0
  160.0230  201.6670  145.6470 C   0  0  0  0  0  2  0  0  0  0  0  0
  160.6760  202.5240  146.7220 C   0  0  0  0  0  0  0  0  0  0  0  0
  161.4010  201.3050  146.1770 C   0  0  0  0  0  2  0  0  0  0  0  0
  160.3180  205.8750  147.7040 C   0  0  0  0  0  3  0  0  0  0  0  0
  163.5120  204.8410  146.2140 N   0  0  0  0  0  2  0  0  0  0  0  0
  160.4770  204.4800  145.1320 C   0  0  0  0  0  1  0  0  0  0  0  0
  161.2900  203.8860  146.2810 C   0  0  2  0  0  0  0  0  0  0  0  0
  160.6070  207.1310  148.0670 C   0  0  0  0  0  3  0  0  0  0  0  0
  162.7420  203.6780  145.7920 C   0  0  0  0  0  2  0  0  0  0  0  0
  162.7190  205.5800  147.1150 C   0  0  0  0  0  0  0  0  0  0  0  0
  162.9630  206.8420  147.4590 C   0  0  0  0  0  3  0  0  0  0  0  0
  161.4450  204.9050  147.4340 C   0  0  1  0  0  3  0  0  0  0  0  0
  161.9410  207.5850  148.0710 O   0  0  0  0  0  0  0  0  0  0  0  0
  1  2  1  0  0  0  0
  2  3  1  0  0  0  0
  2  6  1  0  0  0  0
  6  5  1  1  0  0  0
  6  4  1  0  0  0  0
  7 16  1  0  0  0  0
  8  7  1  0  0  0  0
  9  8  1  6  0  0  0
  9 13  1  0  0  0  0
 10 15  1  0  0  0  0
 11 17  1  1  0  0  0
 11 10  1  0  0  0  0
 11  9  1  0  0  0  0
 13 12  1  0  0  0  0
 13 14  1  1  0  0  0
 15  6  1  1  0  0  0
 15 12  1  0  0  0  0
 16 14  1  0  0  0  0
 17 18  1  6  0  0  0
 19 17  1  0  0  0  0
 20 21  1  0  0  0  0
 20 23  1  0  0  0  0
 21 26  1  1  0  0  0
 21 24  1  0  0  0  0
 22 20  1  0  0  0  0
 23 24  1  0  0  0  0
 24 19  1  6  0  0  0
 26 25  1  0  0  0  0
 28  2  1  1  0  0  0
 28 27  1  0  0  0  0
 29 28  1  0  0  0  0
 29 27  1  0  0  0  0
 30 29  1  0  0  0  0
 31 30  1  1  0  0  0
 32 36  1  6  0  0  0
 32 34  1  0  0  0  0
 32 31  1  0  0  0  0
 34 31  1  0  0  0  0
 34 33  1  1  0  0  0
 35 37  1  0  0  0  0
 35 36  1  0  0  0  0
 37 36  1  0  0  0  0
 38 42  2  0  0  0  0
 39 44  1  0  0  0  0
 41 40  1  6  0  0  0
 41 36  1  0  0  0  0
 41 46  1  0  0  0  0
 42 47  1  0  0  0  0
 43 39  1  0  0  0  0
 43 41  1  0  0  0  0
 44 46  1  0  0  0  0
 44 45  2  0  0  0  0
 45 47  1  0  0  0  0
 46 38  1  6  0  0  0
M  END
>  <MODEL>
4

>  <REMARK>
 VINA RESULT:      -5.9      2.052      3.249
  Name = 
  11 active torsions:
  status: ('A' for Active; 'I' for Inactive)
    1  A    between atoms: C_1  and  C_7
    2  A    between atoms: C_1  and  C_47
    3  A    between atoms: C_7  and  C_24
    4  A    between atoms: C_11  and  C_41
    5  A    between atoms: C_14  and  C_40
    6  A    between atoms: C_15  and  C_23
    7  A    between atoms: C_15  and  C_28
    8  A    between atoms: C_20  and  C_21
    9  A    between atoms: C_20  and  C_22
   10  A    between atoms: N_26  and  C_40
   11  A    between atoms: C_28  and  C_38
                            x       y       z     vdW  Elec       q    Type
                         _______ _______ _______ _____ _____    ______ ____

>  <TORSDO>
F 11

$$$$
=
 OpenBabel11072414523D

 47 54  0  0  1  0  0  0  0  0999 V2000
  160.3510  206.5080  145.1710 F   0  0  0  0  0  0  0  0  0  0  0  0
  161.3620  205.7430  144.6000 C   0  0  0  0  0  0  0  0  0  0  0  0
  162.5710  206.3690  144.8620 F   0  0  0  0  0  0  0  0  0  0  0  0
  162.6250  203.7630  145.0190 O   0  0  0  0  0  1  0  0  0  0  0  0
  160.4040  203.5470  144.6800 F   0  0  0  0  0  0  0  0  0  0  0  0
  161.3780  204.3480  145.2550 C   0  0  2  0  0  0  0  0  0  0  0  0
  160.2940  203.2320  151.4010 C   0  0  0  0  0  2  0  0  0  0  0  0
  160.7390  204.5820  150.8190 C   0  0  0  0  0  2  0  0  0  0  0  0
  161.4980  204.4540  149.4860 C   0  0  2  0  0  3  0  0  0  0  0  0
  161.9070  205.4720  147.3310 O   0  0  0  0  0  0  0  0  0  0  0  0
  161.3830  205.7230  148.6170 C   0  0  2  0  0  3  0  0  0  0  0  0
  161.5120  203.2170  147.3980 O   0  0  0  0  0  0  0  0  0  0  0  0
  160.9490  203.2650  148.6840 C   0  0  1  0  0  3  0  0  0  0  0  0
  161.1990  201.9430  149.4190 C   0  0  0  0  0  2  0  0  0  0  0  0
  161.1490  204.4230  146.7720 C   0  0  2  0  0  3  0  0  0  0  0  0
  161.2060  202.0940  150.9470 C   0  0  0  0  0  2  0  0  0  0  0  0
  162.1400  206.8950  149.2520 C   0  0  1  0  0  3  0  0  0  0  0  0
  162.7030  207.7050  148.2610 O   0  0  0  0  0  1  0  0  0  0  0  0
  161.2060  207.7390  150.1080 C   0  0  0  0  0  2  0  0  0  0  0  0
  161.0860  209.7790  152.5520 N   0  0  0  0  0  0  0  0  0  0  0  0
  160.8310  208.3250  152.4840 C   0  0  1  0  0  3  0  0  0  0  0  0
  161.8130  210.2020  153.7470 C   0  0  0  0  0  1  0  0  0  0  0  0
  162.0840  209.6070  151.5060 C   0  0  0  0  0  2  0  0  0  0  0  0
  161.8790  208.1060  151.4220 C   0  0  2  0  0  3  0  0  0  0  0  0
  161.9550  206.4220  153.4140 O   0  0  0  0  0  1  0  0  0  0  0  0
  161.1610  207.5200  153.7480 C   0  0  0  0  0  2  0  0  0  0  0  0
  162.4190  205.4540  142.4910 O   0  0  0  0  0  0  0  0  0  0  0  0
  161.2070  205.6490  143.0730 C   0  0  2  0  0  3  0  0  0  0  0  0
  161.8860  206.7300  142.4010 N   0  0  0  0  0  0  0  0  0  0  0  0
  161.2940  206.8400  141.0800 C   0  0  0  0  0  2  0  0  0  0  0  0
  161.9700  207.9700  140.3150 C   0  0  2  0  0  3  0  0  0  0  0  0
  161.1890  208.2550  139.0400 C   0  0  2  0  0  3  0  0  0  0  0  0
  162.3310  206.1930  138.6920 O   0  0  0  0  0  1  0  0  0  0  0  0
  162.5320  207.5500  138.9590 C   0  0  2  0  0  3  0  0  0  0  0  0
  161.9800  210.0850  137.3870 C   0  0  0  0  0  2  0  0  0  0  0  0
  161.2660  209.7520  138.6890 C   0  0  0  0  0  0  0  0  0  0  0  0
  162.7080  210.2260  138.7130 C   0  0  0  0  0  2  0  0  0  0  0  0
  160.4630  211.0800  141.8380 C   0  0  0  0  0  3  0  0  0  0  0  0
  159.8010  213.1410  138.8710 N   0  0  0  0  0  2  0  0  0  0  0  0
  158.9140  210.0990  139.5520 C   0  0  0  0  0  1  0  0  0  0  0  0
  160.2380  210.7900  139.2320 C   0  0  2  0  0  0  0  0  0  0  0  0
  160.1740  211.9490  142.8150 C   0  0  0  0  0  3  0  0  0  0  0  0
  159.9730  211.8780  138.1650 C   0  0  0  0  0  2  0  0  0  0  0  0
  160.1910  212.9450  140.2110 C   0  0  0  0  0  0  0  0  0  0  0  0
  159.8810  213.7730  141.2060 C   0  0  0  0  0  3  0  0  0  0  0  0
  160.7490  211.5980  140.4470 C   0  0  1  0  0  3  0  0  0  0  0  0
  160.0090  213.3180  142.5280 O   0  0  0  0  0  0  0  0  0  0  0  0
  2  3  1  0  0  0  0
  2  1  1  0  0  0  0
  2  6  1  0  0  0  0
  4  6  1  0  0  0  0
  6  5  1  6  0  0  0
  8  7  1  0  0  0  0
  9  8  1  1  0  0  0
 10 11  1  0  0  0  0
 11 17  1  1  0  0  0
 11  9  1  0  0  0  0
 12 13  1  0  0  0  0
 13 14  1  1  0  0  0
 13  9  1  0  0  0  0
 14 16  1  0  0  0  0
 15  6  1  6  0  0  0
 15 10  1  0  0  0  0
 15 12  1  0  0  0  0
 16  7  1  0  0  0  0
 17 18  1  6  0  0  0
 17 19  1  0  0  0  0
 20 22  1  0  0  0  0
 21 20  1  0  0  0  0
 21 26  1  1  0  0  0
 23 20  1  0  0  0  0
 24 19  1  6  0  0  0
 24 23  1  0  0  0  0
 24 21  1  0  0  0  0
 25 26  1  0  0  0  0
 27 28  1  0  0  0  0
 28  2  1  1  0  0  0
 29 27  1  0  0  0  0
 29 28  1  0  0  0  0
 30 29  1  0  0  0  0
 31 30  1  1  0  0  0
 32 36  1  6  0  0  0
 32 31  1  0  0  0  0
 34 33  1  1  0  0  0
 34 32  1  0  0  0  0
 34 31  1  0  0  0  0
 35 36  1  0  0  0  0
 35 37  1  0  0  0  0
 36 37  1  0  0  0  0
 36 41  1  0  0  0  0
 38 42  2  0  0  0  0
 39 44  1  0  0  0  0
 41 40  1  1  0  0  0
 41 46  1  0  0  0  0
 43 39  1  0  0  0  0
 43 41  1  0  0  0  0
 44 46  1  0  0  0  0
 44 45  2  0  0  0  0
 45 47  1  0  0  0  0
 46 38  1  1  0  0  0
 47 42  1  0  0  0  0
M  END
>  <MODEL>
5

>  <REMARK>
 VINA RESULT:      -5.6      4.900      9.897
  Name = 
  11 active torsions:
  status: ('A' for Active; 'I' for Inactive)
    1  A    between atoms: C_1  and  C_7
    2  A    between atoms: C_1  and  C_47
    3  A    between atoms: C_7  and  C_24
    4  A    between atoms: C_11  and  C_41
    5  A    between atoms: C_14  and  C_40
    6  A    between atoms: C_15  and  C_23
    7  A    between atoms: C_15  and  C_28
    8  A    between atoms: C_20  and  C_21
    9  A    between atoms: C_20  and  C_22
   10  A    between atoms: N_26  and  C_40
   11  A    between atoms: C_28  and  C_38
                            x       y       z     vdW  Elec       q    Type
                         _______ _______ _______ _____ _____    ______ ____

>  <TORSDO>
F 11

$$$$
=
 OpenBabel11072414523D

 47 54  0  0  1  0  0  0  0  0999 V2000
  161.1340  210.4030  150.3710 F   0  0  0  0  0  0  0  0  0  0  0  0
  161.9510  209.4030  150.8880 C   0  0  0  0  0  0  0  0  0  0  0  0
  163.0100  210.0110  151.5420 F   0  0  0  0  0  0  0  0  0  0  0  0
  162.0570  207.8330  152.6820 O   0  0  0  0  0  1  0  0  0  0  0  0
  160.3200  207.6820  151.2480 F   0  0  0  0  0  0  0  0  0  0  0  0
  161.1530  208.5710  151.9110 C   0  0  2  0  0  0  0  0  0  0  0  0
  158.3230  211.4430  156.8030 C   0  0  0  0  0  2  0  0  0  0  0  0
  158.2630  211.9260  155.3460 C   0  0  0  0  0  2  0  0  0  0  0  0
  159.4610  211.4640  154.4970 C   0  0  2  0  0  3  0  0  0  0  0  0
  160.1760  210.7480  152.3010 O   0  0  0  0  0  0  0  0  0  0  0  0
  159.1210  211.3790  152.9950 C   0  0  2  0  0  3  0  0  0  0  0  0
  160.9200  209.5620  154.1130 O   0  0  0  0  0  0  0  0  0  0  0  0
  159.9310  210.0790  154.9670 C   0  0  1  0  0  3  0  0  0  0  0  0
  160.4560  210.1370  156.4070 C   0  0  0  0  0  2  0  0  0  0  0  0
  160.3180  209.4570  152.8460 C   0  0  2  0  0  3  0  0  0  0  0  0
  159.7620  211.2090  157.2600 C   0  0  0  0  0  2  0  0  0  0  0  0
  158.8880  212.7740  152.4030 C   0  0  1  0  0  3  0  0  0  0  0  0
  159.1380  213.7580  153.3650 O   0  0  0  0  0  1  0  0  0  0  0  0
  159.7990  213.0100  151.2070 C   0  0  0  0  0  2  0  0  0  0  0  0
  158.4750  213.3240  148.3260 N   0  0  0  0  0  0  0  0  0  0  0  0
  157.9000  213.4560  149.6810 C   0  0  1  0  0  3  0  0  0  0  0  0
  157.9930  214.3220  147.3740 C   0  0  0  0  0  1  0  0  0  0  0  0
  159.7290  213.8400  148.8580 C   0  0  0  0  0  2  0  0  0  0  0  0
  159.1740  214.0210  150.2570 C   0  0  2  0  0  3  0  0  0  0  0  0
  155.5300  213.8070  149.5970 O   0  0  0  0  0  1  0  0  0  0  0  0
  156.7450  214.4530  149.8320 C   0  0  0  0  0  2  0  0  0  0  0  0
  162.3880  209.1260  148.5670 O   0  0  0  0  0  0  0  0  0  0  0  0
  162.5370  208.5190  149.7740 C   0  0  2  0  0  3  0  0  0  0  0  0
  161.5200  208.0820  148.8490 N   0  0  0  0  0  0  0  0  0  0  0  0
  162.0450  206.9120  148.1710 C   0  0  0  0  0  2  0  0  0  0  0  0
  161.0230  205.7840  148.2430 C   0  0  2  0  0  3  0  0  0  0  0  0
  161.7480  204.4470  148.2770 C   0  0  2  0  0  3  0  0  0  0  0  0
  161.9450  205.2710  146.0500 O   0  0  0  0  0  1  0  0  0  0  0  0
  161.0160  204.8750  147.0170 C   0  0  2  0  0  3  0  0  0  0  0  0
  160.0700  204.0280  150.2050 C   0  0  0  0  0  2  0  0  0  0  0  0
  160.9580  203.4320  149.1240 C   0  0  0  0  0  0  0  0  0  0  0  0
  161.4340  203.4650  150.5660 C   0  0  0  0  0  2  0  0  0  0  0  0
  159.8140  202.0920  146.0870 C   0  0  0  0  0  3  0  0  0  0  0  0
  161.7820  199.9220  148.3030 N   0  0  0  0  0  2  0  0  0  0  0  0
  159.1350  201.6920  148.9090 C   0  0  0  0  0  1  0  0  0  0  0  0
  160.5970  202.0100  148.5980 C   0  0  2  0  0  0  0  0  0  0  0  0
  159.6920  201.3040  145.0110 C   0  0  0  0  0  3  0  0  0  0  0  0
  161.4830  200.9490  149.2930 C   0  0  0  0  0  2  0  0  0  0  0  0
  161.3760  200.4040  147.0420 C   0  0  0  0  0  0  0  0  0  0  0  0
  161.2080  199.6350  145.9700 C   0  0  0  0  0  3  0  0  0  0  0  0
  160.9010  201.8020  147.0970 C   0  0  1  0  0  3  0  0  0  0  0  0
  160.4780  200.1420  144.8830 O   0  0  0  0  0  0  0  0  0  0  0  0
  1  2  1  0  0  0  0
  2  3  1  0  0  0  0
  2  6  1  0  0  0  0
  6  5  1  6  0  0  0
  6  4  1  0  0  0  0
  7 16  1  0  0  0  0
  8  7  1  0  0  0  0
  9 13  1  0  0  0  0
  9  8  1  1  0  0  0
 10 15  1  0  0  0  0
 10 11  1  0  0  0  0
 11 17  1  6  0  0  0
 11  9  1  0  0  0  0
 12 13  1  0  0  0  0
 13 14  1  1  0  0  0
 14 16  1  0  0  0  0
 15  6  1  6  0  0  0
 15 12  1  0  0  0  0
 17 18  1  1  0  0  0
 19 17  1  0  0  0  0
 20 23  1  0  0  0  0
 20 21  1  0  0  0  0
 21 26  1  6  0  0  0
 21 24  1  0  0  0  0
 22 20  1  0  0  0  0
 23 24  1  0  0  0  0
 24 19  1  1  0  0  0
 25 26  1  0  0  0  0
 27 29  1  0  0  0  0
 27 28  1  0  0  0  0
 28  2  1  1  0  0  0
 29 28  1  0  0  0  0
 30 29  1  0  0  0  0
 31 30  1  6  0  0  0
 31 32  1  0  0  0  0
 32 36  1  1  0  0  0
 34 33  1  6  0  0  0
 34 31  1  0  0  0  0
 34 32  1  0  0  0  0
 35 37  1  0  0  0  0
 36 35  1  0  0  0  0
 36 37  1  0  0  0  0
 39 43  1  0  0  0  0
 41 40  1  1  0  0  0
 41 36  1  0  0  0  0
 41 43  1  0  0  0  0
 42 38  2  0  0  0  0
 44 46  1  0  0  0  0
 44 39  1  0  0  0  0
 45 44  2  0  0  0  0
 46 38  1  6  0  0  0
 46 41  1  0  0  0  0
 47 42  1  0  0  0  0
 47 45  1  0  0  0  0
M  END
>  <MODEL>
6

>  <REMARK>
 VINA RESULT:      -5.6      2.250      3.593
  Name = 
  11 active torsions:
  status: ('A' for Active; 'I' for Inactive)
    1  A    between atoms: C_1  and  C_7
    2  A    between atoms: C_1  and  C_47
    3  A    between atoms: C_7  and  C_24
    4  A    between atoms: C_11  and  C_41
    5  A    between atoms: C_14  and  C_40
    6  A    between atoms: C_15  and  C_23
    7  A    between atoms: C_15  and  C_28
    8  A    between atoms: C_20  and  C_21
    9  A    between atoms: C_20  and  C_22
   10  A    between atoms: N_26  and  C_40
   11  A    between atoms: C_28  and  C_38
                            x       y       z     vdW  Elec       q    Type
                         _______ _______ _______ _____ _____    ______ ____

>  <TORSDO>
F 11

$$$$
=
 OpenBabel11072414523D

 47 54  0  0  1  0  0  0  0  0999 V2000
  160.0580  207.1950  150.9510 F   0  0  0  0  0  0  0  0  0  0  0  0
  160.9280  207.5430  151.9780 C   0  0  0  0  0  0  0  0  0  0  0  0
  160.2690  207.3450  153.1810 F   0  0  0  0  0  0  0  0  0  0  0  0
  162.3530  206.0780  153.2100 O   0  0  0  0  0  1  0  0  0  0  0  0
  163.2890  207.3590  151.6040 F   0  0  0  0  0  0  0  0  0  0  0  0
  162.1620  206.6220  151.9360 C   0  0  2  0  0  0  0  0  0  0  0  0
  160.9680  201.1600  148.9460 C   0  0  0  0  0  2  0  0  0  0  0  0
  161.3320  202.4810  148.2510 C   0  0  0  0  0  2  0  0  0  0  0  0
  160.9790  203.7280  149.0810 C   0  0  2  0  0  3  0  0  0  0  0  0
  161.6470  205.9780  149.6620 O   0  0  0  0  0  0  0  0  0  0  0  0
  161.8650  204.9410  148.7300 C   0  0  2  0  0  3  0  0  0  0  0  0
  160.9810  204.5840  151.3520 O   0  0  0  0  0  0  0  0  0  0  0  0
  161.1440  203.4230  150.5780 C   0  0  1  0  0  3  0  0  0  0  0  0
  160.1550  202.3440  151.0310 C   0  0  0  0  0  2  0  0  0  0  0  0
  161.9870  205.4730  150.9320 C   0  0  2  0  0  3  0  0  0  0  0  0
  159.8080  201.3390  149.9230 C   0  0  0  0  0  2  0  0  0  0  0  0
  161.5580  205.4560  147.3190 C   0  0  1  0  0  3  0  0  0  0  0  0
  161.3900  206.8440  147.3330 O   0  0  0  0  0  1  0  0  0  0  0  0
  162.6880  205.1050  146.3610 C   0  0  0  0  0  2  0  0  0  0  0  0
  160.0800  203.6990  145.1890 N   0  0  0  0  0  0  0  0  0  0  0  0
  160.7910  204.9270  144.7790 C   0  0  1  0  0  3  0  0  0  0  0  0
  159.6030  202.8840  144.0740 C   0  0  0  0  0  1  0  0  0  0  0  0
  161.3660  203.1400  145.5830 C   0  0  0  0  0  2  0  0  0  0  0  0
  162.1430  204.3680  145.1470 C   0  0  2  0  0  3  0  0  0  0  0  0
  161.9080  205.9280  142.9080 O   0  0  0  0  0  1  0  0  0  0  0  0
  160.7340  205.2750  143.2860 C   0  0  0  0  0  2  0  0  0  0  0  0
  161.6090  209.4980  153.1470 O   0  0  0  0  0  0  0  0  0  0  0  0
  161.3260  209.0270  151.9040 C   0  0  2  0  0  3  0  0  0  0  0  0
  160.3870  209.8670  152.6060 N   0  0  0  0  0  0  0  0  0  0  0  0
  160.5530  211.2100  152.0830 C   0  0  0  0  0  2  0  0  0  0  0  0
  159.9740  212.2140  153.0720 C   0  0  2  0  0  3  0  0  0  0  0  0
  158.5340  211.8380  153.3880 C   0  0  2  0  0  3  0  0  0  0  0  0
  158.5360  212.7290  151.1780 O   0  0  0  0  0  1  0  0  0  0  0  0
  158.8220  213.0430  152.5100 C   0  0  2  0  0  3  0  0  0  0  0  0
  156.7260  212.5380  155.1060 C   0  0  0  0  0  2  0  0  0  0  0  0
  158.1890  212.2130  154.8410 C   0  0  0  0  0  0  0  0  0  0  0  0
  157.7340  213.6600  154.9180 C   0  0  0  0  0  2  0  0  0  0  0  0
  159.4130  209.1390  156.0150 C   0  0  0  0  0  3  0  0  0  0  0  0
  161.2950  212.1810  156.8460 N   0  0  0  0  0  2  0  0  0  0  0  0
  158.1590  211.4750  157.2600 C   0  0  0  0  0  1  0  0  0  0  0  0
  159.0520  211.7450  156.0510 C   0  0  2  0  0  0  0  0  0  0  0  0
  160.2380  208.1970  156.4920 C   0  0  0  0  0  3  0  0  0  0  0  0
  160.0670  212.8480  156.4330 C   0  0  0  0  0  2  0  0  0  0  0  0
  161.1850  210.8190  156.5000 C   0  0  0  0  0  0  0  0  0  0  0  0
  161.9650  209.8610  156.9930 C   0  0  0  0  0  3  0  0  0  0  0  0
  159.9510  210.5250  155.7440 C   0  0  1  0  0  3  0  0  0  0  0  0
  161.5570  208.5240  156.8630 O   0  0  0  0  0  0  0  0  0  0  0  0
  1  2  1  0  0  0  0
  2  3  1  0  0  0  0
  6  5  1  6  0  0  0
  6  2  1  0  0  0  0
  6  4  1  0  0  0  0
  7 16  1  0  0  0  0
  8  7  1  0  0  0  0
  9  8  1  6  0  0  0
  9 13  1  0  0  0  0
 10 15  1  0  0  0  0
 11 17  1  6  0  0  0
 11  9  1  0  0  0  0
 11 10  1  0  0  0  0
 13 14  1  1  0  0  0
 13 12  1  0  0  0  0
 15 12  1  0  0  0  0
 15  6  1  1  0  0  0
 16 14  1  0  0  0  0
 17 18  1  1  0  0  0
 19 17  1  0  0  0  0
 20 23  1  0  0  0  0
 21 26  1  6  0  0  0
 21 24  1  0  0  0  0
 21 20  1  0  0  0  0
 22 20  1  0  0  0  0
 24 23  1  0  0  0  0
 24 19  1  1  0  0  0
 25 26  1  0  0  0  0
 28  2  1  1  0  0  0
 28 29  1  0  0  0  0
 28 27  1  0  0  0  0
 29 27  1  0  0  0  0
 30 29  1  0  0  0  0
 31 30  1  6  0  0  0
 31 32  1  0  0  0  0
 32 36  1  1  0  0  0
 34 33  1  6  0  0  0
 34 31  1  0  0  0  0
 34 32  1  0  0  0  0
 36 37  1  0  0  0  0
 36 35  1  0  0  0  0
 36 41  1  0  0  0  0
 37 35  1  0  0  0  0
 38 42  2  0  0  0  0
 41 43  1  0  0  0  0
 41 40  1  1  0  0  0
 42 47  1  0  0  0  0
 43 39  1  0  0  0  0
 44 39  1  0  0  0  0
 44 45  2  0  0  0  0
 46 38  1  1  0  0  0
 46 41  1  0  0  0  0
 46 44  1  0  0  0  0
 47 45  1  0  0  0  0
M  END
>  <MODEL>
7

>  <REMARK>
 VINA RESULT:      -5.6      2.400      9.613
  Name = 
  11 active torsions:
  status: ('A' for Active; 'I' for Inactive)
    1  A    between atoms: C_1  and  C_7
    2  A    between atoms: C_1  and  C_47
    3  A    between atoms: C_7  and  C_24
    4  A    between atoms: C_11  and  C_41
    5  A    between atoms: C_14  and  C_40
    6  A    between atoms: C_15  and  C_23
    7  A    between atoms: C_15  and  C_28
    8  A    between atoms: C_20  and  C_21
    9  A    between atoms: C_20  and  C_22
   10  A    between atoms: N_26  and  C_40
   11  A    between atoms: C_28  and  C_38
                            x       y       z     vdW  Elec       q    Type
                         _______ _______ _______ _____ _____    ______ ____

>  <TORSDO>
F 11

$$$$
=
 OpenBabel11072414523D

 47 54  0  0  1  0  0  0  0  0999 V2000
  160.0860  206.3260  145.0260 F   0  0  0  0  0  0  0  0  0  0  0  0
  161.2170  205.6070  144.6570 C   0  0  0  0  0  0  0  0  0  0  0  0
  162.3310  206.3180  145.0750 F   0  0  0  0  0  0  0  0  0  0  0  0
  162.4280  203.6040  145.1190 O   0  0  0  0  0  1  0  0  0  0  0  0
  160.1900  203.4500  144.8590 F   0  0  0  0  0  0  0  0  0  0  0  0
  161.2090  204.2410  145.3690 C   0  0  2  0  0  0  0  0  0  0  0  0
  160.3230  203.4140  151.5930 C   0  0  0  0  0  2  0  0  0  0  0  0
  160.7640  204.7300  150.9350 C   0  0  0  0  0  2  0  0  0  0  0  0
  161.4760  204.5340  149.5850 C   0  0  2  0  0  3  0  0  0  0  0  0
  161.8220  205.4490  147.3730 O   0  0  0  0  0  0  0  0  0  0  0  0
  161.3450  205.7640  148.6640 C   0  0  2  0  0  3  0  0  0  0  0  0
  161.4030  203.2040  147.5550 O   0  0  0  0  0  0  0  0  0  0  0  0
  160.8850  203.3170  148.8550 C   0  0  1  0  0  3  0  0  0  0  0  0
  161.1450  202.0260  149.6400 C   0  0  0  0  0  2  0  0  0  0  0  0
  161.0330  204.3870  146.8880 C   0  0  2  0  0  3  0  0  0  0  0  0
  161.2060  202.2450  151.1590 C   0  0  0  0  0  2  0  0  0  0  0  0
  162.1370  206.9530  149.2190 C   0  0  1  0  0  3  0  0  0  0  0  0
  162.7030  207.6910  148.1750 O   0  0  0  0  0  1  0  0  0  0  0  0
  161.2350  207.8660  150.0370 C   0  0  0  0  0  2  0  0  0  0  0  0
  161.1600  209.9320  152.4610 N   0  0  0  0  0  0  0  0  0  0  0  0
  160.8310  208.4930  152.3980 C   0  0  1  0  0  3  0  0  0  0  0  0
  161.8780  210.3280  153.6700 C   0  0  0  0  0  1  0  0  0  0  0  0
  162.1740  209.6990  151.4420 C   0  0  0  0  0  2  0  0  0  0  0  0
  161.8930  208.2100  151.3650 C   0  0  2  0  0  3  0  0  0  0  0  0
  161.9390  206.6160  153.3960 O   0  0  0  0  0  1  0  0  0  0  0  0
  161.0870  207.6840  153.6760 C   0  0  0  0  0  2  0  0  0  0  0  0
  162.6150  205.3930  142.7460 O   0  0  0  0  0  0  0  0  0  0  0  0
  161.3130  205.4480  143.1300 C   0  0  2  0  0  3  0  0  0  0  0  0
  161.9490  206.5870  142.5140 N   0  0  0  0  0  0  0  0  0  0  0  0
  161.5600  206.5790  141.1160 C   0  0  0  0  0  2  0  0  0  0  0  0
  162.1230  207.8160  140.4270 C   0  0  2  0  0  3  0  0  0  0  0  0
  161.1980  208.2270  139.2910 C   0  0  2  0  0  3  0  0  0  0  0  0
  162.3330  206.2610  138.5670 O   0  0  0  0  0  1  0  0  0  0  0  0
  162.5370  207.5820  138.9760 C   0  0  2  0  0  3  0  0  0  0  0  0
  162.5730  210.3880  138.9080 C   0  0  0  0  0  2  0  0  0  0  0  0
  161.2050  209.7570  139.1220 C   0  0  0  0  0  0  0  0  0  0  0  0
  161.9310  210.4120  140.2840 C   0  0  0  0  0  2  0  0  0  0  0  0
  158.2630  208.9590  137.3800 C   0  0  0  0  0  3  0  0  0  0  0  0
  158.2040  211.8530  139.6400 N   0  0  0  0  0  2  0  0  0  0  0  0
  160.2360  211.1190  137.2240 C   0  0  0  0  0  1  0  0  0  0  0  0
  159.9610  210.5460  138.6130 C   0  0  2  0  0  0  0  0  0  0  0  0
  156.9730  208.8910  137.0290 C   0  0  0  0  0  3  0  0  0  0  0  0
  159.6540  211.7210  139.5710 C   0  0  0  0  0  2  0  0  0  0  0  0
  157.6360  210.7190  139.0250 C   0  0  0  0  0  0  0  0  0  0  0  0
  156.3680  210.6430  138.6300 C   0  0  0  0  0  3  0  0  0  0  0  0
  158.6520  209.7250  138.6230 C   0  0  1  0  0  3  0  0  0  0  0  0
  156.0000  209.6300  137.7300 O   0  0  0  0  0  0  0  0  0  0  0  0
  2  1  1  0  0  0  0
  2  3  1  0  0  0  0
  2  6  1  0  0  0  0
  4  6  1  0  0  0  0
  6  5  1  6  0  0  0
  8  7  1  0  0  0  0
  9  8  1  1  0  0  0
 10 11  1  0  0  0  0
 11 17  1  1  0  0  0
 11  9  1  0  0  0  0
 12 13  1  0  0  0  0
 13  9  1  0  0  0  0
 13 14  1  1  0  0  0
 14 16  1  0  0  0  0
 15  6  1  6  0  0  0
 15 10  1  0  0  0  0
 15 12  1  0  0  0  0
 16  7  1  0  0  0  0
 17 18  1  6  0  0  0
 17 19  1  0  0  0  0
 20 22  1  0  0  0  0
 21 20  1  0  0  0  0
 21 26  1  1  0  0  0
 23 20  1  0  0  0  0
 24 19  1  6  0  0  0
 24 23  1  0  0  0  0
 24 21  1  0  0  0  0
 25 26  1  0  0  0  0
 27 28  1  0  0  0  0
 28  2  1  1  0  0  0
 29 27  1  0  0  0  0
 29 28  1  0  0  0  0
 30 29  1  0  0  0  0
 31 30  1  1  0  0  0
 32 36  1  6  0  0  0
 32 31  1  0  0  0  0
 34 33  1  1  0  0  0
 34 32  1  0  0  0  0
 34 31  1  0  0  0  0
 35 36  1  0  0  0  0
 35 37  1  0  0  0  0
 36 37  1  0  0  0  0
 41 40  1  6  0  0  0
 41 46  1  0  0  0  0
 41 36  1  0  0  0  0
 41 43  1  0  0  0  0
 42 38  2  0  0  0  0
 42 47  1  0  0  0  0
 43 39  1  0  0  0  0
 44 39  1  0  0  0  0
 45 44  2  0  0  0  0
 46 38  1  6  0  0  0
 46 44  1  0  0  0  0
 47 45  1  0  0  0  0
M  END
>  <MODEL>
8

>  <REMARK>
 VINA RESULT:      -5.5      5.279      9.891
  Name = 
  11 active torsions:
  status: ('A' for Active; 'I' for Inactive)
    1  A    between atoms: C_1  and  C_7
    2  A    between atoms: C_1  and  C_47
    3  A    between atoms: C_7  and  C_24
    4  A    between atoms: C_11  and  C_41
    5  A    between atoms: C_14  and  C_40
    6  A    between atoms: C_15  and  C_23
    7  A    between atoms: C_15  and  C_28
    8  A    between atoms: C_20  and  C_21
    9  A    between atoms: C_20  and  C_22
   10  A    between atoms: N_26  and  C_40
   11  A    between atoms: C_28  and  C_38
                            x       y       z     vdW  Elec       q    Type
                         _______ _______ _______ _____ _____    ______ ____

>  <TORSDO>
F 11

$$$$
=
 OpenBabel11072414523D

 47 54  0  0  1  0  0  0  0  0999 V2000
  160.9570  209.8320  150.0220 F   0  0  0  0  0  0  0  0  0  0  0  0
  161.9270  208.8800  150.3180 C   0  0  0  0  0  0  0  0  0  0  0  0
  162.9920  209.5300  150.9230 F   0  0  0  0  0  0  0  0  0  0  0  0
  162.3640  206.9620  151.6680 O   0  0  0  0  0  1  0  0  0  0  0  0
  160.3280  207.1360  150.7070 F   0  0  0  0  0  0  0  0  0  0  0  0
  161.3480  207.8550  151.3120 C   0  0  2  0  0  0  0  0  0  0  0  0
  159.9580  209.6400  157.2350 C   0  0  0  0  0  2  0  0  0  0  0  0
  159.5720  210.4190  155.9690 C   0  0  0  0  0  2  0  0  0  0  0  0
  160.4990  210.1430  154.7720 C   0  0  2  0  0  3  0  0  0  0  0  0
  160.6170  209.9040  152.3680 O   0  0  0  0  0  0  0  0  0  0  0  0
  159.8000  210.3770  153.4170 C   0  0  2  0  0  3  0  0  0  0  0  0
  161.7130  208.3610  153.6580 O   0  0  0  0  0  0  0  0  0  0  0  0
  160.9930  208.6890  154.8180 C   0  0  1  0  0  3  0  0  0  0  0  0
  161.8540  208.4400  156.0610 C   0  0  0  0  0  2  0  0  0  0  0  0
  160.8160  208.5270  152.5870 C   0  0  2  0  0  3  0  0  0  0  0  0
  161.4500  209.3100  157.2600 C   0  0  0  0  0  2  0  0  0  0  0  0
  159.5080  211.8660  153.1990 C   0  0  1  0  0  3  0  0  0  0  0  0
  160.1460  212.3230  152.0410 O   0  0  0  0  0  1  0  0  0  0  0  0
  158.0120  212.1080  153.0660 C   0  0  0  0  0  2  0  0  0  0  0  0
  155.4090  213.3990  154.3740 N   0  0  0  0  0  0  0  0  0  0  0  0
  156.4380  212.5010  154.9380 C   0  0  1  0  0  3  0  0  0  0  0  0
  154.9700  214.4520  155.2870 C   0  0  0  0  0  1  0  0  0  0  0  0
  156.4460  213.9890  153.5380 C   0  0  0  0  0  2  0  0  0  0  0  0
  157.5420  213.1110  154.1090 C   0  0  2  0  0  3  0  0  0  0  0  0
  156.3060  211.5240  157.1230 O   0  0  0  0  0  1  0  0  0  0  0  0
  156.7290  212.6620  156.4350 C   0  0  0  0  0  2  0  0  0  0  0  0
  162.0380  208.8700  147.9440 O   0  0  0  0  0  0  0  0  0  0  0  0
  162.4580  208.1980  149.0470 C   0  0  2  0  0  3  0  0  0  0  0  0
  161.3860  207.6810  148.2310 N   0  0  0  0  0  0  0  0  0  0  0  0
  161.9670  206.6710  147.3670 C   0  0  0  0  0  2  0  0  0  0  0  0
  161.1600  205.3840  147.4800 C   0  0  2  0  0  3  0  0  0  0  0  0
  161.9780  204.3390  148.2260 C   0  0  2  0  0  3  0  0  0  0  0  0
  162.9480  204.5430  146.0600 O   0  0  0  0  0  1  0  0  0  0  0  0
  161.7690  204.2030  146.7280 C   0  0  2  0  0  3  0  0  0  0  0  0
  160.1170  204.1420  150.0170 C   0  0  0  0  0  2  0  0  0  0  0  0
  161.0540  203.4280  149.0540 C   0  0  0  0  0  0  0  0  0  0  0  0
  161.4050  203.5210  150.5290 C   0  0  0  0  0  2  0  0  0  0  0  0
  160.0280  201.9850  146.0220 C   0  0  0  0  0  3  0  0  0  0  0  0
  161.7290  199.8400  148.4700 N   0  0  0  0  0  2  0  0  0  0  0  0
  159.1530  201.7770  148.8100 C   0  0  0  0  0  1  0  0  0  0  0  0
  160.6470  202.0000  148.5800 C   0  0  2  0  0  0  0  0  0  0  0  0
  159.9300  201.1470  144.9820 C   0  0  0  0  0  3  0  0  0  0  0  0
  161.4260  200.9340  149.3840 C   0  0  0  0  0  2  0  0  0  0  0  0
  161.4310  200.2730  147.1620 C   0  0  0  0  0  0  0  0  0  0  0  0
  161.2870  199.4560  146.1220 C   0  0  0  0  0  3  0  0  0  0  0  0
  161.0320  201.6950  147.1140 C   0  0  1  0  0  3  0  0  0  0  0  0
  160.6550  199.9400  144.9650 O   0  0  0  0  0  0  0  0  0  0  0  0
  1  2  1  0  0  0  0
  2  3  1  0  0  0  0
  2  6  1  0  0  0  0
  6  5  1  6  0  0  0
  6  4  1  0  0  0  0
  7 16  1  0  0  0  0
  8  7  1  0  0  0  0
  9 13  1  0  0  0  0
  9  8  1  1  0  0  0
 10 15  1  0  0  0  0
 10 11  1  0  0  0  0
 11 17  1  6  0  0  0
 11  9  1  0  0  0  0
 12 13  1  0  0  0  0
 13 14  1  1  0  0  0
 14 16  1  0  0  0  0
 15  6  1  6  0  0  0
 15 12  1  0  0  0  0
 17 18  1  6  0  0  0
 19 17  1  0  0  0  0
 20 21  1  0  0  0  0
 20 22  1  0  0  0  0
 21 26  1  1  0  0  0
 23 24  1  0  0  0  0
 23 20  1  0  0  0  0
 24 19  1  6  0  0  0
 24 21  1  0  0  0  0
 26 25  1  0  0  0  0
 27 29  1  0  0  0  0
 27 28  1  0  0  0  0
 28  2  1  1  0  0  0
 29 28  1  0  0  0  0
 30 29  1  0  0  0  0
 31 30  1  6  0  0  0
 31 32  1  0  0  0  0
 32 36  1  1  0  0  0
 34 33  1  6  0  0  0
 34 31  1  0  0  0  0
 34 32  1  0  0  0  0
 35 37  1  0  0  0  0
 36 35  1  0  0  0  0
 36 37  1  0  0  0  0
 39 43  1  0  0  0  0
 41 40  1  1  0  0  0
 41 36  1  0  0  0  0
 41 43  1  0  0  0  0
 42 38  2  0  0  0  0
 44 39  1  0  0  0  0
 45 44  2  0  0  0  0
 46 38  1  6  0  0  0
 46 44  1  0  0  0  0
 46 41  1  0  0  0  0
 47 42  1  0  0  0  0
 47 45  1  0  0  0  0
M  END
>  <MODEL>
9

>  <REMARK>
 VINA RESULT:      -5.5      2.625      4.951
  Name = 
  11 active torsions:
  status: ('A' for Active; 'I' for Inactive)
    1  A    between atoms: C_1  and  C_7
    2  A    between atoms: C_1  and  C_47
    3  A    between atoms: C_7  and  C_24
    4  A    between atoms: C_11  and  C_41
    5  A    between atoms: C_14  and  C_40
    6  A    between atoms: C_15  and  C_23
    7  A    between atoms: C_15  and  C_28
    8  A    between atoms: C_20  and  C_21
    9  A    between atoms: C_20  and  C_22
   10  A    between atoms: N_26  and  C_40
   11  A    between atoms: C_28  and  C_38
                            x       y       z     vdW  Elec       q    Type
                         _______ _______ _______ _____ _____    ______ ____

>  <TORSDO>
F 11

$$$$
