=
 OpenBabel11072414423D

 60 63  0  0  1  0  0  0  0  0999 V2000
  160.1400  206.2300  152.4130 O   0  0  0  0  0  0  0  0  0  0  0  0
  160.9170  207.4030  152.9400 S   0  0  0  0  0  0  0  0  0  0  0  0
  161.5480  207.0060  154.2460 O   0  0  0  0  0  0  0  0  0  0  0  0
  160.8780  211.2770  155.3890 C   0  0  0  0  0  0  0  0  0  0  0  0
  161.2400  209.9630  154.7950 C   0  0  2  0  0  3  0  0  0  0  0  0
  160.0210  209.7090  153.9700 C   0  0  0  0  0  0  0  0  0  0  0  0
  159.8170  208.7050  153.1830 N   0  0  0  0  0  0  0  0  0  0  0  0
  159.1020  210.8890  154.0320 C   0  0  1  0  0  3  0  0  0  0  0  0
  162.5510  209.5320  156.8590 C   0  0  0  0  0  2  0  0  0  0  0  0
  161.4240  209.0000  155.9630 C   0  0  0  0  0  2  0  0  0  0  0  0
  162.3100  210.9720  157.2580 C   0  0  0  0  0  3  0  0  0  0  0  0
  159.7420  211.7590  155.0060 N   0  0  0  0  0  0  0  0  0  0  0  0
  161.5430  211.7610  156.5600 N   0  0  0  0  0  0  0  0  0  0  0  0
  159.0320  211.6030  152.6880 C   0  0  0  0  0  2  0  0  0  0  0  0
  160.2250  212.2880  152.4460 O   0  0  0  0  0  0  0  0  0  0  0  0
  160.4300  212.1590  151.0710 C   0  0  0  0  0  2  0  0  0  0  0  0
  159.6380  213.2140  150.3080 C   0  0  1  0  0  3  0  0  0  0  0  0
  160.3770  214.3950  150.2360 O   0  0  0  0  0  1  0  0  0  0  0  0
  159.2810  212.7490  148.8940 C   0  0  0  0  0  2  0  0  0  0  0  0
  159.9320  213.5950  147.7910 C   0  0  2  0  0  3  0  0  0  0  0  0
  158.9810  214.4330  147.1990 O   0  0  0  0  0  0  0  0  0  0  0  0
  157.7890  214.1610  147.8750 C   0  0  0  0  0  2  0  0  0  0  0  0
  157.0820  212.9880  147.2210 C   0  0  0  0  0  2  0  0  0  0  0  0
  156.7450  213.3120  145.9070 O   0  0  0  0  0  1  0  0  0  0  0  0
  160.6290  212.7310  146.7360 C   0  0  2  0  0  3  0  0  0  0  0  0
  162.4450  214.0380  147.5770 O   0  0  0  0  0  1  0  0  0  0  0  0
  162.1390  212.8940  146.8390 C   0  0  0  0  0  2  0  0  0  0  0  0
  160.2080  213.1030  145.4540 O   0  0  0  0  0  0  0  0  0  0  0  0
  161.0260  212.3760  144.5840 C   0  0  0  0  0  2  0  0  0  0  0  0
  161.1670  211.5290  142.3570 O   0  0  0  0  0  1  0  0  0  0  0  0
  159.9380  213.5360  142.6900 C   0  0  0  0  0  1  0  0  0  0  0  0
  160.3210  212.1840  143.2540 C   0  0  2  0  0  3  0  0  0  0  0  0
  163.3220  207.5900  149.0220 C   0  0  2  0  0  3  0  0  0  0  0  0
  164.0210  207.0880  150.2900 C   0  0  0  0  0  2  0  0  0  0  0  0
  162.1560  208.4900  149.3360 C   0  0  0  0  0  0  0  0  0  0  0  0
  161.5350  208.4450  150.5900 O   0  0  0  0  0  0  0  0  0  0  0  0
  162.1570  207.8580  151.7330 C   0  0  2  0  0  3  0  0  0  0  0  0
  161.6910  209.2410  148.4390 O   0  0  0  0  0  0  0  0  0  0  0  0
  163.0090  206.6550  151.3430 C   0  0  0  0  0  2  0  0  0  0  0  0
  162.9990  206.5610  146.8780 C   0  0  0  0  0  3  0  0  0  0  0  0
  162.9280  206.4930  148.1630 N   0  0  0  0  0  0  0  0  0  0  0  0
  161.2900  205.1290  144.0780 C   0  0  0  0  0  0  0  0  0  0  0  0
  161.1480  204.8170  146.3620 C   0  0  2  0  0  0  0  0  0  0  0  0
  160.9480  205.0630  142.8690 O   0  0  0  0  0  0  0  0  0  0  0  0
  162.4640  205.8800  144.5630 C   0  0  0  0  0  2  0  0  0  0  0  0
  160.5890  204.5110  145.0900 O   0  0  0  0  0  0  0  0  0  0  0  0
  163.5520  204.4150  146.0620 O   0  0  0  0  0  1  0  0  0  0  0  0
  162.5670  205.4100  146.0150 C   0  0  1  0  0  0  0  0  0  0  0  0
  161.6640  203.6070  148.3810 O   0  0  0  0  0  0  0  0  0  0  0  0
  160.8300  202.3010  146.6320 N   0  0  0  0  0  2  0  0  0  0  0  0
  161.2220  203.5570  147.1980 C   0  0  0  0  0  0  0  0  0  0  0  0
  160.9550  201.0400  147.3460 C   0  0  0  0  0  2  0  0  0  0  0  0
  160.4220  200.9080  149.7290 C   0  0  0  0  0  3  0  0  0  0  0  0
  161.2700  201.2980  148.7800 C   0  0  0  0  0  3  0  0  0  0  0  0
  160.7200  201.1570  151.1740 C   0  0  0  0  0  2  0  0  0  0  0  0
  161.0820  203.4960  150.5750 N   0  0  0  0  0  1  0  0  0  0  0  0
  161.6020  202.3850  151.3560 C   0  0  0  0  0  2  0  0  0  0  0  0
  160.1900  205.9220  148.4270 O   0  0  0  0  0  1  0  0  0  0  0  0
  159.5650  206.6360  146.3480 O   0  0  0  0  0  0  0  0  0  0  0  0
  160.2400  205.8270  147.0400 C   0  0  0  0  0  0  0  0  0  0  0  0
  1  2  2  0  0  0  0
  2  7  1  0  0  0  0
  2  3  2  0  0  0  0
  4 13  1  0  0  0  0
  5  4  1  0  0  0  0
  5 10  1  1  0  0  0
  6  8  1  0  0  0  0
  6  5  1  0  0  0  0
  7  6  2  0  0  0  0
  8 14  1  6  0  0  0
  8 12  1  0  0  0  0
  9 11  1  0  0  0  0
 10  9  1  0  0  0  0
 12  4  2  0  0  0  0
 13 11  2  0  0  0  0
 15 14  1  0  0  0  0
 16 15  1  0  0  0  0
 17 18  1  6  0  0  0
 17 16  1  0  0  0  0
 19 17  1  0  0  0  0
 20 19  1  1  0  0  0
 21 20  1  0  0  0  0
 21 22  1  0  0  0  0
 23 22  1  0  0  0  0
 24 23  1  0  0  0  0
 25 27  1  6  0  0  0
 25 20  1  0  0  0  0
 27 26  1  0  0  0  0
 28 25  1  0  0  0  0
 29 28  1  0  0  0  0
 30 32  1  0  0  0  0
 32 31  1  6  0  0  0
 32 29  1  0  0  0  0
 33 41  1  1  0  0  0
 33 35  1  0  0  0  0
 33 34  1  0  0  0  0
 34 39  1  0  0  0  0
 35 36  1  0  0  0  0
 36 37  1  0  0  0  0
 37  2  1  1  0  0  0
 38 35  2  0  0  0  0
 39 37  1  0  0  0  0
 40 41  2  0  0  0  0
 42 45  1  0  0  0  0
 42 46  1  0  0  0  0
 43 60  1  1  0  0  0
 43 51  1  0  0  0  0
 44 42  2  0  0  0  0
 45 48  1  0  0  0  0
 46 43  1  0  0  0  0
 48 47  1  1  0  0  0
 48 43  1  0  0  0  0
 48 40  1  0  0  0  0
 50 51  1  0  0  0  0
 50 52  1  0  0  0  0
 51 49  2  0  0  0  0
 52 54  1  0  0  0  0
 53 55  1  0  0  0  0
 54 53  2  0  0  0  0
 55 57  1  0  0  0  0
 56 57  1  0  0  0  0
 59 60  2  0  0  0  0
 60 58  1  0  0  0  0
M  END
>  <MODEL>
1

>  <REMARK>
 VINA RESULT:      -1.2      0.000      0.000
  Name = 
  24 active torsions:
  status: ('A' for Active; 'I' for Inactive)
    1  A    between atoms: C_3  and  C_26
    2  A    between atoms: C_3  and  C_56
    3  A    between atoms: C_4  and  N_19
    4  A    between atoms: C_5  and  C_48
    5  A    between atoms: C_6  and  C_22
    6  A    between atoms: C_6  and  C_44
    7  A    between atoms: C_7  and  O_50
    8  A    between atoms: C_7  and  C_51
    9  A    between atoms: C_11  and  C_39
   10  A    between atoms: N_17  and  S_46
   11  A    between atoms: C_18  and  C_47
   12  A    between atoms: C_18  and  C_59
   13  A    between atoms: C_24  and  C_53
   14  A    between atoms: C_26  and  O_43
   15  A    between atoms: C_31  and  S_46
   16  A    between atoms: N_32  and  C_53
   17  A    between atoms: C_35  and  C_41
   18  A    between atoms: C_41  and  O_43
   19  A    between atoms: O_45  and  C_48
   20  A    between atoms: O_45  and  C_49
   21  A    between atoms: C_49  and  C_55
   22  A    between atoms: C_49  and  C_56
   23  A    between atoms: O_50  and  C_55
   24  A    between atoms: C_55  and  C_58
                            x       y       z     vdW  Elec       q    Type
                         _______ _______ _______ _____ _____    ______ ____

>  <TORSDO>
F 24

$$$$
=
 OpenBabel11072414423D

 60 63  0  0  1  0  0  0  0  0999 V2000
  163.4250  209.6630  151.3820 O   0  0  0  0  0  0  0  0  0  0  0  0
  162.0970  209.7680  150.6870 S   0  0  0  0  0  0  0  0  0  0  0  0
  162.3440  209.9060  149.2100 O   0  0  0  0  0  0  0  0  0  0  0  0
  160.1910  213.5170  148.8650 C   0  0  0  0  0  0  0  0  0  0  0  0
  160.9170  212.2360  149.0690 C   0  0  2  0  0  3  0  0  0  0  0  0
  160.8490  212.1360  150.5570 C   0  0  0  0  0  0  0  0  0  0  0  0
  161.2900  211.1660  151.2870 N   0  0  0  0  0  0  0  0  0  0  0  0
  160.0220  213.2550  151.1120 C   0  0  1  0  0  3  0  0  0  0  0  0
  162.2100  212.7870  147.0220 C   0  0  0  0  0  2  0  0  0  0  0  0
  162.3220  212.4470  148.5140 C   0  0  0  0  0  2  0  0  0  0  0  0
  161.2570  213.9400  146.7860 C   0  0  0  0  0  3  0  0  0  0  0  0
  159.7350  214.0690  149.9410 N   0  0  0  0  0  0  0  0  0  0  0  0
  160.3270  214.2510  147.6440 N   0  0  0  0  0  0  0  0  0  0  0  0
  158.7150  212.7350  151.6960 C   0  0  0  0  0  2  0  0  0  0  0  0
  158.1870  213.6640  152.5950 O   0  0  0  0  0  0  0  0  0  0  0  0
  157.0910  213.0160  153.1660 C   0  0  0  0  0  2  0  0  0  0  0  0
  156.5380  213.8220  154.3350 C   0  0  1  0  0  3  0  0  0  0  0  0
  155.1680  213.5870  154.4590 O   0  0  0  0  0  1  0  0  0  0  0  0
  157.2360  213.4760  155.6510 C   0  0  0  0  0  2  0  0  0  0  0  0
  157.3800  211.9660  155.8860 C   0  0  2  0  0  3  0  0  0  0  0  0
  156.6240  211.5750  156.9970 O   0  0  0  0  0  0  0  0  0  0  0  0
  155.3430  211.3350  156.4950 C   0  0  0  0  0  2  0  0  0  0  0  0
  155.4140  210.3310  155.3590 C   0  0  0  0  0  2  0  0  0  0  0  0
  154.4680  209.3250  155.5580 O   0  0  0  0  0  1  0  0  0  0  0  0
  158.8430  211.5430  156.0470 C   0  0  2  0  0  3  0  0  0  0  0  0
  160.8070  211.9560  154.7480 O   0  0  0  0  0  1  0  0  0  0  0  0
  159.7620  212.5860  155.4250 C   0  0  0  0  0  2  0  0  0  0  0  0
  159.0590  210.3060  155.4270 O   0  0  0  0  0  0  0  0  0  0  0  0
  159.4290  209.4460  156.4640 C   0  0  0  0  0  2  0  0  0  0  0  0
  160.7530  207.4970  156.8440 O   0  0  0  0  0  1  0  0  0  0  0  0
  160.8180  208.4580  154.6710 C   0  0  0  0  0  1  0  0  0  0  0  0
  159.9730  208.1510  155.8890 C   0  0  2  0  0  3  0  0  0  0  0  0
  160.6630  205.3960  150.7020 C   0  0  2  0  0  3  0  0  0  0  0  0
  159.7260  206.4750  150.1460 C   0  0  0  0  0  2  0  0  0  0  0  0
  161.6540  205.9590  151.6860 C   0  0  0  0  0  0  0  0  0  0  0  0
  161.9680  207.3230  151.6850 O   0  0  0  0  0  0  0  0  0  0  0  0
  161.1420  208.2990  151.0500 C   0  0  2  0  0  3  0  0  0  0  0  0
  162.2590  205.1820  152.4720 O   0  0  0  0  0  0  0  0  0  0  0  0
  160.4940  207.7400  149.7880 C   0  0  0  0  0  2  0  0  0  0  0  0
  161.1200  204.9280  148.3930 C   0  0  0  0  0  3  0  0  0  0  0  0
  161.3240  204.6690  149.6390 N   0  0  0  0  0  0  0  0  0  0  0  0
  163.7330  204.3850  146.0080 C   0  0  0  0  0  0  0  0  0  0  0  0
  161.4370  204.5700  145.8430 C   0  0  2  0  0  0  0  0  0  0  0  0
  164.9310  204.3520  145.6230 O   0  0  0  0  0  0  0  0  0  0  0  0
  163.3210  204.3560  147.4250 C   0  0  0  0  0  2  0  0  0  0  0  0
  162.6690  204.4660  145.1380 O   0  0  0  0  0  0  0  0  0  0  0  0
  161.5650  202.7800  147.5190 O   0  0  0  0  0  1  0  0  0  0  0  0
  161.8100  204.1430  147.3140 C   0  0  1  0  0  0  0  0  0  0  0  0
  159.4040  204.1480  144.6190 O   0  0  0  0  0  0  0  0  0  0  0  0
  160.5610  202.2360  145.3030 N   0  0  0  0  0  2  0  0  0  0  0  0
  160.4110  203.6570  145.2050 C   0  0  0  0  0  0  0  0  0  0  0  0
  159.5720  201.3010  144.7910 C   0  0  0  0  0  2  0  0  0  0  0  0
  160.9420  199.6530  145.9690 C   0  0  0  0  0  3  0  0  0  0  0  0
  160.0160  199.9010  145.0450 C   0  0  0  0  0  3  0  0  0  0  0  0
  161.4010  198.2540  146.2390 C   0  0  0  0  0  2  0  0  0  0  0  0
  161.4040  197.7130  143.8580 N   0  0  0  0  0  1  0  0  0  0  0  0
  162.2050  197.6980  145.0720 C   0  0  0  0  0  2  0  0  0  0  0  0
  159.8540  206.3490  144.9850 O   0  0  0  0  0  0  0  0  0  0  0  0
  161.5430  206.9080  146.4200 O   0  0  0  0  0  1  0  0  0  0  0  0
  160.9660  206.0100  145.7510 C   0  0  0  0  0  0  0  0  0  0  0  0
  2  7  1  0  0  0  0
  2  1  2  0  0  0  0
  3  2  2  0  0  0  0
  4  5  1  0  0  0  0
  4 12  2  0  0  0  0
  5 10  1  1  0  0  0
  5  6  1  0  0  0  0
  6  8  1  0  0  0  0
  6  7  2  0  0  0  0
  8 14  1  6  0  0  0
  9 10  1  0  0  0  0
 11  9  1  0  0  0  0
 11 13  2  0  0  0  0
 12  8  1  0  0  0  0
 13  4  1  0  0  0  0
 14 15  1  0  0  0  0
 15 16  1  0  0  0  0
 16 17  1  0  0  0  0
 17 18  1  1  0  0  0
 17 19  1  0  0  0  0
 20 19  1  1  0  0  0
 20 25  1  0  0  0  0
 20 21  1  0  0  0  0
 22 21  1  0  0  0  0
 23 24  1  0  0  0  0
 23 22  1  0  0  0  0
 25 27  1  6  0  0  0
 26 27  1  0  0  0  0
 28 25  1  0  0  0  0
 28 29  1  0  0  0  0
 32 31  1  6  0  0  0
 32 29  1  0  0  0  0
 32 30  1  0  0  0  0
 33 41  1  6  0  0  0
 33 35  1  0  0  0  0
 34 33  1  0  0  0  0
 35 38  2  0  0  0  0
 36 35  1  0  0  0  0
 37  2  1  6  0  0  0
 37 36  1  0  0  0  0
 39 34  1  0  0  0  0
 39 37  1  0  0  0  0
 40 41  2  0  0  0  0
 42 45  1  0  0  0  0
 43 51  1  6  0  0  0
 43 48  1  0  0  0  0
 44 42  2  0  0  0  0
 46 43  1  0  0  0  0
 46 42  1  0  0  0  0
 48 45  1  0  0  0  0
 48 47  1  1  0  0  0
 48 40  1  0  0  0  0
 49 51  2  0  0  0  0
 51 50  1  0  0  0  0
 52 54  1  0  0  0  0
 52 50  1  0  0  0  0
 53 55  1  0  0  0  0
 54 53  2  0  0  0  0
 56 57  1  0  0  0  0
 57 55  1  0  0  0  0
 58 60  2  0  0  0  0
 60 43  1  0  0  0  0
 60 59  1  0  0  0  0
M  END
>  <MODEL>
2

>  <REMARK>
 VINA RESULT:      -0.5      2.949      6.732
  Name = 
  24 active torsions:
  status: ('A' for Active; 'I' for Inactive)
    1  A    between atoms: C_3  and  C_26
    2  A    between atoms: C_3  and  C_56
    3  A    between atoms: C_4  and  N_19
    4  A    between atoms: C_5  and  C_48
    5  A    between atoms: C_6  and  C_22
    6  A    between atoms: C_6  and  C_44
    7  A    between atoms: C_7  and  O_50
    8  A    between atoms: C_7  and  C_51
    9  A    between atoms: C_11  and  C_39
   10  A    between atoms: N_17  and  S_46
   11  A    between atoms: C_18  and  C_47
   12  A    between atoms: C_18  and  C_59
   13  A    between atoms: C_24  and  C_53
   14  A    between atoms: C_26  and  O_43
   15  A    between atoms: C_31  and  S_46
   16  A    between atoms: N_32  and  C_53
   17  A    between atoms: C_35  and  C_41
   18  A    between atoms: C_41  and  O_43
   19  A    between atoms: O_45  and  C_48
   20  A    between atoms: O_45  and  C_49
   21  A    between atoms: C_49  and  C_55
   22  A    between atoms: C_49  and  C_56
   23  A    between atoms: O_50  and  C_55
   24  A    between atoms: C_55  and  C_58
                            x       y       z     vdW  Elec       q    Type
                         _______ _______ _______ _____ _____    ______ ____

>  <TORSDO>
F 24

$$$$
=
 OpenBabel11072414423D

 60 63  0  0  1  0  0  0  0  0999 V2000
  163.6850  210.2740  150.7100 O   0  0  0  0  0  0  0  0  0  0  0  0
  162.3060  210.2580  150.1140 S   0  0  0  0  0  0  0  0  0  0  0  0
  162.4280  210.4680  148.6300 O   0  0  0  0  0  0  0  0  0  0  0  0
  159.5800  213.6140  148.5900 C   0  0  0  0  0  0  0  0  0  0  0  0
  160.5170  212.4630  148.6850 C   0  0  2  0  0  3  0  0  0  0  0  0
  160.7070  212.4080  150.1660 C   0  0  0  0  0  0  0  0  0  0  0  0
  161.4030  211.5420  150.8230 N   0  0  0  0  0  0  0  0  0  0  0  0
  159.8210  213.4120  150.8370 C   0  0  1  0  0  3  0  0  0  0  0  0
  161.3600  213.1240  146.4460 C   0  0  0  0  0  2  0  0  0  0  0  0
  161.7640  212.8590  147.9030 C   0  0  0  0  0  2  0  0  0  0  0  0
  160.2180  214.1130  146.3580 C   0  0  0  0  0  3  0  0  0  0  0  0
  159.2270  214.1310  149.7210 N   0  0  0  0  0  0  0  0  0  0  0  0
  159.4030  214.3150  147.3550 N   0  0  0  0  0  0  0  0  0  0  0  0
  158.7210  212.7260  151.6370 C   0  0  0  0  0  2  0  0  0  0  0  0
  159.1490  212.4980  152.9460 O   0  0  0  0  0  0  0  0  0  0  0  0
  158.4070  213.3920  153.7180 C   0  0  0  0  0  2  0  0  0  0  0  0
  158.9930  213.5070  155.1200 C   0  0  1  0  0  3  0  0  0  0  0  0
  158.2660  214.4430  155.8570 O   0  0  0  0  0  1  0  0  0  0  0  0
  158.9890  212.1650  155.8540 C   0  0  0  0  0  2  0  0  0  0  0  0
  158.8180  210.9590  154.9190 C   0  0  2  0  0  3  0  0  0  0  0  0
  157.6090  210.3080  155.1850 O   0  0  0  0  0  0  0  0  0  0  0  0
  156.8990  211.1870  156.0060 C   0  0  0  0  0  2  0  0  0  0  0  0
  155.4080  210.9690  155.8270 C   0  0  0  0  0  2  0  0  0  0  0  0
  155.1870  209.8720  154.9930 O   0  0  0  0  0  1  0  0  0  0  0  0
  159.9950  209.9830  155.0140 C   0  0  2  0  0  3  0  0  0  0  0  0
  162.3290  210.1440  154.5260 O   0  0  0  0  0  1  0  0  0  0  0  0
  161.0580  210.3420  153.9850 C   0  0  0  0  0  2  0  0  0  0  0  0
  159.5540  208.6740  154.7890 O   0  0  0  0  0  0  0  0  0  0  0  0
  159.7080  208.0280  156.0190 C   0  0  0  0  0  2  0  0  0  0  0  0
  161.9860  207.5730  156.5670 O   0  0  0  0  0  1  0  0  0  0  0  0
  161.1740  206.7510  154.4900 C   0  0  0  0  0  1  0  0  0  0  0  0
  160.8580  207.0400  155.9420 C   0  0  2  0  0  3  0  0  0  0  0  0
  161.2450  205.7840  149.9600 C   0  0  2  0  0  3  0  0  0  0  0  0
  160.1520  206.8090  149.6430 C   0  0  0  0  0  2  0  0  0  0  0  0
  162.3270  206.3610  150.8340 C   0  0  0  0  0  0  0  0  0  0  0  0
  162.5270  207.7440  150.9050 O   0  0  0  0  0  0  0  0  0  0  0  0
  161.5380  208.6850  150.4840 C   0  0  2  0  0  3  0  0  0  0  0  0
  163.1050  205.5880  151.4530 O   0  0  0  0  0  0  0  0  0  0  0  0
  160.7520  208.1630  149.2870 C   0  0  0  0  0  2  0  0  0  0  0  0
  161.5280  205.6640  147.5800 C   0  0  0  0  0  3  0  0  0  0  0  0
  161.7930  205.2010  148.7530 N   0  0  0  0  0  0  0  0  0  0  0  0
  162.4280  205.6400  144.1160 C   0  0  0  0  0  0  0  0  0  0  0  0
  161.0400  204.3250  145.4110 C   0  0  2  0  0  0  0  0  0  0  0  0
  162.9310  206.1260  143.0700 O   0  0  0  0  0  0  0  0  0  0  0  0
  162.7540  206.1010  145.4790 C   0  0  0  0  0  2  0  0  0  0  0  0
  161.4990  204.6240  144.0980 O   0  0  0  0  0  0  0  0  0  0  0  0
  163.1040  204.1260  146.7260 O   0  0  0  0  0  1  0  0  0  0  0  0
  162.0990  205.0250  146.3460 C   0  0  1  0  0  0  0  0  0  0  0  0
  160.3110  202.1100  144.8030 O   0  0  0  0  0  0  0  0  0  0  0  0
  161.6650  202.2180  146.7060 N   0  0  0  0  0  2  0  0  0  0  0  0
  160.9850  202.8240  145.5990 C   0  0  0  0  0  0  0  0  0  0  0  0
  161.5850  200.7960  146.9970 C   0  0  0  0  0  2  0  0  0  0  0  0
  160.9330  201.5280  149.2370 C   0  0  0  0  0  3  0  0  0  0  0  0
  160.8970  200.5810  148.3020 C   0  0  0  0  0  3  0  0  0  0  0  0
  160.2480  201.3320  150.5530 C   0  0  0  0  0  2  0  0  0  0  0  0
  162.2530  202.4170  151.4300 N   0  0  0  0  0  1  0  0  0  0  0  0
  160.8200  202.2580  151.6190 C   0  0  0  0  0  2  0  0  0  0  0  0
  159.4120  205.9770  146.4240 O   0  0  0  0  0  1  0  0  0  0  0  0
  158.6970  204.4710  144.8600 O   0  0  0  0  0  0  0  0  0  0  0  0
  159.6470  204.9090  145.5630 C   0  0  0  0  0  0  0  0  0  0  0  0
  2  1  2  0  0  0  0
  2  7  1  0  0  0  0
  3  2  2  0  0  0  0
  4  5  1  0  0  0  0
  4 12  2  0  0  0  0
  5 10  1  6  0  0  0
  5  6  1  0  0  0  0
  6  7  2  0  0  0  0
  6  8  1  0  0  0  0
  8 14  1  6  0  0  0
  9 10  1  0  0  0  0
 11  9  1  0  0  0  0
 11 13  2  0  0  0  0
 12  8  1  0  0  0  0
 13  4  1  0  0  0  0
 14 15  1  0  0  0  0
 15 16  1  0  0  0  0
 16 17  1  0  0  0  0
 17 19  1  0  0  0  0
 17 18  1  1  0  0  0
 20 25  1  0  0  0  0
 20 21  1  0  0  0  0
 20 19  1  1  0  0  0
 21 22  1  0  0  0  0
 23 22  1  0  0  0  0
 24 23  1  0  0  0  0
 25 27  1  6  0  0  0
 27 26  1  0  0  0  0
 28 25  1  0  0  0  0
 28 29  1  0  0  0  0
 32 31  1  6  0  0  0
 32 29  1  0  0  0  0
 32 30  1  0  0  0  0
 33 41  1  6  0  0  0
 33 35  1  0  0  0  0
 34 33  1  0  0  0  0
 35 36  1  0  0  0  0
 35 38  2  0  0  0  0
 37  2  1  6  0  0  0
 37 36  1  0  0  0  0
 39 34  1  0  0  0  0
 39 37  1  0  0  0  0
 40 41  2  0  0  0  0
 42 45  1  0  0  0  0
 43 60  1  1  0  0  0
 43 51  1  0  0  0  0
 43 48  1  0  0  0  0
 44 42  2  0  0  0  0
 45 48  1  0  0  0  0
 46 42  1  0  0  0  0
 46 43  1  0  0  0  0
 48 47  1  1  0  0  0
 48 40  1  0  0  0  0
 49 51  2  0  0  0  0
 50 52  1  0  0  0  0
 51 50  1  0  0  0  0
 52 54  1  0  0  0  0
 53 55  1  0  0  0  0
 54 53  2  0  0  0  0
 55 57  1  0  0  0  0
 56 57  1  0  0  0  0
 59 60  2  0  0  0  0
 60 58  1  0  0  0  0
M  END
>  <MODEL>
3

>  <REMARK>
 VINA RESULT:       0.0      2.575      6.345
  Name = 
  24 active torsions:
  status: ('A' for Active; 'I' for Inactive)
    1  A    between atoms: C_3  and  C_26
    2  A    between atoms: C_3  and  C_56
    3  A    between atoms: C_4  and  N_19
    4  A    between atoms: C_5  and  C_48
    5  A    between atoms: C_6  and  C_22
    6  A    between atoms: C_6  and  C_44
    7  A    between atoms: C_7  and  O_50
    8  A    between atoms: C_7  and  C_51
    9  A    between atoms: C_11  and  C_39
   10  A    between atoms: N_17  and  S_46
   11  A    between atoms: C_18  and  C_47
   12  A    between atoms: C_18  and  C_59
   13  A    between atoms: C_24  and  C_53
   14  A    between atoms: C_26  and  O_43
   15  A    between atoms: C_31  and  S_46
   16  A    between atoms: N_32  and  C_53
   17  A    between atoms: C_35  and  C_41
   18  A    between atoms: C_41  and  O_43
   19  A    between atoms: O_45  and  C_48
   20  A    between atoms: O_45  and  C_49
   21  A    between atoms: C_49  and  C_55
   22  A    between atoms: C_49  and  C_56
   23  A    between atoms: O_50  and  C_55
   24  A    between atoms: C_55  and  C_58
                            x       y       z     vdW  Elec       q    Type
                         _______ _______ _______ _____ _____    ______ ____

>  <TORSDO>
F 24

$$$$
=
 OpenBabel11072414423D

 60 63  0  0  1  0  0  0  0  0999 V2000
  159.2450  214.0900  151.0740 O   0  0  0  0  0  0  0  0  0  0  0  0
  159.4130  212.7520  151.7380 S   0  0  0  0  0  0  0  0  0  0  0  0
  158.1970  211.9190  151.4400 O   0  0  0  0  0  0  0  0  0  0  0  0
  156.5170  213.4320  155.2260 C   0  0  0  0  0  0  0  0  0  0  0  0
  157.1120  213.2310  153.8780 C   0  0  2  0  0  3  0  0  0  0  0  0
  158.5620  213.2130  154.2370 C   0  0  0  0  0  0  0  0  0  0  0  0
  159.5540  213.0130  153.4350 N   0  0  0  0  0  0  0  0  0  0  0  0
  158.7250  213.2840  155.7240 C   0  0  1  0  0  3  0  0  0  0  0  0
  155.1520  214.4530  152.9680 C   0  0  0  0  0  2  0  0  0  0  0  0
  156.6850  214.4300  153.0380 C   0  0  0  0  0  2  0  0  0  0  0  0
  154.5320  214.3950  154.3480 C   0  0  0  0  0  3  0  0  0  0  0  0
  157.3650  213.4810  156.1990 N   0  0  0  0  0  0  0  0  0  0  0  0
  155.1760  213.9100  155.3710 N   0  0  0  0  0  0  0  0  0  0  0  0
  159.2690  211.9740  156.2810 C   0  0  0  0  0  2  0  0  0  0  0  0
  160.2600  212.2300  157.2300 O   0  0  0  0  0  0  0  0  0  0  0  0
  161.4510  211.8700  156.5980 C   0  0  0  0  0  2  0  0  0  0  0  0
  161.7390  210.3870  156.7960 C   0  0  1  0  0  3  0  0  0  0  0  0
  160.5910  209.7440  157.2580 O   0  0  0  0  0  1  0  0  0  0  0  0
  162.2130  209.7190  155.5030 C   0  0  0  0  0  2  0  0  0  0  0  0
  161.5970  208.3320  155.2720 C   0  0  2  0  0  3  0  0  0  0  0  0
  162.1090  207.4140  156.1950 O   0  0  0  0  0  0  0  0  0  0  0  0
  160.9930  206.9350  156.8850 C   0  0  0  0  0  2  0  0  0  0  0  0
  159.7240  207.4540  156.2350 C   0  0  0  0  0  2  0  0  0  0  0  0
  158.6560  206.6100  156.5410 O   0  0  0  0  0  1  0  0  0  0  0  0
  161.8090  207.8380  153.8380 C   0  0  2  0  0  3  0  0  0  0  0  0
  159.6410  208.8300  153.6690 O   0  0  0  0  0  1  0  0  0  0  0  0
  160.5050  207.9240  153.0550 C   0  0  0  0  0  2  0  0  0  0  0  0
  162.2590  206.5120  153.8460 O   0  0  0  0  0  0  0  0  0  0  0  0
  161.1880  205.7680  153.3450 C   0  0  0  0  0  2  0  0  0  0  0  0
  162.5920  204.8070  151.6710 O   0  0  0  0  0  1  0  0  0  0  0  0
  160.5360  203.7100  152.1380 C   0  0  0  0  0  1  0  0  0  0  0  0
  161.7030  204.4940  152.7000 C   0  0  2  0  0  3  0  0  0  0  0  0
  162.2080  209.8790  149.4790 C   0  0  2  0  0  3  0  0  0  0  0  0
  162.2820  209.9250  151.0090 C   0  0  0  0  0  2  0  0  0  0  0  0
  161.6750  211.1620  148.8990 C   0  0  0  0  0  0  0  0  0  0  0  0
  160.9110  212.0370  149.6790 O   0  0  0  0  0  0  0  0  0  0  0  0
  160.8980  211.9800  151.1060 C   0  0  2  0  0  3  0  0  0  0  0  0
  161.8590  211.4170  147.6800 O   0  0  0  0  0  0  0  0  0  0  0  0
  161.0240  210.5440  151.6040 C   0  0  0  0  0  2  0  0  0  0  0  0
  162.0130  207.6900  148.5160 C   0  0  0  0  0  3  0  0  0  0  0  0
  161.4500  208.7340  149.0180 N   0  0  0  0  0  0  0  0  0  0  0  0
  160.7760  204.3380  148.7420 C   0  0  0  0  0  0  0  0  0  0  0  0
  161.9860  205.4860  147.1450 C   0  0  2  0  0  0  0  0  0  0  0  0
  160.2800  203.3480  149.3410 O   0  0  0  0  0  0  0  0  0  0  0  0
  160.6950  205.7260  149.2360 C   0  0  0  0  0  2  0  0  0  0  0  0
  161.4660  204.2270  147.5560 O   0  0  0  0  0  0  0  0  0  0  0  0
  160.0720  207.0110  147.3550 O   0  0  0  0  0  1  0  0  0  0  0  0
  161.1980  206.5250  148.0320 C   0  0  1  0  0  0  0  0  0  0  0  0
  162.0340  206.7720  145.1070 O   0  0  0  0  0  0  0  0  0  0  0  0
  161.1510  204.6180  144.8970 N   0  0  0  0  0  2  0  0  0  0  0  0
  161.7460  205.6730  145.6620 C   0  0  0  0  0  0  0  0  0  0  0  0
  160.8120  204.7590  143.4900 C   0  0  0  0  0  2  0  0  0  0  0  0
  161.7450  205.9580  141.5730 C   0  0  0  0  0  3  0  0  0  0  0  0
  161.5790  205.8890  142.8920 C   0  0  0  0  0  3  0  0  0  0  0  0
  162.5120  207.0840  140.9540 C   0  0  0  0  0  2  0  0  0  0  0  0
  162.2010  206.6170  138.5770 N   0  0  0  0  0  1  0  0  0  0  0  0
  161.8710  207.5410  139.6510 C   0  0  0  0  0  2  0  0  0  0  0  0
  164.3000  204.4880  146.9160 O   0  0  0  0  0  0  0  0  0  0  0  0
  163.9990  206.4380  148.0700 O   0  0  0  0  0  1  0  0  0  0  0  0
  163.4780  205.4890  147.4240 C   0  0  0  0  0  0  0  0  0  0  0  0
  1  2  2  0  0  0  0
  2  7  1  0  0  0  0
  3  2  2  0  0  0  0
  4 13  1  0  0  0  0
  4 12  2  0  0  0  0
  5 10  1  6  0  0  0
  5  6  1  0  0  0  0
  5  4  1  0  0  0  0
  6  8  1  0  0  0  0
  7  6  2  0  0  0  0
  8 12  1  0  0  0  0
  8 14  1  1  0  0  0
  9 10  1  0  0  0  0
  9 11  1  0  0  0  0
 11 13  2  0  0  0  0
 14 15  1  0  0  0  0
 16 17  1  0  0  0  0
 16 15  1  0  0  0  0
 17 18  1  6  0  0  0
 19 17  1  0  0  0  0
 20 19  1  6  0  0  0
 20 21  1  0  0  0  0
 21 22  1  0  0  0  0
 23 24  1  0  0  0  0
 23 22  1  0  0  0  0
 25 27  1  6  0  0  0
 25 28  1  0  0  0  0
 25 20  1  0  0  0  0
 27 26  1  0  0  0  0
 29 28  1  0  0  0  0
 30 32  1  0  0  0  0
 32 31  1  6  0  0  0
 32 29  1  0  0  0  0
 33 41  1  1  0  0  0
 33 34  1  0  0  0  0
 34 39  1  0  0  0  0
 35 33  1  0  0  0  0
 35 36  1  0  0  0  0
 36 37  1  0  0  0  0
 37 39  1  0  0  0  0
 37  2  1  6  0  0  0
 38 35  2  0  0  0  0
 40 41  2  0  0  0  0
 42 45  1  0  0  0  0
 42 44  2  0  0  0  0
 43 51  1  6  0  0  0
 43 60  1  0  0  0  0
 43 46  1  0  0  0  0
 43 48  1  0  0  0  0
 46 42  1  0  0  0  0
 48 47  1  6  0  0  0
 48 40  1  0  0  0  0
 48 45  1  0  0  0  0
 49 51  2  0  0  0  0
 50 51  1  0  0  0  0
 52 50  1  0  0  0  0
 53 54  2  0  0  0  0
 54 52  1  0  0  0  0
 55 53  1  0  0  0  0
 56 57  1  0  0  0  0
 57 55  1  0  0  0  0
 58 60  2  0  0  0  0
 60 59  1  0  0  0  0
M  END
>  <MODEL>
4

>  <REMARK>
 VINA RESULT:       0.1      3.065      7.428
  Name = 
  24 active torsions:
  status: ('A' for Active; 'I' for Inactive)
    1  A    between atoms: C_3  and  C_26
    2  A    between atoms: C_3  and  C_56
    3  A    between atoms: C_4  and  N_19
    4  A    between atoms: C_5  and  C_48
    5  A    between atoms: C_6  and  C_22
    6  A    between atoms: C_6  and  C_44
    7  A    between atoms: C_7  and  O_50
    8  A    between atoms: C_7  and  C_51
    9  A    between atoms: C_11  and  C_39
   10  A    between atoms: N_17  and  S_46
   11  A    between atoms: C_18  and  C_47
   12  A    between atoms: C_18  and  C_59
   13  A    between atoms: C_24  and  C_53
   14  A    between atoms: C_26  and  O_43
   15  A    between atoms: C_31  and  S_46
   16  A    between atoms: N_32  and  C_53
   17  A    between atoms: C_35  and  C_41
   18  A    between atoms: C_41  and  O_43
   19  A    between atoms: O_45  and  C_48
   20  A    between atoms: O_45  and  C_49
   21  A    between atoms: C_49  and  C_55
   22  A    between atoms: C_49  and  C_56
   23  A    between atoms: O_50  and  C_55
   24  A    between atoms: C_55  and  C_58
                            x       y       z     vdW  Elec       q    Type
                         _______ _______ _______ _____ _____    ______ ____

>  <TORSDO>
F 24

$$$$
=
 OpenBabel11072414423D

 60 63  0  0  1  0  0  0  0  0999 V2000
  157.9220  213.8950  154.1820 O   0  0  0  0  0  0  0  0  0  0  0  0
  159.2270  213.1510  154.2230 S   0  0  0  0  0  0  0  0  0  0  0  0
  160.2770  214.0660  154.7900 O   0  0  0  0  0  0  0  0  0  0  0  0
  157.5510  213.9810  150.0390 C   0  0  0  0  0  0  0  0  0  0  0  0
  157.7620  213.9170  151.5090 C   0  0  2  0  0  3  0  0  0  0  0  0
  158.9770  213.0490  151.5570 C   0  0  0  0  0  0  0  0  0  0  0  0
  159.6360  212.7020  152.6120 N   0  0  0  0  0  0  0  0  0  0  0  0
  159.4580  212.7590  150.1690 C   0  0  1  0  0  3  0  0  0  0  0  0
  155.3040  214.1670  151.7470 C   0  0  0  0  0  2  0  0  0  0  0  0
  156.5070  213.2800  152.0950 C   0  0  0  0  0  2  0  0  0  0  0  0
  155.2350  214.4510  150.2620 C   0  0  0  0  0  3  0  0  0  0  0  0
  158.4310  213.3540  149.3290 N   0  0  0  0  0  0  0  0  0  0  0  0
  156.2860  214.3700  149.4960 N   0  0  0  0  0  0  0  0  0  0  0  0
  160.7910  213.4430  149.8960 C   0  0  0  0  0  2  0  0  0  0  0  0
  161.1240  213.3260  148.5450 O   0  0  0  0  0  0  0  0  0  0  0  0
  160.1540  214.0760  147.8790 C   0  0  0  0  0  2  0  0  0  0  0  0
  159.8780  213.4950  146.4970 C   0  0  1  0  0  3  0  0  0  0  0  0
  158.5180  213.2110  146.3710 O   0  0  0  0  0  1  0  0  0  0  0  0
  160.3060  214.4490  145.3800 C   0  0  0  0  0  2  0  0  0  0  0  0
  160.3710  213.7800  143.9990 C   0  0  2  0  0  3  0  0  0  0  0  0
  159.4020  212.7760  143.9020 O   0  0  0  0  0  0  0  0  0  0  0  0
  158.9050  212.8790  142.6000 C   0  0  0  0  0  2  0  0  0  0  0  0
  158.3670  214.2780  142.3630 C   0  0  0  0  0  2  0  0  0  0  0  0
  157.4440  214.2590  141.3170 O   0  0  0  0  0  1  0  0  0  0  0  0
  161.7640  213.2240  143.6920 C   0  0  2  0  0  3  0  0  0  0  0  0
  164.0200  213.3650  144.4680 O   0  0  0  0  0  1  0  0  0  0  0  0
  162.6900  213.4390  144.8820 C   0  0  0  0  0  2  0  0  0  0  0  0
  162.3000  213.8610  142.5660 O   0  0  0  0  0  0  0  0  0  0  0  0
  161.4340  213.5300  141.5210 C   0  0  0  0  0  2  0  0  0  0  0  0
  163.5710  213.5090  140.4590 O   0  0  0  0  0  1  0  0  0  0  0  0
  161.6660  213.8540  139.0800 C   0  0  0  0  0  1  0  0  0  0  0  0
  162.2350  213.1440  140.2910 C   0  0  2  0  0  3  0  0  0  0  0  0
  159.7170  208.8800  155.8620 C   0  0  2  0  0  3  0  0  0  0  0  0
  158.3470  209.3070  155.3230 C   0  0  0  0  0  2  0  0  0  0  0  0
  160.5370  210.0550  156.3220 C   0  0  0  0  0  0  0  0  0  0  0  0
  160.2650  211.3450  155.8530 O   0  0  0  0  0  0  0  0  0  0  0  0
  159.0240  211.6910  155.2390 C   0  0  2  0  0  3  0  0  0  0  0  0
  161.5220  209.8650  157.0830 O   0  0  0  0  0  0  0  0  0  0  0  0
  158.4660  210.5300  154.4230 C   0  0  0  0  0  2  0  0  0  0  0  0
  160.2670  208.1990  153.6270 C   0  0  0  0  0  3  0  0  0  0  0  0
  160.4380  208.0740  154.8980 N   0  0  0  0  0  0  0  0  0  0  0  0
  163.1580  206.4070  152.5140 C   0  0  0  0  0  0  0  0  0  0  0  0
  161.9040  208.1260  151.6150 C   0  0  2  0  0  0  0  0  0  0  0  0
  164.1380  205.6300  152.6570 O   0  0  0  0  0  0  0  0  0  0  0  0
  161.9960  206.4450  153.4220 C   0  0  0  0  0  2  0  0  0  0  0  0
  163.0730  207.3240  151.4900 O   0  0  0  0  0  0  0  0  0  0  0  0
  160.1100  206.4930  152.0010 O   0  0  0  0  0  1  0  0  0  0  0  0
  161.0190  207.3360  152.6540 C   0  0  1  0  0  0  0  0  0  0  0  0
  159.9820  208.3270  150.1750 O   0  0  0  0  0  0  0  0  0  0  0  0
  162.0430  208.2930  149.0740 N   0  0  0  0  0  2  0  0  0  0  0  0
  161.2420  208.2680  150.2610 C   0  0  0  0  0  0  0  0  0  0  0  0
  161.4710  208.3400  147.7380 C   0  0  0  0  0  2  0  0  0  0  0  0
  161.7250  205.9090  147.6780 C   0  0  0  0  0  3  0  0  0  0  0  0
  161.0160  206.9800  147.3310 C   0  0  0  0  0  3  0  0  0  0  0  0
  161.2850  204.5350  147.2790 C   0  0  0  0  0  2  0  0  0  0  0  0
  160.9160  204.3780  144.8700 N   0  0  0  0  0  1  0  0  0  0  0  0
  161.8760  204.1310  145.9350 C   0  0  0  0  0  2  0  0  0  0  0  0
  162.9860  209.6270  153.3410 O   0  0  0  0  0  1  0  0  0  0  0  0
  162.1390  210.5170  151.4140 O   0  0  0  0  0  0  0  0  0  0  0  0
  162.3270  209.4920  152.1230 C   0  0  0  0  0  0  0  0  0  0  0  0
  1  2  2  0  0  0  0
  2  3  2  0  0  0  0
  4  5  1  0  0  0  0
  5  6  1  0  0  0  0
  5 10  1  1  0  0  0
  6  7  2  0  0  0  0
  7  2  1  0  0  0  0
  8 14  1  6  0  0  0
  8  6  1  0  0  0  0
  9 10  1  0  0  0  0
 11  9  1  0  0  0  0
 12  4  2  0  0  0  0
 12  8  1  0  0  0  0
 13  4  1  0  0  0  0
 13 11  2  0  0  0  0
 15 14  1  0  0  0  0
 16 15  1  0  0  0  0
 17 18  1  1  0  0  0
 17 16  1  0  0  0  0
 19 17  1  0  0  0  0
 20 19  1  1  0  0  0
 21 20  1  0  0  0  0
 22 21  1  0  0  0  0
 23 22  1  0  0  0  0
 24 23  1  0  0  0  0
 25 20  1  0  0  0  0
 25 27  1  1  0  0  0
 26 27  1  0  0  0  0
 28 25  1  0  0  0  0
 29 28  1  0  0  0  0
 32 31  1  6  0  0  0
 32 30  1  0  0  0  0
 32 29  1  0  0  0  0
 33 41  1  6  0  0  0
 33 35  1  0  0  0  0
 34 33  1  0  0  0  0
 35 38  2  0  0  0  0
 36 35  1  0  0  0  0
 37  2  1  6  0  0  0
 37 36  1  0  0  0  0
 39 37  1  0  0  0  0
 39 34  1  0  0  0  0
 40 41  2  0  0  0  0
 42 44  2  0  0  0  0
 42 45  1  0  0  0  0
 43 51  1  6  0  0  0
 43 60  1  0  0  0  0
 43 48  1  0  0  0  0
 46 43  1  0  0  0  0
 46 42  1  0  0  0  0
 48 47  1  6  0  0  0
 48 45  1  0  0  0  0
 48 40  1  0  0  0  0
 49 51  2  0  0  0  0
 50 51  1  0  0  0  0
 52 50  1  0  0  0  0
 54 53  2  0  0  0  0
 54 52  1  0  0  0  0
 55 53  1  0  0  0  0
 56 57  1  0  0  0  0
 57 55  1  0  0  0  0
 59 60  2  0  0  0  0
 60 58  1  0  0  0  0
M  END
>  <MODEL>
5

>  <REMARK>
 VINA RESULT:       1.1      2.954      6.291
  Name = 
  24 active torsions:
  status: ('A' for Active; 'I' for Inactive)
    1  A    between atoms: C_3  and  C_26
    2  A    between atoms: C_3  and  C_56
    3  A    between atoms: C_4  and  N_19
    4  A    between atoms: C_5  and  C_48
    5  A    between atoms: C_6  and  C_22
    6  A    between atoms: C_6  and  C_44
    7  A    between atoms: C_7  and  O_50
    8  A    between atoms: C_7  and  C_51
    9  A    between atoms: C_11  and  C_39
   10  A    between atoms: N_17  and  S_46
   11  A    between atoms: C_18  and  C_47
   12  A    between atoms: C_18  and  C_59
   13  A    between atoms: C_24  and  C_53
   14  A    between atoms: C_26  and  O_43
   15  A    between atoms: C_31  and  S_46
   16  A    between atoms: N_32  and  C_53
   17  A    between atoms: C_35  and  C_41
   18  A    between atoms: C_41  and  O_43
   19  A    between atoms: O_45  and  C_48
   20  A    between atoms: O_45  and  C_49
   21  A    between atoms: C_49  and  C_55
   22  A    between atoms: C_49  and  C_56
   23  A    between atoms: O_50  and  C_55
   24  A    between atoms: C_55  and  C_58
                            x       y       z     vdW  Elec       q    Type
                         _______ _______ _______ _____ _____    ______ ____

>  <TORSDO>
F 24

$$$$
=
 OpenBabel11072414423D

 60 63  0  0  1  0  0  0  0  0999 V2000
  161.5150  209.9320  150.2540 O   0  0  0  0  0  0  0  0  0  0  0  0
  162.0180  210.4370  148.9310 S   0  0  0  0  0  0  0  0  0  0  0  0
  163.2050  211.3250  149.1830 O   0  0  0  0  0  0  0  0  0  0  0  0
  159.2710  213.9000  150.1440 C   0  0  0  0  0  0  0  0  0  0  0  0
  160.2790  212.8070  150.1390 C   0  0  2  0  0  3  0  0  0  0  0  0
  160.0820  212.2810  148.7550 C   0  0  0  0  0  0  0  0  0  0  0  0
  160.7510  211.3350  148.1860 N   0  0  0  0  0  0  0  0  0  0  0  0
  159.0940  213.1310  148.0170 C   0  0  1  0  0  3  0  0  0  0  0  0
  159.8810  212.5980  152.5810 C   0  0  0  0  0  2  0  0  0  0  0  0
  159.8690  211.8410  151.2460 C   0  0  0  0  0  2  0  0  0  0  0  0
  159.0540  213.8640  152.5080 C   0  0  0  0  0  3  0  0  0  0  0  0
  158.6290  214.0610  149.0340 N   0  0  0  0  0  0  0  0  0  0  0  0
  158.7950  214.4520  151.3750 N   0  0  0  0  0  0  0  0  0  0  0  0
  159.7690  213.9090  146.8940 C   0  0  0  0  0  2  0  0  0  0  0  0
  159.2110  213.5590  145.6640 O   0  0  0  0  0  0  0  0  0  0  0  0
  160.0890  214.0880  144.7170 C   0  0  0  0  0  2  0  0  0  0  0  0
  160.3430  213.0850  143.5980 C   0  0  1  0  0  3  0  0  0  0  0  0
  160.0930  211.7930  144.0610 O   0  0  0  0  0  1  0  0  0  0  0  0
  159.4730  213.3650  142.3710 C   0  0  0  0  0  2  0  0  0  0  0  0
  160.2030  213.1350  141.0400 C   0  0  2  0  0  3  0  0  0  0  0  0
  159.3460  212.5310  140.1150 O   0  0  0  0  0  0  0  0  0  0  0  0
  158.1210  213.1840  140.2780 C   0  0  0  0  0  2  0  0  0  0  0  0
  157.6590  213.7500  138.9480 C   0  0  0  0  0  2  0  0  0  0  0  0
  158.7490  213.8860  138.0870 O   0  0  0  0  0  1  0  0  0  0  0  0
  161.4810  212.3110  141.2190 C   0  0  2  0  0  3  0  0  0  0  0  0
  163.0810  214.0860  141.2080 O   0  0  0  0  0  1  0  0  0  0  0  0
  162.6410  212.9750  140.4890 C   0  0  0  0  0  2  0  0  0  0  0  0
  161.2960  211.0180  140.7140 O   0  0  0  0  0  0  0  0  0  0  0  0
  161.3600  211.1630  139.3260 C   0  0  0  0  0  2  0  0  0  0  0  0
  160.8560  209.4250  137.7700 O   0  0  0  0  0  1  0  0  0  0  0  0
  161.9830  208.8110  139.7700 C   0  0  0  0  0  1  0  0  0  0  0  0
  161.8090  209.8590  138.6910 C   0  0  2  0  0  3  0  0  0  0  0  0
  162.2910  206.1370  147.3160 C   0  0  2  0  0  3  0  0  0  0  0  0
  163.5710  206.8180  147.8130 C   0  0  0  0  0  2  0  0  0  0  0  0
  161.2520  207.1350  146.8780 C   0  0  0  0  0  0  0  0  0  0  0  0
  161.2910  208.4560  147.3360 O   0  0  0  0  0  0  0  0  0  0  0  0
  162.4620  209.0340  147.9130 C   0  0  2  0  0  3  0  0  0  0  0  0
  160.2990  206.7580  146.1460 O   0  0  0  0  0  0  0  0  0  0  0  0
  163.2510  208.0030  148.7140 C   0  0  0  0  0  2  0  0  0  0  0  0
  161.9100  203.9420  148.2080 C   0  0  0  0  0  3  0  0  0  0  0  0
  161.7610  205.2180  148.3020 N   0  0  0  0  0  0  0  0  0  0  0  0
  159.3120  201.8890  149.5680 C   0  0  0  0  0  0  0  0  0  0  0  0
  160.4760  203.7200  150.3600 C   0  0  2  0  0  0  0  0  0  0  0  0
  158.4000  201.0240  149.5100 O   0  0  0  0  0  0  0  0  0  0  0  0
  160.3790  202.0340  148.5580 C   0  0  0  0  0  2  0  0  0  0  0  0
  159.4030  202.8130  150.5850 O   0  0  0  0  0  0  0  0  0  0  0  0
  162.3730  202.2620  149.8030 O   0  0  0  0  0  1  0  0  0  0  0  0
  161.3340  203.0150  149.2400 C   0  0  1  0  0  0  0  0  0  0  0  0
  161.8580  202.9610  152.1820 O   0  0  0  0  0  0  0  0  0  0  0  0
  161.2340  205.2110  152.2860 N   0  0  0  0  0  2  0  0  0  0  0  0
  161.2420  203.9270  151.6490 C   0  0  0  0  0  0  0  0  0  0  0  0
  161.8740  205.4590  153.5670 C   0  0  0  0  0  2  0  0  0  0  0  0
  160.5590  207.0790  154.8430 C   0  0  0  0  0  3  0  0  0  0  0  0
  161.5810  206.8480  154.0220 C   0  0  0  0  0  3  0  0  0  0  0  0
  160.2480  208.4660  155.3100 C   0  0  0  0  0  2  0  0  0  0  0  0
  161.4210  210.5320  155.8760 N   0  0  0  0  0  1  0  0  0  0  0  0
  161.3450  209.4450  154.9130 C   0  0  0  0  0  2  0  0  0  0  0  0
  160.4430  206.2500  150.3000 O   0  0  0  0  0  1  0  0  0  0  0  0
  158.9120  205.0520  149.0980 O   0  0  0  0  0  0  0  0  0  0  0  0
  159.8830  205.0400  149.9010 C   0  0  0  0  0  0  0  0  0  0  0  0
  2  3  2  0  0  0  0
  2  1  2  0  0  0  0
  4 13  1  0  0  0  0
  5  4  1  0  0  0  0
  5 10  1  1  0  0  0
  6  5  1  0  0  0  0
  7  6  2  0  0  0  0
  7  2  1  0  0  0  0
  8 14  1  6  0  0  0
  8  6  1  0  0  0  0
  8 12  1  0  0  0  0
 10  9  1  0  0  0  0
 11  9  1  0  0  0  0
 12  4  2  0  0  0  0
 13 11  2  0  0  0  0
 15 14  1  0  0  0  0
 16 15  1  0  0  0  0
 17 18  1  1  0  0  0
 17 16  1  0  0  0  0
 19 17  1  0  0  0  0
 20 25  1  0  0  0  0
 20 19  1  1  0  0  0
 21 22  1  0  0  0  0
 21 20  1  0  0  0  0
 23 22  1  0  0  0  0
 24 23  1  0  0  0  0
 25 27  1  6  0  0  0
 27 26  1  0  0  0  0
 28 25  1  0  0  0  0
 29 28  1  0  0  0  0
 30 32  1  0  0  0  0
 32 29  1  0  0  0  0
 32 31  1  1  0  0  0
 33 34  1  0  0  0  0
 33 41  1  1  0  0  0
 34 39  1  0  0  0  0
 35 33  1  0  0  0  0
 35 36  1  0  0  0  0
 36 37  1  0  0  0  0
 37 39  1  0  0  0  0
 37  2  1  1  0  0  0
 38 35  2  0  0  0  0
 40 41  2  0  0  0  0
 40 48  1  0  0  0  0
 42 46  1  0  0  0  0
 43 60  1  6  0  0  0
 43 46  1  0  0  0  0
 43 51  1  0  0  0  0
 44 42  2  0  0  0  0
 45 48  1  0  0  0  0
 45 42  1  0  0  0  0
 48 47  1  1  0  0  0
 48 43  1  0  0  0  0
 50 52  1  0  0  0  0
 51 49  2  0  0  0  0
 51 50  1  0  0  0  0
 52 54  1  0  0  0  0
 53 55  1  0  0  0  0
 54 53  2  0  0  0  0
 57 55  1  0  0  0  0
 57 56  1  0  0  0  0
 59 60  2  0  0  0  0
 60 58  1  0  0  0  0
M  END
>  <MODEL>
6

>  <REMARK>
 VINA RESULT:       1.5      2.801      5.904
  Name = 
  24 active torsions:
  status: ('A' for Active; 'I' for Inactive)
    1  A    between atoms: C_3  and  C_26
    2  A    between atoms: C_3  and  C_56
    3  A    between atoms: C_4  and  N_19
    4  A    between atoms: C_5  and  C_48
    5  A    between atoms: C_6  and  C_22
    6  A    between atoms: C_6  and  C_44
    7  A    between atoms: C_7  and  O_50
    8  A    between atoms: C_7  and  C_51
    9  A    between atoms: C_11  and  C_39
   10  A    between atoms: N_17  and  S_46
   11  A    between atoms: C_18  and  C_47
   12  A    between atoms: C_18  and  C_59
   13  A    between atoms: C_24  and  C_53
   14  A    between atoms: C_26  and  O_43
   15  A    between atoms: C_31  and  S_46
   16  A    between atoms: N_32  and  C_53
   17  A    between atoms: C_35  and  C_41
   18  A    between atoms: C_41  and  O_43
   19  A    between atoms: O_45  and  C_48
   20  A    between atoms: O_45  and  C_49
   21  A    between atoms: C_49  and  C_55
   22  A    between atoms: C_49  and  C_56
   23  A    between atoms: O_50  and  C_55
   24  A    between atoms: C_55  and  C_58
                            x       y       z     vdW  Elec       q    Type
                         _______ _______ _______ _____ _____    ______ ____

>  <TORSDO>
F 24

$$$$
