=
 OpenBabel11072411163D

 28 30  0  0  1  0  0  0  0  0999 V2000
  161.5000  205.1330  146.7780 C   0  0  0  0  0  0  0  0  0  0  0  0
  160.5300  204.5300  146.2430 O   0  0  0  0  0  0  0  0  0  0  0  0
  161.3990  205.5470  148.1560 N   0  0  0  0  0  0  0  0  0  0  0  0
  161.5690  208.1180  150.4390 C   0  0  1  0  0  3  0  0  0  0  0  0
  161.9560  208.9320  149.2240 C   0  0  0  0  0  2  0  0  0  0  0  0
  162.1150  206.7190  150.2050 C   0  0  0  0  0  2  0  0  0  0  0  0
  161.9810  207.9420  148.0800 C   0  0  0  0  0  2  0  0  0  0  0  0
  162.2800  206.5840  148.7000 C   0  0  2  0  0  3  0  0  0  0  0  0
  161.2530  210.7050  153.0330 C   0  0  0  0  0  2  0  0  0  0  0  0
  161.1480  207.1740  153.2860 O   0  0  0  0  0  0  0  0  0  0  0  0
  160.6860  209.4680  153.7130 C   0  0  1  0  0  3  0  0  0  0  0  0
  161.2730  208.3410  152.9490 C   0  0  0  0  0  0  0  0  0  0  0  0
  161.8430  210.2700  151.6910 C   0  0  0  0  0  2  0  0  0  0  0  0
  162.0440  208.7650  151.7470 C   0  0  2  0  0  3  0  0  0  0  0  0
  161.1230  209.4270  155.0390 O   0  0  0  0  0  0  0  0  0  0  0  0
  161.8780  210.5890  155.2030 C   0  0  0  0  0  1  0  0  0  0  0  0
  163.9170  204.6870  146.2660 N   0  0  0  0  0  1  0  0  0  0  0  0
  162.7080  205.3760  145.9620 C   0  0  0  0  0  0  0  0  0  0  0  0
  162.6980  206.2030  145.0140 O   0  0  0  0  0  0  0  0  0  0  0  0
  160.3280  204.9920  148.9870 C   0  0  0  0  0  2  0  0  0  0  0  0
  160.8590  202.6100  148.3970 C   0  0  0  0  0  3  0  0  0  0  0  0
  161.0060  201.9230  151.1040 C   0  0  0  0  0  3  0  0  0  0  0  0
  160.6350  203.5840  149.3770 C   0  0  0  0  0  0  0  0  0  0  0  0
  161.2340  200.9530  150.1230 C   0  0  0  0  0  3  0  0  0  0  0  0
  161.1590  201.2960  148.7700 C   0  0  0  0  0  0  0  0  0  0  0  0
  160.7060  203.2370  150.7320 C   0  0  0  0  0  3  0  0  0  0  0  0
  161.5810  199.4980  146.9510 N   0  0  0  0  0  0  0  0  0  0  0  0
  161.3930  200.3010  147.7630 C   0  0  0  0  0  0  0  0  0  0  0  0
  1  3  1  0  0  0  0
  2  1  2  0  0  0  0
  3 20  1  0  0  0  0
  4  5  1  6  0  0  0
  4 14  1  0  0  0  0
  6  4  1  0  0  0  0
  7  8  1  0  0  0  0
  7  5  1  0  0  0  0
  8  3  1  6  0  0  0
  8  6  1  0  0  0  0
  9 11  1  0  0  0  0
 11 15  1  1  0  0  0
 12 10  2  0  0  0  0
 12 11  1  0  0  0  0
 13  9  1  0  0  0  0
 14 13  1  6  0  0  0
 14 12  1  0  0  0  0
 15 16  1  0  0  0  0
 18 17  1  0  0  0  0
 18  1  1  0  0  0  0
 19 18  2  0  0  0  0
 20 23  1  0  0  0  0
 21 25  2  0  0  0  0
 21 23  1  0  0  0  0
 23 26  2  0  0  0  0
 24 22  2  0  0  0  0
 25 24  1  0  0  0  0
 26 22  1  0  0  0  0
 27 28  3  0  0  0  0
 28 25  1  0  0  0  0
M  END
>  <MODEL>
1

>  <REMARK>
 VINA RESULT:      -6.8      0.000      0.000
  Name = 
  7 active torsions:
  status: ('A' for Active; 'I' for Inactive)
    1  A    between atoms: C_1  and  C_9
    2  A    between atoms: O_3  and  C_12
    3  A    between atoms: C_8  and  C_14
    4  A    between atoms: C_13  and  C_17
    5  A    between atoms: C_14  and  N_25
    6  A    between atoms: C_22  and  N_25
    7  A    between atoms: C_26  and  C_27
                            x       y       z     vdW  Elec       q    Type
                         _______ _______ _______ _____ _____    ______ ____

>  <TORSDO>
F 7

$$$$
=
 OpenBabel11072411163D

 28 30  0  0  1  0  0  0  0  0999 V2000
  160.8000  210.0270  155.4630 C   0  0  0  0  0  0  0  0  0  0  0  0
  159.8230  210.5940  156.0250 O   0  0  0  0  0  0  0  0  0  0  0  0
  160.5860  209.3180  154.2260 N   0  0  0  0  0  0  0  0  0  0  0  0
  161.0670  206.8170  151.9100 C   0  0  1  0  0  3  0  0  0  0  0  0
  161.3430  205.9780  153.1380 C   0  0  0  0  0  2  0  0  0  0  0  0
  161.5480  208.2210  152.2360 C   0  0  0  0  0  2  0  0  0  0  0  0
  161.2200  206.9360  154.3030 C   0  0  0  0  0  2  0  0  0  0  0  0
  161.5480  208.3170  153.7540 C   0  0  2  0  0  3  0  0  0  0  0  0
  160.9090  204.5500  149.0180 C   0  0  0  0  0  2  0  0  0  0  0  0
  161.3560  208.0610  149.1630 O   0  0  0  0  0  0  0  0  0  0  0  0
  160.6690  205.9180  148.3950 C   0  0  1  0  0  3  0  0  0  0  0  0
  161.2460  206.8640  149.3800 C   0  0  0  0  0  0  0  0  0  0  0  0
  161.2760  204.7660  150.4870 C   0  0  0  0  0  2  0  0  0  0  0  0
  161.6950  206.2180  150.6440 C   0  0  2  0  0  3  0  0  0  0  0  0
  161.3610  206.0030  147.1850 O   0  0  0  0  0  0  0  0  0  0  0  0
  161.9240  204.7390  147.0050 C   0  0  0  0  0  1  0  0  0  0  0  0
  162.4190  209.3550  157.2600 N   0  0  0  0  0  1  0  0  0  0  0  0
  162.1290  210.1300  156.1020 C   0  0  0  0  0  0  0  0  0  0  0  0
  163.0070  210.9140  155.6540 O   0  0  0  0  0  0  0  0  0  0  0  0
  159.3380  209.5320  153.4910 C   0  0  0  0  0  2  0  0  0  0  0  0
  158.0980  211.7140  153.4270 C   0  0  0  0  0  3  0  0  0  0  0  0
  160.1230  212.8740  151.8860 C   0  0  0  0  0  3  0  0  0  0  0  0
  159.2150  210.9560  153.0580 C   0  0  0  0  0  0  0  0  0  0  0  0
  159.0080  213.6300  152.2600 C   0  0  0  0  0  3  0  0  0  0  0  0
  157.9950  213.0500  153.0290 C   0  0  0  0  0  0  0  0  0  0  0  0
  160.2260  211.5370  152.2840 C   0  0  0  0  0  3  0  0  0  0  0  0
  155.9280  214.4530  153.7210 N   0  0  0  0  0  0  0  0  0  0  0  0
  156.8510  213.8270  153.4120 C   0  0  0  0  0  0  0  0  0  0  0  0
  1  2  2  0  0  0  0
  1 18  1  0  0  0  0
  3  1  1  0  0  0  0
  4  6  1  1  0  0  0
  4  5  1  0  0  0  0
  5  7  1  0  0  0  0
  6  8  1  0  0  0  0
  8  3  1  6  0  0  0
  8  7  1  0  0  0  0
  9 13  1  0  0  0  0
 10 12  2  0  0  0  0
 11 15  1  6  0  0  0
 11  9  1  0  0  0  0
 11 12  1  0  0  0  0
 12 14  1  0  0  0  0
 14 13  1  6  0  0  0
 14  4  1  0  0  0  0
 16 15  1  0  0  0  0
 18 17  1  0  0  0  0
 19 18  2  0  0  0  0
 20  3  1  0  0  0  0
 22 24  2  0  0  0  0
 22 26  1  0  0  0  0
 23 21  1  0  0  0  0
 23 20  1  0  0  0  0
 24 25  1  0  0  0  0
 25 28  1  0  0  0  0
 25 21  2  0  0  0  0
 26 23  2  0  0  0  0
 28 27  3  0  0  0  0
M  END
>  <MODEL>
2

>  <REMARK>
 VINA RESULT:      -6.8      3.930      9.319
  Name = 
  7 active torsions:
  status: ('A' for Active; 'I' for Inactive)
    1  A    between atoms: C_1  and  C_9
    2  A    between atoms: O_3  and  C_12
    3  A    between atoms: C_8  and  C_14
    4  A    between atoms: C_13  and  C_17
    5  A    between atoms: C_14  and  N_25
    6  A    between atoms: C_22  and  N_25
    7  A    between atoms: C_26  and  C_27
                            x       y       z     vdW  Elec       q    Type
                         _______ _______ _______ _____ _____    ______ ____

>  <TORSDO>
F 7

$$$$
=
 OpenBabel11072411163D

 28 30  0  0  1  0  0  0  0  0999 V2000
  161.2290  210.4540  156.2170 C   0  0  0  0  0  0  0  0  0  0  0  0
  160.5630  211.2210  156.9650 O   0  0  0  0  0  0  0  0  0  0  0  0
  160.5460  209.4150  155.4860 N   0  0  0  0  0  0  0  0  0  0  0  0
  160.9080  207.4130  152.7090 C   0  0  1  0  0  3  0  0  0  0  0  0
  160.5970  206.3040  153.6900 C   0  0  0  0  0  2  0  0  0  0  0  0
  161.6580  208.4770  153.4940 C   0  0  0  0  0  2  0  0  0  0  0  0
  160.4390  206.9950  155.0270 C   0  0  0  0  0  2  0  0  0  0  0  0
  161.2780  208.2630  154.9510 C   0  0  2  0  0  3  0  0  0  0  0  0
  160.9580  205.5770  149.5230 C   0  0  0  0  0  2  0  0  0  0  0  0
  161.7730  208.9470  150.2450 O   0  0  0  0  0  0  0  0  0  0  0  0
  160.9780  207.0320  149.0800 C   0  0  1  0  0  3  0  0  0  0  0  0
  161.4940  207.7580  150.2650 C   0  0  0  0  0  0  0  0  0  0  0  0
  161.1070  205.5510  151.0440 C   0  0  0  0  0  2  0  0  0  0  0  0
  161.6580  206.9020  151.4720 C   0  0  2  0  0  3  0  0  0  0  0  0
  161.8600  207.1770  148.0070 O   0  0  0  0  0  0  0  0  0  0  0  0
  161.8580  205.9350  147.3710 C   0  0  0  0  0  1  0  0  0  0  0  0
  163.5120  210.4600  157.2610 N   0  0  0  0  0  1  0  0  0  0  0  0
  162.6880  210.6680  156.1180 C   0  0  0  0  0  0  0  0  0  0  0  0
  163.2180  211.0560  155.0450 O   0  0  0  0  0  0  0  0  0  0  0  0
  159.0870  209.4690  155.3720 C   0  0  0  0  0  2  0  0  0  0  0  0
  159.3000  211.1430  153.5140 C   0  0  0  0  0  3  0  0  0  0  0  0
  157.1720  212.6330  154.5500 C   0  0  0  0  0  3  0  0  0  0  0  0
  158.6540  210.7190  154.6810 C   0  0  0  0  0  0  0  0  0  0  0  0
  157.8160  213.0520  153.3820 C   0  0  0  0  0  3  0  0  0  0  0  0
  158.8810  212.3080  152.8650 C   0  0  0  0  0  0  0  0  0  0  0  0
  157.5910  211.4680  155.1990 C   0  0  0  0  0  3  0  0  0  0  0  0
  160.0770  213.0860  150.7000 N   0  0  0  0  0  0  0  0  0  0  0  0
  159.5430  212.7380  151.6660 C   0  0  0  0  0  0  0  0  0  0  0  0
  1  2  2  0  0  0  0
  3  1  1  0  0  0  0
  4  6  1  1  0  0  0
  4  5  1  0  0  0  0
  5  7  1  0  0  0  0
  6  8  1  0  0  0  0
  8  7  1  0  0  0  0
  8  3  1  6  0  0  0
  9 13  1  0  0  0  0
 10 12  2  0  0  0  0
 11 15  1  6  0  0  0
 11  9  1  0  0  0  0
 11 12  1  0  0  0  0
 12 14  1  0  0  0  0
 14 13  1  6  0  0  0
 14  4  1  0  0  0  0
 16 15  1  0  0  0  0
 18  1  1  0  0  0  0
 18 17  1  0  0  0  0
 19 18  2  0  0  0  0
 20  3  1  0  0  0  0
 21 23  1  0  0  0  0
 22 26  1  0  0  0  0
 23 26  2  0  0  0  0
 23 20  1  0  0  0  0
 24 22  2  0  0  0  0
 25 24  1  0  0  0  0
 25 21  2  0  0  0  0
 27 28  3  0  0  0  0
 28 25  1  0  0  0  0
M  END
>  <MODEL>
3

>  <REMARK>
 VINA RESULT:      -6.7      4.316      9.109
  Name = 
  7 active torsions:
  status: ('A' for Active; 'I' for Inactive)
    1  A    between atoms: C_1  and  C_9
    2  A    between atoms: O_3  and  C_12
    3  A    between atoms: C_8  and  C_14
    4  A    between atoms: C_13  and  C_17
    5  A    between atoms: C_14  and  N_25
    6  A    between atoms: C_22  and  N_25
    7  A    between atoms: C_26  and  C_27
                            x       y       z     vdW  Elec       q    Type
                         _______ _______ _______ _____ _____    ______ ____

>  <TORSDO>
F 7

$$$$
=
 OpenBabel11072411163D

 28 30  0  0  1  0  0  0  0  0999 V2000
  162.2620  209.9060  151.0570 C   0  0  0  0  0  0  0  0  0  0  0  0
  163.0590  210.1540  152.0030 O   0  0  0  0  0  0  0  0  0  0  0  0
  161.9500  208.5340  150.7400 N   0  0  0  0  0  0  0  0  0  0  0  0
  161.6290  205.9500  148.4880 C   0  0  1  0  0  3  0  0  0  0  0  0
  162.2640  206.9390  147.5360 C   0  0  0  0  0  2  0  0  0  0  0  0
  160.7950  206.7700  149.4600 C   0  0  0  0  0  2  0  0  0  0  0  0
  162.4540  208.2010  148.3490 C   0  0  0  0  0  2  0  0  0  0  0  0
  161.3880  208.1700  149.4360 C   0  0  2  0  0  3  0  0  0  0  0  0
  161.3820  203.4070  145.8440 C   0  0  0  0  0  2  0  0  0  0  0  0
  161.0600  203.1050  149.3580 O   0  0  0  0  0  0  0  0  0  0  0  0
  161.5890  202.5740  147.1010 C   0  0  1  0  0  3  0  0  0  0  0  0
  161.1590  203.4740  148.1980 C   0  0  0  0  0  0  0  0  0  0  0  0
  161.1950  204.8610  146.2740 C   0  0  0  0  0  2  0  0  0  0  0  0
  160.8410  204.8590  147.7530 C   0  0  2  0  0  3  0  0  0  0  0  0
  160.7640  201.4490  147.0520 O   0  0  0  0  0  0  0  0  0  0  0  0
  160.4330  201.3060  145.7040 C   0  0  0  0  0  1  0  0  0  0  0  0
  162.2420  211.4550  149.0830 N   0  0  0  0  0  1  0  0  0  0  0  0
  161.6750  211.0460  150.3220 C   0  0  0  0  0  0  0  0  0  0  0  0
  160.6920  211.6820  150.7850 O   0  0  0  0  0  0  0  0  0  0  0  0
  162.2990  207.4860  151.7020 C   0  0  0  0  0  2  0  0  0  0  0  0
  161.0120  208.8790  153.3470 C   0  0  0  0  0  3  0  0  0  0  0  0
  160.4660  206.6210  154.9040 C   0  0  0  0  0  3  0  0  0  0  0  0
  161.4980  207.6270  152.9540 C   0  0  0  0  0  0  0  0  0  0  0  0
  159.9780  207.8730  155.2910 C   0  0  0  0  0  3  0  0  0  0  0  0
  160.2520  209.0020  154.5140 C   0  0  0  0  0  0  0  0  0  0  0  0
  161.2260  206.4980  153.7370 C   0  0  0  0  0  3  0  0  0  0  0  0
  159.3480  211.3230  155.2330 N   0  0  0  0  0  0  0  0  0  0  0  0
  159.7520  210.2860  154.9120 C   0  0  0  0  0  0  0  0  0  0  0  0
  1  2  2  0  0  0  0
  3  1  1  0  0  0  0
  3 20  1  0  0  0  0
  4  5  1  6  0  0  0
  4  6  1  0  0  0  0
  5  7  1  0  0  0  0
  7  8  1  0  0  0  0
  8  6  1  0  0  0  0
  8  3  1  1  0  0  0
  9 13  1  0  0  0  0
  9 11  1  0  0  0  0
 11 15  1  6  0  0  0
 11 12  1  0  0  0  0
 12 10  2  0  0  0  0
 14 13  1  6  0  0  0
 14 12  1  0  0  0  0
 14  4  1  0  0  0  0
 16 15  1  0  0  0  0
 17 18  1  0  0  0  0
 18 19  2  0  0  0  0
 18  1  1  0  0  0  0
 20 23  1  0  0  0  0
 21 25  1  0  0  0  0
 22 24  1  0  0  0  0
 23 21  2  0  0  0  0
 23 26  1  0  0  0  0
 25 28  1  0  0  0  0
 25 24  2  0  0  0  0
 26 22  2  0  0  0  0
 28 27  3  0  0  0  0
M  END
>  <MODEL>
4

>  <REMARK>
 VINA RESULT:      -6.6      3.172      7.801
  Name = 
  7 active torsions:
  status: ('A' for Active; 'I' for Inactive)
    1  A    between atoms: C_1  and  C_9
    2  A    between atoms: O_3  and  C_12
    3  A    between atoms: C_8  and  C_14
    4  A    between atoms: C_13  and  C_17
    5  A    between atoms: C_14  and  N_25
    6  A    between atoms: C_22  and  N_25
    7  A    between atoms: C_26  and  C_27
                            x       y       z     vdW  Elec       q    Type
                         _______ _______ _______ _____ _____    ______ ____

>  <TORSDO>
F 7

$$$$
=
 OpenBabel11072411163D

 28 30  0  0  1  0  0  0  0  0999 V2000
  161.2540  210.5780  155.3430 C   0  0  0  0  0  0  0  0  0  0  0  0
  160.4110  211.3790  155.8320 O   0  0  0  0  0  0  0  0  0  0  0  0
  160.8540  209.7040  154.2680 N   0  0  0  0  0  0  0  0  0  0  0  0
  161.0600  207.0480  152.0880 C   0  0  1  0  0  3  0  0  0  0  0  0
  160.9910  206.2310  153.3600 C   0  0  0  0  0  2  0  0  0  0  0  0
  161.7920  208.3310  152.4460 C   0  0  0  0  0  2  0  0  0  0  0  0
  160.9360  207.2490  154.4780 C   0  0  0  0  0  2  0  0  0  0  0  0
  161.6240  208.4990  153.9480 C   0  0  2  0  0  3  0  0  0  0  0  0
  161.0040  204.2570  149.6940 C   0  0  0  0  0  2  0  0  0  0  0  0
  161.1420  207.7530  149.1440 O   0  0  0  0  0  0  0  0  0  0  0  0
  160.6220  205.4530  148.8340 C   0  0  1  0  0  3  0  0  0  0  0  0
  161.1460  206.6160  149.5900 C   0  0  0  0  0  0  0  0  0  0  0  0
  161.4000  204.7820  151.0730 C   0  0  0  0  0  2  0  0  0  0  0  0
  161.6950  206.2670  150.9300 C   0  0  2  0  0  3  0  0  0  0  0  0
  161.2610  205.3570  147.5960 O   0  0  0  0  0  0  0  0  0  0  0  0
  161.6820  204.0290  147.5140 C   0  0  0  0  0  1  0  0  0  0  0  0
  162.8390  210.2400  157.2600 N   0  0  0  0  0  1  0  0  0  0  0  0
  162.6250  210.5830  155.8950 C   0  0  0  0  0  0  0  0  0  0  0  0
  163.6110  210.9110  155.1850 O   0  0  0  0  0  0  0  0  0  0  0  0
  159.6020  209.9780  153.5590 C   0  0  0  0  0  2  0  0  0  0  0  0
  160.5010  211.1840  151.5490 C   0  0  0  0  0  3  0  0  0  0  0  0
  159.1620  213.5230  152.2950 C   0  0  0  0  0  3  0  0  0  0  0  0
  159.7270  211.2030  152.7150 C   0  0  0  0  0  0  0  0  0  0  0  0
  159.9330  213.5000  151.1290 C   0  0  0  0  0  3  0  0  0  0  0  0
  160.6040  212.3310  150.7570 C   0  0  0  0  0  0  0  0  0  0  0  0
  159.0590  212.3760  153.0870 C   0  0  0  0  0  3  0  0  0  0  0  0
  162.0340  212.2890  148.5950 N   0  0  0  0  0  0  0  0  0  0  0  0
  161.3960  212.3070  149.5600 C   0  0  0  0  0  0  0  0  0  0  0  0
  1  2  2  0  0  0  0
  1 18  1  0  0  0  0
  3  1  1  0  0  0  0
  4  6  1  1  0  0  0
  4  5  1  0  0  0  0
  5  7  1  0  0  0  0
  6  8  1  0  0  0  0
  8  3  1  6  0  0  0
  8  7  1  0  0  0  0
  9 13  1  0  0  0  0
 10 12  2  0  0  0  0
 11 15  1  6  0  0  0
 11 12  1  0  0  0  0
 11  9  1  0  0  0  0
 12 14  1  0  0  0  0
 14 13  1  1  0  0  0
 14  4  1  0  0  0  0
 16 15  1  0  0  0  0
 18 17  1  0  0  0  0
 19 18  2  0  0  0  0
 20  3  1  0  0  0  0
 21 23  1  0  0  0  0
 22 26  1  0  0  0  0
 23 26  2  0  0  0  0
 23 20  1  0  0  0  0
 24 22  2  0  0  0  0
 25 24  1  0  0  0  0
 25 21  2  0  0  0  0
 27 28  3  0  0  0  0
 28 25  1  0  0  0  0
M  END
>  <MODEL>
5

>  <REMARK>
 VINA RESULT:      -6.6      3.719      8.825
  Name = 
  7 active torsions:
  status: ('A' for Active; 'I' for Inactive)
    1  A    between atoms: C_1  and  C_9
    2  A    between atoms: O_3  and  C_12
    3  A    between atoms: C_8  and  C_14
    4  A    between atoms: C_13  and  C_17
    5  A    between atoms: C_14  and  N_25
    6  A    between atoms: C_22  and  N_25
    7  A    between atoms: C_26  and  C_27
                            x       y       z     vdW  Elec       q    Type
                         _______ _______ _______ _____ _____    ______ ____

>  <TORSDO>
F 7

$$$$
=
 OpenBabel11072411163D

 28 30  0  0  1  0  0  0  0  0999 V2000
  161.8640  209.6060  151.8560 C   0  0  0  0  0  0  0  0  0  0  0  0
  162.7020  209.7900  152.7810 O   0  0  0  0  0  0  0  0  0  0  0  0
  162.0040  208.4550  150.9970 N   0  0  0  0  0  0  0  0  0  0  0  0
  161.5610  206.5080  148.1930 C   0  0  1  0  0  3  0  0  0  0  0  0
  162.0890  207.7330  147.4790 C   0  0  0  0  0  2  0  0  0  0  0  0
  160.7910  207.0190  149.4000 C   0  0  0  0  0  2  0  0  0  0  0  0
  162.3140  208.7570  148.5700 C   0  0  0  0  0  2  0  0  0  0  0  0
  161.3450  208.4050  149.6890 C   0  0  2  0  0  3  0  0  0  0  0  0
  160.8110  205.1930  144.8420 C   0  0  0  0  0  2  0  0  0  0  0  0
  161.7520  203.5090  147.8130 O   0  0  0  0  0  0  0  0  0  0  0  0
  161.5540  204.0410  145.5030 C   0  0  1  0  0  3  0  0  0  0  0  0
  161.3940  204.3010  146.9540 C   0  0  0  0  0  0  0  0  0  0  0  0
  160.5670  206.2620  145.9060 C   0  0  0  0  0  2  0  0  0  0  0  0
  160.7410  205.6030  147.2650 C   0  0  2  0  0  3  0  0  0  0  0  0
  160.9390  202.8350  145.1600 O   0  0  0  0  0  0  0  0  0  0  0  0
  159.7950  203.2060  144.4520 C   0  0  0  0  0  1  0  0  0  0  0  0
  160.9010  211.6680  150.7970 N   0  0  0  0  0  1  0  0  0  0  0  0
  160.7630  210.5800  151.7060 C   0  0  0  0  0  0  0  0  0  0  0  0
  159.7100  210.4830  152.3880 O   0  0  0  0  0  0  0  0  0  0  0  0
  162.9040  207.3730  151.4010 C   0  0  0  0  0  2  0  0  0  0  0  0
  161.9910  205.0360  151.3150 C   0  0  0  0  0  3  0  0  0  0  0  0
  160.8590  205.3350  153.8550 C   0  0  0  0  0  3  0  0  0  0  0  0
  162.1370  206.2440  152.0070 C   0  0  0  0  0  0  0  0  0  0  0  0
  160.7180  204.1280  153.1630 C   0  0  0  0  0  3  0  0  0  0  0  0
  161.2820  203.9790  151.8930 C   0  0  0  0  0  0  0  0  0  0  0  0
  161.5670  206.3920  153.2770 C   0  0  0  0  0  3  0  0  0  0  0  0
  161.0200  201.7410  150.6110 N   0  0  0  0  0  0  0  0  0  0  0  0
  161.1370  202.7400  151.1830 C   0  0  0  0  0  0  0  0  0  0  0  0
  1  2  2  0  0  0  0
  3 20  1  0  0  0  0
  3  1  1  0  0  0  0
  4  5  1  6  0  0  0
  4  6  1  0  0  0  0
  5  7  1  0  0  0  0
  6  8  1  0  0  0  0
  7  8  1  0  0  0  0
  8  3  1  1  0  0  0
  9 11  1  0  0  0  0
  9 13  1  0  0  0  0
 11 15  1  1  0  0  0
 11 12  1  0  0  0  0
 12 14  1  0  0  0  0
 12 10  2  0  0  0  0
 14 13  1  6  0  0  0
 14  4  1  0  0  0  0
 16 15  1  0  0  0  0
 17 18  1  0  0  0  0
 18  1  1  0  0  0  0
 18 19  2  0  0  0  0
 20 23  1  0  0  0  0
 21 25  2  0  0  0  0
 21 23  1  0  0  0  0
 23 26  2  0  0  0  0
 24 22  2  0  0  0  0
 25 24  1  0  0  0  0
 26 22  1  0  0  0  0
 27 28  3  0  0  0  0
 28 25  1  0  0  0  0
M  END
>  <MODEL>
6

>  <REMARK>
 VINA RESULT:      -6.5      2.557      6.633
  Name = 
  7 active torsions:
  status: ('A' for Active; 'I' for Inactive)
    1  A    between atoms: C_1  and  C_9
    2  A    between atoms: O_3  and  C_12
    3  A    between atoms: C_8  and  C_14
    4  A    between atoms: C_13  and  C_17
    5  A    between atoms: C_14  and  N_25
    6  A    between atoms: C_22  and  N_25
    7  A    between atoms: C_26  and  C_27
                            x       y       z     vdW  Elec       q    Type
                         _______ _______ _______ _____ _____    ______ ____

>  <TORSDO>
F 7

$$$$
=
 OpenBabel11072411163D

 28 30  0  0  1  0  0  0  0  0999 V2000
  160.8970  204.2170  150.4990 C   0  0  0  0  0  0  0  0  0  0  0  0
  160.4680  203.4100  149.6290 O   0  0  0  0  0  0  0  0  0  0  0  0
  161.0890  205.6000  150.1420 N   0  0  0  0  0  0  0  0  0  0  0  0
  161.1540  208.5420  151.9290 C   0  0  1  0  0  3  0  0  0  0  0  0
  162.2940  208.8760  150.9930 C   0  0  0  0  0  2  0  0  0  0  0  0
  161.2060  207.0380  152.1430 C   0  0  0  0  0  2  0  0  0  0  0  0
  162.4600  207.6500  150.1220 C   0  0  0  0  0  2  0  0  0  0  0  0
  161.9510  206.4740  150.9440 C   0  0  2  0  0  3  0  0  0  0  0  0
  159.4780  210.4960  154.5550 C   0  0  0  0  0  2  0  0  0  0  0  0
  161.4540  207.5660  154.7810 O   0  0  0  0  0  0  0  0  0  0  0  0
  159.7590  209.1690  155.2440 C   0  0  1  0  0  3  0  0  0  0  0  0
  160.8660  208.5840  154.4500 C   0  0  0  0  0  0  0  0  0  0  0  0
  160.1650  210.4680  153.1900 C   0  0  0  0  0  2  0  0  0  0  0  0
  161.2070  209.3610  153.2260 C   0  0  2  0  0  3  0  0  0  0  0  0
  160.1810  209.4070  156.5530 O   0  0  0  0  0  0  0  0  0  0  0  0
  159.6060  210.6300  156.8980 C   0  0  0  0  0  1  0  0  0  0  0  0
  161.9140  202.4960  152.0170 N   0  0  0  0  0  1  0  0  0  0  0  0
  161.1710  203.7000  151.8560 C   0  0  0  0  0  0  0  0  0  0  0  0
  160.7370  204.2930  152.8780 O   0  0  0  0  0  0  0  0  0  0  0  0
  160.4940  206.1030  148.9020 C   0  0  0  0  0  2  0  0  0  0  0  0
  160.6830  204.2530  147.2150 C   0  0  0  0  0  3  0  0  0  0  0  0
  162.8160  205.5550  145.9580 C   0  0  0  0  0  3  0  0  0  0  0  0
  161.1420  205.4790  147.7110 C   0  0  0  0  0  0  0  0  0  0  0  0
  162.3520  204.3320  145.4630 C   0  0  0  0  0  3  0  0  0  0  0  0
  161.2870  203.6810  146.0920 C   0  0  0  0  0  0  0  0  0  0  0  0
  162.2120  206.1270  147.0820 C   0  0  0  0  0  3  0  0  0  0  0  0
  160.4290  201.4140  145.1740 N   0  0  0  0  0  0  0  0  0  0  0  0
  160.8120  202.4260  145.5840 C   0  0  0  0  0  0  0  0  0  0  0  0
  1 18  1  0  0  0  0
  2  1  2  0  0  0  0
  3  1  1  0  0  0  0
  4  5  1  6  0  0  0
  4  6  1  0  0  0  0
  4 14  1  0  0  0  0
  7  8  1  0  0  0  0
  7  5  1  0  0  0  0
  8  3  1  6  0  0  0
  8  6  1  0  0  0  0
  9 11  1  0  0  0  0
 11 15  1  1  0  0  0
 12 10  2  0  0  0  0
 12 11  1  0  0  0  0
 13  9  1  0  0  0  0
 14 13  1  6  0  0  0
 14 12  1  0  0  0  0
 15 16  1  0  0  0  0
 18 17  1  0  0  0  0
 18 19  2  0  0  0  0
 20  3  1  0  0  0  0
 21 23  1  0  0  0  0
 22 26  1  0  0  0  0
 23 20  1  0  0  0  0
 24 22  2  0  0  0  0
 24 25  1  0  0  0  0
 25 21  2  0  0  0  0
 26 23  2  0  0  0  0
 27 28  3  0  0  0  0
 28 25  1  0  0  0  0
M  END
>  <MODEL>
7

>  <REMARK>
 VINA RESULT:      -6.3      2.364      3.686
  Name = 
  7 active torsions:
  status: ('A' for Active; 'I' for Inactive)
    1  A    between atoms: C_1  and  C_9
    2  A    between atoms: O_3  and  C_12
    3  A    between atoms: C_8  and  C_14
    4  A    between atoms: C_13  and  C_17
    5  A    between atoms: C_14  and  N_25
    6  A    between atoms: C_22  and  N_25
    7  A    between atoms: C_26  and  C_27
                            x       y       z     vdW  Elec       q    Type
                         _______ _______ _______ _____ _____    ______ ____

>  <TORSDO>
F 7

$$$$
=
 OpenBabel11072411163D

 28 30  0  0  1  0  0  0  0  0999 V2000
  161.0230  203.9940  150.4720 C   0  0  0  0  0  0  0  0  0  0  0  0
  160.7660  203.2540  149.4830 O   0  0  0  0  0  0  0  0  0  0  0  0
  161.1000  205.4210  150.2820 N   0  0  0  0  0  0  0  0  0  0  0  0
  160.7700  208.2770  152.1760 C   0  0  1  0  0  3  0  0  0  0  0  0
  162.0430  208.6800  151.4650 C   0  0  0  0  0  2  0  0  0  0  0  0
  160.8300  206.7660  152.3330 C   0  0  0  0  0  2  0  0  0  0  0  0
  162.3920  207.5000  150.5850 C   0  0  0  0  0  2  0  0  0  0  0  0
  161.7860  206.2760  151.2570 C   0  0  2  0  0  3  0  0  0  0  0  0
  161.9390  210.7050  154.6790 C   0  0  0  0  0  2  0  0  0  0  0  0
  158.9620  210.6360  152.7610 O   0  0  0  0  0  0  0  0  0  0  0  0
  160.8500  211.4710  153.9410 C   0  0  1  0  0  3  0  0  0  0  0  0
  160.0170  210.4070  153.3310 C   0  0  0  0  0  0  0  0  0  0  0  0
  161.9170  209.2630  154.1740 C   0  0  0  0  0  2  0  0  0  0  0  0
  160.5750  209.0360  153.4960 C   0  0  2  0  0  3  0  0  0  0  0  0
  160.0960  212.2040  154.8600 O   0  0  0  0  0  0  0  0  0  0  0  0
  160.4750  211.7100  156.1090 C   0  0  0  0  0  1  0  0  0  0  0  0
  162.2740  202.4130  151.9660 N   0  0  0  0  0  1  0  0  0  0  0  0
  161.2220  203.3540  151.7900 C   0  0  0  0  0  0  0  0  0  0  0  0
  160.4590  203.6080  152.7580 O   0  0  0  0  0  0  0  0  0  0  0  0
  160.5750  206.0030  149.0460 C   0  0  0  0  0  2  0  0  0  0  0  0
  160.7340  204.1930  147.3140 C   0  0  0  0  0  3  0  0  0  0  0  0
  162.9370  205.4510  146.1350 C   0  0  0  0  0  3  0  0  0  0  0  0
  161.2260  205.3880  147.8510 C   0  0  0  0  0  0  0  0  0  0  0  0
  162.4410  204.2590  145.5970 C   0  0  0  0  0  3  0  0  0  0  0  0
  161.3410  203.6290  146.1870 C   0  0  0  0  0  0  0  0  0  0  0  0
  162.3300  206.0140  147.2610 C   0  0  0  0  0  3  0  0  0  0  0  0
  160.4220  201.4190  145.1910 N   0  0  0  0  0  0  0  0  0  0  0  0
  160.8330  202.4060  145.6360 C   0  0  0  0  0  0  0  0  0  0  0  0
  1 18  1  0  0  0  0
  2  1  2  0  0  0  0
  3  1  1  0  0  0  0
  4  5  1  1  0  0  0
  4  6  1  0  0  0  0
  4 14  1  0  0  0  0
  7  8  1  0  0  0  0
  7  5  1  0  0  0  0
  8  3  1  6  0  0  0
  8  6  1  0  0  0  0
 10 12  2  0  0  0  0
 11  9  1  0  0  0  0
 11 15  1  1  0  0  0
 12 14  1  0  0  0  0
 12 11  1  0  0  0  0
 13  9  1  0  0  0  0
 14 13  1  6  0  0  0
 15 16  1  0  0  0  0
 18 17  1  0  0  0  0
 18 19  2  0  0  0  0
 20  3  1  0  0  0  0
 21 23  1  0  0  0  0
 22 26  1  0  0  0  0
 23 20  1  0  0  0  0
 24 22  2  0  0  0  0
 24 25  1  0  0  0  0
 25 21  2  0  0  0  0
 26 23  2  0  0  0  0
 27 28  3  0  0  0  0
 28 25  1  0  0  0  0
M  END
>  <MODEL>
8

>  <REMARK>
 VINA RESULT:      -6.2      2.400      3.802
  Name = 
  7 active torsions:
  status: ('A' for Active; 'I' for Inactive)
    1  A    between atoms: C_1  and  C_9
    2  A    between atoms: O_3  and  C_12
    3  A    between atoms: C_8  and  C_14
    4  A    between atoms: C_13  and  C_17
    5  A    between atoms: C_14  and  N_25
    6  A    between atoms: C_22  and  N_25
    7  A    between atoms: C_26  and  C_27
                            x       y       z     vdW  Elec       q    Type
                         _______ _______ _______ _____ _____    ______ ____

>  <TORSDO>
F 7

$$$$
=
 OpenBabel11072411163D

 28 30  0  0  1  0  0  0  0  0999 V2000
  160.4000  208.8390  156.1820 C   0  0  0  0  0  0  0  0  0  0  0  0
  160.4360  209.6330  157.1610 O   0  0  0  0  0  0  0  0  0  0  0  0
  160.7590  209.3200  154.8710 N   0  0  0  0  0  0  0  0  0  0  0  0
  161.9490  207.6080  152.1310 C   0  0  1  0  0  3  0  0  0  0  0  0
  161.1310  208.6250  151.3650 C   0  0  0  0  0  2  0  0  0  0  0  0
  161.2090  207.3640  153.4360 C   0  0  0  0  0  2  0  0  0  0  0  0
  160.4700  209.4770  152.4270 C   0  0  0  0  0  2  0  0  0  0  0  0
  160.3490  208.5970  153.6630 C   0  0  2  0  0  3  0  0  0  0  0  0
  160.7740  204.4580  150.6410 C   0  0  0  0  0  2  0  0  0  0  0  0
  162.2370  207.3080  149.1310 O   0  0  0  0  0  0  0  0  0  0  0  0
  160.8650  205.3910  149.4420 C   0  0  1  0  0  3  0  0  0  0  0  0
  161.8120  206.4440  149.8810 C   0  0  0  0  0  0  0  0  0  0  0  0
  161.3700  205.1880  151.8450 C   0  0  0  0  0  2  0  0  0  0  0  0
  162.2100  206.3370  151.3120 C   0  0  2  0  0  3  0  0  0  0  0  0
  161.3930  204.6950  148.3520 O   0  0  0  0  0  0  0  0  0  0  0  0
  161.1980  203.3480  148.6600 C   0  0  0  0  0  1  0  0  0  0  0  0
  160.8180  206.6040  157.2460 N   0  0  0  0  0  1  0  0  0  0  0  0
  160.0000  207.4380  156.4320 C   0  0  0  0  0  0  0  0  0  0  0  0
  158.9570  206.9570  155.9170 O   0  0  0  0  0  0  0  0  0  0  0  0
  161.4530  210.6050  154.7510 C   0  0  0  0  0  2  0  0  0  0  0  0
  159.6500  212.1190  153.8790 C   0  0  0  0  0  3  0  0  0  0  0  0
  159.5520  213.4830  156.3190 C   0  0  0  0  0  3  0  0  0  0  0  0
  160.5000  211.7410  154.9250 C   0  0  0  0  0  0  0  0  0  0  0  0
  158.7010  213.8560  155.2740 C   0  0  0  0  0  3  0  0  0  0  0  0
  158.7510  213.1750  154.0540 C   0  0  0  0  0  0  0  0  0  0  0  0
  160.4510  212.4270  156.1440 C   0  0  0  0  0  3  0  0  0  0  0  0
  157.1740  213.8680  152.1160 N   0  0  0  0  0  0  0  0  0  0  0  0
  157.8780  213.5590  152.9810 C   0  0  0  0  0  0  0  0  0  0  0  0
  1 18  1  0  0  0  0
  1  2  2  0  0  0  0
  3  1  1  0  0  0  0
  4  5  1  6  0  0  0
  4  6  1  0  0  0  0
  5  7  1  0  0  0  0
  6  8  1  0  0  0  0
  7  8  1  0  0  0  0
  8  3  1  1  0  0  0
  9 13  1  0  0  0  0
 10 12  2  0  0  0  0
 11 15  1  6  0  0  0
 11 12  1  0  0  0  0
 11  9  1  0  0  0  0
 12 14  1  0  0  0  0
 14 13  1  1  0  0  0
 14  4  1  0  0  0  0
 15 16  1  0  0  0  0
 18 17  1  0  0  0  0
 19 18  2  0  0  0  0
 20  3  1  0  0  0  0
 20 23  1  0  0  0  0
 21 25  2  0  0  0  0
 21 23  1  0  0  0  0
 23 26  2  0  0  0  0
 24 22  2  0  0  0  0
 25 24  1  0  0  0  0
 26 22  1  0  0  0  0
 27 28  3  0  0  0  0
 28 25  1  0  0  0  0
M  END
>  <MODEL>
9

>  <REMARK>
 VINA RESULT:      -5.9      3.945      9.419
  Name = 
  7 active torsions:
  status: ('A' for Active; 'I' for Inactive)
    1  A    between atoms: C_1  and  C_9
    2  A    between atoms: O_3  and  C_12
    3  A    between atoms: C_8  and  C_14
    4  A    between atoms: C_13  and  C_17
    5  A    between atoms: C_14  and  N_25
    6  A    between atoms: C_22  and  N_25
    7  A    between atoms: C_26  and  C_27
                            x       y       z     vdW  Elec       q    Type
                         _______ _______ _______ _____ _____    ______ ____

>  <TORSDO>
F 7

$$$$
