=
 OpenBabel11072413193D

 44 48  0  0  1  0  0  0  0  0999 V2000
  161.7540  207.1200  148.8980 C   0  0  2  0  0  3  0  0  0  0  0  0
  159.1820  211.3280  156.3780 C   0  0  0  0  0  0  0  0  0  0  0  0
  163.2060  206.8840  150.7700 F   0  0  0  0  0  0  0  0  0  0  0  0
  160.2190  212.0140  156.9900 F   0  0  0  0  0  0  0  0  0  0  0  0
  159.5660  209.8530  156.1800 C   0  0  1  0  0  3  0  0  0  0  0  0
  161.2050  208.2020  151.1240 C   0  0  2  0  0  3  0  0  0  0  0  0
  161.8700  206.9890  150.4230 C   0  0  1  0  0  3  0  0  0  0  0  0
  160.8670  211.4570  147.4610 O   0  0  0  0  0  1  0  0  0  0  0  0
  158.6790  209.1900  155.3480 F   0  0  0  0  0  0  0  0  0  0  0  0
  160.7430  209.3230  153.2760 C   0  0  0  0  0  2  0  0  0  0  0  0
  162.4350  210.9360  149.0370 C   0  0  1  0  0  3  0  0  0  0  0  0
  161.0470  212.9750  149.2220 C   0  0  2  0  0  3  0  0  0  0  0  0
  161.1010  209.3780  150.3370 O   0  0  0  0  0  0  0  0  0  0  0  0
  157.1880  212.8220  153.4380 C   0  0  0  0  0  3  0  0  0  0  0  0
  161.7680  208.5140  152.5050 C   0  0  0  0  0  2  0  0  0  0  0  0
  161.0240  209.5970  155.7880 C   0  0  0  0  0  2  0  0  0  0  0  0
  162.2310  208.4970  148.4020 C   0  0  0  0  0  2  0  0  0  0  0  0
  161.2350  211.6180  154.2710 C   0  0  0  0  0  2  0  0  0  0  0  0
  161.1180  211.5620  148.7900 N   0  0  0  0  0  0  0  0  0  0  0  0
  159.4520  212.4210  152.7030 C   0  0  0  0  0  0  0  0  0  0  0  0
  163.3260  211.6760  150.0340 C   0  0  0  0  0  1  0  0  0  0  0  0
  162.2580  209.5090  149.5440 C   0  0  1  0  0  3  0  0  0  0  0  0
  159.8100  212.0340  154.0110 C   0  0  0  0  0  0  0  0  0  0  0  0
  158.1170  212.7260  152.4120 C   0  0  0  0  0  0  0  0  0  0  0  0
  157.7160  212.9980  151.0660 N   0  0  0  0  0  2  0  0  0  0  0  0
  158.1210  211.3080  157.2600 F   0  0  0  0  0  0  0  0  0  0  0  0
  157.5320  212.5180  154.7570 C   0  0  0  0  0  0  0  0  0  0  0  0
  158.8340  212.0060  155.0460 C   0  0  0  0  0  0  0  0  0  0  0  0
  158.6260  212.7630  149.9530 C   0  0  0  0  0  2  0  0  0  0  0  0
  160.0350  213.1950  150.3520 C   0  0  1  0  0  3  0  0  0  0  0  0
  160.4750  212.4090  151.5920 C   0  0  0  0  0  2  0  0  0  0  0  0
  161.4110  210.1050  154.4010 C   0  0  2  0  0  3  0  0  0  0  0  0
  155.5370  212.0740  155.9660 O   0  0  0  0  0  0  0  0  0  0  0  0
  156.5200  212.8400  155.7810 C   0  0  0  0  0  0  0  0  0  0  0  0
  156.5840  214.0770  156.4890 N   0  0  0  0  0  1  0  0  0  0  0  0
  161.0680  214.0430  148.1120 C   0  0  0  0  0  2  0  0  0  0  0  0
  162.4690  214.4520  147.6830 C   0  0  0  0  0  2  0  0  0  0  0  0
  162.5890  214.3420  146.2980 O   0  0  0  0  0  1  0  0  0  0  0  0
  160.4290  206.9070  148.5060 O   0  0  0  0  0  0  0  0  0  0  0  0
  160.4960  206.5580  147.1530 C   0  0  0  0  0  2  0  0  0  0  0  0
  162.5910  205.4770  146.8720 O   0  0  0  0  0  1  0  0  0  0  0  0
  160.7730  204.5900  145.8340 O   0  0  0  0  0  1  0  0  0  0  0  0
  160.9950  204.4310  148.0850 F   0  0  0  0  0  0  0  0  0  0  0  0
  161.2240  205.2350  146.9850 C   0  0  0  0  0  0  0  0  0  0  0  0
  1 39  1  1  0  0  0
  1  7  1  0  0  0  0
  2  4  1  0  0  0  0
  2 26  1  0  0  0  0
  5  9  1  6  0  0  0
  5  2  1  0  0  0  0
  6 15  1  1  0  0  0
  7  3  1  6  0  0  0
  7  6  1  0  0  0  0
  8 19  1  0  0  0  0
 11 22  1  0  0  0  0
 11 21  1  1  0  0  0
 12 36  1  6  0  0  0
 12 30  1  0  0  0  0
 13  6  1  0  0  0  0
 14 27  1  0  0  0  0
 15 10  1  0  0  0  0
 16  5  1  0  0  0  0
 17  1  1  0  0  0  0
 18 32  1  0  0  0  0
 19 11  1  0  0  0  0
 19 12  1  0  0  0  0
 20 23  2  0  0  0  0
 22 17  1  6  0  0  0
 22 13  1  0  0  0  0
 23 18  1  0  0  0  0
 23 28  1  0  0  0  0
 24 20  1  0  0  0  0
 24 14  2  0  0  0  0
 25 24  1  0  0  0  0
 27 28  2  0  0  0  0
 27 34  1  0  0  0  0
 28  2  1  0  0  0  0
 29 25  1  0  0  0  0
 30 29  1  6  0  0  0
 30 31  1  0  0  0  0
 31 20  1  0  0  0  0
 32 10  1  6  0  0  0
 32 16  1  0  0  0  0
 34 33  2  0  0  0  0
 34 35  1  0  0  0  0
 37 36  1  0  0  0  0
 38 37  1  0  0  0  0
 40 39  1  0  0  0  0
 41 44  1  0  0  0  0
 42 44  1  0  0  0  0
 44 40  1  0  0  0  0
 44 43  1  0  0  0  0
M  END
>  <MODEL>
1

>  <REMARK>
 VINA RESULT:      -3.7      0.000      0.000
  Name = 
  6 active torsions:
  status: ('A' for Active; 'I' for Inactive)
    1  A    between atoms: C_1  and  O_35
    2  A    between atoms: C_4  and  C_23
    3  A    between atoms: C_16  and  C_23
    4  A    between atoms: C_19  and  C_37
    5  A    between atoms: C_33  and  C_44
    6  A    between atoms: O_35  and  C_44
                            x       y       z     vdW  Elec       q    Type
                         _______ _______ _______ _____ _____    ______ ____

>  <TORSDO>
F 6

$$$$
=
 OpenBabel11072413193D

 44 48  0  0  1  0  0  0  0  0999 V2000
  161.8130  207.5510  149.1660 C   0  0  2  0  0  3  0  0  0  0  0  0
  157.9840  213.1300  155.0390 C   0  0  0  0  0  0  0  0  0  0  0  0
  163.0320  207.9360  151.1760 F   0  0  0  0  0  0  0  0  0  0  0  0
  158.8760  214.0540  155.5600 F   0  0  0  0  0  0  0  0  0  0  0  0
  158.5090  211.7030  155.2600 C   0  0  1  0  0  3  0  0  0  0  0  0
  160.9020  209.0710  150.9800 C   0  0  2  0  0  3  0  0  0  0  0  0
  161.7460  207.8060  150.6790 C   0  0  1  0  0  3  0  0  0  0  0  0
  160.7650  211.2890  146.5990 O   0  0  0  0  0  1  0  0  0  0  0  0
  157.7910  210.7650  154.5360 F   0  0  0  0  0  0  0  0  0  0  0  0
  160.0820  210.6210  152.7200 C   0  0  0  0  0  2  0  0  0  0  0  0
  162.1580  211.3390  148.4070 C   0  0  1  0  0  3  0  0  0  0  0  0
  160.5960  213.1970  147.9280 C   0  0  2  0  0  3  0  0  0  0  0  0
  160.8020  210.0030  149.9150 O   0  0  0  0  0  0  0  0  0  0  0  0
  156.2620  213.6420  151.6300 C   0  0  0  0  0  3  0  0  0  0  0  0
  161.2580  209.7670  152.2870 C   0  0  0  0  0  2  0  0  0  0  0  0
  160.0210  211.5220  155.0970 C   0  0  0  0  0  2  0  0  0  0  0  0
  162.2350  208.8120  148.3910 C   0  0  0  0  0  2  0  0  0  0  0  0
  160.2560  213.1280  153.1480 C   0  0  0  0  0  2  0  0  0  0  0  0
  160.8360  211.7380  147.8760 N   0  0  0  0  0  0  0  0  0  0  0  0
  158.6260  213.3270  151.2550 C   0  0  0  0  0  0  0  0  0  0  0  0
  162.8530  212.3920  149.2700 C   0  0  0  0  0  1  0  0  0  0  0  0
  162.0350  210.0660  149.2360 C   0  0  1  0  0  3  0  0  0  0  0  0
  158.8460  213.3090  152.6470 C   0  0  0  0  0  0  0  0  0  0  0  0
  157.3180  213.4040  150.7610 C   0  0  0  0  0  0  0  0  0  0  0  0
  157.0680  213.2970  149.3570 N   0  0  0  0  0  2  0  0  0  0  0  0
  156.8260  213.2070  155.7850 F   0  0  0  0  0  0  0  0  0  0  0  0
  156.4600  213.7050  153.0110 C   0  0  0  0  0  0  0  0  0  0  0  0
  157.7530  213.4250  153.5510 C   0  0  0  0  0  0  0  0  0  0  0  0
  158.1280  212.9020  148.4380 C   0  0  0  0  0  2  0  0  0  0  0  0
  159.4350  213.5700  148.8560 C   0  0  1  0  0  3  0  0  0  0  0  0
  159.7790  213.1600  150.2930 C   0  0  0  0  0  2  0  0  0  0  0  0
  160.5360  211.7200  153.6730 C   0  0  2  0  0  3  0  0  0  0  0  0
  155.3920  214.2310  155.0650 O   0  0  0  0  0  0  0  0  0  0  0  0
  155.3040  214.1510  153.8110 C   0  0  0  0  0  0  0  0  0  0  0  0
  154.0450  214.3860  153.1830 N   0  0  0  0  0  1  0  0  0  0  0  0
  160.6700  213.9610  146.5920 C   0  0  0  0  0  2  0  0  0  0  0  0
  162.0520  213.9510  145.9570 C   0  0  0  0  0  2  0  0  0  0  0  0
  162.9900  214.4530  146.8580 O   0  0  0  0  0  1  0  0  0  0  0  0
  160.5700  207.1060  148.7090 O   0  0  0  0  0  0  0  0  0  0  0  0
  160.7970  206.6580  147.4030 C   0  0  0  0  0  2  0  0  0  0  0  0
  161.1320  204.6090  146.2520 O   0  0  0  0  0  1  0  0  0  0  0  0
  161.0050  204.5600  148.5210 O   0  0  0  0  0  1  0  0  0  0  0  0
  162.8300  205.4330  147.4960 F   0  0  0  0  0  0  0  0  0  0  0  0
  161.4580  205.2890  147.4220 C   0  0  0  0  0  0  0  0  0  0  0  0
  1 39  1  6  0  0  0
  1  7  1  0  0  0  0
  2  5  1  0  0  0  0
  2  4  1  0  0  0  0
  2 26  1  0  0  0  0
  5  9  1  6  0  0  0
  6 15  1  1  0  0  0
  7  6  1  0  0  0  0
  7  3  1  6  0  0  0
  8 19  1  0  0  0  0
 11 22  1  0  0  0  0
 11 21  1  1  0  0  0
 12 36  1  6  0  0  0
 12 30  1  0  0  0  0
 13  6  1  0  0  0  0
 14 27  1  0  0  0  0
 15 10  1  0  0  0  0
 16  5  1  0  0  0  0
 17  1  1  0  0  0  0
 18 32  1  0  0  0  0
 19 12  1  0  0  0  0
 19 11  1  0  0  0  0
 20 23  2  0  0  0  0
 22 17  1  6  0  0  0
 22 13  1  0  0  0  0
 23 18  1  0  0  0  0
 23 28  1  0  0  0  0
 24 20  1  0  0  0  0
 24 14  2  0  0  0  0
 25 24  1  0  0  0  0
 27 28  2  0  0  0  0
 27 34  1  0  0  0  0
 28  2  1  0  0  0  0
 29 25  1  0  0  0  0
 30 29  1  6  0  0  0
 30 31  1  0  0  0  0
 31 20  1  0  0  0  0
 32 10  1  6  0  0  0
 32 16  1  0  0  0  0
 34 33  2  0  0  0  0
 35 34  1  0  0  0  0
 37 36  1  0  0  0  0
 37 38  1  0  0  0  0
 40 44  1  0  0  0  0
 40 39  1  0  0  0  0
 41 44  1  0  0  0  0
 44 43  1  0  0  0  0
 44 42  1  0  0  0  0
M  END
>  <MODEL>
2

>  <REMARK>
 VINA RESULT:      -1.6      1.538      1.849
  Name = 
  6 active torsions:
  status: ('A' for Active; 'I' for Inactive)
    1  A    between atoms: C_1  and  O_35
    2  A    between atoms: C_4  and  C_23
    3  A    between atoms: C_16  and  C_23
    4  A    between atoms: C_19  and  C_37
    5  A    between atoms: C_33  and  C_44
    6  A    between atoms: O_35  and  C_44
                            x       y       z     vdW  Elec       q    Type
                         _______ _______ _______ _____ _____    ______ ____

>  <TORSDO>
F 6

$$$$
