=
 OpenBabel11072415093D

 39 42  0  0  1  0  0  0  0  0999 V2000
  160.0470  211.8610  153.1970 C   0  0  1  0  0  3  0  0  0  0  0  0
  158.6670  213.9570  146.9160 C   0  0  0  0  0  0  0  0  0  0  0  0
  158.3950  213.9490  149.4380 C   0  0  0  0  0  2  0  0  0  0  0  0
  160.6050  210.4400  153.1190 C   0  0  0  0  0  2  0  0  0  0  0  0
  157.7070  212.6180  149.6800 C   0  0  0  0  0  2  0  0  0  0  0  0
  162.1000  210.3330  151.1270 C   0  0  0  0  0  2  0  0  0  0  0  0
  158.4990  211.9650  153.1990 C   0  0  2  0  0  0  0  0  0  0  0  0
  157.7640  210.6290  153.3720 C   0  0  0  0  0  1  0  0  0  0  0  0
  158.0360  212.6740  152.0590 O   0  0  0  0  0  0  0  0  0  0  0  0
  160.9450  213.4490  147.5070 N   0  0  0  0  0  2  0  0  0  0  0  0
  158.3040  211.9300  150.8960 C   0  0  0  0  0  2  0  0  0  0  0  0
  157.1610  213.8400  154.3190 C   0  0  0  0  0  1  0  0  0  0  0  0
  160.5760  212.5080  154.3290 O   0  0  0  0  0  0  0  0  0  0  0  0
  161.3620  211.7740  149.2300 C   0  0  0  0  0  2  0  0  0  0  0  0
  162.1050  210.4940  149.6070 C   0  0  2  0  0  3  0  0  0  0  0  0
  159.5760  213.3720  154.7950 C   0  0  1  0  0  3  0  0  0  0  0  0
  161.8060  212.3350  147.8830 C   0  0  2  0  0  3  0  0  0  0  0  0
  160.7170  209.9970  151.6730 C   0  0  0  0  0  2  0  0  0  0  0  0
  159.7140  212.8960  146.9610 C   0  0  0  0  0  2  0  0  0  0  0  0
  158.3320  214.4440  145.8060 O   0  0  0  0  0  0  0  0  0  0  0  0
  158.0600  214.4530  148.1130 N   0  0  0  0  0  2  0  0  0  0  0  0
  158.2380  212.7670  154.4560 C   0  0  2  0  0  3  0  0  0  0  0  0
  161.1570  214.4380  156.9330 O   0  0  0  0  0  0  0  0  0  0  0  0
  159.7410  213.5760  156.5960 P   0  0  0  0  0  0  0  0  0  0  0  0
  159.8100  212.2210  157.2610 O   0  0  0  0  0  1  0  0  0  0  0  0
  158.4120  214.4310  157.1970 O   0  0  0  0  0  1  0  0  0  0  0  0
  163.2810  214.2600  148.0980 N   0  0  0  0  0  1  0  0  0  0  0  0
  163.2460  212.8150  147.9620 C   0  0  0  0  0  2  0  0  0  0  0  0
  161.5250  209.2570  148.9220 C   0  0  0  0  0  2  0  0  0  0  0  0
  162.3800  208.0250  149.1580 C   0  0  0  0  0  2  0  0  0  0  0  0
  161.7280  206.1790  150.6310 C   0  0  1  0  0  3  0  0  0  0  0  0
  161.4940  206.8040  149.3090 C   0  0  1  0  0  3  0  0  0  0  0  0
  160.6090  206.9990  150.3830 O   0  0  0  0  0  0  0  0  0  0  0  0
  160.9470  202.6880  151.1880 O   0  0  0  0  0  0  0  0  0  0  0  0
  160.2600  201.6470  149.0560 C   0  0  0  0  0  1  0  0  0  0  0  0
  160.9520  204.0600  149.4390 C   0  0  0  0  0  3  0  0  0  0  0  0
  160.7160  202.7820  149.9000 C   0  0  0  0  0  0  0  0  0  0  0  0
  161.3320  203.8560  151.6440 C   0  0  0  0  0  3  0  0  0  0  0  0
  161.3340  204.7390  150.5800 C   0  0  0  0  0  0  0  0  0  0  0  0
  1  4  1  1  0  0  0
  1  7  1  0  0  0  0
  1 13  1  0  0  0  0
  2 19  1  0  0  0  0
  2 21  1  0  0  0  0
  3  5  1  0  0  0  0
  5 11  1  0  0  0  0
  6 18  1  0  0  0  0
  7  8  1  1  0  0  0
  7 22  1  0  0  0  0
  9  7  1  0  0  0  0
 10 17  1  0  0  0  0
 11  9  1  0  0  0  0
 13 16  1  0  0  0  0
 14 15  1  0  0  0  0
 15 29  1  6  0  0  0
 15  6  1  0  0  0  0
 16 24  1  1  0  0  0
 17 28  1  1  0  0  0
 17 14  1  0  0  0  0
 18  4  1  0  0  0  0
 19 10  1  0  0  0  0
 20  2  2  0  0  0  0
 21  3  1  0  0  0  0
 22 12  1  6  0  0  0
 22 16  1  0  0  0  0
 24 23  2  0  0  0  0
 24 26  1  0  0  0  0
 24 25  1  0  0  0  0
 28 27  1  0  0  0  0
 29 30  1  0  0  0  0
 31 39  1  6  0  0  0
 32 30  1  1  0  0  0
 32 33  1  0  0  0  0
 32 31  1  0  0  0  0
 33 31  1  0  0  0  0
 34 38  1  0  0  0  0
 35 37  1  0  0  0  0
 36 37  2  0  0  0  0
 36 39  1  0  0  0  0
 37 34  1  0  0  0  0
 39 38  2  0  0  0  0
M  END
>  <MODEL>
1

>  <REMARK>
 VINA RESULT:      -3.5      0.000      0.000
  Name = 
  6 active torsions:
  status: ('A' for Active; 'I' for Inactive)
    1  A    between atoms: C_1  and  C_21
    2  A    between atoms: C_1  and  C_34
    3  A    between atoms: P_7  and  C_24
    4  A    between atoms: C_21  and  C_23
    5  A    between atoms: C_27  and  C_33
    6  A    between atoms: C_28  and  C_35
                            x       y       z     vdW  Elec       q    Type
                         _______ _______ _______ _____ _____    ______ ____

>  <TORSDO>
F 6

$$$$
=
 OpenBabel11072415093D

 39 42  0  0  1  0  0  0  0  0999 V2000
  160.6580  209.0130  151.4640 C   0  0  1  0  0  3  0  0  0  0  0  0
  160.2330  213.6760  146.5830 C   0  0  0  0  0  0  0  0  0  0  0  0
  160.9830  211.4680  147.5790 C   0  0  0  0  0  2  0  0  0  0  0  0
  160.4620  209.7070  152.8120 C   0  0  0  0  0  2  0  0  0  0  0  0
  162.0100  211.9140  148.6050 C   0  0  0  0  0  2  0  0  0  0  0  0
  158.6810  211.4260  152.5150 C   0  0  0  0  0  2  0  0  0  0  0  0
  162.1030  209.0580  150.9010 C   0  0  2  0  0  0  0  0  0  0  0  0
  163.1630  209.5700  151.8860 C   0  0  0  0  0  1  0  0  0  0  0  0
  162.1470  209.7650  149.6700 O   0  0  0  0  0  0  0  0  0  0  0  0
  158.3090  213.2500  147.9670 N   0  0  0  0  0  2  0  0  0  0  0  0
  161.8480  211.1220  149.8910 C   0  0  0  0  0  2  0  0  0  0  0  0
  163.1310  207.2800  149.3710 C   0  0  0  0  0  1  0  0  0  0  0  0
  160.2170  207.6810  151.5570 O   0  0  0  0  0  0  0  0  0  0  0  0
  158.6590  212.4790  150.2540 C   0  0  0  0  0  2  0  0  0  0  0  0
  158.3400  212.6940  151.7330 C   0  0  2  0  0  3  0  0  0  0  0  0
  161.0460  206.9280  150.7130 C   0  0  1  0  0  3  0  0  0  0  0  0
  157.8380  213.3820  149.3390 C   0  0  2  0  0  3  0  0  0  0  0  0
  160.1830  211.1840  152.6080 C   0  0  0  0  0  2  0  0  0  0  0  0
  159.5070  214.0650  147.8270 C   0  0  0  0  0  2  0  0  0  0  0  0
  160.2150  214.4520  145.5930 O   0  0  0  0  0  0  0  0  0  0  0  0
  160.9200  212.4250  146.4840 N   0  0  0  0  0  2  0  0  0  0  0  0
  162.3990  207.5900  150.6730 C   0  0  2  0  0  3  0  0  0  0  0  0
  161.4860  205.2890  153.0210 O   0  0  0  0  0  1  0  0  0  0  0  0
  161.1890  205.2320  151.3560 P   0  0  0  0  0  0  0  0  0  0  0  0
  162.3300  204.5180  150.6690 O   0  0  0  0  0  0  0  0  0  0  0  0
  159.7490  204.3920  151.0760 O   0  0  0  0  0  1  0  0  0  0  0  0
  155.5670  214.1700  149.7270 N   0  0  0  0  0  1  0  0  0  0  0  0
  156.3670  213.0020  149.4070 C   0  0  0  0  0  2  0  0  0  0  0  0
  159.0620  213.9090  152.3160 C   0  0  0  0  0  2  0  0  0  0  0  0
  158.3550  214.4520  153.5440 C   0  0  0  0  0  2  0  0  0  0  0  0
  159.5690  213.4800  155.4370 C   0  0  1  0  0  3  0  0  0  0  0  0
  158.3290  213.3970  154.6320 C   0  0  1  0  0  3  0  0  0  0  0  0
  158.3500  214.0230  155.8910 O   0  0  0  0  0  0  0  0  0  0  0  0
  159.5290  210.3520  157.2600 O   0  0  0  0  0  0  0  0  0  0  0  0
  161.7640  209.3060  157.1480 C   0  0  0  0  0  1  0  0  0  0  0  0
  161.0400  211.5060  156.1080 C   0  0  0  0  0  3  0  0  0  0  0  0
  160.7750  210.3730  156.8470 C   0  0  0  0  0  0  0  0  0  0  0  0
  158.9140  211.4290  156.8300 C   0  0  0  0  0  3  0  0  0  0  0  0
  159.8260  212.1650  156.0970 C   0  0  0  0  0  0  0  0  0  0  0  0
  1 13  1  0  0  0  0
  1  4  1  1  0  0  0
  2 19  1  0  0  0  0
  3  5  1  0  0  0  0
  5 11  1  0  0  0  0
  6 18  1  0  0  0  0
  7  1  1  0  0  0  0
  7  8  1  1  0  0  0
  9 11  1  0  0  0  0
  9  7  1  0  0  0  0
 10 17  1  0  0  0  0
 14 15  1  0  0  0  0
 15 29  1  1  0  0  0
 15  6  1  0  0  0  0
 16 24  1  1  0  0  0
 16 13  1  0  0  0  0
 17 28  1  6  0  0  0
 17 14  1  0  0  0  0
 18  4  1  0  0  0  0
 19 10  1  0  0  0  0
 20  2  2  0  0  0  0
 21  2  1  0  0  0  0
 21  3  1  0  0  0  0
 22 12  1  6  0  0  0
 22 16  1  0  0  0  0
 22  7  1  0  0  0  0
 24 23  1  0  0  0  0
 25 24  2  0  0  0  0
 26 24  1  0  0  0  0
 28 27  1  0  0  0  0
 29 30  1  0  0  0  0
 31 33  1  0  0  0  0
 31 39  1  1  0  0  0
 32 30  1  6  0  0  0
 32 31  1  0  0  0  0
 32 33  1  0  0  0  0
 36 37  2  0  0  0  0
 37 35  1  0  0  0  0
 37 34  1  0  0  0  0
 38 34  1  0  0  0  0
 39 36  1  0  0  0  0
 39 38  2  0  0  0  0
M  END
>  <MODEL>
2

>  <REMARK>
 VINA RESULT:      -2.7      2.619      7.225
  Name = 
  6 active torsions:
  status: ('A' for Active; 'I' for Inactive)
    1  A    between atoms: C_1  and  C_21
    2  A    between atoms: C_1  and  C_34
    3  A    between atoms: P_7  and  C_24
    4  A    between atoms: C_21  and  C_23
    5  A    between atoms: C_27  and  C_33
    6  A    between atoms: C_28  and  C_35
                            x       y       z     vdW  Elec       q    Type
                         _______ _______ _______ _____ _____    ______ ____

>  <TORSDO>
F 6

$$$$
=
 OpenBabel11072415093D

 39 42  0  0  1  0  0  0  0  0999 V2000
  160.6080  210.1880  152.4010 C   0  0  1  0  0  3  0  0  0  0  0  0
  161.0070  203.4580  151.8610 C   0  0  0  0  0  0  0  0  0  0  0  0
  160.5620  205.6340  153.0870 C   0  0  0  0  0  2  0  0  0  0  0  0
  161.5350  210.8110  151.3560 C   0  0  0  0  0  2  0  0  0  0  0  0
  161.9610  206.2030  153.2410 C   0  0  0  0  0  2  0  0  0  0  0  0
  161.3420  209.4470  149.2790 C   0  0  0  0  0  2  0  0  0  0  0  0
  161.2920  209.7740  153.7290 C   0  0  2  0  0  0  0  0  0  0  0  0
  162.7340  210.2740  153.8950 C   0  0  0  0  0  1  0  0  0  0  0  0
  161.1970  208.3720  153.9360 O   0  0  0  0  0  0  0  0  0  0  0  0
  160.1580  204.7340  150.0030 N   0  0  0  0  0  2  0  0  0  0  0  0
  161.9540  207.6970  152.9630 C   0  0  0  0  0  2  0  0  0  0  0  0
  160.1330  209.7100  156.0130 C   0  0  0  0  0  1  0  0  0  0  0  0
  159.5410  211.0680  152.6600 O   0  0  0  0  0  0  0  0  0  0  0  0
  160.9480  207.0210  149.6950 C   0  0  0  0  0  2  0  0  0  0  0  0
  161.5590  208.0370  148.7320 C   0  0  2  0  0  3  0  0  0  0  0  0
  159.2080  210.9010  154.0120 C   0  0  1  0  0  3  0  0  0  0  0  0
  160.5720  205.7120  149.0060 C   0  0  2  0  0  3  0  0  0  0  0  0
  162.1850  209.7290  150.5170 C   0  0  0  0  0  2  0  0  0  0  0  0
  161.3610  204.1670  150.5970 C   0  0  0  0  0  2  0  0  0  0  0  0
  161.0250  202.2000  151.8860 O   0  0  0  0  0  0  0  0  0  0  0  0
  160.6170  204.1790  153.0340 N   0  0  0  0  0  2  0  0  0  0  0  0
  160.4600  210.5130  154.7570 C   0  0  2  0  0  3  0  0  0  0  0  0
  159.7280  213.2400  155.5820 O   0  0  0  0  0  1  0  0  0  0  0  0
  158.5370  212.4590  154.6690 P   0  0  0  0  0  0  0  0  0  0  0  0
  157.3420  212.1710  155.5480 O   0  0  0  0  0  1  0  0  0  0  0  0
  158.0670  213.4610  153.3920 O   0  0  0  0  0  0  0  0  0  0  0  0
  159.9650  206.3770  146.7450 N   0  0  0  0  0  1  0  0  0  0  0  0
  159.4350  205.9430  148.0240 C   0  0  0  0  0  2  0  0  0  0  0  0
  163.0410  207.7730  148.4650 C   0  0  0  0  0  2  0  0  0  0  0  0
  163.2590  207.0590  147.1430 C   0  0  0  0  0  2  0  0  0  0  0  0
  162.7410  204.9820  145.9530 C   0  0  1  0  0  3  0  0  0  0  0  0
  162.9270  205.5870  147.2910 C   0  0  1  0  0  3  0  0  0  0  0  0
  163.9350  204.8180  146.6830 O   0  0  0  0  0  0  0  0  0  0  0  0
  160.9420  201.9830  146.8900 O   0  0  0  0  0  0  0  0  0  0  0  0
  159.6450  201.1620  144.9550 C   0  0  0  0  0  1  0  0  0  0  0  0
  161.1430  203.2100  145.0480 C   0  0  0  0  0  3  0  0  0  0  0  0
  160.5690  202.1050  145.6390 C   0  0  0  0  0  0  0  0  0  0  0  0
  161.7540  202.9670  147.1960 C   0  0  0  0  0  3  0  0  0  0  0  0
  161.8910  203.7590  146.0710 C   0  0  0  0  0  0  0  0  0  0  0  0
  1  4  1  6  0  0  0
  1 13  1  0  0  0  0
  1  7  1  0  0  0  0
  2 20  2  0  0  0  0
  2 21  1  0  0  0  0
  3  5  1  0  0  0  0
  6 18  1  0  0  0  0
  7  8  1  1  0  0  0
  7  9  1  0  0  0  0
  7 22  1  0  0  0  0
 10 19  1  0  0  0  0
 11  5  1  0  0  0  0
 11  9  1  0  0  0  0
 13 16  1  0  0  0  0
 15 29  1  1  0  0  0
 15  6  1  0  0  0  0
 15 14  1  0  0  0  0
 16 24  1  1  0  0  0
 16 22  1  0  0  0  0
 17 28  1  6  0  0  0
 17 14  1  0  0  0  0
 17 10  1  0  0  0  0
 18  4  1  0  0  0  0
 19  2  1  0  0  0  0
 21  3  1  0  0  0  0
 22 12  1  1  0  0  0
 24 25  1  0  0  0  0
 24 23  1  0  0  0  0
 26 24  2  0  0  0  0
 27 28  1  0  0  0  0
 30 29  1  0  0  0  0
 31 39  1  1  0  0  0
 31 33  1  0  0  0  0
 31 32  1  0  0  0  0
 32 30  1  6  0  0  0
 33 32  1  0  0  0  0
 34 38  1  0  0  0  0
 35 37  1  0  0  0  0
 36 37  2  0  0  0  0
 36 39  1  0  0  0  0
 37 34  1  0  0  0  0
 39 38  2  0  0  0  0
M  END
>  <MODEL>
3

>  <REMARK>
 VINA RESULT:      -1.7      3.556      6.028
  Name = 
  6 active torsions:
  status: ('A' for Active; 'I' for Inactive)
    1  A    between atoms: C_1  and  C_21
    2  A    between atoms: C_1  and  C_34
    3  A    between atoms: P_7  and  C_24
    4  A    between atoms: C_21  and  C_23
    5  A    between atoms: C_27  and  C_33
    6  A    between atoms: C_28  and  C_35
                            x       y       z     vdW  Elec       q    Type
                         _______ _______ _______ _____ _____    ______ ____

>  <TORSDO>
F 6

$$$$
=
 OpenBabel11072415093D

 39 42  0  0  1  0  0  0  0  0999 V2000
  160.7020  210.2640  152.3600 C   0  0  1  0  0  3  0  0  0  0  0  0
  160.9730  203.5200  151.9150 C   0  0  0  0  0  0  0  0  0  0  0  0
  160.5920  205.7210  153.1170 C   0  0  0  0  0  2  0  0  0  0  0  0
  161.6170  210.8540  151.2870 C   0  0  0  0  0  2  0  0  0  0  0  0
  162.0040  206.2690  153.2320 C   0  0  0  0  0  2  0  0  0  0  0  0
  161.3560  209.4640  149.2350 C   0  0  0  0  0  2  0  0  0  0  0  0
  161.4080  209.8580  153.6800 C   0  0  2  0  0  0  0  0  0  0  0  0
  162.8620  210.3340  153.8070 C   0  0  0  0  0  1  0  0  0  0  0  0
  161.2930  208.4610  153.9100 O   0  0  0  0  0  0  0  0  0  0  0  0
  160.1060  204.7830  150.0570 N   0  0  0  0  0  2  0  0  0  0  0  0
  162.0170  207.7570  152.9310 C   0  0  0  0  0  2  0  0  0  0  0  0
  160.2980  209.8480  155.9880 C   0  0  0  0  0  1  0  0  0  0  0  0
  159.6560  211.1660  152.6290 O   0  0  0  0  0  0  0  0  0  0  0  0
  160.9290  207.0510  149.6960 C   0  0  0  0  0  2  0  0  0  0  0  0
  161.5360  208.0420  148.7050 C   0  0  2  0  0  3  0  0  0  0  0  0
  159.3510  211.0250  153.9900 C   0  0  1  0  0  3  0  0  0  0  0  0
  160.5150  205.7390  149.0360 C   0  0  2  0  0  3  0  0  0  0  0  0
  162.2300  209.7490  150.4500 C   0  0  0  0  0  2  0  0  0  0  0  0
  161.3110  204.2040  150.6330 C   0  0  0  0  0  2  0  0  0  0  0  0
  160.9700  202.2630  151.9590 O   0  0  0  0  0  0  0  0  0  0  0  0
  160.6210  204.2660  153.0850 N   0  0  0  0  0  2  0  0  0  0  0  0
  160.6110  210.6260  154.7140 C   0  0  2  0  0  3  0  0  0  0  0  0
  158.3480  213.6300  153.3440 O   0  0  0  0  0  0  0  0  0  0  0  0
  158.7210  212.6040  154.6380 P   0  0  0  0  0  0  0  0  0  0  0  0
  159.7710  213.2570  155.5060 O   0  0  0  0  0  1  0  0  0  0  0  0
  157.3260  212.3300  155.5510 O   0  0  0  0  0  1  0  0  0  0  0  0
  159.8730  206.2900  146.7540 N   0  0  0  0  0  1  0  0  0  0  0  0
  159.3610  205.9750  148.0750 C   0  0  0  0  0  2  0  0  0  0  0  0
  163.0070  207.7470  148.4100 C   0  0  0  0  0  2  0  0  0  0  0  0
  163.1850  207.0190  147.0900 C   0  0  0  0  0  2  0  0  0  0  0  0
  162.5390  204.9030  146.0400 C   0  0  1  0  0  3  0  0  0  0  0  0
  163.0090  205.5280  147.2970 C   0  0  1  0  0  3  0  0  0  0  0  0
  163.8860  204.8320  146.4460 O   0  0  0  0  0  0  0  0  0  0  0  0
  160.6310  201.8270  146.1230 O   0  0  0  0  0  0  0  0  0  0  0  0
  160.6730  200.8930  148.4090 C   0  0  0  0  0  1  0  0  0  0  0  0
  161.7880  203.0250  147.5950 C   0  0  0  0  0  3  0  0  0  0  0  0
  161.0220  201.9000  147.3730 C   0  0  0  0  0  0  0  0  0  0  0  0
  161.1000  202.8590  145.4620 C   0  0  0  0  0  3  0  0  0  0  0  0
  161.8380  203.6210  146.3500 C   0  0  0  0  0  0  0  0  0  0  0  0
  1  4  1  6  0  0  0
  1 13  1  0  0  0  0
  1  7  1  0  0  0  0
  2 20  2  0  0  0  0
  2 21  1  0  0  0  0
  3  5  1  0  0  0  0
  6 18  1  0  0  0  0
  7  8  1  6  0  0  0
  7  9  1  0  0  0  0
  7 22  1  0  0  0  0
 10 19  1  0  0  0  0
 11  5  1  0  0  0  0
 11  9  1  0  0  0  0
 13 16  1  0  0  0  0
 15 29  1  1  0  0  0
 15  6  1  0  0  0  0
 15 14  1  0  0  0  0
 16 24  1  1  0  0  0
 16 22  1  0  0  0  0
 17 28  1  6  0  0  0
 17 14  1  0  0  0  0
 17 10  1  0  0  0  0
 18  4  1  0  0  0  0
 19  2  1  0  0  0  0
 21  3  1  0  0  0  0
 22 12  1  1  0  0  0
 23 24  2  0  0  0  0
 24 25  1  0  0  0  0
 24 26  1  0  0  0  0
 27 28  1  0  0  0  0
 30 29  1  0  0  0  0
 31 39  1  1  0  0  0
 31 33  1  0  0  0  0
 31 32  1  0  0  0  0
 32 30  1  6  0  0  0
 33 32  1  0  0  0  0
 34 37  1  0  0  0  0
 37 36  2  0  0  0  0
 37 35  1  0  0  0  0
 38 34  1  0  0  0  0
 38 39  2  0  0  0  0
 39 36  1  0  0  0  0
M  END
>  <MODEL>
4

>  <REMARK>
 VINA RESULT:      -1.7      3.525      5.990
  Name = 
  6 active torsions:
  status: ('A' for Active; 'I' for Inactive)
    1  A    between atoms: C_1  and  C_21
    2  A    between atoms: C_1  and  C_34
    3  A    between atoms: P_7  and  C_24
    4  A    between atoms: C_21  and  C_23
    5  A    between atoms: C_27  and  C_33
    6  A    between atoms: C_28  and  C_35
                            x       y       z     vdW  Elec       q    Type
                         _______ _______ _______ _____ _____    ______ ____

>  <TORSDO>
F 6

$$$$
=
 OpenBabel11072415093D

 39 42  0  0  1  0  0  0  0  0999 V2000
  160.8070  209.3550  151.2490 C   0  0  1  0  0  3  0  0  0  0  0  0
  159.6140  213.7330  146.2330 C   0  0  0  0  0  0  0  0  0  0  0  0
  160.5450  211.5960  147.2330 C   0  0  0  0  0  2  0  0  0  0  0  0
  160.7770  210.1190  152.5720 C   0  0  0  0  0  2  0  0  0  0  0  0
  161.6900  212.1160  148.0840 C   0  0  0  0  0  2  0  0  0  0  0  0
  158.9310  211.7880  152.4300 C   0  0  0  0  0  2  0  0  0  0  0  0
  162.1610  209.3930  150.4930 C   0  0  2  0  0  0  0  0  0  0  0  0
  163.3310  209.9760  151.2970 C   0  0  0  0  0  1  0  0  0  0  0  0
  162.0220  210.0320  149.2320 O   0  0  0  0  0  0  0  0  0  0  0  0
  157.9050  213.3520  147.8870 N   0  0  0  0  0  2  0  0  0  0  0  0
  161.7220  211.3930  149.4200 C   0  0  0  0  0  2  0  0  0  0  0  0
  163.0170  207.5510  148.9330 C   0  0  0  0  0  1  0  0  0  0  0  0
  160.4150  208.0220  151.4710 O   0  0  0  0  0  0  0  0  0  0  0  0
  158.5790  212.7140  150.1420 C   0  0  0  0  0  2  0  0  0  0  0  0
  158.4570  213.0050  151.6370 C   0  0  2  0  0  3  0  0  0  0  0  0
  161.1400  207.2380  150.5620 C   0  0  1  0  0  3  0  0  0  0  0  0
  157.6200  213.5510  149.3010 C   0  0  2  0  0  3  0  0  0  0  0  0
  160.4370  211.5770  152.3320 C   0  0  0  0  0  2  0  0  0  0  0  0
  159.0530  214.1780  147.5430 C   0  0  0  0  0  2  0  0  0  0  0  0
  159.4440  214.4530  145.2160 O   0  0  0  0  0  0  0  0  0  0  0  0
  160.3120  212.4910  146.1080 N   0  0  0  0  0  2  0  0  0  0  0  0
  162.4590  207.9210  150.3040 C   0  0  2  0  0  3  0  0  0  0  0  0
  160.5680  204.4390  150.3490 O   0  0  0  0  0  0  0  0  0  0  0  0
  161.4100  205.5830  151.2680 P   0  0  0  0  0  0  0  0  0  0  0  0
  160.9090  205.5460  152.6930 O   0  0  0  0  0  1  0  0  0  0  0  0
  163.0590  205.2140  151.2420 O   0  0  0  0  0  1  0  0  0  0  0  0
  155.4710  214.2570  150.2010 N   0  0  0  0  0  1  0  0  0  0  0  0
  156.1810  213.1500  149.5880 C   0  0  0  0  0  2  0  0  0  0  0  0
  159.2210  214.2620  152.0520 C   0  0  0  0  0  2  0  0  0  0  0  0
  159.7020  214.1840  153.4890 C   0  0  0  0  0  2  0  0  0  0  0  0
  158.6430  213.1170  155.4250 C   0  0  1  0  0  3  0  0  0  0  0  0
  158.5150  214.2080  154.4320 C   0  0  1  0  0  3  0  0  0  0  0  0
  158.9630  214.4530  155.7420 O   0  0  0  0  0  0  0  0  0  0  0  0
  155.3770  212.9270  156.9740 O   0  0  0  0  0  0  0  0  0  0  0  0
  154.4690  210.6460  156.7040 C   0  0  0  0  0  1  0  0  0  0  0  0
  156.7050  211.5220  155.8780 C   0  0  0  0  0  3  0  0  0  0  0  0
  155.5020  211.7000  156.5260 C   0  0  0  0  0  0  0  0  0  0  0  0
  156.4500  213.6130  156.6580 C   0  0  0  0  0  3  0  0  0  0  0  0
  157.2950  212.7680  155.9620 C   0  0  0  0  0  0  0  0  0  0  0  0
  1 13  1  0  0  0  0
  1  4  1  1  0  0  0
  2 19  1  0  0  0  0
  3  5  1  0  0  0  0
  5 11  1  0  0  0  0
  7  1  1  0  0  0  0
  7  8  1  1  0  0  0
  9 11  1  0  0  0  0
  9  7  1  0  0  0  0
 10 17  1  0  0  0  0
 14 15  1  0  0  0  0
 15 29  1  1  0  0  0
 15  6  1  0  0  0  0
 16 24  1  1  0  0  0
 16 13  1  0  0  0  0
 17 28  1  6  0  0  0
 17 14  1  0  0  0  0
 18  6  1  0  0  0  0
 18  4  1  0  0  0  0
 19 10  1  0  0  0  0
 20  2  2  0  0  0  0
 21  2  1  0  0  0  0
 21  3  1  0  0  0  0
 22 12  1  6  0  0  0
 22  7  1  0  0  0  0
 22 16  1  0  0  0  0
 23 24  2  0  0  0  0
 24 25  1  0  0  0  0
 26 24  1  0  0  0  0
 28 27  1  0  0  0  0
 29 30  1  0  0  0  0
 31 33  1  0  0  0  0
 31 39  1  1  0  0  0
 32 30  1  6  0  0  0
 32 31  1  0  0  0  0
 32 33  1  0  0  0  0
 36 39  1  0  0  0  0
 36 37  2  0  0  0  0
 37 35  1  0  0  0  0
 37 34  1  0  0  0  0
 38 34  1  0  0  0  0
 39 38  2  0  0  0  0
M  END
>  <MODEL>
5

>  <REMARK>
 VINA RESULT:      -1.7      2.677      7.660
  Name = 
  6 active torsions:
  status: ('A' for Active; 'I' for Inactive)
    1  A    between atoms: C_1  and  C_21
    2  A    between atoms: C_1  and  C_34
    3  A    between atoms: P_7  and  C_24
    4  A    between atoms: C_21  and  C_23
    5  A    between atoms: C_27  and  C_33
    6  A    between atoms: C_28  and  C_35
                            x       y       z     vdW  Elec       q    Type
                         _______ _______ _______ _____ _____    ______ ____

>  <TORSDO>
F 6

$$$$
=
 OpenBabel11072415093D

 39 42  0  0  1  0  0  0  0  0999 V2000
  161.1640  206.9450  151.3740 C   0  0  1  0  0  3  0  0  0  0  0  0
  160.5890  213.3020  149.1380 C   0  0  0  0  0  0  0  0  0  0  0  0
  160.9740  210.8090  148.8740 C   0  0  0  0  0  2  0  0  0  0  0  0
  161.5720  206.9870  152.8470 C   0  0  0  0  0  2  0  0  0  0  0  0
  162.3400  210.6280  149.5120 C   0  0  0  0  0  2  0  0  0  0  0  0
  160.3190  208.8580  153.9160 C   0  0  0  0  0  2  0  0  0  0  0  0
  162.3320  207.0620  150.3610 C   0  0  2  0  0  0  0  0  0  0  0  0
  163.7340  206.9530  150.9770 C   0  0  0  0  0  1  0  0  0  0  0  0
  162.1990  208.2310  149.5640 O   0  0  0  0  0  0  0  0  0  0  0  0
  159.1230  212.5390  150.8890 N   0  0  0  0  0  2  0  0  0  0  0  0
  162.3580  209.3740  150.3680 C   0  0  0  0  0  2  0  0  0  0  0  0
  162.3390  206.0380  148.0130 C   0  0  0  0  0  1  0  0  0  0  0  0
  160.4270  205.7720  151.1290 O   0  0  0  0  0  0  0  0  0  0  0  0
  159.9130  210.7980  152.4030 C   0  0  0  0  0  2  0  0  0  0  0  0
  160.1180  210.3710  153.8550 C   0  0  2  0  0  3  0  0  0  0  0  0
  160.7310  205.3790  149.8180 C   0  0  1  0  0  3  0  0  0  0  0  0
  159.1340  212.1040  152.2790 C   0  0  2  0  0  3  0  0  0  0  0  0
  161.6560  208.4220  153.3290 C   0  0  0  0  0  2  0  0  0  0  0  0
  160.3990  213.1820  150.6130 C   0  0  0  0  0  2  0  0  0  0  0  0
  160.4900  214.4330  148.5950 O   0  0  0  0  0  0  0  0  0  0  0  0
  160.8510  212.1530  148.3270 N   0  0  0  0  0  2  0  0  0  0  0  0
  162.1380  205.8240  149.5100 C   0  0  2  0  0  3  0  0  0  0  0  0
  160.9870  203.1000  148.1010 O   0  0  0  0  0  0  0  0  0  0  0  0
  160.5940  203.5700  149.6780 P   0  0  0  0  0  0  0  0  0  0  0  0
  159.1800  203.1380  149.9910 O   0  0  0  0  0  1  0  0  0  0  0  0
  161.6600  202.8320  150.7620 O   0  0  0  0  0  1  0  0  0  0  0  0
  157.0980  213.2000  153.0390 N   0  0  0  0  0  1  0  0  0  0  0  0
  157.7050  211.9110  152.7600 C   0  0  0  0  0  2  0  0  0  0  0  0
  161.2810  211.1070  154.5220 C   0  0  0  0  0  2  0  0  0  0  0  0
  160.9500  211.5180  155.9450 C   0  0  0  0  0  2  0  0  0  0  0  0
  158.9160  212.0490  157.2040 C   0  0  1  0  0  3  0  0  0  0  0  0
  159.6710  212.3320  155.9620 C   0  0  1  0  0  3  0  0  0  0  0  0
  159.6940  213.2150  157.0550 O   0  0  0  0  0  0  0  0  0  0  0  0
  155.3540  212.1190  156.5630 O   0  0  0  0  0  0  0  0  0  0  0  0
  154.5400  214.4480  156.6900 C   0  0  0  0  0  1  0  0  0  0  0  0
  156.9190  213.6270  157.0260 C   0  0  0  0  0  3  0  0  0  0  0  0
  155.5870  213.3950  156.7570 C   0  0  0  0  0  0  0  0  0  0  0  0
  156.4750  211.4510  156.6910 C   0  0  0  0  0  3  0  0  0  0  0  0
  157.4710  212.3620  156.9930 C   0  0  0  0  0  0  0  0  0  0  0  0
  1  4  1  1  0  0  0
  2 19  1  0  0  0  0
  3  5  1  0  0  0  0
  4 18  1  0  0  0  0
  5 11  1  0  0  0  0
  7  8  1  1  0  0  0
  7  1  1  0  0  0  0
  9  7  1  0  0  0  0
  9 11  1  0  0  0  0
 10 17  1  0  0  0  0
 13  1  1  0  0  0  0
 14 15  1  0  0  0  0
 15  6  1  0  0  0  0
 15 29  1  6  0  0  0
 16 24  1  1  0  0  0
 16 13  1  0  0  0  0
 17 14  1  0  0  0  0
 17 28  1  6  0  0  0
 18  6  1  0  0  0  0
 19 10  1  0  0  0  0
 20  2  2  0  0  0  0
 21  3  1  0  0  0  0
 21  2  1  0  0  0  0
 22 12  1  6  0  0  0
 22 16  1  0  0  0  0
 22  7  1  0  0  0  0
 23 24  2  0  0  0  0
 24 25  1  0  0  0  0
 24 26  1  0  0  0  0
 28 27  1  0  0  0  0
 29 30  1  0  0  0  0
 31 39  1  6  0  0  0
 32 30  1  1  0  0  0
 32 33  1  0  0  0  0
 32 31  1  0  0  0  0
 33 31  1  0  0  0  0
 34 38  1  0  0  0  0
 34 37  1  0  0  0  0
 35 37  1  0  0  0  0
 37 36  2  0  0  0  0
 38 39  2  0  0  0  0
 39 36  1  0  0  0  0
M  END
>  <MODEL>
6

>  <REMARK>
 VINA RESULT:      -1.5      2.990      8.583
  Name = 
  6 active torsions:
  status: ('A' for Active; 'I' for Inactive)
    1  A    between atoms: C_1  and  C_21
    2  A    between atoms: C_1  and  C_34
    3  A    between atoms: P_7  and  C_24
    4  A    between atoms: C_21  and  C_23
    5  A    between atoms: C_27  and  C_33
    6  A    between atoms: C_28  and  C_35
                            x       y       z     vdW  Elec       q    Type
                         _______ _______ _______ _____ _____    ______ ____

>  <TORSDO>
F 6

$$$$
=
 OpenBabel11072415093D

 39 42  0  0  1  0  0  0  0  0999 V2000
  159.8200  211.8670  153.1670 C   0  0  1  0  0  3  0  0  0  0  0  0
  159.0250  213.9210  146.7720 C   0  0  0  0  0  0  0  0  0  0  0  0
  158.5420  213.9490  149.2620 C   0  0  0  0  0  2  0  0  0  0  0  0
  160.3490  210.4330  153.1500 C   0  0  0  0  0  2  0  0  0  0  0  0
  157.8050  212.6360  149.4580 C   0  0  0  0  0  2  0  0  0  0  0  0
  162.0040  210.2680  151.2930 C   0  0  0  0  0  2  0  0  0  0  0  0
  158.2810  212.0060  153.0370 C   0  0  2  0  0  0  0  0  0  0  0  0
  157.5020  210.6890  153.1610 C   0  0  0  0  0  1  0  0  0  0  0  0
  157.9320  212.7120  151.8550 O   0  0  0  0  0  0  0  0  0  0  0  0
  161.2330  213.3670  147.5590 N   0  0  0  0  0  2  0  0  0  0  0  0
  158.2800  211.9490  150.7260 C   0  0  0  0  0  2  0  0  0  0  0  0
  156.8980  213.9240  154.0230 C   0  0  0  0  0  1  0  0  0  0  0  0
  160.2680  212.5150  154.3340 O   0  0  0  0  0  0  0  0  0  0  0  0
  161.4630  211.7030  149.3270 C   0  0  0  0  0  2  0  0  0  0  0  0
  162.1410  210.4110  149.7780 C   0  0  2  0  0  3  0  0  0  0  0  0
  159.2520  213.4070  154.7060 C   0  0  1  0  0  3  0  0  0  0  0  0
  162.0320  212.2390  148.0170 C   0  0  2  0  0  3  0  0  0  0  0  0
  160.5720  209.9700  151.7240 C   0  0  0  0  0  2  0  0  0  0  0  0
  160.0400  212.8370  146.9160 C   0  0  0  0  0  2  0  0  0  0  0  0
  158.7970  214.4030  145.6330 O   0  0  0  0  0  0  0  0  0  0  0  0
  158.3310  214.4440  147.9090 N   0  0  0  0  0  2  0  0  0  0  0  0
  157.9340  212.8290  154.2610 C   0  0  2  0  0  3  0  0  0  0  0  0
  159.2110  212.1120  157.2610 O   0  0  0  0  0  1  0  0  0  0  0  0
  159.2700  213.6280  156.5120 P   0  0  0  0  0  0  0  0  0  0  0  0
  158.0720  214.4440  156.9400 O   0  0  0  0  0  0  0  0  0  0  0  0
  160.6870  214.4240  156.9750 O   0  0  0  0  0  1  0  0  0  0  0  0
  163.5990  214.0980  147.9000 N   0  0  0  0  0  1  0  0  0  0  0  0
  163.4720  212.6870  148.2130 C   0  0  0  0  0  2  0  0  0  0  0  0
  161.5910  209.1800  149.0580 C   0  0  0  0  0  2  0  0  0  0  0  0
  161.9410  207.8950  149.7870 C   0  0  0  0  0  2  0  0  0  0  0  0
  160.9600  206.2890  148.2180 C   0  0  1  0  0  3  0  0  0  0  0  0
  162.2300  206.7960  148.7830 C   0  0  1  0  0  3  0  0  0  0  0  0
  161.7790  207.1930  147.5130 O   0  0  0  0  0  0  0  0  0  0  0  0
  161.6160  203.2450  146.3720 O   0  0  0  0  0  0  0  0  0  0  0  0
  161.1100  201.2930  147.7970 C   0  0  0  0  0  1  0  0  0  0  0  0
  160.8910  203.7470  148.4120 C   0  0  0  0  0  3  0  0  0  0  0  0
  161.2110  202.7480  147.5160 C   0  0  0  0  0  0  0  0  0  0  0  0
  161.5950  204.5550  146.4380 C   0  0  0  0  0  3  0  0  0  0  0  0
  161.1590  204.9010  147.7040 C   0  0  0  0  0  0  0  0  0  0  0  0
  1  4  1  1  0  0  0
  1 13  1  0  0  0  0
  2 19  1  0  0  0  0
  2 21  1  0  0  0  0
  3  5  1  0  0  0  0
  5 11  1  0  0  0  0
  6 18  1  0  0  0  0
  7  8  1  1  0  0  0
  7  1  1  0  0  0  0
  7 22  1  0  0  0  0
  9  7  1  0  0  0  0
 10 17  1  0  0  0  0
 11  9  1  0  0  0  0
 13 16  1  0  0  0  0
 14 15  1  0  0  0  0
 15 29  1  6  0  0  0
 15  6  1  0  0  0  0
 16 24  1  1  0  0  0
 17 28  1  1  0  0  0
 17 14  1  0  0  0  0
 18  4  1  0  0  0  0
 19 10  1  0  0  0  0
 20  2  2  0  0  0  0
 21  3  1  0  0  0  0
 22 12  1  6  0  0  0
 22 16  1  0  0  0  0
 24 25  2  0  0  0  0
 24 26  1  0  0  0  0
 24 23  1  0  0  0  0
 27 28  1  0  0  0  0
 29 30  1  0  0  0  0
 31 39  1  6  0  0  0
 31 32  1  0  0  0  0
 32 30  1  1  0  0  0
 33 31  1  0  0  0  0
 33 32  1  0  0  0  0
 34 38  1  0  0  0  0
 34 37  1  0  0  0  0
 37 35  1  0  0  0  0
 37 36  2  0  0  0  0
 38 39  2  0  0  0  0
 39 36  1  0  0  0  0
M  END
>  <MODEL>
7

>  <REMARK>
 VINA RESULT:      -1.3      1.294      1.695
  Name = 
  6 active torsions:
  status: ('A' for Active; 'I' for Inactive)
    1  A    between atoms: C_1  and  C_21
    2  A    between atoms: C_1  and  C_34
    3  A    between atoms: P_7  and  C_24
    4  A    between atoms: C_21  and  C_23
    5  A    between atoms: C_27  and  C_33
    6  A    between atoms: C_28  and  C_35
                            x       y       z     vdW  Elec       q    Type
                         _______ _______ _______ _____ _____    ______ ____

>  <TORSDO>
F 6

$$$$
=
 OpenBabel11072415093D

 39 42  0  0  1  0  0  0  0  0999 V2000
  160.9780  206.5000  152.5710 C   0  0  1  0  0  3  0  0  0  0  0  0
  159.6060  213.1220  152.6270 C   0  0  0  0  0  0  0  0  0  0  0  0
  160.2120  210.9200  151.5250 C   0  0  0  0  0  2  0  0  0  0  0  0
  161.4940  206.1030  153.9540 C   0  0  0  0  0  2  0  0  0  0  0  0
  161.6350  210.7030  152.0090 C   0  0  0  0  0  2  0  0  0  0  0  0
  160.1500  207.3530  155.6400 C   0  0  0  0  0  2  0  0  0  0  0  0
  162.0450  207.0830  151.6090 C   0  0  2  0  0  0  0  0  0  0  0  0
  163.4950  206.9450  152.0940 C   0  0  0  0  0  1  0  0  0  0  0  0
  161.7360  208.4240  151.2580 O   0  0  0  0  0  0  0  0  0  0  0  0
  158.3630  211.6560  154.0790 N   0  0  0  0  0  2  0  0  0  0  0  0
  161.8440  209.2480  152.3920 C   0  0  0  0  0  2  0  0  0  0  0  0
  161.9680  206.8980  149.0550 C   0  0  0  0  0  1  0  0  0  0  0  0
  160.3430  205.3940  151.9750 O   0  0  0  0  0  0  0  0  0  0  0  0
  159.4380  209.6210  154.8860 C   0  0  0  0  0  2  0  0  0  0  0  0
  159.7970  208.7670  156.1000 C   0  0  2  0  0  3  0  0  0  0  0  0
  160.5800  205.4950  150.5970 C   0  0  1  0  0  3  0  0  0  0  0  0
  158.5260  210.7920  155.2400 C   0  0  2  0  0  3  0  0  0  0  0  0
  161.4740  207.2980  154.8870 C   0  0  0  0  0  2  0  0  0  0  0  0
  159.5450  212.5020  153.9830 C   0  0  0  0  0  2  0  0  0  0  0  0
  159.3530  214.3480  152.5010 O   0  0  0  0  0  0  0  0  0  0  0  0
  159.9150  212.3440  151.4670 N   0  0  0  0  0  2  0  0  0  0  0  0
  161.9080  206.1800  150.4000 C   0  0  2  0  0  3  0  0  0  0  0  0
  160.5990  203.9620  148.1770 O   0  0  0  0  0  0  0  0  0  0  0  0
  160.6120  203.8300  149.8630 P   0  0  0  0  0  0  0  0  0  0  0  0
  159.3980  203.0500  150.3130 O   0  0  0  0  0  1  0  0  0  0  0  0
  162.0130  203.0190  150.3480 O   0  0  0  0  0  1  0  0  0  0  0  0
  156.3960  211.3680  156.2680 N   0  0  0  0  0  1  0  0  0  0  0  0
  157.1650  210.2830  155.6860 C   0  0  0  0  0  2  0  0  0  0  0  0
  160.9310  209.3740  156.9270 C   0  0  0  0  0  2  0  0  0  0  0  0
  161.4130  210.6910  156.3450 C   0  0  0  0  0  2  0  0  0  0  0  0
  163.6050  211.5060  157.0740 C   0  0  1  0  0  3  0  0  0  0  0  0
  162.9090  210.6310  156.1050 C   0  0  1  0  0  3  0  0  0  0  0  0
  163.5440  210.1080  157.2450 O   0  0  0  0  0  0  0  0  0  0  0  0
  166.5900  212.1910  155.1430 O   0  0  0  0  0  0  0  0  0  0  0  0
  168.3050  213.1980  156.6080 C   0  0  0  0  0  1  0  0  0  0  0  0
  165.9660  212.4560  157.2600 C   0  0  0  0  0  3  0  0  0  0  0  0
  166.9660  212.6180  156.3250 C   0  0  0  0  0  0  0  0  0  0  0  0
  165.3600  211.7400  155.2180 C   0  0  0  0  0  3  0  0  0  0  0  0
  164.9360  211.9020  156.5250 C   0  0  0  0  0  0  0  0  0  0  0  0
  1  4  1  1  0  0  0
  2 19  1  0  0  0  0
  3  5  1  0  0  0  0
  4 18  1  0  0  0  0
  5 11  1  0  0  0  0
  6 15  1  0  0  0  0
  7  8  1  1  0  0  0
  7  1  1  0  0  0  0
  9  7  1  0  0  0  0
  9 11  1  0  0  0  0
 10 17  1  0  0  0  0
 13  1  1  0  0  0  0
 14 17  1  0  0  0  0
 14 15  1  0  0  0  0
 15 29  1  6  0  0  0
 16 24  1  1  0  0  0
 16 13  1  0  0  0  0
 17 28  1  6  0  0  0
 18  6  1  0  0  0  0
 19 10  1  0  0  0  0
 20  2  2  0  0  0  0
 21  3  1  0  0  0  0
 21  2  1  0  0  0  0
 22 12  1  6  0  0  0
 22 16  1  0  0  0  0
 22  7  1  0  0  0  0
 23 24  2  0  0  0  0
 24 25  1  0  0  0  0
 24 26  1  0  0  0  0
 28 27  1  0  0  0  0
 30 29  1  0  0  0  0
 31 39  1  6  0  0  0
 31 33  1  0  0  0  0
 32 30  1  1  0  0  0
 32 31  1  0  0  0  0
 32 33  1  0  0  0  0
 34 38  1  0  0  0  0
 34 37  1  0  0  0  0
 37 35  1  0  0  0  0
 37 36  2  0  0  0  0
 38 39  2  0  0  0  0
 39 36  1  0  0  0  0
M  END
>  <MODEL>
8

>  <REMARK>
 VINA RESULT:      -1.0      4.424      8.876
  Name = 
  6 active torsions:
  status: ('A' for Active; 'I' for Inactive)
    1  A    between atoms: C_1  and  C_21
    2  A    between atoms: C_1  and  C_34
    3  A    between atoms: P_7  and  C_24
    4  A    between atoms: C_21  and  C_23
    5  A    between atoms: C_27  and  C_33
    6  A    between atoms: C_28  and  C_35
                            x       y       z     vdW  Elec       q    Type
                         _______ _______ _______ _____ _____    ______ ____

>  <TORSDO>
F 6

$$$$
