=
 OpenBabel11072410503D

 40 44  0  0  1  0  0  0  0  0999 V2000
  160.7830  210.4750  147.1520 O   0  0  0  0  0  0  0  0  0  0  0  0
  162.3180  208.4200  149.6630 C   0  0  2  0  0  3  0  0  0  0  0  0
  162.0870  210.6650  150.4010 N   0  0  0  0  0  2  0  0  0  0  0  0
  162.8800  208.5090  151.0250 N   0  0  1  0  0  0  0  0  0  0  0  0
  163.2980  207.9520  148.7850 O   0  0  0  0  0  1  0  0  0  0  0  0
  161.4930  209.7830  152.5750 C   0  0  0  0  0  2  0  0  0  0  0  0
  161.9470  209.7980  149.3080 C   0  0  0  0  0  0  0  0  0  0  0  0
  161.3470  210.1440  148.2020 C   0  0  0  0  0  0  0  0  0  0  0  0
  162.5790  209.8750  151.5150 C   0  0  2  0  0  3  0  0  0  0  0  0
  161.0470  208.3420  152.5800 C   0  0  1  0  0  3  0  0  0  0  0  0
  162.2130  207.5880  151.9630 C   0  0  1  0  0  3  0  0  0  0  0  0
  160.0650  204.8030  150.2490 C   0  0  2  0  0  3  0  0  0  0  0  0
  161.8530  203.7440  151.6940 C   0  0  0  0  0  2  0  0  0  0  0  0
  162.1080  205.0940  152.3540 C   0  0  0  0  0  2  0  0  0  0  0  0
  161.8430  206.2200  151.3540 C   0  0  1  0  0  3  0  0  0  0  0  0
  160.3790  206.1560  150.9050 C   0  0  0  0  0  2  0  0  0  0  0  0
  160.4060  203.6560  151.2110 C   0  0  0  0  0  2  0  0  0  0  0  0
  161.9550  204.2960  146.4280 C   0  0  0  0  0  3  0  0  0  0  0  0
  161.4530  205.6090  148.3580 N   0  0  0  0  0  0  0  0  0  0  0  0
  162.0740  205.4820  147.1560 C   0  0  0  0  0  3  0  0  0  0  0  0
  161.1960  203.2420  146.9470 C   0  0  0  0  0  0  0  0  0  0  0  0
  160.6960  204.6080  148.8900 C   0  0  0  0  0  0  0  0  0  0  0  0
  160.5690  203.3990  148.1870 C   0  0  0  0  0  3  0  0  0  0  0  0
  161.0590  201.9880  146.1900 C   0  0  0  0  0  0  0  0  0  0  0  0
  160.5410  201.9950  145.0380 O   0  0  0  0  0  0  0  0  0  0  0  0
  161.2610  199.5310  146.1390 C   0  0  0  0  0  1  0  0  0  0  0  0
  161.4980  200.7880  146.7580 O   0  0  0  0  0  0  0  0  0  0  0  0
  160.7580  207.8960  153.9840 C   0  0  0  0  0  0  0  0  0  0  0  0
  160.4460  208.8490  155.0040 N   0  0  0  0  0  2  0  0  0  0  0  0
  160.7790  206.6710  154.2740 O   0  0  0  0  0  0  0  0  0  0  0  0
  160.4000  210.2910  154.7640 C   0  0  1  0  0  3  0  0  0  0  0  0
  158.5280  211.2320  153.5280 O   0  0  0  0  0  0  0  0  0  0  0  0
  158.8500  211.9710  155.7840 C   0  0  2  0  0  3  0  0  0  0  0  0
  158.3570  212.6250  153.5780 C   0  0  0  0  0  2  0  0  0  0  0  0
  158.8000  214.2660  155.2300 O   0  0  0  0  0  1  0  0  0  0  0  0
  158.9660  210.8230  154.8040 C   0  0  2  0  0  3  0  0  0  0  0  0
  158.0600  211.5940  156.8530 F   0  0  0  0  0  0  0  0  0  0  0  0
  158.1640  213.0470  155.0100 C   0  0  2  0  0  3  0  0  0  0  0  0
  161.3260  211.0510  155.7170 C   0  0  0  0  0  2  0  0  0  0  0  0
  162.4060  210.1650  156.3150 C   0  0  0  0  0  1  0  0  0  0  0  0
  1  8  2  0  0  0  0
  2  5  1  6  0  0  0
  2  4  1  0  0  0  0
  3  9  1  0  0  0  0
  4  9  1  0  0  0  0
  4 11  1  0  0  0  0
  6 10  1  0  0  0  0
  7  2  1  0  0  0  0
  7  3  1  0  0  0  0
  8  7  2  0  0  0  0
  9  6  1  0  0  0  0
 10 28  1  0  0  0  0
 11 10  1  0  0  0  0
 12 16  1  0  0  0  0
 12 17  1  0  0  0  0
 13 14  1  0  0  0  0
 15 11  1  0  0  0  0
 15 14  1  0  0  0  0
 16 15  1  0  0  0  0
 17 13  1  0  0  0  0
 18 21  2  0  0  0  0
 18 20  1  0  0  0  0
 19 22  1  0  0  0  0
 20 19  2  0  0  0  0
 21 23  1  0  0  0  0
 22 12  1  0  0  0  0
 23 22  2  0  0  0  0
 24 27  1  0  0  0  0
 24 21  1  0  0  0  0
 25 24  2  0  0  0  0
 26 27  1  0  0  0  0
 28 30  2  0  0  0  0
 28 29  1  0  0  0  0
 31 36  1  0  0  0  0
 31 29  1  0  0  0  0
 31 39  1  0  0  0  0
 32 34  1  0  0  0  0
 32 36  1  0  0  0  0
 33 37  1  0  0  0  0
 34 38  1  0  0  0  0
 36 33  1  0  0  0  0
 38 35  1  0  0  0  0
 38 33  1  0  0  0  0
 39 40  1  0  0  0  0
M  END
>  <MODEL>
1

>  <REMARK>
 VINA RESULT:      -5.8      0.000      0.000
  Name = 
  8 active torsions:
  status: ('A' for Active; 'I' for Inactive)
    1  A    between atoms: C_2  and  C_19
    2  A    between atoms: C_4  and  C_35
    3  A    between atoms: C_12  and  C_28
    4  A    between atoms: O_13  and  C_28
    5  A    between atoms: C_14  and  C_18
    6  A    between atoms: C_14  and  C_29
    7  A    between atoms: C_14  and  N_30
    8  A    between atoms: C_27  and  C_38
                            x       y       z     vdW  Elec       q    Type
                         _______ _______ _______ _____ _____    ______ ____

>  <TORSDO>
F 8

$$$$
=
 OpenBabel11072410503D

 40 44  0  0  1  0  0  0  0  0999 V2000
  160.8680  209.9200  147.1010 O   0  0  0  0  0  0  0  0  0  0  0  0
  162.3260  208.0790  149.8150 C   0  0  2  0  0  3  0  0  0  0  0  0
  162.0830  210.3770  150.3570 N   0  0  0  0  0  2  0  0  0  0  0  0
  162.8510  208.2790  151.1790 N   0  0  1  0  0  0  0  0  0  0  0  0
  163.3280  207.5380  149.0050 O   0  0  0  0  0  1  0  0  0  0  0  0
  161.4270  209.6800  152.5790 C   0  0  0  0  0  2  0  0  0  0  0  0
  161.9700  209.4230  149.3370 C   0  0  0  0  0  0  0  0  0  0  0  0
  161.4020  209.6770  148.1900 C   0  0  0  0  0  0  0  0  0  0  0  0
  162.5420  209.6810  151.5460 C   0  0  2  0  0  3  0  0  0  0  0  0
  160.9750  208.2450  152.6920 C   0  0  1  0  0  3  0  0  0  0  0  0
  162.1550  207.4410  152.1720 C   0  0  1  0  0  3  0  0  0  0  0  0
  160.0160  204.5030  150.7230 C   0  0  2  0  0  3  0  0  0  0  0  0
  161.8760  203.5800  152.1710 C   0  0  0  0  0  2  0  0  0  0  0  0
  162.1210  204.9770  152.7310 C   0  0  0  0  0  2  0  0  0  0  0  0
  161.7970  206.0270  151.6690 C   0  0  1  0  0  3  0  0  0  0  0  0
  160.3200  205.9030  151.2760 C   0  0  0  0  0  2  0  0  0  0  0  0
  160.4150  203.4300  151.7460 C   0  0  0  0  0  2  0  0  0  0  0  0
  161.6200  203.6320  146.8380 C   0  0  0  0  0  3  0  0  0  0  0  0
  160.9260  202.9490  149.0180 N   0  0  0  0  0  0  0  0  0  0  0  0
  161.4270  202.6340  147.7950 C   0  0  0  0  0  3  0  0  0  0  0  0
  161.2920  204.9560  147.1470 C   0  0  0  0  0  0  0  0  0  0  0  0
  160.6040  204.2300  149.3590 C   0  0  0  0  0  0  0  0  0  0  0  0
  160.7760  205.2530  148.4130 C   0  0  0  0  0  3  0  0  0  0  0  0
  161.4930  206.0200  146.1510 C   0  0  0  0  0  0  0  0  0  0  0  0
  162.3510  206.9250  146.3530 O   0  0  0  0  0  0  0  0  0  0  0  0
  161.1990  205.4690  143.7650 C   0  0  0  0  0  1  0  0  0  0  0  0
  160.7240  206.0260  144.9830 O   0  0  0  0  0  0  0  0  0  0  0  0
  160.6460  207.9170  154.1200 C   0  0  0  0  0  0  0  0  0  0  0  0
  160.2940  208.9510  155.0440 N   0  0  0  0  0  2  0  0  0  0  0  0
  160.6690  206.7210  154.5140 O   0  0  0  0  0  0  0  0  0  0  0  0
  160.2440  210.3660  154.6800 C   0  0  1  0  0  3  0  0  0  0  0  0
  158.4880  211.3070  153.2840 O   0  0  0  0  0  0  0  0  0  0  0  0
  158.5650  211.9910  155.5780 C   0  0  2  0  0  3  0  0  0  0  0  0
  158.2850  212.6960  153.3510 C   0  0  0  0  0  2  0  0  0  0  0  0
  158.5260  214.2990  155.0800 O   0  0  0  0  0  1  0  0  0  0  0  0
  158.8020  210.8720  154.5870 C   0  0  2  0  0  3  0  0  0  0  0  0
  157.6790  211.5720  156.5520 F   0  0  0  0  0  0  0  0  0  0  0  0
  157.9400  213.0750  154.7660 C   0  0  2  0  0  3  0  0  0  0  0  0
  161.0980  211.2210  155.6190 C   0  0  0  0  0  2  0  0  0  0  0  0
  162.4430  210.5860  155.9290 C   0  0  0  0  0  1  0  0  0  0  0  0
  1  8  2  0  0  0  0
  2  5  1  6  0  0  0
  2  4  1  0  0  0  0
  3  9  1  0  0  0  0
  4  9  1  0  0  0  0
  4 11  1  0  0  0  0
  6 10  1  0  0  0  0
  7  2  1  0  0  0  0
  7  3  1  0  0  0  0
  8  7  2  0  0  0  0
  9  6  1  0  0  0  0
 10 28  1  0  0  0  0
 11 10  1  0  0  0  0
 12 16  1  0  0  0  0
 12 17  1  0  0  0  0
 13 14  1  0  0  0  0
 15 11  1  0  0  0  0
 15 14  1  0  0  0  0
 16 15  1  0  0  0  0
 17 13  1  0  0  0  0
 18 21  2  0  0  0  0
 18 20  1  0  0  0  0
 19 22  1  0  0  0  0
 20 19  2  0  0  0  0
 21 23  1  0  0  0  0
 22 12  1  0  0  0  0
 23 22  2  0  0  0  0
 24 25  2  0  0  0  0
 24 21  1  0  0  0  0
 26 27  1  0  0  0  0
 27 24  1  0  0  0  0
 28 30  2  0  0  0  0
 28 29  1  0  0  0  0
 31 29  1  0  0  0  0
 31 39  1  0  0  0  0
 32 34  1  0  0  0  0
 32 36  1  0  0  0  0
 33 37  1  0  0  0  0
 34 38  1  0  0  0  0
 36 31  1  0  0  0  0
 36 33  1  0  0  0  0
 38 35  1  0  0  0  0
 38 33  1  0  0  0  0
 39 40  1  0  0  0  0
M  END
>  <MODEL>
2

>  <REMARK>
 VINA RESULT:      -5.6      1.403      1.913
  Name = 
  8 active torsions:
  status: ('A' for Active; 'I' for Inactive)
    1  A    between atoms: C_2  and  C_19
    2  A    between atoms: C_4  and  C_35
    3  A    between atoms: C_12  and  C_28
    4  A    between atoms: O_13  and  C_28
    5  A    between atoms: C_14  and  C_18
    6  A    between atoms: C_14  and  C_29
    7  A    between atoms: C_14  and  N_30
    8  A    between atoms: C_27  and  C_38
                            x       y       z     vdW  Elec       q    Type
                         _______ _______ _______ _____ _____    ______ ____

>  <TORSDO>
F 8

$$$$
=
 OpenBabel11072410503D

 40 44  0  0  1  0  0  0  0  0999 V2000
  159.9910  206.7270  145.4220 O   0  0  0  0  0  0  0  0  0  0  0  0
  161.9110  205.9340  148.3490 C   0  0  2  0  0  3  0  0  0  0  0  0
  161.5780  208.2750  148.1380 N   0  0  0  0  0  2  0  0  0  0  0  0
  162.5910  206.5910  149.4810 N   0  0  1  0  0  0  0  0  0  0  0  0
  162.8370  205.1780  147.6250 O   0  0  0  0  0  1  0  0  0  0  0  0
  161.2630  208.3440  150.5360 C   0  0  0  0  0  2  0  0  0  0  0  0
  161.4020  207.0310  147.5130 C   0  0  0  0  0  0  0  0  0  0  0  0
  160.6750  206.8750  146.4410 C   0  0  0  0  0  0  0  0  0  0  0  0
  162.2330  208.0270  149.4090 C   0  0  2  0  0  3  0  0  0  0  0  0
  160.9310  207.0190  151.1760 C   0  0  1  0  0  3  0  0  0  0  0  0
  162.0890  206.1160  150.7840 C   0  0  1  0  0  3  0  0  0  0  0  0
  160.0160  202.8040  150.5800 C   0  0  2  0  0  3  0  0  0  0  0  0
  161.9780  202.4960  152.1490 C   0  0  0  0  0  2  0  0  0  0  0  0
  162.1870  204.0060  152.1700 C   0  0  0  0  0  2  0  0  0  0  0  0
  161.7700  204.6070  150.8280 C   0  0  1  0  0  3  0  0  0  0  0  0
  160.2840  204.3160  150.5900 C   0  0  0  0  0  2  0  0  0  0  0  0
  160.5080  202.1700  151.8890 C   0  0  0  0  0  2  0  0  0  0  0  0
  161.5080  200.6550  147.1770 C   0  0  0  0  0  3  0  0  0  0  0  0
  161.2380  200.9160  149.5350 N   0  0  0  0  0  0  0  0  0  0  0  0
  161.7160  200.2030  148.4810 C   0  0  0  0  0  3  0  0  0  0  0  0
  160.8010  201.8420  146.9630 C   0  0  0  0  0  0  0  0  0  0  0  0
  160.5530  202.0830  149.3660 C   0  0  0  0  0  0  0  0  0  0  0  0
  160.3160  202.5560  148.0650 C   0  0  0  0  0  3  0  0  0  0  0  0
  160.5760  202.3330  145.5940 C   0  0  0  0  0  0  0  0  0  0  0  0
  160.0690  201.5730  144.7230 O   0  0  0  0  0  0  0  0  0  0  0  0
  162.2770  204.0070  144.9740 C   0  0  0  0  0  1  0  0  0  0  0  0
  160.9350  203.6440  145.2640 O   0  0  0  0  0  0  0  0  0  0  0  0
  160.8120  207.1800  152.6640 C   0  0  0  0  0  0  0  0  0  0  0  0
  160.6200  208.4720  153.2460 N   0  0  0  0  0  2  0  0  0  0  0  0
  160.8710  206.1700  153.4140 O   0  0  0  0  0  0  0  0  0  0  0  0
  160.5420  209.7000  152.4580 C   0  0  1  0  0  3  0  0  0  0  0  0
  159.2670  211.7450  152.1130 O   0  0  0  0  0  0  0  0  0  0  0  0
  159.3430  210.8470  154.3330 C   0  0  2  0  0  3  0  0  0  0  0  0
  159.4770  212.7960  153.0210 C   0  0  0  0  0  2  0  0  0  0  0  0
  160.0280  212.8780  155.3250 O   0  0  0  0  0  1  0  0  0  0  0  0
  159.3260  210.5440  152.8500 C   0  0  2  0  0  3  0  0  0  0  0  0
  158.2920  210.2000  154.9540 F   0  0  0  0  0  0  0  0  0  0  0  0
  159.1380  212.3230  154.4090 C   0  0  2  0  0  3  0  0  0  0  0  0
  161.8460  210.4980  152.5250 C   0  0  0  0  0  2  0  0  0  0  0  0
  162.5560  210.3480  153.8600 C   0  0  0  0  0  1  0  0  0  0  0  0
  1  8  2  0  0  0  0
  2  5  1  6  0  0  0
  2  4  1  0  0  0  0
  3  9  1  0  0  0  0
  4 11  1  0  0  0  0
  6 10  1  0  0  0  0
  7  3  1  0  0  0  0
  7  2  1  0  0  0  0
  8  7  2  0  0  0  0
  9  4  1  0  0  0  0
  9  6  1  0  0  0  0
 10 28  1  0  0  0  0
 11 15  1  0  0  0  0
 11 10  1  0  0  0  0
 12 16  1  0  0  0  0
 12 17  1  0  0  0  0
 13 14  1  0  0  0  0
 15 14  1  0  0  0  0
 16 15  1  0  0  0  0
 17 13  1  0  0  0  0
 18 20  1  0  0  0  0
 20 19  2  0  0  0  0
 21 18  2  0  0  0  0
 21 23  1  0  0  0  0
 22 19  1  0  0  0  0
 22 12  1  0  0  0  0
 23 22  2  0  0  0  0
 24 21  1  0  0  0  0
 25 24  2  0  0  0  0
 26 27  1  0  0  0  0
 27 24  1  0  0  0  0
 28 29  1  0  0  0  0
 28 30  2  0  0  0  0
 31 39  1  0  0  0  0
 31 36  1  0  0  0  0
 31 29  1  0  0  0  0
 32 36  1  0  0  0  0
 32 34  1  0  0  0  0
 33 38  1  0  0  0  0
 33 37  1  0  0  0  0
 34 38  1  0  0  0  0
 36 33  1  0  0  0  0
 38 35  1  0  0  0  0
 39 40  1  0  0  0  0
M  END
>  <MODEL>
3

>  <REMARK>
 VINA RESULT:      -5.3      1.809      2.638
  Name = 
  8 active torsions:
  status: ('A' for Active; 'I' for Inactive)
    1  A    between atoms: C_2  and  C_19
    2  A    between atoms: C_4  and  C_35
    3  A    between atoms: C_12  and  C_28
    4  A    between atoms: O_13  and  C_28
    5  A    between atoms: C_14  and  C_18
    6  A    between atoms: C_14  and  C_29
    7  A    between atoms: C_14  and  N_30
    8  A    between atoms: C_27  and  C_38
                            x       y       z     vdW  Elec       q    Type
                         _______ _______ _______ _____ _____    ______ ____

>  <TORSDO>
F 8

$$$$
=
 OpenBabel11072410503D

 40 44  0  0  1  0  0  0  0  0999 V2000
  162.7100  201.3140  151.7740 O   0  0  0  0  0  0  0  0  0  0  0  0
  160.7820  203.9960  150.3680 C   0  0  2  0  0  3  0  0  0  0  0  0
  161.3280  204.4180  152.6390 N   0  0  0  0  0  2  0  0  0  0  0  0
  160.1890  205.2940  150.7420 N   0  0  1  0  0  0  0  0  0  0  0  0
  159.7760  203.1350  149.9220 O   0  0  0  0  0  1  0  0  0  0  0  0
  161.6950  206.7270  152.0170 C   0  0  0  0  0  2  0  0  0  0  0  0
  161.3750  203.4700  151.6070 C   0  0  0  0  0  0  0  0  0  0  0  0
  162.0630  202.3650  151.6910 C   0  0  0  0  0  0  0  0  0  0  0  0
  160.6780  205.6010  152.1060 C   0  0  2  0  0  3  0  0  0  0  0  0
  161.9140  206.9660  150.5440 C   0  0  1  0  0  3  0  0  0  0  0  0
  160.6700  206.3930  149.8850 C   0  0  1  0  0  3  0  0  0  0  0  0
  162.3900  205.0950  146.6190 C   0  0  2  0  0  3  0  0  0  0  0  0
  160.5750  206.7590  146.0330 C   0  0  0  0  0  2  0  0  0  0  0  0
  160.5130  207.1920  147.4930 C   0  0  0  0  0  2  0  0  0  0  0  0
  160.8480  206.0100  148.4020 C   0  0  1  0  0  3  0  0  0  0  0  0
  162.2680  205.5260  148.0890 C   0  0  0  0  0  2  0  0  0  0  0  0
  161.9750  206.2470  145.6930 C   0  0  0  0  0  2  0  0  0  0  0  0
  160.3660  201.4630  145.5530 C   0  0  0  0  0  3  0  0  0  0  0  0
  160.8820  203.7630  145.1710 N   0  0  0  0  0  0  0  0  0  0  0  0
  160.2340  202.6290  144.7960 C   0  0  0  0  0  3  0  0  0  0  0  0
  161.1730  201.4710  146.6950 C   0  0  0  0  0  0  0  0  0  0  0  0
  161.6680  203.8120  146.2840 C   0  0  0  0  0  0  0  0  0  0  0  0
  161.8310  202.6510  147.0580 C   0  0  0  0  0  3  0  0  0  0  0  0
  161.3190  200.2520  147.5060 C   0  0  0  0  0  0  0  0  0  0  0  0
  161.0540  200.2740  148.7400 O   0  0  0  0  0  0  0  0  0  0  0  0
  161.3020  198.6620  145.6210 C   0  0  0  0  0  1  0  0  0  0  0  0
  161.7620  199.0710  146.9010 O   0  0  0  0  0  0  0  0  0  0  0  0
  162.0770  208.4340  150.2770 C   0  0  0  0  0  0  0  0  0  0  0  0
  161.5790  209.4050  151.2020 N   0  0  0  0  0  2  0  0  0  0  0  0
  162.6650  208.8240  149.2330 O   0  0  0  0  0  0  0  0  0  0  0  0
  160.8820  209.0490  152.4360 C   0  0  1  0  0  3  0  0  0  0  0  0
  161.3090  208.2840  154.7070 O   0  0  0  0  0  0  0  0  0  0  0  0
  162.1230  210.4530  154.0950 C   0  0  2  0  0  3  0  0  0  0  0  0
  161.0360  209.1830  155.7510 C   0  0  0  0  0  2  0  0  0  0  0  0
  161.1340  211.5440  155.9420 O   0  0  0  0  0  1  0  0  0  0  0  0
  161.8310  209.0410  153.6370 C   0  0  2  0  0  3  0  0  0  0  0  0
  163.4510  210.7560  153.8600 F   0  0  0  0  0  0  0  0  0  0  0  0
  161.8690  210.4220  155.5660 C   0  0  2  0  0  3  0  0  0  0  0  0
  159.6600  209.9390  152.6710 C   0  0  0  0  0  2  0  0  0  0  0  0
  159.8590  211.3550  152.1540 C   0  0  0  0  0  1  0  0  0  0  0  0
  2  5  1  1  0  0  0
  2  4  1  0  0  0  0
  2  7  1  0  0  0  0
  4  9  1  0  0  0  0
  6  9  1  0  0  0  0
  7  8  2  0  0  0  0
  7  3  1  0  0  0  0
  8  1  2  0  0  0  0
  9  3  1  0  0  0  0
 10  6  1  0  0  0  0
 11 10  1  0  0  0  0
 11  4  1  0  0  0  0
 12 16  1  0  0  0  0
 13 14  1  0  0  0  0
 14 15  1  0  0  0  0
 15 11  1  0  0  0  0
 16 15  1  0  0  0  0
 17 13  1  0  0  0  0
 17 12  1  0  0  0  0
 18 21  1  0  0  0  0
 19 22  2  0  0  0  0
 20 19  1  0  0  0  0
 20 18  2  0  0  0  0
 21 23  2  0  0  0  0
 21 24  1  0  0  0  0
 22 12  1  0  0  0  0
 22 23  1  0  0  0  0
 24 25  2  0  0  0  0
 26 27  1  0  0  0  0
 27 24  1  0  0  0  0
 28 10  1  0  0  0  0
 28 29  1  0  0  0  0
 29 31  1  0  0  0  0
 30 28  2  0  0  0  0
 31 39  1  0  0  0  0
 31 36  1  0  0  0  0
 32 34  1  0  0  0  0
 33 38  1  0  0  0  0
 36 33  1  0  0  0  0
 36 32  1  0  0  0  0
 37 33  1  0  0  0  0
 38 34  1  0  0  0  0
 38 35  1  0  0  0  0
 40 39  1  0  0  0  0
M  END
>  <MODEL>
4

>  <REMARK>
 VINA RESULT:      -5.0      2.262      4.709
  Name = 
  8 active torsions:
  status: ('A' for Active; 'I' for Inactive)
    1  A    between atoms: C_2  and  C_19
    2  A    between atoms: C_4  and  C_35
    3  A    between atoms: C_12  and  C_28
    4  A    between atoms: O_13  and  C_28
    5  A    between atoms: C_14  and  C_18
    6  A    between atoms: C_14  and  C_29
    7  A    between atoms: C_14  and  N_30
    8  A    between atoms: C_27  and  C_38
                            x       y       z     vdW  Elec       q    Type
                         _______ _______ _______ _____ _____    ______ ____

>  <TORSDO>
F 8

$$$$
=
 OpenBabel11072410503D

 40 44  0  0  1  0  0  0  0  0999 V2000
  162.4310  202.1350  151.8730 O   0  0  0  0  0  0  0  0  0  0  0  0
  160.8350  205.2800  151.2060 C   0  0  2  0  0  3  0  0  0  0  0  0
  161.0210  204.8790  153.5380 N   0  0  0  0  0  2  0  0  0  0  0  0
  160.2290  206.4250  151.9120 N   0  0  1  0  0  0  0  0  0  0  0  0
  159.8880  204.7020  150.3570 O   0  0  0  0  0  1  0  0  0  0  0  0
  161.5530  207.2250  153.7970 C   0  0  0  0  0  2  0  0  0  0  0  0
  161.2050  204.3270  152.2620 C   0  0  0  0  0  0  0  0  0  0  0  0
  161.8370  203.2030  152.0620 C   0  0  0  0  0  0  0  0  0  0  0  0
  160.5010  206.2210  153.3540 C   0  0  2  0  0  3  0  0  0  0  0  0
  162.0130  207.9200  152.5390 C   0  0  1  0  0  3  0  0  0  0  0  0
  160.8740  207.7020  151.5560 C   0  0  1  0  0  3  0  0  0  0  0  0
  162.9450  207.2080  148.2740 C   0  0  2  0  0  3  0  0  0  0  0  0
  161.6470  209.3780  148.1540 C   0  0  0  0  0  2  0  0  0  0  0  0
  161.3700  209.2840  149.6500 C   0  0  0  0  0  2  0  0  0  0  0  0
  161.2760  207.8180  150.0720 C   0  0  1  0  0  3  0  0  0  0  0  0
  162.6090  207.1250  149.7710 C   0  0  0  0  0  2  0  0  0  0  0  0
  162.9600  208.6730  147.8150 C   0  0  0  0  0  2  0  0  0  0  0  0
  160.5050  204.8230  145.6690 C   0  0  0  0  0  3  0  0  0  0  0  0
  161.3710  206.9330  146.3780 N   0  0  0  0  0  0  0  0  0  0  0  0
  160.5970  206.2090  145.5270 C   0  0  0  0  0  3  0  0  0  0  0  0
  161.2200  204.1870  146.6890 C   0  0  0  0  0  0  0  0  0  0  0  0
  162.0730  206.3480  147.3900 C   0  0  0  0  0  0  0  0  0  0  0  0
  162.0120  204.9540  147.5490 C   0  0  0  0  0  3  0  0  0  0  0  0
  161.1310  202.7270  146.8540 C   0  0  0  0  0  0  0  0  0  0  0  0
  160.9840  201.9820  145.8450 O   0  0  0  0  0  0  0  0  0  0  0  0
  161.2620  200.7680  148.3460 C   0  0  0  0  0  1  0  0  0  0  0  0
  161.2030  202.1720  148.1350 O   0  0  0  0  0  0  0  0  0  0  0  0
  162.2610  209.3740  152.8130 C   0  0  0  0  0  0  0  0  0  0  0  0
  161.4980  210.0720  153.8010 N   0  0  0  0  0  2  0  0  0  0  0  0
  163.1540  209.9930  152.1760 O   0  0  0  0  0  0  0  0  0  0  0  0
  160.4400  209.4410  154.5880 C   0  0  1  0  0  3  0  0  0  0  0  0
  160.2670  210.7460  156.6340 O   0  0  0  0  0  0  0  0  0  0  0  0
  162.2040  209.3640  156.3610 C   0  0  2  0  0  3  0  0  0  0  0  0
  161.4010  211.4710  157.0340 C   0  0  0  0  0  2  0  0  0  0  0  0
  163.7340  211.1060  156.8140 O   0  0  0  0  0  1  0  0  0  0  0  0
  160.7250  209.5290  156.0890 C   0  0  2  0  0  3  0  0  0  0  0  0
  162.4250  208.1800  157.0380 F   0  0  0  0  0  0  0  0  0  0  0  0
  162.5470  210.5170  157.2440 C   0  0  2  0  0  3  0  0  0  0  0  0
  159.0600  209.9970  154.2270 C   0  0  0  0  0  2  0  0  0  0  0  0
  159.1320  211.1340  153.2220 C   0  0  0  0  0  1  0  0  0  0  0  0
  1  8  2  0  0  0  0
  2  5  1  6  0  0  0
  2  4  1  0  0  0  0
  2  7  1  0  0  0  0
  4  9  1  0  0  0  0
  7  3  1  0  0  0  0
  8  7  2  0  0  0  0
  9  3  1  0  0  0  0
  9  6  1  0  0  0  0
 10 28  1  0  0  0  0
 10  6  1  0  0  0  0
 11  4  1  0  0  0  0
 11 10  1  0  0  0  0
 12 16  1  0  0  0  0
 13 14  1  0  0  0  0
 14 15  1  0  0  0  0
 15 11  1  0  0  0  0
 16 15  1  0  0  0  0
 17 13  1  0  0  0  0
 17 12  1  0  0  0  0
 18 21  1  0  0  0  0
 19 22  2  0  0  0  0
 20 18  2  0  0  0  0
 20 19  1  0  0  0  0
 21 24  1  0  0  0  0
 21 23  2  0  0  0  0
 22 23  1  0  0  0  0
 22 12  1  0  0  0  0
 24 27  1  0  0  0  0
 25 24  2  0  0  0  0
 27 26  1  0  0  0  0
 28 29  1  0  0  0  0
 29 31  1  0  0  0  0
 30 28  2  0  0  0  0
 31 36  1  0  0  0  0
 32 34  1  0  0  0  0
 33 37  1  0  0  0  0
 33 38  1  0  0  0  0
 34 38  1  0  0  0  0
 35 38  1  0  0  0  0
 36 33  1  0  0  0  0
 36 32  1  0  0  0  0
 39 31  1  0  0  0  0
 40 39  1  0  0  0  0
M  END
>  <MODEL>
5

>  <REMARK>
 VINA RESULT:      -3.7      2.435      4.262
  Name = 
  8 active torsions:
  status: ('A' for Active; 'I' for Inactive)
    1  A    between atoms: C_2  and  C_19
    2  A    between atoms: C_4  and  C_35
    3  A    between atoms: C_12  and  C_28
    4  A    between atoms: O_13  and  C_28
    5  A    between atoms: C_14  and  C_18
    6  A    between atoms: C_14  and  C_29
    7  A    between atoms: C_14  and  N_30
    8  A    between atoms: C_27  and  C_38
                            x       y       z     vdW  Elec       q    Type
                         _______ _______ _______ _____ _____    ______ ____

>  <TORSDO>
F 8

$$$$
=
 OpenBabel11072410503D

 40 44  0  0  1  0  0  0  0  0999 V2000
  163.8610  211.1770  157.2590 O   0  0  0  0  0  0  0  0  0  0  0  0
  161.4050  209.3780  155.3580 C   0  0  2  0  0  3  0  0  0  0  0  0
  160.4390  210.4180  157.2600 N   0  0  0  0  0  2  0  0  0  0  0  0
  159.9670  209.0490  155.3720 N   0  0  1  0  0  0  0  0  0  0  0  0
  162.1530  208.1990  155.3700 O   0  0  0  0  0  1  0  0  0  0  0  0
  158.5310  210.9550  155.8730 C   0  0  0  0  0  2  0  0  0  0  0  0
  161.6410  210.1320  156.5980 C   0  0  0  0  0  0  0  0  0  0  0  0
  162.7800  210.6700  156.9360 C   0  0  0  0  0  0  0  0  0  0  0  0
  159.3670  209.8370  156.4730 C   0  0  2  0  0  3  0  0  0  0  0  0
  158.7860  210.9050  154.3860 C   0  0  1  0  0  3  0  0  0  0  0  0
  159.2830  209.4890  154.1420 C   0  0  1  0  0  3  0  0  0  0  0  0
  162.2400  208.4290  151.8100 C   0  0  2  0  0  3  0  0  0  0  0  0
  161.0720  210.4590  150.8500 C   0  0  0  0  0  2  0  0  0  0  0  0
  160.3550  210.6640  152.1800 C   0  0  0  0  0  2  0  0  0  0  0  0
  160.1160  209.3150  152.8560 C   0  0  1  0  0  3  0  0  0  0  0  0
  161.4670  208.6420  153.1200 C   0  0  0  0  0  2  0  0  0  0  0  0
  162.4150  209.7660  151.0760 C   0  0  0  0  0  2  0  0  0  0  0  0
  160.6710  205.4300  149.1700 C   0  0  0  0  0  3  0  0  0  0  0  0
  161.3950  207.6630  149.6090 N   0  0  0  0  0  0  0  0  0  0  0  0
  160.9080  206.7370  148.7410 C   0  0  0  0  0  3  0  0  0  0  0  0
  160.9430  205.0810  150.4970 C   0  0  0  0  0  0  0  0  0  0  0  0
  161.6630  207.3610  150.9110 C   0  0  0  0  0  0  0  0  0  0  0  0
  161.4480  206.0510  151.3690 C   0  0  0  0  0  3  0  0  0  0  0  0
  160.6960  203.7080  150.9650 C   0  0  0  0  0  0  0  0  0  0  0  0
  159.8130  203.4850  151.8400 O   0  0  0  0  0  0  0  0  0  0  0  0
  160.9070  201.3530  150.2660 C   0  0  0  0  0  1  0  0  0  0  0  0
  161.4500  202.6540  150.4410 O   0  0  0  0  0  0  0  0  0  0  0  0
  157.5220  211.2040  153.6350 C   0  0  0  0  0  0  0  0  0  0  0  0
  157.4190  212.3690  152.8120 N   0  0  0  0  0  2  0  0  0  0  0  0
  156.5390  210.4210  153.7170 O   0  0  0  0  0  0  0  0  0  0  0  0
  158.5040  213.3370  152.6570 C   0  0  1  0  0  3  0  0  0  0  0  0
  156.9250  214.4150  151.1520 O   0  0  0  0  0  0  0  0  0  0  0  0
  158.9900  213.6360  150.2200 C   0  0  2  0  0  3  0  0  0  0  0  0
  156.6590  213.7740  149.9300 C   0  0  0  0  0  2  0  0  0  0  0  0
  157.9540  212.4170  148.4820 O   0  0  0  0  0  1  0  0  0  0  0  0
  158.2940  214.2250  151.4280 C   0  0  2  0  0  3  0  0  0  0  0  0
  160.0370  214.4530  149.8390 F   0  0  0  0  0  0  0  0  0  0  0  0
  157.9420  213.6350  149.1570 C   0  0  2  0  0  3  0  0  0  0  0  0
  158.7170  214.1550  153.9330 C   0  0  0  0  0  2  0  0  0  0  0  0
  157.4180  214.4490  154.6640 C   0  0  0  0  0  1  0  0  0  0  0  0
  2  5  1  1  0  0  0
  2  4  1  0  0  0  0
  2  7  1  0  0  0  0
  4  9  1  0  0  0  0
  6  9  1  0  0  0  0
  7  8  2  0  0  0  0
  7  3  1  0  0  0  0
  8  1  2  0  0  0  0
  9  3  1  0  0  0  0
 10  6  1  0  0  0  0
 11 10  1  0  0  0  0
 11  4  1  0  0  0  0
 12 16  1  0  0  0  0
 13 17  1  0  0  0  0
 13 14  1  0  0  0  0
 14 15  1  0  0  0  0
 15 16  1  0  0  0  0
 15 11  1  0  0  0  0
 17 12  1  0  0  0  0
 18 21  1  0  0  0  0
 19 22  2  0  0  0  0
 20 18  2  0  0  0  0
 20 19  1  0  0  0  0
 21 24  1  0  0  0  0
 21 23  2  0  0  0  0
 22 23  1  0  0  0  0
 22 12  1  0  0  0  0
 24 25  2  0  0  0  0
 26 27  1  0  0  0  0
 27 24  1  0  0  0  0
 28 30  2  0  0  0  0
 28 10  1  0  0  0  0
 29 28  1  0  0  0  0
 31 29  1  0  0  0  0
 31 39  1  0  0  0  0
 32 36  1  0  0  0  0
 33 36  1  0  0  0  0
 34 32  1  0  0  0  0
 35 38  1  0  0  0  0
 36 31  1  0  0  0  0
 37 33  1  0  0  0  0
 38 34  1  0  0  0  0
 38 33  1  0  0  0  0
 39 40  1  0  0  0  0
M  END
>  <MODEL>
6

>  <REMARK>
 VINA RESULT:      -3.2      2.816      5.568
  Name = 
  8 active torsions:
  status: ('A' for Active; 'I' for Inactive)
    1  A    between atoms: C_2  and  C_19
    2  A    between atoms: C_4  and  C_35
    3  A    between atoms: C_12  and  C_28
    4  A    between atoms: O_13  and  C_28
    5  A    between atoms: C_14  and  C_18
    6  A    between atoms: C_14  and  C_29
    7  A    between atoms: C_14  and  N_30
    8  A    between atoms: C_27  and  C_38
                            x       y       z     vdW  Elec       q    Type
                         _______ _______ _______ _____ _____    ______ ____

>  <TORSDO>
F 8

$$$$
=
 OpenBabel11072410503D

 40 44  0  0  1  0  0  0  0  0999 V2000
  160.7150  212.5660  147.8120 O   0  0  0  0  0  0  0  0  0  0  0  0
  162.1560  209.4960  148.9860 C   0  0  2  0  0  3  0  0  0  0  0  0
  162.2450  211.1870  150.6490 N   0  0  0  0  0  2  0  0  0  0  0  0
  162.8130  208.9250  150.1760 N   0  0  1  0  0  0  0  0  0  0  0  0
  163.0120  209.3930  147.8860 O   0  0  0  0  0  1  0  0  0  0  0  0
  161.6960  209.4790  152.2720 C   0  0  0  0  0  2  0  0  0  0  0  0
  161.9290  210.9110  149.3100 C   0  0  0  0  0  0  0  0  0  0  0  0
  161.3030  211.7600  148.5420 C   0  0  0  0  0  0  0  0  0  0  0  0
  162.7110  209.9480  151.2430 C   0  0  2  0  0  3  0  0  0  0  0  0
  161.0810  208.2260  151.6990 C   0  0  1  0  0  3  0  0  0  0  0  0
  162.1050  207.7370  150.6880 C   0  0  1  0  0  3  0  0  0  0  0  0
  162.0200  205.3630  147.5790 C   0  0  2  0  0  3  0  0  0  0  0  0
  159.8070  206.5720  147.8000 C   0  0  0  0  0  2  0  0  0  0  0  0
  160.4420  207.5340  148.7970 C   0  0  0  0  0  2  0  0  0  0  0  0
  161.5340  206.8170  149.5900 C   0  0  1  0  0  3  0  0  0  0  0  0
  162.6140  206.3240  148.6190 C   0  0  0  0  0  2  0  0  0  0  0  0
  160.8630  206.0410  146.8310 C   0  0  0  0  0  2  0  0  0  0  0  0
  160.8010  201.5810  149.2030 C   0  0  0  0  0  3  0  0  0  0  0  0
  161.2330  203.9180  149.4340 N   0  0  0  0  0  0  0  0  0  0  0  0
  160.8310  202.7400  149.9810 C   0  0  0  0  0  3  0  0  0  0  0  0
  161.1820  201.6430  147.8590 C   0  0  0  0  0  0  0  0  0  0  0  0
  161.6220  204.0140  148.1310 C   0  0  0  0  0  0  0  0  0  0  0  0
  161.5890  202.8680  147.3210 C   0  0  0  0  0  3  0  0  0  0  0  0
  161.1590  200.4290  147.0270 C   0  0  0  0  0  0  0  0  0  0  0  0
  161.9450  199.4730  147.2770 O   0  0  0  0  0  0  0  0  0  0  0  0
  160.0810  201.4200  145.0430 C   0  0  0  0  0  1  0  0  0  0  0  0
  160.2660  200.3460  145.9550 O   0  0  0  0  0  0  0  0  0  0  0  0
  160.8340  207.2260  152.7910 C   0  0  0  0  0  0  0  0  0  0  0  0
  160.7560  207.6400  154.1570 N   0  0  0  0  0  2  0  0  0  0  0  0
  160.6850  206.0070  152.5080 O   0  0  0  0  0  0  0  0  0  0  0  0
  160.9200  209.0290  154.5830 C   0  0  1  0  0  3  0  0  0  0  0  0
  159.1980  210.5210  153.7270 O   0  0  0  0  0  0  0  0  0  0  0  0
  159.5980  210.5300  156.0880 C   0  0  2  0  0  3  0  0  0  0  0  0
  159.2140  211.8510  154.1800 C   0  0  0  0  0  2  0  0  0  0  0  0
  159.8590  212.8740  156.2180 O   0  0  0  0  0  1  0  0  0  0  0  0
  159.5680  209.7090  154.8180 C   0  0  2  0  0  3  0  0  0  0  0  0
  158.7580  209.9660  157.0290 F   0  0  0  0  0  0  0  0  0  0  0  0
  159.0690  211.8630  155.6770 C   0  0  2  0  0  3  0  0  0  0  0  0
  161.8440  209.1430  155.7970 C   0  0  0  0  0  2  0  0  0  0  0  0
  162.7180  210.3850  155.7540 C   0  0  0  0  0  1  0  0  0  0  0  0
  1  8  2  0  0  0  0
  2  5  1  6  0  0  0
  2  7  1  0  0  0  0
  2  4  1  0  0  0  0
  3  9  1  0  0  0  0
  4 11  1  0  0  0  0
  4  9  1  0  0  0  0
  7  3  1  0  0  0  0
  8  7  2  0  0  0  0
  9  6  1  0  0  0  0
 10  6  1  0  0  0  0
 10 28  1  0  0  0  0
 11 10  1  0  0  0  0
 12 22  1  0  0  0  0
 12 16  1  0  0  0  0
 13 14  1  0  0  0  0
 14 15  1  0  0  0  0
 15 11  1  0  0  0  0
 16 15  1  0  0  0  0
 17 12  1  0  0  0  0
 17 13  1  0  0  0  0
 18 20  1  0  0  0  0
 19 20  2  0  0  0  0
 21 18  2  0  0  0  0
 22 19  1  0  0  0  0
 23 21  1  0  0  0  0
 23 22  2  0  0  0  0
 24 25  2  0  0  0  0
 24 21  1  0  0  0  0
 26 27  1  0  0  0  0
 27 24  1  0  0  0  0
 28 29  1  0  0  0  0
 29 31  1  0  0  0  0
 30 28  2  0  0  0  0
 31 36  1  0  0  0  0
 31 39  1  0  0  0  0
 32 34  1  0  0  0  0
 32 36  1  0  0  0  0
 33 37  1  0  0  0  0
 34 38  1  0  0  0  0
 36 33  1  0  0  0  0
 38 33  1  0  0  0  0
 38 35  1  0  0  0  0
 40 39  1  0  0  0  0
M  END
>  <MODEL>
7

>  <REMARK>
 VINA RESULT:      -3.1      1.467      2.329
  Name = 
  8 active torsions:
  status: ('A' for Active; 'I' for Inactive)
    1  A    between atoms: C_2  and  C_19
    2  A    between atoms: C_4  and  C_35
    3  A    between atoms: C_12  and  C_28
    4  A    between atoms: O_13  and  C_28
    5  A    between atoms: C_14  and  C_18
    6  A    between atoms: C_14  and  C_29
    7  A    between atoms: C_14  and  N_30
    8  A    between atoms: C_27  and  C_38
                            x       y       z     vdW  Elec       q    Type
                         _______ _______ _______ _____ _____    ______ ____

>  <TORSDO>
F 8

$$$$
