=
 OpenBabel11072414193D

 56 60  0  0  1  0  0  0  0  0999 V2000
  162.5340  210.5960  150.3420 N   0  0  0  0  0  0  0  0  0  0  0  0
  162.4060  209.3440  151.0060 C   0  0  0  0  0  0  0  0  0  0  0  0
  162.6930  209.2030  152.2230 O   0  0  0  0  0  0  0  0  0  0  0  0
  161.9250  208.2750  150.1120 C   0  0  0  0  0  0  0  0  0  0  0  0
  161.6700  206.9830  150.4310 C   0  0  0  0  0  0  0  0  0  0  0  0
  161.9960  211.5210  147.9070 S   0  0  0  0  0  0  0  0  0  0  0  0
  162.1310  210.3450  149.0020 C   0  0  0  0  0  0  0  0  0  0  0  0
  161.1520  208.4570  147.7290 C   0  0  0  0  0  2  0  0  0  0  0  0
  161.7670  208.9400  148.8040 C   0  0  0  0  0  0  0  0  0  0  0  0
  161.2160  206.0060  149.3670 C   0  0  1  0  0  3  0  0  0  0  0  0
  162.2720  205.8760  148.2840 C   0  0  0  0  0  1  0  0  0  0  0  0
  160.8770  204.6240  149.9070 C   0  0  0  0  0  2  0  0  0  0  0  0
  161.3710  203.5450  148.9610 C   0  0  0  0  0  2  0  0  0  0  0  0
  160.5510  202.2800  149.1540 C   0  0  1  0  0  3  0  0  0  0  0  0
  161.2020  201.1560  148.4960 N   0  0  0  0  0  2  0  0  0  0  0  0
  161.1410  200.9050  147.0860 C   0  0  0  0  0  0  0  0  0  0  0  0
  161.4520  199.7230  146.6600 N   0  0  0  0  0  2  0  0  0  0  0  0
  159.6870  201.8460  145.2630 C   0  0  0  0  0  3  0  0  0  0  0  0
  159.3640  202.8630  144.3610 C   0  0  0  0  0  3  0  0  0  0  0  0
  161.5810  203.1320  146.0380 C   0  0  0  0  0  3  0  0  0  0  0  0
  160.8040  201.9650  146.1040 C   0  0  0  0  0  0  0  0  0  0  0  0
  161.2600  204.1500  145.1350 C   0  0  0  0  0  0  0  0  0  0  0  0
  160.1520  204.0140  144.2940 C   0  0  0  0  0  3  0  0  0  0  0  0
  162.0910  205.3810  145.0760 C   0  0  0  0  0  1  0  0  0  0  0  0
  161.5300  202.1710  151.4850 C   0  0  0  0  0  1  0  0  0  0  0  0
  160.2900  201.9720  150.6280 C   0  0  0  0  0  2  0  0  0  0  0  0
  160.2190  211.6400  147.6330 C   0  0  0  0  0  2  0  0  0  0  0  0
  159.1810  214.1230  144.8500 C   0  0  0  0  0  2  0  0  0  0  0  0
  159.8720  212.9450  146.9390 C   0  0  2  0  0  3  0  0  0  0  0  0
  158.5920  212.6480  145.6930 S   0  0  0  0  0  0  0  0  0  0  0  0
  160.6810  214.2110  145.0840 C   0  0  1  0  0  3  0  0  0  0  0  0
  161.0660  213.4840  146.2930 N   0  0  0  0  0  0  0  0  0  0  0  0
  162.9650  213.9270  147.7470 C   0  0  0  0  0  1  0  0  0  0  0  0
  161.6490  214.4530  147.2090 C   0  0  0  0  0  2  0  0  0  0  0  0
  162.6360  213.0030  144.3100 O   0  0  0  0  0  1  0  0  0  0  0  0
  161.4950  213.7000  143.8950 C   0  0  1  0  0  3  0  0  0  0  0  0
  160.6430  212.8680  142.9340 C   0  0  2  0  0  3  0  0  0  0  0  0
  161.3610  211.7760  142.4430 O   0  0  0  0  0  1  0  0  0  0  0  0
  158.7580  213.4240  141.5440 F   0  0  0  0  0  0  0  0  0  0  0  0
  160.0970  213.6970  141.7740 C   0  0  2  0  0  3  0  0  0  0  0  0
  161.0450  213.4420  140.2820 S   0  0  0  0  0  0  0  0  0  0  0  0
  160.5940  214.4100  139.2240 O   0  0  0  0  0  0  0  0  0  0  0  0
  162.5000  213.6710  140.5840 O   0  0  0  0  0  0  0  0  0  0  0  0
  160.8140  211.8160  139.7320 N   0  0  0  0  0  2  0  0  0  0  0  0
  160.4740  211.8630  138.3170 C   0  0  2  0  0  3  0  0  0  0  0  0
  159.6920  210.6230  137.9310 C   0  0  0  0  0  2  0  0  0  0  0  0
  160.8010  209.2110  137.6080 S   0  0  0  0  0  0  0  0  0  0  0  0
  161.9780  211.9240  137.3110 S   0  0  0  0  0  0  0  0  0  0  0  0
  162.3330  210.1910  137.7000 C   0  0  0  0  0  2  0  0  0  0  0  0
  161.8170  206.4160  152.1430 S   0  0  0  0  0  0  0  0  0  0  0  0
  160.5560  207.5680  152.7770 C   0  0  0  0  0  2  0  0  0  0  0  0
  160.5520  207.5770  154.2970 C   0  0  0  0  0  2  0  0  0  0  0  0
  161.2160  208.8360  154.8250 C   0  0  0  0  0  2  0  0  0  0  0  0
  159.3710  208.9620  156.4610 C   0  0  0  0  0  2  0  0  0  0  0  0
  160.8760  209.0080  156.2910 C   0  0  0  0  0  3  0  0  0  0  0  0
  160.2080  207.7450  156.7980 C   0  0  0  0  0  2  0  0  0  0  0  0
  1  2  1  0  0  0  0
  2  3  2  0  0  0  0
  4  5  2  0  0  0  0
  4  2  1  0  0  0  0
  5 50  1  0  0  0  0
  6  7  1  0  0  0  0
  7  1  2  0  0  0  0
  8  9  2  0  0  0  0
  9  7  1  0  0  0  0
  9  4  1  0  0  0  0
 10 11  1  6  0  0  0
 10 12  1  0  0  0  0
 10  5  1  0  0  0  0
 13 12  1  0  0  0  0
 14 13  1  1  0  0  0
 14 26  1  0  0  0  0
 15 14  1  0  0  0  0
 16 15  1  0  0  0  0
 17 16  2  0  0  0  0
 18 21  1  0  0  0  0
 19 18  2  0  0  0  0
 20 21  2  0  0  0  0
 21 16  1  0  0  0  0
 22 20  1  0  0  0  0
 23 19  1  0  0  0  0
 23 22  2  0  0  0  0
 24 22  1  0  0  0  0
 26 25  1  0  0  0  0
 27  6  1  0  0  0  0
 28 31  1  0  0  0  0
 28 30  1  0  0  0  0
 29 27  1  6  0  0  0
 30 29  1  0  0  0  0
 31 36  1  6  0  0  0
 31 32  1  0  0  0  0
 32 29  1  0  0  0  0
 32 34  1  0  0  0  0
 34 33  1  0  0  0  0
 36 35  1  1  0  0  0
 37 38  1  6  0  0  0
 37 36  1  0  0  0  0
 40 39  1  6  0  0  0
 40 37  1  0  0  0  0
 41 43  2  0  0  0  0
 41 40  1  0  0  0  0
 42 41  2  0  0  0  0
 44 41  1  0  0  0  0
 45 44  1  1  0  0  0
 46 45  1  0  0  0  0
 47 49  1  0  0  0  0
 47 46  1  0  0  0  0
 48 49  1  0  0  0  0
 48 45  1  0  0  0  0
 50 51  1  0  0  0  0
 51 52  1  0  0  0  0
 52 53  1  0  0  0  0
 53 55  1  0  0  0  0
 54 56  1  0  0  0  0
 55 54  1  0  0  0  0
 55 56  1  0  0  0  0
M  END
>  <MODEL>
1

>  <REMARK>
 VINA RESULT:      -5.9      0.000      0.000
  Name = 
  21 active torsions:
  status: ('A' for Active; 'I' for Inactive)
    1  A    between atoms: C_1  and  C_12
    2  A    between atoms: C_1  and  C_45
    3  A    between atoms: N_6  and  C_39
    4  A    between atoms: C_9  and  C_18
    5  A    between atoms: C_9  and  C_37
    6  A    between atoms: C_11  and  N_28
    7  A    between atoms: C_12  and  C_27
    8  A    between atoms: C_14  and  C_20
    9  A    between atoms: C_15  and  C_40
   10  A    between atoms: C_15  and  C_54
   11  A    between atoms: C_18  and  C_52
   12  A    between atoms: C_20  and  S_46
   13  A    between atoms: C_22  and  C_39
   14  A    between atoms: C_22  and  C_54
   15  A    between atoms: C_25  and  C_48
   16  A    between atoms: N_28  and  S_31
   17  A    between atoms: C_29  and  N_42
   18  A    between atoms: S_31  and  C_52
   19  A    between atoms: C_39  and  C_56
   20  A    between atoms: C_40  and  S_55
   21  A    between atoms: C_45  and  S_55
                            x       y       z     vdW  Elec       q    Type
                         _______ _______ _______ _____ _____    ______ ____

>  <TORSDO>
F 21

$$$$
=
 OpenBabel11072414193D

 56 60  0  0  1  0  0  0  0  0999 V2000
  160.7990  203.9210  151.0230 N   0  0  0  0  0  0  0  0  0  0  0  0
  160.8810  204.3530  149.6700 C   0  0  0  0  0  0  0  0  0  0  0  0
  160.4370  203.6570  148.7200 O   0  0  0  0  0  0  0  0  0  0  0  0
  161.5390  205.6650  149.5330 C   0  0  0  0  0  0  0  0  0  0  0  0
  161.7510  206.3690  148.3940 C   0  0  0  0  0  0  0  0  0  0  0  0
  161.4270  204.9560  153.3920 S   0  0  0  0  0  0  0  0  0  0  0  0
  161.4070  204.9600  151.7790 C   0  0  0  0  0  0  0  0  0  0  0  0
  162.3040  207.2290  151.3440 C   0  0  0  0  0  2  0  0  0  0  0  0
  161.8920  206.0390  150.9160 C   0  0  0  0  0  0  0  0  0  0  0  0
  162.4860  207.6920  148.4370 C   0  0  1  0  0  3  0  0  0  0  0  0
  163.9400  207.5020  148.0450 C   0  0  0  0  0  1  0  0  0  0  0  0
  161.8640  208.7670  147.5570 C   0  0  0  0  0  2  0  0  0  0  0  0
  161.3620  209.9250  148.4020 C   0  0  0  0  0  2  0  0  0  0  0  0
  161.3880  211.2040  147.5840 C   0  0  1  0  0  3  0  0  0  0  0  0
  160.0350  211.5830  147.2030 N   0  0  0  0  0  2  0  0  0  0  0  0
  159.7160  212.3750  146.0520 C   0  0  0  0  0  0  0  0  0  0  0  0
  158.5490  212.9320  145.9950 N   0  0  0  0  0  2  0  0  0  0  0  0
  161.9650  212.9550  145.0880 C   0  0  0  0  0  3  0  0  0  0  0  0
  162.8390  213.0600  144.0020 C   0  0  0  0  0  3  0  0  0  0  0  0
  160.2210  212.1680  143.6110 C   0  0  0  0  0  3  0  0  0  0  0  0
  160.6440  212.5180  144.9030 C   0  0  0  0  0  0  0  0  0  0  0  0
  161.0930  212.2730  142.5240 C   0  0  0  0  0  0  0  0  0  0  0  0
  162.4030  212.7230  142.7200 C   0  0  0  0  0  3  0  0  0  0  0  0
  160.6320  211.8990  141.1610 C   0  0  0  0  0  1  0  0  0  0  0  0
  163.2480  212.9200  147.5110 C   0  0  0  0  0  1  0  0  0  0  0  0
  162.0890  212.3510  148.3140 C   0  0  0  0  0  2  0  0  0  0  0  0
  160.3120  206.3020  153.8310 C   0  0  0  0  0  2  0  0  0  0  0  0
  161.7940  209.1550  155.9880 C   0  0  0  0  0  2  0  0  0  0  0  0
  161.1000  207.5420  154.2150 C   0  0  2  0  0  3  0  0  0  0  0  0
  161.7350  207.3590  155.9010 S   0  0  0  0  0  0  0  0  0  0  0  0
  160.6420  209.6880  155.1520 C   0  0  1  0  0  3  0  0  0  0  0  0
  160.2290  208.7120  154.1450 N   0  0  0  0  0  0  0  0  0  0  0  0
  161.8230  209.9430  152.7800 C   0  0  0  0  0  1  0  0  0  0  0  0
  160.4390  209.3260  152.8420 C   0  0  0  0  0  2  0  0  0  0  0  0
  159.1410  209.1310  156.9740 O   0  0  0  0  0  1  0  0  0  0  0  0
  159.4350  210.0930  156.0010 C   0  0  1  0  0  3  0  0  0  0  0  0
  159.6090  211.4840  156.6160 C   0  0  2  0  0  3  0  0  0  0  0  0
  158.4350  211.9060  157.2430 O   0  0  0  0  0  1  0  0  0  0  0  0
  160.7770  213.5430  156.1840 F   0  0  0  0  0  0  0  0  0  0  0  0
  160.0540  212.5220  155.5890 C   0  0  2  0  0  3  0  0  0  0  0  0
  158.6650  213.1910  154.6880 S   0  0  0  0  0  0  0  0  0  0  0  0
  157.5410  212.1920  154.6770 O   0  0  0  0  0  0  0  0  0  0  0  0
  158.2060  214.4530  155.3640 O   0  0  0  0  0  0  0  0  0  0  0  0
  159.1560  213.5440  153.0650 N   0  0  0  0  0  2  0  0  0  0  0  0
  158.5250  212.5750  152.1820 C   0  0  2  0  0  3  0  0  0  0  0  0
  159.3630  212.3900  150.9330 C   0  0  0  0  0  2  0  0  0  0  0  0
  159.0350  213.7040  149.7100 S   0  0  0  0  0  0  0  0  0  0  0  0
  156.8820  213.1540  151.6840 S   0  0  0  0  0  0  0  0  0  0  0  0
  157.6280  214.4160  150.6190 C   0  0  0  0  0  2  0  0  0  0  0  0
  161.1130  205.7650  146.8130 S   0  0  0  0  0  0  0  0  0  0  0  0
  162.7180  205.1060  146.2580 C   0  0  0  0  0  2  0  0  0  0  0  0
  162.5210  204.0250  145.2090 C   0  0  0  0  0  2  0  0  0  0  0  0
  161.0600  203.6190  145.1270 C   0  0  0  0  0  2  0  0  0  0  0  0
  159.8230  201.9440  146.4530 C   0  0  0  0  0  2  0  0  0  0  0  0
  160.9290  202.1430  145.4360 C   0  0  0  0  0  3  0  0  0  0  0  0
  159.5630  201.6610  144.9880 C   0  0  0  0  0  2  0  0  0  0  0  0
  1  7  2  0  0  0  0
  2  1  1  0  0  0  0
  3  2  2  0  0  0  0
  4  2  1  0  0  0  0
  4  9  1  0  0  0  0
  5 10  1  0  0  0  0
  5  4  2  0  0  0  0
  6 27  1  0  0  0  0
  7  6  1  0  0  0  0
  9  8  2  0  0  0  0
  9  7  1  0  0  0  0
 10 11  1  6  0  0  0
 12 13  1  0  0  0  0
 12 10  1  0  0  0  0
 14 26  1  1  0  0  0
 14 13  1  0  0  0  0
 15 14  1  0  0  0  0
 16 15  1  0  0  0  0
 17 16  2  0  0  0  0
 19 18  2  0  0  0  0
 20 21  2  0  0  0  0
 21 18  1  0  0  0  0
 21 16  1  0  0  0  0
 22 23  2  0  0  0  0
 22 20  1  0  0  0  0
 23 19  1  0  0  0  0
 24 22  1  0  0  0  0
 25 26  1  0  0  0  0
 29 27  1  1  0  0  0
 29 30  1  0  0  0  0
 30 28  1  0  0  0  0
 31 28  1  0  0  0  0
 31 36  1  1  0  0  0
 32 29  1  0  0  0  0
 32 31  1  0  0  0  0
 33 34  1  0  0  0  0
 34 32  1  0  0  0  0
 36 37  1  0  0  0  0
 36 35  1  1  0  0  0
 37 38  1  6  0  0  0
 40 39  1  1  0  0  0
 40 37  1  0  0  0  0
 41 43  2  0  0  0  0
 41 40  1  0  0  0  0
 42 41  2  0  0  0  0
 44 41  1  0  0  0  0
 45 44  1  1  0  0  0
 46 45  1  0  0  0  0
 47 49  1  0  0  0  0
 47 46  1  0  0  0  0
 48 45  1  0  0  0  0
 49 48  1  0  0  0  0
 50  5  1  0  0  0  0
 51 50  1  0  0  0  0
 52 51  1  0  0  0  0
 53 52  1  0  0  0  0
 53 55  1  0  0  0  0
 55 54  1  0  0  0  0
 56 55  1  0  0  0  0
 56 54  1  0  0  0  0
M  END
>  <MODEL>
2

>  <REMARK>
 VINA RESULT:      -4.1      5.073     10.671
  Name = 
  21 active torsions:
  status: ('A' for Active; 'I' for Inactive)
    1  A    between atoms: C_1  and  C_12
    2  A    between atoms: C_1  and  C_45
    3  A    between atoms: N_6  and  C_39
    4  A    between atoms: C_9  and  C_18
    5  A    between atoms: C_9  and  C_37
    6  A    between atoms: C_11  and  N_28
    7  A    between atoms: C_12  and  C_27
    8  A    between atoms: C_14  and  C_20
    9  A    between atoms: C_15  and  C_40
   10  A    between atoms: C_15  and  C_54
   11  A    between atoms: C_18  and  C_52
   12  A    between atoms: C_20  and  S_46
   13  A    between atoms: C_22  and  C_39
   14  A    between atoms: C_22  and  C_54
   15  A    between atoms: C_25  and  C_48
   16  A    between atoms: N_28  and  S_31
   17  A    between atoms: C_29  and  N_42
   18  A    between atoms: S_31  and  C_52
   19  A    between atoms: C_39  and  C_56
   20  A    between atoms: C_40  and  S_55
   21  A    between atoms: C_45  and  S_55
                            x       y       z     vdW  Elec       q    Type
                         _______ _______ _______ _____ _____    ______ ____

>  <TORSDO>
F 21

$$$$
=
 OpenBabel11072414193D

 56 60  0  0  1  0  0  0  0  0999 V2000
  160.7220  203.8360  151.0790 N   0  0  0  0  0  0  0  0  0  0  0  0
  160.8130  204.2810  149.7300 C   0  0  0  0  0  0  0  0  0  0  0  0
  160.3210  203.6220  148.7770 O   0  0  0  0  0  0  0  0  0  0  0  0
  161.5410  205.5560  149.6020 C   0  0  0  0  0  0  0  0  0  0  0  0
  161.7790  206.2620  148.4700 C   0  0  0  0  0  0  0  0  0  0  0  0
  161.4320  204.8050  153.4530 S   0  0  0  0  0  0  0  0  0  0  0  0
  161.3940  204.8310  151.8410 C   0  0  0  0  0  0  0  0  0  0  0  0
  162.4100  207.0530  151.4230 C   0  0  0  0  0  2  0  0  0  0  0  0
  161.9290  205.8930  150.9850 C   0  0  0  0  0  0  0  0  0  0  0  0
  162.5860  207.5430  148.5200 C   0  0  1  0  0  3  0  0  0  0  0  0
  163.8730  207.3870  147.7310 C   0  0  0  0  0  1  0  0  0  0  0  0
  161.8300  208.7640  148.0160 C   0  0  0  0  0  2  0  0  0  0  0  0
  161.5950  209.7510  149.1450 C   0  0  0  0  0  2  0  0  0  0  0  0
  161.7550  211.1700  148.6260 C   0  0  1  0  0  3  0  0  0  0  0  0
  161.3560  212.1260  149.6490 N   0  0  0  0  0  2  0  0  0  0  0  0
  160.5320  213.2720  149.4010 C   0  0  0  0  0  0  0  0  0  0  0  0
  160.5220  214.2220  150.2790 N   0  0  0  0  0  2  0  0  0  0  0  0
  158.2500  213.4260  148.3550 C   0  0  0  0  0  3  0  0  0  0  0  0
  157.4260  213.5470  147.2330 C   0  0  0  0  0  3  0  0  0  0  0  0
  160.2020  213.4610  146.9290 C   0  0  0  0  0  3  0  0  0  0  0  0
  159.6450  213.3710  148.2150 C   0  0  0  0  0  0  0  0  0  0  0  0
  159.3790  213.5810  145.8050 C   0  0  0  0  0  0  0  0  0  0  0  0
  157.9900  213.6210  145.9570 C   0  0  0  0  0  3  0  0  0  0  0  0
  159.9810  213.6750  144.4490 C   0  0  0  0  0  1  0  0  0  0  0  0
  163.3930  212.9320  147.8390 C   0  0  0  0  0  1  0  0  0  0  0  0
  163.1740  211.4570  148.1350 C   0  0  0  0  0  2  0  0  0  0  0  0
  160.3980  206.2040  153.9210 C   0  0  0  0  0  2  0  0  0  0  0  0
  161.9960  208.9540  156.1290 C   0  0  0  0  0  2  0  0  0  0  0  0
  161.2560  207.3870  154.3330 C   0  0  2  0  0  3  0  0  0  0  0  0
  161.8120  207.1670  156.0420 S   0  0  0  0  0  0  0  0  0  0  0  0
  160.9160  209.5640  155.2490 C   0  0  1  0  0  3  0  0  0  0  0  0
  160.4730  208.6150  154.2290 N   0  0  0  0  0  0  0  0  0  0  0  0
  161.5410  210.5030  153.1250 C   0  0  0  0  0  1  0  0  0  0  0  0
  160.7750  209.2080  152.9340 C   0  0  0  0  0  2  0  0  0  0  0  0
  159.5520  209.3370  157.2420 O   0  0  0  0  0  1  0  0  0  0  0  0
  159.7100  210.0560  156.0510 C   0  0  1  0  0  3  0  0  0  0  0  0
  159.7700  211.5650  156.3060 C   0  0  2  0  0  3  0  0  0  0  0  0
  158.7050  211.9820  157.1070 O   0  0  0  0  0  1  0  0  0  0  0  0
  160.3930  213.6080  155.1990 F   0  0  0  0  0  0  0  0  0  0  0  0
  159.7960  212.3730  155.0110 C   0  0  2  0  0  3  0  0  0  0  0  0
  158.1570  212.5730  154.3300 S   0  0  0  0  0  0  0  0  0  0  0  0
  157.7840  214.0290  154.3320 O   0  0  0  0  0  0  0  0  0  0  0  0
  158.1480  212.0550  152.9190 O   0  0  0  0  0  0  0  0  0  0  0  0
  157.0290  211.6740  155.2890 N   0  0  0  0  0  2  0  0  0  0  0  0
  155.6870  212.0080  154.8370 C   0  0  2  0  0  3  0  0  0  0  0  0
  155.4800  213.5080  154.8910 C   0  0  0  0  0  2  0  0  0  0  0  0
  155.0410  214.0590  156.5740 S   0  0  0  0  0  0  0  0  0  0  0  0
  154.4510  211.2250  155.9050 S   0  0  0  0  0  0  0  0  0  0  0  0
  154.8480  212.3780  157.2440 C   0  0  0  0  0  2  0  0  0  0  0  0
  161.0910  205.7150  146.8880 S   0  0  0  0  0  0  0  0  0  0  0  0
  162.5300  204.6810  146.4630 C   0  0  0  0  0  2  0  0  0  0  0  0
  162.1770  203.6980  145.3600 C   0  0  0  0  0  2  0  0  0  0  0  0
  161.4820  202.4760  145.9350 C   0  0  0  0  0  2  0  0  0  0  0  0
  159.9530  200.9260  144.7700 C   0  0  0  0  0  2  0  0  0  0  0  0
  160.1110  202.3340  145.3080 C   0  0  0  0  0  3  0  0  0  0  0  0
  159.3120  201.3090  146.0880 C   0  0  0  0  0  2  0  0  0  0  0  0
  1  7  2  0  0  0  0
  2  1  1  0  0  0  0
  3  2  2  0  0  0  0
  4  2  1  0  0  0  0
  4  9  1  0  0  0  0
  5 10  1  0  0  0  0
  5  4  2  0  0  0  0
  6 27  1  0  0  0  0
  7  6  1  0  0  0  0
  9  8  2  0  0  0  0
  9  7  1  0  0  0  0
 10 11  1  6  0  0  0
 12 10  1  0  0  0  0
 12 13  1  0  0  0  0
 14 26  1  1  0  0  0
 14 13  1  0  0  0  0
 14 15  1  0  0  0  0
 16 15  1  0  0  0  0
 16 17  2  0  0  0  0
 19 18  2  0  0  0  0
 20 21  2  0  0  0  0
 21 18  1  0  0  0  0
 21 16  1  0  0  0  0
 22 23  2  0  0  0  0
 22 20  1  0  0  0  0
 23 19  1  0  0  0  0
 24 22  1  0  0  0  0
 25 26  1  0  0  0  0
 29 27  1  1  0  0  0
 29 30  1  0  0  0  0
 30 28  1  0  0  0  0
 31 36  1  1  0  0  0
 31 28  1  0  0  0  0
 32 29  1  0  0  0  0
 32 31  1  0  0  0  0
 34 33  1  0  0  0  0
 34 32  1  0  0  0  0
 36 37  1  0  0  0  0
 36 35  1  1  0  0  0
 37 38  1  1  0  0  0
 40 39  1  1  0  0  0
 40 37  1  0  0  0  0
 41 42  2  0  0  0  0
 41 40  1  0  0  0  0
 41 44  1  0  0  0  0
 43 41  2  0  0  0  0
 45 46  1  0  0  0  0
 45 44  1  1  0  0  0
 45 48  1  0  0  0  0
 46 47  1  0  0  0  0
 47 49  1  0  0  0  0
 48 49  1  0  0  0  0
 50  5  1  0  0  0  0
 51 50  1  0  0  0  0
 52 53  1  0  0  0  0
 52 51  1  0  0  0  0
 54 55  1  0  0  0  0
 54 56  1  0  0  0  0
 55 53  1  0  0  0  0
 55 56  1  0  0  0  0
M  END
>  <MODEL>
3

>  <REMARK>
 VINA RESULT:      -3.7      5.390     11.523
  Name = 
  21 active torsions:
  status: ('A' for Active; 'I' for Inactive)
    1  A    between atoms: C_1  and  C_12
    2  A    between atoms: C_1  and  C_45
    3  A    between atoms: N_6  and  C_39
    4  A    between atoms: C_9  and  C_18
    5  A    between atoms: C_9  and  C_37
    6  A    between atoms: C_11  and  N_28
    7  A    between atoms: C_12  and  C_27
    8  A    between atoms: C_14  and  C_20
    9  A    between atoms: C_15  and  C_40
   10  A    between atoms: C_15  and  C_54
   11  A    between atoms: C_18  and  C_52
   12  A    between atoms: C_20  and  S_46
   13  A    between atoms: C_22  and  C_39
   14  A    between atoms: C_22  and  C_54
   15  A    between atoms: C_25  and  C_48
   16  A    between atoms: N_28  and  S_31
   17  A    between atoms: C_29  and  N_42
   18  A    between atoms: S_31  and  C_52
   19  A    between atoms: C_39  and  C_56
   20  A    between atoms: C_40  and  S_55
   21  A    between atoms: C_45  and  S_55
                            x       y       z     vdW  Elec       q    Type
                         _______ _______ _______ _____ _____    ______ ____

>  <TORSDO>
F 21

$$$$
=
 OpenBabel11072414193D

 56 60  0  0  1  0  0  0  0  0999 V2000
  162.5510  210.7510  147.8700 N   0  0  0  0  0  0  0  0  0  0  0  0
  161.8390  211.7890  148.5340 C   0  0  0  0  0  0  0  0  0  0  0  0
  161.7440  212.9470  148.0490 O   0  0  0  0  0  0  0  0  0  0  0  0
  161.2640  211.3500  149.8180 C   0  0  0  0  0  0  0  0  0  0  0  0
  160.5110  212.0780  150.6790 C   0  0  0  0  0  0  0  0  0  0  0  0
  162.9940  208.1650  148.3110 S   0  0  0  0  0  0  0  0  0  0  0  0
  162.4380  209.6220  148.7260 C   0  0  0  0  0  0  0  0  0  0  0  0
  161.2270  209.0420  150.8100 C   0  0  0  0  0  2  0  0  0  0  0  0
  161.6780  209.9390  149.9370 C   0  0  0  0  0  0  0  0  0  0  0  0
  160.0340  211.4720  151.9820 C   0  0  1  0  0  3  0  0  0  0  0  0
  160.4620  212.3360  153.1540 C   0  0  0  0  0  1  0  0  0  0  0  0
  158.5300  211.2520  152.0410 C   0  0  0  0  0  2  0  0  0  0  0  0
  157.8530  212.3900  152.7850 C   0  0  0  0  0  2  0  0  0  0  0  0
  157.4160  211.9140  154.1600 C   0  0  1  0  0  3  0  0  0  0  0  0
  157.7740  212.9010  155.1690 N   0  0  0  0  0  2  0  0  0  0  0  0
  158.6870  212.6540  156.2470 C   0  0  0  0  0  0  0  0  0  0  0  0
  158.6720  213.4590  157.2590 N   0  0  0  0  0  2  0  0  0  0  0  0
  161.0410  211.8010  156.4790 C   0  0  0  0  0  3  0  0  0  0  0  0
  161.9690  210.7560  156.4650 C   0  0  0  0  0  3  0  0  0  0  0  0
  159.2740  210.2430  155.9380 C   0  0  0  0  0  3  0  0  0  0  0  0
  159.6870  211.5580  156.2060 C   0  0  0  0  0  0  0  0  0  0  0  0
  160.2020  209.1960  155.9220 C   0  0  0  0  0  0  0  0  0  0  0  0
  161.5500  209.4540  156.1830 C   0  0  0  0  0  3  0  0  0  0  0  0
  159.7510  207.8090  155.6370 C   0  0  0  0  0  1  0  0  0  0  0  0
  155.6180  210.4630  155.1940 C   0  0  0  0  0  1  0  0  0  0  0  0
  155.9230  211.5900  154.2200 C   0  0  0  0  0  2  0  0  0  0  0  0
  161.4940  207.1960  148.0660 C   0  0  0  0  0  2  0  0  0  0  0  0
  160.4270  204.9660  145.0860 C   0  0  0  0  0  2  0  0  0  0  0  0
  161.5680  206.4210  146.7620 C   0  0  2  0  0  3  0  0  0  0  0  0
  159.9640  206.4890  145.9240 S   0  0  0  0  0  0  0  0  0  0  0  0
  161.2860  204.1610  146.0490 C   0  0  1  0  0  3  0  0  0  0  0  0
  161.9140  205.0310  147.0430 N   0  0  0  0  0  0  0  0  0  0  0  0
  163.6590  204.2280  145.5500 C   0  0  0  0  0  1  0  0  0  0  0  0
  163.3540  204.9040  146.8720 C   0  0  0  0  0  2  0  0  0  0  0  0
  159.9350  202.1580  145.8430 O   0  0  0  0  0  1  0  0  0  0  0  0
  160.5010  203.0560  146.7560 C   0  0  1  0  0  3  0  0  0  0  0  0
  161.3490  202.3330  147.8060 C   0  0  2  0  0  3  0  0  0  0  0  0
  162.1610  201.3630  147.2150 O   0  0  0  0  0  1  0  0  0  0  0  0
  159.1470  201.8390  148.6410 F   0  0  0  0  0  0  0  0  0  0  0  0
  160.5000  201.7030  148.9070 C   0  0  2  0  0  3  0  0  0  0  0  0
  160.8880  202.3890  150.5090 S   0  0  0  0  0  0  0  0  0  0  0  0
  159.6700  202.3440  151.3880 O   0  0  0  0  0  0  0  0  0  0  0  0
  161.9870  201.5760  151.1340 O   0  0  0  0  0  0  0  0  0  0  0  0
  161.4150  204.0280  150.3140 N   0  0  0  0  0  2  0  0  0  0  0  0
  160.6610  204.8570  151.2420 C   0  0  2  0  0  3  0  0  0  0  0  0
  160.9490  206.3210  150.9790 C   0  0  0  0  0  2  0  0  0  0  0  0
  162.5000  206.8490  151.7820 S   0  0  0  0  0  0  0  0  0  0  0  0
  161.1370  204.4810  152.9490 S   0  0  0  0  0  0  0  0  0  0  0  0
  162.7350  205.2980  152.7060 C   0  0  0  0  0  2  0  0  0  0  0  0
  160.0180  213.7680  150.2600 S   0  0  0  0  0  0  0  0  0  0  0  0
  158.2790  213.3290  149.9410 C   0  0  0  0  0  2  0  0  0  0  0  0
  157.8060  213.9270  148.6270 C   0  0  0  0  0  2  0  0  0  0  0  0
  158.9150  213.8860  147.5910 C   0  0  0  0  0  2  0  0  0  0  0  0
  157.1430  212.6690  146.3760 C   0  0  0  0  0  2  0  0  0  0  0  0
  158.6380  212.7750  146.6000 C   0  0  0  0  0  3  0  0  0  0  0  0
  158.0140  213.3670  145.3520 C   0  0  0  0  0  2  0  0  0  0  0  0
  1  2  1  0  0  0  0
  1  7  2  0  0  0  0
  2  4  1  0  0  0  0
  3  2  2  0  0  0  0
  4  9  1  0  0  0  0
  4  5  2  0  0  0  0
  5 10  1  0  0  0  0
  6  7  1  0  0  0  0
  7  9  1  0  0  0  0
  9  8  2  0  0  0  0
 10 12  1  0  0  0  0
 10 11  1  1  0  0  0
 12 13  1  0  0  0  0
 14 13  1  6  0  0  0
 14 26  1  0  0  0  0
 14 15  1  0  0  0  0
 15 16  1  0  0  0  0
 16 17  2  0  0  0  0
 19 18  1  0  0  0  0
 20 21  1  0  0  0  0
 21 16  1  0  0  0  0
 21 18  2  0  0  0  0
 22 20  2  0  0  0  0
 22 23  1  0  0  0  0
 23 19  2  0  0  0  0
 24 22  1  0  0  0  0
 26 25  1  0  0  0  0
 27  6  1  0  0  0  0
 28 30  1  0  0  0  0
 28 31  1  0  0  0  0
 29 32  1  0  0  0  0
 29 27  1  1  0  0  0
 30 29  1  0  0  0  0
 31 36  1  1  0  0  0
 31 32  1  0  0  0  0
 33 34  1  0  0  0  0
 34 32  1  0  0  0  0
 36 35  1  6  0  0  0
 36 37  1  0  0  0  0
 37 38  1  6  0  0  0
 37 40  1  0  0  0  0
 40 39  1  6  0  0  0
 40 41  1  0  0  0  0
 41 43  2  0  0  0  0
 41 42  2  0  0  0  0
 44 41  1  0  0  0  0
 45 44  1  6  0  0  0
 45 48  1  0  0  0  0
 46 45  1  0  0  0  0
 46 47  1  0  0  0  0
 47 49  1  0  0  0  0
 49 48  1  0  0  0  0
 50  5  1  0  0  0  0
 51 50  1  0  0  0  0
 52 51  1  0  0  0  0
 53 52  1  0  0  0  0
 54 55  1  0  0  0  0
 55 53  1  0  0  0  0
 56 54  1  0  0  0  0
 56 55  1  0  0  0  0
M  END
>  <MODEL>
4

>  <REMARK>
 VINA RESULT:      -3.2      4.594     11.146
  Name = 
  21 active torsions:
  status: ('A' for Active; 'I' for Inactive)
    1  A    between atoms: C_1  and  C_12
    2  A    between atoms: C_1  and  C_45
    3  A    between atoms: N_6  and  C_39
    4  A    between atoms: C_9  and  C_18
    5  A    between atoms: C_9  and  C_37
    6  A    between atoms: C_11  and  N_28
    7  A    between atoms: C_12  and  C_27
    8  A    between atoms: C_14  and  C_20
    9  A    between atoms: C_15  and  C_40
   10  A    between atoms: C_15  and  C_54
   11  A    between atoms: C_18  and  C_52
   12  A    between atoms: C_20  and  S_46
   13  A    between atoms: C_22  and  C_39
   14  A    between atoms: C_22  and  C_54
   15  A    between atoms: C_25  and  C_48
   16  A    between atoms: N_28  and  S_31
   17  A    between atoms: C_29  and  N_42
   18  A    between atoms: S_31  and  C_52
   19  A    between atoms: C_39  and  C_56
   20  A    between atoms: C_40  and  S_55
   21  A    between atoms: C_45  and  S_55
                            x       y       z     vdW  Elec       q    Type
                         _______ _______ _______ _____ _____    ______ ____

>  <TORSDO>
F 21

$$$$
