=
 OpenBabel11072414493D

 47 51  0  0  1  0  0  0  0  0999 V2000
  159.3380  212.6400  149.6230 C   0  0  0  0  0  2  0  0  0  0  0  0
  160.7740  213.1570  149.6190 C   0  0  2  0  0  0  0  0  0  0  0  0
  158.8660  210.5120  155.8870 C   0  0  0  0  0  1  0  0  0  0  0  0
  161.5180  212.8770  148.3340 C   0  0  0  0  0  2  0  0  0  0  0  0
  159.7000  209.1140  153.3540 C   0  0  0  0  0  1  0  0  0  0  0  0
  158.7070  212.7440  151.0040 C   0  0  0  0  0  2  0  0  0  0  0  0
  159.4440  213.9120  153.5200 C   0  0  0  0  0  2  0  0  0  0  0  0
  159.7280  213.4790  156.3240 C   0  0  0  0  0  1  0  0  0  0  0  0
  161.6960  208.9960  151.3690 C   0  0  0  0  0  2  0  0  0  0  0  0
  161.9770  212.2160  149.6380 C   0  0  2  0  0  3  0  0  0  0  0  0
  161.5640  210.7260  149.7620 C   0  0  2  0  0  3  0  0  0  0  0  0
  158.1890  214.2270  152.6810 C   0  0  1  0  0  3  0  0  0  0  0  0
  162.4640  210.0170  150.6790 N   0  0  1  0  0  0  0  0  0  0  0  0
  160.7930  210.0950  153.4500 N   0  0  0  0  0  0  0  0  0  0  0  0
  159.3560  212.6210  154.0630 O   0  0  0  0  0  0  0  0  0  0  0  0
  160.2580  211.1230  155.7070 C   0  0  1  0  0  3  0  0  0  0  0  0
  158.4070  214.0890  151.2920 O   0  0  0  0  0  0  0  0  0  0  0  0
  161.0180  214.4450  150.0940 O   0  0  0  0  0  1  0  0  0  0  0  0
  161.9750  209.5920  152.7410 C   0  0  2  0  0  3  0  0  0  0  0  0
  161.1980  210.2510  154.8670 C   0  0  1  0  0  3  0  0  0  0  0  0
  162.6340  210.7020  151.9550 C   0  0  0  0  0  2  0  0  0  0  0  0
  160.1970  212.5650  155.1870 C   0  0  2  0  0  3  0  0  0  0  0  0
  161.5330  208.9360  155.5730 C   0  0  0  0  0  1  0  0  0  0  0  0
  156.8470  213.6060  153.1220 C   0  0  0  0  0  2  0  0  0  0  0  0
  156.3930  214.0170  154.5150 C   0  0  2  0  0  3  0  0  0  0  0  0
  155.6320  212.9570  155.1290 N   0  0  0  0  0  0  0  0  0  0  0  0
  155.0370  214.0840  154.5830 O   0  0  0  0  0  0  0  0  0  0  0  0
  155.7170  213.1670  156.4680 O   0  0  0  0  0  0  0  0  0  0  0  0
  155.7600  211.8870  157.0230 C   0  0  0  0  0  2  0  0  0  0  0  0
  154.0620  210.2190  157.2600 O   0  0  0  0  0  1  0  0  0  0  0  0
  155.4680  210.0920  155.4670 O   0  0  0  0  0  1  0  0  0  0  0  0
  154.7830  210.9570  156.3190 C   0  0  0  0  0  3  0  0  0  0  0  0
  161.6650  210.0670  148.4650 N   0  0  0  0  0  2  0  0  0  0  0  0
  162.1970  208.7230  148.6500 C   0  0  0  0  0  2  0  0  0  0  0  0
  160.9720  207.4780  147.9700 P   0  0  0  0  0  2  0  0  0  0  0  0
  161.9100  206.0800  148.4160 O   0  0  0  0  0  0  0  0  0  0  0  0
  161.4460  205.0250  147.6170 C   0  0  2  0  0  3  0  0  0  0  0  0
  160.9140  201.5770  150.1270 C   0  0  0  0  0  3  0  0  0  0  0  0
  161.0120  201.4190  148.7420 C   0  0  0  0  0  3  0  0  0  0  0  0
  161.0770  203.9810  149.8730 C   0  0  0  0  0  3  0  0  0  0  0  0
  160.9320  202.8540  150.6930 C   0  0  0  0  0  0  0  0  0  0  0  0
  161.1470  202.5430  147.9260 C   0  0  0  0  0  3  0  0  0  0  0  0
  161.1800  203.8280  148.4860 C   0  0  0  0  0  0  0  0  0  0  0  0
  160.8580  203.0060  152.1040 N   0  0  0  0  0  1  0  0  0  0  0  0
  162.7490  204.5860  146.3370 P   0  0  0  0  0  2  0  0  0  0  0  0
  161.5620  204.4320  144.9040 C   0  0  0  0  0  2  0  0  0  0  0  0
  160.5990  205.6040  144.8900 C   0  0  0  0  0  1  0  0  0  0  0  0
  1  6  1  0  0  0  0
  2  1  1  0  0  0  0
  2 10  1  0  0  0  0
  2 18  1  1  0  0  0
  4  2  1  0  0  0  0
  5 14  1  0  0  0  0
  6 17  1  0  0  0  0
  7 15  1  0  0  0  0
 10  4  1  6  0  0  0
 10 11  1  0  0  0  0
 11 33  1  6  0  0  0
 11 13  1  0  0  0  0
 12 24  1  1  0  0  0
 12  7  1  0  0  0  0
 13  9  1  1  0  0  0
 13 21  1  0  0  0  0
 14 20  1  0  0  0  0
 15 22  1  0  0  0  0
 16  3  1  6  0  0  0
 17 12  1  0  0  0  0
 19  9  1  6  0  0  0
 19 14  1  0  0  0  0
 20 23  1  1  0  0  0
 20 16  1  0  0  0  0
 21 19  1  0  0  0  0
 22 16  1  0  0  0  0
 22  8  1  1  0  0  0
 25 24  1  6  0  0  0
 25 27  1  0  0  0  0
 25 26  1  0  0  0  0
 26 28  1  0  0  0  0
 27 26  1  0  0  0  0
 28 29  1  0  0  0  0
 31 32  1  0  0  0  0
 32 29  1  0  0  0  0
 32 30  1  0  0  0  0
 33 34  1  0  0  0  0
 35 36  1  0  0  0  0
 35 34  1  0  0  0  0
 37 45  1  6  0  0  0
 37 36  1  0  0  0  0
 37 43  1  0  0  0  0
 38 41  1  0  0  0  0
 39 38  2  0  0  0  0
 40 41  2  0  0  0  0
 41 44  1  0  0  0  0
 42 43  2  0  0  0  0
 42 39  1  0  0  0  0
 43 40  1  0  0  0  0
 46 45  1  0  0  0  0
 47 46  1  0  0  0  0
M  END
>  <MODEL>
1

>  <REMARK>
 VINA RESULT:      -4.9      0.000      0.000
  Name = 
  13 active torsions:
  status: ('A' for Active; 'I' for Inactive)
    1  A    between atoms: C_2  and  C_5
    2  A    between atoms: C_2  and  C_28
    3  A    between atoms: C_12  and  O_36
    4  A    between atoms: C_12  and  C_37
    5  A    between atoms: C_14  and  P_26
    6  A    between atoms: N_15  and  O_36
    7  A    between atoms: C_16  and  N_20
    8  A    between atoms: C_16  and  P_22
    9  A    between atoms: N_20  and  C_25
   10  A    between atoms: P_22  and  O_41
   11  A    between atoms: P_26  and  C_39
   12  A    between atoms: C_39  and  C_40
   13  A    between atoms: C_39  and  O_41
                            x       y       z     vdW  Elec       q    Type
                         _______ _______ _______ _____ _____    ______ ____

>  <TORSDO>
F 13

$$$$
