=
 OpenBabel11072414133D

 28 31  0  0  1  0  0  0  0  0999 V2000
  161.2500  210.6260  153.3090 N   0  0  0  0  0  0  0  0  0  0  0  0
  161.1140  206.9380  152.7140 C   0  0  0  0  0  0  0  0  0  0  0  0
  161.7450  210.4000  152.0080 N   0  0  0  0  0  2  0  0  0  0  0  0
  161.2380  208.3260  152.7550 C   0  0  0  0  0  0  0  0  0  0  0  0
  161.5260  206.2630  151.5340 C   0  0  0  0  0  0  0  0  0  0  0  0
  160.6110  206.2770  153.7870 F   0  0  0  0  0  0  0  0  0  0  0  0
  162.0430  207.0130  150.4550 C   0  0  0  0  0  3  0  0  0  0  0  0
  160.8870  209.2880  153.8320 C   0  0  0  0  0  2  0  0  0  0  0  0
  162.1510  208.4110  150.5330 C   0  0  0  0  0  3  0  0  0  0  0  0
  161.7330  209.0260  151.7100 C   0  0  0  0  0  0  0  0  0  0  0  0
  160.8910  203.6180  149.1030 C   0  0  0  0  0  3  0  0  0  0  0  0
  161.4480  204.8010  151.3620 C   0  0  0  0  0  3  0  0  0  0  0  0
  161.1690  204.2110  150.2300 C   0  0  0  0  0  0  0  0  0  0  0  0
  162.7670  203.9360  145.0900 O   0  0  0  0  0  1  0  0  0  0  0  0
  161.2710  203.0080  146.7050 C   0  0  0  0  0  2  0  0  0  0  0  0
  160.7100  205.1460  145.5090 C   0  0  2  0  0  3  0  0  0  0  0  0
  160.7450  205.6950  146.9410 C   0  0  0  0  0  2  0  0  0  0  0  0
  161.4110  203.7820  145.3960 C   0  0  1  0  0  3  0  0  0  0  0  0
  161.7490  203.8530  147.9050 C   0  0  1  0  0  3  0  0  0  0  0  0
  161.2640  206.0720  144.6230 O   0  0  0  0  0  1  0  0  0  0  0  0
  161.8890  205.2380  147.6260 O   0  0  0  0  0  0  0  0  0  0  0  0
  160.0170  211.3880  153.1670 C   0  0  0  0  0  2  0  0  0  0  0  0
  158.1260  211.4380  154.8030 C   0  0  0  0  0  3  0  0  0  0  0  0
  157.6180  211.7760  156.0580 C   0  0  0  0  0  3  0  0  0  0  0  0
  159.4650  211.7190  154.5110 C   0  0  0  0  0  0  0  0  0  0  0  0
  160.2510  212.3250  155.4400 N   0  0  0  0  0  0  0  0  0  0  0  0
  159.7730  212.6620  156.6680 C   0  0  0  0  0  3  0  0  0  0  0  0
  158.4430  212.3910  157.0000 C   0  0  0  0  0  3  0  0  0  0  0  0
  1  8  1  0  0  0  0
  2  4  1  0  0  0  0
  2  6  1  0  0  0  0
  3  1  1  0  0  0  0
  4  8  1  0  0  0  0
  5  2  2  0  0  0  0
  7  9  2  0  0  0  0
  7  5  1  0  0  0  0
  9 10  1  0  0  0  0
 10  3  1  0  0  0  0
 10  4  2  0  0  0  0
 11 13  2  0  0  0  0
 12  5  1  0  0  0  0
 13 12  2  0  0  0  0
 15 19  1  0  0  0  0
 16 20  1  6  0  0  0
 16 17  1  0  0  0  0
 17 21  1  0  0  0  0
 18 14  1  1  0  0  0
 18 16  1  0  0  0  0
 18 15  1  0  0  0  0
 19 11  1  1  0  0  0
 21 19  1  0  0  0  0
 22  1  1  0  0  0  0
 22 25  1  0  0  0  0
 23 24  1  0  0  0  0
 24 28  2  0  0  0  0
 25 23  2  0  0  0  0
 25 26  1  0  0  0  0
 26 27  2  0  0  0  0
 27 28  1  0  0  0  0
M  END
>  <MODEL>
1

>  <REMARK>
 VINA RESULT:      -8.8      0.000      0.000
  Name = 
  4 active torsions:
  status: ('A' for Active; 'I' for Inactive)
    1  A    between atoms: N_1  and  C_11
    2  A    between atoms: C_9  and  C_20
    3  A    between atoms: C_10  and  C_19
    4  A    between atoms: C_11  and  C_14
                            x       y       z     vdW  Elec       q    Type
                         _______ _______ _______ _____ _____    ______ ____

>  <TORSDO>
F 4

$$$$
=
 OpenBabel11072414133D

 28 31  0  0  1  0  0  0  0  0999 V2000
  161.0980  206.8290  147.4890 N   0  0  0  0  0  0  0  0  0  0  0  0
  160.8170  205.8490  151.0860 C   0  0  0  0  0  0  0  0  0  0  0  0
  161.7810  207.8100  148.2380 N   0  0  0  0  0  2  0  0  0  0  0  0
  161.0240  206.3690  149.8090 C   0  0  0  0  0  0  0  0  0  0  0  0
  161.3530  206.5600  152.1930 C   0  0  0  0  0  0  0  0  0  0  0  0
  160.1200  204.6950  151.2360 F   0  0  0  0  0  0  0  0  0  0  0  0
  162.0680  207.7560  151.9640 C   0  0  0  0  0  3  0  0  0  0  0  0
  160.5980  205.8500  148.4830 C   0  0  0  0  0  2  0  0  0  0  0  0
  162.2570  208.2470  150.6630 C   0  0  0  0  0  3  0  0  0  0  0  0
  161.7130  207.5150  149.6110 C   0  0  0  0  0  0  0  0  0  0  0  0
  161.0960  207.7410  155.6350 C   0  0  0  0  0  3  0  0  0  0  0  0
  161.2050  206.1200  153.5930 C   0  0  0  0  0  3  0  0  0  0  0  0
  161.1520  206.9340  154.6140 C   0  0  0  0  0  0  0  0  0  0  0  0
  158.4210  211.1740  156.5190 O   0  0  0  0  0  1  0  0  0  0  0  0
  160.0900  209.5470  157.0460 C   0  0  0  0  0  2  0  0  0  0  0  0
  160.6770  211.6260  155.7610 C   0  0  2  0  0  3  0  0  0  0  0  0
  161.0540  210.5910  154.6940 C   0  0  0  0  0  2  0  0  0  0  0  0
  159.7710  211.0280  156.8510 C   0  0  1  0  0  3  0  0  0  0  0  0
  160.0320  208.7850  155.7060 C   0  0  1  0  0  3  0  0  0  0  0  0
  160.0810  212.7390  155.1660 O   0  0  0  0  0  1  0  0  0  0  0  0
  160.0420  209.6190  154.5570 O   0  0  0  0  0  0  0  0  0  0  0  0
  162.0930  206.1510  146.6710 C   0  0  0  0  0  2  0  0  0  0  0  0
  160.8150  204.8410  144.9670 C   0  0  0  0  0  3  0  0  0  0  0  0
  160.2870  203.6300  144.5150 C   0  0  0  0  0  3  0  0  0  0  0  0
  161.5430  204.8640  146.1610 C   0  0  0  0  0  0  0  0  0  0  0  0
  161.7190  203.7180  146.8730 N   0  0  0  0  0  0  0  0  0  0  0  0
  161.2120  202.5300  146.4480 C   0  0  0  0  0  3  0  0  0  0  0  0
  160.4850  202.4650  145.2580 C   0  0  0  0  0  3  0  0  0  0  0  0
  1  3  1  0  0  0  0
  1  8  1  0  0  0  0
  2  6  1  0  0  0  0
  2  5  1  0  0  0  0
  3 10  1  0  0  0  0
  4  2  2  0  0  0  0
  5 12  1  0  0  0  0
  7  5  2  0  0  0  0
  8  4  1  0  0  0  0
  9  7  1  0  0  0  0
 10  4  1  0  0  0  0
 10  9  2  0  0  0  0
 12 13  2  0  0  0  0
 13 11  2  0  0  0  0
 16 20  1  6  0  0  0
 16 18  1  0  0  0  0
 17 16  1  0  0  0  0
 18 14  1  6  0  0  0
 18 15  1  0  0  0  0
 19 11  1  6  0  0  0
 19 15  1  0  0  0  0
 21 17  1  0  0  0  0
 21 19  1  0  0  0  0
 22  1  1  0  0  0  0
 23 25  1  0  0  0  0
 24 23  2  0  0  0  0
 24 28  1  0  0  0  0
 25 22  1  0  0  0  0
 25 26  2  0  0  0  0
 27 26  1  0  0  0  0
 28 27  2  0  0  0  0
M  END
>  <MODEL>
2

>  <REMARK>
 VINA RESULT:      -8.5      4.246      9.399
  Name = 
  4 active torsions:
  status: ('A' for Active; 'I' for Inactive)
    1  A    between atoms: N_1  and  C_11
    2  A    between atoms: C_9  and  C_20
    3  A    between atoms: C_10  and  C_19
    4  A    between atoms: C_11  and  C_14
                            x       y       z     vdW  Elec       q    Type
                         _______ _______ _______ _____ _____    ______ ____

>  <TORSDO>
F 4

$$$$
=
 OpenBabel11072414133D

 28 31  0  0  1  0  0  0  0  0999 V2000
  161.7140  205.4890  150.8560 N   0  0  0  0  0  0  0  0  0  0  0  0
  161.6110  208.9610  152.2370 C   0  0  0  0  0  0  0  0  0  0  0  0
  161.2950  205.3860  152.1990 N   0  0  0  0  0  2  0  0  0  0  0  0
  161.5900  207.6080  151.9000 C   0  0  0  0  0  0  0  0  0  0  0  0
  161.2510  209.3270  153.5620 C   0  0  0  0  0  0  0  0  0  0  0  0
  161.9700  209.8800  151.3060 F   0  0  0  0  0  0  0  0  0  0  0  0
  160.8890  208.3180  154.4810 C   0  0  0  0  0  3  0  0  0  0  0  0
  161.9030  206.9380  150.6110 C   0  0  0  0  0  2  0  0  0  0  0  0
  160.8780  206.9660  154.1040 C   0  0  0  0  0  3  0  0  0  0  0  0
  161.2380  206.6580  152.7950 C   0  0  0  0  0  0  0  0  0  0  0  0
  159.2430  212.3700  153.6880 C   0  0  0  0  0  3  0  0  0  0  0  0
  161.2320  210.7190  154.0470 C   0  0  0  0  0  3  0  0  0  0  0  0
  160.2350  211.5440  153.8650 C   0  0  0  0  0  0  0  0  0  0  0  0
  155.6120  211.2970  156.0100 O   0  0  0  0  0  1  0  0  0  0  0  0
  157.9650  211.3920  155.6050 C   0  0  0  0  0  2  0  0  0  0  0  0
  156.7310  213.3870  156.5050 C   0  0  2  0  0  3  0  0  0  0  0  0
  157.2240  214.0050  155.1920 C   0  0  0  0  0  2  0  0  0  0  0  0
  156.8040  211.8510  156.4850 C   0  0  1  0  0  3  0  0  0  0  0  0
  157.8840  212.0270  154.2010 C   0  0  1  0  0  3  0  0  0  0  0  0
  155.4370  213.8260  156.7900 O   0  0  0  0  0  1  0  0  0  0  0  0
  156.9970  213.1310  154.1090 O   0  0  0  0  0  0  0  0  0  0  0  0
  160.5990  205.0480  150.0300 C   0  0  0  0  0  2  0  0  0  0  0  0
  161.1350  203.3770  148.2480 C   0  0  0  0  0  3  0  0  0  0  0  0
  161.3140  202.0530  147.8420 C   0  0  0  0  0  3  0  0  0  0  0  0
  160.8190  203.6440  149.5840 C   0  0  0  0  0  0  0  0  0  0  0  0
  160.6770  202.6190  150.4670 N   0  0  0  0  0  0  0  0  0  0  0  0
  160.8470  201.3230  150.0890 C   0  0  0  0  0  3  0  0  0  0  0  0
  161.1710  201.0170  148.7650 C   0  0  0  0  0  3  0  0  0  0  0  0
  1  3  1  0  0  0  0
  2  5  1  0  0  0  0
  3 10  1  0  0  0  0
  4  2  2  0  0  0  0
  4 10  1  0  0  0  0
  5 12  1  0  0  0  0
  5  7  2  0  0  0  0
  6  2  1  0  0  0  0
  8  1  1  0  0  0  0
  8  4  1  0  0  0  0
  9  7  1  0  0  0  0
 10  9  2  0  0  0  0
 11 13  2  0  0  0  0
 13 12  2  0  0  0  0
 15 18  1  0  0  0  0
 16 20  1  6  0  0  0
 17 16  1  0  0  0  0
 18 14  1  6  0  0  0
 18 16  1  0  0  0  0
 19 11  1  1  0  0  0
 19 15  1  0  0  0  0
 21 19  1  0  0  0  0
 21 17  1  0  0  0  0
 22  1  1  0  0  0  0
 23 25  1  0  0  0  0
 24 23  2  0  0  0  0
 24 28  1  0  0  0  0
 25 22  1  0  0  0  0
 25 26  2  0  0  0  0
 27 26  1  0  0  0  0
 28 27  2  0  0  0  0
M  END
>  <MODEL>
3

>  <REMARK>
 VINA RESULT:      -8.5      4.893      9.893
  Name = 
  4 active torsions:
  status: ('A' for Active; 'I' for Inactive)
    1  A    between atoms: N_1  and  C_11
    2  A    between atoms: C_9  and  C_20
    3  A    between atoms: C_10  and  C_19
    4  A    between atoms: C_11  and  C_14
                            x       y       z     vdW  Elec       q    Type
                         _______ _______ _______ _____ _____    ______ ____

>  <TORSDO>
F 4

$$$$
=
 OpenBabel11072414133D

 28 31  0  0  1  0  0  0  0  0999 V2000
  161.5770  206.4180  149.5530 N   0  0  0  0  0  0  0  0  0  0  0  0
  161.3150  208.7250  152.4830 C   0  0  0  0  0  0  0  0  0  0  0  0
  161.3740  205.6140  150.6940 N   0  0  0  0  0  2  0  0  0  0  0  0
  161.3860  207.7200  151.5190 C   0  0  0  0  0  0  0  0  0  0  0  0
  161.1170  208.3430  153.8360 C   0  0  0  0  0  0  0  0  0  0  0  0
  161.4340  210.0240  152.1080 F   0  0  0  0  0  0  0  0  0  0  0  0
  161.0030  206.9720  154.1560 C   0  0  0  0  0  3  0  0  0  0  0  0
  161.5740  207.8150  150.0480 C   0  0  0  0  0  2  0  0  0  0  0  0
  161.0780  205.9880  153.1570 C   0  0  0  0  0  3  0  0  0  0  0  0
  161.2720  206.4130  151.8460 C   0  0  0  0  0  0  0  0  0  0  0  0
  160.2450  211.7810  154.6870 C   0  0  0  0  0  3  0  0  0  0  0  0
  161.0240  209.3050  154.9500 C   0  0  0  0  0  3  0  0  0  0  0  0
  160.6340  210.5440  154.8160 C   0  0  0  0  0  0  0  0  0  0  0  0
  156.4860  213.5420  153.1070 O   0  0  0  0  0  1  0  0  0  0  0  0
  158.5140  213.5610  154.3720 C   0  0  0  0  0  2  0  0  0  0  0  0
  158.5450  213.9100  151.8830 C   0  0  2  0  0  3  0  0  0  0  0  0
  159.3860  212.6290  151.9390 C   0  0  0  0  0  2  0  0  0  0  0  0
  157.7500  214.1360  153.1810 C   0  0  1  0  0  3  0  0  0  0  0  0
  158.8960  212.0860  154.1290 C   0  0  1  0  0  3  0  0  0  0  0  0
  157.6990  213.8860  150.7730 O   0  0  0  0  0  1  0  0  0  0  0  0
  158.7840  211.6680  152.7760 O   0  0  0  0  0  0  0  0  0  0  0  0
  160.4050  206.2540  148.7050 C   0  0  0  0  0  2  0  0  0  0  0  0
  161.5850  204.5400  147.3170 C   0  0  0  0  0  3  0  0  0  0  0  0
  161.9720  204.0470  146.0700 C   0  0  0  0  0  3  0  0  0  0  0  0
  160.8060  205.7000  147.3810 C   0  0  0  0  0  0  0  0  0  0  0  0
  160.4460  206.3420  146.2360 N   0  0  0  0  0  0  0  0  0  0  0  0
  160.8150  205.8760  145.0130 C   0  0  0  0  0  3  0  0  0  0  0  0
  161.5860  204.7160  144.9080 C   0  0  0  0  0  3  0  0  0  0  0  0
  1  8  1  0  0  0  0
  1  3  1  0  0  0  0
  2  5  1  0  0  0  0
  3 10  1  0  0  0  0
  4 10  1  0  0  0  0
  4  2  2  0  0  0  0
  5  7  2  0  0  0  0
  5 12  1  0  0  0  0
  6  2  1  0  0  0  0
  8  4  1  0  0  0  0
  9  7  1  0  0  0  0
 10  9  2  0  0  0  0
 11 13  2  0  0  0  0
 13 12  2  0  0  0  0
 16 20  1  6  0  0  0
 16 17  1  0  0  0  0
 16 18  1  0  0  0  0
 17 21  1  0  0  0  0
 18 14  1  6  0  0  0
 18 15  1  0  0  0  0
 19 15  1  0  0  0  0
 19 11  1  6  0  0  0
 21 19  1  0  0  0  0
 22  1  1  0  0  0  0
 23 25  1  0  0  0  0
 24 23  2  0  0  0  0
 25 22  1  0  0  0  0
 26 25  2  0  0  0  0
 27 26  1  0  0  0  0
 28 27  2  0  0  0  0
 28 24  1  0  0  0  0
M  END
>  <MODEL>
4

>  <REMARK>
 VINA RESULT:      -8.4      4.243      9.139
  Name = 
  4 active torsions:
  status: ('A' for Active; 'I' for Inactive)
    1  A    between atoms: N_1  and  C_11
    2  A    between atoms: C_9  and  C_20
    3  A    between atoms: C_10  and  C_19
    4  A    between atoms: C_11  and  C_14
                            x       y       z     vdW  Elec       q    Type
                         _______ _______ _______ _____ _____    ______ ____

>  <TORSDO>
F 4

$$$$
=
 OpenBabel11072414133D

 28 31  0  0  1  0  0  0  0  0999 V2000
  161.5690  206.4690  149.4840 N   0  0  0  0  0  0  0  0  0  0  0  0
  161.1760  208.3850  152.6700 C   0  0  0  0  0  0  0  0  0  0  0  0
  161.4320  205.5220  150.5200 N   0  0  0  0  0  2  0  0  0  0  0  0
  161.3070  207.5090  151.5920 C   0  0  0  0  0  0  0  0  0  0  0  0
  161.0170  207.8300  153.9670 C   0  0  0  0  0  0  0  0  0  0  0  0
  161.2020  209.7240  152.4530 F   0  0  0  0  0  0  0  0  0  0  0  0
  161.0000  206.4260  154.1210 C   0  0  0  0  0  3  0  0  0  0  0  0
  161.4750  207.7930  150.1430 C   0  0  0  0  0  2  0  0  0  0  0  0
  161.1340  205.5760  153.0110 C   0  0  0  0  0  3  0  0  0  0  0  0
  161.2860  206.1680  151.7600 C   0  0  0  0  0  0  0  0  0  0  0  0
  160.9480  211.2510  155.2330 C   0  0  0  0  0  3  0  0  0  0  0  0
  160.8680  208.6430  155.1890 C   0  0  0  0  0  3  0  0  0  0  0  0
  160.9090  209.9490  155.2080 C   0  0  0  0  0  0  0  0  0  0  0  0
  157.4840  212.9570  153.0380 O   0  0  0  0  0  1  0  0  0  0  0  0
  158.7410  211.1970  154.0530 C   0  0  0  0  0  2  0  0  0  0  0  0
  157.3440  212.7500  155.4480 C   0  0  2  0  0  3  0  0  0  0  0  0
  158.7140  213.0820  156.0510 C   0  0  0  0  0  2  0  0  0  0  0  0
  157.4670  212.0370  154.0910 C   0  0  1  0  0  3  0  0  0  0  0  0
  159.9770  212.0430  154.4210 C   0  0  1  0  0  3  0  0  0  0  0  0
  156.5700  213.9070  155.3400 O   0  0  0  0  0  1  0  0  0  0  0  0
  159.6730  213.2850  155.0380 O   0  0  0  0  0  0  0  0  0  0  0  0
  160.4030  206.3270  148.6230 C   0  0  0  0  0  2  0  0  0  0  0  0
  161.6110  204.6200  147.2510 C   0  0  0  0  0  3  0  0  0  0  0  0
  162.0010  204.1190  146.0070 C   0  0  0  0  0  3  0  0  0  0  0  0
  160.8090  205.7640  147.3040 C   0  0  0  0  0  0  0  0  0  0  0  0
  160.4280  206.3820  146.1530 N   0  0  0  0  0  0  0  0  0  0  0  0
  160.7980  205.9080  144.9330 C   0  0  0  0  0  3  0  0  0  0  0  0
  161.5940  204.7640  144.8390 C   0  0  0  0  0  3  0  0  0  0  0  0
  1  8  1  0  0  0  0
  1  3  1  0  0  0  0
  2  5  1  0  0  0  0
  3 10  1  0  0  0  0
  4 10  1  0  0  0  0
  4  2  2  0  0  0  0
  5  7  2  0  0  0  0
  5 12  1  0  0  0  0
  6  2  1  0  0  0  0
  8  4  1  0  0  0  0
  9  7  1  0  0  0  0
 10  9  2  0  0  0  0
 12 13  2  0  0  0  0
 13 11  2  0  0  0  0
 15 18  1  0  0  0  0
 15 19  1  0  0  0  0
 16 20  1  6  0  0  0
 16 17  1  0  0  0  0
 18 14  1  6  0  0  0
 18 16  1  0  0  0  0
 19 21  1  0  0  0  0
 19 11  1  1  0  0  0
 21 17  1  0  0  0  0
 22  1  1  0  0  0  0
 23 25  1  0  0  0  0
 24 23  2  0  0  0  0
 25 22  1  0  0  0  0
 26 25  2  0  0  0  0
 27 26  1  0  0  0  0
 28 27  2  0  0  0  0
 28 24  1  0  0  0  0
M  END
>  <MODEL>
5

>  <REMARK>
 VINA RESULT:      -8.4      4.577      9.410
  Name = 
  4 active torsions:
  status: ('A' for Active; 'I' for Inactive)
    1  A    between atoms: N_1  and  C_11
    2  A    between atoms: C_9  and  C_20
    3  A    between atoms: C_10  and  C_19
    4  A    between atoms: C_11  and  C_14
                            x       y       z     vdW  Elec       q    Type
                         _______ _______ _______ _____ _____    ______ ____

>  <TORSDO>
F 4

$$$$
=
 OpenBabel11072414133D

 28 31  0  0  1  0  0  0  0  0999 V2000
  160.9910  206.0070  148.1960 N   0  0  0  0  0  0  0  0  0  0  0  0
  160.9180  206.7940  151.8500 C   0  0  0  0  0  0  0  0  0  0  0  0
  161.4750  207.3240  148.3440 N   0  0  0  0  0  2  0  0  0  0  0  0
  161.0160  206.6810  150.4630 C   0  0  0  0  0  0  0  0  0  0  0  0
  161.3100  208.0180  152.4520 C   0  0  0  0  0  0  0  0  0  0  0  0
  160.4570  205.7450  152.5770 F   0  0  0  0  0  0  0  0  0  0  0  0
  161.7800  209.0700  151.6340 C   0  0  0  0  0  3  0  0  0  0  0  0
  160.6940  205.5390  149.5700 C   0  0  0  0  0  2  0  0  0  0  0  0
  161.8670  208.9190  150.2410 C   0  0  0  0  0  3  0  0  0  0  0  0
  161.4710  207.6990  149.6990 C   0  0  0  0  0  0  0  0  0  0  0  0
  161.3750  210.6370  154.9910 C   0  0  0  0  0  3  0  0  0  0  0  0
  161.2550  208.2670  153.9040 C   0  0  0  0  0  3  0  0  0  0  0  0
  161.3160  209.4550  154.4460 C   0  0  0  0  0  0  0  0  0  0  0  0
  157.8970  213.0330  153.6180 O   0  0  0  0  0  1  0  0  0  0  0  0
  159.3410  211.1280  153.6190 C   0  0  0  0  0  2  0  0  0  0  0  0
  157.5590  211.3950  155.3720 C   0  0  2  0  0  3  0  0  0  0  0  0
  158.7830  211.4040  156.2960 C   0  0  0  0  0  2  0  0  0  0  0  0
  157.9400  211.6650  153.9060 C   0  0  1  0  0  3  0  0  0  0  0  0
  160.3650  211.6750  154.6350 C   0  0  1  0  0  3  0  0  0  0  0  0
  156.6070  212.3120  155.8210 O   0  0  0  0  0  1  0  0  0  0  0  0
  159.7860  212.2590  155.7930 O   0  0  0  0  0  0  0  0  0  0  0  0
  162.0960  205.2040  147.6910 C   0  0  0  0  0  2  0  0  0  0  0  0
  161.3310  203.8070  145.7630 C   0  0  0  0  0  3  0  0  0  0  0  0
  160.8280  202.6060  145.2610 C   0  0  0  0  0  3  0  0  0  0  0  0
  161.5820  203.9220  147.1340 C   0  0  0  0  0  0  0  0  0  0  0  0
  161.3230  202.8740  147.9630 N   0  0  0  0  0  0  0  0  0  0  0  0
  160.8320  201.6970  147.4920 C   0  0  0  0  0  3  0  0  0  0  0  0
  160.5760  201.5410  146.1270 C   0  0  0  0  0  3  0  0  0  0  0  0
  1  3  1  0  0  0  0
  1  8  1  0  0  0  0
  2  5  1  0  0  0  0
  2  6  1  0  0  0  0
  3 10  1  0  0  0  0
  4  2  2  0  0  0  0
  5 12  1  0  0  0  0
  7  5  2  0  0  0  0
  8  4  1  0  0  0  0
  9  7  1  0  0  0  0
 10  9  2  0  0  0  0
 10  4  1  0  0  0  0
 12 13  2  0  0  0  0
 13 11  2  0  0  0  0
 15 18  1  0  0  0  0
 15 19  1  0  0  0  0
 16 20  1  1  0  0  0
 16 17  1  0  0  0  0
 18 14  1  1  0  0  0
 18 16  1  0  0  0  0
 19 11  1  1  0  0  0
 19 21  1  0  0  0  0
 21 17  1  0  0  0  0
 22  1  1  0  0  0  0
 23 25  1  0  0  0  0
 24 23  2  0  0  0  0
 24 28  1  0  0  0  0
 25 22  1  0  0  0  0
 25 26  2  0  0  0  0
 27 26  1  0  0  0  0
 28 27  2  0  0  0  0
M  END
>  <MODEL>
6

>  <REMARK>
 VINA RESULT:      -8.3      4.622      9.546
  Name = 
  4 active torsions:
  status: ('A' for Active; 'I' for Inactive)
    1  A    between atoms: N_1  and  C_11
    2  A    between atoms: C_9  and  C_20
    3  A    between atoms: C_10  and  C_19
    4  A    between atoms: C_11  and  C_14
                            x       y       z     vdW  Elec       q    Type
                         _______ _______ _______ _____ _____    ______ ____

>  <TORSDO>
F 4

$$$$
=
 OpenBabel11072414133D

 28 31  0  0  1  0  0  0  0  0999 V2000
  161.0120  206.0310  148.0220 N   0  0  0  0  0  0  0  0  0  0  0  0
  161.1420  207.3290  151.5260 C   0  0  0  0  0  0  0  0  0  0  0  0
  161.4830  207.3580  147.9530 N   0  0  0  0  0  2  0  0  0  0  0  0
  161.1610  207.0210  150.1660 C   0  0  0  0  0  0  0  0  0  0  0  0
  161.5510  208.6300  151.9230 C   0  0  0  0  0  0  0  0  0  0  0  0
  160.7400  206.3920  152.4210 F   0  0  0  0  0  0  0  0  0  0  0  0
  161.9560  209.5570  150.9380 C   0  0  0  0  0  3  0  0  0  0  0  0
  160.8030  205.7610  149.4640 C   0  0  0  0  0  2  0  0  0  0  0  0
  161.9630  209.2090  149.5780 C   0  0  0  0  0  3  0  0  0  0  0  0
  161.5540  207.9220  149.2380 C   0  0  0  0  0  0  0  0  0  0  0  0
  160.5160  211.3130  154.1680 C   0  0  0  0  0  3  0  0  0  0  0  0
  161.5780  209.0820  153.3260 C   0  0  0  0  0  3  0  0  0  0  0  0
  161.0460  210.2000  153.7450 C   0  0  0  0  0  0  0  0  0  0  0  0
  156.3770  212.8970  153.8770 O   0  0  0  0  0  1  0  0  0  0  0  0
  158.6100  212.8370  154.7250 C   0  0  0  0  0  2  0  0  0  0  0  0
  158.1030  213.9010  152.5050 C   0  0  2  0  0  3  0  0  0  0  0  0
  159.0450  212.7950  152.0120 C   0  0  0  0  0  2  0  0  0  0  0  0
  157.5730  213.6190  153.9220 C   0  0  1  0  0  3  0  0  0  0  0  0
  159.0590  211.5690  153.9690 C   0  0  1  0  0  3  0  0  0  0  0  0
  157.0540  214.0810  151.6020 O   0  0  0  0  0  1  0  0  0  0  0  0
  158.7100  211.5550  152.5920 O   0  0  0  0  0  0  0  0  0  0  0  0
  162.0970  205.1710  147.5710 C   0  0  0  0  0  2  0  0  0  0  0  0
  161.3210  202.8280  147.9730 C   0  0  0  0  0  3  0  0  0  0  0  0
  160.8300  201.6140  147.4900 C   0  0  0  0  0  3  0  0  0  0  0  0
  161.5500  203.8760  147.0770 C   0  0  0  0  0  0  0  0  0  0  0  0
  161.3070  203.7020  145.7490 N   0  0  0  0  0  0  0  0  0  0  0  0
  160.8300  202.5250  145.2610 C   0  0  0  0  0  3  0  0  0  0  0  0
  160.5810  201.4570  146.1260 C   0  0  0  0  0  3  0  0  0  0  0  0
  1  8  1  0  0  0  0
  2  5  1  0  0  0  0
  2  6  1  0  0  0  0
  3  1  1  0  0  0  0
  3 10  1  0  0  0  0
  4  2  2  0  0  0  0
  5 12  1  0  0  0  0
  7  5  2  0  0  0  0
  8  4  1  0  0  0  0
  9  7  1  0  0  0  0
 10  9  2  0  0  0  0
 10  4  1  0  0  0  0
 12 13  2  0  0  0  0
 13 11  2  0  0  0  0
 16 20  1  6  0  0  0
 16 18  1  0  0  0  0
 17 16  1  0  0  0  0
 17 21  1  0  0  0  0
 18 14  1  6  0  0  0
 18 15  1  0  0  0  0
 19 11  1  6  0  0  0
 19 15  1  0  0  0  0
 21 19  1  0  0  0  0
 22  1  1  0  0  0  0
 24 23  1  0  0  0  0
 25 22  1  0  0  0  0
 25 23  2  0  0  0  0
 26 25  1  0  0  0  0
 27 26  2  0  0  0  0
 27 28  1  0  0  0  0
 28 24  2  0  0  0  0
M  END
>  <MODEL>
7

>  <REMARK>
 VINA RESULT:      -8.3      4.291      9.496
  Name = 
  4 active torsions:
  status: ('A' for Active; 'I' for Inactive)
    1  A    between atoms: N_1  and  C_11
    2  A    between atoms: C_9  and  C_20
    3  A    between atoms: C_10  and  C_19
    4  A    between atoms: C_11  and  C_14
                            x       y       z     vdW  Elec       q    Type
                         _______ _______ _______ _____ _____    ______ ____

>  <TORSDO>
F 4

$$$$
=
 OpenBabel11072414133D

 28 31  0  0  1  0  0  0  0  0999 V2000
  161.6110  206.5030  149.6350 N   0  0  0  0  0  0  0  0  0  0  0  0
  161.5140  209.0770  152.3450 C   0  0  0  0  0  0  0  0  0  0  0  0
  161.3180  205.8260  150.8370 N   0  0  0  0  0  2  0  0  0  0  0  0
  161.5090  207.9870  151.4750 C   0  0  0  0  0  0  0  0  0  0  0  0
  161.2610  208.8360  153.7210 C   0  0  0  0  0  0  0  0  0  0  0  0
  161.7570  210.3210  151.8600 F   0  0  0  0  0  0  0  0  0  0  0  0
  161.0170  207.5150  154.1570 C   0  0  0  0  0  3  0  0  0  0  0  0
  161.7280  207.9330  150.0060 C   0  0  0  0  0  2  0  0  0  0  0  0
  161.0180  206.4430  153.2500 C   0  0  0  0  0  3  0  0  0  0  0  0
  161.2710  206.7300  151.9120 C   0  0  0  0  0  0  0  0  0  0  0  0
  159.9090  212.1320  154.5090 C   0  0  0  0  0  3  0  0  0  0  0  0
  161.2380  209.8980  154.7440 C   0  0  0  0  0  3  0  0  0  0  0  0
  160.5720  211.0160  154.6240 C   0  0  0  0  0  0  0  0  0  0  0  0
  155.5010  211.6180  154.6880 O   0  0  0  0  0  1  0  0  0  0  0  0
  157.7620  211.0670  155.2300 C   0  0  0  0  0  2  0  0  0  0  0  0
  156.5840  212.9590  156.3910 C   0  0  2  0  0  3  0  0  0  0  0  0
  157.7120  213.7670  155.7380 C   0  0  0  0  0  2  0  0  0  0  0  0
  156.4160  211.5730  155.7440 C   0  0  1  0  0  3  0  0  0  0  0  0
  158.4310  212.1040  154.3050 C   0  0  1  0  0  3  0  0  0  0  0  0
  155.3890  213.6800  156.3540 O   0  0  0  0  0  1  0  0  0  0  0  0
  157.8690  213.4060  154.3840 O   0  0  0  0  0  0  0  0  0  0  0  0
  160.4430  206.3690  148.7760 C   0  0  0  0  0  2  0  0  0  0  0  0
  161.6800  204.6710  147.4200 C   0  0  0  0  0  3  0  0  0  0  0  0
  162.0600  204.1520  146.1810 C   0  0  0  0  0  3  0  0  0  0  0  0
  160.8390  205.7870  147.4630 C   0  0  0  0  0  0  0  0  0  0  0  0
  160.4110  206.3620  146.3070 N   0  0  0  0  0  0  0  0  0  0  0  0
  160.7710  205.8710  145.0910 C   0  0  0  0  0  3  0  0  0  0  0  0
  161.6040  204.7530  145.0060 C   0  0  0  0  0  3  0  0  0  0  0  0
  1  8  1  0  0  0  0
  1  3  1  0  0  0  0
  2  5  1  0  0  0  0
  3 10  1  0  0  0  0
  4 10  1  0  0  0  0
  4  2  2  0  0  0  0
  5  7  2  0  0  0  0
  5 12  1  0  0  0  0
  6  2  1  0  0  0  0
  8  4  1  0  0  0  0
  9  7  1  0  0  0  0
 10  9  2  0  0  0  0
 11 13  2  0  0  0  0
 13 12  2  0  0  0  0
 15 18  1  0  0  0  0
 16 20  1  6  0  0  0
 17 16  1  0  0  0  0
 18 14  1  6  0  0  0
 18 16  1  0  0  0  0
 19 21  1  0  0  0  0
 19 11  1  1  0  0  0
 19 15  1  0  0  0  0
 21 17  1  0  0  0  0
 22  1  1  0  0  0  0
 23 25  1  0  0  0  0
 24 23  2  0  0  0  0
 25 22  1  0  0  0  0
 26 25  2  0  0  0  0
 27 26  1  0  0  0  0
 28 27  2  0  0  0  0
 28 24  1  0  0  0  0
M  END
>  <MODEL>
8

>  <REMARK>
 VINA RESULT:      -8.3      4.870      9.737
  Name = 
  4 active torsions:
  status: ('A' for Active; 'I' for Inactive)
    1  A    between atoms: N_1  and  C_11
    2  A    between atoms: C_9  and  C_20
    3  A    between atoms: C_10  and  C_19
    4  A    between atoms: C_11  and  C_14
                            x       y       z     vdW  Elec       q    Type
                         _______ _______ _______ _____ _____    ______ ____

>  <TORSDO>
F 4

$$$$
=
 OpenBabel11072414133D

 28 31  0  0  1  0  0  0  0  0999 V2000
  160.8370  209.6080  154.4630 N   0  0  0  0  0  0  0  0  0  0  0  0
  161.1910  206.1220  153.1590 C   0  0  0  0  0  0  0  0  0  0  0  0
  160.8600  209.6940  153.0550 N   0  0  0  0  0  2  0  0  0  0  0  0
  161.0580  207.4780  153.4570 C   0  0  0  0  0  0  0  0  0  0  0  0
  161.2670  205.7420  151.7930 C   0  0  0  0  0  0  0  0  0  0  0  0
  161.2440  205.2150  154.1660 F   0  0  0  0  0  0  0  0  0  0  0  0
  161.2060  206.7390  150.7940 C   0  0  0  0  0  3  0  0  0  0  0  0
  160.9470  208.1620  154.7710 C   0  0  0  0  0  2  0  0  0  0  0  0
  161.0700  208.0940  151.1340 C   0  0  0  0  0  3  0  0  0  0  0  0
  161.0000  208.4160  152.4870 C   0  0  0  0  0  0  0  0  0  0  0  0
  161.0110  203.5480  148.8880 C   0  0  0  0  0  3  0  0  0  0  0  0
  161.4080  204.3450  151.3420 C   0  0  0  0  0  3  0  0  0  0  0  0
  161.2090  203.9480  150.1130 C   0  0  0  0  0  0  0  0  0  0  0  0
  162.8350  204.8240  145.0450 O   0  0  0  0  0  1  0  0  0  0  0  0
  161.5780  203.3630  146.4580 C   0  0  0  0  0  2  0  0  0  0  0  0
  160.5370  205.4400  145.5000 C   0  0  2  0  0  3  0  0  0  0  0  0
  160.4070  205.7910  146.9870 C   0  0  0  0  0  2  0  0  0  0  0  0
  161.5520  204.3100  145.2600 C   0  0  1  0  0  3  0  0  0  0  0  0
  161.8100  204.1350  147.7730 C   0  0  1  0  0  3  0  0  0  0  0  0
  160.8650  206.5780  144.7620 O   0  0  0  0  0  1  0  0  0  0  0  0
  161.6130  205.5370  147.6710 O   0  0  0  0  0  0  0  0  0  0  0  0
  159.5170  210.0460  154.8930 C   0  0  0  0  0  2  0  0  0  0  0  0
  158.5550  211.4580  153.0660 C   0  0  0  0  0  3  0  0  0  0  0  0
  158.2900  212.7130  152.5160 C   0  0  0  0  0  3  0  0  0  0  0  0
  159.2040  211.3780  154.3020 C   0  0  0  0  0  0  0  0  0  0  0  0
  159.5800  212.5150  154.9480 N   0  0  0  0  0  0  0  0  0  0  0  0
  159.3300  213.7460  154.4270 C   0  0  0  0  0  3  0  0  0  0  0  0
  158.6780  213.8670  153.1980 C   0  0  0  0  0  3  0  0  0  0  0  0
  1  8  1  0  0  0  0
  1 22  1  0  0  0  0
  2  4  1  0  0  0  0
  2  6  1  0  0  0  0
  3  1  1  0  0  0  0
  4  8  1  0  0  0  0
  5  2  2  0  0  0  0
  7  9  2  0  0  0  0
  7  5  1  0  0  0  0
  9 10  1  0  0  0  0
 10  3  1  0  0  0  0
 10  4  2  0  0  0  0
 11 13  2  0  0  0  0
 12  5  1  0  0  0  0
 13 12  2  0  0  0  0
 15 19  1  0  0  0  0
 16 20  1  6  0  0  0
 16 17  1  0  0  0  0
 17 21  1  0  0  0  0
 18 14  1  1  0  0  0
 18 16  1  0  0  0  0
 18 15  1  0  0  0  0
 19 11  1  1  0  0  0
 21 19  1  0  0  0  0
 23 25  1  0  0  0  0
 24 23  2  0  0  0  0
 24 28  1  0  0  0  0
 25 22  1  0  0  0  0
 25 26  2  0  0  0  0
 27 26  1  0  0  0  0
 28 27  2  0  0  0  0
M  END
>  <MODEL>
9

>  <REMARK>
 VINA RESULT:      -8.0      1.207      1.514
  Name = 
  4 active torsions:
  status: ('A' for Active; 'I' for Inactive)
    1  A    between atoms: N_1  and  C_11
    2  A    between atoms: C_9  and  C_20
    3  A    between atoms: C_10  and  C_19
    4  A    between atoms: C_11  and  C_14
                            x       y       z     vdW  Elec       q    Type
                         _______ _______ _______ _____ _____    ______ ____

>  <TORSDO>
F 4

$$$$
