=
 OpenBabel11072412163D

 38 43  0  0  1  0  0  0  0  0999 V2000
  161.8460  209.2930  149.7830 C   0  0  0  0  0  0  0  0  0  0  0  0
  162.1360  208.6850  148.6220 N   0  0  0  0  0  0  0  0  0  0  0  0
  161.6500  207.1310  150.2260 C   0  0  0  0  0  3  0  0  0  0  0  0
  161.5380  208.3960  150.7610 C   0  0  1  0  0  3  0  0  0  0  0  0
  160.8780  210.2850  152.2420 C   0  0  1  0  0  3  0  0  0  0  0  0
  161.9140  210.7280  150.0640 C   0  0  0  0  0  0  0  0  0  0  0  0
  160.3820  207.9970  152.7930 O   0  0  0  0  0  1  0  0  0  0  0  0
  161.5170  211.1510  151.2320 N   0  0  0  0  0  0  0  0  0  0  0  0
  161.3400  208.8090  152.1850 C   0  0  1  0  0  3  0  0  0  0  0  0
  161.9900  207.3700  148.8990 C   0  0  0  0  0  0  0  0  0  0  0  0
  161.0570  210.8490  153.5760 N   0  0  0  0  0  0  0  0  0  0  0  0
  160.3650  212.3220  155.2540 O   0  0  0  0  0  0  0  0  0  0  0  0
  160.1680  211.8480  154.1010 C   0  0  0  0  0  0  0  0  0  0  0  0
  159.0850  212.2890  153.3360 O   0  0  0  0  0  0  0  0  0  0  0  0
  159.1090  213.5280  152.6420 C   0  0  0  0  0  1  0  0  0  0  0  0
  162.3920  210.2340  154.5610 S   0  0  0  0  0  0  0  0  0  0  0  0
  162.0780  209.0890  157.0050 C   0  0  0  0  0  2  0  0  0  0  0  0
  161.2650  209.5720  155.8220 C   0  0  0  0  0  3  0  0  0  0  0  0
  161.5330  208.0920  156.0050 C   0  0  0  0  0  2  0  0  0  0  0  0
  162.4450  211.5980  149.0990 O   0  0  0  0  0  0  0  0  0  0  0  0
  159.8360  213.9270  147.8170 C   0  0  0  0  0  3  0  0  0  0  0  0
  161.5530  213.6910  146.1970 C   0  0  0  0  0  3  0  0  0  0  0  0
  161.7240  212.4890  148.2870 C   0  0  0  0  0  0  0  0  0  0  0  0
  160.3710  214.2270  146.6040 N   0  0  0  0  0  0  0  0  0  0  0  0
  160.5010  213.0540  148.6790 C   0  0  0  0  0  3  0  0  0  0  0  0
  162.2470  212.8130  147.0320 C   0  0  0  0  0  3  0  0  0  0  0  0
  162.2510  206.3010  147.8980 C   0  0  0  0  0  2  0  0  0  0  0  0
  161.0520  205.5030  147.7070 N   0  0  0  0  0  2  0  0  0  0  0  0
  161.1610  204.8730  146.3980 C   0  0  1  0  0  3  0  0  0  0  0  0
  162.0500  205.7230  145.4950 C   0  0  0  0  0  2  0  0  0  0  0  0
  161.5510  205.7480  144.1920 O   0  0  0  0  0  1  0  0  0  0  0  0
  160.9030  202.5060  145.6260 C   0  0  0  0  0  1  0  0  0  0  0  0
  161.6930  203.4420  146.5280 C   0  0  2  0  0  3  0  0  0  0  0  0
  161.5740  203.0010  147.8490 O   0  0  0  0  0  0  0  0  0  0  0  0
  159.9810  201.6590  149.0120 C   0  0  2  0  0  3  0  0  0  0  0  0
  161.2660  200.8750  148.8990 C   0  0  1  0  0  3  0  0  0  0  0  0
  160.8490  201.8080  147.7750 C   0  0  2  0  0  3  0  0  0  0  0  0
  160.8640  201.4770  150.2320 C   0  0  0  0  0  2  0  0  0  0  0  0
  1  6  1  0  0  0  0
  1  4  1  0  0  0  0
  2 10  1  0  0  0  0
  2  1  2  0  0  0  0
  4  3  1  1  0  0  0
  4  9  1  0  0  0  0
  5 11  1  1  0  0  0
  6  8  2  0  0  0  0
  8  5  1  0  0  0  0
  9  5  1  0  0  0  0
  9  7  1  6  0  0  0
 10  3  2  0  0  0  0
 11 13  1  0  0  0  0
 11 16  1  0  0  0  0
 13 12  2  0  0  0  0
 14 13  1  0  0  0  0
 15 14  1  0  0  0  0
 16 18  1  0  0  0  0
 18 19  1  0  0  0  0
 18 17  1  0  0  0  0
 19 17  1  0  0  0  0
 20  6  1  0  0  0  0
 21 25  1  0  0  0  0
 22 24  1  0  0  0  0
 22 26  2  0  0  0  0
 23 25  2  0  0  0  0
 23 20  1  0  0  0  0
 24 21  2  0  0  0  0
 26 23  1  0  0  0  0
 27 10  1  0  0  0  0
 28 27  1  0  0  0  0
 29 30  1  6  0  0  0
 29 33  1  0  0  0  0
 29 28  1  0  0  0  0
 31 30  1  0  0  0  0
 33 32  1  6  0  0  0
 33 34  1  0  0  0  0
 35 38  1  1  0  0  0
 36 35  1  0  0  0  0
 36 38  1  1  0  0  0
 37 34  1  1  0  0  0
 37 36  1  0  0  0  0
 37 35  1  0  0  0  0
M  END
>  <MODEL>
1

>  <REMARK>
 VINA RESULT:      -7.3      0.000      0.000
  Name = 
  13 active torsions:
  status: ('A' for Active; 'I' for Inactive)
    1  A    between atoms: O_2  and  C_27
    2  A    between atoms: O_7  and  C_18
    3  A    between atoms: O_7  and  C_20
    4  A    between atoms: C_9  and  N_16
    5  A    between atoms: C_11  and  CA_12
    6  A    between atoms: CA_12  and  N_28
    7  A    between atoms: CA_12  and  C_36
    8  A    between atoms: O_15  and  C_25
    9  A    between atoms: O_15  and  C_36
   10  A    between atoms: N_16  and  S_17
   11  A    between atoms: S_17  and  C_24
   12  A    between atoms: N_28  and  C_31
   13  A    between atoms: C_31  and  C_34
                            x       y       z     vdW  Elec       q    Type
                         _______ _______ _______ _____ _____    ______ ____

>  <TORSDO>
F 13

$$$$
=
 OpenBabel11072412163D

 38 43  0  0  1  0  0  0  0  0999 V2000
  161.3610  208.5860  152.5350 C   0  0  0  0  0  0  0  0  0  0  0  0
  161.7470  207.5870  151.7240 N   0  0  0  0  0  0  0  0  0  0  0  0
  160.9670  206.7420  153.6990 C   0  0  0  0  0  3  0  0  0  0  0  0
  160.8780  208.1180  153.7190 C   0  0  1  0  0  3  0  0  0  0  0  0
  160.1740  210.4310  154.3090 C   0  0  1  0  0  3  0  0  0  0  0  0
  161.4930  210.0210  152.2830 C   0  0  0  0  0  0  0  0  0  0  0  0
  159.4600  208.5170  155.5780 O   0  0  0  0  0  1  0  0  0  0  0  0
  160.9870  210.8520  153.1520 N   0  0  0  0  0  0  0  0  0  0  0  0
  160.5380  209.0300  154.8550 C   0  0  1  0  0  3  0  0  0  0  0  0
  161.4800  206.4700  152.4360 C   0  0  0  0  0  0  0  0  0  0  0  0
  160.2290  211.4430  155.3600 N   0  0  0  0  0  0  0  0  0  0  0  0
  161.2970  212.3590  157.2260 O   0  0  0  0  0  0  0  0  0  0  0  0
  161.2930  211.4770  156.3250 C   0  0  0  0  0  0  0  0  0  0  0  0
  162.3240  210.5340  156.2590 O   0  0  0  0  0  0  0  0  0  0  0  0
  163.4450  210.5850  157.1280 C   0  0  0  0  0  1  0  0  0  0  0  0
  158.9550  212.6700  155.3910 S   0  0  0  0  0  0  0  0  0  0  0  0
  156.5300  211.4680  155.1500 C   0  0  0  0  0  2  0  0  0  0  0  0
  157.7360  211.5030  156.0650 C   0  0  0  0  0  3  0  0  0  0  0  0
  156.4770  212.2570  156.4410 C   0  0  0  0  0  2  0  0  0  0  0  0
  162.1940  210.4650  151.1510 O   0  0  0  0  0  0  0  0  0  0  0  0
  161.6650  212.2030  147.8990 C   0  0  0  0  0  3  0  0  0  0  0  0
  160.2480  213.1550  149.5470 C   0  0  0  0  0  3  0  0  0  0  0  0
  161.7160  211.3340  150.1560 C   0  0  0  0  0  0  0  0  0  0  0  0
  160.7150  213.1020  148.2710 N   0  0  0  0  0  0  0  0  0  0  0  0
  162.1820  211.3050  148.8340 C   0  0  0  0  0  3  0  0  0  0  0  0
  160.7420  212.2710  150.5100 C   0  0  0  0  0  3  0  0  0  0  0  0
  161.7860  205.1030  151.9360 C   0  0  0  0  0  2  0  0  0  0  0  0
  160.7310  204.6590  151.0400 N   0  0  0  0  0  2  0  0  0  0  0  0
  161.3790  204.0920  149.8650 C   0  0  1  0  0  3  0  0  0  0  0  0
  160.6430  202.8260  149.4370 C   0  0  0  0  0  2  0  0  0  0  0  0
  160.5950  201.9040  150.4850 O   0  0  0  0  0  1  0  0  0  0  0  0
  160.3280  206.1470  148.8930 C   0  0  0  0  0  1  0  0  0  0  0  0
  161.4390  205.1210  148.7300 C   0  0  2  0  0  3  0  0  0  0  0  0
  161.2870  204.4840  147.4940 O   0  0  0  0  0  0  0  0  0  0  0  0
  161.9780  205.7330  145.5830 C   0  0  2  0  0  3  0  0  0  0  0  0
  162.3150  204.2810  145.3460 C   0  0  1  0  0  3  0  0  0  0  0  0
  162.4080  204.8580  146.7470 C   0  0  2  0  0  3  0  0  0  0  0  0
  161.1470  204.9130  144.6130 C   0  0  0  0  0  2  0  0  0  0  0  0
  1  4  1  0  0  0  0
  2 10  1  0  0  0  0
  2  1  2  0  0  0  0
  4  3  1  1  0  0  0
  4  9  1  0  0  0  0
  5  9  1  0  0  0  0
  5 11  1  1  0  0  0
  6  1  1  0  0  0  0
  6  8  2  0  0  0  0
  8  5  1  0  0  0  0
  9  7  1  6  0  0  0
 10  3  2  0  0  0  0
 11 16  1  0  0  0  0
 11 13  1  0  0  0  0
 13 12  2  0  0  0  0
 14 13  1  0  0  0  0
 14 15  1  0  0  0  0
 16 18  1  0  0  0  0
 17 18  1  0  0  0  0
 17 19  1  0  0  0  0
 18 19  1  0  0  0  0
 20  6  1  0  0  0  0
 21 24  2  0  0  0  0
 21 25  1  0  0  0  0
 22 26  2  0  0  0  0
 23 26  1  0  0  0  0
 23 20  1  0  0  0  0
 24 22  1  0  0  0  0
 25 23  2  0  0  0  0
 27 10  1  0  0  0  0
 28 27  1  0  0  0  0
 29 30  1  6  0  0  0
 29 28  1  0  0  0  0
 30 31  1  0  0  0  0
 33 32  1  1  0  0  0
 33 29  1  0  0  0  0
 34 33  1  0  0  0  0
 35 38  1  1  0  0  0
 35 37  1  0  0  0  0
 36 38  1  1  0  0  0
 36 35  1  0  0  0  0
 36 37  1  0  0  0  0
 37 34  1  1  0  0  0
M  END
>  <MODEL>
2

>  <REMARK>
 VINA RESULT:      -6.7      2.274      4.024
  Name = 
  13 active torsions:
  status: ('A' for Active; 'I' for Inactive)
    1  A    between atoms: O_2  and  C_27
    2  A    between atoms: O_7  and  C_18
    3  A    between atoms: O_7  and  C_20
    4  A    between atoms: C_9  and  N_16
    5  A    between atoms: C_11  and  CA_12
    6  A    between atoms: CA_12  and  N_28
    7  A    between atoms: CA_12  and  C_36
    8  A    between atoms: O_15  and  C_25
    9  A    between atoms: O_15  and  C_36
   10  A    between atoms: N_16  and  S_17
   11  A    between atoms: S_17  and  C_24
   12  A    between atoms: N_28  and  C_31
   13  A    between atoms: C_31  and  C_34
                            x       y       z     vdW  Elec       q    Type
                         _______ _______ _______ _____ _____    ______ ____

>  <TORSDO>
F 13

$$$$
=
 OpenBabel11072412163D

 38 43  0  0  1  0  0  0  0  0999 V2000
  161.8390  208.1660  150.1980 C   0  0  0  0  0  0  0  0  0  0  0  0
  162.0600  209.4540  150.5080 N   0  0  0  0  0  2  0  0  0  0  0  0
  161.8030  209.2190  148.2480 C   0  0  0  0  0  3  0  0  0  0  0  0
  161.6680  207.9900  148.8580 C   0  0  0  0  0  0  0  0  0  0  0  0
  161.0360  205.6200  149.2820 C   0  0  1  0  0  3  0  0  0  0  0  0
  161.8510  207.0280  151.1180 C   0  0  0  0  0  0  0  0  0  0  0  0
  160.7170  206.6620  147.1380 O   0  0  0  0  0  1  0  0  0  0  0  0
  161.5340  205.8510  150.6520 N   0  0  0  0  0  0  0  0  0  0  0  0
  161.5720  206.6310  148.2410 C   0  0  1  0  0  3  0  0  0  0  0  0
  162.0120  210.0870  149.3150 C   0  0  0  0  0  0  0  0  0  0  0  0
  161.2980  204.2440  148.8750 N   0  0  0  0  0  0  0  0  0  0  0  0
  161.1110  201.9490  149.2790 O   0  0  0  0  0  0  0  0  0  0  0  0
  160.8510  203.1240  149.6570 C   0  0  0  0  0  0  0  0  0  0  0  0
  160.1260  203.3390  150.8320 O   0  0  0  0  0  0  0  0  0  0  0  0
  160.7040  203.1620  152.1160 C   0  0  0  0  0  1  0  0  0  0  0  0
  162.1590  203.9830  147.3520 S   0  0  0  0  0  0  0  0  0  0  0  0
  160.9250  202.1910  145.7240 C   0  0  0  0  0  2  0  0  0  0  0  0
  160.6450  203.4670  146.4900 C   0  0  0  0  0  3  0  0  0  0  0  0
  160.8800  203.5160  144.9950 C   0  0  0  0  0  2  0  0  0  0  0  0
  162.2460  207.2180  152.4510 O   0  0  0  0  0  0  0  0  0  0  0  0
  160.3750  209.3950  154.8250 C   0  0  0  0  0  3  0  0  0  0  0  0
  160.0660  207.1190  155.4230 C   0  0  0  0  0  3  0  0  0  0  0  0
  161.4370  207.6640  153.5090 C   0  0  0  0  0  0  0  0  0  0  0  0
  159.8350  208.4430  155.6330 N   0  0  0  0  0  0  0  0  0  0  0  0
  161.1850  209.0230  153.7510 C   0  0  0  0  0  3  0  0  0  0  0  0
  160.8720  206.7100  154.3580 C   0  0  0  0  0  3  0  0  0  0  0  0
  162.2430  211.5490  149.1680 C   0  0  0  0  0  2  0  0  0  0  0  0
  161.9300  211.9630  147.8110 N   0  0  0  0  0  2  0  0  0  0  0  0
  160.8050  212.8850  147.8940 C   0  0  1  0  0  3  0  0  0  0  0  0
  161.1820  214.0710  148.7760 C   0  0  0  0  0  2  0  0  0  0  0  0
  160.2060  214.2920  149.7500 O   0  0  0  0  0  1  0  0  0  0  0  0
  158.9290  212.9260  146.2360 C   0  0  0  0  0  1  0  0  0  0  0  0
  160.3700  213.3370  146.4950 C   0  0  2  0  0  3  0  0  0  0  0  0
  161.1870  212.7510  145.5230 O   0  0  0  0  0  0  0  0  0  0  0  0
  161.6660  213.7580  143.4140 C   0  0  2  0  0  3  0  0  0  0  0  0
  162.9670  213.2900  144.0210 C   0  0  1  0  0  3  0  0  0  0  0  0
  161.8610  213.8170  144.9190 C   0  0  2  0  0  3  0  0  0  0  0  0
  162.3570  212.5250  142.8620 C   0  0  0  0  0  2  0  0  0  0  0  0
  1  2  1  0  0  0  0
  1  6  1  0  0  0  0
  3  4  1  0  0  0  0
  3 10  2  0  0  0  0
  4  1  2  0  0  0  0
  5 11  1  6  0  0  0
  5  8  1  0  0  0  0
  6 20  1  0  0  0  0
  8  6  2  0  0  0  0
  9  7  1  6  0  0  0
  9  4  1  0  0  0  0
  9  5  1  0  0  0  0
 10  2  1  0  0  0  0
 11 13  1  0  0  0  0
 12 13  2  0  0  0  0
 13 14  1  0  0  0  0
 14 15  1  0  0  0  0
 16 11  1  0  0  0  0
 17 18  1  0  0  0  0
 18 16  1  0  0  0  0
 19 17  1  0  0  0  0
 19 18  1  0  0  0  0
 20 23  1  0  0  0  0
 21 24  1  0  0  0  0
 22 24  2  0  0  0  0
 23 25  1  0  0  0  0
 23 26  2  0  0  0  0
 25 21  2  0  0  0  0
 26 22  1  0  0  0  0
 27 10  1  0  0  0  0
 28 29  1  0  0  0  0
 28 27  1  0  0  0  0
 29 30  1  1  0  0  0
 30 31  1  0  0  0  0
 33 32  1  6  0  0  0
 33 29  1  0  0  0  0
 34 33  1  0  0  0  0
 35 38  1  1  0  0  0
 35 36  1  0  0  0  0
 35 37  1  0  0  0  0
 36 38  1  1  0  0  0
 36 37  1  0  0  0  0
 37 34  1  1  0  0  0
M  END
>  <MODEL>
3

>  <REMARK>
 VINA RESULT:      -6.5      2.763      8.967
  Name = 
  13 active torsions:
  status: ('A' for Active; 'I' for Inactive)
    1  A    between atoms: O_2  and  C_27
    2  A    between atoms: O_7  and  C_18
    3  A    between atoms: O_7  and  C_20
    4  A    between atoms: C_9  and  N_16
    5  A    between atoms: C_11  and  CA_12
    6  A    between atoms: CA_12  and  N_28
    7  A    between atoms: CA_12  and  C_36
    8  A    between atoms: O_15  and  C_25
    9  A    between atoms: O_15  and  C_36
   10  A    between atoms: N_16  and  S_17
   11  A    between atoms: S_17  and  C_24
   12  A    between atoms: N_28  and  C_31
   13  A    between atoms: C_31  and  C_34
                            x       y       z     vdW  Elec       q    Type
                         _______ _______ _______ _____ _____    ______ ____

>  <TORSDO>
F 13

$$$$
=
 OpenBabel11072412163D

 38 43  0  0  1  0  0  0  0  0999 V2000
  161.8470  208.3370  150.2330 C   0  0  0  0  0  0  0  0  0  0  0  0
  162.0510  209.6170  150.5830 N   0  0  0  0  0  2  0  0  0  0  0  0
  161.8200  209.4470  148.3150 C   0  0  0  0  0  3  0  0  0  0  0  0
  161.6910  208.1990  148.8860 C   0  0  0  0  0  0  0  0  0  0  0  0
  161.0780  205.8120  149.2320 C   0  0  1  0  0  3  0  0  0  0  0  0
  161.8610  207.1710  151.1180 C   0  0  0  0  0  0  0  0  0  0  0  0
  160.7710  206.9150  147.1180 O   0  0  0  0  0  1  0  0  0  0  0  0
  161.5600  206.0060  150.6140 N   0  0  0  0  0  0  0  0  0  0  0  0
  161.6150  206.8580  148.2270 C   0  0  1  0  0  3  0  0  0  0  0  0
  162.0100  210.2840  149.4090 C   0  0  0  0  0  0  0  0  0  0  0  0
  161.3580  204.4510  148.7870 N   0  0  0  0  0  0  0  0  0  0  0  0
  161.1910  202.1430  149.1200 O   0  0  0  0  0  0  0  0  0  0  0  0
  160.9160  203.3040  149.5310 C   0  0  0  0  0  0  0  0  0  0  0  0
  160.1780  203.4770  150.7050 O   0  0  0  0  0  0  0  0  0  0  0  0
  160.7000  203.1290  151.9790 C   0  0  0  0  0  1  0  0  0  0  0  0
  162.2350  204.2450  147.2640 S   0  0  0  0  0  0  0  0  0  0  0  0
  161.0020  202.6350  145.4550 C   0  0  0  0  0  2  0  0  0  0  0  0
  160.7200  203.8200  146.3550 C   0  0  0  0  0  3  0  0  0  0  0  0
  160.9500  204.0310  144.8730 C   0  0  0  0  0  2  0  0  0  0  0  0
  162.2410  207.3250  152.4600 O   0  0  0  0  0  0  0  0  0  0  0  0
  160.3050  209.4080  154.8670 C   0  0  0  0  0  3  0  0  0  0  0  0
  160.0500  207.1140  155.4190 C   0  0  0  0  0  3  0  0  0  0  0  0
  161.4160  207.7300  153.5230 C   0  0  0  0  0  0  0  0  0  0  0  0
  159.7860  208.4270  155.6540 N   0  0  0  0  0  0  0  0  0  0  0  0
  161.1290  209.0770  153.7900 C   0  0  0  0  0  3  0  0  0  0  0  0
  160.8710  206.7460  154.3500 C   0  0  0  0  0  3  0  0  0  0  0  0
  162.2280  211.7530  149.3080 C   0  0  0  0  0  2  0  0  0  0  0  0
  161.9330  212.2030  147.9590 N   0  0  0  0  0  2  0  0  0  0  0  0
  161.8030  213.6530  148.0100 C   0  0  1  0  0  3  0  0  0  0  0  0
  162.6540  214.2810  146.9100 C   0  0  0  0  0  2  0  0  0  0  0  0
  162.6260  213.4970  145.7550 O   0  0  0  0  0  1  0  0  0  0  0  0
  159.7490  214.3190  149.2760 C   0  0  0  0  0  1  0  0  0  0  0  0
  160.3330  214.0700  147.8940 C   0  0  2  0  0  3  0  0  0  0  0  0
  159.5940  213.0620  147.2680 O   0  0  0  0  0  0  0  0  0  0  0  0
  157.5740  213.7310  146.1870 C   0  0  2  0  0  3  0  0  0  0  0  0
  158.2210  212.6500  145.3540 C   0  0  1  0  0  3  0  0  0  0  0  0
  159.0890  213.6470  146.1020 C   0  0  2  0  0  3  0  0  0  0  0  0
  156.9890  212.3320  146.1790 C   0  0  0  0  0  2  0  0  0  0  0  0
  1  2  1  0  0  0  0
  1  6  1  0  0  0  0
  3  4  1  0  0  0  0
  3 10  2  0  0  0  0
  4  1  2  0  0  0  0
  5 11  1  6  0  0  0
  5  8  1  0  0  0  0
  6 20  1  0  0  0  0
  8  6  2  0  0  0  0
  9  7  1  6  0  0  0
  9  4  1  0  0  0  0
  9  5  1  0  0  0  0
 10  2  1  0  0  0  0
 11 13  1  0  0  0  0
 12 13  2  0  0  0  0
 13 14  1  0  0  0  0
 14 15  1  0  0  0  0
 16 11  1  0  0  0  0
 17 18  1  0  0  0  0
 18 16  1  0  0  0  0
 19 17  1  0  0  0  0
 19 18  1  0  0  0  0
 20 23  1  0  0  0  0
 21 24  1  0  0  0  0
 22 24  2  0  0  0  0
 23 25  1  0  0  0  0
 23 26  2  0  0  0  0
 25 21  2  0  0  0  0
 26 22  1  0  0  0  0
 27 10  1  0  0  0  0
 28 29  1  0  0  0  0
 28 27  1  0  0  0  0
 29 30  1  6  0  0  0
 31 30  1  0  0  0  0
 33 29  1  0  0  0  0
 33 32  1  1  0  0  0
 34 33  1  0  0  0  0
 35 38  1  1  0  0  0
 36 37  1  0  0  0  0
 36 38  1  1  0  0  0
 36 35  1  0  0  0  0
 37 35  1  0  0  0  0
 37 34  1  1  0  0  0
M  END
>  <MODEL>
4

>  <REMARK>
 VINA RESULT:      -6.4      2.802      8.879
  Name = 
  13 active torsions:
  status: ('A' for Active; 'I' for Inactive)
    1  A    between atoms: O_2  and  C_27
    2  A    between atoms: O_7  and  C_18
    3  A    between atoms: O_7  and  C_20
    4  A    between atoms: C_9  and  N_16
    5  A    between atoms: C_11  and  CA_12
    6  A    between atoms: CA_12  and  N_28
    7  A    between atoms: CA_12  and  C_36
    8  A    between atoms: O_15  and  C_25
    9  A    between atoms: O_15  and  C_36
   10  A    between atoms: N_16  and  S_17
   11  A    between atoms: S_17  and  C_24
   12  A    between atoms: N_28  and  C_31
   13  A    between atoms: C_31  and  C_34
                            x       y       z     vdW  Elec       q    Type
                         _______ _______ _______ _____ _____    ______ ____

>  <TORSDO>
F 13

$$$$
=
 OpenBabel11072412163D

 38 43  0  0  1  0  0  0  0  0999 V2000
  161.6670  209.4830  150.7050 C   0  0  0  0  0  0  0  0  0  0  0  0
  161.6810  210.6900  151.2930 N   0  0  0  0  0  0  0  0  0  0  0  0
  160.5210  209.1970  152.5800 C   0  0  0  0  0  3  0  0  0  0  0  0
  160.9940  208.5630  151.4510 C   0  0  1  0  0  3  0  0  0  0  0  0
  161.7490  206.7850  149.8810 C   0  0  1  0  0  3  0  0  0  0  0  0
  162.2090  209.1430  149.3880 C   0  0  0  0  0  0  0  0  0  0  0  0
  160.7120  206.2710  151.9890 O   0  0  0  0  0  1  0  0  0  0  0  0
  162.1790  207.8950  149.0090 N   0  0  0  0  0  0  0  0  0  0  0  0
  160.6950  207.1890  150.9390 C   0  0  1  0  0  3  0  0  0  0  0  0
  161.0000  210.4960  152.4450 C   0  0  0  0  0  0  0  0  0  0  0  0
  161.2900  205.6580  149.0750 N   0  0  0  0  0  0  0  0  0  0  0  0
  160.8710  203.3680  148.8610 O   0  0  0  0  0  0  0  0  0  0  0  0
  161.2600  204.3180  149.5940 C   0  0  0  0  0  0  0  0  0  0  0  0
  161.6580  204.0710  150.9110 O   0  0  0  0  0  0  0  0  0  0  0  0
  161.2580  202.9030  151.6110 C   0  0  0  0  0  1  0  0  0  0  0  0
  160.7280  205.9930  147.4320 S   0  0  0  0  0  0  0  0  0  0  0  0
  162.2390  205.6650  145.1980 C   0  0  0  0  0  2  0  0  0  0  0  0
  162.3040  205.4680  146.6970 C   0  0  0  0  0  3  0  0  0  0  0  0
  162.0610  204.2820  145.7870 C   0  0  0  0  0  2  0  0  0  0  0  0
  162.6990  210.1610  148.5560 O   0  0  0  0  0  0  0  0  0  0  0  0
  160.1790  212.6910  147.4930 C   0  0  0  0  0  3  0  0  0  0  0  0
  162.1790  213.7890  148.1470 C   0  0  0  0  0  3  0  0  0  0  0  0
  162.0630  211.3770  148.2570 C   0  0  0  0  0  0  0  0  0  0  0  0
  160.9010  213.8280  147.6840 N   0  0  0  0  0  0  0  0  0  0  0  0
  160.7470  211.4470  147.7760 C   0  0  0  0  0  3  0  0  0  0  0  0
  162.7800  212.5620  148.4390 C   0  0  0  0  0  3  0  0  0  0  0  0
  160.7300  211.5900  153.4160 C   0  0  0  0  0  2  0  0  0  0  0  0
  159.4340  211.3850  154.0400 N   0  0  0  0  0  2  0  0  0  0  0  0
  159.4510  212.1030  155.3070 C   0  0  1  0  0  3  0  0  0  0  0  0
  158.1850  212.9460  155.4330 C   0  0  0  0  0  2  0  0  0  0  0  0
  157.3500  212.7520  154.3320 O   0  0  0  0  0  1  0  0  0  0  0  0
  160.9250  211.3590  157.1890 C   0  0  0  0  0  1  0  0  0  0  0  0
  159.5990  211.1290  156.4810 C   0  0  2  0  0  3  0  0  0  0  0  0
  159.5580  209.8090  156.0200 O   0  0  0  0  0  0  0  0  0  0  0  0
  161.2360  208.1140  155.9510 C   0  0  2  0  0  3  0  0  0  0  0  0
  160.1230  207.6410  156.8540 C   0  0  1  0  0  3  0  0  0  0  0  0
  160.4820  209.1160  156.8080 C   0  0  2  0  0  3  0  0  0  0  0  0
  160.2800  207.0380  155.4720 C   0  0  0  0  0  2  0  0  0  0  0  0
  1  2  2  0  0  0  0
  1  4  1  0  0  0  0
  2 10  1  0  0  0  0
  4  3  1  6  0  0  0
  5 11  1  6  0  0  0
  5  9  1  0  0  0  0
  6  1  1  0  0  0  0
  8  6  2  0  0  0  0
  8  5  1  0  0  0  0
  9  4  1  0  0  0  0
  9  7  1  1  0  0  0
 10  3  2  0  0  0  0
 10 27  1  0  0  0  0
 11 13  1  0  0  0  0
 12 13  2  0  0  0  0
 13 14  1  0  0  0  0
 14 15  1  0  0  0  0
 16 11  1  0  0  0  0
 17 19  1  0  0  0  0
 17 18  1  0  0  0  0
 18 16  1  0  0  0  0
 19 18  1  0  0  0  0
 20  6  1  0  0  0  0
 21 24  2  0  0  0  0
 21 25  1  0  0  0  0
 22 26  2  0  0  0  0
 23 26  1  0  0  0  0
 23 20  1  0  0  0  0
 24 22  1  0  0  0  0
 25 23  2  0  0  0  0
 27 28  1  0  0  0  0
 28 29  1  0  0  0  0
 29 30  1  1  0  0  0
 29 33  1  0  0  0  0
 31 30  1  0  0  0  0
 33 32  1  6  0  0  0
 34 33  1  0  0  0  0
 35 38  1  6  0  0  0
 35 37  1  0  0  0  0
 35 36  1  0  0  0  0
 36 38  1  6  0  0  0
 37 34  1  6  0  0  0
 37 36  1  0  0  0  0
M  END
>  <MODEL>
5

>  <REMARK>
 VINA RESULT:      -6.3      2.293      8.102
  Name = 
  13 active torsions:
  status: ('A' for Active; 'I' for Inactive)
    1  A    between atoms: O_2  and  C_27
    2  A    between atoms: O_7  and  C_18
    3  A    between atoms: O_7  and  C_20
    4  A    between atoms: C_9  and  N_16
    5  A    between atoms: C_11  and  CA_12
    6  A    between atoms: CA_12  and  N_28
    7  A    between atoms: CA_12  and  C_36
    8  A    between atoms: O_15  and  C_25
    9  A    between atoms: O_15  and  C_36
   10  A    between atoms: N_16  and  S_17
   11  A    between atoms: S_17  and  C_24
   12  A    between atoms: N_28  and  C_31
   13  A    between atoms: C_31  and  C_34
                            x       y       z     vdW  Elec       q    Type
                         _______ _______ _______ _____ _____    ______ ____

>  <TORSDO>
F 13

$$$$
=
 OpenBabel11072412163D

 38 43  0  0  1  0  0  0  0  0999 V2000
  161.8100  209.2370  151.9300 C   0  0  0  0  0  0  0  0  0  0  0  0
  161.8840  210.3280  152.7110 N   0  0  0  0  0  2  0  0  0  0  0  0
  160.8520  208.6220  153.8310 C   0  0  0  0  0  3  0  0  0  0  0  0
  161.2120  208.1950  152.5710 C   0  0  0  0  0  0  0  0  0  0  0  0
  161.8060  206.7190  150.6570 C   0  0  1  0  0  3  0  0  0  0  0  0
  162.2210  209.1320  150.5290 C   0  0  0  0  0  0  0  0  0  0  0  0
  160.9780  205.8410  152.7380 O   0  0  0  0  0  1  0  0  0  0  0  0
  162.1510  207.9660  149.9480 N   0  0  0  0  0  0  0  0  0  0  0  0
  160.8610  206.9230  151.8650 C   0  0  1  0  0  3  0  0  0  0  0  0
  161.3180  209.9320  153.8730 C   0  0  0  0  0  0  0  0  0  0  0  0
  161.2690  205.7370  149.7200 N   0  0  0  0  0  0  0  0  0  0  0  0
  160.7580  203.5180  149.1940 O   0  0  0  0  0  0  0  0  0  0  0  0
  161.2160  204.3370  150.0370 C   0  0  0  0  0  0  0  0  0  0  0  0
  161.6690  203.8860  151.2800 O   0  0  0  0  0  0  0  0  0  0  0  0
  161.4190  202.5650  151.7370 C   0  0  0  0  0  1  0  0  0  0  0  0
  160.6380  206.3290  148.1770 S   0  0  0  0  0  0  0  0  0  0  0  0
  161.8860  206.0000  145.7850 C   0  0  0  0  0  2  0  0  0  0  0  0
  162.0900  205.7310  147.2620 C   0  0  0  0  0  3  0  0  0  0  0  0
  161.6700  204.6080  146.3370 C   0  0  0  0  0  2  0  0  0  0  0  0
  162.6290  210.2840  149.8380 O   0  0  0  0  0  0  0  0  0  0  0  0
  160.3480  213.1980  149.4170 C   0  0  0  0  0  3  0  0  0  0  0  0
  160.7460  212.1910  147.3060 C   0  0  0  0  0  3  0  0  0  0  0  0
  161.7950  211.2640  149.2760 C   0  0  0  0  0  0  0  0  0  0  0  0
  160.1540  213.1460  148.0720 N   0  0  0  0  0  0  0  0  0  0  0  0
  161.1700  212.2590  150.0420 C   0  0  0  0  0  3  0  0  0  0  0  0
  161.5750  211.2340  147.8970 C   0  0  0  0  0  3  0  0  0  0  0  0
  161.1470  210.8420  155.0370 C   0  0  0  0  0  2  0  0  0  0  0  0
  159.7650  211.2840  155.1170 N   0  0  0  0  0  2  0  0  0  0  0  0
  159.7410  212.6870  154.7260 C   0  0  1  0  0  3  0  0  0  0  0  0
  159.2430  212.8080  153.2890 C   0  0  0  0  0  2  0  0  0  0  0  0
  158.5560  211.6550  152.9050 O   0  0  0  0  0  1  0  0  0  0  0  0
  159.7570  214.1950  156.7240 C   0  0  0  0  0  1  0  0  0  0  0  0
  158.8780  213.5050  155.6930 C   0  0  2  0  0  3  0  0  0  0  0  0
  157.9760  212.6690  156.3590 O   0  0  0  0  0  0  0  0  0  0  0  0
  155.6380  212.2370  156.5620 C   0  0  2  0  0  3  0  0  0  0  0  0
  155.9800  212.3070  155.0930 C   0  0  1  0  0  3  0  0  0  0  0  0
  156.7110  213.1980  156.0810 C   0  0  2  0  0  3  0  0  0  0  0  0
  155.6930  210.9650  155.7380 C   0  0  0  0  0  2  0  0  0  0  0  0
  1  4  2  0  0  0  0
  1  2  1  0  0  0  0
  2 10  1  0  0  0  0
  3 10  2  0  0  0  0
  4  3  1  0  0  0  0
  5 11  1  6  0  0  0
  5  9  1  0  0  0  0
  6  1  1  0  0  0  0
  8  6  2  0  0  0  0
  8  5  1  0  0  0  0
  9  4  1  0  0  0  0
  9  7  1  1  0  0  0
 10 27  1  0  0  0  0
 11 13  1  0  0  0  0
 12 13  2  0  0  0  0
 13 14  1  0  0  0  0
 14 15  1  0  0  0  0
 16 11  1  0  0  0  0
 17 19  1  0  0  0  0
 17 18  1  0  0  0  0
 18 16  1  0  0  0  0
 19 18  1  0  0  0  0
 20  6  1  0  0  0  0
 21 25  1  0  0  0  0
 22 26  2  0  0  0  0
 22 24  1  0  0  0  0
 23 20  1  0  0  0  0
 23 25  2  0  0  0  0
 24 21  2  0  0  0  0
 26 23  1  0  0  0  0
 27 28  1  0  0  0  0
 29 30  1  6  0  0  0
 29 28  1  0  0  0  0
 29 33  1  0  0  0  0
 31 30  1  0  0  0  0
 33 34  1  0  0  0  0
 33 32  1  1  0  0  0
 35 38  1  1  0  0  0
 36 38  1  1  0  0  0
 36 37  1  0  0  0  0
 36 35  1  0  0  0  0
 37 34  1  1  0  0  0
 37 35  1  0  0  0  0
M  END
>  <MODEL>
6

>  <REMARK>
 VINA RESULT:      -5.8      2.550      8.703
  Name = 
  13 active torsions:
  status: ('A' for Active; 'I' for Inactive)
    1  A    between atoms: O_2  and  C_27
    2  A    between atoms: O_7  and  C_18
    3  A    between atoms: O_7  and  C_20
    4  A    between atoms: C_9  and  N_16
    5  A    between atoms: C_11  and  CA_12
    6  A    between atoms: CA_12  and  N_28
    7  A    between atoms: CA_12  and  C_36
    8  A    between atoms: O_15  and  C_25
    9  A    between atoms: O_15  and  C_36
   10  A    between atoms: N_16  and  S_17
   11  A    between atoms: S_17  and  C_24
   12  A    between atoms: N_28  and  C_31
   13  A    between atoms: C_31  and  C_34
                            x       y       z     vdW  Elec       q    Type
                         _______ _______ _______ _____ _____    ______ ____

>  <TORSDO>
F 13

$$$$
=
 OpenBabel11072412163D

 38 43  0  0  1  0  0  0  0  0999 V2000
  161.6550  207.6060  151.5910 C   0  0  0  0  0  0  0  0  0  0  0  0
  161.5920  206.3270  151.9970 N   0  0  0  0  0  2  0  0  0  0  0  0
  161.3420  206.4480  149.7280 C   0  0  0  0  0  3  0  0  0  0  0  0
  161.5220  207.7150  150.2400 C   0  0  0  0  0  0  0  0  0  0  0  0
  162.0710  210.1370  150.4140 C   0  0  1  0  0  3  0  0  0  0  0  0
  161.7640  208.7920  152.4420 C   0  0  0  0  0  0  0  0  0  0  0  0
  161.9910  208.9950  148.2990 O   0  0  0  0  0  1  0  0  0  0  0  0
  161.8950  209.9560  151.8690 N   0  0  0  0  0  0  0  0  0  0  0  0
  161.3920  209.0410  149.5590 C   0  0  1  0  0  3  0  0  0  0  0  0
  161.4250  205.6320  150.8500 C   0  0  0  0  0  0  0  0  0  0  0  0
  161.6350  211.4710  150.0150 N   0  0  0  0  0  0  0  0  0  0  0  0
  160.2710  213.3370  150.3630 O   0  0  0  0  0  0  0  0  0  0  0  0
  160.6310  212.1920  150.7490 C   0  0  0  0  0  0  0  0  0  0  0  0
  160.0600  211.6230  151.8910 O   0  0  0  0  0  0  0  0  0  0  0  0
  158.9580  212.2200  152.5580 C   0  0  0  0  0  1  0  0  0  0  0  0
  162.4130  212.2070  148.6070 S   0  0  0  0  0  0  0  0  0  0  0  0
  161.1790  212.5770  146.2150 C   0  0  0  0  0  2  0  0  0  0  0  0
  160.8700  212.2010  147.6490 C   0  0  0  0  0  3  0  0  0  0  0  0
  160.5830  213.6030  147.1540 C   0  0  0  0  0  2  0  0  0  0  0  0
  161.6780  208.6550  153.8370 O   0  0  0  0  0  0  0  0  0  0  0  0
  159.2090  210.5240  155.9080 C   0  0  0  0  0  3  0  0  0  0  0  0
  161.3780  211.4190  156.2590 C   0  0  0  0  0  3  0  0  0  0  0  0
  161.0950  209.5660  154.7330 C   0  0  0  0  0  0  0  0  0  0  0  0
  160.0420  211.4150  156.5100 N   0  0  0  0  0  0  0  0  0  0  0  0
  159.7200  209.5860  155.0090 C   0  0  0  0  0  3  0  0  0  0  0  0
  161.9260  210.4950  155.3650 C   0  0  0  0  0  3  0  0  0  0  0  0
  161.2650  204.1530  150.8200 C   0  0  0  0  0  2  0  0  0  0  0  0
  160.4470  203.7690  149.6830 N   0  0  0  0  0  2  0  0  0  0  0  0
  161.2580  202.8920  148.8490 C   0  0  1  0  0  3  0  0  0  0  0  0
  160.8820  201.4390  149.1190 C   0  0  0  0  0  2  0  0  0  0  0  0
  159.5580  201.3430  149.5530 O   0  0  0  0  0  1  0  0  0  0  0  0
  160.8330  201.9960  146.5500 C   0  0  0  0  0  1  0  0  0  0  0  0
  161.0960  203.2510  147.3670 C   0  0  2  0  0  3  0  0  0  0  0  0
  162.2590  203.8630  146.8900 O   0  0  0  0  0  0  0  0  0  0  0  0
  160.8880  205.5220  145.8590 C   0  0  2  0  0  3  0  0  0  0  0  0
  162.3290  205.8260  145.5260 C   0  0  1  0  0  3  0  0  0  0  0  0
  161.9760  205.2330  146.8790 C   0  0  2  0  0  3  0  0  0  0  0  0
  161.4160  205.2460  144.4640 C   0  0  0  0  0  2  0  0  0  0  0  0
  1  2  1  0  0  0  0
  1  6  1  0  0  0  0
  3  4  1  0  0  0  0
  3 10  2  0  0  0  0
  4  1  2  0  0  0  0
  5 11  1  6  0  0  0
  5  8  1  0  0  0  0
  6 20  1  0  0  0  0
  8  6  2  0  0  0  0
  9  7  1  6  0  0  0
  9  4  1  0  0  0  0
  9  5  1  0  0  0  0
 10  2  1  0  0  0  0
 11 13  1  0  0  0  0
 12 13  2  0  0  0  0
 13 14  1  0  0  0  0
 14 15  1  0  0  0  0
 16 11  1  0  0  0  0
 17 19  1  0  0  0  0
 17 18  1  0  0  0  0
 18 16  1  0  0  0  0
 19 18  1  0  0  0  0
 20 23  1  0  0  0  0
 21 24  1  0  0  0  0
 22 24  2  0  0  0  0
 23 25  1  0  0  0  0
 23 26  2  0  0  0  0
 25 21  2  0  0  0  0
 26 22  1  0  0  0  0
 27 10  1  0  0  0  0
 28 27  1  0  0  0  0
 29 30  1  6  0  0  0
 29 28  1  0  0  0  0
 30 31  1  0  0  0  0
 33 32  1  6  0  0  0
 33 29  1  0  0  0  0
 34 33  1  0  0  0  0
 35 38  1  6  0  0  0
 35 37  1  0  0  0  0
 36 38  1  6  0  0  0
 36 35  1  0  0  0  0
 36 37  1  0  0  0  0
 37 34  1  6  0  0  0
M  END
>  <MODEL>
7

>  <REMARK>
 VINA RESULT:      -5.8      2.070      5.692
  Name = 
  13 active torsions:
  status: ('A' for Active; 'I' for Inactive)
    1  A    between atoms: O_2  and  C_27
    2  A    between atoms: O_7  and  C_18
    3  A    between atoms: O_7  and  C_20
    4  A    between atoms: C_9  and  N_16
    5  A    between atoms: C_11  and  CA_12
    6  A    between atoms: CA_12  and  N_28
    7  A    between atoms: CA_12  and  C_36
    8  A    between atoms: O_15  and  C_25
    9  A    between atoms: O_15  and  C_36
   10  A    between atoms: N_16  and  S_17
   11  A    between atoms: S_17  and  C_24
   12  A    between atoms: N_28  and  C_31
   13  A    between atoms: C_31  and  C_34
                            x       y       z     vdW  Elec       q    Type
                         _______ _______ _______ _____ _____    ______ ____

>  <TORSDO>
F 13

$$$$
=
 OpenBabel11072412163D

 38 43  0  0  1  0  0  0  0  0999 V2000
  161.8630  209.1890  150.6100 C   0  0  0  0  0  0  0  0  0  0  0  0
  161.9550  210.3400  151.2970 N   0  0  0  0  0  0  0  0  0  0  0  0
  160.8290  208.7750  152.5260 C   0  0  0  0  0  3  0  0  0  0  0  0
  161.2080  208.2280  151.3190 C   0  0  1  0  0  3  0  0  0  0  0  0
  161.8010  206.5710  149.5580 C   0  0  1  0  0  3  0  0  0  0  0  0
  162.3090  208.9490  149.2370 C   0  0  0  0  0  0  0  0  0  0  0  0
  160.8820  205.9060  151.6790 O   0  0  0  0  0  1  0  0  0  0  0  0
  162.2130  207.7400  148.7560 N   0  0  0  0  0  0  0  0  0  0  0  0
  160.8310  206.9120  150.7130 C   0  0  1  0  0  3  0  0  0  0  0  0
  161.3420  210.0660  152.4700 C   0  0  0  0  0  0  0  0  0  0  0  0
  161.2550  205.5310  148.6920 N   0  0  0  0  0  0  0  0  0  0  0  0
  160.6960  203.2900  148.3340 O   0  0  0  0  0  0  0  0  0  0  0  0
  161.1610  204.1620  149.1180 C   0  0  0  0  0  0  0  0  0  0  0  0
  161.5810  203.8010  150.4010 O   0  0  0  0  0  0  0  0  0  0  0  0
  161.1270  202.6150  151.0350 C   0  0  0  0  0  1  0  0  0  0  0  0
  160.6660  206.0130  147.0950 S   0  0  0  0  0  0  0  0  0  0  0  0
  161.9510  205.4770  144.7610 C   0  0  0  0  0  2  0  0  0  0  0  0
  162.1020  205.2820  146.2550 C   0  0  0  0  0  3  0  0  0  0  0  0
  161.6400  204.1330  145.3830 C   0  0  0  0  0  2  0  0  0  0  0  0
  162.7800  210.0210  148.4630 O   0  0  0  0  0  0  0  0  0  0  0  0
  161.9550  213.6490  148.2710 C   0  0  0  0  0  3  0  0  0  0  0  0
  160.1470  212.3780  147.4070 C   0  0  0  0  0  3  0  0  0  0  0  0
  162.1150  211.2350  148.2220 C   0  0  0  0  0  0  0  0  0  0  0  0
  160.7150  213.5730  147.7170 N   0  0  0  0  0  0  0  0  0  0  0  0
  162.6750  212.4820  148.5340 C   0  0  0  0  0  3  0  0  0  0  0  0
  160.8390  211.1890  147.6550 C   0  0  0  0  0  3  0  0  0  0  0  0
  161.1710  211.0790  153.5460 C   0  0  0  0  0  2  0  0  0  0  0  0
  161.7590  210.5890  154.7810 N   0  0  0  0  0  2  0  0  0  0  0  0
  160.6590  210.2060  155.6560 C   0  0  1  0  0  3  0  0  0  0  0  0
  161.2140  209.7330  156.9960 C   0  0  0  0  0  2  0  0  0  0  0  0
  162.0380  208.6190  156.8250 O   0  0  0  0  0  1  0  0  0  0  0  0
  160.0740  212.2170  157.0280 C   0  0  0  0  0  1  0  0  0  0  0  0
  159.6750  211.3690  155.8310 C   0  0  2  0  0  3  0  0  0  0  0  0
  158.3820  210.8780  156.0370 O   0  0  0  0  0  0  0  0  0  0  0  0
  156.6200  212.4420  155.6590 C   0  0  2  0  0  3  0  0  0  0  0  0
  156.1450  211.0780  155.2180 C   0  0  1  0  0  3  0  0  0  0  0  0
  157.6020  211.4650  155.0360 C   0  0  2  0  0  3  0  0  0  0  0  0
  155.6180  211.6810  156.5060 C   0  0  0  0  0  2  0  0  0  0  0  0
  1  2  2  0  0  0  0
  1  4  1  0  0  0  0
  2 10  1  0  0  0  0
  4  3  1  6  0  0  0
  5 11  1  6  0  0  0
  5  9  1  0  0  0  0
  6  1  1  0  0  0  0
  8  6  2  0  0  0  0
  8  5  1  0  0  0  0
  9  4  1  0  0  0  0
  9  7  1  1  0  0  0
 10  3  2  0  0  0  0
 10 27  1  0  0  0  0
 11 13  1  0  0  0  0
 12 13  2  0  0  0  0
 13 14  1  0  0  0  0
 14 15  1  0  0  0  0
 16 11  1  0  0  0  0
 17 19  1  0  0  0  0
 17 18  1  0  0  0  0
 18 16  1  0  0  0  0
 19 18  1  0  0  0  0
 20  6  1  0  0  0  0
 21 25  1  0  0  0  0
 22 26  2  0  0  0  0
 22 24  1  0  0  0  0
 23 20  1  0  0  0  0
 23 25  2  0  0  0  0
 24 21  2  0  0  0  0
 26 23  1  0  0  0  0
 27 28  1  0  0  0  0
 28 29  1  0  0  0  0
 29 33  1  0  0  0  0
 29 30  1  1  0  0  0
 31 30  1  0  0  0  0
 33 34  1  0  0  0  0
 33 32  1  1  0  0  0
 35 38  1  1  0  0  0
 36 35  1  0  0  0  0
 36 38  1  1  0  0  0
 37 36  1  0  0  0  0
 37 35  1  0  0  0  0
 37 34  1  1  0  0  0
M  END
>  <MODEL>
8

>  <REMARK>
 VINA RESULT:      -5.7      2.488      8.632
  Name = 
  13 active torsions:
  status: ('A' for Active; 'I' for Inactive)
    1  A    between atoms: O_2  and  C_27
    2  A    between atoms: O_7  and  C_18
    3  A    between atoms: O_7  and  C_20
    4  A    between atoms: C_9  and  N_16
    5  A    between atoms: C_11  and  CA_12
    6  A    between atoms: CA_12  and  N_28
    7  A    between atoms: CA_12  and  C_36
    8  A    between atoms: O_15  and  C_25
    9  A    between atoms: O_15  and  C_36
   10  A    between atoms: N_16  and  S_17
   11  A    between atoms: S_17  and  C_24
   12  A    between atoms: N_28  and  C_31
   13  A    between atoms: C_31  and  C_34
                            x       y       z     vdW  Elec       q    Type
                         _______ _______ _______ _____ _____    ______ ____

>  <TORSDO>
F 13

$$$$
=
 OpenBabel11072412163D

 38 43  0  0  1  0  0  0  0  0999 V2000
  161.5700  209.5670  151.6180 C   0  0  0  0  0  0  0  0  0  0  0  0
  161.5310  210.6920  152.3500 N   0  0  0  0  0  2  0  0  0  0  0  0
  160.5090  208.9820  153.4730 C   0  0  0  0  0  3  0  0  0  0  0  0
  160.9810  208.5220  152.2620 C   0  0  0  0  0  0  0  0  0  0  0  0
  161.7880  207.0000  150.4660 C   0  0  1  0  0  3  0  0  0  0  0  0
  162.0870  209.4250  150.2560 C   0  0  0  0  0  0  0  0  0  0  0  0
  160.8570  206.1680  152.5220 O   0  0  0  0  0  1  0  0  0  0  0  0
  162.1190  208.2330  149.7260 N   0  0  0  0  0  0  0  0  0  0  0  0
  160.7490  207.2040  151.5930 C   0  0  1  0  0  3  0  0  0  0  0  0
  160.9030  210.3160  153.4870 C   0  0  0  0  0  0  0  0  0  0  0  0
  161.3710  205.9520  149.5400 N   0  0  0  0  0  0  0  0  0  0  0  0
  161.0060  203.6880  149.0860 O   0  0  0  0  0  0  0  0  0  0  0  0
  161.3580  204.5660  149.9200 C   0  0  0  0  0  0  0  0  0  0  0  0
  161.7320  204.1950  151.2140 O   0  0  0  0  0  0  0  0  0  0  0  0
  161.2300  203.0210  151.8350 C   0  0  0  0  0  1  0  0  0  0  0  0
  160.8370  206.4410  147.9260 S   0  0  0  0  0  0  0  0  0  0  0  0
  162.1740  205.8610  145.6320 C   0  0  0  0  0  2  0  0  0  0  0  0
  162.3150  205.7380  147.1350 C   0  0  0  0  0  3  0  0  0  0  0  0
  161.9140  204.5330  146.3100 C   0  0  0  0  0  2  0  0  0  0  0  0
  162.4850  210.5670  149.5420 O   0  0  0  0  0  0  0  0  0  0  0  0
  160.4060  212.1610  146.8940 C   0  0  0  0  0  3  0  0  0  0  0  0
  160.3880  213.5180  148.8400 C   0  0  0  0  0  3  0  0  0  0  0  0
  161.6470  211.4550  148.8470 C   0  0  0  0  0  0  0  0  0  0  0  0
  160.0020  213.2760  147.5590 N   0  0  0  0  0  0  0  0  0  0  0  0
  161.2350  211.2320  147.5250 C   0  0  0  0  0  3  0  0  0  0  0  0
  161.2180  212.6110  149.5040 C   0  0  0  0  0  3  0  0  0  0  0  0
  160.6010  211.2640  154.5920 C   0  0  0  0  0  2  0  0  0  0  0  0
  159.4380  210.8040  155.3320 N   0  0  0  0  0  2  0  0  0  0  0  0
  159.1770  211.7860  156.3750 C   0  0  1  0  0  3  0  0  0  0  0  0
  160.4180  212.6500  156.5840 C   0  0  0  0  0  2  0  0  0  0  0  0
  160.0630  213.9860  156.7780 O   0  0  0  0  0  1  0  0  0  0  0  0
  156.7740  212.2450  156.9050 C   0  0  0  0  0  1  0  0  0  0  0  0
  157.9500  212.6360  156.0250 C   0  0  2  0  0  3  0  0  0  0  0  0
  157.5950  212.4430  154.6870 O   0  0  0  0  0  0  0  0  0  0  0  0
  157.2050  213.6450  152.6640 C   0  0  2  0  0  3  0  0  0  0  0  0
  158.5420  214.0750  153.2180 C   0  0  1  0  0  3  0  0  0  0  0  0
  157.4080  213.7270  154.1670 C   0  0  2  0  0  3  0  0  0  0  0  0
  158.4840  213.1660  152.0050 C   0  0  0  0  0  2  0  0  0  0  0  0
  1  4  2  0  0  0  0
  1  2  1  0  0  0  0
  2 10  1  0  0  0  0
  3 10  2  0  0  0  0
  4  3  1  0  0  0  0
  5 11  1  6  0  0  0
  5  9  1  0  0  0  0
  6  1  1  0  0  0  0
  8  6  2  0  0  0  0
  8  5  1  0  0  0  0
  9  4  1  0  0  0  0
  9  7  1  1  0  0  0
 10 27  1  0  0  0  0
 11 13  1  0  0  0  0
 12 13  2  0  0  0  0
 13 14  1  0  0  0  0
 14 15  1  0  0  0  0
 16 11  1  0  0  0  0
 17 19  1  0  0  0  0
 17 18  1  0  0  0  0
 18 16  1  0  0  0  0
 19 18  1  0  0  0  0
 20  6  1  0  0  0  0
 21 25  2  0  0  0  0
 21 24  1  0  0  0  0
 22 26  1  0  0  0  0
 23 26  2  0  0  0  0
 23 20  1  0  0  0  0
 24 22  2  0  0  0  0
 25 23  1  0  0  0  0
 27 28  1  0  0  0  0
 28 29  1  0  0  0  0
 29 30  1  6  0  0  0
 30 31  1  0  0  0  0
 33 29  1  0  0  0  0
 33 32  1  1  0  0  0
 34 33  1  0  0  0  0
 35 38  1  1  0  0  0
 35 36  1  0  0  0  0
 35 37  1  0  0  0  0
 36 38  1  1  0  0  0
 36 37  1  0  0  0  0
 37 34  1  1  0  0  0
M  END
>  <MODEL>
9

>  <REMARK>
 VINA RESULT:      -5.5      2.358      8.812
  Name = 
  13 active torsions:
  status: ('A' for Active; 'I' for Inactive)
    1  A    between atoms: O_2  and  C_27
    2  A    between atoms: O_7  and  C_18
    3  A    between atoms: O_7  and  C_20
    4  A    between atoms: C_9  and  N_16
    5  A    between atoms: C_11  and  CA_12
    6  A    between atoms: CA_12  and  N_28
    7  A    between atoms: CA_12  and  C_36
    8  A    between atoms: O_15  and  C_25
    9  A    between atoms: O_15  and  C_36
   10  A    between atoms: N_16  and  S_17
   11  A    between atoms: S_17  and  C_24
   12  A    between atoms: N_28  and  C_31
   13  A    between atoms: C_31  and  C_34
                            x       y       z     vdW  Elec       q    Type
                         _______ _______ _______ _____ _____    ______ ____

>  <TORSDO>
F 13

$$$$
