=
 OpenBabel11072412373D

 31 32  0  0  1  0  0  0  0  0999 V2000
  162.0270  208.2040  152.2920 C   0  0  2  0  0  3  0  0  0  0  0  0
  160.5350  207.7430  154.6670 C   0  0  0  0  0  0  0  0  0  0  0  0
  161.4920  206.8180  154.2290 O   0  0  0  0  0  0  0  0  0  0  0  0
  159.9310  207.5460  155.7530 O   0  0  0  0  0  0  0  0  0  0  0  0
  161.9800  206.7880  152.8860 C   0  0  1  0  0  3  0  0  0  0  0  0
  160.6630  208.8690  152.4410 C   0  0  0  0  0  2  0  0  0  0  0  0
  160.3000  209.0180  153.9150 C   0  0  0  0  0  2  0  0  0  0  0  0
  162.3980  208.1670  150.9200 O   0  0  0  0  0  0  0  0  0  0  0  0
  162.0150  210.4050  150.4910 O   0  0  0  0  0  0  0  0  0  0  0  0
  162.0410  208.9960  148.6450 N   0  0  0  0  0  2  0  0  0  0  0  0
  162.1480  209.2320  150.0480 C   0  0  0  0  0  0  0  0  0  0  0  0
  162.2810  207.6830  148.0640 C   0  0  0  0  0  2  0  0  0  0  0  0
  161.0490  206.8100  148.2390 C   0  0  0  0  0  2  0  0  0  0  0  0
  160.5400  206.3310  146.8880 C   0  0  0  0  0  2  0  0  0  0  0  0
  161.6880  205.9630  145.9580 C   0  0  2  0  0  3  0  0  0  0  0  0
  160.3420  204.3080  144.6370 O   0  0  0  0  0  1  0  0  0  0  0  0
  161.1730  205.4220  144.6600 C   0  0  0  0  0  0  0  0  0  0  0  0
  161.5160  205.9670  143.5780 O   0  0  0  0  0  0  0  0  0  0  0  0
  162.5850  204.9440  146.6440 C   0  0  0  0  0  2  0  0  0  0  0  0
  163.6250  204.4140  145.6740 C   0  0  0  0  0  1  0  0  0  0  0  0
  161.1090  205.8630  152.0410 C   0  0  0  0  0  2  0  0  0  0  0  0
  161.8330  204.5580  151.7580 C   0  0  0  0  0  2  0  0  0  0  0  0
  160.8470  203.3980  151.7550 C   0  0  0  0  0  2  0  0  0  0  0  0
  160.8770  202.6820  150.4450 C   0  0  0  0  0  0  0  0  0  0  0  0
  160.7850  203.4000  149.2470 C   0  0  0  0  0  3  0  0  0  0  0  0
  161.0480  201.2950  150.4130 C   0  0  0  0  0  3  0  0  0  0  0  0
  160.8590  202.7310  148.0210 C   0  0  0  0  0  3  0  0  0  0  0  0
  161.0280  201.3440  147.9810 C   0  0  0  0  0  0  0  0  0  0  0  0
  161.1210  200.6270  149.1870 C   0  0  0  0  0  3  0  0  0  0  0  0
  160.4290  201.1910  145.5860 C   0  0  0  0  0  1  0  0  0  0  0  0
  161.1000  200.7060  146.7410 O   0  0  0  0  0  0  0  0  0  0  0  0
  1  8  1  6  0  0  0
  1  6  1  0  0  0  0
  1  5  1  0  0  0  0
  2  4  2  0  0  0  0
  3  2  1  0  0  0  0
  5 21  1  6  0  0  0
  5  3  1  0  0  0  0
  6  7  1  0  0  0  0
  7  2  1  0  0  0  0
 10 11  1  0  0  0  0
 11  9  2  0  0  0  0
 11  8  1  0  0  0  0
 12 13  1  0  0  0  0
 12 10  1  0  0  0  0
 14 13  1  0  0  0  0
 15 19  1  1  0  0  0
 15 14  1  0  0  0  0
 16 17  1  0  0  0  0
 17 15  1  0  0  0  0
 18 17  2  0  0  0  0
 20 19  1  0  0  0  0
 22 21  1  0  0  0  0
 23 22  1  0  0  0  0
 24 23  1  0  0  0  0
 25 24  2  0  0  0  0
 26 24  1  0  0  0  0
 27 25  1  0  0  0  0
 28 27  2  0  0  0  0
 28 29  1  0  0  0  0
 29 26  2  0  0  0  0
 30 31  1  0  0  0  0
 31 28  1  0  0  0  0
M  END
>  <MODEL>
1

>  <REMARK>
 VINA RESULT:      -8.2      0.000      0.000
  Name = 
  13 active torsions:
  status: ('A' for Active; 'I' for Inactive)
    1  A    between atoms: C_1  and  O_10
    2  A    between atoms: C_2  and  C_26
    3  A    between atoms: C_2  and  C_31
    4  A    between atoms: C_6  and  C_29
    5  A    between atoms: C_7  and  C_22
    6  A    between atoms: C_7  and  C_25
    7  A    between atoms: C_8  and  C_22
    8  A    between atoms: O_10  and  C_19
    9  A    between atoms: C_11  and  C_29
   10  A    between atoms: O_14  and  C_24
   11  A    between atoms: N_17  and  C_31
   12  A    between atoms: C_20  and  C_25
   13  A    between atoms: C_26  and  C_29
                            x       y       z     vdW  Elec       q    Type
                         _______ _______ _______ _____ _____    ______ ____

>  <TORSDO>
F 13

$$$$
=
 OpenBabel11072412373D

 31 32  0  0  1  0  0  0  0  0999 V2000
  161.2940  210.5390  152.0190 C   0  0  2  0  0  3  0  0  0  0  0  0
  160.9940  211.1130  154.7870 C   0  0  0  0  0  0  0  0  0  0  0  0
  161.9420  210.1800  154.3460 O   0  0  0  0  0  0  0  0  0  0  0  0
  160.9220  211.3950  156.0110 O   0  0  0  0  0  0  0  0  0  0  0  0
  161.8810  209.5680  153.0550 C   0  0  1  0  0  3  0  0  0  0  0  0
  159.9540  211.0720  152.5160 C   0  0  0  0  0  2  0  0  0  0  0  0
  160.1400  211.8600  153.8080 C   0  0  0  0  0  2  0  0  0  0  0  0
  161.1220  209.8970  150.7620 O   0  0  0  0  0  0  0  0  0  0  0  0
  162.2540  211.4470  149.4750 O   0  0  0  0  0  0  0  0  0  0  0  0
  162.1630  209.2850  148.6330 N   0  0  0  0  0  2  0  0  0  0  0  0
  161.8570  210.2610  149.6290 C   0  0  0  0  0  0  0  0  0  0  0  0
  161.8170  207.8810  148.7980 C   0  0  0  0  0  2  0  0  0  0  0  0
  162.5710  207.0420  147.7800 C   0  0  0  0  0  2  0  0  0  0  0  0
  161.6190  206.1060  147.0520 C   0  0  0  0  0  2  0  0  0  0  0  0
  162.1580  205.7180  145.6810 C   0  0  2  0  0  3  0  0  0  0  0  0
  161.3790  205.5700  143.3000 O   0  0  0  0  0  0  0  0  0  0  0  0
  161.0880  205.8150  144.6380 C   0  0  0  0  0  0  0  0  0  0  0  0
  159.9200  206.1440  144.9720 O   0  0  0  0  0  1  0  0  0  0  0  0
  162.7200  204.3070  145.7420 C   0  0  0  0  0  2  0  0  0  0  0  0
  161.6020  203.2980  145.9280 C   0  0  0  0  0  1  0  0  0  0  0  0
  161.0650  208.2810  153.1310 C   0  0  0  0  0  2  0  0  0  0  0  0
  161.7550  207.1640  152.3670 C   0  0  0  0  0  2  0  0  0  0  0  0
  161.4720  205.8220  153.0270 C   0  0  0  0  0  2  0  0  0  0  0  0
  161.1460  204.7870  152.0010 C   0  0  0  0  0  0  0  0  0  0  0  0
  160.9630  205.1550  150.6620 C   0  0  0  0  0  3  0  0  0  0  0  0
  161.0730  203.4410  152.3680 C   0  0  0  0  0  3  0  0  0  0  0  0
  160.7030  204.1770  149.6960 C   0  0  0  0  0  3  0  0  0  0  0  0
  160.6260  202.8290  150.0570 C   0  0  0  0  0  0  0  0  0  0  0  0
  160.8120  202.4640  151.4020 C   0  0  0  0  0  3  0  0  0  0  0  0
  161.3260  200.9100  148.6620 C   0  0  0  0  0  1  0  0  0  0  0  0
  160.3670  201.8770  149.0680 O   0  0  0  0  0  0  0  0  0  0  0  0
  1  8  1  6  0  0  0
  1  6  1  0  0  0  0
  1  5  1  0  0  0  0
  2  4  2  0  0  0  0
  3  2  1  0  0  0  0
  5 21  1  1  0  0  0
  5  3  1  0  0  0  0
  6  7  1  0  0  0  0
  7  2  1  0  0  0  0
  9 11  2  0  0  0  0
 10 12  1  0  0  0  0
 10 11  1  0  0  0  0
 11  8  1  0  0  0  0
 13 12  1  0  0  0  0
 14 13  1  0  0  0  0
 15 19  1  1  0  0  0
 15 14  1  0  0  0  0
 16 17  2  0  0  0  0
 17 18  1  0  0  0  0
 17 15  1  0  0  0  0
 19 20  1  0  0  0  0
 22 23  1  0  0  0  0
 22 21  1  0  0  0  0
 24 26  1  0  0  0  0
 24 23  1  0  0  0  0
 25 24  2  0  0  0  0
 27 28  2  0  0  0  0
 27 25  1  0  0  0  0
 28 29  1  0  0  0  0
 29 26  2  0  0  0  0
 30 31  1  0  0  0  0
 31 28  1  0  0  0  0
M  END
>  <MODEL>
2

>  <REMARK>
 VINA RESULT:      -8.0      1.652      2.379
  Name = 
  13 active torsions:
  status: ('A' for Active; 'I' for Inactive)
    1  A    between atoms: C_1  and  O_10
    2  A    between atoms: C_2  and  C_26
    3  A    between atoms: C_2  and  C_31
    4  A    between atoms: C_6  and  C_29
    5  A    between atoms: C_7  and  C_22
    6  A    between atoms: C_7  and  C_25
    7  A    between atoms: C_8  and  C_22
    8  A    between atoms: O_10  and  C_19
    9  A    between atoms: C_11  and  C_29
   10  A    between atoms: O_14  and  C_24
   11  A    between atoms: N_17  and  C_31
   12  A    between atoms: C_20  and  C_25
   13  A    between atoms: C_26  and  C_29
                            x       y       z     vdW  Elec       q    Type
                         _______ _______ _______ _____ _____    ______ ____

>  <TORSDO>
F 13

$$$$
=
 OpenBabel11072412373D

 31 32  0  0  1  0  0  0  0  0999 V2000
  161.2550  205.5640  149.8760 C   0  0  2  0  0  3  0  0  0  0  0  0
  162.0570  208.1220  148.9300 C   0  0  0  0  0  0  0  0  0  0  0  0
  162.4620  207.6630  150.1900 O   0  0  0  0  0  0  0  0  0  0  0  0
  162.4750  209.2310  148.5080 O   0  0  0  0  0  0  0  0  0  0  0  0
  161.7980  206.5970  150.8740 C   0  0  1  0  0  3  0  0  0  0  0  0
  160.3900  206.2640  148.8320 C   0  0  0  0  0  2  0  0  0  0  0  0
  161.2210  207.2600  148.0320 C   0  0  0  0  0  2  0  0  0  0  0  0
  160.4930  204.5650  150.5420 O   0  0  0  0  0  0  0  0  0  0  0  0
  161.7570  203.4800  152.1430 O   0  0  0  0  0  0  0  0  0  0  0  0
  160.9060  202.1560  150.4360 N   0  0  0  0  0  2  0  0  0  0  0  0
  161.0770  203.4160  151.0840 C   0  0  0  0  0  0  0  0  0  0  0  0
  160.0550  202.0000  149.2660 C   0  0  0  0  0  2  0  0  0  0  0  0
  160.9120  201.7970  148.0280 C   0  0  0  0  0  2  0  0  0  0  0  0
  161.2420  203.1340  147.3830 C   0  0  0  0  0  2  0  0  0  0  0  0
  161.4700  202.9890  145.8840 C   0  0  2  0  0  3  0  0  0  0  0  0
  163.2080  204.7970  145.8270 O   0  0  0  0  0  1  0  0  0  0  0  0
  162.0430  204.2450  145.3050 C   0  0  0  0  0  0  0  0  0  0  0  0
  161.4530  204.8200  144.3540 O   0  0  0  0  0  0  0  0  0  0  0  0
  160.1530  202.6410  145.2070 C   0  0  0  0  0  2  0  0  0  0  0  0
  160.0750  201.1510  144.9310 C   0  0  0  0  0  1  0  0  0  0  0  0
  160.6820  207.1610  151.7500 C   0  0  0  0  0  2  0  0  0  0  0  0
  161.2300  207.6050  153.0950 C   0  0  0  0  0  2  0  0  0  0  0  0
  161.5660  209.0880  153.0640 C   0  0  0  0  0  2  0  0  0  0  0  0
  160.4210  209.9000  153.5740 C   0  0  0  0  0  0  0  0  0  0  0  0
  160.0850  209.8690  154.9330 C   0  0  0  0  0  3  0  0  0  0  0  0
  159.7150  210.7340  152.7020 C   0  0  0  0  0  3  0  0  0  0  0  0
  159.0410  210.6650  155.4150 C   0  0  0  0  0  3  0  0  0  0  0  0
  158.3290  211.4990  154.5480 C   0  0  0  0  0  0  0  0  0  0  0  0
  158.6710  211.5300  153.1850 C   0  0  0  0  0  3  0  0  0  0  0  0
  155.9210  211.9670  154.8710 C   0  0  0  0  0  1  0  0  0  0  0  0
  157.2940  212.2840  155.0620 O   0  0  0  0  0  0  0  0  0  0  0  0
  1  8  1  1  0  0  0
  1  5  1  0  0  0  0
  2  3  1  0  0  0  0
  3  5  1  0  0  0  0
  4  2  2  0  0  0  0
  5 21  1  6  0  0  0
  6  1  1  0  0  0  0
  7  6  1  0  0  0  0
  7  2  1  0  0  0  0
  8 11  1  0  0  0  0
 10 11  1  0  0  0  0
 11  9  2  0  0  0  0
 12 10  1  0  0  0  0
 13 12  1  0  0  0  0
 14 13  1  0  0  0  0
 15 19  1  6  0  0  0
 15 14  1  0  0  0  0
 17 16  1  0  0  0  0
 17 15  1  0  0  0  0
 18 17  2  0  0  0  0
 20 19  1  0  0  0  0
 21 22  1  0  0  0  0
 23 22  1  0  0  0  0
 23 24  1  0  0  0  0
 24 25  1  0  0  0  0
 25 27  2  0  0  0  0
 26 29  1  0  0  0  0
 26 24  2  0  0  0  0
 28 31  1  0  0  0  0
 28 27  1  0  0  0  0
 29 28  2  0  0  0  0
 30 31  1  0  0  0  0
M  END
>  <MODEL>
3

>  <REMARK>
 VINA RESULT:      -7.6      2.666      7.224
  Name = 
  13 active torsions:
  status: ('A' for Active; 'I' for Inactive)
    1  A    between atoms: C_1  and  O_10
    2  A    between atoms: C_2  and  C_26
    3  A    between atoms: C_2  and  C_31
    4  A    between atoms: C_6  and  C_29
    5  A    between atoms: C_7  and  C_22
    6  A    between atoms: C_7  and  C_25
    7  A    between atoms: C_8  and  C_22
    8  A    between atoms: O_10  and  C_19
    9  A    between atoms: C_11  and  C_29
   10  A    between atoms: O_14  and  C_24
   11  A    between atoms: N_17  and  C_31
   12  A    between atoms: C_20  and  C_25
   13  A    between atoms: C_26  and  C_29
                            x       y       z     vdW  Elec       q    Type
                         _______ _______ _______ _____ _____    ______ ____

>  <TORSDO>
F 13

$$$$
=
 OpenBabel11072412373D

 31 32  0  0  1  0  0  0  0  0999 V2000
  161.0110  208.5680  153.3730 C   0  0  2  0  0  3  0  0  0  0  0  0
  161.4760  208.5450  150.5680 C   0  0  0  0  0  0  0  0  0  0  0  0
  160.8090  207.4830  151.1950 O   0  0  0  0  0  0  0  0  0  0  0  0
  161.6150  208.5400  149.3180 O   0  0  0  0  0  0  0  0  0  0  0  0
  160.8870  207.2450  152.6020 C   0  0  1  0  0  3  0  0  0  0  0  0
  162.1760  209.3800  152.8160 C   0  0  0  0  0  2  0  0  0  0  0  0
  161.9270  209.7380  151.3560 C   0  0  0  0  0  2  0  0  0  0  0  0
  161.2080  208.3310  154.7610 O   0  0  0  0  0  0  0  0  0  0  0  0
  159.3910  207.4030  155.8460 O   0  0  0  0  0  0  0  0  0  0  0  0
  159.9540  209.5710  156.4580 N   0  0  0  0  0  2  0  0  0  0  0  0
  160.1600  208.3890  155.6860 C   0  0  0  0  0  0  0  0  0  0  0  0
  160.8640  210.7050  156.3900 C   0  0  0  0  0  2  0  0  0  0  0  0
  160.0820  211.9760  156.1030 C   0  0  0  0  0  2  0  0  0  0  0  0
  158.5980  211.6710  155.9720 C   0  0  0  0  0  2  0  0  0  0  0  0
  158.0360  212.1910  154.6550 C   0  0  2  0  0  3  0  0  0  0  0  0
  155.7760  213.2810  154.6410 O   0  0  0  0  0  0  0  0  0  0  0  0
  156.5410  212.1200  154.6450 C   0  0  0  0  0  0  0  0  0  0  0  0
  155.9700  210.9980  154.6660 O   0  0  0  0  0  1  0  0  0  0  0  0
  158.6180  211.3830  153.5050 C   0  0  0  0  0  2  0  0  0  0  0  0
  158.6940  212.2280  152.2470 C   0  0  0  0  0  1  0  0  0  0  0  0
  162.0610  206.3170  152.9050 C   0  0  0  0  0  2  0  0  0  0  0  0
  162.2450  205.3050  151.7870 C   0  0  0  0  0  2  0  0  0  0  0  0
  161.2080  204.1980  151.9030 C   0  0  0  0  0  2  0  0  0  0  0  0
  161.0750  203.4620  150.6100 C   0  0  0  0  0  0  0  0  0  0  0  0
  161.1860  204.1470  149.3940 C   0  0  0  0  0  3  0  0  0  0  0  0
  160.8890  202.0770  150.6130 C   0  0  0  0  0  3  0  0  0  0  0  0
  161.1060  203.4480  148.1850 C   0  0  0  0  0  3  0  0  0  0  0  0
  160.9180  202.0620  148.1800 C   0  0  0  0  0  0  0  0  0  0  0  0
  160.8090  201.3780  149.4040 C   0  0  0  0  0  3  0  0  0  0  0  0
  160.7720  202.0740  145.7110 C   0  0  0  0  0  1  0  0  0  0  0  0
  160.8450  201.3930  146.9570 O   0  0  0  0  0  0  0  0  0  0  0  0
  1  8  1  1  0  0  0
  2  3  1  0  0  0  0
  2  7  1  0  0  0  0
  3  5  1  0  0  0  0
  4  2  2  0  0  0  0
  5 21  1  6  0  0  0
  5  1  1  0  0  0  0
  6  1  1  0  0  0  0
  7  6  1  0  0  0  0
  8 11  1  0  0  0  0
 11  9  2  0  0  0  0
 11 10  1  0  0  0  0
 12 10  1  0  0  0  0
 13 12  1  0  0  0  0
 14 13  1  0  0  0  0
 15 19  1  6  0  0  0
 15 14  1  0  0  0  0
 16 17  2  0  0  0  0
 17 15  1  0  0  0  0
 17 18  1  0  0  0  0
 20 19  1  0  0  0  0
 22 23  1  0  0  0  0
 22 21  1  0  0  0  0
 24 26  1  0  0  0  0
 24 23  1  0  0  0  0
 25 24  2  0  0  0  0
 27 25  1  0  0  0  0
 28 27  2  0  0  0  0
 28 29  1  0  0  0  0
 29 26  2  0  0  0  0
 30 31  1  0  0  0  0
 31 28  1  0  0  0  0
M  END
>  <MODEL>
4

>  <REMARK>
 VINA RESULT:      -7.5      2.960      6.848
  Name = 
  13 active torsions:
  status: ('A' for Active; 'I' for Inactive)
    1  A    between atoms: C_1  and  O_10
    2  A    between atoms: C_2  and  C_26
    3  A    between atoms: C_2  and  C_31
    4  A    between atoms: C_6  and  C_29
    5  A    between atoms: C_7  and  C_22
    6  A    between atoms: C_7  and  C_25
    7  A    between atoms: C_8  and  C_22
    8  A    between atoms: O_10  and  C_19
    9  A    between atoms: C_11  and  C_29
   10  A    between atoms: O_14  and  C_24
   11  A    between atoms: N_17  and  C_31
   12  A    between atoms: C_20  and  C_25
   13  A    between atoms: C_26  and  C_29
                            x       y       z     vdW  Elec       q    Type
                         _______ _______ _______ _____ _____    ______ ____

>  <TORSDO>
F 13

$$$$
=
 OpenBabel11072412373D

 31 32  0  0  1  0  0  0  0  0999 V2000
  160.7590  209.0990  151.9940 C   0  0  2  0  0  3  0  0  0  0  0  0
  161.9650  208.3800  149.5210 C   0  0  0  0  0  0  0  0  0  0  0  0
  161.1050  207.4950  150.1850 O   0  0  0  0  0  0  0  0  0  0  0  0
  162.4370  208.0640  148.3990 O   0  0  0  0  0  0  0  0  0  0  0  0
  160.7870  207.6220  151.5740 C   0  0  1  0  0  3  0  0  0  0  0  0
  162.0680  209.7720  151.5930 C   0  0  0  0  0  2  0  0  0  0  0  0
  162.2410  209.7440  150.0790 C   0  0  0  0  0  2  0  0  0  0  0  0
  160.5610  209.2250  153.3960 O   0  0  0  0  0  0  0  0  0  0  0  0
  162.0100  210.1950  154.9110 O   0  0  0  0  0  0  0  0  0  0  0  0
  160.4130  211.5980  153.9760 N   0  0  0  0  0  2  0  0  0  0  0  0
  161.0350  210.3220  154.1230 C   0  0  0  0  0  0  0  0  0  0  0  0
  159.3480  211.8300  153.0120 C   0  0  0  0  0  2  0  0  0  0  0  0
  159.8510  212.7300  151.8960 C   0  0  0  0  0  2  0  0  0  0  0  0
  158.7450  213.6590  151.4210 C   0  0  0  0  0  2  0  0  0  0  0  0
  158.9480  214.0720  149.9690 C   0  0  2  0  0  3  0  0  0  0  0  0
  157.4650  214.4530  147.9820 O   0  0  0  0  0  0  0  0  0  0  0  0
  157.7410  213.7440  149.1450 C   0  0  0  0  0  0  0  0  0  0  0  0
  156.9570  212.8350  149.5230 O   0  0  0  0  0  1  0  0  0  0  0  0
  160.1800  213.3740  149.4150 C   0  0  0  0  0  2  0  0  0  0  0  0
  161.1900  214.3920  148.9190 C   0  0  0  0  0  1  0  0  0  0  0  0
  161.7900  206.8290  152.4070 C   0  0  0  0  0  2  0  0  0  0  0  0
  162.1630  205.5340  151.7070 C   0  0  0  0  0  2  0  0  0  0  0  0
  160.9670  204.5940  151.6660 C   0  0  0  0  0  2  0  0  0  0  0  0
  161.0210  203.7220  150.4550 C   0  0  0  0  0  0  0  0  0  0  0  0
  160.8030  202.3430  150.5680 C   0  0  0  0  0  3  0  0  0  0  0  0
  161.2400  204.2900  149.1970 C   0  0  0  0  0  3  0  0  0  0  0  0
  160.8100  201.5360  149.4260 C   0  0  0  0  0  3  0  0  0  0  0  0
  161.0310  202.0980  148.1640 C   0  0  0  0  0  0  0  0  0  0  0  0
  161.2470  203.4820  148.0550 C   0  0  0  0  0  3  0  0  0  0  0  0
  160.5560  201.6890  145.7710 C   0  0  0  0  0  1  0  0  0  0  0  0
  161.0280  201.2650  147.0430 O   0  0  0  0  0  0  0  0  0  0  0  0
  1  8  1  1  0  0  0
  2  7  1  0  0  0  0
  2  3  1  0  0  0  0
  3  5  1  0  0  0  0
  4  2  2  0  0  0  0
  5  1  1  0  0  0  0
  5 21  1  1  0  0  0
  6  1  1  0  0  0  0
  7  6  1  0  0  0  0
  8 11  1  0  0  0  0
 10 11  1  0  0  0  0
 11  9  2  0  0  0  0
 12 10  1  0  0  0  0
 13 12  1  0  0  0  0
 14 13  1  0  0  0  0
 15 19  1  6  0  0  0
 15 14  1  0  0  0  0
 16 17  2  0  0  0  0
 17 18  1  0  0  0  0
 17 15  1  0  0  0  0
 20 19  1  0  0  0  0
 22 21  1  0  0  0  0
 23 22  1  0  0  0  0
 24 25  1  0  0  0  0
 24 23  1  0  0  0  0
 26 24  2  0  0  0  0
 27 25  2  0  0  0  0
 28 27  1  0  0  0  0
 29 28  2  0  0  0  0
 29 26  1  0  0  0  0
 30 31  1  0  0  0  0
 31 28  1  0  0  0  0
M  END
>  <MODEL>
5

>  <REMARK>
 VINA RESULT:      -7.4      3.291      5.818
  Name = 
  13 active torsions:
  status: ('A' for Active; 'I' for Inactive)
    1  A    between atoms: C_1  and  O_10
    2  A    between atoms: C_2  and  C_26
    3  A    between atoms: C_2  and  C_31
    4  A    between atoms: C_6  and  C_29
    5  A    between atoms: C_7  and  C_22
    6  A    between atoms: C_7  and  C_25
    7  A    between atoms: C_8  and  C_22
    8  A    between atoms: O_10  and  C_19
    9  A    between atoms: C_11  and  C_29
   10  A    between atoms: O_14  and  C_24
   11  A    between atoms: N_17  and  C_31
   12  A    between atoms: C_20  and  C_25
   13  A    between atoms: C_26  and  C_29
                            x       y       z     vdW  Elec       q    Type
                         _______ _______ _______ _____ _____    ______ ____

>  <TORSDO>
F 13

$$$$
=
 OpenBabel11072412373D

 31 32  0  0  1  0  0  0  0  0999 V2000
  160.6750  208.2860  153.1020 C   0  0  2  0  0  3  0  0  0  0  0  0
  161.8540  208.4410  150.5200 C   0  0  0  0  0  0  0  0  0  0  0  0
  161.0920  207.3260  150.8960 O   0  0  0  0  0  0  0  0  0  0  0  0
  162.3140  208.5140  149.3510 O   0  0  0  0  0  0  0  0  0  0  0  0
  160.8110  207.0080  152.2610 C   0  0  1  0  0  3  0  0  0  0  0  0
  161.9110  209.1600  152.9110 C   0  0  0  0  0  2  0  0  0  0  0  0
  162.0360  209.5970  151.4560 C   0  0  0  0  0  2  0  0  0  0  0  0
  160.5140  207.9730  154.4800 O   0  0  0  0  0  0  0  0  0  0  0  0
  162.0180  208.4810  156.1570 O   0  0  0  0  0  0  0  0  0  0  0  0
  160.3240  210.0270  155.7950 N   0  0  0  0  0  2  0  0  0  0  0  0
  160.9940  208.8030  155.4970 C   0  0  0  0  0  0  0  0  0  0  0  0
  159.1960  210.5010  155.0070 C   0  0  0  0  0  2  0  0  0  0  0  0
  159.6140  211.7080  154.1840 C   0  0  0  0  0  2  0  0  0  0  0  0
  159.0250  211.6290  152.7840 C   0  0  0  0  0  2  0  0  0  0  0  0
  158.1980  212.8650  152.4560 C   0  0  2  0  0  3  0  0  0  0  0  0
  157.6060  213.9260  150.2610 O   0  0  0  0  0  0  0  0  0  0  0  0
  158.5770  213.4240  151.1190 C   0  0  0  0  0  0  0  0  0  0  0  0
  159.7830  213.4150  150.7600 O   0  0  0  0  0  1  0  0  0  0  0  0
  158.3950  213.9060  153.5470 C   0  0  0  0  0  2  0  0  0  0  0  0
  157.0550  214.4250  154.0340 C   0  0  0  0  0  1  0  0  0  0  0  0
  161.9030  206.0950  152.8140 C   0  0  0  0  0  2  0  0  0  0  0  0
  162.2590  205.0160  151.8060 C   0  0  0  0  0  2  0  0  0  0  0  0
  161.2060  203.9180  151.8150 C   0  0  0  0  0  2  0  0  0  0  0  0
  161.0700  203.3040  150.4610 C   0  0  0  0  0  0  0  0  0  0  0  0
  161.1980  204.0950  149.3120 C   0  0  0  0  0  3  0  0  0  0  0  0
  160.8670  201.9270  150.3370 C   0  0  0  0  0  3  0  0  0  0  0  0
  161.1150  203.5100  148.0450 C   0  0  0  0  0  3  0  0  0  0  0  0
  160.9090  202.1330  147.9130 C   0  0  0  0  0  0  0  0  0  0  0  0
  160.7840  201.3420  149.0690 C   0  0  0  0  0  3  0  0  0  0  0  0
  160.7780  202.3700  145.4550 C   0  0  0  0  0  1  0  0  0  0  0  0
  160.8340  201.5780  146.6340 O   0  0  0  0  0  0  0  0  0  0  0  0
  1  8  1  1  0  0  0
  2  3  1  0  0  0  0
  2  7  1  0  0  0  0
  3  5  1  0  0  0  0
  4  2  2  0  0  0  0
  5 21  1  1  0  0  0
  5  1  1  0  0  0  0
  6  1  1  0  0  0  0
  7  6  1  0  0  0  0
  8 11  1  0  0  0  0
 11 10  1  0  0  0  0
 11  9  2  0  0  0  0
 12 10  1  0  0  0  0
 13 12  1  0  0  0  0
 14 13  1  0  0  0  0
 15 14  1  1  0  0  0
 15 19  1  0  0  0  0
 16 17  2  0  0  0  0
 17 15  1  0  0  0  0
 18 17  1  0  0  0  0
 19 20  1  0  0  0  0
 22 23  1  0  0  0  0
 22 21  1  0  0  0  0
 24 23  1  0  0  0  0
 25 24  2  0  0  0  0
 26 24  1  0  0  0  0
 27 25  1  0  0  0  0
 28 27  2  0  0  0  0
 28 29  1  0  0  0  0
 29 26  2  0  0  0  0
 30 31  1  0  0  0  0
 31 28  1  0  0  0  0
M  END
>  <MODEL>
6

>  <REMARK>
 VINA RESULT:      -7.2      2.934      6.344
  Name = 
  13 active torsions:
  status: ('A' for Active; 'I' for Inactive)
    1  A    between atoms: C_1  and  O_10
    2  A    between atoms: C_2  and  C_26
    3  A    between atoms: C_2  and  C_31
    4  A    between atoms: C_6  and  C_29
    5  A    between atoms: C_7  and  C_22
    6  A    between atoms: C_7  and  C_25
    7  A    between atoms: C_8  and  C_22
    8  A    between atoms: O_10  and  C_19
    9  A    between atoms: C_11  and  C_29
   10  A    between atoms: O_14  and  C_24
   11  A    between atoms: N_17  and  C_31
   12  A    between atoms: C_20  and  C_25
   13  A    between atoms: C_26  and  C_29
                            x       y       z     vdW  Elec       q    Type
                         _______ _______ _______ _____ _____    ______ ____

>  <TORSDO>
F 13

$$$$
=
 OpenBabel11072412373D

 31 32  0  0  1  0  0  0  0  0999 V2000
  161.7020  209.0200  152.4710 C   0  0  2  0  0  3  0  0  0  0  0  0
  161.8320  206.1800  152.4760 C   0  0  0  0  0  0  0  0  0  0  0  0
  162.6210  206.9330  151.5970 O   0  0  0  0  0  0  0  0  0  0  0  0
  161.9520  204.9280  152.5020 O   0  0  0  0  0  0  0  0  0  0  0  0
  162.3310  208.2940  151.2720 C   0  0  1  0  0  3  0  0  0  0  0  0
  160.4970  208.2320  152.9730 C   0  0  0  0  0  2  0  0  0  0  0  0
  160.9270  206.8530  153.4630 C   0  0  0  0  0  2  0  0  0  0  0  0
  161.3030  210.3370  152.1160 O   0  0  0  0  0  0  0  0  0  0  0  0
  161.1030  211.1230  154.2800 O   0  0  0  0  0  0  0  0  0  0  0  0
  160.0040  212.3440  152.6380 N   0  0  0  0  0  2  0  0  0  0  0  0
  160.8220  211.2530  153.0580 C   0  0  0  0  0  0  0  0  0  0  0  0
  159.7250  212.6030  151.2340 C   0  0  0  0  0  2  0  0  0  0  0  0
  159.9390  214.0760  150.9290 C   0  0  0  0  0  2  0  0  0  0  0  0
  160.4970  214.2540  149.5250 C   0  0  0  0  0  2  0  0  0  0  0  0
  160.1100  213.0920  148.6190 C   0  0  2  0  0  3  0  0  0  0  0  0
  162.3250  211.9180  148.7000 O   0  0  0  0  0  1  0  0  0  0  0  0
  161.3160  212.5100  147.9500 C   0  0  0  0  0  0  0  0  0  0  0  0
  161.4280  212.5800  146.6980 O   0  0  0  0  0  0  0  0  0  0  0  0
  159.1040  213.5740  147.5850 C   0  0  0  0  0  2  0  0  0  0  0  0
  157.6870  213.3330  148.0700 C   0  0  0  0  0  1  0  0  0  0  0  0
  161.4160  208.3500  150.0510 C   0  0  0  0  0  2  0  0  0  0  0  0
  162.1630  207.9120  148.8030 C   0  0  0  0  0  2  0  0  0  0  0  0
  161.2070  207.2450  147.8240 C   0  0  0  0  0  2  0  0  0  0  0  0
  161.2370  205.7610  147.9830 C   0  0  0  0  0  0  0  0  0  0  0  0
  160.8520  205.1740  149.1950 C   0  0  0  0  0  3  0  0  0  0  0  0
  161.6010  204.9510  146.9030 C   0  0  0  0  0  3  0  0  0  0  0  0
  160.8380  203.7820  149.3270 C   0  0  0  0  0  3  0  0  0  0  0  0
  161.2030  202.9660  148.2520 C   0  0  0  0  0  0  0  0  0  0  0  0
  161.5870  203.5590  147.0360 C   0  0  0  0  0  3  0  0  0  0  0  0
  160.7210  200.9530  149.6070 C   0  0  0  0  0  1  0  0  0  0  0  0
  161.1760  201.5790  148.4140 O   0  0  0  0  0  0  0  0  0  0  0  0
  1  8  1  6  0  0  0
  1  6  1  0  0  0  0
  2  4  2  0  0  0  0
  2  7  1  0  0  0  0
  3  2  1  0  0  0  0
  5 21  1  6  0  0  0
  5  3  1  0  0  0  0
  5  1  1  0  0  0  0
  6  7  1  0  0  0  0
  8 11  1  0  0  0  0
 10 11  1  0  0  0  0
 11  9  2  0  0  0  0
 12 10  1  0  0  0  0
 13 12  1  0  0  0  0
 14 13  1  0  0  0  0
 15 19  1  6  0  0  0
 15 14  1  0  0  0  0
 17 15  1  0  0  0  0
 17 16  1  0  0  0  0
 18 17  2  0  0  0  0
 19 20  1  0  0  0  0
 22 21  1  0  0  0  0
 23 24  1  0  0  0  0
 23 22  1  0  0  0  0
 24 25  1  0  0  0  0
 25 27  2  0  0  0  0
 26 29  1  0  0  0  0
 26 24  2  0  0  0  0
 28 31  1  0  0  0  0
 28 27  1  0  0  0  0
 29 28  2  0  0  0  0
 31 30  1  0  0  0  0
M  END
>  <MODEL>
7

>  <REMARK>
 VINA RESULT:      -7.2      3.081      5.380
  Name = 
  13 active torsions:
  status: ('A' for Active; 'I' for Inactive)
    1  A    between atoms: C_1  and  O_10
    2  A    between atoms: C_2  and  C_26
    3  A    between atoms: C_2  and  C_31
    4  A    between atoms: C_6  and  C_29
    5  A    between atoms: C_7  and  C_22
    6  A    between atoms: C_7  and  C_25
    7  A    between atoms: C_8  and  C_22
    8  A    between atoms: O_10  and  C_19
    9  A    between atoms: C_11  and  C_29
   10  A    between atoms: O_14  and  C_24
   11  A    between atoms: N_17  and  C_31
   12  A    between atoms: C_20  and  C_25
   13  A    between atoms: C_26  and  C_29
                            x       y       z     vdW  Elec       q    Type
                         _______ _______ _______ _____ _____    ______ ____

>  <TORSDO>
F 13

$$$$
=
 OpenBabel11072412373D

 31 32  0  0  1  0  0  0  0  0999 V2000
  161.8360  207.0850  150.7800 C   0  0  2  0  0  3  0  0  0  0  0  0
  160.8960  206.9600  153.4610 C   0  0  0  0  0  0  0  0  0  0  0  0
  160.4550  207.9660  152.5910 O   0  0  0  0  0  0  0  0  0  0  0  0
  160.4190  206.8890  154.6230 O   0  0  0  0  0  0  0  0  0  0  0  0
  161.1570  208.3180  151.3970 C   0  0  1  0  0  3  0  0  0  0  0  0
  162.7040  206.3990  151.8300 C   0  0  0  0  0  2  0  0  0  0  0  0
  161.8460  205.9010  152.9880 C   0  0  0  0  0  2  0  0  0  0  0  0
  162.6320  207.4500  149.6600 O   0  0  0  0  0  0  0  0  0  0  0  0
  161.5810  208.9530  148.2550 O   0  0  0  0  0  0  0  0  0  0  0  0
  162.0540  206.8650  147.3550 N   0  0  0  0  0  2  0  0  0  0  0  0
  162.0730  207.8050  148.4280 C   0  0  0  0  0  0  0  0  0  0  0  0
  162.6910  205.5610  147.4630 C   0  0  0  0  0  2  0  0  0  0  0  0
  161.6520  204.4650  147.2950 C   0  0  0  0  0  2  0  0  0  0  0  0
  160.7860  204.3570  148.5400 C   0  0  0  0  0  2  0  0  0  0  0  0
  161.2080  203.1820  149.4130 C   0  0  2  0  0  3  0  0  0  0  0  0
  161.4720  200.9680  148.2630 O   0  0  0  0  0  0  0  0  0  0  0  0
  160.6480  201.8960  148.8890 C   0  0  0  0  0  0  0  0  0  0  0  0
  159.4150  201.6650  148.9940 O   0  0  0  0  0  1  0  0  0  0  0  0
  160.7450  203.4250  150.8410 C   0  0  0  0  0  2  0  0  0  0  0  0
  161.4100  202.4440  151.7890 C   0  0  0  0  0  1  0  0  0  0  0  0
  162.1740  209.4150  151.6990 C   0  0  0  0  0  2  0  0  0  0  0  0
  161.4760  210.6660  152.2040 C   0  0  0  0  0  2  0  0  0  0  0  0
  161.5020  210.7070  153.7250 C   0  0  0  0  0  2  0  0  0  0  0  0
  160.2130  211.2370  154.2620 C   0  0  0  0  0  0  0  0  0  0  0  0
  160.1840  211.9090  155.4900 C   0  0  0  0  0  3  0  0  0  0  0  0
  159.0400  211.1070  153.5130 C   0  0  0  0  0  3  0  0  0  0  0  0
  158.9830  212.4430  155.9690 C   0  0  0  0  0  3  0  0  0  0  0  0
  157.8060  212.3150  155.2260 C   0  0  0  0  0  0  0  0  0  0  0  0
  157.8400  211.6420  153.9920 C   0  0  0  0  0  3  0  0  0  0  0  0
  156.4630  213.2200  157.0960 C   0  0  0  0  0  1  0  0  0  0  0  0
  156.6240  212.8630  155.7300 O   0  0  0  0  0  0  0  0  0  0  0  0
  1  8  1  6  0  0  0
  1  5  1  0  0  0  0
  1  6  1  0  0  0  0
  2  4  2  0  0  0  0
  3  2  1  0  0  0  0
  5 21  1  1  0  0  0
  5  3  1  0  0  0  0
  6  7  1  0  0  0  0
  7  2  1  0  0  0  0
  9 11  2  0  0  0  0
 10 12  1  0  0  0  0
 10 11  1  0  0  0  0
 11  8  1  0  0  0  0
 13 12  1  0  0  0  0
 13 14  1  0  0  0  0
 15 14  1  6  0  0  0
 15 19  1  0  0  0  0
 16 17  2  0  0  0  0
 17 18  1  0  0  0  0
 17 15  1  0  0  0  0
 19 20  1  0  0  0  0
 21 22  1  0  0  0  0
 22 23  1  0  0  0  0
 23 24  1  0  0  0  0
 24 25  1  0  0  0  0
 25 27  2  0  0  0  0
 26 29  1  0  0  0  0
 26 24  2  0  0  0  0
 28 31  1  0  0  0  0
 28 27  1  0  0  0  0
 29 28  2  0  0  0  0
 31 30  1  0  0  0  0
M  END
>  <MODEL>
8

>  <REMARK>
 VINA RESULT:      -7.2      2.625      7.488
  Name = 
  13 active torsions:
  status: ('A' for Active; 'I' for Inactive)
    1  A    between atoms: C_1  and  O_10
    2  A    between atoms: C_2  and  C_26
    3  A    between atoms: C_2  and  C_31
    4  A    between atoms: C_6  and  C_29
    5  A    between atoms: C_7  and  C_22
    6  A    between atoms: C_7  and  C_25
    7  A    between atoms: C_8  and  C_22
    8  A    between atoms: O_10  and  C_19
    9  A    between atoms: C_11  and  C_29
   10  A    between atoms: O_14  and  C_24
   11  A    between atoms: N_17  and  C_31
   12  A    between atoms: C_20  and  C_25
   13  A    between atoms: C_26  and  C_29
                            x       y       z     vdW  Elec       q    Type
                         _______ _______ _______ _____ _____    ______ ____

>  <TORSDO>
F 13

$$$$
=
 OpenBabel11072412373D

 31 32  0  0  1  0  0  0  0  0999 V2000
  161.1780  205.2930  149.8400 C   0  0  2  0  0  3  0  0  0  0  0  0
  161.9710  207.8980  149.0200 C   0  0  0  0  0  0  0  0  0  0  0  0
  162.5000  207.3180  150.1800 O   0  0  0  0  0  0  0  0  0  0  0  0
  162.3820  209.0250  148.6440 O   0  0  0  0  0  0  0  0  0  0  0  0
  161.8770  206.2180  150.8480 C   0  0  1  0  0  3  0  0  0  0  0  0
  160.2270  206.1090  148.9690 C   0  0  0  0  0  2  0  0  0  0  0  0
  161.0010  207.1440  148.1600 C   0  0  0  0  0  2  0  0  0  0  0  0
  160.4580  204.2650  150.5080 O   0  0  0  0  0  0  0  0  0  0  0  0
  161.5580  202.8690  151.9840 O   0  0  0  0  0  0  0  0  0  0  0  0
  161.0620  201.9730  149.9000 N   0  0  0  0  0  2  0  0  0  0  0  0
  161.0430  203.0410  150.8470 C   0  0  0  0  0  0  0  0  0  0  0  0
  160.4010  202.0760  148.6080 C   0  0  0  0  0  2  0  0  0  0  0  0
  161.4080  201.8440  147.4940 C   0  0  0  0  0  2  0  0  0  0  0  0
  160.8640  202.3560  146.1690 C   0  0  0  0  0  2  0  0  0  0  0  0
  161.2120  203.8230  145.9520 C   0  0  2  0  0  3  0  0  0  0  0  0
  159.4950  203.6210  144.1340 O   0  0  0  0  0  0  0  0  0  0  0  0
  160.3890  204.4100  144.8470 C   0  0  0  0  0  0  0  0  0  0  0  0
  160.5270  205.6250  144.5460 O   0  0  0  0  0  1  0  0  0  0  0  0
  162.6950  203.9470  145.6390 C   0  0  0  0  0  2  0  0  0  0  0  0
  163.3300  205.0230  146.4990 C   0  0  0  0  0  1  0  0  0  0  0  0
  160.8960  206.7380  151.8940 C   0  0  0  0  0  2  0  0  0  0  0  0
  161.5530  206.7960  153.2620 C   0  0  0  0  0  2  0  0  0  0  0  0
  160.4940  206.8640  154.3530 C   0  0  0  0  0  2  0  0  0  0  0  0
  160.4740  208.2160  154.9880 C   0  0  0  0  0  0  0  0  0  0  0  0
  160.1280  208.3570  156.3370 C   0  0  0  0  0  3  0  0  0  0  0  0
  160.8520  209.3380  154.2460 C   0  0  0  0  0  3  0  0  0  0  0  0
  160.1540  209.6180  156.9400 C   0  0  0  0  0  3  0  0  0  0  0  0
  160.5290  210.7460  156.2030 C   0  0  0  0  0  0  0  0  0  0  0  0
  160.8780  210.6000  154.8490 C   0  0  0  0  0  3  0  0  0  0  0  0
  159.9370  213.1470  156.2750 C   0  0  0  0  0  1  0  0  0  0  0  0
  160.5480  211.9920  156.8350 O   0  0  0  0  0  0  0  0  0  0  0  0
  1  8  1  1  0  0  0
  1  5  1  0  0  0  0
  2  3  1  0  0  0  0
  3  5  1  0  0  0  0
  4  2  2  0  0  0  0
  5 21  1  1  0  0  0
  6  1  1  0  0  0  0
  7  6  1  0  0  0  0
  7  2  1  0  0  0  0
  8 11  1  0  0  0  0
 10 11  1  0  0  0  0
 11  9  2  0  0  0  0
 12 10  1  0  0  0  0
 13 12  1  0  0  0  0
 14 13  1  0  0  0  0
 15 19  1  6  0  0  0
 15 14  1  0  0  0  0
 16 17  2  0  0  0  0
 17 15  1  0  0  0  0
 18 17  1  0  0  0  0
 19 20  1  0  0  0  0
 21 22  1  0  0  0  0
 22 23  1  0  0  0  0
 23 24  1  0  0  0  0
 24 25  1  0  0  0  0
 25 27  2  0  0  0  0
 26 29  1  0  0  0  0
 26 24  2  0  0  0  0
 28 31  1  0  0  0  0
 28 27  1  0  0  0  0
 29 28  2  0  0  0  0
 30 31  1  0  0  0  0
M  END
>  <MODEL>
9

>  <REMARK>
 VINA RESULT:      -7.1      2.492      7.146
  Name = 
  13 active torsions:
  status: ('A' for Active; 'I' for Inactive)
    1  A    between atoms: C_1  and  O_10
    2  A    between atoms: C_2  and  C_26
    3  A    between atoms: C_2  and  C_31
    4  A    between atoms: C_6  and  C_29
    5  A    between atoms: C_7  and  C_22
    6  A    between atoms: C_7  and  C_25
    7  A    between atoms: C_8  and  C_22
    8  A    between atoms: O_10  and  C_19
    9  A    between atoms: C_11  and  C_29
   10  A    between atoms: O_14  and  C_24
   11  A    between atoms: N_17  and  C_31
   12  A    between atoms: C_20  and  C_25
   13  A    between atoms: C_26  and  C_29
                            x       y       z     vdW  Elec       q    Type
                         _______ _______ _______ _____ _____    ______ ____

>  <TORSDO>
F 13

$$$$
