=
 OpenBabel11072410143D

 37 41  0  0  1  0  0  0  0  0999 V2000
  161.9170  206.3870  146.3300 C   0  0  0  0  0  2  0  0  0  0  0  0
  160.7650  205.9950  148.6280 C   0  0  0  0  0  2  0  0  0  0  0  0
  161.5720  204.2190  144.9210 C   0  0  0  0  0  2  0  0  0  0  0  0
  161.0390  205.1850  145.9740 C   0  0  1  0  0  3  0  0  0  0  0  0
  161.9340  206.6620  147.8610 C   0  0  2  0  0  3  0  0  0  0  0  0
  161.2520  204.1290  147.0210 C   0  0  1  0  0  0  0  0  0  0  0  0
  161.7540  203.1340  145.9850 C   0  0  2  0  0  0  0  0  0  0  0  0
  162.6590  203.5340  147.1160 C   0  0  0  0  0  2  0  0  0  0  0  0
  160.6720  204.4600  148.4140 C   0  0  1  0  0  3  0  0  0  0  0  0
  159.5410  202.1970  146.0370 O   0  0  0  0  0  0  0  0  0  0  0  0
  160.8620  201.8930  146.0100 C   0  0  2  0  0  0  0  0  0  0  0  0
  161.1900  200.6370  146.8000 C   0  0  0  0  0  1  0  0  0  0  0  0
  160.0440  201.6890  144.8460 N   0  0  0  0  0  2  0  0  0  0  0  0
  161.2500  203.6640  149.6060 C   0  0  1  0  0  3  0  0  0  0  0  0
  160.7060  203.5860  152.1000 C   0  0  0  0  0  2  0  0  0  0  0  0
  161.4360  205.1160  153.8090 O   0  0  0  0  0  0  0  0  0  0  0  0
  162.5570  205.0730  151.2470 C   0  0  0  0  0  2  0  0  0  0  0  0
  161.4250  206.3580  153.1650 C   0  0  0  0  0  2  0  0  0  0  0  0
  160.3180  204.4420  153.3020 C   0  0  0  0  0  2  0  0  0  0  0  0
  162.4400  206.3910  152.0190 C   0  0  0  0  0  2  0  0  0  0  0  0
  161.1980  204.4480  150.9310 C   0  0  1  0  0  3  0  0  0  0  0  0
  160.6390  202.2970  149.7290 C   0  0  0  0  0  0  0  0  0  0  0  0
  161.3830  201.2600  150.2740 O   0  0  0  0  0  1  0  0  0  0  0  0
  159.4470  202.0900  149.3750 O   0  0  0  0  0  0  0  0  0  0  0  0
  161.9450  208.1560  148.1300 C   0  0  0  0  0  2  0  0  0  0  0  0
  161.6990  208.4550  149.6030 C   0  0  0  0  0  2  0  0  0  0  0  0
  162.0370  210.2010  150.0010 S   0  0  0  0  0  0  0  0  0  0  0  0
  162.1170  209.9120  151.7980 C   0  0  0  0  0  2  0  0  0  0  0  0
  160.8650  210.4300  152.4970 C   0  0  0  0  0  2  0  0  0  0  0  0
  160.5970  210.3860  155.0190 C   0  0  0  0  0  0  0  0  0  0  0  0
  160.6460  209.7240  153.7510 N   0  0  0  0  0  2  0  0  0  0  0  0
  160.8130  211.6240  155.0900 O   0  0  0  0  0  0  0  0  0  0  0  0
  160.3310  209.6780  156.1980 O   0  0  0  0  0  0  0  0  0  0  0  0
  162.3130  208.7170  156.9400 O   0  0  0  0  0  0  0  0  0  0  0  0
  161.0860  208.6010  156.6790 C   0  0  0  0  0  0  0  0  0  0  0  0
  159.3870  207.1270  155.9810 O   0  0  0  0  0  1  0  0  0  0  0  0
  160.4160  207.2930  156.9070 C   0  0  0  0  0  2  0  0  0  0  0  0
  1  5  1  0  0  0  0
  4  3  1  6  0  0  0
  4  1  1  0  0  0  0
  4  6  1  0  0  0  0
  5 25  1  6  0  0  0
  5  2  1  0  0  0  0
  6  8  1  1  0  0  0
  6  9  1  0  0  0  0
  7  3  1  6  0  0  0
  7 11  1  0  0  0  0
  7  6  1  0  0  0  0
  7  8  1  0  0  0  0
  9  2  1  0  0  0  0
  9 14  1  1  0  0  0
 11 10  1  0  0  0  0
 11 12  1  1  0  0  0
 13 11  1  0  0  0  0
 13 10  1  0  0  0  0
 14 22  1  1  0  0  0
 15 19  1  0  0  0  0
 17 20  1  0  0  0  0
 18 16  1  0  0  0  0
 19 16  1  0  0  0  0
 20 18  1  0  0  0  0
 21 14  1  6  0  0  0
 21 17  1  0  0  0  0
 21 15  1  0  0  0  0
 22 23  1  0  0  0  0
 24 22  2  0  0  0  0
 25 26  1  0  0  0  0
 26 27  1  0  0  0  0
 27 28  1  0  0  0  0
 28 29  1  0  0  0  0
 29 31  1  0  0  0  0
 30 32  2  0  0  0  0
 30 33  1  0  0  0  0
 31 30  1  0  0  0  0
 33 35  1  0  0  0  0
 35 37  1  0  0  0  0
 35 34  2  0  0  0  0
 36 37  1  0  0  0  0
M  END
>  <MODEL>
1

>  <REMARK>
 VINA RESULT:      -6.1      0.000      0.000
  Name = 
  13 active torsions:
  status: ('A' for Active; 'I' for Inactive)
    1  A    between atoms: C_4  and  C_23
    2  A    between atoms: C_4  and  S_27
    3  A    between atoms: C_8  and  N_17
    4  A    between atoms: C_8  and  C_25
    5  A    between atoms: O_9  and  C_11
    6  A    between atoms: O_9  and  C_20
    7  A    between atoms: C_10  and  C_12
    8  A    between atoms: C_10  and  C_34
    9  A    between atoms: C_10  and  C_36
   10  A    between atoms: C_13  and  C_33
   11  A    between atoms: C_20  and  C_24
   12  A    between atoms: C_23  and  C_26
   13  A    between atoms: C_25  and  S_27
                            x       y       z     vdW  Elec       q    Type
                         _______ _______ _______ _____ _____    ______ ____

>  <TORSDO>
F 13

$$$$
=
 OpenBabel11072410143D

 37 41  0  0  1  0  0  0  0  0999 V2000
  161.8870  206.5300  146.4210 C   0  0  0  0  0  2  0  0  0  0  0  0
  160.7120  206.0680  148.6950 C   0  0  0  0  0  2  0  0  0  0  0  0
  161.6120  204.3820  144.9660 C   0  0  0  0  0  2  0  0  0  0  0  0
  161.0410  205.3150  146.0290 C   0  0  1  0  0  3  0  0  0  0  0  0
  161.8760  206.7760  147.9570 C   0  0  2  0  0  3  0  0  0  0  0  0
  161.2650  204.2450  147.0600 C   0  0  1  0  0  0  0  0  0  0  0  0
  161.8030  203.2810  146.0120 C   0  0  2  0  0  0  0  0  0  0  0  0
  162.6830  203.6800  147.1640 C   0  0  0  0  0  2  0  0  0  0  0  0
  160.6580  204.5360  148.4500 C   0  0  1  0  0  3  0  0  0  0  0  0
  159.6130  202.2940  146.0090 O   0  0  0  0  0  0  0  0  0  0  0  0
  160.9400  202.0210  146.0020 C   0  0  2  0  0  0  0  0  0  0  0  0
  161.2820  200.7600  146.7770 C   0  0  0  0  0  1  0  0  0  0  0  0
  160.1480  201.8160  144.8190 N   0  0  0  0  0  2  0  0  0  0  0  0
  161.2380  203.7310  149.6350 C   0  0  1  0  0  3  0  0  0  0  0  0
  160.7690  203.6260  152.1430 C   0  0  0  0  0  2  0  0  0  0  0  0
  161.4940  205.1740  153.8370 O   0  0  0  0  0  0  0  0  0  0  0  0
  162.5420  205.1790  151.2440 C   0  0  0  0  0  2  0  0  0  0  0  0
  161.4210  206.4170  153.1990 C   0  0  0  0  0  2  0  0  0  0  0  0
  160.3860  204.4640  153.3590 C   0  0  0  0  0  2  0  0  0  0  0  0
  162.4010  206.4900  152.0250 C   0  0  0  0  0  2  0  0  0  0  0  0
  161.1970  204.5070  150.9640 C   0  0  1  0  0  3  0  0  0  0  0  0
  160.6190  202.3660  149.7540 C   0  0  0  0  0  0  0  0  0  0  0  0
  161.3660  201.3190  150.2750 O   0  0  0  0  0  1  0  0  0  0  0  0
  159.4210  202.1710  149.4190 O   0  0  0  0  0  0  0  0  0  0  0  0
  161.8490  208.2650  148.2540 C   0  0  0  0  0  2  0  0  0  0  0  0
  161.4560  208.5330  149.7010 C   0  0  0  0  0  2  0  0  0  0  0  0
  162.0460  210.1620  150.2680 S   0  0  0  0  0  0  0  0  0  0  0  0
  162.2660  210.8150  148.5820 C   0  0  0  0  0  2  0  0  0  0  0  0
  161.4950  212.1150  148.3880 C   0  0  0  0  0  2  0  0  0  0  0  0
  161.7460  213.4710  146.2590 C   0  0  0  0  0  0  0  0  0  0  0  0
  161.2240  212.3480  146.9770 N   0  0  0  0  0  2  0  0  0  0  0  0
  162.4220  214.3440  146.8630 O   0  0  0  0  0  0  0  0  0  0  0  0
  161.5060  213.6320  144.8880 O   0  0  0  0  0  0  0  0  0  0  0  0
  163.5710  213.2290  143.8980 O   0  0  0  0  0  0  0  0  0  0  0  0
  162.3150  213.1240  143.8640 C   0  0  0  0  0  0  0  0  0  0  0  0
  162.0280  213.0620  141.5270 O   0  0  0  0  0  1  0  0  0  0  0  0
  161.6770  212.4260  142.7170 C   0  0  0  0  0  2  0  0  0  0  0  0
  1  5  1  0  0  0  0
  4  3  1  6  0  0  0
  4  1  1  0  0  0  0
  4  6  1  0  0  0  0
  5 25  1  6  0  0  0
  5  2  1  0  0  0  0
  6  8  1  1  0  0  0
  6  9  1  0  0  0  0
  7  3  1  6  0  0  0
  7  6  1  0  0  0  0
  7  8  1  0  0  0  0
  9  2  1  0  0  0  0
  9 14  1  1  0  0  0
 11 10  1  0  0  0  0
 11  7  1  0  0  0  0
 11 12  1  1  0  0  0
 13 11  1  0  0  0  0
 13 10  1  0  0  0  0
 14 22  1  1  0  0  0
 15 19  1  0  0  0  0
 17 20  1  0  0  0  0
 18 16  1  0  0  0  0
 19 16  1  0  0  0  0
 20 18  1  0  0  0  0
 21 14  1  6  0  0  0
 21 17  1  0  0  0  0
 21 15  1  0  0  0  0
 22 23  1  0  0  0  0
 24 22  2  0  0  0  0
 25 26  1  0  0  0  0
 26 27  1  0  0  0  0
 28 27  1  0  0  0  0
 29 28  1  0  0  0  0
 30 32  2  0  0  0  0
 30 31  1  0  0  0  0
 31 29  1  0  0  0  0
 33 30  1  0  0  0  0
 35 34  2  0  0  0  0
 35 33  1  0  0  0  0
 36 37  1  0  0  0  0
 37 35  1  0  0  0  0
M  END
>  <MODEL>
2

>  <REMARK>
 VINA RESULT:      -5.8      4.237      5.821
  Name = 
  13 active torsions:
  status: ('A' for Active; 'I' for Inactive)
    1  A    between atoms: C_4  and  C_23
    2  A    between atoms: C_4  and  S_27
    3  A    between atoms: C_8  and  N_17
    4  A    between atoms: C_8  and  C_25
    5  A    between atoms: O_9  and  C_11
    6  A    between atoms: O_9  and  C_20
    7  A    between atoms: C_10  and  C_12
    8  A    between atoms: C_10  and  C_34
    9  A    between atoms: C_10  and  C_36
   10  A    between atoms: C_13  and  C_33
   11  A    between atoms: C_20  and  C_24
   12  A    between atoms: C_23  and  C_26
   13  A    between atoms: C_25  and  S_27
                            x       y       z     vdW  Elec       q    Type
                         _______ _______ _______ _____ _____    ______ ____

>  <TORSDO>
F 13

$$$$
=
 OpenBabel11072410143D

 37 41  0  0  1  0  0  0  0  0999 V2000
  161.2610  207.3700  155.1480 C   0  0  0  0  0  2  0  0  0  0  0  0
  160.4880  208.1280  152.7840 C   0  0  0  0  0  2  0  0  0  0  0  0
  160.2660  209.0700  156.8600 C   0  0  0  0  0  2  0  0  0  0  0  0
  160.1220  208.3150  155.5420 C   0  0  1  0  0  3  0  0  0  0  0  0
  161.6040  207.4730  153.6350 C   0  0  2  0  0  3  0  0  0  0  0  0
  160.3180  209.6090  154.8040 C   0  0  1  0  0  0  0  0  0  0  0  0
  160.4280  210.3910  156.1050 C   0  0  2  0  0  0  0  0  0  0  0  0
  161.5810  210.4050  155.1400 C   0  0  0  0  0  2  0  0  0  0  0  0
  160.0700  209.5380  153.2810 C   0  0  1  0  0  3  0  0  0  0  0  0
  159.5190  212.3620  157.1350 O   0  0  0  0  0  0  0  0  0  0  0  0
  159.3380  211.4610  156.1380 C   0  0  2  0  0  0  0  0  0  0  0  0
  157.8700  211.1770  155.8650 C   0  0  0  0  0  1  0  0  0  0  0  0
  159.7690  212.8000  155.8400 N   0  0  0  0  0  2  0  0  0  0  0  0
  160.6930  210.6690  152.4300 C   0  0  1  0  0  3  0  0  0  0  0  0
  161.3850  211.3490  150.0680 C   0  0  0  0  0  2  0  0  0  0  0  0
  162.6150  210.0410  148.4660 O   0  0  0  0  0  0  0  0  0  0  0  0
  162.4140  209.3210  151.1610 C   0  0  0  0  0  2  0  0  0  0  0  0
  162.1430  208.7410  148.6710 C   0  0  0  0  0  2  0  0  0  0  0  0
  161.4900  210.8580  148.6270 C   0  0  0  0  0  2  0  0  0  0  0  0
  162.4950  208.2430  150.0750 C   0  0  0  0  0  2  0  0  0  0  0  0
  161.1590  210.1880  151.0440 C   0  0  1  0  0  3  0  0  0  0  0  0
  159.8010  211.8750  152.3450 C   0  0  0  0  0  0  0  0  0  0  0  0
  160.3600  213.1270  152.1300 O   0  0  0  0  0  0  0  0  0  0  0  0
  158.5490  211.7580  152.4300 O   0  0  0  0  0  1  0  0  0  0  0  0
  161.9450  206.1020  153.0760 C   0  0  0  0  0  2  0  0  0  0  0  0
  160.7380  205.4630  152.4020 C   0  0  0  0  0  2  0  0  0  0  0  0
  161.1350  204.8810  150.7210 S   0  0  0  0  0  0  0  0  0  0  0  0
  160.8610  203.1250  151.1230 C   0  0  0  0  0  2  0  0  0  0  0  0
  160.7760  202.2770  149.8600 C   0  0  0  0  0  2  0  0  0  0  0  0
  161.1190  202.5270  147.3600 C   0  0  0  0  0  0  0  0  0  0  0  0
  161.0950  203.0710  148.6830 N   0  0  0  0  0  2  0  0  0  0  0  0
  160.9220  201.2960  147.1830 O   0  0  0  0  0  0  0  0  0  0  0  0
  161.3790  203.3360  146.2460 O   0  0  0  0  0  0  0  0  0  0  0  0
  163.0740  204.9170  146.4300 O   0  0  0  0  0  0  0  0  0  0  0  0
  161.8480  204.6550  146.3000 C   0  0  0  0  0  0  0  0  0  0  0  0
  160.6870  206.0860  144.8340 O   0  0  0  0  0  1  0  0  0  0  0  0
  160.8760  205.7730  146.1800 C   0  0  0  0  0  2  0  0  0  0  0  0
  2  9  1  0  0  0  0
  2  5  1  0  0  0  0
  4  1  1  6  0  0  0
  4  3  1  0  0  0  0
  5 25  1  6  0  0  0
  5  1  1  0  0  0  0
  6  8  1  6  0  0  0
  6  4  1  0  0  0  0
  6  7  1  0  0  0  0
  7  8  1  1  0  0  0
  7 11  1  0  0  0  0
  7  3  1  0  0  0  0
  9 14  1  6  0  0  0
  9  6  1  0  0  0  0
 11 12  1  6  0  0  0
 11 10  1  0  0  0  0
 13 11  1  0  0  0  0
 13 10  1  0  0  0  0
 14 22  1  6  0  0  0
 15 21  1  0  0  0  0
 16 19  1  0  0  0  0
 16 18  1  0  0  0  0
 18 20  1  0  0  0  0
 19 15  1  0  0  0  0
 20 17  1  0  0  0  0
 21 17  1  0  0  0  0
 21 14  1  1  0  0  0
 22 24  1  0  0  0  0
 23 22  2  0  0  0  0
 26 25  1  0  0  0  0
 27 28  1  0  0  0  0
 27 26  1  0  0  0  0
 29 28  1  0  0  0  0
 30 31  1  0  0  0  0
 31 29  1  0  0  0  0
 32 30  2  0  0  0  0
 33 35  1  0  0  0  0
 33 30  1  0  0  0  0
 35 34  2  0  0  0  0
 36 37  1  0  0  0  0
 37 35  1  0  0  0  0
M  END
>  <MODEL>
3

>  <REMARK>
 VINA RESULT:      -5.5      2.630      9.800
  Name = 
  13 active torsions:
  status: ('A' for Active; 'I' for Inactive)
    1  A    between atoms: C_4  and  C_23
    2  A    between atoms: C_4  and  S_27
    3  A    between atoms: C_8  and  N_17
    4  A    between atoms: C_8  and  C_25
    5  A    between atoms: O_9  and  C_11
    6  A    between atoms: O_9  and  C_20
    7  A    between atoms: C_10  and  C_12
    8  A    between atoms: C_10  and  C_34
    9  A    between atoms: C_10  and  C_36
   10  A    between atoms: C_13  and  C_33
   11  A    between atoms: C_20  and  C_24
   12  A    between atoms: C_23  and  C_26
   13  A    between atoms: C_25  and  S_27
                            x       y       z     vdW  Elec       q    Type
                         _______ _______ _______ _____ _____    ______ ____

>  <TORSDO>
F 13

$$$$
=
 OpenBabel11072410143D

 37 41  0  0  1  0  0  0  0  0999 V2000
  161.0800  203.8600  152.7330 C   0  0  0  0  0  2  0  0  0  0  0  0
  162.2260  205.9580  151.7090 C   0  0  0  0  0  2  0  0  0  0  0  0
  160.8650  202.0960  150.8230 C   0  0  0  0  0  2  0  0  0  0  0  0
  161.6500  203.2410  151.4540 C   0  0  1  0  0  3  0  0  0  0  0  0
  161.1990  205.4110  152.7320 C   0  0  2  0  0  3  0  0  0  0  0  0
  161.2570  204.1200  150.3000 C   0  0  1  0  0  0  0  0  0  0  0  0
  160.4980  202.9830  149.6310 C   0  0  2  0  0  0  0  0  0  0  0  0
  159.7600  204.2380  150.0090 C   0  0  0  0  0  2  0  0  0  0  0  0
  161.9630  205.4920  150.2510 C   0  0  1  0  0  3  0  0  0  0  0  0
  161.1430  201.4160  147.9280 O   0  0  0  0  0  0  0  0  0  0  0  0
  161.0900  202.7330  148.2460 C   0  0  2  0  0  0  0  0  0  0  0  0
  162.2570  203.5200  147.6740 C   0  0  0  0  0  1  0  0  0  0  0  0
  160.1870  202.1820  147.2710 N   0  0  0  0  0  2  0  0  0  0  0  0
  161.2800  206.5870  149.3990 C   0  0  1  0  0  3  0  0  0  0  0  0
  161.5990  209.0070  148.6490 C   0  0  0  0  0  2  0  0  0  0  0  0
  161.7350  210.9670  150.0390 O   0  0  0  0  0  0  0  0  0  0  0  0
  160.8670  208.4910  151.0080 C   0  0  0  0  0  2  0  0  0  0  0  0
  162.4340  210.5230  151.1660 C   0  0  0  0  0  2  0  0  0  0  0  0
  162.3380  210.3040  148.9620 C   0  0  0  0  0  2  0  0  0  0  0  0
  161.6410  209.4510  151.9170 C   0  0  0  0  0  2  0  0  0  0  0  0
  161.6910  208.0120  149.8120 C   0  0  1  0  0  3  0  0  0  0  0  0
  161.4510  206.3490  147.9250 C   0  0  0  0  0  0  0  0  0  0  0  0
  162.7260  206.3230  147.3790 O   0  0  0  0  0  1  0  0  0  0  0  0
  160.4520  206.1390  147.1860 O   0  0  0  0  0  0  0  0  0  0  0  0
  161.5350  205.9170  154.1240 C   0  0  0  0  0  2  0  0  0  0  0  0
  160.7110  207.1480  154.4790 C   0  0  0  0  0  2  0  0  0  0  0  0
  160.3020  207.1960  156.2540 S   0  0  0  0  0  0  0  0  0  0  0  0
  161.7110  208.2680  156.6840 C   0  0  0  0  0  2  0  0  0  0  0  0
  161.2440  209.6700  157.0570 C   0  0  0  0  0  2  0  0  0  0  0  0
  160.2870  210.9710  155.1010 C   0  0  0  0  0  0  0  0  0  0  0  0
  161.3870  210.5790  155.9290 N   0  0  0  0  0  2  0  0  0  0  0  0
  159.1460  210.4760  155.2960 O   0  0  0  0  0  0  0  0  0  0  0  0
  160.4550  211.8890  154.0570 O   0  0  0  0  0  0  0  0  0  0  0  0
  159.0830  211.8820  152.1800 O   0  0  0  0  0  0  0  0  0  0  0  0
  159.4210  212.4140  153.2710 C   0  0  0  0  0  0  0  0  0  0  0  0
  157.8610  214.0940  152.7350 O   0  0  0  0  0  1  0  0  0  0  0  0
  158.6890  213.6170  153.7500 C   0  0  0  0  0  2  0  0  0  0  0  0
  2  5  1  0  0  0  0
  4  3  1  6  0  0  0
  4  1  1  0  0  0  0
  5  1  1  0  0  0  0
  5 25  1  1  0  0  0
  6  8  1  1  0  0  0
  6  4  1  0  0  0  0
  7  8  1  6  0  0  0
  7  6  1  0  0  0  0
  7  3  1  0  0  0  0
  9 14  1  1  0  0  0
  9  6  1  0  0  0  0
  9  2  1  0  0  0  0
 10 11  1  0  0  0  0
 11 12  1  6  0  0  0
 11  7  1  0  0  0  0
 13 10  1  0  0  0  0
 13 11  1  0  0  0  0
 14 22  1  6  0  0  0
 15 19  1  0  0  0  0
 15 21  1  0  0  0  0
 16 18  1  0  0  0  0
 17 20  1  0  0  0  0
 18 20  1  0  0  0  0
 19 16  1  0  0  0  0
 21 14  1  6  0  0  0
 21 17  1  0  0  0  0
 23 22  1  0  0  0  0
 24 22  2  0  0  0  0
 25 26  1  0  0  0  0
 26 27  1  0  0  0  0
 27 28  1  0  0  0  0
 28 29  1  0  0  0  0
 30 32  2  0  0  0  0
 30 31  1  0  0  0  0
 31 29  1  0  0  0  0
 33 30  1  0  0  0  0
 34 35  2  0  0  0  0
 35 37  1  0  0  0  0
 35 33  1  0  0  0  0
 36 37  1  0  0  0  0
M  END
>  <MODEL>
4

>  <REMARK>
 VINA RESULT:      -5.5      2.499      4.951
  Name = 
  13 active torsions:
  status: ('A' for Active; 'I' for Inactive)
    1  A    between atoms: C_4  and  C_23
    2  A    between atoms: C_4  and  S_27
    3  A    between atoms: C_8  and  N_17
    4  A    between atoms: C_8  and  C_25
    5  A    between atoms: O_9  and  C_11
    6  A    between atoms: O_9  and  C_20
    7  A    between atoms: C_10  and  C_12
    8  A    between atoms: C_10  and  C_34
    9  A    between atoms: C_10  and  C_36
   10  A    between atoms: C_13  and  C_33
   11  A    between atoms: C_20  and  C_24
   12  A    between atoms: C_23  and  C_26
   13  A    between atoms: C_25  and  S_27
                            x       y       z     vdW  Elec       q    Type
                         _______ _______ _______ _____ _____    ______ ____

>  <TORSDO>
F 13

$$$$
=
 OpenBabel11072410143D

 37 41  0  0  1  0  0  0  0  0999 V2000
  161.9490  210.2850  150.8430 C   0  0  0  0  0  2  0  0  0  0  0  0
  162.6200  207.9940  149.8130 C   0  0  0  0  0  2  0  0  0  0  0  0
  161.5480  209.8910  153.3910 C   0  0  0  0  0  2  0  0  0  0  0  0
  162.3130  209.5260  152.1220 C   0  0  1  0  0  3  0  0  0  0  0  0
  161.8910  209.3450  149.6060 C   0  0  2  0  0  3  0  0  0  0  0  0
  161.5980  208.2050  152.0960 C   0  0  1  0  0  0  0  0  0  0  0  0
  160.8500  208.5290  153.3800 C   0  0  2  0  0  0  0  0  0  0  0  0
  160.0690  208.2540  152.1260 C   0  0  0  0  0  2  0  0  0  0  0  0
  162.1210  207.1970  151.0490 C   0  0  1  0  0  3  0  0  0  0  0  0
  161.1860  207.9610  155.6910 O   0  0  0  0  0  0  0  0  0  0  0  0
  161.1720  207.4660  154.4290 C   0  0  2  0  0  0  0  0  0  0  0  0
  162.1960  206.3630  154.2220 C   0  0  0  0  0  1  0  0  0  0  0  0
  160.1100  207.1510  155.3460 N   0  0  0  0  0  2  0  0  0  0  0  0
  161.1610  206.0500  150.6590 C   0  0  1  0  0  3  0  0  0  0  0  0
  161.2310  204.0980  149.0140 C   0  0  0  0  0  2  0  0  0  0  0  0
  160.9020  204.1760  146.6310 O   0  0  0  0  0  0  0  0  0  0  0  0
  160.2720  206.3230  148.3090 C   0  0  0  0  0  2  0  0  0  0  0  0
  161.5000  205.3820  146.2550 C   0  0  0  0  0  2  0  0  0  0  0  0
  161.7300  203.6660  147.6390 C   0  0  0  0  0  2  0  0  0  0  0  0
  160.7740  206.5750  146.8840 C   0  0  0  0  0  2  0  0  0  0  0  0
  161.3070  205.6200  149.1880 C   0  0  1  0  0  3  0  0  0  0  0  0
  161.2520  204.8860  151.6050 C   0  0  0  0  0  0  0  0  0  0  0  0
  162.4670  204.2400  151.7810 O   0  0  0  0  0  0  0  0  0  0  0  0
  160.2460  204.5120  152.2660 O   0  0  0  0  0  1  0  0  0  0  0  0
  162.4440  210.0500  148.3790 C   0  0  0  0  0  2  0  0  0  0  0  0
  161.9980  211.5050  148.3290 C   0  0  0  0  0  2  0  0  0  0  0  0
  163.3700  212.6150  147.8740 S   0  0  0  0  0  0  0  0  0  0  0  0
  162.3420  214.1180  147.9140 C   0  0  0  0  0  2  0  0  0  0  0  0
  160.9830  213.8740  147.2680 C   0  0  0  0  0  2  0  0  0  0  0  0
  160.4320  212.9010  144.9910 C   0  0  0  0  0  0  0  0  0  0  0  0
  161.0970  213.8630  145.8170 N   0  0  0  0  0  2  0  0  0  0  0  0
  159.7630  211.9750  145.5200 O   0  0  0  0  0  0  0  0  0  0  0  0
  160.5240  212.9560  143.5950 O   0  0  0  0  0  0  0  0  0  0  0  0
  162.7770  212.5610  143.1840 O   0  0  0  0  0  0  0  0  0  0  0  0
  161.5740  212.4250  142.8350 C   0  0  0  0  0  0  0  0  0  0  0  0
  162.4390  211.3560  140.9240 O   0  0  0  0  0  1  0  0  0  0  0  0
  161.2580  211.6630  141.5980 C   0  0  0  0  0  2  0  0  0  0  0  0
  2  9  1  0  0  0  0
  4  1  1  6  0  0  0
  4  3  1  0  0  0  0
  5 25  1  6  0  0  0
  5  2  1  0  0  0  0
  5  1  1  0  0  0  0
  6  4  1  0  0  0  0
  6  8  1  6  0  0  0
  6  7  1  0  0  0  0
  7  8  1  6  0  0  0
  7  3  1  0  0  0  0
  7 11  1  0  0  0  0
  9 14  1  6  0  0  0
  9  6  1  0  0  0  0
 11 12  1  6  0  0  0
 11 13  1  0  0  0  0
 11 10  1  0  0  0  0
 13 10  1  0  0  0  0
 14 22  1  1  0  0  0
 15 21  1  0  0  0  0
 16 19  1  0  0  0  0
 17 21  1  0  0  0  0
 18 16  1  0  0  0  0
 18 20  1  0  0  0  0
 19 15  1  0  0  0  0
 20 17  1  0  0  0  0
 21 14  1  1  0  0  0
 22 23  2  0  0  0  0
 22 24  1  0  0  0  0
 26 25  1  0  0  0  0
 27 28  1  0  0  0  0
 27 26  1  0  0  0  0
 29 28  1  0  0  0  0
 30 32  2  0  0  0  0
 30 31  1  0  0  0  0
 31 29  1  0  0  0  0
 33 30  1  0  0  0  0
 35 34  2  0  0  0  0
 35 33  1  0  0  0  0
 36 37  1  0  0  0  0
 37 35  1  0  0  0  0
M  END
>  <MODEL>
5

>  <REMARK>
 VINA RESULT:      -5.4      4.729      8.354
  Name = 
  13 active torsions:
  status: ('A' for Active; 'I' for Inactive)
    1  A    between atoms: C_4  and  C_23
    2  A    between atoms: C_4  and  S_27
    3  A    between atoms: C_8  and  N_17
    4  A    between atoms: C_8  and  C_25
    5  A    between atoms: O_9  and  C_11
    6  A    between atoms: O_9  and  C_20
    7  A    between atoms: C_10  and  C_12
    8  A    between atoms: C_10  and  C_34
    9  A    between atoms: C_10  and  C_36
   10  A    between atoms: C_13  and  C_33
   11  A    between atoms: C_20  and  C_24
   12  A    between atoms: C_23  and  C_26
   13  A    between atoms: C_25  and  S_27
                            x       y       z     vdW  Elec       q    Type
                         _______ _______ _______ _____ _____    ______ ____

>  <TORSDO>
F 13

$$$$
=
 OpenBabel11072410143D

 37 41  0  0  1  0  0  0  0  0999 V2000
  161.9100  207.5160  153.2050 C   0  0  0  0  0  2  0  0  0  0  0  0
  160.5710  208.9530  151.5000 C   0  0  0  0  0  2  0  0  0  0  0  0
  161.1950  208.2950  155.5900 C   0  0  0  0  0  2  0  0  0  0  0  0
  160.8190  208.0610  154.1310 C   0  0  1  0  0  3  0  0  0  0  0  0
  161.8970  208.2160  151.8160 C   0  0  2  0  0  3  0  0  0  0  0  0
  160.7440  209.5490  153.9330 C   0  0  1  0  0  0  0  0  0  0  0  0
  161.0820  209.8080  155.3930 C   0  0  2  0  0  0  0  0  0  0  0  0
  161.9860  210.3540  154.3230 C   0  0  0  0  0  2  0  0  0  0  0  0
  160.1680  210.0010  152.5730 C   0  0  1  0  0  3  0  0  0  0  0  0
  160.2790  211.0990  157.2540 O   0  0  0  0  0  0  0  0  0  0  0  0
  159.9490  210.6080  156.0340 C   0  0  2  0  0  0  0  0  0  0  0  0
  158.4840  210.2180  155.9370 C   0  0  0  0  0  1  0  0  0  0  0  0
  160.1990  212.0130  156.2110 N   0  0  0  0  0  2  0  0  0  0  0  0
  160.4970  211.4470  152.1340 C   0  0  1  0  0  3  0  0  0  0  0  0
  160.3610  212.9620  150.0840 C   0  0  0  0  0  2  0  0  0  0  0  0
  161.4930  212.6860  147.9780 O   0  0  0  0  0  0  0  0  0  0  0  0
  162.1750  211.2170  150.2580 C   0  0  0  0  0  2  0  0  0  0  0  0
  161.4890  211.3020  147.7810 C   0  0  0  0  0  2  0  0  0  0  0  0
  160.2520  212.9660  148.5620 C   0  0  0  0  0  2  0  0  0  0  0  0
  162.3030  210.5900  148.8660 C   0  0  0  0  0  2  0  0  0  0  0  0
  160.7320  211.5740  150.6180 C   0  0  1  0  0  3  0  0  0  0  0  0
  159.4870  212.4380  152.6400 C   0  0  0  0  0  0  0  0  0  0  0  0
  158.1620  212.0520  152.7840 O   0  0  0  0  0  0  0  0  0  0  0  0
  159.8360  213.6040  152.9670 O   0  0  0  0  0  1  0  0  0  0  0  0
  162.2080  207.2150  150.7170 C   0  0  0  0  0  2  0  0  0  0  0  0
  161.1770  207.2840  149.5980 C   0  0  0  0  0  2  0  0  0  0  0  0
  160.8500  205.6400  148.8810 S   0  0  0  0  0  0  0  0  0  0  0  0
  161.0610  204.7630  150.4640 C   0  0  0  0  0  2  0  0  0  0  0  0
  160.6690  203.2960  150.3390 C   0  0  0  0  0  2  0  0  0  0  0  0
  160.9680  201.5070  148.5650 C   0  0  0  0  0  0  0  0  0  0  0  0
  160.7260  202.8640  148.9490 N   0  0  0  0  0  2  0  0  0  0  0  0
  161.2090  200.6390  149.4440 O   0  0  0  0  0  0  0  0  0  0  0  0
  160.9630  201.1220  147.2180 O   0  0  0  0  0  0  0  0  0  0  0  0
  160.0830  201.7190  145.1510 O   0  0  0  0  0  0  0  0  0  0  0  0
  160.8260  201.9940  146.1310 C   0  0  0  0  0  0  0  0  0  0  0  0
  161.4410  203.9060  144.9010 O   0  0  0  0  0  1  0  0  0  0  0  0
  161.5590  203.2880  146.1450 C   0  0  0  0  0  2  0  0  0  0  0  0
  2  5  1  0  0  0  0
  2  9  1  0  0  0  0
  4  1  1  6  0  0  0
  4  3  1  0  0  0  0
  5 25  1  6  0  0  0
  5  1  1  0  0  0  0
  6  4  1  0  0  0  0
  6  8  1  6  0  0  0
  6  7  1  0  0  0  0
  7  8  1  1  0  0  0
  7  3  1  0  0  0  0
  7 11  1  0  0  0  0
  9 14  1  6  0  0  0
  9  6  1  0  0  0  0
 11 12  1  6  0  0  0
 11 13  1  0  0  0  0
 11 10  1  0  0  0  0
 13 10  1  0  0  0  0
 14 22  1  6  0  0  0
 15 21  1  0  0  0  0
 16 19  1  0  0  0  0
 17 21  1  0  0  0  0
 18 16  1  0  0  0  0
 18 20  1  0  0  0  0
 19 15  1  0  0  0  0
 20 17  1  0  0  0  0
 21 14  1  1  0  0  0
 22 23  2  0  0  0  0
 22 24  1  0  0  0  0
 26 25  1  0  0  0  0
 27 26  1  0  0  0  0
 27 28  1  0  0  0  0
 29 28  1  0  0  0  0
 30 31  1  0  0  0  0
 30 32  2  0  0  0  0
 31 29  1  0  0  0  0
 33 30  1  0  0  0  0
 34 35  2  0  0  0  0
 35 37  1  0  0  0  0
 35 33  1  0  0  0  0
 36 37  1  0  0  0  0
M  END
>  <MODEL>
6

>  <REMARK>
 VINA RESULT:      -5.2      2.577      9.851
  Name = 
  13 active torsions:
  status: ('A' for Active; 'I' for Inactive)
    1  A    between atoms: C_4  and  C_23
    2  A    between atoms: C_4  and  S_27
    3  A    between atoms: C_8  and  N_17
    4  A    between atoms: C_8  and  C_25
    5  A    between atoms: O_9  and  C_11
    6  A    between atoms: O_9  and  C_20
    7  A    between atoms: C_10  and  C_12
    8  A    between atoms: C_10  and  C_34
    9  A    between atoms: C_10  and  C_36
   10  A    between atoms: C_13  and  C_33
   11  A    between atoms: C_20  and  C_24
   12  A    between atoms: C_23  and  C_26
   13  A    between atoms: C_25  and  S_27
                            x       y       z     vdW  Elec       q    Type
                         _______ _______ _______ _____ _____    ______ ____

>  <TORSDO>
F 13

$$$$
=
 OpenBabel11072410143D

 37 41  0  0  1  0  0  0  0  0999 V2000
  161.9110  210.2970  150.7630 C   0  0  0  0  0  2  0  0  0  0  0  0
  162.6220  208.0700  149.6240 C   0  0  0  0  0  2  0  0  0  0  0  0
  161.5370  209.7780  153.2920 C   0  0  0  0  0  2  0  0  0  0  0  0
  162.3000  209.4880  152.0030 C   0  0  1  0  0  3  0  0  0  0  0  0
  161.8640  209.4140  149.4840 C   0  0  2  0  0  3  0  0  0  0  0  0
  161.6120  208.1550  151.9200 C   0  0  1  0  0  0  0  0  0  0  0  0
  160.8660  208.4040  153.2230 C   0  0  2  0  0  0  0  0  0  0  0  0
  160.0820  208.1700  151.9620 C   0  0  0  0  0  2  0  0  0  0  0  0
  162.1480  207.2080  150.8250 C   0  0  1  0  0  3  0  0  0  0  0  0
  161.2600  207.7440  155.5000 O   0  0  0  0  0  0  0  0  0  0  0  0
  161.2180  207.3010  154.2200 C   0  0  2  0  0  0  0  0  0  0  0  0
  162.2410  206.2120  153.9440 C   0  0  0  0  0  1  0  0  0  0  0  0
  160.1800  206.9440  155.1480 N   0  0  0  0  0  2  0  0  0  0  0  0
  161.2090  206.0590  150.3890 C   0  0  1  0  0  3  0  0  0  0  0  0
  161.3920  204.1180  148.7400 C   0  0  0  0  0  2  0  0  0  0  0  0
  161.1380  204.1970  146.3480 O   0  0  0  0  0  0  0  0  0  0  0  0
  160.3890  206.3160  148.0120 C   0  0  0  0  0  2  0  0  0  0  0  0
  161.7120  205.4230  145.9960 C   0  0  0  0  0  2  0  0  0  0  0  0
  161.9480  203.7080  147.3800 C   0  0  0  0  0  2  0  0  0  0  0  0
  160.9300  206.5900  146.6050 C   0  0  0  0  0  2  0  0  0  0  0  0
  161.4160  205.6410  148.9220 C   0  0  1  0  0  3  0  0  0  0  0  0
  161.2670  204.8890  151.3290 C   0  0  0  0  0  0  0  0  0  0  0  0
  160.0890  204.3600  151.8380 O   0  0  0  0  0  1  0  0  0  0  0  0
  162.3690  204.3590  151.6330 O   0  0  0  0  0  0  0  0  0  0  0  0
  162.3930  210.1860  148.2880 C   0  0  0  0  0  2  0  0  0  0  0  0
  162.3500  211.6880  148.5350 C   0  0  0  0  0  2  0  0  0  0  0  0
  161.6310  212.5830  147.1190 S   0  0  0  0  0  0  0  0  0  0  0  0
  160.0860  212.9920  147.9940 C   0  0  0  0  0  2  0  0  0  0  0  0
  160.3580  213.3860  149.4400 C   0  0  0  0  0  2  0  0  0  0  0  0
  159.0470  213.2890  151.6090 C   0  0  0  0  0  0  0  0  0  0  0  0
  159.1150  213.4780  150.1920 N   0  0  0  0  0  2  0  0  0  0  0  0
  160.0810  212.9670  152.2510 O   0  0  0  0  0  0  0  0  0  0  0  0
  157.8400  213.4370  152.3040 O   0  0  0  0  0  0  0  0  0  0  0  0
  157.7940  214.1180  154.5270 O   0  0  0  0  0  0  0  0  0  0  0  0
  157.6640  213.2000  153.6730 C   0  0  0  0  0  0  0  0  0  0  0  0
  158.4470  211.0660  154.2900 O   0  0  0  0  0  1  0  0  0  0  0  0
  157.2940  211.8330  154.1280 C   0  0  0  0  0  2  0  0  0  0  0  0
  2  9  1  0  0  0  0
  4  1  1  6  0  0  0
  4  3  1  0  0  0  0
  5 25  1  6  0  0  0
  5  2  1  0  0  0  0
  5  1  1  0  0  0  0
  6  8  1  6  0  0  0
  6  4  1  0  0  0  0
  6  7  1  0  0  0  0
  7  8  1  6  0  0  0
  7  3  1  0  0  0  0
  7 11  1  0  0  0  0
  9 14  1  6  0  0  0
  9  6  1  0  0  0  0
 11 12  1  6  0  0  0
 11 13  1  0  0  0  0
 11 10  1  0  0  0  0
 13 10  1  0  0  0  0
 14 22  1  1  0  0  0
 15 21  1  0  0  0  0
 16 19  1  0  0  0  0
 17 21  1  0  0  0  0
 18 16  1  0  0  0  0
 18 20  1  0  0  0  0
 19 15  1  0  0  0  0
 20 17  1  0  0  0  0
 21 14  1  1  0  0  0
 22 24  2  0  0  0  0
 22 23  1  0  0  0  0
 25 26  1  0  0  0  0
 27 28  1  0  0  0  0
 27 26  1  0  0  0  0
 28 29  1  0  0  0  0
 29 31  1  0  0  0  0
 30 32  2  0  0  0  0
 30 33  1  0  0  0  0
 31 30  1  0  0  0  0
 33 35  1  0  0  0  0
 35 37  1  0  0  0  0
 35 34  2  0  0  0  0
 37 36  1  0  0  0  0
M  END
>  <MODEL>
7

>  <REMARK>
 VINA RESULT:      -5.1      2.786      6.211
  Name = 
  13 active torsions:
  status: ('A' for Active; 'I' for Inactive)
    1  A    between atoms: C_4  and  C_23
    2  A    between atoms: C_4  and  S_27
    3  A    between atoms: C_8  and  N_17
    4  A    between atoms: C_8  and  C_25
    5  A    between atoms: O_9  and  C_11
    6  A    between atoms: O_9  and  C_20
    7  A    between atoms: C_10  and  C_12
    8  A    between atoms: C_10  and  C_34
    9  A    between atoms: C_10  and  C_36
   10  A    between atoms: C_13  and  C_33
   11  A    between atoms: C_20  and  C_24
   12  A    between atoms: C_23  and  C_26
   13  A    between atoms: C_25  and  S_27
                            x       y       z     vdW  Elec       q    Type
                         _______ _______ _______ _____ _____    ______ ____

>  <TORSDO>
F 13

$$$$
=
 OpenBabel11072410143D

 37 41  0  0  1  0  0  0  0  0999 V2000
  162.0180  209.7650  149.6320 C   0  0  0  0  0  2  0  0  0  0  0  0
  162.6150  207.4180  150.5790 C   0  0  0  0  0  2  0  0  0  0  0  0
  161.5760  211.3250  151.6770 C   0  0  0  0  0  2  0  0  0  0  0  0
  162.3400  210.1480  151.0800 C   0  0  1  0  0  3  0  0  0  0  0  0
  161.9390  208.2240  149.4420 C   0  0  2  0  0  3  0  0  0  0  0  0
  161.5770  209.2210  151.9840 C   0  0  1  0  0  0  0  0  0  0  0  0
  160.8280  210.3820  152.6210 C   0  0  2  0  0  0  0  0  0  0  0  0
  160.0500  209.3040  151.9180 C   0  0  0  0  0  2  0  0  0  0  0  0
  162.0740  207.7590  151.9940 C   0  0  1  0  0  3  0  0  0  0  0  0
  160.3850  211.3320  154.7830 O   0  0  0  0  0  0  0  0  0  0  0  0
  161.1000  210.3870  154.1250 C   0  0  2  0  0  0  0  0  0  0  0  0
  162.4740  210.1630  154.7320 C   0  0  0  0  0  1  0  0  0  0  0  0
  159.9910  210.0110  154.9600 N   0  0  0  0  0  2  0  0  0  0  0  0
  161.0760  206.6970  152.5120 C   0  0  1  0  0  3  0  0  0  0  0  0
  160.8740  204.1560  152.6570 C   0  0  0  0  0  2  0  0  0  0  0  0
  160.6000  202.6000  150.8410 O   0  0  0  0  0  0  0  0  0  0  0  0
  160.2780  205.3600  150.5210 C   0  0  0  0  0  2  0  0  0  0  0  0
  161.3820  203.1470  149.8190 C   0  0  0  0  0  2  0  0  0  0  0  0
  161.3240  202.8470  152.0140 C   0  0  0  0  0  2  0  0  0  0  0  0
  160.8360  204.5080  149.3770 C   0  0  0  0  0  2  0  0  0  0  0  0
  161.1790  205.3590  151.7570 C   0  0  1  0  0  3  0  0  0  0  0  0
  161.1570  206.5190  154.0010 C   0  0  0  0  0  0  0  0  0  0  0  0
  160.0070  206.6330  154.7680 O   0  0  0  0  0  1  0  0  0  0  0  0
  162.2510  206.2320  154.5570 O   0  0  0  0  0  0  0  0  0  0  0  0
  162.5300  207.8260  148.1010 C   0  0  0  0  0  2  0  0  0  0  0  0
  161.5910  206.9050  147.3330 C   0  0  0  0  0  2  0  0  0  0  0  0
  162.5080  205.6760  146.3480 S   0  0  0  0  0  0  0  0  0  0  0  0
  161.4170  205.8310  144.8970 C   0  0  0  0  0  2  0  0  0  0  0  0
  160.8520  204.4770  144.4850 C   0  0  0  0  0  2  0  0  0  0  0  0
  160.3610  202.2170  145.5270 C   0  0  0  0  0  0  0  0  0  0  0  0
  160.9310  203.5280  145.5870 N   0  0  0  0  0  2  0  0  0  0  0  0
  159.7020  201.8630  144.5140 O   0  0  0  0  0  0  0  0  0  0  0  0
  160.5030  201.3140  146.5880 O   0  0  0  0  0  0  0  0  0  0  0  0
  161.9530  199.6840  147.3910 O   0  0  0  0  0  0  0  0  0  0  0  0
  161.1430  200.0700  146.5070 C   0  0  0  0  0  0  0  0  0  0  0  0
  161.6090  198.0160  145.4540 O   0  0  0  0  0  1  0  0  0  0  0  0
  160.8400  199.1750  145.3590 C   0  0  0  0  0  2  0  0  0  0  0  0
  2  9  1  0  0  0  0
  4  1  1  6  0  0  0
  4  3  1  0  0  0  0
  4  6  1  0  0  0  0
  5 25  1  6  0  0  0
  5  1  1  0  0  0  0
  5  2  1  0  0  0  0
  6  8  1  6  0  0  0
  6  9  1  0  0  0  0
  6  7  1  0  0  0  0
  7  3  1  6  0  0  0
  7 11  1  0  0  0  0
  8  7  1  0  0  0  0
  9 14  1  6  0  0  0
 10 13  1  0  0  0  0
 11 12  1  1  0  0  0
 11 10  1  0  0  0  0
 11 13  1  0  0  0  0
 14 22  1  1  0  0  0
 16 19  1  0  0  0  0
 17 21  1  0  0  0  0
 18 16  1  0  0  0  0
 19 15  1  0  0  0  0
 20 18  1  0  0  0  0
 20 17  1  0  0  0  0
 21 14  1  1  0  0  0
 21 15  1  0  0  0  0
 22 24  2  0  0  0  0
 22 23  1  0  0  0  0
 26 25  1  0  0  0  0
 27 26  1  0  0  0  0
 28 27  1  0  0  0  0
 29 28  1  0  0  0  0
 29 31  1  0  0  0  0
 30 31  1  0  0  0  0
 30 33  1  0  0  0  0
 32 30  2  0  0  0  0
 35 33  1  0  0  0  0
 35 34  2  0  0  0  0
 37 36  1  0  0  0  0
 37 35  1  0  0  0  0
M  END
>  <MODEL>
8

>  <REMARK>
 VINA RESULT:      -5.1      1.855      8.783
  Name = 
  13 active torsions:
  status: ('A' for Active; 'I' for Inactive)
    1  A    between atoms: C_4  and  C_23
    2  A    between atoms: C_4  and  S_27
    3  A    between atoms: C_8  and  N_17
    4  A    between atoms: C_8  and  C_25
    5  A    between atoms: O_9  and  C_11
    6  A    between atoms: O_9  and  C_20
    7  A    between atoms: C_10  and  C_12
    8  A    between atoms: C_10  and  C_34
    9  A    between atoms: C_10  and  C_36
   10  A    between atoms: C_13  and  C_33
   11  A    between atoms: C_20  and  C_24
   12  A    between atoms: C_23  and  C_26
   13  A    between atoms: C_25  and  S_27
                            x       y       z     vdW  Elec       q    Type
                         _______ _______ _______ _____ _____    ______ ____

>  <TORSDO>
F 13

$$$$
=
 OpenBabel11072410143D

 37 41  0  0  1  0  0  0  0  0999 V2000
  161.9680  207.5240  153.0690 C   0  0  0  0  0  2  0  0  0  0  0  0
  160.5520  209.0140  151.4760 C   0  0  0  0  0  2  0  0  0  0  0  0
  161.2980  208.1600  155.5090 C   0  0  0  0  0  2  0  0  0  0  0  0
  160.8890  207.9930  154.0490 C   0  0  1  0  0  3  0  0  0  0  0  0
  161.9020  208.2940  151.7190 C   0  0  2  0  0  3  0  0  0  0  0  0
  160.7750  209.4860  153.9320 C   0  0  1  0  0  0  0  0  0  0  0  0
  161.1450  209.6780  155.3950 C   0  0  2  0  0  0  0  0  0  0  0  0
  162.0070  210.3000  154.3320 C   0  0  0  0  0  2  0  0  0  0  0  0
  160.1530  209.9940  152.6120 C   0  0  1  0  0  3  0  0  0  0  0  0
  158.7840  209.9930  155.7120 O   0  0  0  0  0  0  0  0  0  0  0  0
  160.0110  210.4150  156.1050 C   0  0  2  0  0  0  0  0  0  0  0  0
  160.0430  211.8990  156.4280 C   0  0  0  0  0  1  0  0  0  0  0  0
  159.2000  209.6150  156.9830 N   0  0  0  0  0  2  0  0  0  0  0  0
  160.4360  211.4690  152.2420 C   0  0  1  0  0  3  0  0  0  0  0  0
  160.1870  213.0460  150.2490 C   0  0  0  0  0  2  0  0  0  0  0  0
  161.3500  212.9470  148.1450 O   0  0  0  0  0  0  0  0  0  0  0  0
  162.1380  211.4520  150.3730 C   0  0  0  0  0  2  0  0  0  0  0  0
  161.4620  211.5750  147.8960 C   0  0  0  0  0  2  0  0  0  0  0  0
  160.0860  213.1000  148.7280 C   0  0  0  0  0  2  0  0  0  0  0  0
  162.3260  210.8920  148.9600 C   0  0  0  0  0  2  0  0  0  0  0  0
  160.6680  211.6730  150.7330 C   0  0  1  0  0  3  0  0  0  0  0  0
  159.3950  212.4030  152.7900 C   0  0  0  0  0  0  0  0  0  0  0  0
  158.0590  212.0290  152.7670 O   0  0  0  0  0  0  0  0  0  0  0  0
  159.7240  213.5060  153.3030 O   0  0  0  0  0  1  0  0  0  0  0  0
  162.2070  207.3600  150.5620 C   0  0  0  0  0  2  0  0  0  0  0  0
  161.2690  207.6090  149.3870 C   0  0  0  0  0  2  0  0  0  0  0  0
  160.4470  206.0750  148.8460 S   0  0  0  0  0  0  0  0  0  0  0  0
  160.9170  206.2850  147.0980 C   0  0  0  0  0  2  0  0  0  0  0  0
  161.8700  205.1860  146.6460 C   0  0  0  0  0  2  0  0  0  0  0  0
  161.2100  202.7460  146.8660 C   0  0  0  0  0  0  0  0  0  0  0  0
  161.6720  203.9770  147.4320 N   0  0  0  0  0  2  0  0  0  0  0  0
  160.8940  202.6950  145.6480 O   0  0  0  0  0  0  0  0  0  0  0  0
  161.0820  201.5900  147.6450 O   0  0  0  0  0  0  0  0  0  0  0  0
  159.1840  201.5890  148.9870 O   0  0  0  0  0  0  0  0  0  0  0  0
  160.4380  201.5230  148.8870 C   0  0  0  0  0  0  0  0  0  0  0  0
  160.8210  202.2380  151.0980 O   0  0  0  0  0  1  0  0  0  0  0  0
  161.2560  201.3480  150.1170 C   0  0  0  0  0  2  0  0  0  0  0  0
  2  5  1  0  0  0  0
  2  9  1  0  0  0  0
  4  1  1  6  0  0  0
  4  3  1  0  0  0  0
  5 25  1  6  0  0  0
  5  1  1  0  0  0  0
  6  4  1  0  0  0  0
  6  8  1  6  0  0  0
  6  7  1  0  0  0  0
  7  8  1  1  0  0  0
  7  3  1  0  0  0  0
  7 11  1  0  0  0  0
  9 14  1  6  0  0  0
  9  6  1  0  0  0  0
 10 11  1  0  0  0  0
 10 13  1  0  0  0  0
 11 12  1  1  0  0  0
 11 13  1  0  0  0  0
 14 22  1  6  0  0  0
 15 21  1  0  0  0  0
 16 19  1  0  0  0  0
 17 21  1  0  0  0  0
 18 16  1  0  0  0  0
 18 20  1  0  0  0  0
 19 15  1  0  0  0  0
 20 17  1  0  0  0  0
 21 14  1  1  0  0  0
 22 24  1  0  0  0  0
 23 22  2  0  0  0  0
 26 25  1  0  0  0  0
 27 26  1  0  0  0  0
 28 27  1  0  0  0  0
 29 28  1  0  0  0  0
 29 31  1  0  0  0  0
 30 31  1  0  0  0  0
 30 33  1  0  0  0  0
 32 30  2  0  0  0  0
 33 35  1  0  0  0  0
 35 34  2  0  0  0  0
 35 37  1  0  0  0  0
 37 36  1  0  0  0  0
M  END
>  <MODEL>
9

>  <REMARK>
 VINA RESULT:      -4.9      2.530      9.478
  Name = 
  13 active torsions:
  status: ('A' for Active; 'I' for Inactive)
    1  A    between atoms: C_4  and  C_23
    2  A    between atoms: C_4  and  S_27
    3  A    between atoms: C_8  and  N_17
    4  A    between atoms: C_8  and  C_25
    5  A    between atoms: O_9  and  C_11
    6  A    between atoms: O_9  and  C_20
    7  A    between atoms: C_10  and  C_12
    8  A    between atoms: C_10  and  C_34
    9  A    between atoms: C_10  and  C_36
   10  A    between atoms: C_13  and  C_33
   11  A    between atoms: C_20  and  C_24
   12  A    between atoms: C_23  and  C_26
   13  A    between atoms: C_25  and  S_27
                            x       y       z     vdW  Elec       q    Type
                         _______ _______ _______ _____ _____    ______ ____

>  <TORSDO>
F 13

$$$$
