=
 OpenBabel11072410083D

 43 48  0  0  1  0  0  0  0  0999 V2000
  162.1830  210.5120  157.2590 N   0  0  0  0  0  0  0  0  0  0  0  0
  159.3380  212.8010  153.7420 C   0  0  2  0  0  3  0  0  0  0  0  0
  161.5710  209.9750  150.7990 C   0  0  0  0  0  0  0  0  0  0  0  0
  162.3030  209.1210  150.2320 O   0  0  0  0  0  0  0  0  0  0  0  0
  161.0060  208.6500  152.8700 C   0  0  0  0  0  0  0  0  0  0  0  0
  162.3420  208.2720  156.6590 O   0  0  0  0  0  0  0  0  0  0  0  0
  160.3620  211.7170  156.2320 C   0  0  1  0  0  3  0  0  0  0  0  0
  160.5340  210.8840  154.9730 C   0  0  0  0  0  0  0  0  0  0  0  0
  160.6950  206.4090  153.3320 O   0  0  0  0  0  0  0  0  0  0  0  0
  160.0660  211.4780  153.6730 C   0  0  0  0  0  0  0  0  0  0  0  0
  161.0830  209.6500  155.1490 C   0  0  0  0  0  0  0  0  0  0  0  0
  160.8380  207.3250  152.3120 C   0  0  0  0  0  0  0  0  0  0  0  0
  161.5320  211.6290  157.1670 C   0  0  0  0  0  3  0  0  0  0  0  0
  160.4360  211.0550  152.4420 C   0  0  0  0  0  0  0  0  0  0  0  0
  159.8270  213.6840  154.8030 N   0  0  0  0  0  2  0  0  0  0  0  0
  160.2100  211.8670  151.1960 C   0  0  0  0  0  2  0  0  0  0  0  0
  160.7550  207.0960  154.5770 C   0  0  0  0  0  2  0  0  0  0  0  0
  160.7780  207.0290  151.0900 O   0  0  0  0  0  0  0  0  0  0  0  0
  161.1780  209.8770  152.1610 N   0  0  0  0  0  0  0  0  0  0  0  0
  161.0550  211.1930  150.1150 C   0  0  1  0  0  3  0  0  0  0  0  0
  161.8690  209.4090  156.3970 C   0  0  0  0  0  0  0  0  0  0  0  0
  159.6270  213.0630  156.1050 C   0  0  2  0  0  3  0  0  0  0  0  0
  159.9420  214.0530  157.2160 C   0  0  0  0  0  1  0  0  0  0  0  0
  160.9390  208.5430  154.1830 C   0  0  0  0  0  0  0  0  0  0  0  0
  157.8360  212.7330  153.6040 C   0  0  0  0  0  0  0  0  0  0  0  0
  156.7580  214.0700  151.6370 C   0  0  0  0  0  3  0  0  0  0  0  0
  157.2980  213.4050  152.6200 C   0  0  0  0  0  0  0  0  0  0  0  0
  157.0420  212.2420  155.8050 F   0  0  0  0  0  0  0  0  0  0  0  0
  155.6460  211.9390  154.0770 F   0  0  0  0  0  0  0  0  0  0  0  0
  157.3900  210.5420  154.3850 F   0  0  0  0  0  0  0  0  0  0  0  0
  156.9680  211.8550  154.4760 C   0  0  0  0  0  0  0  0  0  0  0  0
  155.9240  214.1910  149.3350 C   0  0  0  0  0  1  0  0  0  0  0  0
  157.0260  213.6680  150.2310 C   0  0  0  0  0  2  0  0  0  0  0  0
  162.1980  212.1240  149.7310 C   0  0  0  0  0  2  0  0  0  0  0  0
  161.8830  212.8800  148.4520 C   0  0  0  0  0  2  0  0  0  0  0  0
  161.4820  211.9800  147.4480 O   0  0  0  0  0  0  0  0  0  0  0  0
  160.5560  212.6300  146.6070 C   0  0  0  0  0  3  0  0  0  0  0  0
  160.2650  213.9680  144.4170 C   0  0  0  0  0  2  0  0  0  0  0  0
  159.6900  213.6670  147.3530 C   0  0  0  0  0  2  0  0  0  0  0  0
  158.0370  213.1840  145.4570 C   0  0  0  0  0  2  0  0  0  0  0  0
  161.1760  213.0800  145.2680 C   0  0  0  0  0  2  0  0  0  0  0  0
  158.8730  213.3710  144.1810 C   0  0  0  0  0  2  0  0  0  0  0  0
  158.4460  214.1380  146.5810 C   0  0  0  0  0  2  0  0  0  0  0  0
  2 25  1  1  0  0  0
  2 15  1  0  0  0  0
  3 19  1  0  0  0  0
  4  3  2  0  0  0  0
  5 24  2  0  0  0  0
  7 13  1  6  0  0  0
  8 11  2  0  0  0  0
  8  7  1  0  0  0  0
  9 17  1  0  0  0  0
 10  2  1  0  0  0  0
 10  8  1  0  0  0  0
 11 21  1  0  0  0  0
 12  5  1  0  0  0  0
 12  9  1  0  0  0  0
 13  1  2  0  0  0  0
 14 10  2  0  0  0  0
 15 22  1  0  0  0  0
 16 14  1  0  0  0  0
 18 12  2  0  0  0  0
 19 14  1  0  0  0  0
 19  5  1  0  0  0  0
 20 34  1  1  0  0  0
 20  3  1  0  0  0  0
 20 16  1  0  0  0  0
 21  6  2  0  0  0  0
 21  1  1  0  0  0  0
 22  7  1  0  0  0  0
 22 23  1  1  0  0  0
 24 17  1  0  0  0  0
 24 11  1  0  0  0  0
 25 31  1  0  0  0  0
 26 27  2  0  0  0  0
 27 25  2  0  0  0  0
 29 31  1  0  0  0  0
 30 31  1  0  0  0  0
 31 28  1  0  0  0  0
 32 33  1  0  0  0  0
 33 26  1  0  0  0  0
 35 34  1  0  0  0  0
 36 35  1  0  0  0  0
 37 39  1  0  0  0  0
 37 36  1  0  0  0  0
 38 41  1  0  0  0  0
 40 43  1  0  0  0  0
 41 37  1  0  0  0  0
 42 38  1  0  0  0  0
 42 40  1  0  0  0  0
 43 39  1  0  0  0  0
M  END
>  <MODEL>
1

>  <REMARK>
 VINA RESULT:      -5.2      0.000      0.000
  Name = 
  7 active torsions:
  status: ('A' for Active; 'I' for Inactive)
    1  A    between atoms: C_1  and  O_31
    2  A    between atoms: C_3  and  C_11
    3  A    between atoms: C_11  and  C_34
    4  A    between atoms: C_16  and  C_28
    5  A    between atoms: C_16  and  O_31
    6  A    between atoms: C_18  and  C_26
    7  A    between atoms: C_28  and  C_39
                            x       y       z     vdW  Elec       q    Type
                         _______ _______ _______ _____ _____    ______ ____

>  <TORSDO>
F 7

$$$$
=
 OpenBabel11072410083D

 43 48  0  0  1  0  0  0  0  0999 V2000
  157.4610  213.9140  150.1130 N   0  0  0  0  0  0  0  0  0  0  0  0
  159.8160  210.9320  153.4690 C   0  0  2  0  0  3  0  0  0  0  0  0
  161.8860  209.1560  149.7010 C   0  0  0  0  0  0  0  0  0  0  0  0
  162.2910  208.8600  148.5460 O   0  0  0  0  0  0  0  0  0  0  0  0
  161.7670  211.6590  149.4140 C   0  0  0  0  0  0  0  0  0  0  0  0
  159.0130  214.4530  148.4680 O   0  0  0  0  0  0  0  0  0  0  0  0
  158.4050  213.1200  152.1870 C   0  0  1  0  0  3  0  0  0  0  0  0
  159.5220  212.4450  151.4080 C   0  0  0  0  0  0  0  0  0  0  0  0
  162.9690  213.2150  148.2040 O   0  0  0  0  0  0  0  0  0  0  0  0
  160.2040  211.2660  152.0460 C   0  0  0  0  0  0  0  0  0  0  0  0
  159.8180  212.9940  150.1980 C   0  0  0  0  0  0  0  0  0  0  0  0
  162.9530  211.9010  148.6210 C   0  0  0  0  0  0  0  0  0  0  0  0
  157.2420  213.5220  151.3290 C   0  0  0  0  0  3  0  0  0  0  0  0
  160.9540  210.3490  151.3920 C   0  0  0  0  0  0  0  0  0  0  0  0
  158.4080  211.2000  153.7700 N   0  0  0  0  0  2  0  0  0  0  0  0
  161.3410  209.0270  151.9980 C   0  0  0  0  0  2  0  0  0  0  0  0
  161.8130  213.8710  148.7120 C   0  0  0  0  0  2  0  0  0  0  0  0
  163.8710  211.0760  148.3720 O   0  0  0  0  0  0  0  0  0  0  0  0
  161.3740  210.4360  150.0390 N   0  0  0  0  0  0  0  0  0  0  0  0
  161.8760  208.1910  150.8360 C   0  0  1  0  0  3  0  0  0  0  0  0
  158.7800  213.8530  149.5510 C   0  0  0  0  0  0  0  0  0  0  0  0
  158.1230  212.6190  153.6140 C   0  0  2  0  0  3  0  0  0  0  0  0
  156.7240  212.9350  154.1200 C   0  0  0  0  0  1  0  0  0  0  0  0
  161.1020  212.7950  149.4980 C   0  0  0  0  0  0  0  0  0  0  0  0
  160.7950  211.3620  154.5350 C   0  0  0  0  0  0  0  0  0  0  0  0
  160.0390  213.2710  156.1480 C   0  0  0  0  0  3  0  0  0  0  0  0
  160.4160  212.3200  155.3400 C   0  0  0  0  0  0  0  0  0  0  0  0
  162.7950  211.2270  155.8380 F   0  0  0  0  0  0  0  0  0  0  0  0
  161.9210  209.3280  155.0300 F   0  0  0  0  0  0  0  0  0  0  0  0
  162.9150  210.8000  153.6400 F   0  0  0  0  0  0  0  0  0  0  0  0
  162.1200  210.6700  154.7630 C   0  0  0  0  0  0  0  0  0  0  0  0
  158.5400  211.5750  157.0870 C   0  0  0  0  0  1  0  0  0  0  0  0
  158.9200  213.0400  157.0990 C   0  0  0  0  0  2  0  0  0  0  0  0
  160.9090  207.0450  150.5660 C   0  0  0  0  0  2  0  0  0  0  0  0
  161.6560  205.7690  150.2150 C   0  0  0  0  0  2  0  0  0  0  0  0
  160.8210  204.9120  149.4760 O   0  0  0  0  0  0  0  0  0  0  0  0
  161.2140  204.9610  148.1230 C   0  0  0  0  0  3  0  0  0  0  0  0
  160.7420  206.0340  145.8220 C   0  0  0  0  0  2  0  0  0  0  0  0
  161.2640  203.5680  147.4600 C   0  0  0  0  0  2  0  0  0  0  0  0
  162.9560  204.7120  145.9150 C   0  0  0  0  0  2  0  0  0  0  0  0
  160.5030  206.0780  147.3320 C   0  0  0  0  0  2  0  0  0  0  0  0
  162.2250  205.9760  145.4370 C   0  0  0  0  0  2  0  0  0  0  0  0
  162.0160  203.5220  146.1190 C   0  0  0  0  0  2  0  0  0  0  0  0
  1 13  2  0  0  0  0
  2 15  1  0  0  0  0
  2 25  1  1  0  0  0
  3 19  1  0  0  0  0
  3 20  1  0  0  0  0
  4  3  2  0  0  0  0
  5 24  2  0  0  0  0
  5 19  1  0  0  0  0
  6 21  2  0  0  0  0
  7 13  1  6  0  0  0
  7 22  1  0  0  0  0
  8 10  1  0  0  0  0
  8  7  1  0  0  0  0
  9 12  1  0  0  0  0
  9 17  1  0  0  0  0
 10  2  1  0  0  0  0
 11  8  2  0  0  0  0
 12  5  1  0  0  0  0
 14 16  1  0  0  0  0
 14 10  2  0  0  0  0
 17 24  1  0  0  0  0
 18 12  2  0  0  0  0
 19 14  1  0  0  0  0
 20 34  1  6  0  0  0
 20 16  1  0  0  0  0
 21  1  1  0  0  0  0
 21 11  1  0  0  0  0
 22 15  1  0  0  0  0
 22 23  1  6  0  0  0
 24 11  1  0  0  0  0
 25 31  1  0  0  0  0
 25 27  2  0  0  0  0
 26 33  1  0  0  0  0
 27 26  2  0  0  0  0
 30 31  1  0  0  0  0
 31 29  1  0  0  0  0
 31 28  1  0  0  0  0
 32 33  1  0  0  0  0
 35 34  1  0  0  0  0
 36 35  1  0  0  0  0
 37 36  1  0  0  0  0
 38 41  1  0  0  0  0
 39 37  1  0  0  0  0
 40 43  1  0  0  0  0
 41 37  1  0  0  0  0
 42 38  1  0  0  0  0
 42 40  1  0  0  0  0
 43 39  1  0  0  0  0
M  END
>  <MODEL>
2

>  <REMARK>
 VINA RESULT:      -5.1      3.361      6.501
  Name = 
  7 active torsions:
  status: ('A' for Active; 'I' for Inactive)
    1  A    between atoms: C_1  and  O_31
    2  A    between atoms: C_3  and  C_11
    3  A    between atoms: C_11  and  C_34
    4  A    between atoms: C_16  and  C_28
    5  A    between atoms: C_16  and  O_31
    6  A    between atoms: C_18  and  C_26
    7  A    between atoms: C_28  and  C_39
                            x       y       z     vdW  Elec       q    Type
                         _______ _______ _______ _____ _____    ______ ____

>  <TORSDO>
F 7

$$$$
=
 OpenBabel11072410083D

 43 48  0  0  1  0  0  0  0  0999 V2000
  159.8780  213.7270  150.2070 N   0  0  0  0  0  0  0  0  0  0  0  0
  162.0810  209.7130  152.3850 C   0  0  2  0  0  3  0  0  0  0  0  0
  161.0910  211.9360  156.3490 C   0  0  0  0  0  0  0  0  0  0  0  0
  160.7160  212.7300  157.2520 O   0  0  0  0  0  0  0  0  0  0  0  0
  159.1110  212.1820  154.8050 C   0  0  0  0  0  0  0  0  0  0  0  0
  158.0800  214.3340  151.5500 O   0  0  0  0  0  0  0  0  0  0  0  0
  160.6950  211.4820  150.5470 C   0  0  1  0  0  3  0  0  0  0  0  0
  160.3650  211.5970  152.0270 C   0  0  0  0  0  0  0  0  0  0  0  0
  156.8540  212.5690  155.1040 O   0  0  0  0  0  0  0  0  0  0  0  0
  161.1350  210.7290  152.9830 C   0  0  0  0  0  0  0  0  0  0  0  0
  159.3720  212.4720  152.3460 C   0  0  0  0  0  0  0  0  0  0  0  0
  158.0250  212.2510  155.7600 C   0  0  0  0  0  0  0  0  0  0  0  0
  160.7100  212.8040  149.8380 C   0  0  0  0  0  3  0  0  0  0  0  0
  161.2290  210.9300  154.3180 C   0  0  0  0  0  0  0  0  0  0  0  0
  162.7210  210.1670  151.1480 N   0  0  0  0  0  2  0  0  0  0  0  0
  162.2560  210.2450  155.1780 C   0  0  0  0  0  2  0  0  0  0  0  0
  157.1290  212.7070  153.7150 C   0  0  0  0  0  2  0  0  0  0  0  0
  158.0960  212.0160  156.9940 O   0  0  0  0  0  0  0  0  0  0  0  0
  160.4810  211.8760  155.0670 N   0  0  0  0  0  0  0  0  0  0  0  0
  162.2300  210.9900  156.5120 C   0  0  1  0  0  3  0  0  0  0  0  0
  159.0360  213.5370  151.3530 C   0  0  0  0  0  0  0  0  0  0  0  0
  161.7160  210.4120  150.1230 C   0  0  2  0  0  3  0  0  0  0  0  0
  162.3840  210.6840  148.7840 C   0  0  0  0  0  1  0  0  0  0  0  0
  158.6090  212.4220  153.6090 C   0  0  0  0  0  0  0  0  0  0  0  0
  161.5880  208.2860  152.3670 C   0  0  0  0  0  0  0  0  0  0  0  0
  161.0270  207.1900  154.6700 C   0  0  0  0  0  3  0  0  0  0  0  0
  161.3100  207.7380  153.5210 C   0  0  0  0  0  0  0  0  0  0  0  0
  160.4840  208.2500  150.2460 F   0  0  0  0  0  0  0  0  0  0  0  0
  162.4950  207.2730  150.4180 F   0  0  0  0  0  0  0  0  0  0  0  0
  160.6890  206.3290  151.3830 F   0  0  0  0  0  0  0  0  0  0  0  0
  161.3130  207.5260  151.0890 C   0  0  0  0  0  0  0  0  0  0  0  0
  160.2720  207.7130  156.9420 C   0  0  0  0  0  1  0  0  0  0  0  0
  159.8890  207.7000  155.4780 C   0  0  0  0  0  2  0  0  0  0  0  0
  163.5420  211.7450  156.6820 C   0  0  0  0  0  2  0  0  0  0  0  0
  164.6610  211.0800  155.9000 C   0  0  0  0  0  2  0  0  0  0  0  0
  165.2800  212.0180  155.0550 O   0  0  0  0  0  0  0  0  0  0  0  0
  166.5880  212.2530  155.5270 C   0  0  0  0  0  3  0  0  0  0  0  0
  168.4030  214.0480  155.9230 C   0  0  0  0  0  2  0  0  0  0  0  0
  167.6400  211.3380  154.8660 C   0  0  0  0  0  2  0  0  0  0  0  0
  168.9280  211.7790  157.0350 C   0  0  0  0  0  2  0  0  0  0  0  0
  166.9330  213.7540  155.6150 C   0  0  0  0  0  2  0  0  0  0  0  0
  168.9300  213.3110  157.1600 C   0  0  0  0  0  2  0  0  0  0  0  0
  168.9990  211.2990  155.5840 C   0  0  0  0  0  2  0  0  0  0  0  0
  1 21  1  0  0  0  0
  2 25  1  6  0  0  0
  2 10  1  0  0  0  0
  3 20  1  0  0  0  0
  3  4  2  0  0  0  0
  5 19  1  0  0  0  0
  5 12  1  0  0  0  0
  7 13  1  1  0  0  0
  7  8  1  0  0  0  0
  8 11  2  0  0  0  0
  8 10  1  0  0  0  0
  9 12  1  0  0  0  0
 10 14  2  0  0  0  0
 11 24  1  0  0  0  0
 12 18  2  0  0  0  0
 13  1  2  0  0  0  0
 14 19  1  0  0  0  0
 14 16  1  0  0  0  0
 15  2  1  0  0  0  0
 16 20  1  0  0  0  0
 17  9  1  0  0  0  0
 19  3  1  0  0  0  0
 20 34  1  6  0  0  0
 21  6  2  0  0  0  0
 21 11  1  0  0  0  0
 22 23  1  6  0  0  0
 22  7  1  0  0  0  0
 22 15  1  0  0  0  0
 24 17  1  0  0  0  0
 24  5  2  0  0  0  0
 25 27  2  0  0  0  0
 26 33  1  0  0  0  0
 27 26  2  0  0  0  0
 28 31  1  0  0  0  0
 29 31  1  0  0  0  0
 31 30  1  0  0  0  0
 31 25  1  0  0  0  0
 33 32  1  0  0  0  0
 35 34  1  0  0  0  0
 36 37  1  0  0  0  0
 36 35  1  0  0  0  0
 37 41  1  0  0  0  0
 38 42  1  0  0  0  0
 39 37  1  0  0  0  0
 39 43  1  0  0  0  0
 40 42  1  0  0  0  0
 41 38  1  0  0  0  0
 43 40  1  0  0  0  0
M  END
>  <MODEL>
3

>  <REMARK>
 VINA RESULT:      -3.8      4.019      8.366
  Name = 
  7 active torsions:
  status: ('A' for Active; 'I' for Inactive)
    1  A    between atoms: C_1  and  O_31
    2  A    between atoms: C_3  and  C_11
    3  A    between atoms: C_11  and  C_34
    4  A    between atoms: C_16  and  C_28
    5  A    between atoms: C_16  and  O_31
    6  A    between atoms: C_18  and  C_26
    7  A    between atoms: C_28  and  C_39
                            x       y       z     vdW  Elec       q    Type
                         _______ _______ _______ _____ _____    ______ ____

>  <TORSDO>
F 7

$$$$
=
 OpenBabel11072410083D

 43 48  0  0  1  0  0  0  0  0999 V2000
  160.2520  213.4680  150.0850 N   0  0  0  0  0  0  0  0  0  0  0  0
  161.7080  209.5640  152.9730 C   0  0  2  0  0  3  0  0  0  0  0  0
  160.2430  212.2450  156.4800 C   0  0  0  0  0  0  0  0  0  0  0  0
  159.7860  213.1510  157.2260 O   0  0  0  0  0  0  0  0  0  0  0  0
  158.5830  212.4610  154.5920 C   0  0  0  0  0  0  0  0  0  0  0  0
  158.3070  214.3280  151.0250 O   0  0  0  0  0  0  0  0  0  0  0  0
  160.8090  211.2210  150.7660 C   0  0  1  0  0  3  0  0  0  0  0  0
  160.2410  211.5100  152.1460 C   0  0  0  0  0  0  0  0  0  0  0  0
  156.3490  213.0250  154.4480 O   0  0  0  0  0  0  0  0  0  0  0  0
  160.7610  210.6960  153.2990 C   0  0  0  0  0  0  0  0  0  0  0  0
  159.2840  212.4770  152.2030 C   0  0  0  0  0  0  0  0  0  0  0  0
  157.3600  212.7000  155.3270 C   0  0  0  0  0  0  0  0  0  0  0  0
  161.0550  212.4580  149.9540 C   0  0  0  0  0  3  0  0  0  0  0  0
  160.6420  211.0280  154.6060 C   0  0  0  0  0  0  0  0  0  0  0  0
  162.5860  209.8440  151.8340 N   0  0  0  0  0  2  0  0  0  0  0  0
  161.4460  210.3680  155.6930 C   0  0  0  0  0  2  0  0  0  0  0  0
  156.8680  213.0000  153.1230 C   0  0  0  0  0  2  0  0  0  0  0  0
  157.1990  212.5890  156.5710 O   0  0  0  0  0  0  0  0  0  0  0  0
  159.8580  212.0940  155.1210 N   0  0  0  0  0  0  0  0  0  0  0  0
  161.2540  211.2480  156.9290 C   0  0  1  0  0  3  0  0  0  0  0  0
  159.2130  213.4530  151.0740 C   0  0  0  0  0  0  0  0  0  0  0  0
  161.7950  210.0480  150.6290 C   0  0  2  0  0  3  0  0  0  0  0  0
  162.7020  210.1360  149.4110 C   0  0  0  0  0  1  0  0  0  0  0  0
  158.3150  212.6080  153.3090 C   0  0  0  0  0  0  0  0  0  0  0  0
  161.1080  208.1780  152.9960 C   0  0  0  0  0  0  0  0  0  0  0  0
  160.8400  206.9570  150.7040 C   0  0  0  0  0  3  0  0  0  0  0  0
  160.9720  207.5690  151.8470 C   0  0  0  0  0  0  0  0  0  0  0  0
  160.4210  206.1320  154.0250 F   0  0  0  0  0  0  0  0  0  0  0  0
  161.8500  207.4550  155.1350 F   0  0  0  0  0  0  0  0  0  0  0  0
  159.6930  208.0670  154.8920 F   0  0  0  0  0  0  0  0  0  0  0  0
  160.7660  207.4510  154.2770 C   0  0  0  0  0  0  0  0  0  0  0  0
  161.6790  206.3890  148.4720 C   0  0  0  0  0  1  0  0  0  0  0  0
  162.0440  206.5530  149.9320 C   0  0  0  0  0  2  0  0  0  0  0  0
  162.5760  211.9280  157.2610 C   0  0  0  0  0  2  0  0  0  0  0  0
  163.7080  211.3670  156.4170 C   0  0  0  0  0  2  0  0  0  0  0  0
  164.8520  211.1800  157.2120 O   0  0  0  0  0  0  0  0  0  0  0  0
  165.9380  211.8360  156.5970 C   0  0  0  0  0  3  0  0  0  0  0  0
  167.3070  214.0230  156.5000 C   0  0  0  0  0  2  0  0  0  0  0  0
  165.8530  211.8240  155.0550 C   0  0  0  0  0  2  0  0  0  0  0  0
  168.3970  212.0600  155.2270 C   0  0  0  0  0  2  0  0  0  0  0  0
  166.2770  213.1860  157.2600 C   0  0  0  0  0  2  0  0  0  0  0  0
  168.5950  213.2590  156.1680 C   0  0  0  0  0  2  0  0  0  0  0  0
  167.1600  212.1990  154.3370 C   0  0  0  0  0  2  0  0  0  0  0  0
  1 21  1  0  0  0  0
  2 25  1  6  0  0  0
  2 10  1  0  0  0  0
  3 20  1  0  0  0  0
  3  4  2  0  0  0  0
  5 19  1  0  0  0  0
  5 12  1  0  0  0  0
  6 21  2  0  0  0  0
  7 13  1  1  0  0  0
  7  8  1  0  0  0  0
  8 11  2  0  0  0  0
  8 10  1  0  0  0  0
  9 12  1  0  0  0  0
 10 14  2  0  0  0  0
 11 24  1  0  0  0  0
 12 18  2  0  0  0  0
 13  1  2  0  0  0  0
 14 19  1  0  0  0  0
 14 16  1  0  0  0  0
 15  2  1  0  0  0  0
 16 20  1  0  0  0  0
 17 24  1  0  0  0  0
 17  9  1  0  0  0  0
 19  3  1  0  0  0  0
 20 34  1  6  0  0  0
 21 11  1  0  0  0  0
 22 23  1  6  0  0  0
 22  7  1  0  0  0  0
 22 15  1  0  0  0  0
 24  5  2  0  0  0  0
 25 31  1  0  0  0  0
 26 27  2  0  0  0  0
 27 25  2  0  0  0  0
 28 31  1  0  0  0  0
 31 30  1  0  0  0  0
 31 29  1  0  0  0  0
 32 33  1  0  0  0  0
 33 26  1  0  0  0  0
 35 36  1  0  0  0  0
 35 34  1  0  0  0  0
 37 36  1  0  0  0  0
 37 41  1  0  0  0  0
 38 41  1  0  0  0  0
 39 37  1  0  0  0  0
 40 42  1  0  0  0  0
 42 38  1  0  0  0  0
 43 39  1  0  0  0  0
 43 40  1  0  0  0  0
M  END
>  <MODEL>
4

>  <REMARK>
 VINA RESULT:      -3.8      3.676      8.161
  Name = 
  7 active torsions:
  status: ('A' for Active; 'I' for Inactive)
    1  A    between atoms: C_1  and  O_31
    2  A    between atoms: C_3  and  C_11
    3  A    between atoms: C_11  and  C_34
    4  A    between atoms: C_16  and  C_28
    5  A    between atoms: C_16  and  O_31
    6  A    between atoms: C_18  and  C_26
    7  A    between atoms: C_28  and  C_39
                            x       y       z     vdW  Elec       q    Type
                         _______ _______ _______ _____ _____    ______ ____

>  <TORSDO>
F 7

$$$$
=
 OpenBabel11072410083D

 43 48  0  0  1  0  0  0  0  0999 V2000
  156.2280  213.7820  149.9730 N   0  0  0  0  0  0  0  0  0  0  0  0
  158.6170  211.6320  153.8940 C   0  0  2  0  0  3  0  0  0  0  0  0
  161.4410  209.9340  150.6110 C   0  0  0  0  0  0  0  0  0  0  0  0
  162.0380  209.6120  149.5500 O   0  0  0  0  0  0  0  0  0  0  0  0
  160.9180  212.3300  150.0220 C   0  0  0  0  0  0  0  0  0  0  0  0
  157.8600  214.4480  148.4570 O   0  0  0  0  0  0  0  0  0  0  0  0
  157.0190  213.3820  152.2170 C   0  0  1  0  0  3  0  0  0  0  0  0
  158.3300  212.8600  151.6500 C   0  0  0  0  0  0  0  0  0  0  0  0
  161.9730  213.9650  148.7780 O   0  0  0  0  0  0  0  0  0  0  0  0
  159.1210  211.8980  152.4940 C   0  0  0  0  0  0  0  0  0  0  0  0
  158.6780  213.3390  150.4250 C   0  0  0  0  0  0  0  0  0  0  0  0
  162.1360  212.7170  149.3410 C   0  0  0  0  0  0  0  0  0  0  0  0
  155.9250  213.4720  151.1950 C   0  0  0  0  0  3  0  0  0  0  0  0
  160.1000  211.0830  152.0380 C   0  0  0  0  0  0  0  0  0  0  0  0
  157.1570  211.6550  154.0050 N   0  0  0  0  0  2  0  0  0  0  0  0
  160.6330  209.9220  152.8330 C   0  0  0  0  0  2  0  0  0  0  0  0
  160.6620  214.4350  149.0760 C   0  0  0  0  0  2  0  0  0  0  0  0
  163.2090  212.0620  149.2940 O   0  0  0  0  0  0  0  0  0  0  0  0
  160.6700  211.1200  150.7380 N   0  0  0  0  0  0  0  0  0  0  0  0
  161.4540  209.0960  151.8430 C   0  0  1  0  0  3  0  0  0  0  0  0
  157.5980  213.9200  149.5710 C   0  0  0  0  0  0  0  0  0  0  0  0
  156.6470  212.9730  153.6530 C   0  0  2  0  0  3  0  0  0  0  0  0
  155.1610  213.0640  153.9610 C   0  0  0  0  0  1  0  0  0  0  0  0
  160.0570  213.3220  149.8980 C   0  0  0  0  0  0  0  0  0  0  0  0
  159.3570  212.3390  155.0040 C   0  0  0  0  0  0  0  0  0  0  0  0
  160.8200  210.8650  156.5880 C   0  0  0  0  0  3  0  0  0  0  0  0
  160.0870  211.5990  155.7980 C   0  0  0  0  0  0  0  0  0  0  0  0
  160.4560  214.2600  155.9080 F   0  0  0  0  0  0  0  0  0  0  0  0
  159.4360  214.4530  153.9210 F   0  0  0  0  0  0  0  0  0  0  0  0
  158.2170  214.2520  155.8080 F   0  0  0  0  0  0  0  0  0  0  0  0
  159.3660  213.8430  155.1600 C   0  0  0  0  0  0  0  0  0  0  0  0
  163.2250  211.0950  156.1740 C   0  0  0  0  0  1  0  0  0  0  0  0
  162.0260  210.1780  156.0580 C   0  0  0  0  0  2  0  0  0  0  0  0
  160.7490  207.7670  151.6030 C   0  0  0  0  0  2  0  0  0  0  0  0
  160.8590  207.3430  150.1490 C   0  0  0  0  0  2  0  0  0  0  0  0
  161.7250  206.2410  150.0340 O   0  0  0  0  0  0  0  0  0  0  0  0
  161.6650  205.7590  148.7110 C   0  0  0  0  0  3  0  0  0  0  0  0
  160.7340  206.1960  146.3420 C   0  0  0  0  0  2  0  0  0  0  0  0
  161.1890  204.2930  148.6250 C   0  0  0  0  0  2  0  0  0  0  0  0
  162.5080  204.3240  146.4290 C   0  0  0  0  0  2  0  0  0  0  0  0
  161.0060  206.7590  147.7380 C   0  0  0  0  0  2  0  0  0  0  0  0
  161.9630  205.5550  145.6880 C   0  0  0  0  0  2  0  0  0  0  0  0
  161.4430  203.6150  147.2680 C   0  0  0  0  0  2  0  0  0  0  0  0
  1 13  2  0  0  0  0
  2 15  1  0  0  0  0
  2 25  1  1  0  0  0
  3 19  1  0  0  0  0
  3 20  1  0  0  0  0
  4  3  2  0  0  0  0
  5 19  1  0  0  0  0
  6 21  2  0  0  0  0
  7 13  1  6  0  0  0
  7 22  1  0  0  0  0
  8  7  1  0  0  0  0
  8 10  1  0  0  0  0
  9 17  1  0  0  0  0
  9 12  1  0  0  0  0
 10  2  1  0  0  0  0
 11  8  2  0  0  0  0
 12  5  1  0  0  0  0
 14 10  2  0  0  0  0
 14 16  1  0  0  0  0
 17 24  1  0  0  0  0
 18 12  2  0  0  0  0
 19 14  1  0  0  0  0
 20 34  1  6  0  0  0
 20 16  1  0  0  0  0
 21  1  1  0  0  0  0
 21 11  1  0  0  0  0
 22 23  1  6  0  0  0
 22 15  1  0  0  0  0
 24  5  2  0  0  0  0
 24 11  1  0  0  0  0
 25 31  1  0  0  0  0
 25 27  2  0  0  0  0
 27 26  2  0  0  0  0
 29 31  1  0  0  0  0
 31 30  1  0  0  0  0
 31 28  1  0  0  0  0
 33 32  1  0  0  0  0
 33 26  1  0  0  0  0
 35 34  1  0  0  0  0
 36 35  1  0  0  0  0
 37 36  1  0  0  0  0
 38 41  1  0  0  0  0
 39 37  1  0  0  0  0
 40 43  1  0  0  0  0
 41 37  1  0  0  0  0
 42 38  1  0  0  0  0
 42 40  1  0  0  0  0
 43 39  1  0  0  0  0
M  END
>  <MODEL>
5

>  <REMARK>
 VINA RESULT:      -3.3      3.033      6.515
  Name = 
  7 active torsions:
  status: ('A' for Active; 'I' for Inactive)
    1  A    between atoms: C_1  and  O_31
    2  A    between atoms: C_3  and  C_11
    3  A    between atoms: C_11  and  C_34
    4  A    between atoms: C_16  and  C_28
    5  A    between atoms: C_16  and  O_31
    6  A    between atoms: C_18  and  C_26
    7  A    between atoms: C_28  and  C_39
                            x       y       z     vdW  Elec       q    Type
                         _______ _______ _______ _____ _____    ______ ____

>  <TORSDO>
F 7

$$$$
=
 OpenBabel11072410083D

 43 48  0  0  1  0  0  0  0  0999 V2000
  157.8160  214.0110  150.1490 N   0  0  0  0  0  0  0  0  0  0  0  0
  159.9800  210.8010  153.4230 C   0  0  2  0  0  3  0  0  0  0  0  0
  161.8370  208.9190  149.5960 C   0  0  0  0  0  0  0  0  0  0  0  0
  162.1970  208.6090  148.4300 O   0  0  0  0  0  0  0  0  0  0  0  0
  161.9140  211.4280  149.3440 C   0  0  0  0  0  0  0  0  0  0  0  0
  159.3780  214.4470  148.4840 O   0  0  0  0  0  0  0  0  0  0  0  0
  158.7270  213.1140  152.1960 C   0  0  1  0  0  3  0  0  0  0  0  0
  159.7730  212.3620  151.3880 C   0  0  0  0  0  0  0  0  0  0  0  0
  163.2170  212.9010  148.1340 O   0  0  0  0  0  0  0  0  0  0  0  0
  160.3690  211.1240  151.9990 C   0  0  0  0  0  0  0  0  0  0  0  0
  160.0920  212.9040  150.1810 C   0  0  0  0  0  0  0  0  0  0  0  0
  163.1030  211.5860  148.5330 C   0  0  0  0  0  0  0  0  0  0  0  0
  157.5860  213.6200  151.3640 C   0  0  0  0  0  3  0  0  0  0  0  0
  161.0320  210.1590  151.3190 C   0  0  0  0  0  0  0  0  0  0  0  0
  158.6030  211.1770  153.7530 N   0  0  0  0  0  2  0  0  0  0  0  0
  161.3210  208.8020  151.9010 C   0  0  0  0  0  2  0  0  0  0  0  0
  162.1260  213.6400  148.6710 C   0  0  0  0  0  2  0  0  0  0  0  0
  163.9460  210.6940  148.2580 O   0  0  0  0  0  0  0  0  0  0  0  0
  161.4350  210.2320  149.9600 N   0  0  0  0  0  0  0  0  0  0  0  0
  161.7680  207.9420  150.7180 C   0  0  1  0  0  3  0  0  0  0  0  0
  159.1160  213.8530  149.5630 C   0  0  0  0  0  0  0  0  0  0  0  0
  158.4300  212.6160  153.6210 C   0  0  2  0  0  3  0  0  0  0  0  0
  157.0700  213.0360  154.1560 C   0  0  0  0  0  1  0  0  0  0  0  0
  161.3440  212.6130  149.4550 C   0  0  0  0  0  0  0  0  0  0  0  0
  161.0080  211.1350  154.4770 C   0  0  0  0  0  0  0  0  0  0  0  0
  160.3350  212.8990  156.2810 C   0  0  0  0  0  3  0  0  0  0  0  0
  160.6700  212.0210  155.3780 C   0  0  0  0  0  0  0  0  0  0  0  0
  162.1670  209.0490  154.6200 F   0  0  0  0  0  0  0  0  0  0  0  0
  163.1350  210.7300  153.4970 F   0  0  0  0  0  0  0  0  0  0  0  0
  162.9800  210.8090  155.7460 F   0  0  0  0  0  0  0  0  0  0  0  0
  162.3380  210.4240  154.5850 C   0  0  0  0  0  0  0  0  0  0  0  0
  158.5700  211.3010  156.8610 C   0  0  0  0  0  1  0  0  0  0  0  0
  159.2580  212.5890  157.2580 C   0  0  0  0  0  2  0  0  0  0  0  0
  160.7070  206.8820  150.4500 C   0  0  0  0  0  2  0  0  0  0  0  0
  160.7350  206.4340  148.9990 C   0  0  0  0  0  2  0  0  0  0  0  0
  161.7840  205.5190  148.7990 O   0  0  0  0  0  0  0  0  0  0  0  0
  161.3870  204.2640  149.3050 C   0  0  0  0  0  3  0  0  0  0  0  0
  160.4150  201.9500  148.6970 C   0  0  0  0  0  2  0  0  0  0  0  0
  160.3820  204.3770  150.4720 C   0  0  0  0  0  2  0  0  0  0  0  0
  161.3400  202.0870  151.1020 C   0  0  0  0  0  2  0  0  0  0  0  0
  161.0470  203.2500  148.1940 C   0  0  0  0  0  2  0  0  0  0  0  0
  161.2200  201.2660  149.8080 C   0  0  0  0  0  2  0  0  0  0  0  0
  160.1940  203.0840  151.2830 C   0  0  0  0  0  2  0  0  0  0  0  0
  1 13  2  0  0  0  0
  2 15  1  0  0  0  0
  2 25  1  1  0  0  0
  3 19  1  0  0  0  0
  3 20  1  0  0  0  0
  4  3  2  0  0  0  0
  5 24  2  0  0  0  0
  5 19  1  0  0  0  0
  6 21  2  0  0  0  0
  7 13  1  6  0  0  0
  7 22  1  0  0  0  0
  8 10  1  0  0  0  0
  8  7  1  0  0  0  0
  9 12  1  0  0  0  0
  9 17  1  0  0  0  0
 10  2  1  0  0  0  0
 11  8  2  0  0  0  0
 12  5  1  0  0  0  0
 14 16  1  0  0  0  0
 14 10  2  0  0  0  0
 17 24  1  0  0  0  0
 18 12  2  0  0  0  0
 19 14  1  0  0  0  0
 20 34  1  6  0  0  0
 20 16  1  0  0  0  0
 21  1  1  0  0  0  0
 21 11  1  0  0  0  0
 22 15  1  0  0  0  0
 22 23  1  6  0  0  0
 24 11  1  0  0  0  0
 25 31  1  0  0  0  0
 25 27  2  0  0  0  0
 26 33  1  0  0  0  0
 27 26  2  0  0  0  0
 29 31  1  0  0  0  0
 31 28  1  0  0  0  0
 31 30  1  0  0  0  0
 32 33  1  0  0  0  0
 35 34  1  0  0  0  0
 36 35  1  0  0  0  0
 36 37  1  0  0  0  0
 37 39  1  0  0  0  0
 38 42  1  0  0  0  0
 39 43  1  0  0  0  0
 40 43  1  0  0  0  0
 41 38  1  0  0  0  0
 41 37  1  0  0  0  0
 42 40  1  0  0  0  0
M  END
>  <MODEL>
6

>  <REMARK>
 VINA RESULT:      -2.8      3.118      7.108
  Name = 
  7 active torsions:
  status: ('A' for Active; 'I' for Inactive)
    1  A    between atoms: C_1  and  O_31
    2  A    between atoms: C_3  and  C_11
    3  A    between atoms: C_11  and  C_34
    4  A    between atoms: C_16  and  C_28
    5  A    between atoms: C_16  and  O_31
    6  A    between atoms: C_18  and  C_26
    7  A    between atoms: C_28  and  C_39
                            x       y       z     vdW  Elec       q    Type
                         _______ _______ _______ _____ _____    ______ ____

>  <TORSDO>
F 7

$$$$
=
 OpenBabel11072410083D

 43 48  0  0  1  0  0  0  0  0999 V2000
  161.3530  212.1620  150.1140 N   0  0  0  0  0  0  0  0  0  0  0  0
  161.7750  208.2610  153.3240 C   0  0  2  0  0  3  0  0  0  0  0  0
  161.6100  211.5660  156.5920 C   0  0  0  0  0  0  0  0  0  0  0  0
  161.5450  212.6320  157.2590 O   0  0  0  0  0  0  0  0  0  0  0  0
  159.9220  212.1500  154.8110 C   0  0  0  0  0  0  0  0  0  0  0  0
  159.8920  213.6900  151.0810 O   0  0  0  0  0  0  0  0  0  0  0  0
  161.2310  209.9250  151.0080 C   0  0  1  0  0  3  0  0  0  0  0  0
  160.9300  210.5020  152.3820 C   0  0  0  0  0  0  0  0  0  0  0  0
  157.9820  213.4020  154.7570 O   0  0  0  0  0  0  0  0  0  0  0  0
  161.2790  209.6650  153.5820 C   0  0  0  0  0  0  0  0  0  0  0  0
  160.3430  211.7300  152.3930 C   0  0  0  0  0  0  0  0  0  0  0  0
  158.9210  212.8400  155.5970 C   0  0  0  0  0  0  0  0  0  0  0  0
  161.7740  210.9380  150.0450 C   0  0  0  0  0  3  0  0  0  0  0  0
  161.4060  210.1290  154.8470 C   0  0  0  0  0  0  0  0  0  0  0  0
  162.5750  208.1390  152.1030 N   0  0  0  0  0  2  0  0  0  0  0  0
  162.0650  209.3380  155.9450 C   0  0  0  0  0  2  0  0  0  0  0  0
  158.3280  213.0940  153.4120 C   0  0  0  0  0  2  0  0  0  0  0  0
  158.8610  212.8960  156.8520 O   0  0  0  0  0  0  0  0  0  0  0  0
  161.0600  211.4330  155.2890 N   0  0  0  0  0  0  0  0  0  0  0  0
  162.2910  210.3350  157.0820 C   0  0  1  0  0  3  0  0  0  0  0  0
  160.4720  212.5750  151.1670 C   0  0  0  0  0  0  0  0  0  0  0  0
  161.7720  208.4860  150.9390 C   0  0  2  0  0  3  0  0  0  0  0  0
  162.5300  208.1660  149.6600 C   0  0  0  0  0  1  0  0  0  0  0  0
  159.5850  212.2670  153.5410 C   0  0  0  0  0  0  0  0  0  0  0  0
  160.7710  207.1570  153.5470 C   0  0  0  0  0  0  0  0  0  0  0  0
  160.4680  205.4140  151.6260 C   0  0  0  0  0  3  0  0  0  0  0  0
  160.6180  206.2860  152.5830 C   0  0  0  0  0  0  0  0  0  0  0  0
  159.3650  205.7520  154.8780 F   0  0  0  0  0  0  0  0  0  0  0  0
  160.9190  206.9930  155.9140 F   0  0  0  0  0  0  0  0  0  0  0  0
  159.0990  207.9740  155.0120 F   0  0  0  0  0  0  0  0  0  0  0  0
  160.0320  206.9670  154.8530 C   0  0  0  0  0  0  0  0  0  0  0  0
  161.1100  203.5030  150.2330 C   0  0  0  0  0  1  0  0  0  0  0  0
  161.5810  204.4940  151.2760 C   0  0  0  0  0  2  0  0  0  0  0  0
  163.7870  210.5700  157.2420 C   0  0  0  0  0  2  0  0  0  0  0  0
  164.3000  211.5580  156.2080 C   0  0  0  0  0  2  0  0  0  0  0  0
  164.8810  212.6660  156.8500 O   0  0  0  0  0  0  0  0  0  0  0  0
  166.2770  212.6160  156.6550 C   0  0  0  0  0  3  0  0  0  0  0  0
  168.4930  213.9210  156.8940 C   0  0  0  0  0  2  0  0  0  0  0  0
  166.6700  212.2160  155.2170 C   0  0  0  0  0  2  0  0  0  0  0  0
  168.8160  211.4160  156.3640 C   0  0  0  0  0  2  0  0  0  0  0  0
  167.0100  213.8300  157.2610 C   0  0  0  0  0  2  0  0  0  0  0  0
  169.2750  212.6340  157.1810 C   0  0  0  0  0  2  0  0  0  0  0  0
  168.1420  211.8030  155.0460 C   0  0  0  0  0  2  0  0  0  0  0  0
  1 21  1  0  0  0  0
  2 25  1  6  0  0  0
  2 10  1  0  0  0  0
  3 20  1  0  0  0  0
  3  4  2  0  0  0  0
  5 19  1  0  0  0  0
  5 12  1  0  0  0  0
  6 21  2  0  0  0  0
  7 13  1  1  0  0  0
  7  8  1  0  0  0  0
  8 11  2  0  0  0  0
  8 10  1  0  0  0  0
  9 12  1  0  0  0  0
 10 14  2  0  0  0  0
 11 24  1  0  0  0  0
 12 18  2  0  0  0  0
 13  1  2  0  0  0  0
 14 19  1  0  0  0  0
 14 16  1  0  0  0  0
 15  2  1  0  0  0  0
 16 20  1  0  0  0  0
 17 24  1  0  0  0  0
 17  9  1  0  0  0  0
 19  3  1  0  0  0  0
 20 34  1  6  0  0  0
 21 11  1  0  0  0  0
 22 23  1  6  0  0  0
 22  7  1  0  0  0  0
 22 15  1  0  0  0  0
 24  5  2  0  0  0  0
 25 31  1  0  0  0  0
 26 27  2  0  0  0  0
 27 25  2  0  0  0  0
 31 28  1  0  0  0  0
 31 30  1  0  0  0  0
 31 29  1  0  0  0  0
 32 33  1  0  0  0  0
 33 26  1  0  0  0  0
 35 36  1  0  0  0  0
 35 34  1  0  0  0  0
 37 36  1  0  0  0  0
 37 41  1  0  0  0  0
 38 42  1  0  0  0  0
 38 41  1  0  0  0  0
 39 37  1  0  0  0  0
 40 42  1  0  0  0  0
 43 39  1  0  0  0  0
 43 40  1  0  0  0  0
M  END
>  <MODEL>
7

>  <REMARK>
 VINA RESULT:      -2.8      3.746      8.481
  Name = 
  7 active torsions:
  status: ('A' for Active; 'I' for Inactive)
    1  A    between atoms: C_1  and  O_31
    2  A    between atoms: C_3  and  C_11
    3  A    between atoms: C_11  and  C_34
    4  A    between atoms: C_16  and  C_28
    5  A    between atoms: C_16  and  O_31
    6  A    between atoms: C_18  and  C_26
    7  A    between atoms: C_28  and  C_39
                            x       y       z     vdW  Elec       q    Type
                         _______ _______ _______ _____ _____    ______ ____

>  <TORSDO>
F 7

$$$$
