=
 OpenBabel11072413403D

 67 74  0  0  1  0  0  0  0  0999 V2000
  160.4740  210.2290  154.4110 C   0  0  1  0  0  3  0  0  0  0  0  0
  162.4340  209.7280  153.0000 O   0  0  0  0  0  0  0  0  0  0  0  0
  160.0770  209.8990  152.1760 C   0  0  0  0  0  2  0  0  0  0  0  0
  160.0100  210.9150  153.2350 N   0  0  0  0  0  2  0  0  0  0  0  0
  161.9870  210.0050  154.3340 C   0  0  0  0  0  2  0  0  0  0  0  0
  161.4300  209.1520  152.1670 C   0  0  2  0  0  3  0  0  0  0  0  0
  159.7720  210.6220  155.7290 C   0  0  1  0  0  0  0  0  0  0  0  0
  158.5030  209.9600  156.0640 C   0  0  0  0  0  2  0  0  0  0  0  0
  159.7240  209.6030  156.6840 O   0  0  0  0  0  0  0  0  0  0  0  0
  159.9660  211.8990  156.3240 O   0  0  0  0  0  0  0  0  0  0  0  0
  159.5160  212.9040  155.4400 C   0  0  2  0  0  3  0  0  0  0  0  0
  157.7500  213.6670  152.6500 C   0  0  2  0  0  3  0  0  0  0  0  0
  156.9190  214.4510  153.6750 C   0  0  1  0  0  3  0  0  0  0  0  0
  158.0070  212.9310  155.3830 C   0  0  2  0  0  3  0  0  0  0  0  0
  158.8160  212.3450  154.2070 C   0  0  1  0  0  3  0  0  0  0  0  0
  159.0200  213.2760  153.1530 O   0  0  0  0  0  0  0  0  0  0  0  0
  155.5040  213.9130  153.6680 C   0  0  0  0  0  1  0  0  0  0  0  0
  157.5160  214.3500  155.0790 C   0  0  0  0  0  2  0  0  0  0  0  0
  157.8050  214.3370  151.4040 O   0  0  0  0  0  0  0  0  0  0  0  0
  159.3370  214.4520  149.4890 C   0  0  2  0  0  3  0  0  0  0  0  0
  159.5000  213.2890  150.2570 O   0  0  0  0  0  0  0  0  0  0  0  0
  159.1500  214.4530  150.9750 C   0  0  2  0  0  3  0  0  0  0  0  0
  158.0530  214.3510  148.6770 C   0  0  0  0  0  2  0  0  0  0  0  0
  158.1180  213.1290  147.7760 C   0  0  1  0  0  3  0  0  0  0  0  0
  156.7990  212.9410  147.0320 C   0  0  0  0  0  1  0  0  0  0  0  0
  159.2510  213.2200  146.7970 C   0  0  0  0  0  0  0  0  0  0  0  0
  160.5380  212.9900  147.1670 N   0  0  0  0  0  0  0  0  0  0  0  0
  161.5060  213.3560  143.7310 N   0  0  0  0  0  2  0  0  0  0  0  0
  161.3920  213.0350  146.1400 N   0  0  0  0  0  0  0  0  0  0  0  0
  160.7890  213.2980  144.9610 C   0  0  0  0  0  0  0  0  0  0  0  0
  159.1210  213.4740  145.1260 S   0  0  0  0  0  0  0  0  0  0  0  0
  160.8550  213.5220  142.5370 O   0  0  0  0  0  0  0  0  0  0  0  0
  163.6410  214.3370  140.2510 C   0  0  0  0  0  3  0  0  0  0  0  0
  162.9450  214.0490  141.4270 C   0  0  0  0  0  3  0  0  0  0  0  0
  161.6250  214.2000  138.9880 C   0  0  0  0  0  3  0  0  0  0  0  0
  159.4300  213.6750  140.0380 C   0  0  0  0  0  1  0  0  0  0  0  0
  161.5590  213.8420  141.3750 C   0  0  0  0  0  0  0  0  0  0  0  0
  160.8900  213.9220  140.1430 C   0  0  0  0  0  0  0  0  0  0  0  0
  162.9740  214.4020  139.0640 N   0  0  0  0  0  0  0  0  0  0  0  0
  161.3550  207.5980  152.1250 C   0  0  2  0  0  3  0  0  0  0  0  0
  161.8170  206.9170  153.4380 C   0  0  2  0  0  3  0  0  0  0  0  0
  162.8620  205.8660  153.0910 C   0  0  0  0  0  1  0  0  0  0  0  0
  160.7060  206.7290  155.3610 C   0  0  0  0  0  1  0  0  0  0  0  0
  160.7340  206.2670  154.0530 O   0  0  0  0  0  0  0  0  0  0  0  0
  161.7440  206.8390  150.8590 C   0  0  2  0  0  3  0  0  0  0  0  0
  161.5870  207.7380  149.6370 C   0  0  0  0  0  2  0  0  0  0  0  0
  162.6790  207.5860  148.5940 C   0  0  0  0  0  1  0  0  0  0  0  0
  160.8720  205.5870  150.8050 C   0  0  0  0  0  2  0  0  0  0  0  0
  161.5530  204.4040  150.1360 C   0  0  0  0  0  2  0  0  0  0  0  0
  160.9060  201.9170  150.3570 N   0  0  0  0  0  2  0  0  0  0  0  0
  160.6520  201.6470  148.9650 C   0  0  0  0  0  0  0  0  0  0  0  0
  161.3160  203.1680  150.9480 C   0  0  0  0  0  0  0  0  0  0  0  0
  161.4900  203.2110  152.1950 O   0  0  0  0  0  0  0  0  0  0  0  0
  160.7760  200.4620  148.5540 O   0  0  0  0  0  0  0  0  0  0  0  0
  160.3600  202.7310  147.9860 C   0  0  1  0  0  3  0  0  0  0  0  0
  159.9270  203.9950  148.7170 C   0  0  0  0  0  1  0  0  0  0  0  0
  161.6000  202.1040  145.9730 O   0  0  0  0  0  1  0  0  0  0  0  0
  161.4990  203.0430  147.0120 C   0  0  1  0  0  3  0  0  0  0  0  0
  161.4820  204.4940  146.4940 C   0  0  2  0  0  3  0  0  0  0  0  0
  160.9140  204.6650  143.9560 C   0  0  0  0  0  2  0  0  0  0  0  0
  159.7190  203.9480  144.5450 C   0  0  0  0  0  2  0  0  0  0  0  0
  160.4890  204.9380  145.3890 C   0  0  0  0  0  0  0  0  0  0  0  0
  159.8390  206.1560  145.5450 O   0  0  0  0  0  1  0  0  0  0  0  0
  162.8650  205.1830  146.5840 C   0  0  0  0  0  2  0  0  0  0  0  0
  165.0040  203.9750  147.0080 O   0  0  0  0  0  1  0  0  0  0  0  0
  164.1090  204.0540  144.8840 O   0  0  0  0  0  0  0  0  0  0  0  0
  164.0040  204.3400  146.1060 C   0  0  0  0  0  0  0  0  0  0  0  0
  1  5  1  1  0  0  0
  1  7  1  0  0  0  0
  2  5  1  0  0  0  0
  3  4  1  0  0  0  0
  4  1  1  0  0  0  0
  6 40  1  1  0  0  0
  6  3  1  0  0  0  0
  6  2  1  0  0  0  0
  7  8  1  0  0  0  0
  7 10  1  1  0  0  0
  7  9  1  0  0  0  0
  8  9  1  0  0  0  0
 11 10  1  1  0  0  0
 12 19  1  6  0  0  0
 12 16  1  0  0  0  0
 12 13  1  0  0  0  0
 13 17  1  1  0  0  0
 13 18  1  0  0  0  0
 14 18  1  6  0  0  0
 14 11  1  0  0  0  0
 15 16  1  6  0  0  0
 15 14  1  0  0  0  0
 15 11  1  0  0  0  0
 20 23  1  6  0  0  0
 20 21  1  0  0  0  0
 20 22  1  0  0  0  0
 21 22  1  0  0  0  0
 22 19  1  6  0  0  0
 24 25  1  6  0  0  0
 24 23  1  0  0  0  0
 26 27  2  0  0  0  0
 26 24  1  0  0  0  0
 28 30  1  0  0  0  0
 29 27  1  0  0  0  0
 30 31  1  0  0  0  0
 30 29  2  0  0  0  0
 31 26  1  0  0  0  0
 32 28  1  0  0  0  0
 33 34  1  0  0  0  0
 35 39  1  0  0  0  0
 35 38  2  0  0  0  0
 36 38  1  0  0  0  0
 37 34  2  0  0  0  0
 37 32  1  0  0  0  0
 38 37  1  0  0  0  0
 39 33  2  0  0  0  0
 40 45  1  6  0  0  0
 40 41  1  0  0  0  0
 41 42  1  6  0  0  0
 41 44  1  0  0  0  0
 44 43  1  0  0  0  0
 45 46  1  6  0  0  0
 47 46  1  0  0  0  0
 48 45  1  0  0  0  0
 49 48  1  0  0  0  0
 49 52  1  0  0  0  0
 50 52  1  0  0  0  0
 51 50  1  0  0  0  0
 52 53  2  0  0  0  0
 54 51  2  0  0  0  0
 55 56  1  1  0  0  0
 55 51  1  0  0  0  0
 58 57  1  6  0  0  0
 58 55  1  0  0  0  0
 59 64  1  6  0  0  0
 59 58  1  0  0  0  0
 60 61  1  0  0  0  0
 60 62  1  0  0  0  0
 61 62  1  0  0  0  0
 62 63  1  0  0  0  0
 62 59  1  0  0  0  0
 66 67  2  0  0  0  0
 67 64  1  0  0  0  0
 67 65  1  0  0  0  0
M  END
>  <MODEL>
1

>  <REMARK>
 VINA RESULT:      -3.0      0.000      0.000
  Name = 
  24 active torsions:
  status: ('A' for Active; 'I' for Inactive)
    1  A    between atoms: C_1  and  C_18
    2  A    between atoms: C_3  and  C_31
    3  A    between atoms: C_3  and  C_55
    4  A    between atoms: C_5  and  C_30
    5  A    between atoms: C_5  and  C_33
    6  A    between atoms: C_5  and  C_40
    7  A    between atoms: C_6  and  C_12
    8  A    between atoms: C_6  and  C_42
    9  A    between atoms: C_6  and  C_44
   10  A    between atoms: C_7  and  O_17
   11  A    between atoms: C_10  and  C_31
   12  A    between atoms: C_11  and  O_54
   13  A    between atoms: C_12  and  C_26
   14  A    between atoms: C_12  and  C_67
   15  A    between atoms: N_15  and  O_62
   16  A    between atoms: O_17  and  C_18
   17  A    between atoms: C_26  and  O_61
   18  A    between atoms: C_30  and  C_35
   19  A    between atoms: C_33  and  C_34
   20  A    between atoms: C_35  and  C_39
   21  A    between atoms: C_41  and  C_42
   22  A    between atoms: C_41  and  C_59
   23  A    between atoms: C_46  and  O_62
   24  A    between atoms: O_54  and  C_63
                            x       y       z     vdW  Elec       q    Type
                         _______ _______ _______ _____ _____    ______ ____

>  <TORSDO>
F 24

$$$$
=
 OpenBabel11072413403D

 67 74  0  0  1  0  0  0  0  0999 V2000
  161.0960  202.7570  151.0650 C   0  0  1  0  0  3  0  0  0  0  0  0
  162.4600  204.2620  152.4660 O   0  0  0  0  0  0  0  0  0  0  0  0
  159.9700  204.0500  152.5880 C   0  0  0  0  0  2  0  0  0  0  0  0
  160.2890  202.6560  152.2520 N   0  0  0  0  0  2  0  0  0  0  0  0
  162.4910  203.2850  151.4160 C   0  0  0  0  0  2  0  0  0  0  0  0
  161.2200  204.9580  152.5650 C   0  0  2  0  0  3  0  0  0  0  0  0
  160.8850  201.6390  150.0220 C   0  0  1  0  0  0  0  0  0  0  0  0
  162.0620  201.1300  149.3030 C   0  0  0  0  0  2  0  0  0  0  0  0
  161.4610  200.4120  150.3650 O   0  0  0  0  0  0  0  0  0  0  0  0
  159.6440  201.4720  149.3480 O   0  0  0  0  0  0  0  0  0  0  0  0
  159.6530  202.2210  148.1510 C   0  0  2  0  0  3  0  0  0  0  0  0
  161.1250  202.7830  145.1500 C   0  0  2  0  0  3  0  0  0  0  0  0
  159.7390  202.3480  144.6540 C   0  0  1  0  0  3  0  0  0  0  0  0
  159.4880  201.3160  146.9530 C   0  0  2  0  0  3  0  0  0  0  0  0
  160.8670  201.9310  147.2760 C   0  0  1  0  0  3  0  0  0  0  0  0
  161.1370  203.1110  146.5330 O   0  0  0  0  0  0  0  0  0  0  0  0
  159.8950  201.1110  143.7960 C   0  0  0  0  0  1  0  0  0  0  0  0
  158.7870  202.0680  145.8170 C   0  0  0  0  0  2  0  0  0  0  0  0
  161.6860  203.7790  144.3160 O   0  0  0  0  0  0  0  0  0  0  0  0
  161.2310  206.1490  143.8660 C   0  0  2  0  0  3  0  0  0  0  0  0
  162.4880  205.9300  144.4500 O   0  0  0  0  0  0  0  0  0  0  0  0
  161.4580  205.0620  144.8710 C   0  0  2  0  0  3  0  0  0  0  0  0
  161.2590  205.7010  142.4120 C   0  0  0  0  0  2  0  0  0  0  0  0
  162.3680  206.4340  141.6760 C   0  0  1  0  0  3  0  0  0  0  0  0
  163.4070  205.4470  141.1520 C   0  0  0  0  0  1  0  0  0  0  0  0
  161.8330  207.2640  140.5480 C   0  0  0  0  0  0  0  0  0  0  0  0
  161.8370  206.8150  139.2650 N   0  0  0  0  0  0  0  0  0  0  0  0
  160.0640  209.7850  138.3070 N   0  0  0  0  0  2  0  0  0  0  0  0
  161.2420  207.6590  138.4160 N   0  0  0  0  0  0  0  0  0  0  0  0
  160.7670  208.7700  139.0180 C   0  0  0  0  0  0  0  0  0  0  0  0
  161.0460  208.7590  140.6800 S   0  0  0  0  0  0  0  0  0  0  0  0
  159.5030  210.8510  138.9610 O   0  0  0  0  0  0  0  0  0  0  0  0
  162.1790  213.3940  138.8070 C   0  0  0  0  0  3  0  0  0  0  0  0
  161.4620  212.2220  138.5590 C   0  0  0  0  0  3  0  0  0  0  0  0
  160.5050  214.1310  140.3350 C   0  0  0  0  0  3  0  0  0  0  0  0
  158.4650  212.7900  140.8200 C   0  0  0  0  0  1  0  0  0  0  0  0
  160.2460  212.0030  139.2230 C   0  0  0  0  0  0  0  0  0  0  0  0
  159.7640  212.9650  140.1240 C   0  0  0  0  0  0  0  0  0  0  0  0
  161.6880  214.3200  139.6790 N   0  0  0  0  0  0  0  0  0  0  0  0
  161.0890  206.2840  151.7610 C   0  0  2  0  0  3  0  0  0  0  0  0
  161.3590  206.1190  150.2430 C   0  0  2  0  0  3  0  0  0  0  0  0
  162.1060  207.3510  149.7530 C   0  0  0  0  0  1  0  0  0  0  0  0
  160.4640  206.2270  148.2050 C   0  0  0  0  0  1  0  0  0  0  0  0
  160.1440  206.0410  149.5430 O   0  0  0  0  0  0  0  0  0  0  0  0
  161.6010  207.5970  152.3460 C   0  0  2  0  0  3  0  0  0  0  0  0
  161.7690  207.4710  153.8570 C   0  0  0  0  0  2  0  0  0  0  0  0
  160.5660  206.8960  154.5820 C   0  0  0  0  0  1  0  0  0  0  0  0
  160.6100  208.6840  151.9360 C   0  0  0  0  0  2  0  0  0  0  0  0
  160.3930  209.7410  153.0060 C   0  0  0  0  0  2  0  0  0  0  0  0
  162.0180  211.0540  154.5180 N   0  0  0  0  0  2  0  0  0  0  0  0
  161.2380  211.0270  155.7290 C   0  0  0  0  0  0  0  0  0  0  0  0
  161.6720  210.4840  153.2380 C   0  0  0  0  0  0  0  0  0  0  0  0
  162.4880  210.6110  152.2880 O   0  0  0  0  0  0  0  0  0  0  0  0
  161.8420  211.1240  156.8320 O   0  0  0  0  0  0  0  0  0  0  0  0
  159.7700  210.7760  155.7230 C   0  0  1  0  0  3  0  0  0  0  0  0
  159.4370  209.5900  156.6200 C   0  0  0  0  0  1  0  0  0  0  0  0
  159.6650  213.1470  156.3140 O   0  0  0  0  0  1  0  0  0  0  0  0
  158.9080  211.9850  156.0970 C   0  0  1  0  0  3  0  0  0  0  0  0
  157.7310  212.2210  155.1330 C   0  0  2  0  0  3  0  0  0  0  0  0
  156.0560  211.8830  157.1010 C   0  0  0  0  0  2  0  0  0  0  0  0
  155.5590  213.1370  156.4150 C   0  0  0  0  0  2  0  0  0  0  0  0
  156.2630  212.0700  155.6070 C   0  0  0  0  0  0  0  0  0  0  0  0
  155.4010  211.3030  154.8350 O   0  0  0  0  0  1  0  0  0  0  0  0
  158.0830  211.8950  153.6610 C   0  0  0  0  0  2  0  0  0  0  0  0
  159.3440  213.9840  153.1490 O   0  0  0  0  0  1  0  0  0  0  0  0
  157.5410  213.3630  151.8520 O   0  0  0  0  0  0  0  0  0  0  0  0
  158.3210  213.0990  152.8060 C   0  0  0  0  0  0  0  0  0  0  0  0
  1  5  1  1  0  0  0
  1  4  1  0  0  0  0
  2  6  1  0  0  0  0
  4  3  1  0  0  0  0
  5  2  1  0  0  0  0
  6 40  1  6  0  0  0
  6  3  1  0  0  0  0
  7 10  1  6  0  0  0
  7  9  1  0  0  0  0
  7  1  1  0  0  0  0
  8  7  1  0  0  0  0
  8  9  1  0  0  0  0
 11 10  1  1  0  0  0
 12 19  1  6  0  0  0
 12 16  1  0  0  0  0
 13 17  1  1  0  0  0
 13 12  1  0  0  0  0
 13 18  1  0  0  0  0
 14 18  1  6  0  0  0
 14 15  1  0  0  0  0
 14 11  1  0  0  0  0
 15 16  1  6  0  0  0
 15 11  1  0  0  0  0
 20 23  1  6  0  0  0
 20 21  1  0  0  0  0
 20 22  1  0  0  0  0
 21 22  1  0  0  0  0
 22 19  1  6  0  0  0
 24 25  1  6  0  0  0
 24 23  1  0  0  0  0
 26 31  1  0  0  0  0
 26 24  1  0  0  0  0
 27 26  2  0  0  0  0
 28 32  1  0  0  0  0
 28 30  1  0  0  0  0
 29 30  2  0  0  0  0
 29 27  1  0  0  0  0
 30 31  1  0  0  0  0
 32 37  1  0  0  0  0
 33 39  1  0  0  0  0
 34 33  2  0  0  0  0
 34 37  1  0  0  0  0
 37 38  2  0  0  0  0
 38 35  1  0  0  0  0
 38 36  1  0  0  0  0
 39 35  2  0  0  0  0
 40 41  1  6  0  0  0
 40 45  1  0  0  0  0
 41 42  1  6  0  0  0
 43 44  1  0  0  0  0
 44 41  1  0  0  0  0
 45 48  1  1  0  0  0
 45 46  1  0  0  0  0
 46 47  1  0  0  0  0
 48 49  1  0  0  0  0
 49 52  1  0  0  0  0
 50 51  1  0  0  0  0
 51 54  2  0  0  0  0
 52 50  1  0  0  0  0
 53 52  2  0  0  0  0
 55 51  1  0  0  0  0
 55 58  1  0  0  0  0
 55 56  1  1  0  0  0
 58 57  1  6  0  0  0
 59 64  1  6  0  0  0
 59 62  1  0  0  0  0
 59 58  1  0  0  0  0
 61 60  1  0  0  0  0
 62 61  1  0  0  0  0
 62 60  1  0  0  0  0
 63 62  1  0  0  0  0
 66 67  2  0  0  0  0
 67 65  1  0  0  0  0
 67 64  1  0  0  0  0
M  END
>  <MODEL>
2

>  <REMARK>
 VINA RESULT:      -0.6      2.752     10.009
  Name = 
  24 active torsions:
  status: ('A' for Active; 'I' for Inactive)
    1  A    between atoms: C_1  and  C_18
    2  A    between atoms: C_3  and  C_31
    3  A    between atoms: C_3  and  C_55
    4  A    between atoms: C_5  and  C_30
    5  A    between atoms: C_5  and  C_33
    6  A    between atoms: C_5  and  C_40
    7  A    between atoms: C_6  and  C_12
    8  A    between atoms: C_6  and  C_42
    9  A    between atoms: C_6  and  C_44
   10  A    between atoms: C_7  and  O_17
   11  A    between atoms: C_10  and  C_31
   12  A    between atoms: C_11  and  O_54
   13  A    between atoms: C_12  and  C_26
   14  A    between atoms: C_12  and  C_67
   15  A    between atoms: N_15  and  O_62
   16  A    between atoms: O_17  and  C_18
   17  A    between atoms: C_26  and  O_61
   18  A    between atoms: C_30  and  C_35
   19  A    between atoms: C_33  and  C_34
   20  A    between atoms: C_35  and  C_39
   21  A    between atoms: C_41  and  C_42
   22  A    between atoms: C_41  and  C_59
   23  A    between atoms: C_46  and  O_62
   24  A    between atoms: O_54  and  C_63
                            x       y       z     vdW  Elec       q    Type
                         _______ _______ _______ _____ _____    ______ ____

>  <TORSDO>
F 24

$$$$
