=
 OpenBabel11072411253D

 35 39  0  0  1  0  0  0  0  0999 V2000
  160.6260  213.0310  149.6480 C   0  0  1  0  0  3  0  0  0  0  0  0
  161.0890  207.9070  153.7300 C   0  0  0  0  0  0  0  0  0  0  0  0
  160.2830  211.8740  151.9670 C   0  0  2  0  0  3  0  0  0  0  0  0
  160.2000  209.7440  155.0500 C   0  0  0  0  0  3  0  0  0  0  0  0
  159.4730  208.8380  155.8260 C   0  0  0  0  0  3  0  0  0  0  0  0
  160.8560  213.0630  151.1710 C   0  0  0  0  0  2  0  0  0  0  0  0
  160.3650  207.0070  154.5210 C   0  0  0  0  0  3  0  0  0  0  0  0
  161.3700  208.4420  148.9110 C   0  0  0  0  0  2  0  0  0  0  0  0
  162.7930  209.2260  150.7690 O   0  0  0  0  0  0  0  0  0  0  0  0
  161.7730  209.6980  148.4330 O   0  0  0  0  0  0  0  0  0  0  0  0
  161.0140  209.2880  154.0080 C   0  0  0  0  0  0  0  0  0  0  0  0
  159.5590  207.4700  155.5640 C   0  0  0  0  0  0  0  0  0  0  0  0
  162.1020  208.1040  150.2260 C   0  0  1  0  0  3  0  0  0  0  0  0
  161.5100  212.0340  148.8990 C   0  0  0  0  0  2  0  0  0  0  0  0
  161.0540  210.5470  151.8910 C   0  0  1  0  0  3  0  0  0  0  0  0
  158.9270  211.6730  151.7090 O   0  0  0  0  0  1  0  0  0  0  0  0
  162.0220  210.4210  150.7150 C   0  0  2  0  0  3  0  0  0  0  0  0
  161.2100  207.3880  151.2690 C   0  0  2  0  0  3  0  0  0  0  0  0
  161.7720  210.2940  153.2050 C   0  0  0  0  0  2  0  0  0  0  0  0
  158.8580  206.5900  156.3190 F   0  0  0  0  0  0  0  0  0  0  0  0
  161.9410  207.3660  152.6190 C   0  0  0  0  0  2  0  0  0  0  0  0
  161.2920  210.6120  149.3790 C   0  0  2  0  0  3  0  0  0  0  0  0
  161.4360  203.6050  151.3760 C   0  0  0  0  0  0  0  0  0  0  0  0
  162.0600  202.6460  152.1070 F   0  0  0  0  0  0  0  0  0  0  0  0
  161.5520  204.8920  151.7160 C   0  0  0  0  0  3  0  0  0  0  0  0
  160.6430  203.2320  150.1550 C   0  0  0  0  0  2  0  0  0  0  0  0
  160.8850  205.9330  150.8550 C   0  0  2  0  0  3  0  0  0  0  0  0
  160.9460  204.1740  148.9780 C   0  0  0  0  0  2  0  0  0  0  0  0
  162.5680  205.9100  149.1410 F   0  0  0  0  0  0  0  0  0  0  0  0
  161.2310  205.6370  149.3820 C   0  0  2  0  0  3  0  0  0  0  0  0
  159.2770  212.8530  149.3220 O   0  0  0  0  0  0  0  0  0  0  0  0
  159.0800  213.5260  147.7760 P   0  0  0  0  0  0  0  0  0  0  0  0
  160.2360  214.4520  147.4660 O   0  0  0  0  0  1  0  0  0  0  0  0
  157.6270  214.3910  147.6990 O   0  0  0  0  0  1  0  0  0  0  0  0
  159.0450  212.2820  146.6320 O   0  0  0  0  0  0  0  0  0  0  0  0
  1 31  1  1  0  0  0
  1  6  1  0  0  0  0
  2 11  2  0  0  0  0
  2  7  1  0  0  0  0
  3 16  1  6  0  0  0
  4  5  2  0  0  0  0
  6  3  1  0  0  0  0
  7 12  2  0  0  0  0
 10  8  1  0  0  0  0
 10 22  1  0  0  0  0
 11  4  1  0  0  0  0
 12  5  1  0  0  0  0
 12 20  1  0  0  0  0
 13  8  1  6  0  0  0
 13  9  1  0  0  0  0
 13 18  1  0  0  0  0
 14  1  1  0  0  0  0
 15  3  1  0  0  0  0
 15 19  1  1  0  0  0
 17  9  1  6  0  0  0
 17 15  1  0  0  0  0
 18 21  1  1  0  0  0
 19 11  1  0  0  0  0
 21  2  1  0  0  0  0
 22 14  1  6  0  0  0
 22 17  1  0  0  0  0
 23 25  2  0  0  0  0
 23 24  1  0  0  0  0
 26 23  1  0  0  0  0
 27 18  1  0  0  0  0
 27 25  1  1  0  0  0
 28 30  1  0  0  0  0
 28 26  1  0  0  0  0
 30 29  1  1  0  0  0
 30 27  1  0  0  0  0
 32 31  1  0  0  0  0
 33 32  1  0  0  0  0
 34 32  1  0  0  0  0
 35 32  2  0  0  0  0
M  END
>  <MODEL>
1

>  <REMARK>
 VINA RESULT:      -7.2      0.000      0.000
  Name = 
  3 active torsions:
  status: ('A' for Active; 'I' for Inactive)
    1  A    between atoms: C_1  and  O_27
    2  A    between atoms: P_4  and  O_27
    3  A    between atoms: C_25  and  C_28
                            x       y       z     vdW  Elec       q    Type
                         _______ _______ _______ _____ _____    ______ ____

>  <TORSDO>
F 3

$$$$
=
 OpenBabel11072411253D

 35 39  0  0  1  0  0  0  0  0999 V2000
  161.4440  209.9930  152.3460 C   0  0  1  0  0  3  0  0  0  0  0  0
  161.6800  203.9080  149.8890 C   0  0  0  0  0  0  0  0  0  0  0  0
  161.1880  207.3990  152.5450 C   0  0  2  0  0  3  0  0  0  0  0  0
  161.1450  203.6630  152.2480 C   0  0  0  0  0  3  0  0  0  0  0  0
  160.3930  202.5220  151.9610 C   0  0  0  0  0  3  0  0  0  0  0  0
  161.8190  208.6960  153.0880 C   0  0  0  0  0  2  0  0  0  0  0  0
  160.9330  202.7560  149.6150 C   0  0  0  0  0  3  0  0  0  0  0  0
  161.5660  208.3530  147.9370 C   0  0  0  0  0  2  0  0  0  0  0  0
  163.2410  207.1690  149.3090 O   0  0  0  0  0  0  0  0  0  0  0  0
  162.0670  209.4040  148.7180 O   0  0  0  0  0  0  0  0  0  0  0  0
  161.7970  204.3560  151.2220 C   0  0  0  0  0  0  0  0  0  0  0  0
  160.2900  202.0660  150.6460 C   0  0  0  0  0  0  0  0  0  0  0  0
  162.3740  207.0620  148.1830 C   0  0  1  0  0  3  0  0  0  0  0  0
  162.1280  210.1640  150.9900 C   0  0  0  0  0  2  0  0  0  0  0  0
  161.7840  206.8190  151.2540 C   0  0  1  0  0  3  0  0  0  0  0  0
  159.7990  207.4910  152.4500 O   0  0  0  0  0  1  0  0  0  0  0  0
  162.6150  207.7960  150.4230 C   0  0  2  0  0  3  0  0  0  0  0  0
  161.5050  205.7810  148.2160 C   0  0  2  0  0  3  0  0  0  0  0  0
  162.5900  205.5720  151.5760 C   0  0  0  0  0  2  0  0  0  0  0  0
  159.5650  200.9560  150.3680 F   0  0  0  0  0  0  0  0  0  0  0  0
  162.3540  204.6180  148.7520 C   0  0  0  0  0  2  0  0  0  0  0  0
  161.7900  209.0310  150.0390 C   0  0  2  0  0  3  0  0  0  0  0  0
  160.6350  203.4910  145.3220 C   0  0  0  0  0  0  0  0  0  0  0  0
  160.6580  202.1640  145.0370 F   0  0  0  0  0  0  0  0  0  0  0  0
  160.9640  203.9210  146.5440 C   0  0  0  0  0  3  0  0  0  0  0  0
  160.2790  204.4910  144.2590 C   0  0  0  0  0  2  0  0  0  0  0  0
  160.9720  205.4040  146.8130 C   0  0  2  0  0  3  0  0  0  0  0  0
  161.2400  205.6910  144.2700 C   0  0  0  0  0  2  0  0  0  0  0  0
  163.0940  205.8040  145.7600 F   0  0  0  0  0  0  0  0  0  0  0  0
  161.7430  206.0980  145.6720 C   0  0  2  0  0  3  0  0  0  0  0  0
  160.0580  210.1560  152.2360 O   0  0  0  0  0  0  0  0  0  0  0  0
  159.6900  211.5840  153.0760 P   0  0  0  0  0  0  0  0  0  0  0  0
  159.9000  212.7810  152.1760 O   0  0  0  0  0  0  0  0  0  0  0  0
  160.6770  211.7240  154.4440 O   0  0  0  0  0  1  0  0  0  0  0  0
  158.0720  211.5360  153.5650 O   0  0  0  0  0  1  0  0  0  0  0  0
  1 31  1  6  0  0  0
  1  6  1  0  0  0  0
  2 11  1  0  0  0  0
  3 16  1  6  0  0  0
  3  6  1  0  0  0  0
  5  4  1  0  0  0  0
  7  2  2  0  0  0  0
  7 12  1  0  0  0  0
  8 10  1  0  0  0  0
 10 22  1  0  0  0  0
 11 19  1  0  0  0  0
 11  4  2  0  0  0  0
 12  5  2  0  0  0  0
 13  8  1  1  0  0  0
 13 18  1  0  0  0  0
 13  9  1  0  0  0  0
 14  1  1  0  0  0  0
 15 19  1  1  0  0  0
 15  3  1  0  0  0  0
 17  9  1  6  0  0  0
 17 15  1  0  0  0  0
 18 21  1  6  0  0  0
 20 12  1  0  0  0  0
 21  2  1  0  0  0  0
 22 17  1  0  0  0  0
 22 14  1  1  0  0  0
 23 25  2  0  0  0  0
 24 23  1  0  0  0  0
 26 28  1  0  0  0  0
 26 23  1  0  0  0  0
 27 25  1  6  0  0  0
 27 18  1  0  0  0  0
 28 30  1  0  0  0  0
 30 29  1  6  0  0  0
 30 27  1  0  0  0  0
 31 32  1  0  0  0  0
 32 35  1  0  0  0  0
 32 34  1  0  0  0  0
 33 32  2  0  0  0  0
M  END
>  <MODEL>
2

>  <REMARK>
 VINA RESULT:      -6.9      2.950      5.137
  Name = 
  3 active torsions:
  status: ('A' for Active; 'I' for Inactive)
    1  A    between atoms: C_1  and  O_27
    2  A    between atoms: P_4  and  O_27
    3  A    between atoms: C_25  and  C_28
                            x       y       z     vdW  Elec       q    Type
                         _______ _______ _______ _____ _____    ______ ____

>  <TORSDO>
F 3

$$$$
=
 OpenBabel11072411253D

 35 39  0  0  1  0  0  0  0  0999 V2000
  161.8760  205.4690  152.0280 C   0  0  1  0  0  3  0  0  0  0  0  0
  160.4090  211.8240  152.7910 C   0  0  0  0  0  0  0  0  0  0  0  0
  161.6480  207.9190  151.1470 C   0  0  2  0  0  3  0  0  0  0  0  0
  161.2650  211.5960  150.5270 C   0  0  0  0  0  3  0  0  0  0  0  0
  160.4250  212.6290  150.1030 C   0  0  0  0  0  3  0  0  0  0  0  0
  162.5370  206.6740  151.3320 C   0  0  0  0  0  2  0  0  0  0  0  0
  159.5810  212.8660  152.3570 C   0  0  0  0  0  3  0  0  0  0  0  0
  159.4450  207.7920  155.3210 C   0  0  0  0  0  2  0  0  0  0  0  0
  161.5400  209.0010  154.8300 O   0  0  0  0  0  0  0  0  0  0  0  0
  160.3470  206.7270  155.1880 O   0  0  0  0  0  0  0  0  0  0  0  0
  161.2690  211.1930  151.8670 C   0  0  0  0  0  0  0  0  0  0  0  0
  159.5870  213.2660  151.0190 C   0  0  0  0  0  0  0  0  0  0  0  0
  160.1890  209.1420  155.2610 C   0  0  1  0  0  3  0  0  0  0  0  0
  161.6980  205.6330  153.5370 C   0  0  0  0  0  2  0  0  0  0  0  0
  161.3970  208.7890  152.3870 C   0  0  1  0  0  3  0  0  0  0  0  0
  160.4470  207.6170  150.5040 O   0  0  0  0  0  1  0  0  0  0  0  0
  161.6710  208.1080  153.7280 C   0  0  2  0  0  3  0  0  0  0  0  0
  159.4250  210.2400  154.4830 C   0  0  2  0  0  3  0  0  0  0  0  0
  162.1830  210.0840  152.2740 C   0  0  0  0  0  2  0  0  0  0  0  0
  158.7770  214.2710  150.6090 F   0  0  0  0  0  0  0  0  0  0  0  0
  160.3700  211.4260  154.2370 C   0  0  0  0  0  2  0  0  0  0  0  0
  160.8340  206.8320  153.8790 C   0  0  2  0  0  3  0  0  0  0  0  0
  156.1870  212.1410  155.0140 C   0  0  0  0  0  0  0  0  0  0  0  0
  155.3340  212.9130  154.2940 F   0  0  0  0  0  0  0  0  0  0  0  0
  157.2310  211.5570  154.4190 C   0  0  0  0  0  3  0  0  0  0  0  0
  155.9890  211.9680  156.4940 C   0  0  0  0  0  2  0  0  0  0  0  0
  158.1840  210.7450  155.2580 C   0  0  2  0  0  3  0  0  0  0  0  0
  157.3150  212.1090  157.2600 C   0  0  0  0  0  2  0  0  0  0  0  0
  159.3560  212.6400  156.1530 F   0  0  0  0  0  0  0  0  0  0  0  0
  158.5510  211.5700  156.5080 C   0  0  2  0  0  3  0  0  0  0  0  0
  160.6730  205.1000  151.4160 O   0  0  0  0  0  0  0  0  0  0  0  0
  160.9990  203.6560  150.5850 P   0  0  0  0  0  0  0  0  0  0  0  0
  159.7260  202.8540  150.4260 O   0  0  0  0  0  1  0  0  0  0  0  0
  162.1420  202.7410  151.4350 O   0  0  0  0  0  1  0  0  0  0  0  0
  161.6150  204.0260  149.0550 O   0  0  0  0  0  0  0  0  0  0  0  0
  1 31  1  6  0  0  0
  1 14  1  0  0  0  0
  2 21  1  0  0  0  0
  3 16  1  1  0  0  0
  3  6  1  0  0  0  0
  3 15  1  0  0  0  0
  4 11  1  0  0  0  0
  5  4  2  0  0  0  0
  5 12  1  0  0  0  0
  6  1  1  0  0  0  0
  7  2  1  0  0  0  0
  9 13  1  0  0  0  0
 10  8  1  0  0  0  0
 11 19  1  0  0  0  0
 11  2  2  0  0  0  0
 12  7  2  0  0  0  0
 13  8  1  6  0  0  0
 15 19  1  6  0  0  0
 15 17  1  0  0  0  0
 17 22  1  0  0  0  0
 17  9  1  1  0  0  0
 18 21  1  1  0  0  0
 18 27  1  0  0  0  0
 18 13  1  0  0  0  0
 20 12  1  0  0  0  0
 22 14  1  1  0  0  0
 22 10  1  0  0  0  0
 23 26  1  0  0  0  0
 24 23  1  0  0  0  0
 25 23  2  0  0  0  0
 26 28  1  0  0  0  0
 27 25  1  6  0  0  0
 27 30  1  0  0  0  0
 30 29  1  6  0  0  0
 30 28  1  0  0  0  0
 32 31  1  0  0  0  0
 32 34  1  0  0  0  0
 33 32  1  0  0  0  0
 35 32  2  0  0  0  0
M  END
>  <MODEL>
3

>  <REMARK>
 VINA RESULT:      -6.6      4.281      7.891
  Name = 
  3 active torsions:
  status: ('A' for Active; 'I' for Inactive)
    1  A    between atoms: C_1  and  O_27
    2  A    between atoms: P_4  and  O_27
    3  A    between atoms: C_25  and  C_28
                            x       y       z     vdW  Elec       q    Type
                         _______ _______ _______ _____ _____    ______ ____

>  <TORSDO>
F 3

$$$$
=
 OpenBabel11072411253D

 35 39  0  0  1  0  0  0  0  0999 V2000
  162.0320  206.3540  151.6320 C   0  0  1  0  0  3  0  0  0  0  0  0
  160.8290  212.5780  149.9170 C   0  0  0  0  0  0  0  0  0  0  0  0
  161.8540  208.2840  149.8780 C   0  0  2  0  0  3  0  0  0  0  0  0
  161.5760  211.4530  147.8950 C   0  0  0  0  0  3  0  0  0  0  0  0
  160.7570  212.2830  147.1270 C   0  0  0  0  0  3  0  0  0  0  0  0
  162.7050  207.1640  150.5070 C   0  0  0  0  0  2  0  0  0  0  0  0
  160.0200  213.4130  149.1360 C   0  0  0  0  0  3  0  0  0  0  0  0
  159.8320  209.8850  153.8330 C   0  0  0  0  0  2  0  0  0  0  0  0
  161.9460  210.7040  152.8580 O   0  0  0  0  0  0  0  0  0  0  0  0
  160.6890  208.8070  154.0990 O   0  0  0  0  0  0  0  0  0  0  0  0
  161.6240  211.5980  149.2860 C   0  0  0  0  0  0  0  0  0  0  0  0
  159.9820  213.2650  147.7470 C   0  0  0  0  0  0  0  0  0  0  0  0
  160.6210  211.0680  153.2360 C   0  0  1  0  0  3  0  0  0  0  0  0
  161.9270  207.0960  152.9640 C   0  0  0  0  0  2  0  0  0  0  0  0
  161.6880  209.5770  150.6920 C   0  0  1  0  0  3  0  0  0  0  0  0
  160.6160  207.8180  149.4350 O   0  0  0  0  0  1  0  0  0  0  0  0
  161.9970  209.4510  152.1840 C   0  0  2  0  0  3  0  0  0  0  0  0
  159.8630  211.8190  152.1150 C   0  0  2  0  0  3  0  0  0  0  0  0
  162.5150  210.6870  150.0660 C   0  0  0  0  0  2  0  0  0  0  0  0
  159.1910  214.0750  147.0020 F   0  0  0  0  0  0  0  0  0  0  0  0
  160.8380  212.7700  151.4050 C   0  0  0  0  0  2  0  0  0  0  0  0
  161.1210  208.3750  152.8380 C   0  0  2  0  0  3  0  0  0  0  0  0
  156.5690  212.4190  153.8930 C   0  0  0  0  0  0  0  0  0  0  0  0
  155.6430  211.7040  154.5820 F   0  0  0  0  0  0  0  0  0  0  0  0
  157.6920  211.8330  153.4690 C   0  0  0  0  0  3  0  0  0  0  0  0
  156.3220  213.8650  153.5660 C   0  0  0  0  0  2  0  0  0  0  0  0
  158.6760  212.6440  152.6670 C   0  0  2  0  0  3  0  0  0  0  0  0
  156.6910  214.1830  152.1070 C   0  0  0  0  0  2  0  0  0  0  0  0
  157.4510  212.4970  150.6060 F   0  0  0  0  0  0  0  0  0  0  0  0
  157.9000  213.3920  151.5640 C   0  0  2  0  0  3  0  0  0  0  0  0
  160.7910  205.8390  151.2420 O   0  0  0  0  0  0  0  0  0  0  0  0
  161.0950  204.2600  150.6980 P   0  0  0  0  0  0  0  0  0  0  0  0
  159.8370  203.4260  150.8070 O   0  0  0  0  0  1  0  0  0  0  0  0
  162.3240  203.5530  151.6230 O   0  0  0  0  0  1  0  0  0  0  0  0
  161.5830  204.3170  149.0810 O   0  0  0  0  0  0  0  0  0  0  0  0
  1 31  1  6  0  0  0
  1 14  1  0  0  0  0
  2 21  1  0  0  0  0
  3 16  1  1  0  0  0
  3  6  1  0  0  0  0
  3 15  1  0  0  0  0
  4 11  2  0  0  0  0
  5 12  2  0  0  0  0
  5  4  1  0  0  0  0
  6  1  1  0  0  0  0
  7  2  2  0  0  0  0
  8 10  1  0  0  0  0
  9 13  1  0  0  0  0
 11  2  1  0  0  0  0
 11 19  1  0  0  0  0
 12  7  1  0  0  0  0
 13  8  1  6  0  0  0
 15 19  1  6  0  0  0
 15 17  1  0  0  0  0
 17 22  1  0  0  0  0
 17  9  1  1  0  0  0
 18 21  1  1  0  0  0
 18 27  1  0  0  0  0
 18 13  1  0  0  0  0
 20 12  1  0  0  0  0
 22 14  1  1  0  0  0
 22 10  1  0  0  0  0
 23 24  1  0  0  0  0
 25 23  2  0  0  0  0
 26 23  1  0  0  0  0
 27 25  1  6  0  0  0
 28 26  1  0  0  0  0
 30 29  1  6  0  0  0
 30 28  1  0  0  0  0
 30 27  1  0  0  0  0
 32 33  1  0  0  0  0
 32 31  1  0  0  0  0
 32 34  1  0  0  0  0
 35 32  2  0  0  0  0
M  END
>  <MODEL>
4

>  <REMARK>
 VINA RESULT:      -6.0      4.103      7.857
  Name = 
  3 active torsions:
  status: ('A' for Active; 'I' for Inactive)
    1  A    between atoms: C_1  and  O_27
    2  A    between atoms: P_4  and  O_27
    3  A    between atoms: C_25  and  C_28
                            x       y       z     vdW  Elec       q    Type
                         _______ _______ _______ _____ _____    ______ ____

>  <TORSDO>
F 3

$$$$
=
 OpenBabel11072411253D

 35 39  0  0  1  0  0  0  0  0999 V2000
  161.9900  205.4140  150.7900 C   0  0  1  0  0  3  0  0  0  0  0  0
  160.8990  211.8890  150.6890 C   0  0  0  0  0  0  0  0  0  0  0  0
  161.7990  207.7150  149.5660 C   0  0  2  0  0  3  0  0  0  0  0  0
  161.5350  211.2760  148.4240 C   0  0  0  0  0  3  0  0  0  0  0  0
  160.7110  212.2830  147.9170 C   0  0  0  0  0  3  0  0  0  0  0  0
  162.6420  206.4610  149.8660 C   0  0  0  0  0  2  0  0  0  0  0  0
  160.0850  212.9030  150.1700 C   0  0  0  0  0  3  0  0  0  0  0  0
  159.9780  208.3430  153.8760 C   0  0  0  0  0  2  0  0  0  0  0  0
  162.0750  209.3360  153.0360 O   0  0  0  0  0  0  0  0  0  0  0  0
  160.8130  207.2170  153.8340 O   0  0  0  0  0  0  0  0  0  0  0  0
  161.6410  211.0770  149.8050 C   0  0  0  0  0  0  0  0  0  0  0  0
  159.9890  213.0990  148.7900 C   0  0  0  0  0  0  0  0  0  0  0  0
  160.7770  209.6210  153.5500 C   0  0  1  0  0  3  0  0  0  0  0  0
  161.9570  205.8110  152.2660 C   0  0  0  0  0  2  0  0  0  0  0  0
  161.7020  208.7740  150.6750 C   0  0  1  0  0  3  0  0  0  0  0  0
  160.5320  207.3940  149.0780 O   0  0  0  0  0  1  0  0  0  0  0  0
  162.0640  208.2840  152.0770 C   0  0  2  0  0  3  0  0  0  0  0  0
  159.9980  210.6360  152.6780 C   0  0  2  0  0  3  0  0  0  0  0  0
  162.5350  209.9880  150.3010 C   0  0  0  0  0  2  0  0  0  0  0  0
  159.1940  214.0790  148.2990 F   0  0  0  0  0  0  0  0  0  0  0  0
  160.9720  211.7140  152.1770 C   0  0  0  0  0  2  0  0  0  0  0  0
  161.1840  207.0970  152.4890 C   0  0  2  0  0  3  0  0  0  0  0  0
  157.4190  213.3060  153.4520 C   0  0  0  0  0  0  0  0  0  0  0  0
  156.9490  214.4530  152.8990 F   0  0  0  0  0  0  0  0  0  0  0  0
  158.3230  212.5670  152.8020 C   0  0  0  0  0  3  0  0  0  0  0  0
  156.9570  212.8760  154.8160 C   0  0  0  0  0  2  0  0  0  0  0  0
  158.8570  211.3240  153.4660 C   0  0  2  0  0  3  0  0  0  0  0  0
  158.1340  212.4050  155.6870 C   0  0  0  0  0  2  0  0  0  0  0  0
  160.3840  212.4870  154.9100 F   0  0  0  0  0  0  0  0  0  0  0  0
  159.2570  211.6810  154.9110 C   0  0  2  0  0  3  0  0  0  0  0  0
  160.7210  205.0320  150.3420 O   0  0  0  0  0  0  0  0  0  0  0  0
  160.8450  203.3870  149.9430 P   0  0  0  0  0  0  0  0  0  0  0  0
  159.4670  202.7670  149.8700 O   0  0  0  0  0  1  0  0  0  0  0  0
  161.7700  202.5750  151.1060 O   0  0  0  0  0  1  0  0  0  0  0  0
  161.5980  203.2400  148.4370 O   0  0  0  0  0  0  0  0  0  0  0  0
  1 31  1  6  0  0  0
  1 14  1  0  0  0  0
  2 21  1  0  0  0  0
  3 16  1  1  0  0  0
  3  6  1  0  0  0  0
  3 15  1  0  0  0  0
  4 11  1  0  0  0  0
  5  4  2  0  0  0  0
  5 12  1  0  0  0  0
  6  1  1  0  0  0  0
  7  2  1  0  0  0  0
  9 13  1  0  0  0  0
 10  8  1  0  0  0  0
 11 19  1  0  0  0  0
 11  2  2  0  0  0  0
 12  7  2  0  0  0  0
 13  8  1  6  0  0  0
 15 19  1  6  0  0  0
 15 17  1  0  0  0  0
 17 22  1  0  0  0  0
 17  9  1  1  0  0  0
 18 21  1  1  0  0  0
 18 27  1  0  0  0  0
 18 13  1  0  0  0  0
 20 12  1  0  0  0  0
 22 14  1  1  0  0  0
 22 10  1  0  0  0  0
 23 26  1  0  0  0  0
 24 23  1  0  0  0  0
 25 23  2  0  0  0  0
 26 28  1  0  0  0  0
 27 25  1  6  0  0  0
 27 30  1  0  0  0  0
 30 29  1  6  0  0  0
 30 28  1  0  0  0  0
 32 31  1  0  0  0  0
 32 34  1  0  0  0  0
 33 32  1  0  0  0  0
 35 32  2  0  0  0  0
M  END
>  <MODEL>
5

>  <REMARK>
 VINA RESULT:      -5.2      4.107      7.867
  Name = 
  3 active torsions:
  status: ('A' for Active; 'I' for Inactive)
    1  A    between atoms: C_1  and  O_27
    2  A    between atoms: P_4  and  O_27
    3  A    between atoms: C_25  and  C_28
                            x       y       z     vdW  Elec       q    Type
                         _______ _______ _______ _____ _____    ______ ____

>  <TORSDO>
F 3

$$$$
=
 OpenBabel11072411253D

 35 39  0  0  1  0  0  0  0  0999 V2000
  161.4190  203.3430  150.1310 C   0  0  1  0  0  3  0  0  0  0  0  0
  161.8880  209.8460  150.9230 C   0  0  0  0  0  0  0  0  0  0  0  0
  161.6650  205.7800  149.2170 C   0  0  2  0  0  3  0  0  0  0  0  0
  162.1460  209.4350  148.5400 C   0  0  0  0  0  3  0  0  0  0  0  0
  161.5400  210.6620  148.2610 C   0  0  0  0  0  3  0  0  0  0  0  0
  162.2110  204.3390  149.2620 C   0  0  0  0  0  2  0  0  0  0  0  0
  161.2930  211.0790  150.6310 C   0  0  0  0  0  3  0  0  0  0  0  0
  160.4560  206.1770  153.7640 C   0  0  0  0  0  2  0  0  0  0  0  0
  162.6410  206.7880  152.7920 O   0  0  0  0  0  0  0  0  0  0  0  0
  160.9930  204.9110  153.4880 O   0  0  0  0  0  0  0  0  0  0  0  0
  162.3310  209.0230  149.8650 C   0  0  0  0  0  0  0  0  0  0  0  0
  161.1170  211.4850  149.3060 C   0  0  0  0  0  0  0  0  0  0  0  0
  161.5010  207.2790  153.4920 C   0  0  1  0  0  3  0  0  0  0  0  0
  161.6200  203.5240  151.6360 C   0  0  0  0  0  2  0  0  0  0  0  0
  161.9260  206.6650  150.4460 C   0  0  1  0  0  3  0  0  0  0  0  0
  160.3180  205.8210  148.8560 O   0  0  0  0  0  1  0  0  0  0  0  0
  162.2910  205.9120  151.7250 C   0  0  2  0  0  3  0  0  0  0  0  0
  160.9060  208.5550  152.8480 C   0  0  2  0  0  3  0  0  0  0  0  0
  162.9840  207.7030  150.1150 C   0  0  0  0  0  2  0  0  0  0  0  0
  160.5340  212.6780  149.0350 F   0  0  0  0  0  0  0  0  0  0  0  0
  162.0560  209.4490  152.3600 C   0  0  0  0  0  2  0  0  0  0  0  0
  161.1970  204.9040  152.1020 C   0  0  2  0  0  3  0  0  0  0  0  0
  159.1030  211.5890  154.2340 C   0  0  0  0  0  0  0  0  0  0  0  0
  158.8580  212.8750  153.8760 F   0  0  0  0  0  0  0  0  0  0  0  0
  159.7430  210.7670  153.3970 C   0  0  0  0  0  3  0  0  0  0  0  0
  158.6940  211.0880  155.5910 C   0  0  0  0  0  2  0  0  0  0  0  0
  160.0400  209.3600  153.8460 C   0  0  2  0  0  3  0  0  0  0  0  0
  159.8120  210.2600  156.2460 C   0  0  0  0  0  2  0  0  0  0  0  0
  161.9300  209.9580  155.2020 F   0  0  0  0  0  0  0  0  0  0  0  0
  160.6540  209.4230  155.2590 C   0  0  2  0  0  3  0  0  0  0  0  0
  160.0590  203.3210  149.8030 O   0  0  0  0  0  0  0  0  0  0  0  0
  159.7920  201.8310  149.0340 P   0  0  0  0  0  0  0  0  0  0  0  0
  160.0720  201.9580  147.5530 O   0  0  0  0  0  0  0  0  0  0  0  0
  158.1910  201.3350  149.2670 O   0  0  0  0  0  1  0  0  0  0  0  0
  160.8310  200.6740  149.6960 O   0  0  0  0  0  1  0  0  0  0  0  0
  1 31  1  1  0  0  0
  1 14  1  0  0  0  0
  2 21  1  0  0  0  0
  3 16  1  1  0  0  0
  3  6  1  0  0  0  0
  3 15  1  0  0  0  0
  4 11  1  0  0  0  0
  5  4  2  0  0  0  0
  5 12  1  0  0  0  0
  6  1  1  0  0  0  0
  7  2  1  0  0  0  0
  9 13  1  0  0  0  0
 10  8  1  0  0  0  0
 11 19  1  0  0  0  0
 11  2  2  0  0  0  0
 12  7  2  0  0  0  0
 13  8  1  6  0  0  0
 15 19  1  6  0  0  0
 15 17  1  0  0  0  0
 17 22  1  0  0  0  0
 17  9  1  1  0  0  0
 18 21  1  1  0  0  0
 18 13  1  0  0  0  0
 18 27  1  0  0  0  0
 20 12  1  0  0  0  0
 22 14  1  1  0  0  0
 22 10  1  0  0  0  0
 23 26  1  0  0  0  0
 24 23  1  0  0  0  0
 25 23  2  0  0  0  0
 26 28  1  0  0  0  0
 27 25  1  6  0  0  0
 27 30  1  0  0  0  0
 30 29  1  6  0  0  0
 30 28  1  0  0  0  0
 32 34  1  0  0  0  0
 32 35  1  0  0  0  0
 32 31  1  0  0  0  0
 33 32  2  0  0  0  0
M  END
>  <MODEL>
6

>  <REMARK>
 VINA RESULT:      -5.2      4.256      7.805
  Name = 
  3 active torsions:
  status: ('A' for Active; 'I' for Inactive)
    1  A    between atoms: C_1  and  O_27
    2  A    between atoms: P_4  and  O_27
    3  A    between atoms: C_25  and  C_28
                            x       y       z     vdW  Elec       q    Type
                         _______ _______ _______ _____ _____    ______ ____

>  <TORSDO>
F 3

$$$$
=
 OpenBabel11072411253D

 35 39  0  0  1  0  0  0  0  0999 V2000
  159.5500  212.9430  151.9890 C   0  0  1  0  0  3  0  0  0  0  0  0
  161.9570  206.8360  152.1940 C   0  0  0  0  0  0  0  0  0  0  0  0
  159.8760  210.6150  153.1320 C   0  0  2  0  0  3  0  0  0  0  0  0
  160.8200  207.1850  154.3140 C   0  0  0  0  0  3  0  0  0  0  0  0
  160.4830  205.8310  154.3590 C   0  0  0  0  0  3  0  0  0  0  0  0
  159.9880  212.1490  153.2350 C   0  0  0  0  0  2  0  0  0  0  0  0
  161.6240  205.4780  152.2550 C   0  0  0  0  0  3  0  0  0  0  0  0
  161.3660  210.1350  148.6780 C   0  0  0  0  0  2  0  0  0  0  0  0
  162.7910  210.0710  150.6920 O   0  0  0  0  0  0  0  0  0  0  0  0
  161.3460  211.4820  149.0660 O   0  0  0  0  0  0  0  0  0  0  0  0
  161.5610  207.6940  153.2410 C   0  0  0  0  0  0  0  0  0  0  0  0
  160.8890  204.9770  153.3320 C   0  0  0  0  0  0  0  0  0  0  0  0
  162.3490  209.3330  149.5560 C   0  0  1  0  0  3  0  0  0  0  0  0
  160.5450  212.8940  150.8300 C   0  0  0  0  0  2  0  0  0  0  0  0
  160.9500  209.8900  152.3080 C   0  0  1  0  0  3  0  0  0  0  0  0
  158.5990  210.2050  152.7480 O   0  0  0  0  0  1  0  0  0  0  0  0
  161.7310  210.7720  151.3340 C   0  0  2  0  0  3  0  0  0  0  0  0
  161.8440  207.9160  149.9220 C   0  0  2  0  0  3  0  0  0  0  0  0
  161.8970  209.1500  153.2360 C   0  0  0  0  0  2  0  0  0  0  0  0
  160.5670  203.6620  153.3780 F   0  0  0  0  0  0  0  0  0  0  0  0
  162.7470  207.3330  151.0180 C   0  0  0  0  0  2  0  0  0  0  0  0
  160.7870  211.4750  150.3500 C   0  0  2  0  0  3  0  0  0  0  0  0
  160.7650  206.5560  146.5510 C   0  0  0  0  0  0  0  0  0  0  0  0
  159.8960  206.8770  145.5590 F   0  0  0  0  0  0  0  0  0  0  0  0
  160.9200  207.3720  147.5980 C   0  0  0  0  0  3  0  0  0  0  0  0
  161.5300  205.2640  146.5020 C   0  0  0  0  0  2  0  0  0  0  0  0
  161.8580  206.9620  148.7040 C   0  0  2  0  0  3  0  0  0  0  0  0
  161.5210  204.5520  147.8650 C   0  0  0  0  0  2  0  0  0  0  0  0
  160.3260  205.4240  149.7310 F   0  0  0  0  0  0  0  0  0  0  0  0
  161.5480  205.5000  149.0840 C   0  0  2  0  0  3  0  0  0  0  0  0
  158.2630  212.5930  151.5650 O   0  0  0  0  0  0  0  0  0  0  0  0
  157.1950  213.3920  152.6150 P   0  0  0  0  0  0  0  0  0  0  0  0
  157.9380  214.4520  153.3970 O   0  0  0  0  0  1  0  0  0  0  0  0
  156.4960  212.2830  153.6860 O   0  0  0  0  0  1  0  0  0  0  0  0
  155.9750  214.1270  151.7060 O   0  0  0  0  0  0  0  0  0  0  0  0
  1 31  1  6  0  0  0
  1  6  1  0  0  0  0
  2  7  2  0  0  0  0
  2 11  1  0  0  0  0
  3 16  1  6  0  0  0
  3  6  1  0  0  0  0
  4  5  1  0  0  0  0
  7 12  1  0  0  0  0
  8 10  1  0  0  0  0
 10 22  1  0  0  0  0
 11  4  2  0  0  0  0
 12 20  1  0  0  0  0
 12  5  2  0  0  0  0
 13  8  1  1  0  0  0
 13 18  1  0  0  0  0
 13  9  1  0  0  0  0
 14  1  1  0  0  0  0
 15  3  1  0  0  0  0
 15 19  1  1  0  0  0
 17  9  1  6  0  0  0
 17 15  1  0  0  0  0
 18 21  1  1  0  0  0
 19 11  1  0  0  0  0
 21  2  1  0  0  0  0
 22 14  1  1  0  0  0
 22 17  1  0  0  0  0
 23 25  2  0  0  0  0
 24 23  1  0  0  0  0
 26 23  1  0  0  0  0
 26 28  1  0  0  0  0
 27 25  1  6  0  0  0
 27 30  1  0  0  0  0
 27 18  1  0  0  0  0
 28 30  1  0  0  0  0
 30 29  1  6  0  0  0
 31 32  1  0  0  0  0
 32 33  1  0  0  0  0
 32 34  1  0  0  0  0
 35 32  2  0  0  0  0
M  END
>  <MODEL>
7

>  <REMARK>
 VINA RESULT:      -5.0      2.135      3.469
  Name = 
  3 active torsions:
  status: ('A' for Active; 'I' for Inactive)
    1  A    between atoms: C_1  and  O_27
    2  A    between atoms: P_4  and  O_27
    3  A    between atoms: C_25  and  C_28
                            x       y       z     vdW  Elec       q    Type
                         _______ _______ _______ _____ _____    ______ ____

>  <TORSDO>
F 3

$$$$
