=
 OpenBabel11072412113D

 31 36  0  0  1  0  0  0  0  0999 V2000
  161.4250  205.0010  152.8160 N   0  0  0  0  0  1  0  0  0  0  0  0
  161.8350  208.2360  155.5900 O   0  0  0  0  0  0  0  0  0  0  0  0
  160.5440  210.0760  154.9100 C   0  0  1  0  0  3  0  0  0  0  0  0
  160.6370  206.5090  154.5620 C   0  0  0  0  0  2  0  0  0  0  0  0
  160.7510  209.0040  155.9920 C   0  0  1  0  0  3  0  0  0  0  0  0
  161.3760  207.3980  152.2590 C   0  0  2  0  0  3  0  0  0  0  0  0
  160.3240  208.9750  153.8620 C   0  0  1  0  0  3  0  0  0  0  0  0
  161.4240  208.8290  152.8200 C   0  0  0  0  0  2  0  0  0  0  0  0
  160.5980  207.9760  154.9430 C   0  0  1  0  0  0  0  0  0  0  0  0
  161.5920  206.3350  153.3640 C   0  0  2  0  0  3  0  0  0  0  0  0
  155.9160  213.4330  156.0590 C   0  0  0  0  0  0  0  0  0  0  0  0
  155.8290  214.4520  157.0110 O   0  0  0  0  0  1  0  0  0  0  0  0
  157.3260  212.8340  155.9770 C   0  0  1  0  0  0  0  0  0  0  0  0
  155.6460  213.9880  154.6550 C   0  0  0  0  0  2  0  0  0  0  0  0
  159.3020  210.8830  155.1980 C   0  0  0  0  0  0  0  0  0  0  0  0
  157.6060  211.6570  156.9140 C   0  0  0  0  0  2  0  0  0  0  0  0
  158.7180  211.8100  154.1380 C   0  0  0  0  0  2  0  0  0  0  0  0
  157.3380  212.2970  154.5640 C   0  0  2  0  0  3  0  0  0  0  0  0
  158.8310  210.8770  156.4680 C   0  0  0  0  0  3  0  0  0  0  0  0
  154.9680  212.4480  156.3490 O   0  0  0  0  0  1  0  0  0  0  0  0
  158.3950  213.9210  156.1840 C   0  0  0  0  0  1  0  0  0  0  0  0
  156.6740  213.3540  153.7140 C   0  0  0  0  0  2  0  0  0  0  0  0
  162.6420  207.2270  150.9560 S   0  0  0  0  0  0  0  0  0  0  0  0
  161.5010  206.5750  149.6830 C   0  0  1  0  0  3  0  0  0  0  0  0
  162.0890  205.8480  147.2310 C   0  0  2  0  0  3  0  0  0  0  0  0
  161.0610  204.2640  148.8530 C   0  0  0  0  0  3  0  0  0  0  0  0
  162.2190  208.0840  147.9990 O   0  0  0  0  0  0  0  0  0  0  0  0
  161.0200  204.7790  147.4430 C   0  0  0  0  0  2  0  0  0  0  0  0
  161.9540  206.9240  148.2790 C   0  0  0  0  0  0  0  0  0  0  0  0
  161.9500  206.3830  145.9640 F   0  0  0  0  0  0  0  0  0  0  0  0
  161.2760  205.0950  149.8820 C   0  0  0  0  0  3  0  0  0  0  0  0
  3 15  1  1  0  0  0
  3  5  1  0  0  0  0
  5  2  1  6  0  0  0
  6 23  1  6  0  0  0
  6  8  1  0  0  0  0
  6 10  1  0  0  0  0
  7  8  1  6  0  0  0
  7  3  1  0  0  0  0
  7  9  1  0  0  0  0
  9  4  1  1  0  0  0
  9  2  1  0  0  0  0
  9  5  1  0  0  0  0
 10  1  1  6  0  0  0
 10  4  1  0  0  0  0
 11 20  1  0  0  0  0
 11 12  1  0  0  0  0
 13 11  1  0  0  0  0
 13 21  1  1  0  0  0
 13 16  1  0  0  0  0
 14 11  1  0  0  0  0
 15 19  2  0  0  0  0
 17 18  1  0  0  0  0
 17 15  1  0  0  0  0
 18 22  1  6  0  0  0
 18 13  1  0  0  0  0
 19 16  1  0  0  0  0
 22 14  1  0  0  0  0
 24 31  1  0  0  0  0
 24 23  1  1  0  0  0
 25 30  1  6  0  0  0
 25 28  1  0  0  0  0
 25 29  1  0  0  0  0
 26 31  2  0  0  0  0
 27 29  2  0  0  0  0
 28 26  1  0  0  0  0
 29 24  1  0  0  0  0
M  END
>  <MODEL>
1

>  <REMARK>
 VINA RESULT:      -8.0      0.000      0.000
  Name = 
  3 active torsions:
  status: ('A' for Active; 'I' for Inactive)
    1  A    between atoms: S_2  and  C_6
    2  A    between atoms: S_2  and  C_17
    3  A    between atoms: C_9  and  C_15
                            x       y       z     vdW  Elec       q    Type
                         _______ _______ _______ _____ _____    ______ ____

>  <TORSDO>
F 3

$$$$
=
 OpenBabel11072412113D

 31 36  0  0  1  0  0  0  0  0999 V2000
  159.7760  201.8900  149.4930 N   0  0  0  0  0  1  0  0  0  0  0  0
  161.9420  203.9460  152.5590 O   0  0  0  0  0  0  0  0  0  0  0  0
  161.8480  206.2690  152.2220 C   0  0  1  0  0  3  0  0  0  0  0  0
  159.9750  203.3070  151.4660 C   0  0  0  0  0  2  0  0  0  0  0  0
  161.4610  205.1070  153.1500 C   0  0  1  0  0  3  0  0  0  0  0  0
  161.0300  203.9910  149.2170 C   0  0  2  0  0  3  0  0  0  0  0  0
  161.0410  205.6280  151.0830 C   0  0  1  0  0  3  0  0  0  0  0  0
  161.8620  205.0700  149.9280 C   0  0  0  0  0  2  0  0  0  0  0  0
  160.7500  204.4900  152.0130 C   0  0  1  0  0  0  0  0  0  0  0  0
  160.6550  202.8280  150.1680 C   0  0  2  0  0  3  0  0  0  0  0  0
  159.8240  211.3680  154.1970 C   0  0  0  0  0  0  0  0  0  0  0  0
  160.3140  212.1090  155.2760 O   0  0  0  0  0  1  0  0  0  0  0  0
  160.6740  210.1230  153.9150 C   0  0  1  0  0  0  0  0  0  0  0  0
  159.8960  212.1920  152.9050 C   0  0  0  0  0  2  0  0  0  0  0  0
  161.2530  207.5630  152.7200 C   0  0  0  0  0  0  0  0  0  0  0  0
  160.2670  208.8520  154.6650 C   0  0  0  0  0  2  0  0  0  0  0  0
  161.2680  208.8100  151.8430 C   0  0  0  0  0  2  0  0  0  0  0  0
  160.3830  209.8930  152.4490 C   0  0  2  0  0  3  0  0  0  0  0  0
  160.8620  207.6150  154.0150 C   0  0  0  0  0  3  0  0  0  0  0  0
  158.4920  211.0220  154.4420 O   0  0  0  0  0  1  0  0  0  0  0  0
  162.1650  210.4110  154.1630 C   0  0  0  0  0  1  0  0  0  0  0  0
  160.4040  211.2580  151.8040 C   0  0  0  0  0  2  0  0  0  0  0  0
  161.9690  203.3620  147.7840 S   0  0  0  0  0  0  0  0  0  0  0  0
  161.8940  204.9180  146.8250 C   0  0  1  0  0  3  0  0  0  0  0  0
  161.1050  205.2280  144.3420 C   0  0  2  0  0  3  0  0  0  0  0  0
  159.9990  206.4250  146.2230 C   0  0  0  0  0  3  0  0  0  0  0  0
  163.0590  204.0400  144.9550 O   0  0  0  0  0  0  0  0  0  0  0  0
  160.5510  206.5640  144.8330 C   0  0  0  0  0  2  0  0  0  0  0  0
  162.0950  204.6840  145.3410 C   0  0  0  0  0  0  0  0  0  0  0  0
  161.7090  205.4140  143.1110 F   0  0  0  0  0  0  0  0  0  0  0  0
  160.6240  205.6730  147.1390 C   0  0  0  0  0  3  0  0  0  0  0  0
  3 15  1  1  0  0  0
  3  5  1  0  0  0  0
  5  2  1  6  0  0  0
  6 23  1  6  0  0  0
  6  8  1  0  0  0  0
  6 10  1  0  0  0  0
  7  8  1  6  0  0  0
  7  9  1  0  0  0  0
  7  3  1  0  0  0  0
  9  4  1  1  0  0  0
  9  2  1  0  0  0  0
  9  5  1  0  0  0  0
 10  1  1  6  0  0  0
 10  4  1  0  0  0  0
 11 20  1  0  0  0  0
 11 12  1  0  0  0  0
 13 21  1  1  0  0  0
 13 11  1  0  0  0  0
 13 16  1  0  0  0  0
 14 11  1  0  0  0  0
 15 19  2  0  0  0  0
 17 18  1  0  0  0  0
 17 15  1  0  0  0  0
 18 22  1  6  0  0  0
 18 13  1  0  0  0  0
 19 16  1  0  0  0  0
 22 14  1  0  0  0  0
 24 31  1  0  0  0  0
 24 23  1  1  0  0  0
 25 30  1  6  0  0  0
 25 28  1  0  0  0  0
 25 29  1  0  0  0  0
 26 31  2  0  0  0  0
 27 29  2  0  0  0  0
 28 26  1  0  0  0  0
 29 24  1  0  0  0  0
M  END
>  <MODEL>
2

>  <REMARK>
 VINA RESULT:      -7.6      2.987      4.486
  Name = 
  3 active torsions:
  status: ('A' for Active; 'I' for Inactive)
    1  A    between atoms: S_2  and  C_6
    2  A    between atoms: S_2  and  C_17
    3  A    between atoms: C_9  and  C_15
                            x       y       z     vdW  Elec       q    Type
                         _______ _______ _______ _____ _____    ______ ____

>  <TORSDO>
F 3

$$$$
=
 OpenBabel11072412113D

 31 36  0  0  1  0  0  0  0  0999 V2000
  161.1180  203.7750  150.6070 N   0  0  0  0  0  1  0  0  0  0  0  0
  162.2420  206.5160  153.6970 O   0  0  0  0  0  0  0  0  0  0  0  0
  161.2820  208.6260  153.3200 C   0  0  1  0  0  3  0  0  0  0  0  0
  160.7020  205.1700  152.5620 C   0  0  0  0  0  2  0  0  0  0  0  0
  161.3370  207.4080  154.2560 C   0  0  1  0  0  3  0  0  0  0  0  0
  161.4870  206.1930  150.3310 C   0  0  2  0  0  3  0  0  0  0  0  0
  160.8160  207.7200  152.1700 C   0  0  1  0  0  3  0  0  0  0  0  0
  161.8230  207.5120  151.0470 C   0  0  0  0  0  2  0  0  0  0  0  0
  160.9500  206.5620  153.1090 C   0  0  1  0  0  0  0  0  0  0  0  0
  161.5530  204.9800  151.2910 C   0  0  2  0  0  3  0  0  0  0  0  0
  157.4080  212.5800  155.1530 C   0  0  0  0  0  0  0  0  0  0  0  0
  157.5470  213.4610  156.2290 O   0  0  0  0  0  1  0  0  0  0  0  0
  158.6770  211.7520  154.9130 C   0  0  1  0  0  0  0  0  0  0  0  0
  157.1970  213.3580  153.8480 C   0  0  0  0  0  2  0  0  0  0  0  0
  160.2240  209.5980  153.7800 C   0  0  0  0  0  0  0  0  0  0  0  0
  158.7640  210.4280  155.6770 C   0  0  0  0  0  2  0  0  0  0  0  0
  159.7870  210.7490  152.8810 C   0  0  0  0  0  2  0  0  0  0  0  0
  158.5380  211.4160  153.4450 C   0  0  2  0  0  3  0  0  0  0  0  0
  159.8050  209.5070  155.0640 C   0  0  0  0  0  3  0  0  0  0  0  0
  156.3030  211.7530  155.3730 O   0  0  0  0  0  1  0  0  0  0  0  0
  159.9370  212.5890  155.1910 C   0  0  0  0  0  1  0  0  0  0  0  0
  158.0550  212.6800  152.7760 C   0  0  0  0  0  2  0  0  0  0  0  0
  162.6400  205.9630  148.9350 S   0  0  0  0  0  0  0  0  0  0  0  0
  161.4040  205.2350  147.8000 C   0  0  1  0  0  3  0  0  0  0  0  0
  161.1810  205.6270  145.2160 C   0  0  2  0  0  3  0  0  0  0  0  0
  161.5330  203.3540  146.1660 C   0  0  0  0  0  3  0  0  0  0  0  0
  160.7930  207.3120  146.8330 O   0  0  0  0  0  0  0  0  0  0  0  0
  160.7490  204.1630  145.1740 C   0  0  0  0  0  2  0  0  0  0  0  0
  161.0980  206.1470  146.6290 C   0  0  0  0  0  0  0  0  0  0  0  0
  160.3640  206.3640  144.3780 F   0  0  0  0  0  0  0  0  0  0  0  0
  161.8260  203.8480  147.3770 C   0  0  0  0  0  3  0  0  0  0  0  0
  3 15  1  1  0  0  0
  3  5  1  0  0  0  0
  5  2  1  6  0  0  0
  6 23  1  6  0  0  0
  6  8  1  0  0  0  0
  6 10  1  0  0  0  0
  7  8  1  6  0  0  0
  7  9  1  0  0  0  0
  7  3  1  0  0  0  0
  9  4  1  1  0  0  0
  9  2  1  0  0  0  0
  9  5  1  0  0  0  0
 10  1  1  6  0  0  0
 10  4  1  0  0  0  0
 11 20  1  0  0  0  0
 11 12  1  0  0  0  0
 13 11  1  0  0  0  0
 13 21  1  1  0  0  0
 13 16  1  0  0  0  0
 14 11  1  0  0  0  0
 15 19  2  0  0  0  0
 17 18  1  0  0  0  0
 17 15  1  0  0  0  0
 18 22  1  6  0  0  0
 18 13  1  0  0  0  0
 19 16  1  0  0  0  0
 22 14  1  0  0  0  0
 24 23  1  6  0  0  0
 25 30  1  6  0  0  0
 25 29  1  0  0  0  0
 26 31  2  0  0  0  0
 28 25  1  0  0  0  0
 28 26  1  0  0  0  0
 29 27  2  0  0  0  0
 29 24  1  0  0  0  0
 31 24  1  0  0  0  0
M  END
>  <MODEL>
3

>  <REMARK>
 VINA RESULT:      -7.6      1.580      2.244
  Name = 
  3 active torsions:
  status: ('A' for Active; 'I' for Inactive)
    1  A    between atoms: S_2  and  C_6
    2  A    between atoms: S_2  and  C_17
    3  A    between atoms: C_9  and  C_15
                            x       y       z     vdW  Elec       q    Type
                         _______ _______ _______ _____ _____    ______ ____

>  <TORSDO>
F 3

$$$$
=
 OpenBabel11072412113D

 31 36  0  0  1  0  0  0  0  0999 V2000
  161.4450  212.5370  157.2570 N   0  0  0  0  0  1  0  0  0  0  0  0
  161.5200  208.3000  156.6470 O   0  0  0  0  0  0  0  0  0  0  0  0
  160.4070  207.7320  154.6580 C   0  0  1  0  0  3  0  0  0  0  0  0
  162.1540  210.4930  156.1340 C   0  0  0  0  0  2  0  0  0  0  0  0
  161.7540  207.7390  155.3980 C   0  0  1  0  0  3  0  0  0  0  0  0
  159.6760  211.1990  156.1880 C   0  0  2  0  0  3  0  0  0  0  0  0
  160.3320  209.2610  154.7800 C   0  0  1  0  0  3  0  0  0  0  0  0
  159.2600  209.7940  155.7220 C   0  0  0  0  0  2  0  0  0  0  0  0
  161.6130  209.2010  155.5530 C   0  0  1  0  0  0  0  0  0  0  0  0
  161.0320  211.1820  156.9360 C   0  0  2  0  0  3  0  0  0  0  0  0
  161.3990  205.8630  149.2240 C   0  0  0  0  0  0  0  0  0  0  0  0
  162.4870  206.1830  148.4080 O   0  0  0  0  0  1  0  0  0  0  0  0
  161.5290  206.4680  150.6280 C   0  0  1  0  0  0  0  0  0  0  0  0
  161.3320  204.3480  149.4570 C   0  0  0  0  0  2  0  0  0  0  0  0
  160.5890  207.2560  153.2380 C   0  0  0  0  0  0  0  0  0  0  0  0
  160.9440  207.8710  150.8060 C   0  0  0  0  0  2  0  0  0  0  0  0
  160.7870  205.7740  152.9380 C   0  0  0  0  0  2  0  0  0  0  0  0
  160.6760  205.5190  151.4390 C   0  0  2  0  0  3  0  0  0  0  0  0
  160.7320  208.1960  152.2750 C   0  0  0  0  0  3  0  0  0  0  0  0
  160.2180  206.2800  148.6050 O   0  0  0  0  0  1  0  0  0  0  0  0
  162.9950  206.4590  151.0940 C   0  0  0  0  0  1  0  0  0  0  0  0
  161.0080  204.1340  150.9380 C   0  0  0  0  0  2  0  0  0  0  0  0
  158.3670  211.8820  157.2610 S   0  0  0  0  0  0  0  0  0  0  0  0
  157.5720  212.8860  155.9540 C   0  0  1  0  0  3  0  0  0  0  0  0
  158.4840  213.3870  153.5460 C   0  0  2  0  0  3  0  0  0  0  0  0
  156.2940  212.2600  153.9050 C   0  0  0  0  0  3  0  0  0  0  0  0
  159.5020  214.1950  155.5240 O   0  0  0  0  0  0  0  0  0  0  0  0
  157.0160  213.3250  153.1300 C   0  0  0  0  0  2  0  0  0  0  0  0
  158.5880  213.5430  155.0420 C   0  0  0  0  0  0  0  0  0  0  0  0
  159.0920  214.4500  152.9020 F   0  0  0  0  0  0  0  0  0  0  0  0
  156.5480  212.0660  155.2060 C   0  0  0  0  0  3  0  0  0  0  0  0
  3 15  1  6  0  0  0
  3  7  1  0  0  0  0
  3  5  1  0  0  0  0
  4 10  1  0  0  0  0
  5  9  1  0  0  0  0
  5  2  1  1  0  0  0
  6 10  1  0  0  0  0
  6 23  1  1  0  0  0
  7  9  1  0  0  0  0
  7  8  1  1  0  0  0
  8  6  1  0  0  0  0
  9  4  1  6  0  0  0
  9  2  1  0  0  0  0
 10  1  1  6  0  0  0
 11 14  1  0  0  0  0
 11 13  1  0  0  0  0
 12 11  1  0  0  0  0
 13 16  1  0  0  0  0
 13 21  1  1  0  0  0
 13 18  1  0  0  0  0
 14 22  1  0  0  0  0
 16 19  1  0  0  0  0
 17 15  1  0  0  0  0
 18 22  1  1  0  0  0
 18 17  1  0  0  0  0
 19 15  2  0  0  0  0
 20 11  1  0  0  0  0
 24 23  1  1  0  0  0
 25 30  1  6  0  0  0
 25 29  1  0  0  0  0
 26 31  2  0  0  0  0
 28 25  1  0  0  0  0
 28 26  1  0  0  0  0
 29 27  2  0  0  0  0
 29 24  1  0  0  0  0
 31 24  1  0  0  0  0
M  END
>  <MODEL>
4

>  <REMARK>
 VINA RESULT:      -7.0      3.412      8.525
  Name = 
  3 active torsions:
  status: ('A' for Active; 'I' for Inactive)
    1  A    between atoms: S_2  and  C_6
    2  A    between atoms: S_2  and  C_17
    3  A    between atoms: C_9  and  C_15
                            x       y       z     vdW  Elec       q    Type
                         _______ _______ _______ _____ _____    ______ ____

>  <TORSDO>
F 3

$$$$
=
 OpenBabel11072412113D

 31 36  0  0  1  0  0  0  0  0999 V2000
  161.0190  204.2350  152.6130 N   0  0  0  0  0  1  0  0  0  0  0  0
  161.9920  207.7420  154.8660 O   0  0  0  0  0  0  0  0  0  0  0  0
  160.9800  209.6390  153.9210 C   0  0  1  0  0  3  0  0  0  0  0  0
  160.5180  206.0890  154.1140 C   0  0  0  0  0  2  0  0  0  0  0  0
  161.0490  208.7210  155.1510 C   0  0  1  0  0  3  0  0  0  0  0  0
  161.3230  206.5010  151.7010 C   0  0  2  0  0  3  0  0  0  0  0  0
  160.5670  208.4430  153.0510 C   0  0  1  0  0  3  0  0  0  0  0  0
  161.6050  207.9740  152.0400 C   0  0  0  0  0  2  0  0  0  0  0  0
  160.7130  207.5850  154.2700 C   0  0  1  0  0  0  0  0  0  0  0  0
  161.4030  205.5940  152.9530 C   0  0  2  0  0  3  0  0  0  0  0  0
  156.5660  213.3770  154.6590 C   0  0  0  0  0  0  0  0  0  0  0  0
  155.2160  213.1550  154.3740 O   0  0  0  0  0  1  0  0  0  0  0  0
  157.4230  212.1260  154.4240 C   0  0  1  0  0  0  0  0  0  0  0  0
  156.7520  213.7050  156.1460 C   0  0  0  0  0  2  0  0  0  0  0  0
  159.8840  210.6630  154.0870 C   0  0  0  0  0  0  0  0  0  0  0  0
  157.9930  211.9620  153.0140 C   0  0  0  0  0  2  0  0  0  0  0  0
  159.5170  211.1850  155.4720 C   0  0  0  0  0  2  0  0  0  0  0  0
  158.5870  212.3860  155.3540 C   0  0  2  0  0  3  0  0  0  0  0  0
  159.1430  210.9700  152.9970 C   0  0  0  0  0  3  0  0  0  0  0  0
  157.0280  214.4530  153.8950 O   0  0  0  0  0  1  0  0  0  0  0  0
  156.6510  210.8540  154.8180 C   0  0  0  0  0  1  0  0  0  0  0  0
  157.9860  212.9360  156.6250 C   0  0  0  0  0  2  0  0  0  0  0  0
  162.5140  205.9440  150.4350 S   0  0  0  0  0  0  0  0  0  0  0  0
  161.2880  205.0400  149.4220 C   0  0  1  0  0  3  0  0  0  0  0  0
  161.6780  203.8730  147.1050 C   0  0  2  0  0  3  0  0  0  0  0  0
  160.8610  202.6060  149.0850 C   0  0  0  0  0  3  0  0  0  0  0  0
  161.7930  206.2160  147.4250 O   0  0  0  0  0  0  0  0  0  0  0  0
  160.6720  202.8430  147.6140 C   0  0  0  0  0  2  0  0  0  0  0  0
  161.5980  205.1260  147.9410 C   0  0  0  0  0  0  0  0  0  0  0  0
  161.4040  204.1550  145.7790 F   0  0  0  0  0  0  0  0  0  0  0  0
  161.1360  203.6210  149.9150 C   0  0  0  0  0  3  0  0  0  0  0  0
  3 15  1  1  0  0  0
  3  5  1  0  0  0  0
  5  2  1  6  0  0  0
  6 23  1  6  0  0  0
  6  8  1  0  0  0  0
  6 10  1  0  0  0  0
  7  8  1  6  0  0  0
  7  3  1  0  0  0  0
  7  9  1  0  0  0  0
  9  4  1  1  0  0  0
  9  2  1  0  0  0  0
  9  5  1  0  0  0  0
 10  1  1  6  0  0  0
 10  4  1  0  0  0  0
 11 14  1  0  0  0  0
 12 11  1  0  0  0  0
 13 11  1  0  0  0  0
 13 21  1  1  0  0  0
 13 18  1  0  0  0  0
 14 22  1  0  0  0  0
 15 17  1  0  0  0  0
 16 13  1  0  0  0  0
 18 17  1  1  0  0  0
 18 22  1  0  0  0  0
 19 16  1  0  0  0  0
 19 15  2  0  0  0  0
 20 11  1  0  0  0  0
 24 31  1  0  0  0  0
 24 23  1  1  0  0  0
 25 30  1  6  0  0  0
 25 28  1  0  0  0  0
 25 29  1  0  0  0  0
 26 31  2  0  0  0  0
 27 29  2  0  0  0  0
 28 26  1  0  0  0  0
 29 24  1  0  0  0  0
M  END
>  <MODEL>
5

>  <REMARK>
 VINA RESULT:      -6.9      1.361      2.050
  Name = 
  3 active torsions:
  status: ('A' for Active; 'I' for Inactive)
    1  A    between atoms: S_2  and  C_6
    2  A    between atoms: S_2  and  C_17
    3  A    between atoms: C_9  and  C_15
                            x       y       z     vdW  Elec       q    Type
                         _______ _______ _______ _____ _____    ______ ____

>  <TORSDO>
F 3

$$$$
=
 OpenBabel11072412113D

 31 36  0  0  1  0  0  0  0  0999 V2000
  163.3310  205.5500  146.8780 N   0  0  0  0  0  1  0  0  0  0  0  0
  161.7250  209.1130  148.6220 O   0  0  0  0  0  0  0  0  0  0  0  0
  160.8310  208.6630  150.7470 C   0  0  1  0  0  3  0  0  0  0  0  0
  163.2970  207.3860  148.4790 C   0  0  0  0  0  2  0  0  0  0  0  0
  161.9100  209.4260  149.9630 C   0  0  1  0  0  3  0  0  0  0  0  0
  161.3730  205.6760  148.3640 C   0  0  2  0  0  3  0  0  0  0  0  0
  161.3840  207.3330  150.2130 C   0  0  1  0  0  3  0  0  0  0  0  0
  160.4920  206.6000  149.2200 C   0  0  0  0  0  2  0  0  0  0  0  0
  162.3710  208.1320  149.4200 C   0  0  1  0  0  0  0  0  0  0  0  0
  162.4500  206.4650  147.5800 C   0  0  2  0  0  3  0  0  0  0  0  0
  161.3310  209.4460  156.5040 C   0  0  0  0  0  0  0  0  0  0  0  0
  160.8090  210.4970  157.2600 O   0  0  0  0  0  1  0  0  0  0  0  0
  160.9130  209.5260  155.0300 C   0  0  1  0  0  0  0  0  0  0  0  0
  160.7740  208.1040  156.9950 C   0  0  0  0  0  2  0  0  0  0  0  0
  161.0330  208.8400  152.2310 C   0  0  0  0  0  0  0  0  0  0  0  0
  161.8400  210.3290  154.1150 C   0  0  0  0  0  2  0  0  0  0  0  0
  160.4550  207.8310  153.2170 C   0  0  0  0  0  2  0  0  0  0  0  0
  161.0150  208.0760  154.6130 C   0  0  2  0  0  3  0  0  0  0  0  0
  161.5940  209.9980  152.6530 C   0  0  0  0  0  3  0  0  0  0  0  0
  162.7230  209.4330  156.6300 O   0  0  0  0  0  1  0  0  0  0  0  0
  159.4750  210.0580  154.8980 C   0  0  0  0  0  1  0  0  0  0  0  0
  160.4310  207.2760  155.7540 C   0  0  0  0  0  2  0  0  0  0  0  0
  160.3110  204.7350  147.2160 S   0  0  0  0  0  0  0  0  0  0  0  0
  161.2330  203.1620  147.3670 C   0  0  1  0  0  3  0  0  0  0  0  0
  160.6480  201.1060  148.8880 C   0  0  2  0  0  3  0  0  0  0  0  0
  160.8370  200.8910  146.4160 C   0  0  0  0  0  3  0  0  0  0  0  0
  161.3060  203.2160  149.7370 O   0  0  0  0  0  0  0  0  0  0  0  0
  161.2050  200.2740  147.7350 C   0  0  0  0  0  2  0  0  0  0  0  0
  161.0830  202.5430  148.7420 C   0  0  0  0  0  0  0  0  0  0  0  0
  161.1000  200.5810  150.0850 F   0  0  0  0  0  0  0  0  0  0  0  0
  160.8590  202.2200  146.2490 C   0  0  0  0  0  3  0  0  0  0  0  0
  2  9  1  0  0  0  0
  3 15  1  1  0  0  0
  5  2  1  6  0  0  0
  5  3  1  0  0  0  0
  6 23  1  6  0  0  0
  6  8  1  0  0  0  0
  7  8  1  6  0  0  0
  7  3  1  0  0  0  0
  9  4  1  6  0  0  0
  9  5  1  0  0  0  0
  9  7  1  0  0  0  0
 10  1  1  1  0  0  0
 10  6  1  0  0  0  0
 10  4  1  0  0  0  0
 11 20  1  0  0  0  0
 11 14  1  0  0  0  0
 11 12  1  0  0  0  0
 13 21  1  6  0  0  0
 13 11  1  0  0  0  0
 15 19  2  0  0  0  0
 15 17  1  0  0  0  0
 16 13  1  0  0  0  0
 18 17  1  6  0  0  0
 18 13  1  0  0  0  0
 18 22  1  0  0  0  0
 19 16  1  0  0  0  0
 22 14  1  0  0  0  0
 24 23  1  1  0  0  0
 24 29  1  0  0  0  0
 25 30  1  1  0  0  0
 26 28  1  0  0  0  0
 28 25  1  0  0  0  0
 29 25  1  0  0  0  0
 29 27  2  0  0  0  0
 31 26  2  0  0  0  0
 31 24  1  0  0  0  0
M  END
>  <MODEL>
6

>  <REMARK>
 VINA RESULT:      -6.3      3.390      5.616
  Name = 
  3 active torsions:
  status: ('A' for Active; 'I' for Inactive)
    1  A    between atoms: S_2  and  C_6
    2  A    between atoms: S_2  and  C_17
    3  A    between atoms: C_9  and  C_15
                            x       y       z     vdW  Elec       q    Type
                         _______ _______ _______ _____ _____    ______ ____

>  <TORSDO>
F 3

$$$$
=
 OpenBabel11072412113D

 31 36  0  0  1  0  0  0  0  0999 V2000
  159.5340  212.6170  153.1890 N   0  0  0  0  0  1  0  0  0  0  0  0
  162.5630  209.9510  151.7590 O   0  0  0  0  0  0  0  0  0  0  0  0
  161.9640  207.7190  152.1770 C   0  0  1  0  0  3  0  0  0  0  0  0
  160.4370  210.9250  151.6850 C   0  0  0  0  0  2  0  0  0  0  0  0
  162.2530  208.7710  151.0950 C   0  0  1  0  0  3  0  0  0  0  0  0
  160.1630  210.4650  154.2050 C   0  0  2  0  0  3  0  0  0  0  0  0
  160.8180  208.5880  152.7160 C   0  0  1  0  0  3  0  0  0  0  0  0
  161.0580  209.2200  154.0810 C   0  0  0  0  0  2  0  0  0  0  0  0
  161.1870  209.6070  151.6830 C   0  0  1  0  0  0  0  0  0  0  0  0
  160.4740  211.5130  153.1090 C   0  0  2  0  0  3  0  0  0  0  0  0
  160.3750  202.7500  149.5710 C   0  0  0  0  0  0  0  0  0  0  0  0
  160.4920  202.4340  148.2150 O   0  0  0  0  0  1  0  0  0  0  0  0
  160.9890  204.1160  149.9050 C   0  0  1  0  0  0  0  0  0  0  0  0
  161.1640  201.7480  150.4240 C   0  0  0  0  0  2  0  0  0  0  0  0
  161.4910  206.4320  151.5480 C   0  0  0  0  0  0  0  0  0  0  0  0
  160.0490  205.3170  149.7880 C   0  0  0  0  0  2  0  0  0  0  0  0
  162.1370  205.1030  151.9240 C   0  0  0  0  0  2  0  0  0  0  0  0
  161.3190  203.9420  151.3700 C   0  0  2  0  0  3  0  0  0  0  0  0
  160.5990  206.5210  150.5330 C   0  0  0  0  0  3  0  0  0  0  0  0
  159.0290  202.7010  149.9420 O   0  0  0  0  0  1  0  0  0  0  0  0
  162.2510  204.3680  149.0610 C   0  0  0  0  0  1  0  0  0  0  0  0
  161.8950  202.5530  151.5030 C   0  0  0  0  0  2  0  0  0  0  0  0
  160.3840  211.1930  155.8630 S   0  0  0  0  0  0  0  0  0  0  0  0
  158.5980  211.3360  156.2350 C   0  0  1  0  0  3  0  0  0  0  0  0
  157.0120  213.3570  155.7030 C   0  0  2  0  0  3  0  0  0  0  0  0
  156.5650  211.0760  154.8120 C   0  0  0  0  0  3  0  0  0  0  0  0
  158.7910  213.4660  157.2600 O   0  0  0  0  0  0  0  0  0  0  0  0
  155.9530  212.2820  155.4670 C   0  0  0  0  0  2  0  0  0  0  0  0
  158.1760  212.7740  156.4630 C   0  0  0  0  0  0  0  0  0  0  0  0
  156.4450  214.4030  156.4080 F   0  0  0  0  0  0  0  0  0  0  0  0
  157.7790  210.6400  155.1740 C   0  0  0  0  0  3  0  0  0  0  0  0
  3 15  1  6  0  0  0
  3  7  1  0  0  0  0
  4 10  1  0  0  0  0
  5  9  1  0  0  0  0
  5  2  1  1  0  0  0
  5  3  1  0  0  0  0
  6 23  1  1  0  0  0
  7  8  1  1  0  0  0
  8  6  1  0  0  0  0
  9  4  1  6  0  0  0
  9  2  1  0  0  0  0
  9  7  1  0  0  0  0
 10  1  1  6  0  0  0
 10  6  1  0  0  0  0
 11 13  1  0  0  0  0
 11 20  1  0  0  0  0
 11 14  1  0  0  0  0
 12 11  1  0  0  0  0
 13 21  1  6  0  0  0
 13 18  1  0  0  0  0
 14 22  1  0  0  0  0
 15 17  1  0  0  0  0
 16 13  1  0  0  0  0
 16 19  1  0  0  0  0
 18 22  1  6  0  0  0
 18 17  1  0  0  0  0
 19 15  2  0  0  0  0
 24 23  1  6  0  0  0
 24 29  1  0  0  0  0
 25 30  1  1  0  0  0
 25 29  1  0  0  0  0
 26 31  2  0  0  0  0
 26 28  1  0  0  0  0
 28 25  1  0  0  0  0
 29 27  2  0  0  0  0
 31 24  1  0  0  0  0
M  END
>  <MODEL>
7

>  <REMARK>
 VINA RESULT:      -5.8      3.929      9.502
  Name = 
  3 active torsions:
  status: ('A' for Active; 'I' for Inactive)
    1  A    between atoms: S_2  and  C_6
    2  A    between atoms: S_2  and  C_17
    3  A    between atoms: C_9  and  C_15
                            x       y       z     vdW  Elec       q    Type
                         _______ _______ _______ _____ _____    ______ ____

>  <TORSDO>
F 3

$$$$
=
 OpenBabel11072412113D

 31 36  0  0  1  0  0  0  0  0999 V2000
  162.4700  203.5330  151.6620 N   0  0  0  0  0  1  0  0  0  0  0  0
  162.9350  207.7040  150.8180 O   0  0  0  0  0  0  0  0  0  0  0  0
  161.0870  208.9190  151.6100 C   0  0  1  0  0  3  0  0  0  0  0  0
  162.8490  205.8650  152.2610 C   0  0  0  0  0  2  0  0  0  0  0  0
  162.6000  208.6850  151.7420 C   0  0  1  0  0  3  0  0  0  0  0  0
  160.6570  205.1130  151.1360 C   0  0  2  0  0  3  0  0  0  0  0  0
  160.8290  207.4470  151.9660 C   0  0  1  0  0  3  0  0  0  0  0  0
  160.3030  206.5770  150.8310 C   0  0  0  0  0  2  0  0  0  0  0  0
  162.3140  207.2630  152.0160 C   0  0  1  0  0  0  0  0  0  0  0  0
  162.1850  204.8990  151.2600 C   0  0  2  0  0  3  0  0  0  0  0  0
  158.9560  212.5450  155.6480 C   0  0  0  0  0  0  0  0  0  0  0  0
  157.7750  213.2890  155.5750 O   0  0  0  0  0  1  0  0  0  0  0  0
  159.1400  211.6280  154.4330 C   0  0  1  0  0  0  0  0  0  0  0  0
  158.9170  211.5960  156.8530 C   0  0  0  0  0  2  0  0  0  0  0  0
  160.6070  209.8810  152.6680 C   0  0  0  0  0  0  0  0  0  0  0  0
  159.8800  212.2390  153.2410 C   0  0  0  0  0  2  0  0  0  0  0  0
  160.2160  209.3770  154.0530 C   0  0  0  0  0  2  0  0  0  0  0  0
  160.0300  210.5490  155.0090 C   0  0  2  0  0  3  0  0  0  0  0  0
  160.3840  211.1630  152.2950 C   0  0  0  0  0  3  0  0  0  0  0  0
  160.0410  213.4150  155.7900 O   0  0  0  0  0  1  0  0  0  0  0  0
  157.7880  211.0630  153.9640 C   0  0  0  0  0  1  0  0  0  0  0  0
  159.4810  210.2520  156.3840 C   0  0  0  0  0  2  0  0  0  0  0  0
  159.9700  204.0490  149.8220 S   0  0  0  0  0  0  0  0  0  0  0  0
  161.2010  204.5170  148.5520 C   0  0  1  0  0  3  0  0  0  0  0  0
  161.2510  203.7910  146.0310 C   0  0  2  0  0  3  0  0  0  0  0  0
  161.1430  206.1870  146.6990 C   0  0  0  0  0  3  0  0  0  0  0  0
  161.5820  202.2900  147.8320 O   0  0  0  0  0  0  0  0  0  0  0  0
  161.8020  205.1940  145.7850 C   0  0  0  0  0  2  0  0  0  0  0  0
  161.3650  203.4440  147.4940 C   0  0  0  0  0  0  0  0  0  0  0  0
  161.9570  202.8860  145.2600 F   0  0  0  0  0  0  0  0  0  0  0  0
  160.8750  205.8740  147.9740 C   0  0  0  0  0  3  0  0  0  0  0  0
  2  9  1  0  0  0  0
  3  5  1  0  0  0  0
  3  7  1  0  0  0  0
  3 15  1  1  0  0  0
  5  2  1  6  0  0  0
  5  9  1  0  0  0  0
  6 23  1  6  0  0  0
  6 10  1  0  0  0  0
  7  8  1  6  0  0  0
  7  9  1  0  0  0  0
  8  6  1  0  0  0  0
  9  4  1  1  0  0  0
 10  1  1  1  0  0  0
 10  4  1  0  0  0  0
 11 20  1  0  0  0  0
 11 14  1  0  0  0  0
 12 11  1  0  0  0  0
 13 21  1  6  0  0  0
 13 18  1  0  0  0  0
 13 11  1  0  0  0  0
 15 17  1  0  0  0  0
 16 13  1  0  0  0  0
 18 17  1  6  0  0  0
 18 22  1  0  0  0  0
 19 15  2  0  0  0  0
 19 16  1  0  0  0  0
 22 14  1  0  0  0  0
 24 23  1  1  0  0  0
 25 30  1  6  0  0  0
 25 29  1  0  0  0  0
 26 31  2  0  0  0  0
 28 25  1  0  0  0  0
 28 26  1  0  0  0  0
 29 27  2  0  0  0  0
 29 24  1  0  0  0  0
 31 24  1  0  0  0  0
M  END
>  <MODEL>
8

>  <REMARK>
 VINA RESULT:      -5.7      2.241      3.592
  Name = 
  3 active torsions:
  status: ('A' for Active; 'I' for Inactive)
    1  A    between atoms: S_2  and  C_6
    2  A    between atoms: S_2  and  C_17
    3  A    between atoms: C_9  and  C_15
                            x       y       z     vdW  Elec       q    Type
                         _______ _______ _______ _____ _____    ______ ____

>  <TORSDO>
F 3

$$$$
=
 OpenBabel11072412113D

 31 36  0  0  1  0  0  0  0  0999 V2000
  160.4420  212.3030  151.3000 N   0  0  0  0  0  1  0  0  0  0  0  0
  163.0680  208.9290  151.5110 O   0  0  0  0  0  0  0  0  0  0  0  0
  161.8450  206.9470  151.8160 C   0  0  1  0  0  3  0  0  0  0  0  0
  161.4400  210.2430  150.4640 C   0  0  0  0  0  2  0  0  0  0  0  0
  162.7780  207.7280  150.8770 C   0  0  1  0  0  3  0  0  0  0  0  0
  160.0910  210.2800  152.6580 C   0  0  2  0  0  3  0  0  0  0  0  0
  160.8200  208.0890  151.7460 C   0  0  1  0  0  3  0  0  0  0  0  0
  160.6410  208.8930  153.0280 C   0  0  0  0  0  2  0  0  0  0  0  0
  161.7960  208.8310  150.8870 C   0  0  1  0  0  0  0  0  0  0  0  0
  161.0480  211.0510  151.7160 C   0  0  2  0  0  3  0  0  0  0  0  0
  160.2620  202.0400  149.0930 C   0  0  0  0  0  0  0  0  0  0  0  0
  160.4470  201.7270  147.7440 O   0  0  0  0  0  1  0  0  0  0  0  0
  160.8960  203.3850  149.4700 C   0  0  1  0  0  0  0  0  0  0  0  0
  160.9720  201.0110  149.9830 C   0  0  0  0  0  2  0  0  0  0  0  0
  161.3710  205.6780  151.1530 C   0  0  0  0  0  0  0  0  0  0  0  0
  159.9990  204.6150  149.3080 C   0  0  0  0  0  2  0  0  0  0  0  0
  161.9560  204.3290  151.5570 C   0  0  0  0  0  2  0  0  0  0  0  0
  161.1370  203.1950  150.9500 C   0  0  2  0  0  3  0  0  0  0  0  0
  160.5410  205.7980  150.0900 C   0  0  0  0  0  3  0  0  0  0  0  0
  158.8960  202.0290  149.3870 O   0  0  0  0  0  1  0  0  0  0  0  0
  162.2110  203.6040  148.7010 C   0  0  0  0  0  1  0  0  0  0  0  0
  161.6640  201.7890  151.1060 C   0  0  0  0  0  2  0  0  0  0  0  0
  159.8020  211.2320  154.1880 S   0  0  0  0  0  0  0  0  0  0  0  0
  158.0390  211.5860  153.8490 C   0  0  1  0  0  3  0  0  0  0  0  0
  156.2580  212.5690  155.5050 C   0  0  2  0  0  3  0  0  0  0  0  0
  156.8200  213.7080  153.3650 C   0  0  0  0  0  3  0  0  0  0  0  0
  157.2450  210.4320  155.7620 O   0  0  0  0  0  0  0  0  0  0  0  0
  155.7030  213.2720  154.2680 C   0  0  0  0  0  2  0  0  0  0  0  0
  157.1810  211.4510  155.0900 C   0  0  0  0  0  0  0  0  0  0  0  0
  155.2060  212.0780  156.2570 F   0  0  0  0  0  0  0  0  0  0  0  0
  157.8910  212.9260  153.1680 C   0  0  0  0  0  3  0  0  0  0  0  0
  3 15  1  6  0  0  0
  4 10  1  0  0  0  0
  5  9  1  0  0  0  0
  5  2  1  1  0  0  0
  5  3  1  0  0  0  0
  6  8  1  0  0  0  0
  6 23  1  1  0  0  0
  7  3  1  0  0  0  0
  7  8  1  1  0  0  0
  9  4  1  6  0  0  0
  9  2  1  0  0  0  0
  9  7  1  0  0  0  0
 10  1  1  6  0  0  0
 10  6  1  0  0  0  0
 11 20  1  0  0  0  0
 11 13  1  0  0  0  0
 11 14  1  0  0  0  0
 12 11  1  0  0  0  0
 13 21  1  6  0  0  0
 13 18  1  0  0  0  0
 14 22  1  0  0  0  0
 15 17  1  0  0  0  0
 16 13  1  0  0  0  0
 16 19  1  0  0  0  0
 18 22  1  6  0  0  0
 18 17  1  0  0  0  0
 19 15  2  0  0  0  0
 24 23  1  1  0  0  0
 24 29  1  0  0  0  0
 25 30  1  6  0  0  0
 26 28  1  0  0  0  0
 28 25  1  0  0  0  0
 29 25  1  0  0  0  0
 29 27  2  0  0  0  0
 31 26  2  0  0  0  0
 31 24  1  0  0  0  0
M  END
>  <MODEL>
9

>  <REMARK>
 VINA RESULT:      -5.5      3.892      9.733
  Name = 
  3 active torsions:
  status: ('A' for Active; 'I' for Inactive)
    1  A    between atoms: S_2  and  C_6
    2  A    between atoms: S_2  and  C_17
    3  A    between atoms: C_9  and  C_15
                            x       y       z     vdW  Elec       q    Type
                         _______ _______ _______ _____ _____    ______ ____

>  <TORSDO>
F 3

$$$$
