=
 OpenBabel11072412173D

 38 41  0  0  1  0  0  0  0  0999 V2000
  161.3910  203.7090  146.6780 C   0  0  0  0  0  0  0  0  0  0  0  0
  161.8960  210.2750  152.2570 C   0  0  0  0  0  2  0  0  0  0  0  0
  160.4510  201.3840  146.4110 C   0  0  0  0  0  1  0  0  0  0  0  0
  160.9000  202.5750  147.1850 C   0  0  0  0  0  0  0  0  0  0  0  0
  161.3620  210.1280  153.7030 C   0  0  2  0  0  3  0  0  0  0  0  0
  161.4010  204.1820  150.3120 N   0  0  0  0  0  0  0  0  0  0  0  0
  162.7730  208.9930  150.2550 C   0  0  0  0  0  2  0  0  0  0  0  0
  161.2950  203.7740  148.9510 C   0  0  0  0  0  0  0  0  0  0  0  0
  161.6470  204.8050  152.2370 C   0  0  2  0  0  3  0  0  0  0  0  0
  161.0640  207.6900  153.3740 C   0  0  0  0  0  0  0  0  0  0  0  0
  161.7290  204.6290  147.8060 C   0  0  2  0  0  3  0  0  0  0  0  0
  161.9640  209.1020  149.0020 C   0  0  0  0  0  0  0  0  0  0  0  0
  161.8540  208.9650  151.4610 C   0  0  1  0  0  3  0  0  0  0  0  0
  160.8450  202.6170  148.6030 N   0  0  0  0  0  0  0  0  0  0  0  0
  162.1720  207.7880  152.3710 C   0  0  0  0  0  2  0  0  0  0  0  0
  161.8710  208.0760  148.2000 C   0  0  0  0  0  0  0  0  0  0  0  0
  161.6460  205.4230  150.9690 N   0  0  0  0  0  2  0  0  0  0  0  0
  160.6650  208.8140  153.9780 C   0  0  0  0  0  3  0  0  0  0  0  0
  161.3560  203.5730  151.6090 N   0  0  0  0  0  0  0  0  0  0  0  0
  161.7670  207.0550  147.3940 C   0  0  0  0  0  3  0  0  0  0  0  0
  160.4730  205.2440  153.0610 C   0  0  0  0  0  3  0  0  0  0  0  0
  160.8940  205.9000  147.7490 C   0  0  0  0  0  2  0  0  0  0  0  0
  160.2550  206.4690  153.5610 C   0  0  0  0  0  3  0  0  0  0  0  0
  161.2310  211.4400  156.2840 O   0  0  0  0  0  0  0  0  0  0  0  0
  160.4900  211.8670  155.3570 C   0  0  0  0  0  0  0  0  0  0  0  0
  160.5120  211.2570  154.0630 N   0  0  0  0  0  2  0  0  0  0  0  0
  159.5590  212.9990  155.6210 C   0  0  0  0  0  2  0  0  0  0  0  0
  157.4170  211.5730  155.8460 C   0  0  0  0  0  1  0  0  0  0  0  0
  157.6810  213.2480  154.2220 O   0  0  0  0  0  0  0  0  0  0  0  0
  158.1790  212.6560  155.1650 C   0  0  0  0  0  0  0  0  0  0  0  0
  162.1290  201.2710  151.6340 C   0  0  0  0  0  1  0  0  0  0  0  0
  162.5350  202.7260  151.7400 C   0  0  0  0  0  2  0  0  0  0  0  0
  160.7780  204.7200  144.5030 C   0  0  0  0  0  2  0  0  0  0  0  0
  161.6340  204.0480  145.2610 C   0  0  0  0  0  3  0  0  0  0  0  0
  161.4540  210.4280  148.5490 C   0  0  0  0  0  2  0  0  0  0  0  0
  162.5530  211.4770  148.6280 C   0  0  0  0  0  2  0  0  0  0  0  0
  160.9140  213.3240  148.9420 C   0  0  0  0  0  1  0  0  0  0  0  0
  162.0570  212.8050  148.0880 C   0  0  0  0  0  2  0  0  0  0  0  0
  1  4  2  0  0  0  0
  1 11  1  0  0  0  0
  2  5  1  0  0  0  0
  3  4  1  0  0  0  0
  4 14  1  0  0  0  0
  5 18  1  0  0  0  0
  5 26  1  6  0  0  0
  6 17  1  0  0  0  0
  6 19  1  0  0  0  0
  8  6  1  0  0  0  0
  9 21  1  1  0  0  0
 10 23  1  0  0  0  0
 10 18  2  0  0  0  0
 11 22  1  6  0  0  0
 11  8  1  0  0  0  0
 12  7  1  0  0  0  0
 13  7  1  6  0  0  0
 13  2  1  0  0  0  0
 13 15  1  0  0  0  0
 14  8  2  0  0  0  0
 15 10  1  0  0  0  0
 16 12  2  0  0  0  0
 17  9  1  0  0  0  0
 19 32  1  0  0  0  0
 19  9  1  0  0  0  0
 20 22  1  0  0  0  0
 20 16  2  0  0  0  0
 21 23  2  0  0  0  0
 25 27  1  0  0  0  0
 25 24  2  0  0  0  0
 26 25  1  0  0  0  0
 29 30  2  0  0  0  0
 30 27  1  0  0  0  0
 30 28  1  0  0  0  0
 31 32  1  0  0  0  0
 33 34  2  0  0  0  0
 34  1  1  0  0  0  0
 35 36  1  0  0  0  0
 35 12  1  0  0  0  0
 38 36  1  0  0  0  0
 38 37  1  0  0  0  0
M  END
>  <MODEL>
1

>  <REMARK>
 VINA RESULT:      -6.0      0.000      0.000
  Name = 
  8 active torsions:
  status: ('A' for Active; 'I' for Inactive)
    1  A    between atoms: C_1  and  C_28
    2  A    between atoms: C_5  and  C_32
    3  A    between atoms: C_5  and  C_38
    4  A    between atoms: C_7  and  N_35
    5  A    between atoms: C_12  and  C_15
    6  A    between atoms: C_12  and  C_20
    7  A    between atoms: C_15  and  C_29
    8  A    between atoms: C_23  and  N_31
                            x       y       z     vdW  Elec       q    Type
                         _______ _______ _______ _____ _____    ______ ____

>  <TORSDO>
F 8

$$$$
=
 OpenBabel11072412173D

 38 41  0  0  1  0  0  0  0  0999 V2000
  161.4840  204.1940  146.1920 C   0  0  0  0  0  0  0  0  0  0  0  0
  161.7980  209.1940  153.2210 C   0  0  0  0  0  2  0  0  0  0  0  0
  160.4870  202.0530  145.3080 C   0  0  0  0  0  1  0  0  0  0  0  0
  160.9180  202.9990  146.3760 C   0  0  0  0  0  0  0  0  0  0  0  0
  161.1520  208.7320  154.5500 C   0  0  2  0  0  3  0  0  0  0  0  0
  161.2390  203.7800  149.8250 N   0  0  0  0  0  0  0  0  0  0  0  0
  162.7770  208.3850  151.0280 C   0  0  0  0  0  2  0  0  0  0  0  0
  161.2210  203.7170  148.4020 C   0  0  0  0  0  0  0  0  0  0  0  0
  161.3610  203.9090  151.8560 C   0  0  2  0  0  3  0  0  0  0  0  0
  160.7950  206.4620  153.6200 C   0  0  0  0  0  0  0  0  0  0  0  0
  161.7680  204.7970  147.5290 C   0  0  2  0  0  3  0  0  0  0  0  0
  162.0690  208.8340  149.7900 C   0  0  0  0  0  0  0  0  0  0  0  0
  161.7700  208.1160  152.1300 C   0  0  1  0  0  3  0  0  0  0  0  0
  160.7580  202.7010  147.7550 N   0  0  0  0  0  0  0  0  0  0  0  0
  161.9780  206.7400  152.7440 C   0  0  0  0  0  2  0  0  0  0  0  0
  162.0010  208.0370  148.7580 C   0  0  0  0  0  0  0  0  0  0  0  0
  161.4760  204.8120  150.7790 N   0  0  0  0  0  2  0  0  0  0  0  0
  160.3910  207.4280  154.4530 C   0  0  0  0  0  3  0  0  0  0  0  0
  161.0750  202.8800  150.9290 N   0  0  0  0  0  0  0  0  0  0  0  0
  161.9220  207.2460  147.7230 C   0  0  0  0  0  3  0  0  0  0  0  0
  160.1440  204.1980  152.6840 C   0  0  0  0  0  3  0  0  0  0  0  0
  160.9860  206.0860  147.7300 C   0  0  0  0  0  2  0  0  0  0  0  0
  159.9320  205.2760  153.4520 C   0  0  0  0  0  3  0  0  0  0  0  0
  159.5270  210.6300  153.0830 O   0  0  0  0  0  0  0  0  0  0  0  0
  159.5330  210.6950  154.3420 C   0  0  0  0  0  0  0  0  0  0  0  0
  160.3170  209.7840  155.1180 N   0  0  0  0  0  2  0  0  0  0  0  0
  158.7370  211.7500  155.0290 C   0  0  0  0  0  2  0  0  0  0  0  0
  160.7100  212.2460  156.6210 C   0  0  0  0  0  1  0  0  0  0  0  0
  159.4930  213.9250  155.5190 O   0  0  0  0  0  0  0  0  0  0  0  0
  159.6410  212.7280  155.7030 C   0  0  0  0  0  0  0  0  0  0  0  0
  161.8060  200.6560  150.2830 C   0  0  0  0  0  1  0  0  0  0  0  0
  162.2110  201.9660  150.9260 C   0  0  0  0  0  2  0  0  0  0  0  0
  161.0200  205.6210  144.2240 C   0  0  0  0  0  2  0  0  0  0  0  0
  161.8450  204.8500  144.9190 C   0  0  0  0  0  3  0  0  0  0  0  0
  161.6410  210.2550  149.6410 C   0  0  0  0  0  2  0  0  0  0  0  0
  162.0930  210.8100  148.2990 C   0  0  0  0  0  2  0  0  0  0  0  0
  161.4570  213.2110  148.1310 C   0  0  0  0  0  1  0  0  0  0  0  0
  162.5780  212.2400  148.4540 C   0  0  0  0  0  2  0  0  0  0  0  0
  1  4  2  0  0  0  0
  1 11  1  0  0  0  0
  2  5  1  0  0  0  0
  3  4  1  0  0  0  0
  4 14  1  0  0  0  0
  5 26  1  6  0  0  0
  6 17  1  0  0  0  0
  6 19  1  0  0  0  0
  8  6  1  0  0  0  0
  9 21  1  1  0  0  0
 10 18  2  0  0  0  0
 11 22  1  6  0  0  0
 11  8  1  0  0  0  0
 12  7  1  0  0  0  0
 13  7  1  6  0  0  0
 13 15  1  0  0  0  0
 13  2  1  0  0  0  0
 14  8  2  0  0  0  0
 15 10  1  0  0  0  0
 16 12  2  0  0  0  0
 17  9  1  0  0  0  0
 18  5  1  0  0  0  0
 19  9  1  0  0  0  0
 20 22  1  0  0  0  0
 20 16  2  0  0  0  0
 21 23  2  0  0  0  0
 23 10  1  0  0  0  0
 24 25  2  0  0  0  0
 25 27  1  0  0  0  0
 25 26  1  0  0  0  0
 27 30  1  0  0  0  0
 29 30  2  0  0  0  0
 30 28  1  0  0  0  0
 31 32  1  0  0  0  0
 32 19  1  0  0  0  0
 33 34  2  0  0  0  0
 34  1  1  0  0  0  0
 35 12  1  0  0  0  0
 36 38  1  0  0  0  0
 36 35  1  0  0  0  0
 37 38  1  0  0  0  0
M  END
>  <MODEL>
2

>  <REMARK>
 VINA RESULT:      -4.5      1.161      1.406
  Name = 
  8 active torsions:
  status: ('A' for Active; 'I' for Inactive)
    1  A    between atoms: C_1  and  C_28
    2  A    between atoms: C_5  and  C_32
    3  A    between atoms: C_5  and  C_38
    4  A    between atoms: C_7  and  N_35
    5  A    between atoms: C_12  and  C_15
    6  A    between atoms: C_12  and  C_20
    7  A    between atoms: C_15  and  C_29
    8  A    between atoms: C_23  and  N_31
                            x       y       z     vdW  Elec       q    Type
                         _______ _______ _______ _____ _____    ______ ____

>  <TORSDO>
F 8

$$$$
