=
 OpenBabel11072414143D

 34 36  0  0  1  0  0  0  0  0999 V2000
  161.5600  208.0990  151.7720 C   0  0  2  0  0  3  0  0  0  0  0  0
  161.9320  205.5740  153.1690 C   0  0  0  0  0  3  0  0  0  0  0  0
  160.4250  208.2100  152.7690 C   0  0  2  0  0  3  0  0  0  0  0  0
  160.6720  209.3160  151.7600 C   0  0  1  0  0  3  0  0  0  0  0  0
  161.2020  206.7710  151.1500 C   0  0  2  0  0  3  0  0  0  0  0  0
  161.9310  205.7440  151.8790 N   0  0  0  0  0  0  0  0  0  0  0  0
  161.1880  207.8980  154.0370 C   0  0  2  0  0  3  0  0  0  0  0  0
  161.1300  206.3690  154.1940 C   0  0  0  0  0  2  0  0  0  0  0  0
  161.4860  209.3870  155.9100 O   0  0  0  0  0  1  0  0  0  0  0  0
  160.5560  208.5900  155.2390 C   0  0  0  0  0  2  0  0  0  0  0  0
  161.5860  206.7300  149.6660 C   0  0  2  0  0  3  0  0  0  0  0  0
  162.3620  208.4730  148.5330 C   0  0  0  0  0  1  0  0  0  0  0  0
  161.1820  207.9040  149.0170 O   0  0  0  0  0  0  0  0  0  0  0  0
  160.9940  205.4930  148.9730 C   0  0  1  0  0  3  0  0  0  0  0  0
  161.2210  205.4800  147.4860 C   0  0  0  0  0  0  0  0  0  0  0  0
  161.6780  205.3970  144.7220 C   0  0  0  0  0  3  0  0  0  0  0  0
  162.5890  204.8020  145.6000 C   0  0  0  0  0  3  0  0  0  0  0  0
  162.3600  204.8430  146.9780 C   0  0  0  0  0  3  0  0  0  0  0  0
  160.5370  206.0320  145.2220 C   0  0  0  0  0  3  0  0  0  0  0  0
  160.3080  206.0720  146.6000 C   0  0  0  0  0  3  0  0  0  0  0  0
  161.4670  204.2090  149.6430 C   0  0  0  0  0  2  0  0  0  0  0  0
  160.3110  202.0470  149.0650 C   0  0  0  0  0  0  0  0  0  0  0  0
  159.2010  201.1740  149.2350 N   0  0  0  0  0  1  0  0  0  0  0  0
  160.3560  203.2800  149.7800 N   0  0  0  0  0  2  0  0  0  0  0  0
  161.2450  201.7240  148.2840 O   0  0  0  0  0  0  0  0  0  0  0  0
  161.3910  210.4900  152.4010 C   0  0  0  0  0  2  0  0  0  0  0  0
  160.4820  211.7060  152.4400 C   0  0  0  0  0  2  0  0  0  0  0  0
  159.0770  211.3010  152.8490 C   0  0  0  0  0  2  0  0  0  0  0  0
  158.7830  211.7820  154.2720 C   0  0  2  0  0  3  0  0  0  0  0  0
  156.4230  211.8270  154.8150 O   0  0  0  0  0  1  0  0  0  0  0  0
  157.1870  213.1810  153.1440 O   0  0  0  0  0  1  0  0  0  0  0  0
  157.4950  212.6070  154.3780 C   0  0  0  0  0  3  0  0  0  0  0  0
  159.4570  213.3660  155.8010 C   0  0  0  0  0  1  0  0  0  0  0  0
  159.8960  212.3460  154.9420 O   0  0  0  0  0  0  0  0  0  0  0  0
  1  3  1  0  0  0  0
  2  8  1  0  0  0  0
  3  7  1  0  0  0  0
  4  1  1  0  0  0  0
  4 26  1  0  0  0  0
  4  3  1  0  0  0  0
  5  1  1  0  0  0  0
  5  6  1  0  0  0  0
  6  2  2  0  0  0  0
  7  8  1  0  0  0  0
  7 10  1  0  0  0  0
 10  9  1  0  0  0  0
 11  5  1  0  0  0  0
 12 13  1  0  0  0  0
 13 11  1  0  0  0  0
 14 21  1  0  0  0  0
 14 11  1  0  0  0  0
 15 14  1  0  0  0  0
 16 19  2  0  0  0  0
 16 17  1  0  0  0  0
 17 18  2  0  0  0  0
 18 15  1  0  0  0  0
 19 20  1  0  0  0  0
 20 15  2  0  0  0  0
 21 24  1  0  0  0  0
 22 23  1  0  0  0  0
 22 24  1  0  0  0  0
 25 22  2  0  0  0  0
 26 27  1  0  0  0  0
 27 28  1  0  0  0  0
 28 29  1  0  0  0  0
 29 32  1  0  0  0  0
 29 34  1  0  0  0  0
 31 32  1  0  0  0  0
 32 30  1  0  0  0  0
 34 33  1  0  0  0  0
M  END
>  <MODEL>
1

>  <REMARK>
 VINA RESULT:      -7.0      0.000      0.000
  Name = 
  13 active torsions:
  status: ('A' for Active; 'I' for Inactive)
    1  A    between atoms: C_4  and  C_26
    2  A    between atoms: C_7  and  C_17
    3  A    between atoms: C_7  and  C_27
    4  A    between atoms: C_10  and  N_14
    5  A    between atoms: C_10  and  C_26
    6  A    between atoms: C_11  and  C_27
    7  A    between atoms: C_12  and  C_15
    8  A    between atoms: C_15  and  C_26
    9  A    between atoms: C_15  and  O_30
   10  A    between atoms: C_17  and  C_19
   11  A    between atoms: C_19  and  O_31
   12  A    between atoms: C_19  and  C_34
   13  A    between atoms: C_28  and  C_29
                            x       y       z     vdW  Elec       q    Type
                         _______ _______ _______ _____ _____    ______ ____

>  <TORSDO>
F 13

$$$$
=
 OpenBabel11072414143D

 34 36  0  0  1  0  0  0  0  0999 V2000
  161.0620  208.5850  152.2820 C   0  0  2  0  0  3  0  0  0  0  0  0
  160.4850  207.0930  154.7120 C   0  0  0  0  0  3  0  0  0  0  0  0
  162.0410  207.4440  152.0980 C   0  0  2  0  0  3  0  0  0  0  0  0
  161.9450  208.5490  151.0630 C   0  0  1  0  0  3  0  0  0  0  0  0
  161.5020  209.0600  153.6460 C   0  0  2  0  0  3  0  0  0  0  0  0
  160.6730  208.3770  154.6280 N   0  0  0  0  0  0  0  0  0  0  0  0
  161.1020  206.2820  152.3310 C   0  0  2  0  0  3  0  0  0  0  0  0
  161.1330  206.0180  153.8460 C   0  0  0  0  0  2  0  0  0  0  0  0
  160.6010  204.6670  150.6120 O   0  0  0  0  0  1  0  0  0  0  0  0
  161.5560  205.0500  151.5570 C   0  0  0  0  0  2  0  0  0  0  0  0
  161.3370  210.5770  153.7870 C   0  0  2  0  0  3  0  0  0  0  0  0
  162.9300  210.6320  155.3320 C   0  0  0  0  0  1  0  0  0  0  0  0
  161.5980  210.9850  155.1020 O   0  0  0  0  0  0  0  0  0  0  0  0
  159.9360  211.0270  153.3450 C   0  0  1  0  0  3  0  0  0  0  0  0
  159.1310  211.6430  154.4580 C   0  0  0  0  0  0  0  0  0  0  0  0
  157.6250  212.7290  156.5570 C   0  0  0  0  0  3  0  0  0  0  0  0
  157.3850  211.4210  156.1280 C   0  0  0  0  0  3  0  0  0  0  0  0
  158.1370  210.8790  155.0810 C   0  0  0  0  0  3  0  0  0  0  0  0
  158.6200  213.4960  155.9420 C   0  0  0  0  0  3  0  0  0  0  0  0
  159.3720  212.9540  154.8960 C   0  0  0  0  0  3  0  0  0  0  0  0
  160.0080  211.9260  152.1180 C   0  0  0  0  0  2  0  0  0  0  0  0
  158.4680  213.3580  150.7330 C   0  0  0  0  0  0  0  0  0  0  0  0
  157.1470  213.7890  150.4300 N   0  0  0  0  0  1  0  0  0  0  0  0
  158.6780  212.3990  151.7680 N   0  0  0  0  0  2  0  0  0  0  0  0
  159.4410  213.8270  150.0840 O   0  0  0  0  0  0  0  0  0  0  0  0
  161.1440  208.0980  149.8540 C   0  0  0  0  0  2  0  0  0  0  0  0
  161.9950  208.1770  148.5990 C   0  0  0  0  0  2  0  0  0  0  0  0
  162.5110  206.7990  148.2250 C   0  0  0  0  0  2  0  0  0  0  0  0
  161.4570  206.0450  147.4110 C   0  0  2  0  0  3  0  0  0  0  0  0
  161.8430  203.6700  147.6920 O   0  0  0  0  0  1  0  0  0  0  0  0
  163.3220  204.8780  146.4410 O   0  0  0  0  0  1  0  0  0  0  0  0
  161.9820  204.7380  146.8040 C   0  0  0  0  0  3  0  0  0  0  0  0
  160.3190  206.0830  145.4110 C   0  0  0  0  0  1  0  0  0  0  0  0
  160.7210  206.8540  146.5120 O   0  0  0  0  0  0  0  0  0  0  0  0
  1  5  1  0  0  0  0
  3  1  1  0  0  0  0
  3  7  1  0  0  0  0
  4  3  1  0  0  0  0
  4  1  1  0  0  0  0
  5 11  1  0  0  0  0
  5  6  1  0  0  0  0
  6  2  2  0  0  0  0
  7  8  1  0  0  0  0
  8  2  1  0  0  0  0
  9 10  1  0  0  0  0
 10  7  1  0  0  0  0
 11 13  1  0  0  0  0
 13 12  1  0  0  0  0
 14 11  1  0  0  0  0
 14 15  1  0  0  0  0
 15 20  2  0  0  0  0
 15 18  1  0  0  0  0
 17 16  1  0  0  0  0
 18 17  2  0  0  0  0
 19 16  2  0  0  0  0
 20 19  1  0  0  0  0
 21 14  1  0  0  0  0
 22 24  1  0  0  0  0
 23 22  1  0  0  0  0
 24 21  1  0  0  0  0
 25 22  2  0  0  0  0
 26  4  1  0  0  0  0
 27 26  1  0  0  0  0
 28 27  1  0  0  0  0
 29 28  1  0  0  0  0
 31 32  1  0  0  0  0
 32 29  1  0  0  0  0
 32 30  1  0  0  0  0
 33 34  1  0  0  0  0
 34 29  1  0  0  0  0
M  END
>  <MODEL>
2

>  <REMARK>
 VINA RESULT:      -6.9      2.832      8.901
  Name = 
  13 active torsions:
  status: ('A' for Active; 'I' for Inactive)
    1  A    between atoms: C_4  and  C_26
    2  A    between atoms: C_7  and  C_17
    3  A    between atoms: C_7  and  C_27
    4  A    between atoms: C_10  and  N_14
    5  A    between atoms: C_10  and  C_26
    6  A    between atoms: C_11  and  C_27
    7  A    between atoms: C_12  and  C_15
    8  A    between atoms: C_15  and  C_26
    9  A    between atoms: C_15  and  O_30
   10  A    between atoms: C_17  and  C_19
   11  A    between atoms: C_19  and  O_31
   12  A    between atoms: C_19  and  C_34
   13  A    between atoms: C_28  and  C_29
                            x       y       z     vdW  Elec       q    Type
                         _______ _______ _______ _____ _____    ______ ____

>  <TORSDO>
F 13

$$$$
=
 OpenBabel11072414143D

 34 36  0  0  1  0  0  0  0  0999 V2000
  161.0430  208.4820  152.1440 C   0  0  2  0  0  3  0  0  0  0  0  0
  160.5190  207.1740  154.6900 C   0  0  0  0  0  3  0  0  0  0  0  0
  162.0170  207.3280  152.0230 C   0  0  2  0  0  3  0  0  0  0  0  0
  161.8980  208.3540  150.9110 C   0  0  1  0  0  3  0  0  0  0  0  0
  161.5140  209.0550  153.4590 C   0  0  2  0  0  3  0  0  0  0  0  0
  160.7070  208.4490  154.5070 N   0  0  0  0  0  0  0  0  0  0  0  0
  161.0820  206.1890  152.3620 C   0  0  2  0  0  3  0  0  0  0  0  0
  161.1470  206.0370  153.8910 C   0  0  0  0  0  2  0  0  0  0  0  0
  160.8650  203.7910  152.2140 O   0  0  0  0  0  1  0  0  0  0  0  0
  161.5170  204.9010  151.6710 C   0  0  0  0  0  2  0  0  0  0  0  0
  161.3530  210.5790  153.4910 C   0  0  2  0  0  3  0  0  0  0  0  0
  162.6890  210.6880  155.2600 C   0  0  0  0  0  1  0  0  0  0  0  0
  161.4220  211.0570  154.8060 O   0  0  0  0  0  0  0  0  0  0  0  0
  160.0410  211.0130  152.8200 C   0  0  1  0  0  3  0  0  0  0  0  0
  158.9960  211.4730  153.8010 C   0  0  0  0  0  0  0  0  0  0  0  0
  157.0360  212.3800  155.5870 C   0  0  0  0  0  3  0  0  0  0  0  0
  157.6950  213.2870  154.7520 C   0  0  0  0  0  3  0  0  0  0  0  0
  158.6720  212.8340  153.8600 C   0  0  0  0  0  3  0  0  0  0  0  0
  157.3530  211.0200  155.5310 C   0  0  0  0  0  3  0  0  0  0  0  0
  158.3300  210.5660  154.6390 C   0  0  0  0  0  3  0  0  0  0  0  0
  160.2970  212.0400  151.7240 C   0  0  0  0  0  2  0  0  0  0  0  0
  161.4050  212.1200  149.4640 C   0  0  0  0  0  0  0  0  0  0  0  0
  162.2990  211.5390  148.5230 N   0  0  0  0  0  1  0  0  0  0  0  0
  161.2000  211.4880  150.7260 N   0  0  0  0  0  2  0  0  0  0  0  0
  160.8010  213.1870  149.1750 O   0  0  0  0  0  0  0  0  0  0  0  0
  161.0700  207.8170  149.7570 C   0  0  0  0  0  2  0  0  0  0  0  0
  161.8060  208.0160  148.4440 C   0  0  0  0  0  2  0  0  0  0  0  0
  162.4250  206.7080  147.9830 C   0  0  0  0  0  2  0  0  0  0  0  0
  161.4100  205.9030  147.1680 C   0  0  2  0  0  3  0  0  0  0  0  0
  161.8170  203.5280  147.4200 O   0  0  0  0  0  1  0  0  0  0  0  0
  163.3560  204.7890  146.3010 O   0  0  0  0  0  1  0  0  0  0  0  0
  161.9970  204.6200  146.5680 C   0  0  0  0  0  3  0  0  0  0  0  0
  160.3190  205.8940  145.1410 C   0  0  0  0  0  1  0  0  0  0  0  0
  160.6420  206.6740  146.2630 O   0  0  0  0  0  0  0  0  0  0  0  0
  1  5  1  0  0  0  0
  3  1  1  0  0  0  0
  3  7  1  0  0  0  0
  4  3  1  0  0  0  0
  4  1  1  0  0  0  0
  5 11  1  0  0  0  0
  5  6  1  0  0  0  0
  6  2  2  0  0  0  0
  7  8  1  0  0  0  0
  8  2  1  0  0  0  0
 10  9  1  0  0  0  0
 10  7  1  0  0  0  0
 11 13  1  0  0  0  0
 13 12  1  0  0  0  0
 14 11  1  0  0  0  0
 14 15  1  0  0  0  0
 15 18  2  0  0  0  0
 15 20  1  0  0  0  0
 17 16  2  0  0  0  0
 18 17  1  0  0  0  0
 19 16  1  0  0  0  0
 20 19  2  0  0  0  0
 21 14  1  0  0  0  0
 22 24  1  0  0  0  0
 23 22  1  0  0  0  0
 24 21  1  0  0  0  0
 25 22  2  0  0  0  0
 26  4  1  0  0  0  0
 27 26  1  0  0  0  0
 28 27  1  0  0  0  0
 29 28  1  0  0  0  0
 31 32  1  0  0  0  0
 32 29  1  0  0  0  0
 32 30  1  0  0  0  0
 33 34  1  0  0  0  0
 34 29  1  0  0  0  0
M  END
>  <MODEL>
3

>  <REMARK>
 VINA RESULT:      -6.8      2.816      8.585
  Name = 
  13 active torsions:
  status: ('A' for Active; 'I' for Inactive)
    1  A    between atoms: C_4  and  C_26
    2  A    between atoms: C_7  and  C_17
    3  A    between atoms: C_7  and  C_27
    4  A    between atoms: C_10  and  N_14
    5  A    between atoms: C_10  and  C_26
    6  A    between atoms: C_11  and  C_27
    7  A    between atoms: C_12  and  C_15
    8  A    between atoms: C_15  and  C_26
    9  A    between atoms: C_15  and  O_30
   10  A    between atoms: C_17  and  C_19
   11  A    between atoms: C_19  and  O_31
   12  A    between atoms: C_19  and  C_34
   13  A    between atoms: C_28  and  C_29
                            x       y       z     vdW  Elec       q    Type
                         _______ _______ _______ _____ _____    ______ ____

>  <TORSDO>
F 13

$$$$
=
 OpenBabel11072414143D

 34 36  0  0  1  0  0  0  0  0999 V2000
  161.2510  207.6520  150.1810 C   0  0  2  0  0  3  0  0  0  0  0  0
  161.8260  210.0950  148.7110 C   0  0  0  0  0  3  0  0  0  0  0  0
  162.3660  208.1960  151.0520 C   0  0  2  0  0  3  0  0  0  0  0  0
  161.6950  206.8790  151.3950 C   0  0  1  0  0  3  0  0  0  0  0  0
  161.9670  207.6450  148.8520 C   0  0  2  0  0  3  0  0  0  0  0  0
  161.6690  208.9100  148.1970 N   0  0  0  0  0  0  0  0  0  0  0  0
  161.8480  209.6020  151.2530 C   0  0  2  0  0  3  0  0  0  0  0  0
  162.4080  210.4250  150.0810 C   0  0  0  0  0  2  0  0  0  0  0  0
  161.3620  211.0320  153.1330 O   0  0  0  0  0  1  0  0  0  0  0  0
  162.3170  210.1710  152.5870 C   0  0  0  0  0  2  0  0  0  0  0  0
  161.5000  206.4800  147.9740 C   0  0  2  0  0  3  0  0  0  0  0  0
  159.5370  206.2490  146.9650 C   0  0  0  0  0  1  0  0  0  0  0  0
  160.1520  206.1840  148.2170 O   0  0  0  0  0  0  0  0  0  0  0  0
  162.3770  205.2360  148.1880 C   0  0  1  0  0  3  0  0  0  0  0  0
  161.6200  204.0650  148.7550 C   0  0  0  0  0  0  0  0  0  0  0  0
  160.2390  201.8460  149.7650 C   0  0  0  0  0  3  0  0  0  0  0  0
  160.5940  201.8940  148.4130 C   0  0  0  0  0  3  0  0  0  0  0  0
  161.2840  203.0010  147.9100 C   0  0  0  0  0  3  0  0  0  0  0  0
  160.5750  202.9050  150.6140 C   0  0  0  0  0  3  0  0  0  0  0  0
  161.2650  204.0110  150.1110 C   0  0  0  0  0  3  0  0  0  0  0  0
  163.1370  204.8740  146.9180 C   0  0  0  0  0  2  0  0  0  0  0  0
  161.8030  205.0060  144.7870 C   0  0  0  0  0  0  0  0  0  0  0  0
  161.3100  205.7840  143.7020 N   0  0  0  0  0  1  0  0  0  0  0  0
  162.6070  205.6230  145.7900 N   0  0  0  0  0  2  0  0  0  0  0  0
  161.5250  203.7790  144.8510 O   0  0  0  0  0  0  0  0  0  0  0  0
  160.6890  207.0550  152.5200 C   0  0  0  0  0  2  0  0  0  0  0  0
  161.2590  206.5240  153.8230 C   0  0  0  0  0  2  0  0  0  0  0  0
  160.4220  207.0000  154.9970 C   0  0  0  0  0  2  0  0  0  0  0  0
  160.6490  208.4950  155.2340 C   0  0  2  0  0  3  0  0  0  0  0  0
  162.5480  209.4870  156.3650 O   0  0  0  0  0  1  0  0  0  0  0  0
  161.5970  207.6140  157.2600 O   0  0  0  0  0  1  0  0  0  0  0  0
  161.3500  208.7980  156.5640 C   0  0  0  0  0  3  0  0  0  0  0  0
  159.2580  210.1220  156.0810 C   0  0  0  0  0  1  0  0  0  0  0  0
  159.5210  209.3090  154.9680 O   0  0  0  0  0  0  0  0  0  0  0  0
  1  3  1  0  0  0  0
  1  4  1  0  0  0  0
  2  8  1  0  0  0  0
  3  7  1  0  0  0  0
  3  4  1  0  0  0  0
  4 26  1  0  0  0  0
  5  1  1  0  0  0  0
  6  2  2  0  0  0  0
  6  5  1  0  0  0  0
  7 10  1  0  0  0  0
  8  7  1  0  0  0  0
 10  9  1  0  0  0  0
 11 14  1  0  0  0  0
 11 13  1  0  0  0  0
 11  5  1  0  0  0  0
 12 13  1  0  0  0  0
 14 15  1  0  0  0  0
 15 20  1  0  0  0  0
 16 19  1  0  0  0  0
 17 16  2  0  0  0  0
 18 17  1  0  0  0  0
 18 15  2  0  0  0  0
 20 19  2  0  0  0  0
 21 14  1  0  0  0  0
 22 25  2  0  0  0  0
 22 24  1  0  0  0  0
 23 22  1  0  0  0  0
 24 21  1  0  0  0  0
 26 27  1  0  0  0  0
 27 28  1  0  0  0  0
 28 29  1  0  0  0  0
 29 32  1  0  0  0  0
 30 32  1  0  0  0  0
 32 31  1  0  0  0  0
 34 29  1  0  0  0  0
 34 33  1  0  0  0  0
M  END
>  <MODEL>
4

>  <REMARK>
 VINA RESULT:      -6.6      2.596      4.523
  Name = 
  13 active torsions:
  status: ('A' for Active; 'I' for Inactive)
    1  A    between atoms: C_4  and  C_26
    2  A    between atoms: C_7  and  C_17
    3  A    between atoms: C_7  and  C_27
    4  A    between atoms: C_10  and  N_14
    5  A    between atoms: C_10  and  C_26
    6  A    between atoms: C_11  and  C_27
    7  A    between atoms: C_12  and  C_15
    8  A    between atoms: C_15  and  C_26
    9  A    between atoms: C_15  and  O_30
   10  A    between atoms: C_17  and  C_19
   11  A    between atoms: C_19  and  O_31
   12  A    between atoms: C_19  and  C_34
   13  A    between atoms: C_28  and  C_29
                            x       y       z     vdW  Elec       q    Type
                         _______ _______ _______ _____ _____    ______ ____

>  <TORSDO>
F 13

$$$$
=
 OpenBabel11072414143D

 34 36  0  0  1  0  0  0  0  0999 V2000
  160.7160  207.2340  151.3040 C   0  0  2  0  0  3  0  0  0  0  0  0
  160.7370  206.4300  154.1000 C   0  0  0  0  0  3  0  0  0  0  0  0
  161.8160  206.1940  151.2430 C   0  0  2  0  0  3  0  0  0  0  0  0
  161.4030  206.9500  149.9940 C   0  0  1  0  0  3  0  0  0  0  0  0
  161.2790  208.1150  152.3940 C   0  0  2  0  0  3  0  0  0  0  0  0
  160.7170  207.6520  153.6540 N   0  0  0  0  0  0  0  0  0  0  0  0
  161.1060  205.0540  151.9370 C   0  0  2  0  0  3  0  0  0  0  0  0
  161.4020  205.2280  153.4360 C   0  0  0  0  0  2  0  0  0  0  0  0
  160.8960  202.6520  151.9990 O   0  0  0  0  0  1  0  0  0  0  0  0
  161.6180  203.7080  151.4370 C   0  0  0  0  0  2  0  0  0  0  0  0
  160.9120  209.5850  152.1660 C   0  0  2  0  0  3  0  0  0  0  0  0
  162.1630  210.4900  150.5720 C   0  0  0  0  0  1  0  0  0  0  0  0
  162.0620  210.3570  151.9590 O   0  0  0  0  0  0  0  0  0  0  0  0
  160.0880  210.1390  153.3390 C   0  0  1  0  0  3  0  0  0  0  0  0
  160.8680  210.2290  154.6230 C   0  0  0  0  0  0  0  0  0  0  0  0
  162.2830  210.3480  157.0400 C   0  0  0  0  0  3  0  0  0  0  0  0
  160.9430  209.9490  157.0320 C   0  0  0  0  0  3  0  0  0  0  0  0
  160.2380  209.8890  155.8260 C   0  0  0  0  0  3  0  0  0  0  0  0
  162.9190  210.6850  155.8410 C   0  0  0  0  0  3  0  0  0  0  0  0
  162.2140  210.6250  154.6350 C   0  0  0  0  0  3  0  0  0  0  0  0
  159.4270  211.4610  152.9700 C   0  0  0  0  0  2  0  0  0  0  0  0
  157.6130  212.2650  154.5210 C   0  0  0  0  0  0  0  0  0  0  0  0
  156.2490  212.2360  154.9210 N   0  0  0  0  0  1  0  0  0  0  0  0
  158.0440  211.4690  153.4190 N   0  0  0  0  0  2  0  0  0  0  0  0
  158.4300  212.9930  155.1450 O   0  0  0  0  0  0  0  0  0  0  0  0
  160.5070  206.0990  149.1110 C   0  0  0  0  0  2  0  0  0  0  0  0
  161.2130  205.7690  147.8080 C   0  0  0  0  0  2  0  0  0  0  0  0
  161.7710  204.3580  147.8530 C   0  0  0  0  0  2  0  0  0  0  0  0
  161.0790  203.4830  146.8060 C   0  0  2  0  0  3  0  0  0  0  0  0
  161.4350  201.7750  148.4860 O   0  0  0  0  0  1  0  0  0  0  0  0
  160.9970  201.1260  146.3420 O   0  0  0  0  0  1  0  0  0  0  0  0
  160.7290  202.0830  147.3220 C   0  0  0  0  0  3  0  0  0  0  0  0
  160.9390  204.3040  144.6600 C   0  0  0  0  0  1  0  0  0  0  0  0
  161.6930  203.5000  145.5300 O   0  0  0  0  0  0  0  0  0  0  0  0
  1  5  1  0  0  0  0
  3  1  1  0  0  0  0
  3  7  1  0  0  0  0
  4  3  1  0  0  0  0
  4  1  1  0  0  0  0
  5  6  1  0  0  0  0
  6  2  2  0  0  0  0
  7  8  1  0  0  0  0
  8  2  1  0  0  0  0
 10  7  1  0  0  0  0
 10  9  1  0  0  0  0
 11  5  1  0  0  0  0
 11 14  1  0  0  0  0
 12 13  1  0  0  0  0
 13 11  1  0  0  0  0
 14 15  1  0  0  0  0
 15 20  2  0  0  0  0
 15 18  1  0  0  0  0
 17 16  1  0  0  0  0
 18 17  2  0  0  0  0
 19 16  2  0  0  0  0
 20 19  1  0  0  0  0
 21 14  1  0  0  0  0
 21 24  1  0  0  0  0
 22 23  1  0  0  0  0
 22 25  2  0  0  0  0
 24 22  1  0  0  0  0
 26  4  1  0  0  0  0
 27 28  1  0  0  0  0
 27 26  1  0  0  0  0
 29 32  1  0  0  0  0
 29 28  1  0  0  0  0
 31 32  1  0  0  0  0
 32 30  1  0  0  0  0
 33 34  1  0  0  0  0
 34 29  1  0  0  0  0
M  END
>  <MODEL>
5

>  <REMARK>
 VINA RESULT:      -6.6      2.724      9.134
  Name = 
  13 active torsions:
  status: ('A' for Active; 'I' for Inactive)
    1  A    between atoms: C_4  and  C_26
    2  A    between atoms: C_7  and  C_17
    3  A    between atoms: C_7  and  C_27
    4  A    between atoms: C_10  and  N_14
    5  A    between atoms: C_10  and  C_26
    6  A    between atoms: C_11  and  C_27
    7  A    between atoms: C_12  and  C_15
    8  A    between atoms: C_15  and  C_26
    9  A    between atoms: C_15  and  O_30
   10  A    between atoms: C_17  and  C_19
   11  A    between atoms: C_19  and  O_31
   12  A    between atoms: C_19  and  C_34
   13  A    between atoms: C_28  and  C_29
                            x       y       z     vdW  Elec       q    Type
                         _______ _______ _______ _____ _____    ______ ____

>  <TORSDO>
F 13

$$$$
=
 OpenBabel11072414143D

 34 36  0  0  1  0  0  0  0  0999 V2000
  161.8100  207.7290  151.1680 C   0  0  2  0  0  3  0  0  0  0  0  0
  161.7720  205.3050  152.7760 C   0  0  0  0  0  3  0  0  0  0  0  0
  160.6450  208.0650  152.0770 C   0  0  2  0  0  3  0  0  0  0  0  0
  161.0910  209.0410  151.0040 C   0  0  1  0  0  3  0  0  0  0  0  0
  161.3180  206.4080  150.6270 C   0  0  2  0  0  3  0  0  0  0  0  0
  161.8640  205.3630  151.4800 N   0  0  0  0  0  0  0  0  0  0  0  0
  161.2900  207.7680  153.4120 C   0  0  2  0  0  3  0  0  0  0  0  0
  161.0240  206.2780  153.6820 C   0  0  0  0  0  2  0  0  0  0  0  0
  160.1510  207.8480  155.5370 O   0  0  0  0  0  1  0  0  0  0  0  0
  160.6870  208.6340  154.5130 C   0  0  0  0  0  2  0  0  0  0  0  0
  161.7750  206.1940  149.1800 C   0  0  2  0  0  3  0  0  0  0  0  0
  163.0340  207.7230  148.1790 C   0  0  0  0  0  1  0  0  0  0  0  0
  161.7060  207.3910  148.4550 O   0  0  0  0  0  0  0  0  0  0  0  0
  160.9500  205.0930  148.4940 C   0  0  1  0  0  3  0  0  0  0  0  0
  161.0450  205.1290  146.9930 C   0  0  0  0  0  0  0  0  0  0  0  0
  161.2240  205.1300  144.1960 C   0  0  0  0  0  3  0  0  0  0  0  0
  161.8260  204.1080  144.9350 C   0  0  0  0  0  3  0  0  0  0  0  0
  161.7350  204.1070  146.3300 C   0  0  0  0  0  3  0  0  0  0  0  0
  160.5290  206.1510  144.8510 C   0  0  0  0  0  3  0  0  0  0  0  0
  160.4390  206.1510  146.2460 C   0  0  0  0  0  3  0  0  0  0  0  0
  161.2860  203.7200  149.0620 C   0  0  0  0  0  2  0  0  0  0  0  0
  160.0990  201.5850  149.6720 C   0  0  0  0  0  0  0  0  0  0  0  0
  158.8790  200.8730  149.8420 N   0  0  0  0  0  1  0  0  0  0  0  0
  160.0690  202.9480  149.2520 N   0  0  0  0  0  2  0  0  0  0  0  0
  161.1950  201.0050  149.8940 O   0  0  0  0  0  0  0  0  0  0  0  0
  161.9200  210.1670  151.5980 C   0  0  0  0  0  2  0  0  0  0  0  0
  161.7690  211.4280  150.7670 C   0  0  0  0  0  2  0  0  0  0  0  0
  162.0230  211.1270  149.3010 C   0  0  0  0  0  2  0  0  0  0  0  0
  161.5010  212.2710  148.4290 C   0  0  2  0  0  3  0  0  0  0  0  0
  162.3230  212.9480  146.2530 O   0  0  0  0  0  1  0  0  0  0  0  0
  163.8340  212.3610  147.8610 O   0  0  0  0  0  1  0  0  0  0  0  0
  162.6010  212.9690  147.6220 C   0  0  0  0  0  3  0  0  0  0  0  0
  161.1440  214.4500  149.0790 C   0  0  0  0  0  1  0  0  0  0  0  0
  160.6100  213.1520  149.0900 O   0  0  0  0  0  0  0  0  0  0  0  0
  1  3  1  0  0  0  0
  2  8  1  0  0  0  0
  3  7  1  0  0  0  0
  4  1  1  0  0  0  0
  4 26  1  0  0  0  0
  4  3  1  0  0  0  0
  5  1  1  0  0  0  0
  5  6  1  0  0  0  0
  6  2  2  0  0  0  0
  7  8  1  0  0  0  0
  7 10  1  0  0  0  0
 10  9  1  0  0  0  0
 11  5  1  0  0  0  0
 12 13  1  0  0  0  0
 13 11  1  0  0  0  0
 14 21  1  0  0  0  0
 14 11  1  0  0  0  0
 15 14  1  0  0  0  0
 16 19  2  0  0  0  0
 16 17  1  0  0  0  0
 17 18  2  0  0  0  0
 18 15  1  0  0  0  0
 19 20  1  0  0  0  0
 20 15  2  0  0  0  0
 21 24  1  0  0  0  0
 22 23  1  0  0  0  0
 22 25  2  0  0  0  0
 24 22  1  0  0  0  0
 27 26  1  0  0  0  0
 28 27  1  0  0  0  0
 29 34  1  0  0  0  0
 29 28  1  0  0  0  0
 30 32  1  0  0  0  0
 32 31  1  0  0  0  0
 32 29  1  0  0  0  0
 33 34  1  0  0  0  0
M  END
>  <MODEL>
6

>  <REMARK>
 VINA RESULT:      -6.0      2.311      3.548
  Name = 
  13 active torsions:
  status: ('A' for Active; 'I' for Inactive)
    1  A    between atoms: C_4  and  C_26
    2  A    between atoms: C_7  and  C_17
    3  A    between atoms: C_7  and  C_27
    4  A    between atoms: C_10  and  N_14
    5  A    between atoms: C_10  and  C_26
    6  A    between atoms: C_11  and  C_27
    7  A    between atoms: C_12  and  C_15
    8  A    between atoms: C_15  and  C_26
    9  A    between atoms: C_15  and  O_30
   10  A    between atoms: C_17  and  C_19
   11  A    between atoms: C_19  and  O_31
   12  A    between atoms: C_19  and  C_34
   13  A    between atoms: C_28  and  C_29
                            x       y       z     vdW  Elec       q    Type
                         _______ _______ _______ _____ _____    ______ ____

>  <TORSDO>
F 13

$$$$
=
 OpenBabel11072414143D

 34 36  0  0  1  0  0  0  0  0999 V2000
  161.9300  208.1750  151.3400 C   0  0  2  0  0  3  0  0  0  0  0  0
  162.3300  210.2540  149.3450 C   0  0  0  0  0  3  0  0  0  0  0  0
  161.0760  207.6030  150.2270 C   0  0  2  0  0  3  0  0  0  0  0  0
  161.2060  206.8720  151.5500 C   0  0  1  0  0  3  0  0  0  0  0  0
  161.2920  209.5380  151.4550 C   0  0  2  0  0  3  0  0  0  0  0  0
  162.0500  210.4420  150.6020 N   0  0  0  0  0  0  0  0  0  0  0  0
  162.0710  207.6900  149.0920 C   0  0  2  0  0  3  0  0  0  0  0  0
  161.8800  209.0850  148.4750 C   0  0  0  0  0  2  0  0  0  0  0  0
  160.4730  206.5790  147.6670 O   0  0  0  0  0  1  0  0  0  0  0  0
  161.8150  206.6000  148.0570 C   0  0  0  0  0  2  0  0  0  0  0  0
  161.3170  210.0440  152.9020 C   0  0  2  0  0  3  0  0  0  0  0  0
  163.0170  210.5470  154.2370 C   0  0  0  0  0  1  0  0  0  0  0  0
  162.3820  209.4720  153.6100 O   0  0  0  0  0  0  0  0  0  0  0  0
  159.9810  209.7660  153.6090 C   0  0  1  0  0  3  0  0  0  0  0  0
  160.1260  208.9030  154.8340 C   0  0  0  0  0  0  0  0  0  0  0  0
  160.3600  207.3400  157.1480 C   0  0  0  0  0  3  0  0  0  0  0  0
  160.2520  208.7300  157.2500 C   0  0  0  0  0  3  0  0  0  0  0  0
  160.1330  209.5090  156.0960 C   0  0  0  0  0  3  0  0  0  0  0  0
  160.3500  206.7280  155.8900 C   0  0  0  0  0  3  0  0  0  0  0  0
  160.2310  207.5070  154.7360 C   0  0  0  0  0  3  0  0  0  0  0  0
  159.2330  211.0610  153.9000 C   0  0  0  0  0  2  0  0  0  0  0  0
  158.7190  212.6020  151.9750 C   0  0  0  0  0  0  0  0  0  0  0  0
  157.8980  212.9280  150.8610 N   0  0  0  0  0  1  0  0  0  0  0  0
  158.4270  211.4400  152.7510 N   0  0  0  0  0  2  0  0  0  0  0  0
  159.6950  213.3410  152.2690 O   0  0  0  0  0  0  0  0  0  0  0  0
  162.1810  205.7110  151.4400 C   0  0  0  0  0  2  0  0  0  0  0  0
  161.4260  204.3970  151.3490 C   0  0  0  0  0  2  0  0  0  0  0  0
  161.1470  204.0480  149.8980 C   0  0  0  0  0  2  0  0  0  0  0  0
  161.2040  202.5320  149.7000 C   0  0  2  0  0  3  0  0  0  0  0  0
  161.5790  200.9280  147.9240 O   0  0  0  0  0  1  0  0  0  0  0  0
  161.2280  203.1140  147.3680 O   0  0  0  0  0  1  0  0  0  0  0  0
  160.8950  202.0970  148.2630 C   0  0  0  0  0  3  0  0  0  0  0  0
  159.4010  201.1660  150.1330 C   0  0  0  0  0  1  0  0  0  0  0  0
  160.5290  201.7850  150.6960 O   0  0  0  0  0  0  0  0  0  0  0  0
  1  5  1  0  0  0  0
  1  4  1  0  0  0  0
  2  6  2  0  0  0  0
  3  1  1  0  0  0  0
  3  4  1  0  0  0  0
  5 11  1  0  0  0  0
  6  5  1  0  0  0  0
  7  3  1  0  0  0  0
  8  7  1  0  0  0  0
  8  2  1  0  0  0  0
  9 10  1  0  0  0  0
 10  7  1  0  0  0  0
 11 14  1  0  0  0  0
 11 13  1  0  0  0  0
 13 12  1  0  0  0  0
 14 21  1  0  0  0  0
 14 15  1  0  0  0  0
 15 18  1  0  0  0  0
 16 17  1  0  0  0  0
 18 17  2  0  0  0  0
 19 16  2  0  0  0  0
 20 15  2  0  0  0  0
 20 19  1  0  0  0  0
 22 25  2  0  0  0  0
 22 24  1  0  0  0  0
 23 22  1  0  0  0  0
 24 21  1  0  0  0  0
 26  4  1  0  0  0  0
 27 26  1  0  0  0  0
 28 27  1  0  0  0  0
 29 28  1  0  0  0  0
 29 34  1  0  0  0  0
 30 32  1  0  0  0  0
 31 32  1  0  0  0  0
 32 29  1  0  0  0  0
 33 34  1  0  0  0  0
M  END
>  <MODEL>
7

>  <REMARK>
 VINA RESULT:      -5.8      2.982      8.947
  Name = 
  13 active torsions:
  status: ('A' for Active; 'I' for Inactive)
    1  A    between atoms: C_4  and  C_26
    2  A    between atoms: C_7  and  C_17
    3  A    between atoms: C_7  and  C_27
    4  A    between atoms: C_10  and  N_14
    5  A    between atoms: C_10  and  C_26
    6  A    between atoms: C_11  and  C_27
    7  A    between atoms: C_12  and  C_15
    8  A    between atoms: C_15  and  C_26
    9  A    between atoms: C_15  and  O_30
   10  A    between atoms: C_17  and  C_19
   11  A    between atoms: C_19  and  O_31
   12  A    between atoms: C_19  and  C_34
   13  A    between atoms: C_28  and  C_29
                            x       y       z     vdW  Elec       q    Type
                         _______ _______ _______ _____ _____    ______ ____

>  <TORSDO>
F 13

$$$$
=
 OpenBabel11072414143D

 34 36  0  0  1  0  0  0  0  0999 V2000
  161.7370  207.3610  152.5260 C   0  0  2  0  0  3  0  0  0  0  0  0
  162.4890  210.0190  151.6130 C   0  0  0  0  0  3  0  0  0  0  0  0
  161.0860  207.3350  151.1580 C   0  0  2  0  0  3  0  0  0  0  0  0
  160.9800  206.1370  152.0830 C   0  0  1  0  0  3  0  0  0  0  0  0
  161.0960  208.6140  153.0720 C   0  0  2  0  0  3  0  0  0  0  0  0
  161.9950  209.7200  152.7790 N   0  0  0  0  0  0  0  0  0  0  0  0
  162.2640  207.7850  150.3230 C   0  0  2  0  0  3  0  0  0  0  0  0
  162.1900  209.3210  150.2910 C   0  0  0  0  0  2  0  0  0  0  0  0
  161.0720  207.7010  148.2280 O   0  0  0  0  0  1  0  0  0  0  0  0
  162.1850  207.2090  148.9140 C   0  0  0  0  0  2  0  0  0  0  0  0
  160.8710  208.5100  154.5840 C   0  0  2  0  0  3  0  0  0  0  0  0
  159.9200  207.0870  155.9970 C   0  0  0  0  0  1  0  0  0  0  0  0
  159.6610  207.8610  154.8630 O   0  0  0  0  0  0  0  0  0  0  0  0
  160.9110  209.8960  155.2480 C   0  0  1  0  0  3  0  0  0  0  0  0
  159.7690  210.7850  154.8370 C   0  0  0  0  0  0  0  0  0  0  0  0
  157.6720  212.4510  154.0110 C   0  0  0  0  0  3  0  0  0  0  0  0
  158.9670  212.6670  153.5310 C   0  0  0  0  0  3  0  0  0  0  0  0
  160.0130  211.8340  153.9420 C   0  0  0  0  0  3  0  0  0  0  0  0
  157.4210  211.4030  154.9020 C   0  0  0  0  0  3  0  0  0  0  0  0
  158.4660  210.5710  155.3130 C   0  0  0  0  0  3  0  0  0  0  0  0
  161.0350  209.7770  156.7620 C   0  0  0  0  0  2  0  0  0  0  0  0
  163.2290  210.9790  156.4760 C   0  0  0  0  0  0  0  0  0  0  0  0
  164.2120  211.8640  156.9990 N   0  0  0  0  0  1  0  0  0  0  0  0
  162.0700  210.6750  157.2500 N   0  0  0  0  0  2  0  0  0  0  0  0
  163.3900  210.4720  155.3340 O   0  0  0  0  0  0  0  0  0  0  0  0
  161.9520  205.0440  151.6750 C   0  0  0  0  0  2  0  0  0  0  0  0
  161.2020  203.8720  151.0680 C   0  0  0  0  0  2  0  0  0  0  0  0
  160.6420  204.2510  149.7090 C   0  0  0  0  0  2  0  0  0  0  0  0
  160.8680  203.1150  148.7090 C   0  0  2  0  0  3  0  0  0  0  0  0
  161.4840  200.7740  148.6280 O   0  0  0  0  0  1  0  0  0  0  0  0
  159.4050  201.3320  149.3890 O   0  0  0  0  0  1  0  0  0  0  0  0
  160.7440  201.7220  149.3370 C   0  0  0  0  0  3  0  0  0  0  0  0
  161.5920  203.7720  146.6250 C   0  0  0  0  0  1  0  0  0  0  0  0
  162.0000  203.2840  147.8760 O   0  0  0  0  0  0  0  0  0  0  0  0
  1  5  1  0  0  0  0
  2  6  2  0  0  0  0
  3  4  1  0  0  0  0
  3  1  1  0  0  0  0
  4  1  1  0  0  0  0
  5 11  1  0  0  0  0
  6  5  1  0  0  0  0
  7  3  1  0  0  0  0
  8  7  1  0  0  0  0
  8  2  1  0  0  0  0
  9 10  1  0  0  0  0
 10  7  1  0  0  0  0
 11 13  1  0  0  0  0
 11 14  1  0  0  0  0
 13 12  1  0  0  0  0
 14 21  1  0  0  0  0
 15 14  1  0  0  0  0
 15 20  1  0  0  0  0
 16 19  1  0  0  0  0
 17 18  1  0  0  0  0
 17 16  2  0  0  0  0
 18 15  2  0  0  0  0
 19 20  2  0  0  0  0
 21 24  1  0  0  0  0
 22 23  1  0  0  0  0
 22 24  1  0  0  0  0
 25 22  2  0  0  0  0
 26  4  1  0  0  0  0
 27 26  1  0  0  0  0
 28 27  1  0  0  0  0
 29 32  1  0  0  0  0
 29 28  1  0  0  0  0
 30 32  1  0  0  0  0
 32 31  1  0  0  0  0
 33 34  1  0  0  0  0
 34 29  1  0  0  0  0
M  END
>  <MODEL>
8

>  <REMARK>
 VINA RESULT:      -5.8      3.032      9.166
  Name = 
  13 active torsions:
  status: ('A' for Active; 'I' for Inactive)
    1  A    between atoms: C_4  and  C_26
    2  A    between atoms: C_7  and  C_17
    3  A    between atoms: C_7  and  C_27
    4  A    between atoms: C_10  and  N_14
    5  A    between atoms: C_10  and  C_26
    6  A    between atoms: C_11  and  C_27
    7  A    between atoms: C_12  and  C_15
    8  A    between atoms: C_15  and  C_26
    9  A    between atoms: C_15  and  O_30
   10  A    between atoms: C_17  and  C_19
   11  A    between atoms: C_19  and  O_31
   12  A    between atoms: C_19  and  C_34
   13  A    between atoms: C_28  and  C_29
                            x       y       z     vdW  Elec       q    Type
                         _______ _______ _______ _____ _____    ______ ____

>  <TORSDO>
F 13

$$$$
=
 OpenBabel11072414143D

 34 36  0  0  1  0  0  0  0  0999 V2000
  160.8490  207.3510  152.3380 C   0  0  2  0  0  3  0  0  0  0  0  0
  161.6670  208.8190  149.9630 C   0  0  0  0  0  3  0  0  0  0  0  0
  161.9530  208.1910  152.9470 C   0  0  2  0  0  3  0  0  0  0  0  0
  161.1750  207.2070  153.8010 C   0  0  1  0  0  3  0  0  0  0  0  0
  161.6290  206.7060  151.2190 C   0  0  2  0  0  3  0  0  0  0  0  0
  161.4550  207.5370  150.0370 N   0  0  0  0  0  0  0  0  0  0  0  0
  161.5250  209.5510  152.4440 C   0  0  2  0  0  3  0  0  0  0  0  0
  162.2010  209.7200  151.0720 C   0  0  0  0  0  2  0  0  0  0  0  0
  160.9010  211.5010  153.7190 O   0  0  0  0  0  1  0  0  0  0  0  0
  161.9650  210.6510  153.4030 C   0  0  0  0  0  2  0  0  0  0  0  0
  161.1270  205.2850  150.9370 C   0  0  2  0  0  3  0  0  0  0  0  0
  160.8300  203.9970  152.7190 C   0  0  0  0  0  1  0  0  0  0  0  0
  161.7780  204.3560  151.7580 O   0  0  0  0  0  0  0  0  0  0  0  0
  161.3010  204.9190  149.4550 C   0  0  1  0  0  3  0  0  0  0  0  0
  161.0980  203.4530  149.1780 C   0  0  0  0  0  0  0  0  0  0  0  0
  160.7700  200.7270  148.6170 C   0  0  0  0  0  3  0  0  0  0  0  0
  161.2250  201.5970  147.6210 C   0  0  0  0  0  3  0  0  0  0  0  0
  161.3900  202.9560  147.9020 C   0  0  0  0  0  3  0  0  0  0  0  0
  160.4800  201.2170  149.8940 C   0  0  0  0  0  3  0  0  0  0  0  0
  160.6450  202.5760  150.1750 C   0  0  0  0  0  3  0  0  0  0  0  0
  160.4350  205.8010  148.5640 C   0  0  0  0  0  2  0  0  0  0  0  0
  161.9070  206.0990  146.5430 C   0  0  0  0  0  0  0  0  0  0  0  0
  162.1630  205.8270  145.1700 N   0  0  0  0  0  1  0  0  0  0  0  0
  160.7450  205.5530  147.1650 N   0  0  0  0  0  2  0  0  0  0  0  0
  162.7070  206.8200  147.1960 O   0  0  0  0  0  0  0  0  0  0  0  0
  160.1280  207.9200  154.6400 C   0  0  0  0  0  2  0  0  0  0  0  0
  159.8350  207.1270  155.9010 C   0  0  0  0  0  2  0  0  0  0  0  0
  160.0850  207.9810  157.1310 C   0  0  0  0  0  2  0  0  0  0  0  0
  160.2360  209.4500  156.7310 C   0  0  2  0  0  3  0  0  0  0  0  0
  161.5790  211.4510  156.9790 O   0  0  0  0  0  1  0  0  0  0  0  0
  162.6320  209.4740  156.5350 O   0  0  0  0  0  1  0  0  0  0  0  0
  161.5580  210.0720  157.1960 C   0  0  0  0  0  3  0  0  0  0  0  0
  158.5700  210.7130  155.7670 C   0  0  0  0  0  1  0  0  0  0  0  0
  159.0930  210.2470  156.9830 O   0  0  0  0  0  0  0  0  0  0  0  0
  1  3  1  0  0  0  0
  1  4  1  0  0  0  0
  2  6  2  0  0  0  0
  2  8  1  0  0  0  0
  3  4  1  0  0  0  0
  4 26  1  0  0  0  0
  5  1  1  0  0  0  0
  6  5  1  0  0  0  0
  7  3  1  0  0  0  0
  7 10  1  0  0  0  0
  8  7  1  0  0  0  0
 10  9  1  0  0  0  0
 11  5  1  0  0  0  0
 11 13  1  0  0  0  0
 13 12  1  0  0  0  0
 14 11  1  0  0  0  0
 15 14  1  0  0  0  0
 15 20  1  0  0  0  0
 16 19  1  0  0  0  0
 17 18  1  0  0  0  0
 17 16  2  0  0  0  0
 18 15  2  0  0  0  0
 19 20  2  0  0  0  0
 21 14  1  0  0  0  0
 22 24  1  0  0  0  0
 22 25  2  0  0  0  0
 23 22  1  0  0  0  0
 24 21  1  0  0  0  0
 26 27  1  0  0  0  0
 27 28  1  0  0  0  0
 29 34  1  0  0  0  0
 29 28  1  0  0  0  0
 29 32  1  0  0  0  0
 30 32  1  0  0  0  0
 31 32  1  0  0  0  0
 33 34  1  0  0  0  0
M  END
>  <MODEL>
9

>  <REMARK>
 VINA RESULT:      -5.7      2.260      4.311
  Name = 
  13 active torsions:
  status: ('A' for Active; 'I' for Inactive)
    1  A    between atoms: C_4  and  C_26
    2  A    between atoms: C_7  and  C_17
    3  A    between atoms: C_7  and  C_27
    4  A    between atoms: C_10  and  N_14
    5  A    between atoms: C_10  and  C_26
    6  A    between atoms: C_11  and  C_27
    7  A    between atoms: C_12  and  C_15
    8  A    between atoms: C_15  and  C_26
    9  A    between atoms: C_15  and  O_30
   10  A    between atoms: C_17  and  C_19
   11  A    between atoms: C_19  and  O_31
   12  A    between atoms: C_19  and  C_34
   13  A    between atoms: C_28  and  C_29
                            x       y       z     vdW  Elec       q    Type
                         _______ _______ _______ _____ _____    ______ ____

>  <TORSDO>
F 13

$$$$
