=
 OpenBabel11072410433D

 50 54  0  0  1  0  0  0  0  0999 V2000
  162.0100  208.2190  149.6680 C   0  0  1  0  0  3  0  0  0  0  0  0
  160.8350  207.8040  149.0340 O   0  0  0  0  0  1  0  0  0  0  0  0
  161.9650  209.6930  149.8990 C   0  0  0  0  0  0  0  0  0  0  0  0
  160.0590  212.2710  153.6480 C   0  0  0  0  0  2  0  0  0  0  0  0
  160.0710  211.6320  152.2620 C   0  0  0  0  0  2  0  0  0  0  0  0
  161.5620  209.9540  153.3830 O   0  0  0  0  0  0  0  0  0  0  0  0
  161.5370  210.1280  151.0530 C   0  0  0  0  0  0  0  0  0  0  0  0
  160.0440  211.2360  154.6820 N   0  0  0  0  0  0  0  0  0  0  0  0
  161.1060  210.5530  152.2050 C   0  0  0  0  0  0  0  0  0  0  0  0
  161.3430  210.5650  154.6530 C   0  0  0  0  0  2  0  0  0  0  0  0
  159.6040  213.7500  155.8770 C   0  0  0  0  0  1  0  0  0  0  0  0
  161.3220  212.0060  156.8220 O   0  0  0  0  0  0  0  0  0  0  0  0
  159.9060  212.0140  156.2530 S   0  0  2  0  0  0  0  0  0  0  0  0
  162.1200  210.5940  148.7980 N   0  0  0  0  0  2  0  0  0  0  0  0
  162.4430  212.6490  147.8000 C   0  0  1  0  0  3  0  0  0  0  0  0
  160.9610  212.4810  147.7840 N   0  0  0  0  0  0  0  0  0  0  0  0
  162.7700  214.0890  148.1360 C   0  0  0  0  0  1  0  0  0  0  0  0
  161.8640  212.0270  148.8860 C   0  0  1  0  0  3  0  0  0  0  0  0
  158.1840  212.5570  145.3020 C   0  0  0  0  0  3  0  0  0  0  0  0
  159.6760  212.6880  147.2090 C   0  0  0  0  0  0  0  0  0  0  0  0
  157.1480  213.0880  146.0770 C   0  0  0  0  0  3  0  0  0  0  0  0
  158.6360  213.2100  147.9850 C   0  0  0  0  0  3  0  0  0  0  0  0
  156.3690  213.9260  148.1690 F   0  0  0  0  0  0  0  0  0  0  0  0
  159.4460  212.3550  145.8690 C   0  0  0  0  0  3  0  0  0  0  0  0
  157.3730  213.4120  147.4190 C   0  0  0  0  0  0  0  0  0  0  0  0
  163.4040  207.3230  151.3580 O   0  0  0  0  0  0  0  0  0  0  0  0
  162.2610  207.4370  150.9330 C   0  0  0  0  0  0  0  0  0  0  0  0
  160.9410  207.2750  152.9660 N   0  0  0  0  0  2  0  0  0  0  0  0
  161.2050  205.1300  153.2760 N   0  0  0  0  0  2  0  0  0  0  0  0
  161.4410  205.2990  151.8600 C   0  0  2  0  0  3  0  0  0  0  0  0
  161.1290  206.7370  151.6330 C   0  0  2  0  0  3  0  0  0  0  0  0
  161.4350  206.3500  153.8420 O   0  0  0  0  0  0  0  0  0  0  0  0
  160.4970  204.4060  151.0730 C   0  0  0  0  0  2  0  0  0  0  0  0
  160.7580  202.5960  149.3380 C   0  0  0  0  0  0  0  0  0  0  0  0
  161.1190  204.0130  149.7380 C   0  0  1  0  0  3  0  0  0  0  0  0
  161.5620  202.8240  145.8590 O   0  0  0  0  0  0  0  0  0  0  0  0
  160.3580  201.7020  150.3260 O   0  0  0  0  0  1  0  0  0  0  0  0
  161.2650  204.5910  147.3710 N   0  0  0  0  0  0  0  0  0  0  0  0
  161.2480  203.1980  147.0230 C   0  0  0  0  0  0  0  0  0  0  0  0
  160.8760  202.2000  148.0480 C   0  0  0  0  0  0  0  0  0  0  0  0
  160.7040  205.0000  148.6500 C   0  0  0  0  0  2  0  0  0  0  0  0
  161.0110  206.1320  145.4950 C   0  0  0  0  0  1  0  0  0  0  0  0
  161.9510  205.5790  146.5520 C   0  0  0  0  0  2  0  0  0  0  0  0
  160.6320  200.8500  147.6160 N   0  0  0  0  0  2  0  0  0  0  0  0
  161.5750  199.9780  146.9300 C   0  0  0  0  0  2  0  0  0  0  0  0
  161.0320  199.6070  145.5570 C   0  0  0  0  0  2  0  0  0  0  0  0
  161.6890  197.5060  146.4190 F   0  0  0  0  0  0  0  0  0  0  0  0
  159.9720  197.5590  144.9630 F   0  0  0  0  0  0  0  0  0  0  0  0
  161.1950  198.1200  145.2840 C   0  0  0  0  0  0  0  0  0  0  0  0
  162.0820  197.9220  144.2420 F   0  0  0  0  0  0  0  0  0  0  0  0
  1  2  1  1  0  0  0
  1  3  1  0  0  0  0
  1 27  1  0  0  0  0
  3  7  2  0  0  0  0
  4  8  1  0  0  0  0
  5  4  1  0  0  0  0
  6 10  1  0  0  0  0
  7  9  2  0  0  0  0
  8 13  1  0  0  0  0
  9  5  1  0  0  0  0
  9  6  1  0  0  0  0
 10  8  1  0  0  0  0
 13 11  1  6  0  0  0
 13 12  2  0  0  0  0
 14  3  1  0  0  0  0
 15 17  1  1  0  0  0
 15 18  1  0  0  0  0
 16 15  1  0  0  0  0
 16 18  1  0  0  0  0
 18 14  1  6  0  0  0
 19 24  2  0  0  0  0
 19 21  1  0  0  0  0
 20 16  1  0  0  0  0
 20 22  2  0  0  0  0
 21 25  2  0  0  0  0
 24 20  1  0  0  0  0
 25 22  1  0  0  0  0
 25 23  1  0  0  0  0
 27 26  2  0  0  0  0
 28 32  1  0  0  0  0
 29 32  1  0  0  0  0
 30 33  1  6  0  0  0
 30 29  1  0  0  0  0
 31 27  1  1  0  0  0
 31 30  1  0  0  0  0
 31 28  1  0  0  0  0
 34 35  1  0  0  0  0
 34 37  1  0  0  0  0
 35 33  1  1  0  0  0
 36 39  2  0  0  0  0
 38 41  1  0  0  0  0
 39 38  1  0  0  0  0
 39 40  1  0  0  0  0
 40 34  2  0  0  0  0
 41 35  1  0  0  0  0
 42 43  1  0  0  0  0
 43 38  1  0  0  0  0
 44 40  1  0  0  0  0
 45 44  1  0  0  0  0
 46 45  1  0  0  0  0
 48 49  1  0  0  0  0
 49 46  1  0  0  0  0
 49 47  1  0  0  0  0
 50 49  1  0  0  0  0
M  END
>  <MODEL>
1

>  <REMARK>
 VINA RESULT:      -7.6      0.000      0.000
  Name = 
  14 active torsions:
  status: ('A' for Active; 'I' for Inactive)
    1  A    between atoms: C_6  and  C_47
    2  A    between atoms: C_8  and  N_34
    3  A    between atoms: C_8  and  C_46
    4  A    between atoms: N_13  and  C_19
    5  A    between atoms: C_14  and  C_22
    6  A    between atoms: C_14  and  C_50
    7  A    between atoms: N_16  and  C_17
    8  A    between atoms: N_16  and  C_22
    9  A    between atoms: C_29  and  C_47
   10  A    between atoms: S_32  and  N_42
   11  A    between atoms: N_33  and  C_40
   12  A    between atoms: N_34  and  C_39
   13  A    between atoms: C_35  and  C_46
   14  A    between atoms: C_36  and  C_50
                            x       y       z     vdW  Elec       q    Type
                         _______ _______ _______ _____ _____    ______ ____

>  <TORSDO>
F 14

$$$$
=
 OpenBabel11072410433D

 50 54  0  0  1  0  0  0  0  0999 V2000
  162.0130  208.2180  149.7020 C   0  0  1  0  0  3  0  0  0  0  0  0
  160.8320  207.8170  149.0700 O   0  0  0  0  0  1  0  0  0  0  0  0
  161.9680  209.6850  149.9720 C   0  0  0  0  0  0  0  0  0  0  0  0
  160.1780  212.1540  153.8490 C   0  0  0  0  0  2  0  0  0  0  0  0
  160.1450  211.5510  152.4480 C   0  0  0  0  0  2  0  0  0  0  0  0
  161.6840  209.8540  153.4730 O   0  0  0  0  0  0  0  0  0  0  0  0
  161.5770  210.0880  151.1510 C   0  0  0  0  0  0  0  0  0  0  0  0
  160.2050  211.0930  154.8570 N   0  0  0  0  0  0  0  0  0  0  0  0
  161.1840  210.4810  152.3280 C   0  0  0  0  0  0  0  0  0  0  0  0
  161.5060  210.4320  154.7660 C   0  0  0  0  0  2  0  0  0  0  0  0
  159.8090  213.5760  156.1300 C   0  0  0  0  0  1  0  0  0  0  0  0
  161.5500  211.8030  156.9770 O   0  0  0  0  0  0  0  0  0  0  0  0
  160.1170  211.8300  156.4520 S   0  0  2  0  0  0  0  0  0  0  0  0
  162.0790  210.6150  148.8900 N   0  0  0  0  0  2  0  0  0  0  0  0
  161.7130  212.8940  148.8930 C   0  0  1  0  0  3  0  0  0  0  0  0
  161.5230  212.5100  147.4650 N   0  0  0  0  0  0  0  0  0  0  0  0
  160.6680  213.9220  149.2680 C   0  0  0  0  0  1  0  0  0  0  0  0
  161.1130  211.6780  148.6370 C   0  0  1  0  0  3  0  0  0  0  0  0
  160.5120  212.8920  143.8990 C   0  0  0  0  0  3  0  0  0  0  0  0
  161.5890  212.7790  146.0680 C   0  0  0  0  0  0  0  0  0  0  0  0
  161.7160  213.3140  143.3250 C   0  0  0  0  0  3  0  0  0  0  0  0
  162.7890  213.2100  145.4940 C   0  0  0  0  0  3  0  0  0  0  0  0
  164.0180  213.8820  143.5640 F   0  0  0  0  0  0  0  0  0  0  0  0
  160.4490  212.6280  145.2710 C   0  0  0  0  0  3  0  0  0  0  0  0
  162.8540  213.4740  144.1220 C   0  0  0  0  0  0  0  0  0  0  0  0
  163.4270  207.2730  151.3480 O   0  0  0  0  0  0  0  0  0  0  0  0
  162.2790  207.4030  150.9430 C   0  0  0  0  0  0  0  0  0  0  0  0
  160.9870  207.2010  152.9910 N   0  0  0  0  0  2  0  0  0  0  0  0
  161.2460  205.0480  153.2470 N   0  0  0  0  0  2  0  0  0  0  0  0
  161.4630  205.2480  151.8330 C   0  0  2  0  0  3  0  0  0  0  0  0
  161.1530  206.6930  151.6430 C   0  0  2  0  0  3  0  0  0  0  0  0
  161.4890  206.2540  153.8380 O   0  0  0  0  0  0  0  0  0  0  0  0
  160.5030  204.3770  151.0390 C   0  0  0  0  0  2  0  0  0  0  0  0
  160.7700  202.5490  149.3250 C   0  0  0  0  0  0  0  0  0  0  0  0
  161.1240  203.9720  149.7070 C   0  0  1  0  0  3  0  0  0  0  0  0
  161.5640  202.7410  145.8420 O   0  0  0  0  0  0  0  0  0  0  0  0
  160.3780  201.6640  150.3240 O   0  0  0  0  0  1  0  0  0  0  0  0
  161.2600  204.5230  147.3330 N   0  0  0  0  0  0  0  0  0  0  0  0
  161.2510  203.1270  147.0020 C   0  0  0  0  0  0  0  0  0  0  0  0
  160.8870  202.1390  148.0390 C   0  0  0  0  0  0  0  0  0  0  0  0
  160.7010  204.9440  148.6090 C   0  0  0  0  0  2  0  0  0  0  0  0
  160.9260  206.4100  145.8210 C   0  0  0  0  0  1  0  0  0  0  0  0
  161.9400  205.5060  146.5010 C   0  0  0  0  0  2  0  0  0  0  0  0
  160.6490  200.7820  147.6230 N   0  0  0  0  0  2  0  0  0  0  0  0
  161.5900  199.9130  146.9310 C   0  0  0  0  0  2  0  0  0  0  0  0
  161.0740  199.6030  145.5330 C   0  0  0  0  0  2  0  0  0  0  0  0
  162.5270  197.7610  145.8260 F   0  0  0  0  0  0  0  0  0  0  0  0
  160.3550  197.3350  145.4190 F   0  0  0  0  0  0  0  0  0  0  0  0
  161.4120  198.1770  145.1250 C   0  0  0  0  0  0  0  0  0  0  0  0
  161.6850  198.1220  143.7710 F   0  0  0  0  0  0  0  0  0  0  0  0
  1  2  1  1  0  0  0
  1  3  1  0  0  0  0
  1 27  1  0  0  0  0
  3  7  2  0  0  0  0
  4  8  1  0  0  0  0
  5  4  1  0  0  0  0
  6 10  1  0  0  0  0
  7  9  2  0  0  0  0
  8 13  1  0  0  0  0
  9  5  1  0  0  0  0
  9  6  1  0  0  0  0
 10  8  1  0  0  0  0
 13 11  1  6  0  0  0
 13 12  2  0  0  0  0
 14  3  1  0  0  0  0
 15 17  1  1  0  0  0
 16 18  1  0  0  0  0
 16 15  1  0  0  0  0
 18 14  1  6  0  0  0
 18 15  1  0  0  0  0
 19 24  1  0  0  0  0
 20 16  1  0  0  0  0
 21 19  2  0  0  0  0
 21 25  1  0  0  0  0
 22 20  1  0  0  0  0
 23 25  1  0  0  0  0
 24 20  2  0  0  0  0
 25 22  2  0  0  0  0
 27 26  2  0  0  0  0
 28 32  1  0  0  0  0
 29 32  1  0  0  0  0
 30 33  1  6  0  0  0
 30 29  1  0  0  0  0
 31 27  1  1  0  0  0
 31 30  1  0  0  0  0
 31 28  1  0  0  0  0
 34 35  1  0  0  0  0
 34 37  1  0  0  0  0
 35 33  1  1  0  0  0
 36 39  2  0  0  0  0
 38 41  1  0  0  0  0
 39 38  1  0  0  0  0
 39 40  1  0  0  0  0
 40 34  2  0  0  0  0
 41 35  1  0  0  0  0
 42 43  1  0  0  0  0
 43 38  1  0  0  0  0
 44 40  1  0  0  0  0
 45 44  1  0  0  0  0
 46 45  1  0  0  0  0
 49 48  1  0  0  0  0
 49 46  1  0  0  0  0
 49 47  1  0  0  0  0
 50 49  1  0  0  0  0
M  END
>  <MODEL>
2

>  <REMARK>
 VINA RESULT:      -7.0      1.631      1.991
  Name = 
  14 active torsions:
  status: ('A' for Active; 'I' for Inactive)
    1  A    between atoms: C_6  and  C_47
    2  A    between atoms: C_8  and  N_34
    3  A    between atoms: C_8  and  C_46
    4  A    between atoms: N_13  and  C_19
    5  A    between atoms: C_14  and  C_22
    6  A    between atoms: C_14  and  C_50
    7  A    between atoms: N_16  and  C_17
    8  A    between atoms: N_16  and  C_22
    9  A    between atoms: C_29  and  C_47
   10  A    between atoms: S_32  and  N_42
   11  A    between atoms: N_33  and  C_40
   12  A    between atoms: N_34  and  C_39
   13  A    between atoms: C_35  and  C_46
   14  A    between atoms: C_36  and  C_50
                            x       y       z     vdW  Elec       q    Type
                         _______ _______ _______ _____ _____    ______ ____

>  <TORSDO>
F 14

$$$$
=
 OpenBabel11072410433D

 50 54  0  0  1  0  0  0  0  0999 V2000
  162.1900  210.4980  149.7440 C   0  0  1  0  0  3  0  0  0  0  0  0
  161.7660  209.6820  148.6910 O   0  0  0  0  0  1  0  0  0  0  0  0
  161.4700  211.8050  149.6890 C   0  0  0  0  0  0  0  0  0  0  0  0
  157.8290  213.5530  152.5210 C   0  0  0  0  0  2  0  0  0  0  0  0
  158.4360  212.8710  151.2990 C   0  0  0  0  0  2  0  0  0  0  0  0
  160.1900  212.1580  152.9460 O   0  0  0  0  0  0  0  0  0  0  0  0
  160.6410  212.0970  150.6540 C   0  0  0  0  0  0  0  0  0  0  0  0
  158.0130  212.7190  153.7100 N   0  0  0  0  0  0  0  0  0  0  0  0
  159.8120  212.3790  151.6180 C   0  0  0  0  0  0  0  0  0  0  0  0
  159.4410  212.7120  154.0260 C   0  0  0  0  0  2  0  0  0  0  0  0
  158.5150  213.9250  156.2080 C   0  0  0  0  0  1  0  0  0  0  0  0
  156.4620  212.3480  155.7750 O   0  0  0  0  0  0  0  0  0  0  0  0
  157.1930  213.4840  155.0650 S   0  0  2  0  0  0  0  0  0  0  0  0
  161.4810  212.5780  148.4850 N   0  0  0  0  0  2  0  0  0  0  0  0
  160.1780  214.1150  147.3600 C   0  0  1  0  0  3  0  0  0  0  0  0
  160.7010  213.2360  146.2740 N   0  0  0  0  0  0  0  0  0  0  0  0
  158.7310  214.4490  147.0670 C   0  0  0  0  0  1  0  0  0  0  0  0
  160.3090  212.7700  147.6390 C   0  0  1  0  0  3  0  0  0  0  0  0
  162.8370  213.2090  143.2220 C   0  0  0  0  0  3  0  0  0  0  0  0
  161.1370  213.0080  144.9380 C   0  0  0  0  0  0  0  0  0  0  0  0
  161.9980  212.5540  142.3150 C   0  0  0  0  0  3  0  0  0  0  0  0
  160.3030  212.3440  144.0330 C   0  0  0  0  0  3  0  0  0  0  0  0
  159.9200  211.4860  141.8410 F   0  0  0  0  0  0  0  0  0  0  0  0
  162.4080  213.4330  144.5340 C   0  0  0  0  0  3  0  0  0  0  0  0
  160.7320  212.1200  142.7210 C   0  0  0  0  0  0  0  0  0  0  0  0
  162.7080  210.1820  152.0310 O   0  0  0  0  0  0  0  0  0  0  0  0
  162.0430  209.8050  151.0750 C   0  0  0  0  0  0  0  0  0  0  0  0
  161.0980  208.1600  152.5930 N   0  0  0  0  0  2  0  0  0  0  0  0
  161.6920  206.3920  151.4590 N   0  0  0  0  0  2  0  0  0  0  0  0
  161.6740  207.4400  150.4650 C   0  0  2  0  0  3  0  0  0  0  0  0
  161.1400  208.6100  151.2150 C   0  0  2  0  0  3  0  0  0  0  0  0
  161.8450  207.0180  152.6610 O   0  0  0  0  0  0  0  0  0  0  0  0
  160.7430  207.0530  149.3280 C   0  0  0  0  0  2  0  0  0  0  0  0
  160.8550  204.5750  148.8780 C   0  0  0  0  0  0  0  0  0  0  0  0
  161.3630  205.9470  148.4810 C   0  0  1  0  0  3  0  0  0  0  0  0
  161.8030  202.8020  145.9180 O   0  0  0  0  0  0  0  0  0  0  0  0
  160.3200  204.4010  150.1490 O   0  0  0  0  0  1  0  0  0  0  0  0
  161.6580  205.1240  146.2010 N   0  0  0  0  0  0  0  0  0  0  0  0
  161.4930  203.7740  146.6610 C   0  0  0  0  0  0  0  0  0  0  0  0
  160.9720  203.5310  148.0230 C   0  0  0  0  0  0  0  0  0  0  0  0
  161.1030  206.2080  146.9990 C   0  0  0  0  0  2  0  0  0  0  0  0
  161.6090  205.7080  143.8320 C   0  0  0  0  0  1  0  0  0  0  0  0
  162.4830  205.4480  145.0460 C   0  0  0  0  0  2  0  0  0  0  0  0
  160.5890  202.1880  148.3670 N   0  0  0  0  0  2  0  0  0  0  0  0
  161.2240  201.3360  149.3630 C   0  0  0  0  0  2  0  0  0  0  0  0
  160.5400  201.5170  150.7100 C   0  0  0  0  0  2  0  0  0  0  0  0
  162.3370  201.1420  152.1990 F   0  0  0  0  0  0  0  0  0  0  0  0
  162.2390  203.1290  151.1450 F   0  0  0  0  0  0  0  0  0  0  0  0
  161.4880  202.1260  151.7320 C   0  0  0  0  0  0  0  0  0  0  0  0
  160.7720  202.6470  152.7940 F   0  0  0  0  0  0  0  0  0  0  0  0
  1  2  1  6  0  0  0
  1 27  1  0  0  0  0
  3  1  1  0  0  0  0
  3  7  2  0  0  0  0
  4  8  1  0  0  0  0
  5  9  1  0  0  0  0
  5  4  1  0  0  0  0
  6 10  1  0  0  0  0
  7  9  2  0  0  0  0
  8 10  1  0  0  0  0
  8 13  1  0  0  0  0
  9  6  1  0  0  0  0
 13 12  2  0  0  0  0
 13 11  1  1  0  0  0
 14  3  1  0  0  0  0
 15 17  1  6  0  0  0
 15 18  1  0  0  0  0
 16 15  1  0  0  0  0
 16 18  1  0  0  0  0
 18 14  1  1  0  0  0
 19 24  1  0  0  0  0
 20 16  1  0  0  0  0
 21 25  1  0  0  0  0
 21 19  2  0  0  0  0
 22 20  1  0  0  0  0
 23 25  1  0  0  0  0
 24 20  2  0  0  0  0
 25 22  2  0  0  0  0
 27 26  2  0  0  0  0
 28 32  1  0  0  0  0
 29 32  1  0  0  0  0
 30 33  1  6  0  0  0
 30 31  1  0  0  0  0
 30 29  1  0  0  0  0
 31 27  1  1  0  0  0
 31 28  1  0  0  0  0
 34 37  1  0  0  0  0
 35 34  1  0  0  0  0
 35 33  1  1  0  0  0
 36 39  2  0  0  0  0
 38 39  1  0  0  0  0
 38 41  1  0  0  0  0
 39 40  1  0  0  0  0
 40 44  1  0  0  0  0
 40 34  2  0  0  0  0
 41 35  1  0  0  0  0
 42 43  1  0  0  0  0
 43 38  1  0  0  0  0
 44 45  1  0  0  0  0
 45 46  1  0  0  0  0
 46 49  1  0  0  0  0
 48 49  1  0  0  0  0
 49 47  1  0  0  0  0
 49 50  1  0  0  0  0
M  END
>  <MODEL>
3

>  <REMARK>
 VINA RESULT:      -6.6      2.995      3.801
  Name = 
  14 active torsions:
  status: ('A' for Active; 'I' for Inactive)
    1  A    between atoms: C_6  and  C_47
    2  A    between atoms: C_8  and  N_34
    3  A    between atoms: C_8  and  C_46
    4  A    between atoms: N_13  and  C_19
    5  A    between atoms: C_14  and  C_22
    6  A    between atoms: C_14  and  C_50
    7  A    between atoms: N_16  and  C_17
    8  A    between atoms: N_16  and  C_22
    9  A    between atoms: C_29  and  C_47
   10  A    between atoms: S_32  and  N_42
   11  A    between atoms: N_33  and  C_40
   12  A    between atoms: N_34  and  C_39
   13  A    between atoms: C_35  and  C_46
   14  A    between atoms: C_36  and  C_50
                            x       y       z     vdW  Elec       q    Type
                         _______ _______ _______ _____ _____    ______ ____

>  <TORSDO>
F 14

$$$$
=
 OpenBabel11072410433D

 50 54  0  0  1  0  0  0  0  0999 V2000
  162.1750  208.1190  149.9030 C   0  0  1  0  0  3  0  0  0  0  0  0
  163.0750  207.7070  150.8900 O   0  0  0  0  0  1  0  0  0  0  0  0
  161.9700  209.5950  149.9910 C   0  0  0  0  0  0  0  0  0  0  0  0
  160.0420  212.3280  153.6170 C   0  0  0  0  0  2  0  0  0  0  0  0
  160.0310  211.5500  152.3040 C   0  0  0  0  0  2  0  0  0  0  0  0
  161.7890  210.1790  153.4540 O   0  0  0  0  0  0  0  0  0  0  0  0
  161.5760  210.0990  151.1290 C   0  0  0  0  0  0  0  0  0  0  0  0
  160.2260  211.4140  154.7450 N   0  0  0  0  0  0  0  0  0  0  0  0
  161.1810  210.5940  152.2660 C   0  0  0  0  0  0  0  0  0  0  0  0
  161.5900  210.8940  154.6730 C   0  0  0  0  0  2  0  0  0  0  0  0
  158.6800  211.6430  157.0910 C   0  0  0  0  0  1  0  0  0  0  0  0
  159.6390  213.7230  155.8090 O   0  0  0  0  0  0  0  0  0  0  0  0
  160.1080  212.3350  156.2390 S   0  0  2  0  0  0  0  0  0  0  0  0
  161.9360  210.3850  148.7980 N   0  0  0  0  0  2  0  0  0  0  0  0
  162.5540  212.3430  147.7450 C   0  0  1  0  0  3  0  0  0  0  0  0
  161.0710  212.3160  147.5930 N   0  0  0  0  0  0  0  0  0  0  0  0
  162.9910  213.7600  148.0470 C   0  0  0  0  0  1  0  0  0  0  0  0
  161.8170  211.8390  148.7970 C   0  0  1  0  0  3  0  0  0  0  0  0
  157.5200  213.2040  146.8970 C   0  0  0  0  0  3  0  0  0  0  0  0
  159.8710  212.6130  146.8860 C   0  0  0  0  0  0  0  0  0  0  0  0
  157.5150  213.2040  145.4980 C   0  0  0  0  0  3  0  0  0  0  0  0
  159.8660  212.6230  145.4870 C   0  0  0  0  0  3  0  0  0  0  0  0
  158.6810  212.9150  143.4390 F   0  0  0  0  0  0  0  0  0  0  0  0
  158.6990  212.9120  147.5900 C   0  0  0  0  0  3  0  0  0  0  0  0
  158.6880  212.9150  144.7940 C   0  0  0  0  0  0  0  0  0  0  0  0
  163.2860  208.4220  147.8350 O   0  0  0  0  0  0  0  0  0  0  0  0
  162.6150  207.6710  148.5320 C   0  0  0  0  0  0  0  0  0  0  0  0
  162.9500  205.9850  146.8150 N   0  0  0  0  0  2  0  0  0  0  0  0
  160.8730  205.8770  146.1510 N   0  0  0  0  0  2  0  0  0  0  0  0
  160.7710  206.3950  147.4960 C   0  0  2  0  0  3  0  0  0  0  0  0
  162.1760  206.3390  147.9880 C   0  0  2  0  0  3  0  0  0  0  0  0
  162.1380  206.1690  145.7310 O   0  0  0  0  0  0  0  0  0  0  0  0
  159.8680  205.4970  148.3250 C   0  0  0  0  0  2  0  0  0  0  0  0
  160.6290  205.1210  150.6980 C   0  0  0  0  0  0  0  0  0  0  0  0
  160.6940  204.6280  149.2660 C   0  0  1  0  0  3  0  0  0  0  0  0
  161.7660  202.1400  152.3180 O   0  0  0  0  0  0  0  0  0  0  0  0
  160.2810  206.4460  150.9350 O   0  0  0  0  0  1  0  0  0  0  0  0
  161.0020  202.3590  150.1130 N   0  0  0  0  0  0  0  0  0  0  0  0
  161.2640  202.8780  151.4250 C   0  0  0  0  0  0  0  0  0  0  0  0
  160.9570  204.2940  151.7190 C   0  0  0  0  0  0  0  0  0  0  0  0
  160.2400  203.1730  149.1780 C   0  0  0  0  0  2  0  0  0  0  0  0
  161.2100  200.8580  148.1990 C   0  0  0  0  0  1  0  0  0  0  0  0
  161.5960  201.1140  149.6460 C   0  0  0  0  0  2  0  0  0  0  0  0
  160.9990  204.7200  153.0920 N   0  0  0  0  0  2  0  0  0  0  0  0
  161.7070  205.8800  153.6160 C   0  0  0  0  0  2  0  0  0  0  0  0
  160.7210  207.0070  153.8920 C   0  0  0  0  0  2  0  0  0  0  0  0
  159.7390  208.3380  155.5800 F   0  0  0  0  0  0  0  0  0  0  0  0
  160.3830  206.2510  156.1250 F   0  0  0  0  0  0  0  0  0  0  0  0
  160.6970  207.3660  155.3700 C   0  0  0  0  0  0  0  0  0  0  0  0
  161.9300  207.8560  155.7600 F   0  0  0  0  0  0  0  0  0  0  0  0
  1  3  1  0  0  0  0
  1  2  1  1  0  0  0
  3  7  2  0  0  0  0
  4  8  1  0  0  0  0
  5  4  1  0  0  0  0
  6 10  1  0  0  0  0
  7  9  2  0  0  0  0
  8 13  1  0  0  0  0
  9  5  1  0  0  0  0
  9  6  1  0  0  0  0
 10  8  1  0  0  0  0
 12 13  2  0  0  0  0
 13 11  1  1  0  0  0
 14  3  1  0  0  0  0
 15 17  1  1  0  0  0
 15 18  1  0  0  0  0
 16 15  1  0  0  0  0
 16 18  1  0  0  0  0
 18 14  1  6  0  0  0
 19 24  1  0  0  0  0
 20 24  2  0  0  0  0
 20 16  1  0  0  0  0
 21 19  2  0  0  0  0
 22 20  1  0  0  0  0
 23 25  1  0  0  0  0
 25 22  2  0  0  0  0
 25 21  1  0  0  0  0
 26 27  2  0  0  0  0
 27  1  1  0  0  0  0
 28 31  1  0  0  0  0
 29 30  1  0  0  0  0
 30 31  1  0  0  0  0
 30 33  1  1  0  0  0
 31 27  1  6  0  0  0
 32 29  1  0  0  0  0
 32 28  1  0  0  0  0
 34 37  1  0  0  0  0
 34 40  2  0  0  0  0
 35 33  1  6  0  0  0
 35 34  1  0  0  0  0
 38 39  1  0  0  0  0
 39 40  1  0  0  0  0
 39 36  2  0  0  0  0
 40 44  1  0  0  0  0
 41 35  1  0  0  0  0
 41 38  1  0  0  0  0
 42 43  1  0  0  0  0
 43 38  1  0  0  0  0
 44 45  1  0  0  0  0
 45 46  1  0  0  0  0
 46 49  1  0  0  0  0
 49 47  1  0  0  0  0
 49 50  1  0  0  0  0
 49 48  1  0  0  0  0
M  END
>  <MODEL>
4

>  <REMARK>
 VINA RESULT:      -6.4      3.834      5.600
  Name = 
  14 active torsions:
  status: ('A' for Active; 'I' for Inactive)
    1  A    between atoms: C_6  and  C_47
    2  A    between atoms: C_8  and  N_34
    3  A    between atoms: C_8  and  C_46
    4  A    between atoms: N_13  and  C_19
    5  A    between atoms: C_14  and  C_22
    6  A    between atoms: C_14  and  C_50
    7  A    between atoms: N_16  and  C_17
    8  A    between atoms: N_16  and  C_22
    9  A    between atoms: C_29  and  C_47
   10  A    between atoms: S_32  and  N_42
   11  A    between atoms: N_33  and  C_40
   12  A    between atoms: N_34  and  C_39
   13  A    between atoms: C_35  and  C_46
   14  A    between atoms: C_36  and  C_50
                            x       y       z     vdW  Elec       q    Type
                         _______ _______ _______ _____ _____    ______ ____

>  <TORSDO>
F 14

$$$$
=
 OpenBabel11072410433D

 50 54  0  0  1  0  0  0  0  0999 V2000
  162.1700  209.9930  151.9470 C   0  0  1  0  0  3  0  0  0  0  0  0
  163.3860  210.4520  151.4300 O   0  0  0  0  0  1  0  0  0  0  0  0
  161.1050  211.0130  151.7120 C   0  0  0  0  0  0  0  0  0  0  0  0
  157.4230  212.5000  154.6380 C   0  0  0  0  0  2  0  0  0  0  0  0
  158.0720  211.6840  153.5240 C   0  0  0  0  0  2  0  0  0  0  0  0
  160.1140  211.9100  154.9650 O   0  0  0  0  0  0  0  0  0  0  0  0
  160.3290  211.3400  152.7090 C   0  0  0  0  0  0  0  0  0  0  0  0
  157.9580  212.0960  155.9390 N   0  0  0  0  0  0  0  0  0  0  0  0
  159.5570  211.6580  153.7080 C   0  0  0  0  0  0  0  0  0  0  0  0
  159.3520  212.5320  155.9970 C   0  0  0  0  0  2  0  0  0  0  0  0
  155.3990  213.0760  156.5990 C   0  0  0  0  0  1  0  0  0  0  0  0
  157.6060  214.4070  157.0980 O   0  0  0  0  0  0  0  0  0  0  0  0
  157.0950  212.9720  157.1970 S   0  0  2  0  0  0  0  0  0  0  0  0
  160.7720  211.4040  150.3760 N   0  0  0  0  0  2  0  0  0  0  0  0
  162.2180  211.5020  148.5810 C   0  0  1  0  0  3  0  0  0  0  0  0
  161.0800  212.3710  148.1630 N   0  0  0  0  0  0  0  0  0  0  0  0
  163.5150  212.1470  148.1410 C   0  0  0  0  0  1  0  0  0  0  0  0
  161.6130  212.2680  149.5550 C   0  0  1  0  0  3  0  0  0  0  0  0
  159.8740  214.4530  145.3190 C   0  0  0  0  0  3  0  0  0  0  0  0
  160.2220  212.9360  147.1770 C   0  0  0  0  0  0  0  0  0  0  0  0
  158.5400  214.0420  145.2340 C   0  0  0  0  0  3  0  0  0  0  0  0
  158.8910  212.5180  147.0850 C   0  0  0  0  0  3  0  0  0  0  0  0
  156.7560  212.6750  146.0320 F   0  0  0  0  0  0  0  0  0  0  0  0
  160.7150  213.8980  146.2870 C   0  0  0  0  0  3  0  0  0  0  0  0
  158.0490  213.0730  146.1150 C   0  0  0  0  0  0  0  0  0  0  0  0
  162.2670  208.2810  150.3160 O   0  0  0  0  0  0  0  0  0  0  0  0
  161.8120  208.6360  151.3950 C   0  0  0  0  0  0  0  0  0  0  0  0
  160.5860  208.2600  153.4590 N   0  0  0  0  0  2  0  0  0  0  0  0
  161.2510  206.2070  153.7840 N   0  0  0  0  0  2  0  0  0  0  0  0
  161.4230  206.3960  152.3620 C   0  0  2  0  0  3  0  0  0  0  0  0
  160.8440  207.7480  152.1280 C   0  0  2  0  0  3  0  0  0  0  0  0
  161.2610  207.4560  154.3330 O   0  0  0  0  0  0  0  0  0  0  0  0
  160.6450  205.3330  151.6050 C   0  0  0  0  0  2  0  0  0  0  0  0
  161.2010  203.5360  149.9270 C   0  0  0  0  0  0  0  0  0  0  0  0
  161.3320  205.0030  150.2850 C   0  0  1  0  0  3  0  0  0  0  0  0
  161.9880  203.7870  146.4460 O   0  0  0  0  0  0  0  0  0  0  0  0
  160.9390  202.6200  150.9390 O   0  0  0  0  0  1  0  0  0  0  0  0
  161.4050  205.5280  147.9020 N   0  0  0  0  0  0  0  0  0  0  0  0
  161.6100  204.1410  147.5960 C   0  0  0  0  0  0  0  0  0  0  0  0
  161.3910  203.1270  148.6490 C   0  0  0  0  0  0  0  0  0  0  0  0
  160.7760  205.8810  149.1660 C   0  0  0  0  0  2  0  0  0  0  0  0
  161.5200  207.9470  147.5940 C   0  0  0  0  0  1  0  0  0  0  0  0
  161.9340  206.5880  147.0560 C   0  0  0  0  0  2  0  0  0  0  0  0
  161.3650  201.7430  148.2570 N   0  0  0  0  0  2  0  0  0  0  0  0
  160.1810  200.9500  147.9610 C   0  0  0  0  0  2  0  0  0  0  0  0
  159.4810  201.5050  146.7280 C   0  0  0  0  0  2  0  0  0  0  0  0
  160.8160  202.2490  144.9250 F   0  0  0  0  0  0  0  0  0  0  0  0
  161.2010  200.1860  145.7400 F   0  0  0  0  0  0  0  0  0  0  0  0
  160.2220  201.1220  145.4560 C   0  0  0  0  0  0  0  0  0  0  0  0
  159.3370  200.5990  144.5310 F   0  0  0  0  0  0  0  0  0  0  0  0
  1  2  1  6  0  0  0
  3  1  1  0  0  0  0
  3  7  2  0  0  0  0
  4  8  1  0  0  0  0
  5  9  1  0  0  0  0
  5  4  1  0  0  0  0
  6 10  1  0  0  0  0
  7  9  2  0  0  0  0
  8 10  1  0  0  0  0
  8 13  1  0  0  0  0
  9  6  1  0  0  0  0
 12 13  2  0  0  0  0
 13 11  1  6  0  0  0
 14  3  1  0  0  0  0
 15 17  1  6  0  0  0
 15 18  1  0  0  0  0
 16 15  1  0  0  0  0
 16 18  1  0  0  0  0
 18 14  1  1  0  0  0
 19 24  1  0  0  0  0
 20 16  1  0  0  0  0
 21 19  2  0  0  0  0
 21 25  1  0  0  0  0
 22 20  1  0  0  0  0
 23 25  1  0  0  0  0
 24 20  2  0  0  0  0
 25 22  2  0  0  0  0
 26 27  2  0  0  0  0
 27  1  1  0  0  0  0
 28 32  1  0  0  0  0
 29 32  1  0  0  0  0
 30 33  1  6  0  0  0
 30 29  1  0  0  0  0
 31 27  1  1  0  0  0
 31 30  1  0  0  0  0
 31 28  1  0  0  0  0
 34 35  1  0  0  0  0
 34 37  1  0  0  0  0
 35 33  1  1  0  0  0
 36 39  2  0  0  0  0
 38 41  1  0  0  0  0
 39 38  1  0  0  0  0
 39 40  1  0  0  0  0
 40 34  2  0  0  0  0
 41 35  1  0  0  0  0
 43 42  1  0  0  0  0
 43 38  1  0  0  0  0
 44 40  1  0  0  0  0
 45 44  1  0  0  0  0
 46 45  1  0  0  0  0
 47 49  1  0  0  0  0
 49 48  1  0  0  0  0
 49 46  1  0  0  0  0
 50 49  1  0  0  0  0
M  END
>  <MODEL>
5

>  <REMARK>
 VINA RESULT:      -5.9      1.932      2.339
  Name = 
  14 active torsions:
  status: ('A' for Active; 'I' for Inactive)
    1  A    between atoms: C_6  and  C_47
    2  A    between atoms: C_8  and  N_34
    3  A    between atoms: C_8  and  C_46
    4  A    between atoms: N_13  and  C_19
    5  A    between atoms: C_14  and  C_22
    6  A    between atoms: C_14  and  C_50
    7  A    between atoms: N_16  and  C_17
    8  A    between atoms: N_16  and  C_22
    9  A    between atoms: C_29  and  C_47
   10  A    between atoms: S_32  and  N_42
   11  A    between atoms: N_33  and  C_40
   12  A    between atoms: N_34  and  C_39
   13  A    between atoms: C_35  and  C_46
   14  A    between atoms: C_36  and  C_50
                            x       y       z     vdW  Elec       q    Type
                         _______ _______ _______ _____ _____    ______ ____

>  <TORSDO>
F 14

$$$$
=
 OpenBabel11072410433D

 50 54  0  0  1  0  0  0  0  0999 V2000
  162.1000  207.7810  150.7450 C   0  0  1  0  0  3  0  0  0  0  0  0
  163.2960  207.0850  150.9420 O   0  0  0  0  0  1  0  0  0  0  0  0
  161.0750  207.3080  151.7220 C   0  0  0  0  0  0  0  0  0  0  0  0
  159.8470  209.0860  156.1560 C   0  0  0  0  0  2  0  0  0  0  0  0
  160.5700  208.1640  155.1780 C   0  0  0  0  0  2  0  0  0  0  0  0
  160.4370  210.1650  153.6700 O   0  0  0  0  0  0  0  0  0  0  0  0
  160.8310  208.0450  152.7710 C   0  0  0  0  0  0  0  0  0  0  0  0
  160.3440  210.4560  156.0240 N   0  0  0  0  0  0  0  0  0  0  0  0
  160.5970  208.7850  153.8160 C   0  0  0  0  0  0  0  0  0  0  0  0
  159.9020  210.9610  154.7260 C   0  0  0  0  0  2  0  0  0  0  0  0
  157.8460  211.5400  156.7500 C   0  0  0  0  0  1  0  0  0  0  0  0
  160.0990  212.8640  156.9960 O   0  0  0  0  0  0  0  0  0  0  0  0
  159.5750  211.4530  157.2510 S   0  0  2  0  0  0  0  0  0  0  0  0
  160.5850  205.9650  151.6510 N   0  0  0  0  0  2  0  0  0  0  0  0
  160.6190  203.7030  151.1940 C   0  0  1  0  0  3  0  0  0  0  0  0
  161.1350  204.3230  149.9390 N   0  0  0  0  0  0  0  0  0  0  0  0
  161.4150  202.4500  151.4860 C   0  0  0  0  0  1  0  0  0  0  0  0
  161.4220  204.8170  151.3200 C   0  0  1  0  0  3  0  0  0  0  0  0
  161.8040  205.5820  146.4980 C   0  0  0  0  0  3  0  0  0  0  0  0
  161.3040  204.3520  148.5260 C   0  0  0  0  0  0  0  0  0  0  0  0
  161.6440  204.4120  145.7490 C   0  0  0  0  0  3  0  0  0  0  0  0
  161.1540  203.1810  147.7770 C   0  0  0  0  0  3  0  0  0  0  0  0
  161.1660  202.0780  145.6630 F   0  0  0  0  0  0  0  0  0  0  0  0
  161.6370  205.5520  147.8850 C   0  0  0  0  0  3  0  0  0  0  0  0
  161.3210  203.2110  146.3890 C   0  0  0  0  0  0  0  0  0  0  0  0
  163.0390  209.7510  151.6590 O   0  0  0  0  0  0  0  0  0  0  0  0
  162.3130  209.2730  150.7970 C   0  0  0  0  0  0  0  0  0  0  0  0
  161.6750  209.6770  148.4880 N   0  0  0  0  0  2  0  0  0  0  0  0
  162.4320  211.7210  148.3660 N   0  0  0  0  0  2  0  0  0  0  0  0
  162.2230  211.5230  149.7810 C   0  0  2  0  0  3  0  0  0  0  0  0
  161.5830  210.1790  149.8450 C   0  0  2  0  0  3  0  0  0  0  0  0
  162.5670  210.4740  147.8280 O   0  0  0  0  0  0  0  0  0  0  0  0
  161.2910  212.5960  150.3180 C   0  0  0  0  0  2  0  0  0  0  0  0
  158.7920  212.9220  150.2670 C   0  0  0  0  0  0  0  0  0  0  0  0
  160.0470  212.7120  149.4440 C   0  0  1  0  0  3  0  0  0  0  0  0
  156.6730  214.1580  147.6630 O   0  0  0  0  0  0  0  0  0  0  0  0
  158.7940  212.5380  151.6040 O   0  0  0  0  0  1  0  0  0  0  0  0
  159.0090  213.9710  147.6280 N   0  0  0  0  0  0  0  0  0  0  0  0
  157.7350  213.8760  148.2830 C   0  0  0  0  0  0  0  0  0  0  0  0
  157.6750  213.4270  149.6900 C   0  0  0  0  0  0  0  0  0  0  0  0
  160.2180  213.8380  148.4270 C   0  0  0  0  0  2  0  0  0  0  0  0
  159.3260  212.6640  145.5910 C   0  0  0  0  0  1  0  0  0  0  0  0
  159.1240  214.0500  146.1790 C   0  0  0  0  0  2  0  0  0  0  0  0
  156.4270  213.5730  150.3910 N   0  0  0  0  0  2  0  0  0  0  0  0
  156.1800  214.4220  151.5480 C   0  0  0  0  0  2  0  0  0  0  0  0
  156.6730  213.7310  152.8120 C   0  0  0  0  0  2  0  0  0  0  0  0
  154.3320  213.6210  153.1260 F   0  0  0  0  0  0  0  0  0  0  0  0
  155.6250  212.2410  154.3470 F   0  0  0  0  0  0  0  0  0  0  0  0
  155.5340  213.5060  153.7950 C   0  0  0  0  0  0  0  0  0  0  0  0
  155.5830  214.4530  154.8020 F   0  0  0  0  0  0  0  0  0  0  0  0
  1 27  1  0  0  0  0
  1  2  1  1  0  0  0
  1  3  1  0  0  0  0
  3  7  2  0  0  0  0
  5  4  1  0  0  0  0
  6  9  1  0  0  0  0
  6 10  1  0  0  0  0
  7  9  2  0  0  0  0
  8  4  1  0  0  0  0
  8 13  1  0  0  0  0
  9  5  1  0  0  0  0
 10  8  1  0  0  0  0
 12 13  2  0  0  0  0
 13 11  1  6  0  0  0
 14  3  1  0  0  0  0
 15 18  1  0  0  0  0
 15 17  1  1  0  0  0
 16 15  1  0  0  0  0
 16 18  1  0  0  0  0
 18 14  1  6  0  0  0
 19 24  1  0  0  0  0
 20 16  1  0  0  0  0
 21 25  1  0  0  0  0
 21 19  2  0  0  0  0
 22 20  1  0  0  0  0
 23 25  1  0  0  0  0
 24 20  2  0  0  0  0
 25 22  2  0  0  0  0
 27 26  2  0  0  0  0
 28 31  1  0  0  0  0
 29 30  1  0  0  0  0
 30 31  1  0  0  0  0
 30 33  1  6  0  0  0
 31 27  1  1  0  0  0
 32 29  1  0  0  0  0
 32 28  1  0  0  0  0
 34 37  1  0  0  0  0
 35 34  1  0  0  0  0
 35 33  1  1  0  0  0
 36 39  2  0  0  0  0
 38 39  1  0  0  0  0
 38 41  1  0  0  0  0
 39 40  1  0  0  0  0
 40 34  2  0  0  0  0
 40 44  1  0  0  0  0
 41 35  1  0  0  0  0
 42 43  1  0  0  0  0
 43 38  1  0  0  0  0
 44 45  1  0  0  0  0
 45 46  1  0  0  0  0
 46 49  1  0  0  0  0
 47 49  1  0  0  0  0
 49 48  1  0  0  0  0
 49 50  1  0  0  0  0
M  END
>  <MODEL>
6

>  <REMARK>
 VINA RESULT:      -5.9      2.861      9.658
  Name = 
  14 active torsions:
  status: ('A' for Active; 'I' for Inactive)
    1  A    between atoms: C_6  and  C_47
    2  A    between atoms: C_8  and  N_34
    3  A    between atoms: C_8  and  C_46
    4  A    between atoms: N_13  and  C_19
    5  A    between atoms: C_14  and  C_22
    6  A    between atoms: C_14  and  C_50
    7  A    between atoms: N_16  and  C_17
    8  A    between atoms: N_16  and  C_22
    9  A    between atoms: C_29  and  C_47
   10  A    between atoms: S_32  and  N_42
   11  A    between atoms: N_33  and  C_40
   12  A    between atoms: N_34  and  C_39
   13  A    between atoms: C_35  and  C_46
   14  A    between atoms: C_36  and  C_50
                            x       y       z     vdW  Elec       q    Type
                         _______ _______ _______ _____ _____    ______ ____

>  <TORSDO>
F 14

$$$$
=
 OpenBabel11072410433D

 50 54  0  0  1  0  0  0  0  0999 V2000
  161.6560  210.4900  153.7800 C   0  0  1  0  0  3  0  0  0  0  0  0
  162.6190  210.4450  152.7680 O   0  0  0  0  0  1  0  0  0  0  0  0
  160.4220  211.1620  153.2740 C   0  0  0  0  0  0  0  0  0  0  0  0
  159.8080  214.2300  149.4620 C   0  0  0  0  0  2  0  0  0  0  0  0
  160.0250  213.8550  150.9240 C   0  0  0  0  0  2  0  0  0  0  0  0
  161.2130  211.8830  149.9240 O   0  0  0  0  0  0  0  0  0  0  0  0
  160.4900  211.8130  152.1450 C   0  0  0  0  0  0  0  0  0  0  0  0
  160.9880  213.8860  148.6680 N   0  0  0  0  0  0  0  0  0  0  0  0
  160.5660  212.4630  151.0200 C   0  0  0  0  0  0  0  0  0  0  0  0
  161.0710  212.4270  148.6130 C   0  0  0  0  0  2  0  0  0  0  0  0
  159.6710  213.2050  146.2710 C   0  0  0  0  0  1  0  0  0  0  0  0
  162.0850  214.2360  146.3270 O   0  0  0  0  0  0  0  0  0  0  0  0
  160.7410  214.4470  147.0200 S   0  0  2  0  0  0  0  0  0  0  0  0
  159.2900  211.3190  154.1340 N   0  0  0  0  0  2  0  0  0  0  0  0
  159.3760  213.2620  155.3770 C   0  0  1  0  0  3  0  0  0  0  0  0
  158.1100  212.6140  155.8260 N   0  0  0  0  0  0  0  0  0  0  0  0
  160.0710  213.8670  156.5780 C   0  0  0  0  0  1  0  0  0  0  0  0
  159.3680  211.8860  155.4760 C   0  0  1  0  0  3  0  0  0  0  0  0
  154.8430  213.9510  157.0180 C   0  0  0  0  0  3  0  0  0  0  0  0
  156.7730  212.6640  156.3120 C   0  0  0  0  0  0  0  0  0  0  0  0
  154.1420  212.7650  157.2600 C   0  0  0  0  0  3  0  0  0  0  0  0
  156.0670  211.4790  156.5450 C   0  0  0  0  0  3  0  0  0  0  0  0
  154.0730  210.3820  157.2570 F   0  0  0  0  0  0  0  0  0  0  0  0
  156.1570  213.9000  156.5410 C   0  0  0  0  0  3  0  0  0  0  0  0
  154.7530  211.5300  157.0220 C   0  0  0  0  0  0  0  0  0  0  0  0
  161.5970  208.8990  155.5320 O   0  0  0  0  0  0  0  0  0  0  0  0
  161.3840  209.1180  154.3460 C   0  0  0  0  0  0  0  0  0  0  0  0
  159.9190  207.1940  154.1120 N   0  0  0  0  0  2  0  0  0  0  0  0
  161.4600  205.7680  153.5150 N   0  0  0  0  0  2  0  0  0  0  0  0
  162.0300  207.0480  153.1640 C   0  0  2  0  0  3  0  0  0  0  0  0
  160.9240  208.0020  153.4490 C   0  0  2  0  0  3  0  0  0  0  0  0
  160.5250  206.0250  154.4750 O   0  0  0  0  0  0  0  0  0  0  0  0
  162.3930  207.0600  151.6890 C   0  0  0  0  0  2  0  0  0  0  0  0
  161.1980  206.6100  149.5160 C   0  0  0  0  0  0  0  0  0  0  0  0
  161.5040  206.0990  150.9090 C   0  0  1  0  0  3  0  0  0  0  0  0
  160.1310  203.5220  148.0590 O   0  0  0  0  0  0  0  0  0  0  0  0
  161.3160  207.9720  149.2600 O   0  0  0  0  0  1  0  0  0  0  0  0
  161.3130  203.8170  150.0610 N   0  0  0  0  0  0  0  0  0  0  0  0
  160.7140  204.3100  148.8530 C   0  0  0  0  0  0  0  0  0  0  0  0
  160.7680  205.7570  148.5550 C   0  0  0  0  0  0  0  0  0  0  0  0
  162.1470  204.7160  150.8450 C   0  0  0  0  0  2  0  0  0  0  0  0
  160.8170  202.5730  152.1010 C   0  0  0  0  0  1  0  0  0  0  0  0
  160.9960  202.5010  150.5950 C   0  0  0  0  0  2  0  0  0  0  0  0
  160.3810  206.1880  147.2390 N   0  0  0  0  0  2  0  0  0  0  0  0
  160.8590  205.6450  145.9750 C   0  0  0  0  0  2  0  0  0  0  0  0
  162.3640  205.8490  145.8610 C   0  0  0  0  0  2  0  0  0  0  0  0
  162.5380  203.5750  145.2400 F   0  0  0  0  0  0  0  0  0  0  0  0
  164.4390  204.6940  145.6890 F   0  0  0  0  0  0  0  0  0  0  0  0
  163.1120  204.5380  146.0460 C   0  0  0  0  0  0  0  0  0  0  0  0
  163.0330  204.1280  147.3650 F   0  0  0  0  0  0  0  0  0  0  0  0
  1  2  1  6  0  0  0
  1 27  1  0  0  0  0
  3  1  1  0  0  0  0
  3 14  1  0  0  0  0
  4  5  1  0  0  0  0
  5  9  1  0  0  0  0
  6  9  1  0  0  0  0
  7  3  2  0  0  0  0
  8  4  1  0  0  0  0
  9  7  2  0  0  0  0
 10  8  1  0  0  0  0
 10  6  1  0  0  0  0
 12 13  2  0  0  0  0
 13 11  1  6  0  0  0
 13  8  1  0  0  0  0
 15 18  1  0  0  0  0
 15 16  1  0  0  0  0
 15 17  1  1  0  0  0
 16 20  1  0  0  0  0
 18 14  1  6  0  0  0
 18 16  1  0  0  0  0
 19 21  1  0  0  0  0
 20 24  1  0  0  0  0
 20 22  2  0  0  0  0
 22 25  1  0  0  0  0
 24 19  2  0  0  0  0
 25 23  1  0  0  0  0
 25 21  2  0  0  0  0
 27 26  2  0  0  0  0
 28 32  1  0  0  0  0
 29 32  1  0  0  0  0
 30 33  1  6  0  0  0
 30 31  1  0  0  0  0
 30 29  1  0  0  0  0
 31 28  1  0  0  0  0
 31 27  1  1  0  0  0
 34 35  1  0  0  0  0
 35 33  1  6  0  0  0
 36 39  2  0  0  0  0
 37 34  1  0  0  0  0
 38 43  1  0  0  0  0
 38 41  1  0  0  0  0
 39 38  1  0  0  0  0
 40 39  1  0  0  0  0
 40 34  2  0  0  0  0
 41 35  1  0  0  0  0
 43 42  1  0  0  0  0
 44 40  1  0  0  0  0
 45 44  1  0  0  0  0
 46 45  1  0  0  0  0
 46 49  1  0  0  0  0
 47 49  1  0  0  0  0
 48 49  1  0  0  0  0
 49 50  1  0  0  0  0
M  END
>  <MODEL>
7

>  <REMARK>
 VINA RESULT:      -5.7      3.494      6.563
  Name = 
  14 active torsions:
  status: ('A' for Active; 'I' for Inactive)
    1  A    between atoms: C_6  and  C_47
    2  A    between atoms: C_8  and  N_34
    3  A    between atoms: C_8  and  C_46
    4  A    between atoms: N_13  and  C_19
    5  A    between atoms: C_14  and  C_22
    6  A    between atoms: C_14  and  C_50
    7  A    between atoms: N_16  and  C_17
    8  A    between atoms: N_16  and  C_22
    9  A    between atoms: C_29  and  C_47
   10  A    between atoms: S_32  and  N_42
   11  A    between atoms: N_33  and  C_40
   12  A    between atoms: N_34  and  C_39
   13  A    between atoms: C_35  and  C_46
   14  A    between atoms: C_36  and  C_50
                            x       y       z     vdW  Elec       q    Type
                         _______ _______ _______ _____ _____    ______ ____

>  <TORSDO>
F 14

$$$$
=
 OpenBabel11072410433D

 50 54  0  0  1  0  0  0  0  0999 V2000
  162.0560  210.0850  152.2870 C   0  0  1  0  0  3  0  0  0  0  0  0
  162.6380  209.4320  151.1960 O   0  0  0  0  0  1  0  0  0  0  0  0
  160.9520  210.9710  151.8140 C   0  0  0  0  0  0  0  0  0  0  0  0
  160.8310  214.1830  148.0720 C   0  0  0  0  0  2  0  0  0  0  0  0
  160.9990  213.7430  149.5230 C   0  0  0  0  0  2  0  0  0  0  0  0
  161.8140  211.6180  148.4660 O   0  0  0  0  0  0  0  0  0  0  0  0
  161.1170  211.6250  150.6960 C   0  0  0  0  0  0  0  0  0  0  0  0
  161.9240  213.6560  147.2530 N   0  0  0  0  0  0  0  0  0  0  0  0
  161.2910  212.2770  149.5830 C   0  0  0  0  0  0  0  0  0  0  0  0
  161.7520  212.2070  147.1680 C   0  0  0  0  0  2  0  0  0  0  0  0
  160.1460  213.7010  145.0670 C   0  0  0  0  0  1  0  0  0  0  0  0
  162.7460  213.4800  144.7830 O   0  0  0  0  0  0  0  0  0  0  0  0
  161.7570  214.2870  145.6200 S   0  0  2  0  0  0  0  0  0  0  0  0
  159.8750  211.3030  152.6950 N   0  0  0  0  0  2  0  0  0  0  0  0
  158.2570  212.8270  152.0730 C   0  0  1  0  0  3  0  0  0  0  0  0
  158.0280  212.6490  153.5360 N   0  0  0  0  0  0  0  0  0  0  0  0
  158.0820  214.2890  151.7240 C   0  0  0  0  0  1  0  0  0  0  0  0
  159.3670  212.6590  152.8740 C   0  0  1  0  0  3  0  0  0  0  0  0
  156.2810  213.6750  156.6630 C   0  0  0  0  0  3  0  0  0  0  0  0
  157.1860  212.6070  154.6840 C   0  0  0  0  0  0  0  0  0  0  0  0
  155.5260  212.5290  156.9350 C   0  0  0  0  0  3  0  0  0  0  0  0
  156.4230  211.4660  154.9520 C   0  0  0  0  0  3  0  0  0  0  0  0
  154.8640  210.3170  156.3440 F   0  0  0  0  0  0  0  0  0  0  0  0
  157.1080  213.7150  155.5360 C   0  0  0  0  0  3  0  0  0  0  0  0
  155.5960  211.4260  156.0780 C   0  0  0  0  0  0  0  0  0  0  0  0
  161.9780  209.2520  154.5010 O   0  0  0  0  0  0  0  0  0  0  0  0
  161.6090  209.1050  153.3430 C   0  0  0  0  0  0  0  0  0  0  0  0
  160.8350  206.8990  154.0040 N   0  0  0  0  0  2  0  0  0  0  0  0
  161.4390  205.8580  152.1820 N   0  0  0  0  0  2  0  0  0  0  0  0
  161.3120  207.2330  151.7590 C   0  0  2  0  0  3  0  0  0  0  0  0
  160.7720  207.9130  152.9690 C   0  0  2  0  0  3  0  0  0  0  0  0
  161.6360  205.8980  153.5320 O   0  0  0  0  0  0  0  0  0  0  0  0
  160.3320  207.3250  150.6010 C   0  0  0  0  0  2  0  0  0  0  0  0
  161.3960  206.3670  148.5260 C   0  0  0  0  0  0  0  0  0  0  0  0
  160.4610  206.1090  149.6910 C   0  0  1  0  0  3  0  0  0  0  0  0
  162.0190  202.9670  147.6050 O   0  0  0  0  0  0  0  0  0  0  0  0
  161.6390  207.6810  148.1400 O   0  0  0  0  0  1  0  0  0  0  0  0
  161.0900  203.7510  149.6090 N   0  0  0  0  0  0  0  0  0  0  0  0
  161.7010  203.9530  148.3250 C   0  0  0  0  0  0  0  0  0  0  0  0
  161.9400  205.3300  147.8450 C   0  0  0  0  0  0  0  0  0  0  0  0
  160.9260  204.8950  150.4930 C   0  0  0  0  0  2  0  0  0  0  0  0
  160.6530  202.2510  151.4830 C   0  0  0  0  0  1  0  0  0  0  0  0
  160.5030  202.4740  149.9880 C   0  0  0  0  0  2  0  0  0  0  0  0
  162.7650  205.5030  146.6800 N   0  0  0  0  0  2  0  0  0  0  0  0
  162.3110  205.8670  145.3450 C   0  0  0  0  0  2  0  0  0  0  0  0
  161.9870  204.6110  144.5490 C   0  0  0  0  0  2  0  0  0  0  0  0
  160.3670  203.0220  145.2130 F   0  0  0  0  0  0  0  0  0  0  0  0
  159.8500  205.2040  145.4180 F   0  0  0  0  0  0  0  0  0  0  0  0
  160.5070  204.2700  144.6380 C   0  0  0  0  0  0  0  0  0  0  0  0
  159.9480  204.2490  143.3730 F   0  0  0  0  0  0  0  0  0  0  0  0
  1  2  1  6  0  0  0
  1 27  1  0  0  0  0
  3  1  1  0  0  0  0
  3 14  1  0  0  0  0
  4  5  1  0  0  0  0
  5  9  1  0  0  0  0
  6  9  1  0  0  0  0
  7  3  2  0  0  0  0
  8  4  1  0  0  0  0
  9  7  2  0  0  0  0
 10  8  1  0  0  0  0
 10  6  1  0  0  0  0
 12 13  2  0  0  0  0
 13 11  1  6  0  0  0
 13  8  1  0  0  0  0
 15 17  1  1  0  0  0
 15 18  1  0  0  0  0
 15 16  1  0  0  0  0
 16 20  1  0  0  0  0
 18 14  1  6  0  0  0
 18 16  1  0  0  0  0
 19 21  1  0  0  0  0
 20 22  2  0  0  0  0
 20 24  1  0  0  0  0
 22 25  1  0  0  0  0
 24 19  2  0  0  0  0
 25 23  1  0  0  0  0
 25 21  2  0  0  0  0
 27 26  2  0  0  0  0
 29 32  1  0  0  0  0
 30 33  1  6  0  0  0
 30 29  1  0  0  0  0
 30 31  1  0  0  0  0
 31 27  1  1  0  0  0
 31 28  1  0  0  0  0
 32 28  1  0  0  0  0
 34 35  1  0  0  0  0
 35 41  1  0  0  0  0
 35 33  1  1  0  0  0
 36 39  2  0  0  0  0
 37 34  1  0  0  0  0
 38 43  1  0  0  0  0
 38 41  1  0  0  0  0
 39 38  1  0  0  0  0
 40 39  1  0  0  0  0
 40 34  2  0  0  0  0
 43 42  1  0  0  0  0
 44 40  1  0  0  0  0
 45 44  1  0  0  0  0
 46 49  1  0  0  0  0
 46 45  1  0  0  0  0
 49 47  1  0  0  0  0
 49 48  1  0  0  0  0
 50 49  1  0  0  0  0
M  END
>  <MODEL>
8

>  <REMARK>
 VINA RESULT:      -5.3      3.455      6.156
  Name = 
  14 active torsions:
  status: ('A' for Active; 'I' for Inactive)
    1  A    between atoms: C_6  and  C_47
    2  A    between atoms: C_8  and  N_34
    3  A    between atoms: C_8  and  C_46
    4  A    between atoms: N_13  and  C_19
    5  A    between atoms: C_14  and  C_22
    6  A    between atoms: C_14  and  C_50
    7  A    between atoms: N_16  and  C_17
    8  A    between atoms: N_16  and  C_22
    9  A    between atoms: C_29  and  C_47
   10  A    between atoms: S_32  and  N_42
   11  A    between atoms: N_33  and  C_40
   12  A    between atoms: N_34  and  C_39
   13  A    between atoms: C_35  and  C_46
   14  A    between atoms: C_36  and  C_50
                            x       y       z     vdW  Elec       q    Type
                         _______ _______ _______ _____ _____    ______ ____

>  <TORSDO>
F 14

$$$$
=
 OpenBabel11072410433D

 50 54  0  0  1  0  0  0  0  0999 V2000
  161.4700  207.8640  148.4420 C   0  0  1  0  0  3  0  0  0  0  0  0
  160.5800  207.1910  149.2840 O   0  0  0  0  0  1  0  0  0  0  0  0
  161.8920  209.1480  149.0760 C   0  0  0  0  0  0  0  0  0  0  0  0
  160.8720  210.9760  153.5420 C   0  0  0  0  0  2  0  0  0  0  0  0
  160.6910  210.7960  152.0380 C   0  0  0  0  0  2  0  0  0  0  0  0
  161.5670  208.4940  152.5160 O   0  0  0  0  0  0  0  0  0  0  0  0
  161.6150  209.3370  150.3380 C   0  0  0  0  0  0  0  0  0  0  0  0
  160.5240  209.7410  154.2460 N   0  0  0  0  0  0  0  0  0  0  0  0
  161.3320  209.5190  151.5950 C   0  0  0  0  0  0  0  0  0  0  0  0
  161.5440  208.7460  153.9200 C   0  0  0  0  0  2  0  0  0  0  0  0
  160.7260  211.8240  156.1330 C   0  0  0  0  0  1  0  0  0  0  0  0
  162.0230  209.5550  156.3730 O   0  0  0  0  0  0  0  0  0  0  0  0
  160.6280  210.0320  155.9770 S   0  0  2  0  0  0  0  0  0  0  0  0
  162.3310  210.2390  148.2600 N   0  0  0  0  0  2  0  0  0  0  0  0
  162.6080  212.4260  147.5780 C   0  0  1  0  0  3  0  0  0  0  0  0
  161.1290  212.2380  147.5620 N   0  0  0  0  0  0  0  0  0  0  0  0
  162.9230  213.8030  148.1230 C   0  0  0  0  0  1  0  0  0  0  0  0
  162.0570  211.6380  148.5680 C   0  0  1  0  0  3  0  0  0  0  0  0
  158.2880  212.5800  145.1760 C   0  0  0  0  0  3  0  0  0  0  0  0
  159.8300  212.5100  147.0450 C   0  0  0  0  0  0  0  0  0  0  0  0
  157.2770  213.0350  146.0290 C   0  0  0  0  0  3  0  0  0  0  0  0
  158.8160  212.9560  147.8980 C   0  0  0  0  0  3  0  0  0  0  0  0
  156.5600  213.6630  148.2140 F   0  0  0  0  0  0  0  0  0  0  0  0
  159.5630  212.3140  145.6850 C   0  0  0  0  0  3  0  0  0  0  0  0
  157.5400  213.2210  147.3900 C   0  0  0  0  0  0  0  0  0  0  0  0
  163.7740  207.3330  148.3550 O   0  0  0  0  0  0  0  0  0  0  0  0
  162.6370  206.9900  148.0580 C   0  0  0  0  0  0  0  0  0  0  0  0
  163.4790  205.5670  146.2780 N   0  0  0  0  0  2  0  0  0  0  0  0
  161.6420  205.5130  145.1000 N   0  0  0  0  0  2  0  0  0  0  0  0
  161.1810  205.8360  146.4310 C   0  0  2  0  0  3  0  0  0  0  0  0
  162.4190  205.7390  147.2520 C   0  0  2  0  0  3  0  0  0  0  0  0
  162.9540  205.8850  145.0580 O   0  0  0  0  0  0  0  0  0  0  0  0
  160.1500  204.8130  146.8790 C   0  0  0  0  0  2  0  0  0  0  0  0
  160.6870  203.4360  148.9200 C   0  0  0  0  0  0  0  0  0  0  0  0
  160.8340  203.5620  147.4160 C   0  0  1  0  0  3  0  0  0  0  0  0
  161.4790  199.9600  149.2220 O   0  0  0  0  0  0  0  0  0  0  0  0
  160.4140  204.5780  149.6650 O   0  0  0  0  0  1  0  0  0  0  0  0
  160.9140  201.1260  147.2690 N   0  0  0  0  0  0  0  0  0  0  0  0
  161.1040  201.0410  148.6890 C   0  0  0  0  0  0  0  0  0  0  0  0
  160.8730  202.2380  149.5250 C   0  0  0  0  0  0  0  0  0  0  0  0
  160.2880  202.3190  146.7180 C   0  0  0  0  0  2  0  0  0  0  0  0
  160.4540  199.8180  145.2610 C   0  0  0  0  0  1  0  0  0  0  0  0
  161.4560  200.1270  146.3590 C   0  0  0  0  0  2  0  0  0  0  0  0
  160.8320  202.0650  150.9520 N   0  0  0  0  0  2  0  0  0  0  0  0
  161.6440  202.7730  151.9320 C   0  0  0  0  0  2  0  0  0  0  0  0
  160.7730  203.7330  152.7300 C   0  0  0  0  0  2  0  0  0  0  0  0
  161.6150  205.5200  154.0280 F   0  0  0  0  0  0  0  0  0  0  0  0
  162.5360  205.1610  152.0060 F   0  0  0  0  0  0  0  0  0  0  0  0
  161.3560  205.1370  152.7270 C   0  0  0  0  0  0  0  0  0  0  0  0
  160.4550  206.0240  152.1670 F   0  0  0  0  0  0  0  0  0  0  0  0
  1  3  1  0  0  0  0
  1  2  1  1  0  0  0
  3  7  2  0  0  0  0
  4  8  1  0  0  0  0
  5  4  1  0  0  0  0
  6 10  1  0  0  0  0
  7  9  2  0  0  0  0
  8 13  1  0  0  0  0
  9  5  1  0  0  0  0
  9  6  1  0  0  0  0
 10  8  1  0  0  0  0
 13 11  1  6  0  0  0
 13 12  2  0  0  0  0
 14  3  1  0  0  0  0
 15 17  1  1  0  0  0
 15 18  1  0  0  0  0
 16 15  1  0  0  0  0
 16 18  1  0  0  0  0
 18 14  1  6  0  0  0
 19 24  2  0  0  0  0
 19 21  1  0  0  0  0
 20 16  1  0  0  0  0
 20 22  2  0  0  0  0
 21 25  2  0  0  0  0
 24 20  1  0  0  0  0
 25 22  1  0  0  0  0
 25 23  1  0  0  0  0
 27 26  2  0  0  0  0
 27  1  1  0  0  0  0
 28 31  1  0  0  0  0
 29 30  1  0  0  0  0
 30 33  1  1  0  0  0
 30 31  1  0  0  0  0
 31 27  1  6  0  0  0
 32 29  1  0  0  0  0
 32 28  1  0  0  0  0
 34 40  2  0  0  0  0
 34 37  1  0  0  0  0
 35 33  1  6  0  0  0
 35 34  1  0  0  0  0
 38 39  1  0  0  0  0
 39 36  2  0  0  0  0
 39 40  1  0  0  0  0
 40 44  1  0  0  0  0
 41 38  1  0  0  0  0
 41 35  1  0  0  0  0
 42 43  1  0  0  0  0
 43 38  1  0  0  0  0
 44 45  1  0  0  0  0
 45 46  1  0  0  0  0
 48 49  1  0  0  0  0
 49 46  1  0  0  0  0
 49 47  1  0  0  0  0
 50 49  1  0  0  0  0
M  END
>  <MODEL>
9

>  <REMARK>
 VINA RESULT:      -5.3      2.941      4.580
  Name = 
  14 active torsions:
  status: ('A' for Active; 'I' for Inactive)
    1  A    between atoms: C_6  and  C_47
    2  A    between atoms: C_8  and  N_34
    3  A    between atoms: C_8  and  C_46
    4  A    between atoms: N_13  and  C_19
    5  A    between atoms: C_14  and  C_22
    6  A    between atoms: C_14  and  C_50
    7  A    between atoms: N_16  and  C_17
    8  A    between atoms: N_16  and  C_22
    9  A    between atoms: C_29  and  C_47
   10  A    between atoms: S_32  and  N_42
   11  A    between atoms: N_33  and  C_40
   12  A    between atoms: N_34  and  C_39
   13  A    between atoms: C_35  and  C_46
   14  A    between atoms: C_36  and  C_50
                            x       y       z     vdW  Elec       q    Type
                         _______ _______ _______ _____ _____    ______ ____

>  <TORSDO>
F 14

$$$$
