=
 OpenBabel11072411593D

 45 48  0  0  1  0  0  0  0  0999 V2000
  162.2210  210.2900  149.6980 C   0  0  0  0  0  2  0  0  0  0  0  0
  162.3540  208.9900  150.4810 C   0  0  1  0  0  3  0  0  0  0  0  0
  161.5540  206.3680  151.3920 C   0  0  2  0  0  3  0  0  0  0  0  0
  161.2050  208.8360  151.4800 C   0  0  0  0  0  2  0  0  0  0  0  0
  160.3420  207.4200  153.1660 F   0  0  0  0  0  0  0  0  0  0  0  0
  162.4810  207.8210  149.5880 N   0  0  0  0  0  0  0  0  0  0  0  0
  162.6890  206.6040  150.3850 C   0  0  0  0  0  2  0  0  0  0  0  0
  161.4190  207.5800  152.3120 C   0  0  1  0  0  3  0  0  0  0  0  0
  161.8710  202.6590  151.8550 O   0  0  0  0  0  1  0  0  0  0  0  0
  160.5350  204.4950  152.7120 C   0  0  0  0  0  2  0  0  0  0  0  0
  161.2280  203.8540  151.5360 C   0  0  1  0  0  0  0  0  0  0  0  0
  161.8400  205.0930  152.1800 C   0  0  1  0  0  3  0  0  0  0  0  0
  160.5160  203.9490  150.1890 C   0  0  0  0  0  2  0  0  0  0  0  0
  161.2530  203.1510  149.1260 C   0  0  0  0  0  2  0  0  0  0  0  0
  160.5000  201.8630  148.8630 C   0  0  0  0  0  2  0  0  0  0  0  0
  160.8520  201.9240  146.3980 O   0  0  0  0  0  0  0  0  0  0  0  0
  160.9820  201.2440  147.5990 C   0  0  0  0  0  0  0  0  0  0  0  0
  161.4930  200.0960  147.6170 O   0  0  0  0  0  1  0  0  0  0  0  0
  161.2880  207.6480  148.7560 C   0  0  0  0  0  2  0  0  0  0  0  0
  161.6950  207.4440  147.3060 C   0  0  0  0  0  2  0  0  0  0  0  0
  162.4220  205.2670  146.2850 C   0  0  0  0  0  1  0  0  0  0  0  0
  161.2440  206.0880  146.7730 C   0  0  2  0  0  3  0  0  0  0  0  0
  160.3150  206.2540  145.7450 O   0  0  0  0  0  1  0  0  0  0  0  0
  160.9680  211.0460  150.1050 C   0  0  0  0  0  2  0  0  0  0  0  0
  161.1050  212.4110  149.8300 O   0  0  0  0  0  0  0  0  0  0  0  0
  158.5520  214.4530  151.0270 N   0  0  0  0  0  2  0  0  0  0  0  0
  158.3110  211.3540  152.5880 O   0  0  0  0  0  1  0  0  0  0  0  0
  158.9680  213.2530  150.4330 N   0  0  0  0  0  0  0  0  0  0  0  0
  160.5020  212.2590  152.1360 C   0  0  0  0  0  2  0  0  0  0  0  0
  158.9120  213.4580  149.0930 O   0  0  0  0  0  1  0  0  0  0  0  0
  159.2810  212.2410  153.0650 C   0  0  1  0  0  3  0  0  0  0  0  0
  157.7790  214.1230  152.2150 C   0  0  0  0  0  2  0  0  0  0  0  0
  160.3710  213.0610  150.8290 C   0  0  1  0  0  3  0  0  0  0  0  0
  158.6970  213.6330  153.3370 C   0  0  1  0  0  3  0  0  0  0  0  0
  155.8680  214.4400  153.7340 O   0  0  0  0  0  1  0  0  0  0  0  0
  154.8330  214.3910  156.5720 C   0  0  0  0  0  1  0  0  0  0  0  0
  156.6650  214.0660  154.8080 C   0  0  0  0  0  0  0  0  0  0  0  0
  158.0020  213.6700  154.6680 C   0  0  0  0  0  0  0  0  0  0  0  0
  156.2100  214.0510  156.1200 C   0  0  0  0  0  0  0  0  0  0  0  0
  158.5940  213.3520  155.8920 C   0  0  0  0  0  0  0  0  0  0  0  0
  157.4610  213.5520  157.1280 S   0  0  0  0  0  0  0  0  0  0  0  0
  159.9080  212.9170  156.0500 O   0  0  0  0  0  0  0  0  0  0  0  0
  160.3010  212.0830  157.1320 C   0  0  0  0  0  2  0  0  0  0  0  0
  160.7920  210.0890  155.7240 C   0  0  0  0  0  1  0  0  0  0  0  0
  161.3760  211.1160  156.6760 C   0  0  0  0  0  2  0  0  0  0  0  0
  1 24  1  0  0  0  0
  2  1  1  6  0  0  0
  2  4  1  0  0  0  0
  3  7  1  6  0  0  0
  3 12  1  0  0  0  0
  3  8  1  0  0  0  0
  4  8  1  0  0  0  0
  6  7  1  0  0  0  0
  6  2  1  0  0  0  0
  8  5  1  1  0  0  0
 11  9  1  1  0  0  0
 11 12  1  0  0  0  0
 11 10  1  0  0  0  0
 12 10  1  1  0  0  0
 13 11  1  0  0  0  0
 14 13  1  0  0  0  0
 15 14  1  0  0  0  0
 16 17  2  0  0  0  0
 17 18  1  0  0  0  0
 17 15  1  0  0  0  0
 19  6  1  0  0  0  0
 20 19  1  0  0  0  0
 22 21  1  6  0  0  0
 22 20  1  0  0  0  0
 23 22  1  0  0  0  0
 25 24  1  0  0  0  0
 26 32  1  0  0  0  0
 28 33  1  0  0  0  0
 28 26  1  0  0  0  0
 29 31  1  0  0  0  0
 30 28  1  0  0  0  0
 31 27  1  6  0  0  0
 31 34  1  0  0  0  0
 32 34  1  0  0  0  0
 33 25  1  6  0  0  0
 33 29  1  0  0  0  0
 34 38  1  1  0  0  0
 35 37  1  0  0  0  0
 37 39  2  0  0  0  0
 38 37  1  0  0  0  0
 38 40  2  0  0  0  0
 39 36  1  0  0  0  0
 39 41  1  0  0  0  0
 40 42  1  0  0  0  0
 40 41  1  0  0  0  0
 42 43  1  0  0  0  0
 44 45  1  0  0  0  0
 45 43  1  0  0  0  0
M  END
>  <MODEL>
1

>  <REMARK>
 VINA RESULT:      -6.0      0.000      0.000
  Name = 
  16 active torsions:
  status: ('A' for Active; 'I' for Inactive)
    1  A    between atoms: C_5  and  O_22
    2  A    between atoms: C_5  and  C_36
    3  A    between atoms: C_6  and  C_16
    4  A    between atoms: C_6  and  N_32
    5  A    between atoms: C_8  and  C_12
    6  A    between atoms: C_8  and  C_35
    7  A    between atoms: C_10  and  C_41
    8  A    between atoms: C_12  and  C_17
    9  A    between atoms: C_13  and  C_16
   10  A    between atoms: C_14  and  C_18
   11  A    between atoms: C_21  and  C_45
   12  A    between atoms: O_22  and  C_29
   13  A    between atoms: C_25  and  C_35
   14  A    between atoms: O_38  and  C_43
   15  A    between atoms: O_38  and  C_44
   16  A    between atoms: C_41  and  C_43
                            x       y       z     vdW  Elec       q    Type
                         _______ _______ _______ _____ _____    ______ ____

>  <TORSDO>
F 16

$$$$
=
 OpenBabel11072411593D

 45 48  0  0  1  0  0  0  0  0999 V2000
  161.7860  206.7990  152.5440 C   0  0  0  0  0  2  0  0  0  0  0  0
  161.8370  205.3800  151.9910 C   0  0  1  0  0  3  0  0  0  0  0  0
  160.8030  203.0260  150.6740 C   0  0  2  0  0  3  0  0  0  0  0  0
  160.8190  204.4830  152.6990 C   0  0  0  0  0  2  0  0  0  0  0  0
  159.9960  202.2690  152.7950 F   0  0  0  0  0  0  0  0  0  0  0  0
  161.6800  205.3570  150.5230 N   0  0  0  0  0  0  0  0  0  0  0  0
  161.8180  203.9800  150.0290 C   0  0  0  0  0  2  0  0  0  0  0  0
  160.9620  203.0540  152.1940 C   0  0  1  0  0  3  0  0  0  0  0  0
  161.7110  200.5190  148.0350 O   0  0  0  0  0  1  0  0  0  0  0  0
  159.7680  201.1760  149.3350 C   0  0  0  0  0  2  0  0  0  0  0  0
  161.0130  201.5910  148.5900 C   0  0  1  0  0  0  0  0  0  0  0  0
  161.0080  201.6210  150.1140 C   0  0  1  0  0  3  0  0  0  0  0  0
  160.9270  202.8860  147.7860 C   0  0  0  0  0  2  0  0  0  0  0  0
  161.0330  202.6090  146.2960 C   0  0  0  0  0  2  0  0  0  0  0  0
  161.7700  203.7530  145.6310 C   0  0  0  0  0  2  0  0  0  0  0  0
  159.7600  203.7930  144.1600 O   0  0  0  0  0  0  0  0  0  0  0  0
  160.8690  204.4480  144.6730 C   0  0  0  0  0  0  0  0  0  0  0  0
  161.1220  205.6260  144.3150 O   0  0  0  0  0  1  0  0  0  0  0  0
  160.3760  205.8820  150.1130 C   0  0  0  0  0  2  0  0  0  0  0  0
  160.5580  206.9220  149.0190 C   0  0  0  0  0  2  0  0  0  0  0  0
  162.3520  208.6400  148.6520 C   0  0  0  0  0  1  0  0  0  0  0  0
  162.0300  207.1600  148.7000 C   0  0  2  0  0  3  0  0  0  0  0  0
  162.3710  206.5540  147.4900 O   0  0  0  0  0  1  0  0  0  0  0  0
  161.1190  206.8290  153.9080 C   0  0  0  0  0  2  0  0  0  0  0  0
  161.7080  207.8010  154.7230 O   0  0  0  0  0  0  0  0  0  0  0  0
  160.4920  210.8960  155.7540 N   0  0  0  0  0  2  0  0  0  0  0  0
  161.2070  211.0670  152.3530 O   0  0  0  0  0  1  0  0  0  0  0  0
  161.4890  210.1300  155.1330 N   0  0  0  0  0  0  0  0  0  0  0  0
  160.2840  209.0230  153.2460 C   0  0  0  0  0  2  0  0  0  0  0  0
  162.3850  209.8220  156.1040 O   0  0  0  0  0  1  0  0  0  0  0  0
  160.0130  210.4420  152.7310 C   0  0  1  0  0  3  0  0  0  0  0  0
  160.0590  211.9190  154.8130 C   0  0  0  0  0  2  0  0  0  0  0  0
  160.8350  208.8950  154.6770 C   0  0  1  0  0  3  0  0  0  0  0  0
  159.2010  211.3040  153.7050 C   0  0  1  0  0  3  0  0  0  0  0  0
  159.8880  212.3150  151.0000 O   0  0  0  0  0  1  0  0  0  0  0  0
  158.0790  214.4470  149.8530 C   0  0  0  0  0  1  0  0  0  0  0  0
  158.7910  212.8090  151.6930 C   0  0  0  0  0  0  0  0  0  0  0  0
  158.4230  212.3560  152.9680 C   0  0  0  0  0  0  0  0  0  0  0  0
  157.9570  213.7980  151.1870 C   0  0  0  0  0  0  0  0  0  0  0  0
  157.2930  213.0120  153.4600 C   0  0  0  0  0  0  0  0  0  0  0  0
  156.7550  214.1310  152.3170 S   0  0  0  0  0  0  0  0  0  0  0  0
  156.7000  212.7550  154.6940 O   0  0  0  0  0  0  0  0  0  0  0  0
  156.4930  213.7780  155.6590 C   0  0  0  0  0  2  0  0  0  0  0  0
  155.6780  211.8390  156.9900 C   0  0  0  0  0  1  0  0  0  0  0  0
  156.4000  213.1710  157.0450 C   0  0  0  0  0  2  0  0  0  0  0  0
  1 24  1  0  0  0  0
  2  1  1  1  0  0  0
  2  4  1  0  0  0  0
  3  7  1  6  0  0  0
  3  8  1  0  0  0  0
  6  2  1  0  0  0  0
  7  6  1  0  0  0  0
  8  4  1  0  0  0  0
  8  5  1  1  0  0  0
 11  9  1  6  0  0  0
 11 10  1  0  0  0  0
 11 12  1  0  0  0  0
 12 10  1  6  0  0  0
 12  3  1  0  0  0  0
 13 11  1  0  0  0  0
 14 13  1  0  0  0  0
 15 14  1  0  0  0  0
 16 17  2  0  0  0  0
 17 15  1  0  0  0  0
 18 17  1  0  0  0  0
 19  6  1  0  0  0  0
 20 19  1  0  0  0  0
 22 21  1  6  0  0  0
 22 20  1  0  0  0  0
 23 22  1  0  0  0  0
 24 25  1  0  0  0  0
 28 26  1  0  0  0  0
 28 30  1  0  0  0  0
 29 33  1  0  0  0  0
 31 27  1  1  0  0  0
 31 29  1  0  0  0  0
 31 34  1  0  0  0  0
 32 26  1  0  0  0  0
 33 25  1  6  0  0  0
 33 28  1  0  0  0  0
 34 38  1  6  0  0  0
 34 32  1  0  0  0  0
 35 37  1  0  0  0  0
 36 39  1  0  0  0  0
 37 38  1  0  0  0  0
 38 40  2  0  0  0  0
 39 37  2  0  0  0  0
 39 41  1  0  0  0  0
 40 42  1  0  0  0  0
 41 40  1  0  0  0  0
 42 43  1  0  0  0  0
 43 45  1  0  0  0  0
 44 45  1  0  0  0  0
M  END
>  <MODEL>
2

>  <REMARK>
 VINA RESULT:      -5.7      2.498      4.496
  Name = 
  16 active torsions:
  status: ('A' for Active; 'I' for Inactive)
    1  A    between atoms: C_5  and  O_22
    2  A    between atoms: C_5  and  C_36
    3  A    between atoms: C_6  and  C_16
    4  A    between atoms: C_6  and  N_32
    5  A    between atoms: C_8  and  C_12
    6  A    between atoms: C_8  and  C_35
    7  A    between atoms: C_10  and  C_41
    8  A    between atoms: C_12  and  C_17
    9  A    between atoms: C_13  and  C_16
   10  A    between atoms: C_14  and  C_18
   11  A    between atoms: C_21  and  C_45
   12  A    between atoms: O_22  and  C_29
   13  A    between atoms: C_25  and  C_35
   14  A    between atoms: O_38  and  C_43
   15  A    between atoms: O_38  and  C_44
   16  A    between atoms: C_41  and  C_43
                            x       y       z     vdW  Elec       q    Type
                         _______ _______ _______ _____ _____    ______ ____

>  <TORSDO>
F 16

$$$$
=
 OpenBabel11072411593D

 45 48  0  0  1  0  0  0  0  0999 V2000
  160.9620  208.2570  151.5070 C   0  0  0  0  0  2  0  0  0  0  0  0
  160.9430  207.8490  150.0390 C   0  0  1  0  0  3  0  0  0  0  0  0
  161.7110  206.3030  147.7230 C   0  0  2  0  0  3  0  0  0  0  0  0
  162.3200  208.0450  149.4020 C   0  0  0  0  0  2  0  0  0  0  0  0
  163.5070  207.8430  147.3670 F   0  0  0  0  0  0  0  0  0  0  0  0
  160.4300  206.4760  149.8580 N   0  0  0  0  0  0  0  0  0  0  0  0
  160.3530  206.1590  148.4250 C   0  0  0  0  0  2  0  0  0  0  0  0
  162.2440  207.7230  147.9160 C   0  0  1  0  0  3  0  0  0  0  0  0
  160.9150  204.0610  144.8230 O   0  0  0  0  0  1  0  0  0  0  0  0
  162.8160  205.2750  145.7210 C   0  0  0  0  0  2  0  0  0  0  0  0
  161.5760  204.4570  145.9850 C   0  0  1  0  0  0  0  0  0  0  0  0
  161.5510  205.9600  146.2450 C   0  0  1  0  0  3  0  0  0  0  0  0
  161.6440  203.4680  147.1450 C   0  0  0  0  0  2  0  0  0  0  0  0
  160.6960  202.3030  146.9240 C   0  0  0  0  0  2  0  0  0  0  0  0
  161.4990  201.0230  146.8130 C   0  0  0  0  0  2  0  0  0  0  0  0
  161.3290  198.7960  145.7100 O   0  0  0  0  0  1  0  0  0  0  0  0
  160.7820  200.0470  145.9500 C   0  0  0  0  0  0  0  0  0  0  0  0
  159.6840  200.3610  145.4250 O   0  0  0  0  0  0  0  0  0  0  0  0
  161.2880  205.4910  150.5190 C   0  0  0  0  0  2  0  0  0  0  0  0
  160.7410  204.0920  150.2860 C   0  0  0  0  0  2  0  0  0  0  0  0
  161.1040  201.6800  150.8850 C   0  0  0  0  0  1  0  0  0  0  0  0
  161.1960  203.1150  151.3650 C   0  0  2  0  0  3  0  0  0  0  0  0
  160.4380  203.2840  152.5250 O   0  0  0  0  0  1  0  0  0  0  0  0
  162.1700  209.1250  151.8160 C   0  0  0  0  0  2  0  0  0  0  0  0
  162.2380  209.4060  153.1850 O   0  0  0  0  0  0  0  0  0  0  0  0
  159.3150  209.1290  155.0570 N   0  0  0  0  0  2  0  0  0  0  0  0
  160.4860  212.3950  155.3140 O   0  0  0  0  0  1  0  0  0  0  0  0
  160.6720  209.4740  154.9690 N   0  0  0  0  0  0  0  0  0  0  0  0
  160.7100  211.2420  153.2050 C   0  0  0  0  0  2  0  0  0  0  0  0
  161.3650  208.3660  155.3310 O   0  0  0  0  0  1  0  0  0  0  0  0
  159.8020  212.0450  154.1440 C   0  0  1  0  0  3  0  0  0  0  0  0
  158.5860  210.2900  155.5450 C   0  0  0  0  0  2  0  0  0  0  0  0
  160.9330  209.7590  153.5510 C   0  0  1  0  0  3  0  0  0  0  0  0
  158.4680  211.3520  154.4490 C   0  0  1  0  0  3  0  0  0  0  0  0
  156.9140  211.3940  156.9780 O   0  0  0  0  0  1  0  0  0  0  0  0
  154.8500  213.5830  157.2610 C   0  0  0  0  0  1  0  0  0  0  0  0
  156.6900  212.3360  155.9820 C   0  0  0  0  0  0  0  0  0  0  0  0
  157.4040  212.3610  154.7770 C   0  0  0  0  0  0  0  0  0  0  0  0
  155.7360  213.3400  156.0890 C   0  0  0  0  0  0  0  0  0  0  0  0
  156.9900  213.3930  153.9340 C   0  0  0  0  0  0  0  0  0  0  0  0
  155.7590  214.2690  154.6870 S   0  0  0  0  0  0  0  0  0  0  0  0
  157.5330  213.6610  152.6790 O   0  0  0  0  0  0  0  0  0  0  0  0
  156.7770  214.2780  151.6460 C   0  0  0  0  0  2  0  0  0  0  0  0
  156.4700  213.4520  149.3170 C   0  0  0  0  0  1  0  0  0  0  0  0
  157.4500  214.0530  150.3060 C   0  0  0  0  0  2  0  0  0  0  0  0
  1 24  1  0  0  0  0
  2  1  1  1  0  0  0
  3  8  1  0  0  0  0
  3  7  1  1  0  0  0
  4  2  1  0  0  0  0
  6  2  1  0  0  0  0
  6 19  1  0  0  0  0
  7  6  1  0  0  0  0
  8  5  1  1  0  0  0
  8  4  1  0  0  0  0
 10 11  1  0  0  0  0
 11  9  1  6  0  0  0
 11 12  1  0  0  0  0
 11 13  1  0  0  0  0
 12 10  1  6  0  0  0
 12  3  1  0  0  0  0
 14 13  1  0  0  0  0
 15 14  1  0  0  0  0
 16 17  1  0  0  0  0
 17 15  1  0  0  0  0
 18 17  2  0  0  0  0
 20 19  1  0  0  0  0
 20 22  1  0  0  0  0
 22 21  1  6  0  0  0
 22 23  1  0  0  0  0
 24 25  1  0  0  0  0
 26 32  1  0  0  0  0
 28 26  1  0  0  0  0
 28 30  1  0  0  0  0
 29 33  1  0  0  0  0
 29 31  1  0  0  0  0
 31 34  1  0  0  0  0
 31 27  1  1  0  0  0
 33 25  1  1  0  0  0
 33 28  1  0  0  0  0
 34 38  1  1  0  0  0
 34 32  1  0  0  0  0
 37 39  2  0  0  0  0
 37 35  1  0  0  0  0
 38 37  1  0  0  0  0
 39 36  1  0  0  0  0
 40 41  1  0  0  0  0
 40 38  2  0  0  0  0
 41 39  1  0  0  0  0
 42 40  1  0  0  0  0
 43 42  1  0  0  0  0
 44 45  1  0  0  0  0
 45 43  1  0  0  0  0
M  END
>  <MODEL>
3

>  <REMARK>
 VINA RESULT:      -5.4      2.574      4.662
  Name = 
  16 active torsions:
  status: ('A' for Active; 'I' for Inactive)
    1  A    between atoms: C_5  and  O_22
    2  A    between atoms: C_5  and  C_36
    3  A    between atoms: C_6  and  C_16
    4  A    between atoms: C_6  and  N_32
    5  A    between atoms: C_8  and  C_12
    6  A    between atoms: C_8  and  C_35
    7  A    between atoms: C_10  and  C_41
    8  A    between atoms: C_12  and  C_17
    9  A    between atoms: C_13  and  C_16
   10  A    between atoms: C_14  and  C_18
   11  A    between atoms: C_21  and  C_45
   12  A    between atoms: O_22  and  C_29
   13  A    between atoms: C_25  and  C_35
   14  A    between atoms: O_38  and  C_43
   15  A    between atoms: O_38  and  C_44
   16  A    between atoms: C_41  and  C_43
                            x       y       z     vdW  Elec       q    Type
                         _______ _______ _______ _____ _____    ______ ____

>  <TORSDO>
F 16

$$$$
=
 OpenBabel11072411593D

 45 48  0  0  1  0  0  0  0  0999 V2000
  161.6410  209.2890  153.0090 C   0  0  0  0  0  2  0  0  0  0  0  0
  160.5400  210.0410  153.7470 C   0  0  1  0  0  3  0  0  0  0  0  0
  159.0520  212.3650  154.6010 C   0  0  2  0  0  3  0  0  0  0  0  0
  161.1330  211.0010  154.7800 C   0  0  0  0  0  2  0  0  0  0  0  0
  160.5570  212.5730  156.4500 F   0  0  0  0  0  0  0  0  0  0  0  0
  159.6200  210.7210  152.8120 N   0  0  0  0  0  0  0  0  0  0  0  0
  158.5310  211.3610  153.5630 C   0  0  0  0  0  2  0  0  0  0  0  0
  160.0090  211.6630  155.5640 C   0  0  1  0  0  3  0  0  0  0  0  0
  155.8750  214.3420  154.8710 O   0  0  0  0  0  1  0  0  0  0  0  0
  158.1640  214.4500  155.6750 C   0  0  0  0  0  2  0  0  0  0  0  0
  157.2130  214.1160  154.5510 C   0  0  1  0  0  0  0  0  0  0  0  0
  157.8690  212.9860  155.3380 C   0  0  1  0  0  3  0  0  0  0  0  0
  157.6820  214.4530  153.1380 C   0  0  0  0  0  2  0  0  0  0  0  0
  156.7170  213.9060  152.1000 C   0  0  0  0  0  2  0  0  0  0  0  0
  157.3510  214.0130  150.7290 C   0  0  0  0  0  2  0  0  0  0  0  0
  154.9670  214.2090  150.0350 O   0  0  0  0  0  1  0  0  0  0  0  0
  156.2950  214.0270  149.6810 C   0  0  0  0  0  0  0  0  0  0  0  0
  156.6050  213.8580  148.4750 O   0  0  0  0  0  0  0  0  0  0  0  0
  160.3140  211.7370  152.0180 C   0  0  0  0  0  2  0  0  0  0  0  0
  160.8430  211.1170  150.7360 C   0  0  0  0  0  2  0  0  0  0  0  0
  160.6430  213.2520  149.4290 C   0  0  0  0  0  1  0  0  0  0  0  0
  161.5720  212.1380  149.8680 C   0  0  2  0  0  3  0  0  0  0  0  0
  162.1370  211.5150  148.7540 O   0  0  0  0  0  1  0  0  0  0  0  0
  161.1620  207.9190  152.5650 C   0  0  0  0  0  2  0  0  0  0  0  0
  162.0670  206.9280  152.9600 O   0  0  0  0  0  0  0  0  0  0  0  0
  161.6140  203.8410  151.4140 N   0  0  0  0  0  2  0  0  0  0  0  0
  159.9150  206.2570  149.5760 O   0  0  0  0  0  1  0  0  0  0  0  0
  161.0760  205.0060  151.9790 N   0  0  0  0  0  0  0  0  0  0  0  0
  162.0350  206.8350  150.5740 C   0  0  0  0  0  2  0  0  0  0  0  0
  160.8530  204.7210  153.2860 O   0  0  0  0  0  1  0  0  0  0  0  0
  161.3000  206.1720  149.4020 C   0  0  1  0  0  3  0  0  0  0  0  0
  161.0920  203.7140  150.0610 C   0  0  0  0  0  2  0  0  0  0  0  0
  162.1230  206.0330  151.8850 C   0  0  1  0  0  3  0  0  0  0  0  0
  161.7540  204.7320  149.1290 C   0  0  1  0  0  3  0  0  0  0  0  0
  161.7420  206.6820  146.8900 O   0  0  0  0  0  1  0  0  0  0  0  0
  161.2790  205.5610  144.1230 C   0  0  0  0  0  1  0  0  0  0  0  0
  161.5390  205.3280  146.6630 C   0  0  0  0  0  0  0  0  0  0  0  0
  161.5440  204.3700  147.6870 C   0  0  0  0  0  0  0  0  0  0  0  0
  161.3110  204.7970  145.4000 C   0  0  0  0  0  0  0  0  0  0  0  0
  161.3070  203.0800  147.2100 C   0  0  0  0  0  0  0  0  0  0  0  0
  161.1060  203.1320  145.5340 S   0  0  0  0  0  0  0  0  0  0  0  0
  161.2690  201.9340  148.0020 O   0  0  0  0  0  0  0  0  0  0  0  0
  160.6660  200.7280  147.5540 C   0  0  0  0  0  2  0  0  0  0  0  0
  161.2890  199.1170  145.7610 C   0  0  0  0  0  1  0  0  0  0  0  0
  161.7300  199.7690  147.0580 C   0  0  0  0  0  2  0  0  0  0  0  0
  2  1  1  6  0  0  0
  2  4  1  0  0  0  0
  3  7  1  6  0  0  0
  3 12  1  0  0  0  0
  3  8  1  0  0  0  0
  4  8  1  0  0  0  0
  6  7  1  0  0  0  0
  6  2  1  0  0  0  0
  8  5  1  1  0  0  0
 11  9  1  1  0  0  0
 11 12  1  0  0  0  0
 11 10  1  0  0  0  0
 12 10  1  1  0  0  0
 13 11  1  0  0  0  0
 14 13  1  0  0  0  0
 15 14  1  0  0  0  0
 17 16  1  0  0  0  0
 17 15  1  0  0  0  0
 18 17  2  0  0  0  0
 19  6  1  0  0  0  0
 20 19  1  0  0  0  0
 22 21  1  6  0  0  0
 22 20  1  0  0  0  0
 23 22  1  0  0  0  0
 24 25  1  0  0  0  0
 24  1  1  0  0  0  0
 26 28  1  0  0  0  0
 28 30  1  0  0  0  0
 29 33  1  0  0  0  0
 31 27  1  1  0  0  0
 31 29  1  0  0  0  0
 32 26  1  0  0  0  0
 33 28  1  0  0  0  0
 33 25  1  1  0  0  0
 34 38  1  6  0  0  0
 34 31  1  0  0  0  0
 34 32  1  0  0  0  0
 36 39  1  0  0  0  0
 37 35  1  0  0  0  0
 37 38  1  0  0  0  0
 39 41  1  0  0  0  0
 39 37  2  0  0  0  0
 40 38  2  0  0  0  0
 40 42  1  0  0  0  0
 41 40  1  0  0  0  0
 43 42  1  0  0  0  0
 44 45  1  0  0  0  0
 45 43  1  0  0  0  0
M  END
>  <MODEL>
4

>  <REMARK>
 VINA RESULT:      -5.4      3.282     10.560
  Name = 
  16 active torsions:
  status: ('A' for Active; 'I' for Inactive)
    1  A    between atoms: C_5  and  O_22
    2  A    between atoms: C_5  and  C_36
    3  A    between atoms: C_6  and  C_16
    4  A    between atoms: C_6  and  N_32
    5  A    between atoms: C_8  and  C_12
    6  A    between atoms: C_8  and  C_35
    7  A    between atoms: C_10  and  C_41
    8  A    between atoms: C_12  and  C_17
    9  A    between atoms: C_13  and  C_16
   10  A    between atoms: C_14  and  C_18
   11  A    between atoms: C_21  and  C_45
   12  A    between atoms: O_22  and  C_29
   13  A    between atoms: C_25  and  C_35
   14  A    between atoms: O_38  and  C_43
   15  A    between atoms: O_38  and  C_44
   16  A    between atoms: C_41  and  C_43
                            x       y       z     vdW  Elec       q    Type
                         _______ _______ _______ _____ _____    ______ ____

>  <TORSDO>
F 16

$$$$
=
 OpenBabel11072411593D

 45 48  0  0  1  0  0  0  0  0999 V2000
  161.5230  207.5380  152.6420 C   0  0  0  0  0  2  0  0  0  0  0  0
  161.9880  208.5900  151.6430 C   0  0  1  0  0  3  0  0  0  0  0  0
  161.6730  210.7560  149.7580 C   0  0  2  0  0  3  0  0  0  0  0  0
  161.3920  208.3280  150.2580 C   0  0  0  0  0  2  0  0  0  0  0  0
  161.3580  209.1270  148.0330 F   0  0  0  0  0  0  0  0  0  0  0  0
  161.7140  209.9600  152.1220 N   0  0  0  0  0  0  0  0  0  0  0  0
  162.2530  210.9390  151.1670 C   0  0  0  0  0  2  0  0  0  0  0  0
  161.9520  209.3360  149.2650 C   0  0  1  0  0  3  0  0  0  0  0  0
  162.1980  214.2250  148.4300 O   0  0  0  0  0  1  0  0  0  0  0  0
  161.3230  212.0930  147.6660 C   0  0  0  0  0  2  0  0  0  0  0  0
  161.4660  213.0930  148.7860 C   0  0  1  0  0  0  0  0  0  0  0  0
  162.2780  211.8030  148.8260 C   0  0  1  0  0  3  0  0  0  0  0  0
  160.2540  213.2770  149.6960 C   0  0  0  0  0  2  0  0  0  0  0  0
  159.1330  213.9990  148.9680 C   0  0  0  0  0  2  0  0  0  0  0  0
  157.9170  213.0970  148.9120 C   0  0  0  0  0  2  0  0  0  0  0  0
  156.0020  214.0930  150.1550 O   0  0  0  0  0  1  0  0  0  0  0  0
  156.6760  213.9150  148.9560 C   0  0  0  0  0  0  0  0  0  0  0  0
  156.2280  214.4340  147.9030 O   0  0  0  0  0  0  0  0  0  0  0  0
  160.2780  210.1950  152.2860 C   0  0  0  0  0  2  0  0  0  0  0  0
  159.9730  210.5320  153.7370 C   0  0  0  0  0  2  0  0  0  0  0  0
  158.4210  212.0730  152.5020 C   0  0  0  0  0  1  0  0  0  0  0  0
  158.9740  211.6790  153.8570 C   0  0  2  0  0  3  0  0  0  0  0  0
  159.5700  212.7800  154.4720 O   0  0  0  0  0  1  0  0  0  0  0  0
  162.5130  206.3890  152.7240 C   0  0  0  0  0  2  0  0  0  0  0  0
  161.8520  205.1890  153.0080 O   0  0  0  0  0  0  0  0  0  0  0  0
  161.0140  202.5180  150.9360 N   0  0  0  0  0  2  0  0  0  0  0  0
  159.8730  205.4580  149.4660 O   0  0  0  0  0  1  0  0  0  0  0  0
  160.6340  203.6530  151.6680 N   0  0  0  0  0  0  0  0  0  0  0  0
  161.9800  205.4890  150.6420 C   0  0  0  0  0  2  0  0  0  0  0  0
  160.2720  203.2040  152.8960 O   0  0  0  0  0  1  0  0  0  0  0  0
  161.2350  205.1620  149.3420 C   0  0  1  0  0  3  0  0  0  0  0  0
  160.5790  202.7030  149.5600 C   0  0  0  0  0  2  0  0  0  0  0  0
  161.8390  204.4830  151.7980 C   0  0  1  0  0  3  0  0  0  0  0  0
  161.4650  203.7290  148.8470 C   0  0  1  0  0  3  0  0  0  0  0  0
  161.8800  206.0020  146.9830 O   0  0  0  0  0  1  0  0  0  0  0  0
  161.4530  205.4370  144.0450 C   0  0  0  0  0  1  0  0  0  0  0  0
  161.5050  204.7490  146.5150 C   0  0  0  0  0  0  0  0  0  0  0  0
  161.3050  203.6460  147.3560 C   0  0  0  0  0  0  0  0  0  0  0  0
  161.2900  204.4750  145.1700 C   0  0  0  0  0  0  0  0  0  0  0  0
  160.9220  202.5030  146.6520 C   0  0  0  0  0  0  0  0  0  0  0  0
  160.8440  202.8620  145.0040 S   0  0  0  0  0  0  0  0  0  0  0  0
  160.6690  201.2600  147.2300 O   0  0  0  0  0  0  0  0  0  0  0  0
  161.4430  200.1110  146.9160 C   0  0  0  0  0  2  0  0  0  0  0  0
  161.7370  198.2750  145.2610 C   0  0  0  0  0  1  0  0  0  0  0  0
  160.7970  199.3470  145.7770 C   0  0  0  0  0  2  0  0  0  0  0  0
  1 24  1  0  0  0  0
  2  6  1  0  0  0  0
  2  1  1  1  0  0  0
  3  7  1  1  0  0  0
  4  2  1  0  0  0  0
  6 19  1  0  0  0  0
  7  6  1  0  0  0  0
  8  5  1  6  0  0  0
  8  3  1  0  0  0  0
  8  4  1  0  0  0  0
 10 11  1  0  0  0  0
 11  9  1  6  0  0  0
 11 12  1  0  0  0  0
 11 13  1  0  0  0  0
 12 10  1  6  0  0  0
 12  3  1  0  0  0  0
 14 13  1  0  0  0  0
 15 17  1  0  0  0  0
 15 14  1  0  0  0  0
 17 16  1  0  0  0  0
 18 17  2  0  0  0  0
 19 20  1  0  0  0  0
 20 22  1  0  0  0  0
 22 21  1  6  0  0  0
 22 23  1  0  0  0  0
 24 25  1  0  0  0  0
 26 28  1  0  0  0  0
 28 33  1  0  0  0  0
 28 30  1  0  0  0  0
 29 33  1  0  0  0  0
 31 27  1  1  0  0  0
 31 29  1  0  0  0  0
 32 26  1  0  0  0  0
 33 25  1  1  0  0  0
 34 38  1  6  0  0  0
 34 31  1  0  0  0  0
 34 32  1  0  0  0  0
 36 39  1  0  0  0  0
 37 35  1  0  0  0  0
 37 38  1  0  0  0  0
 39 37  2  0  0  0  0
 40 42  1  0  0  0  0
 40 38  2  0  0  0  0
 41 39  1  0  0  0  0
 41 40  1  0  0  0  0
 43 42  1  0  0  0  0
 44 45  1  0  0  0  0
 45 43  1  0  0  0  0
M  END
>  <MODEL>
5

>  <REMARK>
 VINA RESULT:      -5.0      3.543     10.810
  Name = 
  16 active torsions:
  status: ('A' for Active; 'I' for Inactive)
    1  A    between atoms: C_5  and  O_22
    2  A    between atoms: C_5  and  C_36
    3  A    between atoms: C_6  and  C_16
    4  A    between atoms: C_6  and  N_32
    5  A    between atoms: C_8  and  C_12
    6  A    between atoms: C_8  and  C_35
    7  A    between atoms: C_10  and  C_41
    8  A    between atoms: C_12  and  C_17
    9  A    between atoms: C_13  and  C_16
   10  A    between atoms: C_14  and  C_18
   11  A    between atoms: C_21  and  C_45
   12  A    between atoms: O_22  and  C_29
   13  A    between atoms: C_25  and  C_35
   14  A    between atoms: O_38  and  C_43
   15  A    between atoms: O_38  and  C_44
   16  A    between atoms: C_41  and  C_43
                            x       y       z     vdW  Elec       q    Type
                         _______ _______ _______ _____ _____    ______ ____

>  <TORSDO>
F 16

$$$$
=
 OpenBabel11072411593D

 45 48  0  0  1  0  0  0  0  0999 V2000
  161.4570  208.6620  153.5180 C   0  0  0  0  0  2  0  0  0  0  0  0
  160.2390  209.4830  153.9260 C   0  0  1  0  0  3  0  0  0  0  0  0
  158.7570  211.8960  154.4900 C   0  0  2  0  0  3  0  0  0  0  0  0
  160.5230  210.2840  155.1980 C   0  0  0  0  0  2  0  0  0  0  0  0
  159.5480  211.7820  156.7450 F   0  0  0  0  0  0  0  0  0  0  0  0
  159.7580  210.3360  152.8200 N   0  0  0  0  0  0  0  0  0  0  0  0
  158.5380  211.0430  153.2320 C   0  0  0  0  0  2  0  0  0  0  0  0
  159.2600  211.0140  155.6320 C   0  0  1  0  0  3  0  0  0  0  0  0
  155.7570  214.0510  153.8320 O   0  0  0  0  0  1  0  0  0  0  0  0
  157.7230  214.0480  155.2570 C   0  0  0  0  0  2  0  0  0  0  0  0
  157.1150  213.7440  153.9100 C   0  0  1  0  0  0  0  0  0  0  0  0
  157.4510  212.5960  154.8550 C   0  0  1  0  0  3  0  0  0  0  0  0
  157.9860  214.0260  152.6890 C   0  0  0  0  0  2  0  0  0  0  0  0
  157.1340  214.2350  151.4480 C   0  0  0  0  0  2  0  0  0  0  0  0
  157.5980  213.2860  150.3620 C   0  0  0  0  0  2  0  0  0  0  0  0
  157.1950  212.9400  147.9290 O   0  0  0  0  0  0  0  0  0  0  0  0
  156.7780  213.4780  149.1370 C   0  0  0  0  0  0  0  0  0  0  0  0
  155.7130  214.1440  149.1920 O   0  0  0  0  0  1  0  0  0  0  0  0
  160.7680  211.3190  152.4220 C   0  0  0  0  0  2  0  0  0  0  0  0
  160.5860  211.6800  150.9560 C   0  0  0  0  0  2  0  0  0  0  0  0
  162.6400  210.2370  150.8820 C   0  0  0  0  0  1  0  0  0  0  0  0
  161.5840  210.9520  150.0620 C   0  0  2  0  0  3  0  0  0  0  0  0
  162.1870  211.8460  149.1770 O   0  0  0  0  0  1  0  0  0  0  0  0
  161.0470  207.4360  152.7220 C   0  0  0  0  0  2  0  0  0  0  0  0
  161.5600  206.2740  153.3070 O   0  0  0  0  0  0  0  0  0  0  0  0
  161.4770  203.1340  151.8050 N   0  0  0  0  0  2  0  0  0  0  0  0
  159.5510  205.3200  149.9030 O   0  0  0  0  0  1  0  0  0  0  0  0
  160.8040  204.2400  152.3430 N   0  0  0  0  0  0  0  0  0  0  0  0
  161.5780  206.1430  150.9230 C   0  0  0  0  0  2  0  0  0  0  0  0
  160.5920  203.9510  153.6510 O   0  0  0  0  0  1  0  0  0  0  0  0
  160.9410  205.3860  149.7510 C   0  0  1  0  0  3  0  0  0  0  0  0
  160.9950  202.9300  150.4470 C   0  0  0  0  0  2  0  0  0  0  0  0
  161.7320  205.3750  152.2470 C   0  0  1  0  0  3  0  0  0  0  0  0
  161.5550  204.0020  149.5080 C   0  0  1  0  0  3  0  0  0  0  0  0
  160.6900  201.3120  148.5960 O   0  0  0  0  0  1  0  0  0  0  0  0
  160.5310  200.8850  145.6080 C   0  0  0  0  0  1  0  0  0  0  0  0
  161.0060  202.3120  147.6850 C   0  0  0  0  0  0  0  0  0  0  0  0
  161.4110  203.5980  148.0690 C   0  0  0  0  0  0  0  0  0  0  0  0
  160.9520  202.1290  146.3090 C   0  0  0  0  0  0  0  0  0  0  0  0
  161.6830  204.4190  146.9730 C   0  0  0  0  0  0  0  0  0  0  0  0
  161.4120  203.5570  145.5480 S   0  0  0  0  0  0  0  0  0  0  0  0
  162.0910  205.7490  147.0590 O   0  0  0  0  0  0  0  0  0  0  0  0
  161.2060  206.8280  146.7930 C   0  0  0  0  0  2  0  0  0  0  0  0
  162.8850  207.8660  148.3110 C   0  0  0  0  0  1  0  0  0  0  0  0
  161.4780  207.9700  147.7530 C   0  0  0  0  0  2  0  0  0  0  0  0
  2  1  1  6  0  0  0
  2  4  1  0  0  0  0
  3  7  1  6  0  0  0
  3 12  1  0  0  0  0
  3  8  1  0  0  0  0
  4  8  1  0  0  0  0
  6  7  1  0  0  0  0
  6  2  1  0  0  0  0
  8  5  1  1  0  0  0
 11  9  1  6  0  0  0
 11 12  1  0  0  0  0
 11 10  1  0  0  0  0
 12 10  1  1  0  0  0
 13 11  1  0  0  0  0
 14 13  1  0  0  0  0
 15 14  1  0  0  0  0
 16 17  2  0  0  0  0
 17 18  1  0  0  0  0
 17 15  1  0  0  0  0
 19  6  1  0  0  0  0
 20 19  1  0  0  0  0
 22 21  1  1  0  0  0
 22 20  1  0  0  0  0
 23 22  1  0  0  0  0
 24 25  1  0  0  0  0
 24  1  1  0  0  0  0
 26 28  1  0  0  0  0
 28 30  1  0  0  0  0
 29 33  1  0  0  0  0
 31 27  1  1  0  0  0
 31 29  1  0  0  0  0
 32 26  1  0  0  0  0
 33 28  1  0  0  0  0
 33 25  1  1  0  0  0
 34 38  1  6  0  0  0
 34 31  1  0  0  0  0
 34 32  1  0  0  0  0
 36 39  1  0  0  0  0
 37 38  1  0  0  0  0
 37 35  1  0  0  0  0
 39 37  2  0  0  0  0
 40 42  1  0  0  0  0
 40 38  2  0  0  0  0
 41 39  1  0  0  0  0
 41 40  1  0  0  0  0
 43 42  1  0  0  0  0
 43 45  1  0  0  0  0
 45 44  1  0  0  0  0
M  END
>  <MODEL>
6

>  <REMARK>
 VINA RESULT:      -4.7      3.232     10.257
  Name = 
  16 active torsions:
  status: ('A' for Active; 'I' for Inactive)
    1  A    between atoms: C_5  and  O_22
    2  A    between atoms: C_5  and  C_36
    3  A    between atoms: C_6  and  C_16
    4  A    between atoms: C_6  and  N_32
    5  A    between atoms: C_8  and  C_12
    6  A    between atoms: C_8  and  C_35
    7  A    between atoms: C_10  and  C_41
    8  A    between atoms: C_12  and  C_17
    9  A    between atoms: C_13  and  C_16
   10  A    between atoms: C_14  and  C_18
   11  A    between atoms: C_21  and  C_45
   12  A    between atoms: O_22  and  C_29
   13  A    between atoms: C_25  and  C_35
   14  A    between atoms: O_38  and  C_43
   15  A    between atoms: O_38  and  C_44
   16  A    between atoms: C_41  and  C_43
                            x       y       z     vdW  Elec       q    Type
                         _______ _______ _______ _____ _____    ______ ____

>  <TORSDO>
F 16

$$$$
=
 OpenBabel11072411593D

 45 48  0  0  1  0  0  0  0  0999 V2000
  162.3950  208.4130  151.2570 C   0  0  0  0  0  2  0  0  0  0  0  0
  162.1810  207.6320  149.9660 C   0  0  1  0  0  3  0  0  0  0  0  0
  160.9420  207.0230  147.4290 C   0  0  2  0  0  3  0  0  0  0  0  0
  160.7740  207.0330  149.9180 C   0  0  0  0  0  2  0  0  0  0  0  0
  159.3320  205.6980  148.6030 F   0  0  0  0  0  0  0  0  0  0  0  0
  162.4850  208.4500  148.7740 N   0  0  0  0  0  0  0  0  0  0  0  0
  162.3450  207.6330  147.5610 C   0  0  0  0  0  2  0  0  0  0  0  0
  160.6270  206.1810  148.6650 C   0  0  1  0  0  3  0  0  0  0  0  0
  160.9930  203.8440  145.4380 O   0  0  0  0  0  1  0  0  0  0  0  0
  162.2850  205.8890  145.6410 C   0  0  0  0  0  2  0  0  0  0  0  0
  161.4860  204.8040  146.3200 C   0  0  1  0  0  0  0  0  0  0  0  0
  160.8740  206.1910  146.1510 C   0  0  1  0  0  3  0  0  0  0  0  0
  161.9900  204.3370  147.6830 C   0  0  0  0  0  2  0  0  0  0  0  0
  161.5490  202.9110  147.9670 C   0  0  0  0  0  2  0  0  0  0  0  0
  160.8380  202.8700  149.3040 C   0  0  0  0  0  2  0  0  0  0  0  0
  158.9750  201.2190  149.3950 O   0  0  0  0  0  0  0  0  0  0  0  0
  160.3220  201.4980  149.5620 C   0  0  0  0  0  0  0  0  0  0  0  0
  161.1070  200.5950  149.9460 O   0  0  0  0  0  1  0  0  0  0  0  0
  161.5920  209.6070  148.6750 C   0  0  0  0  0  2  0  0  0  0  0  0
  162.4090  210.8700  148.4510 C   0  0  0  0  0  2  0  0  0  0  0  0
  160.8230  212.2210  147.0490 C   0  0  0  0  0  1  0  0  0  0  0  0
  161.5280  212.1130  148.3870 C   0  0  2  0  0  3  0  0  0  0  0  0
  162.2860  213.2600  148.6250 O   0  0  0  0  0  1  0  0  0  0  0  0
  161.4170  207.9680  152.3310 C   0  0  0  0  0  2  0  0  0  0  0  0
  161.7430  208.5440  153.5630 O   0  0  0  0  0  0  0  0  0  0  0  0
  159.3270  209.2210  155.9770 N   0  0  0  0  0  2  0  0  0  0  0  0
  160.4580  212.2400  154.6700 O   0  0  0  0  0  1  0  0  0  0  0  0
  160.6200  209.4070  155.4690 N   0  0  0  0  0  0  0  0  0  0  0  0
  160.2230  210.3480  153.1900 C   0  0  0  0  0  2  0  0  0  0  0  0
  161.4000  208.4800  156.0790 O   0  0  0  0  0  1  0  0  0  0  0  0
  159.5350  211.5140  153.9100 C   0  0  1  0  0  3  0  0  0  0  0  0
  158.7030  210.5290  156.1140 C   0  0  0  0  0  2  0  0  0  0  0  0
  160.5480  209.1030  154.0330 C   0  0  1  0  0  3  0  0  0  0  0  0
  158.3190  211.0900  154.7420 C   0  0  1  0  0  3  0  0  0  0  0  0
  156.9380  211.8420  157.2600 O   0  0  0  0  0  1  0  0  0  0  0  0
  155.0220  214.1740  157.1070 C   0  0  0  0  0  1  0  0  0  0  0  0
  156.7030  212.5320  156.0790 C   0  0  0  0  0  0  0  0  0  0  0  0
  157.3370  212.2190  154.8690 C   0  0  0  0  0  0  0  0  0  0  0  0
  155.8150  213.5970  155.9870 C   0  0  0  0  0  0  0  0  0  0  0  0
  156.9270  213.0480  153.8230 C   0  0  0  0  0  0  0  0  0  0  0  0
  155.7990  214.1620  154.4020 S   0  0  0  0  0  0  0  0  0  0  0  0
  157.4020  212.9700  152.5150 O   0  0  0  0  0  0  0  0  0  0  0  0
  158.2180  213.9860  151.9480 C   0  0  0  0  0  2  0  0  0  0  0  0
  157.1420  213.7030  149.7210 C   0  0  0  0  0  1  0  0  0  0  0  0
  158.4560  213.6990  150.4780 C   0  0  0  0  0  2  0  0  0  0  0  0
  1 24  1  0  0  0  0
  2  1  1  1  0  0  0
  3  7  1  1  0  0  0
  3  8  1  0  0  0  0
  4  2  1  0  0  0  0
  6  2  1  0  0  0  0
  7  6  1  0  0  0  0
  8  5  1  6  0  0  0
  8  4  1  0  0  0  0
 10 11  1  0  0  0  0
 11  9  1  6  0  0  0
 11 13  1  0  0  0  0
 12 10  1  6  0  0  0
 12 11  1  0  0  0  0
 12  3  1  0  0  0  0
 13 14  1  0  0  0  0
 14 15  1  0  0  0  0
 15 17  1  0  0  0  0
 16 17  2  0  0  0  0
 17 18  1  0  0  0  0
 19  6  1  0  0  0  0
 20 19  1  0  0  0  0
 22 21  1  6  0  0  0
 22 20  1  0  0  0  0
 22 23  1  0  0  0  0
 24 25  1  0  0  0  0
 26 32  1  0  0  0  0
 28 26  1  0  0  0  0
 28 30  1  0  0  0  0
 29 31  1  0  0  0  0
 29 33  1  0  0  0  0
 31 27  1  1  0  0  0
 31 34  1  0  0  0  0
 33 25  1  6  0  0  0
 33 28  1  0  0  0  0
 34 38  1  1  0  0  0
 34 32  1  0  0  0  0
 37 35  1  0  0  0  0
 38 37  1  0  0  0  0
 39 37  2  0  0  0  0
 39 36  1  0  0  0  0
 40 41  1  0  0  0  0
 40 38  2  0  0  0  0
 41 39  1  0  0  0  0
 42 40  1  0  0  0  0
 43 42  1  0  0  0  0
 44 45  1  0  0  0  0
 45 43  1  0  0  0  0
M  END
>  <MODEL>
7

>  <REMARK>
 VINA RESULT:      -4.6      2.505      4.628
  Name = 
  16 active torsions:
  status: ('A' for Active; 'I' for Inactive)
    1  A    between atoms: C_5  and  O_22
    2  A    between atoms: C_5  and  C_36
    3  A    between atoms: C_6  and  C_16
    4  A    between atoms: C_6  and  N_32
    5  A    between atoms: C_8  and  C_12
    6  A    between atoms: C_8  and  C_35
    7  A    between atoms: C_10  and  C_41
    8  A    between atoms: C_12  and  C_17
    9  A    between atoms: C_13  and  C_16
   10  A    between atoms: C_14  and  C_18
   11  A    between atoms: C_21  and  C_45
   12  A    between atoms: O_22  and  C_29
   13  A    between atoms: C_25  and  C_35
   14  A    between atoms: O_38  and  C_43
   15  A    between atoms: O_38  and  C_44
   16  A    between atoms: C_41  and  C_43
                            x       y       z     vdW  Elec       q    Type
                         _______ _______ _______ _____ _____    ______ ____

>  <TORSDO>
F 16

$$$$
=
 OpenBabel11072411593D

 45 48  0  0  1  0  0  0  0  0999 V2000
  161.6140  208.1650  153.8840 C   0  0  0  0  0  2  0  0  0  0  0  0
  160.5090  209.2090  153.7810 C   0  0  1  0  0  3  0  0  0  0  0  0
  159.4000  211.8350  153.3120 C   0  0  2  0  0  3  0  0  0  0  0  0
  160.7240  210.3320  154.7990 C   0  0  0  0  0  2  0  0  0  0  0  0
  159.7930  212.3450  155.6160 F   0  0  0  0  0  0  0  0  0  0  0  0
  160.3650  209.7210  152.4030 N   0  0  0  0  0  0  0  0  0  0  0  0
  159.2370  210.6600  152.3360 C   0  0  0  0  0  2  0  0  0  0  0  0
  159.5550  211.3050  154.7370 C   0  0  1  0  0  3  0  0  0  0  0  0
  157.0240  214.0890  151.4830 O   0  0  0  0  0  1  0  0  0  0  0  0
  158.6390  214.2240  153.2900 C   0  0  0  0  0  2  0  0  0  0  0  0
  158.2620  213.6490  151.9470 C   0  0  1  0  0  0  0  0  0  0  0  0
  158.1950  212.7630  153.1860 C   0  0  1  0  0  3  0  0  0  0  0  0
  159.3920  213.4840  150.9340 C   0  0  0  0  0  2  0  0  0  0  0  0
  159.2190  214.4400  149.7660 C   0  0  0  0  0  2  0  0  0  0  0  0
  159.7990  213.8080  148.5180 C   0  0  0  0  0  2  0  0  0  0  0  0
  158.8280  213.5680  146.2360 O   0  0  0  0  0  0  0  0  0  0  0  0
  158.7020  213.3880  147.6050 C   0  0  0  0  0  0  0  0  0  0  0  0
  157.6520  212.8840  148.0770 O   0  0  0  0  0  1  0  0  0  0  0  0
  161.5800  210.4020  151.9530 C   0  0  0  0  0  2  0  0  0  0  0  0
  162.4650  209.4290  151.1900 C   0  0  0  0  0  2  0  0  0  0  0  0
  162.1600  211.0580  149.3040 C   0  0  0  0  0  1  0  0  0  0  0  0
  162.3310  209.6000  149.6810 C   0  0  2  0  0  3  0  0  0  0  0  0
  161.2580  208.8500  149.1980 O   0  0  0  0  0  1  0  0  0  0  0  0
  161.3260  206.9760  152.9840 C   0  0  0  0  0  2  0  0  0  0  0  0
  161.9750  205.8310  153.4570 O   0  0  0  0  0  0  0  0  0  0  0  0
  160.9890  202.8890  151.8780 N   0  0  0  0  0  2  0  0  0  0  0  0
  160.0730  205.5800  149.8720 O   0  0  0  0  0  1  0  0  0  0  0  0
  160.6750  204.1590  152.3830 N   0  0  0  0  0  0  0  0  0  0  0  0
  162.1590  205.6880  151.0800 C   0  0  0  0  0  2  0  0  0  0  0  0
  160.2650  203.9640  153.6610 O   0  0  0  0  0  1  0  0  0  0  0  0
  161.4130  205.1790  149.8410 C   0  0  1  0  0  3  0  0  0  0  0  0
  160.5880  202.8490  150.4790 C   0  0  0  0  0  2  0  0  0  0  0  0
  161.9320  204.9200  152.3950 C   0  0  1  0  0  3  0  0  0  0  0  0
  161.5520  203.6690  149.6180 C   0  0  1  0  0  3  0  0  0  0  0  0
  160.3300  201.1660  148.5900 O   0  0  0  0  0  1  0  0  0  0  0  0
  160.2350  200.8420  145.5870 C   0  0  0  0  0  1  0  0  0  0  0  0
  160.8330  202.1280  147.7240 C   0  0  0  0  0  0  0  0  0  0  0  0
  161.4100  203.3270  148.1620 C   0  0  0  0  0  0  0  0  0  0  0  0
  160.8100  201.9900  146.3410 C   0  0  0  0  0  0  0  0  0  0  0  0
  161.8500  204.1250  147.1040 C   0  0  0  0  0  0  0  0  0  0  0  0
  161.5120  203.3500  145.6430 S   0  0  0  0  0  0  0  0  0  0  0  0
  162.4510  205.3740  147.2470 O   0  0  0  0  0  0  0  0  0  0  0  0
  162.0210  206.5070  146.5040 C   0  0  0  0  0  2  0  0  0  0  0  0
  160.1240  206.3410  144.8990 C   0  0  0  0  0  1  0  0  0  0  0  0
  160.5120  206.4880  146.3590 C   0  0  0  0  0  2  0  0  0  0  0  0
  2  1  1  6  0  0  0
  2  4  1  0  0  0  0
  3  7  1  6  0  0  0
  3  8  1  0  0  0  0
  6  2  1  0  0  0  0
  7  6  1  0  0  0  0
  8  4  1  0  0  0  0
  8  5  1  1  0  0  0
 11  9  1  6  0  0  0
 11 12  1  0  0  0  0
 11 10  1  0  0  0  0
 12 10  1  1  0  0  0
 12  3  1  0  0  0  0
 13 11  1  0  0  0  0
 14 13  1  0  0  0  0
 15 14  1  0  0  0  0
 16 17  2  0  0  0  0
 17 18  1  0  0  0  0
 17 15  1  0  0  0  0
 19  6  1  0  0  0  0
 20 19  1  0  0  0  0
 22 21  1  1  0  0  0
 22 20  1  0  0  0  0
 23 22  1  0  0  0  0
 24 25  1  0  0  0  0
 24  1  1  0  0  0  0
 26 28  1  0  0  0  0
 28 33  1  0  0  0  0
 28 30  1  0  0  0  0
 29 33  1  0  0  0  0
 31 27  1  1  0  0  0
 31 29  1  0  0  0  0
 32 26  1  0  0  0  0
 33 25  1  1  0  0  0
 34 38  1  6  0  0  0
 34 31  1  0  0  0  0
 34 32  1  0  0  0  0
 36 39  1  0  0  0  0
 37 38  1  0  0  0  0
 37 35  1  0  0  0  0
 39 37  2  0  0  0  0
 40 42  1  0  0  0  0
 40 38  2  0  0  0  0
 41 39  1  0  0  0  0
 41 40  1  0  0  0  0
 43 42  1  0  0  0  0
 44 45  1  0  0  0  0
 45 43  1  0  0  0  0
M  END
>  <MODEL>
8

>  <REMARK>
 VINA RESULT:      -4.6      3.438     10.172
  Name = 
  16 active torsions:
  status: ('A' for Active; 'I' for Inactive)
    1  A    between atoms: C_5  and  O_22
    2  A    between atoms: C_5  and  C_36
    3  A    between atoms: C_6  and  C_16
    4  A    between atoms: C_6  and  N_32
    5  A    between atoms: C_8  and  C_12
    6  A    between atoms: C_8  and  C_35
    7  A    between atoms: C_10  and  C_41
    8  A    between atoms: C_12  and  C_17
    9  A    between atoms: C_13  and  C_16
   10  A    between atoms: C_14  and  C_18
   11  A    between atoms: C_21  and  C_45
   12  A    between atoms: O_22  and  C_29
   13  A    between atoms: C_25  and  C_35
   14  A    between atoms: O_38  and  C_43
   15  A    between atoms: O_38  and  C_44
   16  A    between atoms: C_41  and  C_43
                            x       y       z     vdW  Elec       q    Type
                         _______ _______ _______ _____ _____    ______ ____

>  <TORSDO>
F 16

$$$$
=
 OpenBabel11072411593D

 45 48  0  0  1  0  0  0  0  0999 V2000
  162.1890  208.3600  148.6260 C   0  0  0  0  0  2  0  0  0  0  0  0
  161.5810  207.9680  149.9680 C   0  0  1  0  0  3  0  0  0  0  0  0
  161.4200  207.8300  152.8480 C   0  0  2  0  0  3  0  0  0  0  0  0
  162.5340  207.0620  150.7520 C   0  0  0  0  0  2  0  0  0  0  0  0
  162.7530  205.8450  152.7670 F   0  0  0  0  0  0  0  0  0  0  0  0
  161.1610  209.1500  150.7460 N   0  0  0  0  0  0  0  0  0  0  0  0
  160.5080  208.7190  151.9910 C   0  0  0  0  0  2  0  0  0  0  0  0
  161.8600  206.6100  152.0400 C   0  0  1  0  0  3  0  0  0  0  0  0
  159.5270  208.4590  156.0250 O   0  0  0  0  0  1  0  0  0  0  0  0
  161.6230  207.4580  155.3200 C   0  0  0  0  0  2  0  0  0  0  0  0
  160.6000  208.5520  155.1400 C   0  0  1  0  0  0  0  0  0  0  0  0
  160.6760  207.4240  154.1170 C   0  0  1  0  0  3  0  0  0  0  0  0
  161.1380  209.9410  154.8070 C   0  0  0  0  0  2  0  0  0  0  0  0
  160.4850  211.0010  155.6790 C   0  0  0  0  0  2  0  0  0  0  0  0
  159.7550  211.9900  154.7940 C   0  0  0  0  0  2  0  0  0  0  0  0
  157.7520  211.1340  156.0030 O   0  0  0  0  0  1  0  0  0  0  0  0
  158.2870  211.7710  154.8940 C   0  0  0  0  0  0  0  0  0  0  0  0
  157.5310  212.1490  153.9640 O   0  0  0  0  0  0  0  0  0  0  0  0
  162.3000  210.0080  151.0780 C   0  0  0  0  0  2  0  0  0  0  0  0
  161.9290  211.4660  150.8530 C   0  0  0  0  0  2  0  0  0  0  0  0
  162.6900  211.9680  148.5130 C   0  0  0  0  0  1  0  0  0  0  0  0
  161.4960  211.7280  149.4150 C   0  0  2  0  0  3  0  0  0  0  0  0
  160.6240  212.8160  149.3590 O   0  0  0  0  0  1  0  0  0  0  0  0
  162.1080  207.2130  147.6340 C   0  0  0  0  0  2  0  0  0  0  0  0
  160.8870  207.2370  146.9520 O   0  0  0  0  0  0  0  0  0  0  0  0
  160.0620  204.5620  144.8810 N   0  0  0  0  0  2  0  0  0  0  0  0
  163.0010  203.7840  146.5730 O   0  0  0  0  0  1  0  0  0  0  0  0
  160.9870  205.5260  145.3090 N   0  0  0  0  0  0  0  0  0  0  0  0
  161.2820  205.0160  147.7360 C   0  0  0  0  0  2  0  0  0  0  0  0
  160.8160  206.5970  144.4960 O   0  0  0  0  0  1  0  0  0  0  0  0
  161.7980  203.6470  147.2750 C   0  0  1  0  0  3  0  0  0  0  0  0
  160.6840  203.2530  145.0110 C   0  0  0  0  0  2  0  0  0  0  0  0
  160.5950  205.8960  146.6760 C   0  0  1  0  0  3  0  0  0  0  0  0
  160.7650  202.8370  146.4820 C   0  0  1  0  0  3  0  0  0  0  0  0
  160.3790  200.8520  144.3090 O   0  0  0  0  0  1  0  0  0  0  0  0
  160.9940  197.9710  144.9830 C   0  0  0  0  0  1  0  0  0  0  0  0
  160.8160  200.4620  145.5680 C   0  0  0  0  0  0  0  0  0  0  0  0
  161.0200  201.3640  146.6210 C   0  0  0  0  0  0  0  0  0  0  0  0
  161.0900  199.1410  145.8990 C   0  0  0  0  0  0  0  0  0  0  0  0
  161.4490  200.7300  147.7890 C   0  0  0  0  0  0  0  0  0  0  0  0
  161.5830  199.0710  147.5060 S   0  0  0  0  0  0  0  0  0  0  0  0
  161.7410  201.3810  148.9860 O   0  0  0  0  0  0  0  0  0  0  0  0
  160.7750  201.5290  150.0180 C   0  0  0  0  0  2  0  0  0  0  0  0
  161.2340  202.9580  152.0040 C   0  0  0  0  0  1  0  0  0  0  0  0
  160.8000  202.9480  150.5510 C   0  0  0  0  0  2  0  0  0  0  0  0
  2  1  1  6  0  0  0
  2  6  1  0  0  0  0
  2  4  1  0  0  0  0
  3  7  1  6  0  0  0
  3 12  1  0  0  0  0
  4  8  1  0  0  0  0
  6 19  1  0  0  0  0
  6  7  1  0  0  0  0
  8  5  1  1  0  0  0
  8  3  1  0  0  0  0
 11 10  1  0  0  0  0
 11  9  1  1  0  0  0
 12 11  1  0  0  0  0
 12 10  1  1  0  0  0
 13 11  1  0  0  0  0
 13 14  1  0  0  0  0
 15 17  1  0  0  0  0
 15 14  1  0  0  0  0
 17 16  1  0  0  0  0
 18 17  2  0  0  0  0
 20 19  1  0  0  0  0
 22 21  1  6  0  0  0
 22 20  1  0  0  0  0
 23 22  1  0  0  0  0
 24  1  1  0  0  0  0
 25 24  1  0  0  0  0
 26 32  1  0  0  0  0
 26 28  1  0  0  0  0
 28 33  1  0  0  0  0
 30 28  1  0  0  0  0
 31 27  1  6  0  0  0
 31 29  1  0  0  0  0
 32 34  1  0  0  0  0
 33 25  1  1  0  0  0
 33 29  1  0  0  0  0
 34 38  1  6  0  0  0
 34 31  1  0  0  0  0
 35 37  1  0  0  0  0
 36 39  1  0  0  0  0
 37 39  2  0  0  0  0
 37 38  1  0  0  0  0
 38 40  2  0  0  0  0
 39 41  1  0  0  0  0
 40 42  1  0  0  0  0
 41 40  1  0  0  0  0
 42 43  1  0  0  0  0
 43 45  1  0  0  0  0
 45 44  1  0  0  0  0
M  END
>  <MODEL>
9

>  <REMARK>
 VINA RESULT:      -4.2      3.475     10.490
  Name = 
  16 active torsions:
  status: ('A' for Active; 'I' for Inactive)
    1  A    between atoms: C_5  and  O_22
    2  A    between atoms: C_5  and  C_36
    3  A    between atoms: C_6  and  C_16
    4  A    between atoms: C_6  and  N_32
    5  A    between atoms: C_8  and  C_12
    6  A    between atoms: C_8  and  C_35
    7  A    between atoms: C_10  and  C_41
    8  A    between atoms: C_12  and  C_17
    9  A    between atoms: C_13  and  C_16
   10  A    between atoms: C_14  and  C_18
   11  A    between atoms: C_21  and  C_45
   12  A    between atoms: O_22  and  C_29
   13  A    between atoms: C_25  and  C_35
   14  A    between atoms: O_38  and  C_43
   15  A    between atoms: O_38  and  C_44
   16  A    between atoms: C_41  and  C_43
                            x       y       z     vdW  Elec       q    Type
                         _______ _______ _______ _____ _____    ______ ____

>  <TORSDO>
F 16

$$$$
