=
 OpenBabel11072412243D

 27 30  0  0  1  0  0  0  0  0999 V2000
  161.2280  206.6940  152.7410 C   0  0  0  0  0  2  0  0  0  0  0  0
  160.8320  212.2270  147.1500 O   0  0  0  0  0  0  0  0  0  0  0  0
  161.3410  210.5700  154.6970 C   0  0  0  0  0  2  0  0  0  0  0  0
  161.6080  211.6760  147.9730 C   0  0  0  0  0  0  0  0  0  0  0  0
  161.2230  206.7640  151.2120 C   0  0  1  0  0  3  0  0  0  0  0  0
  162.1590  208.0720  149.2860 C   0  0  0  0  0  0  0  0  0  0  0  0
  162.3510  207.6820  150.7130 C   0  0  1  0  0  3  0  0  0  0  0  0
  162.2300  207.3090  148.2870 O   0  0  0  0  0  0  0  0  0  0  0  0
  162.2260  208.9880  151.3600 N   0  0  0  0  0  0  0  0  0  0  0  0
  161.9380  209.5030  149.2450 C   0  0  0  0  0  0  0  0  0  0  0  0
  160.4200  208.2890  154.4180 C   0  0  0  0  0  3  0  0  0  0  0  0
  160.4090  209.5440  155.0440 O   0  0  0  0  0  0  0  0  0  0  0  0
  161.9540  210.0050  150.4320 N   0  0  0  0  0  0  0  0  0  0  0  0
  161.1770  208.0650  153.3420 C   0  0  0  0  0  0  0  0  0  0  0  0
  162.0990  209.1380  152.8100 C   0  0  2  0  0  3  0  0  0  0  0  0
  161.6180  210.5390  153.1990 C   0  0  0  0  0  2  0  0  0  0  0  0
  161.6230  210.2480  148.0650 N   0  0  0  0  0  2  0  0  0  0  0  0
  163.7450  212.6800  148.3810 F   0  0  0  0  0  0  0  0  0  0  0  0
  162.4630  212.4730  148.7330 O   0  0  0  0  0  0  0  0  0  0  0  0
  161.3850  205.3570  150.6660 C   0  0  0  0  0  2  0  0  0  0  0  0
  161.5900  204.4270  151.7620 N   0  0  0  0  0  2  0  0  0  0  0  0
  161.2970  203.1940  151.2860 O   0  0  0  0  0  0  0  0  0  0  0  0
  160.8950  203.4120  149.9680 C   0  0  0  0  0  2  0  0  0  0  0  0
  161.4340  200.6910  148.4300 C   0  0  0  0  0  2  0  0  0  0  0  0
  160.9910  200.9290  149.8620 C   0  0  0  0  0  2  0  0  0  0  0  0
  160.2270  202.1630  149.4220 C   0  0  0  0  0  3  0  0  0  0  0  0
  160.6710  201.9240  147.9920 C   0  0  0  0  0  2  0  0  0  0  0  0
  1 14  1  0  0  0  0
  2  4  2  0  0  0  0
  3 12  1  0  0  0  0
  4 17  1  0  0  0  0
  4 19  1  0  0  0  0
  5 20  1  6  0  0  0
  5  1  1  0  0  0  0
  7  6  1  6  0  0  0
  7  5  1  0  0  0  0
  7  9  1  0  0  0  0
  8  6  2  0  0  0  0
  9 15  1  0  0  0  0
 10  6  1  0  0  0  0
 10 13  2  0  0  0  0
 11 12  1  0  0  0  0
 13  9  1  0  0  0  0
 14 11  2  0  0  0  0
 15 16  1  6  0  0  0
 15 14  1  0  0  0  0
 16  3  1  0  0  0  0
 17 10  1  0  0  0  0
 18 19  1  0  0  0  0
 20 21  1  0  0  0  0
 22 21  1  0  0  0  0
 23 22  1  0  0  0  0
 24 25  1  0  0  0  0
 26 25  1  0  0  0  0
 26 23  1  0  0  0  0
 27 24  1  0  0  0  0
 27 26  1  0  0  0  0
M  END
>  <MODEL>
1

>  <REMARK>
 VINA RESULT:      -8.0      0.000      0.000
  Name = 
  6 active torsions:
  status: ('A' for Active; 'I' for Inactive)
    1  A    between atoms: C_2  and  C_7
    2  A    between atoms: C_2  and  N_26
    3  A    between atoms: C_6  and  O_27
    4  A    between atoms: C_12  and  C_13
    5  A    between atoms: C_12  and  O_22
    6  A    between atoms: O_22  and  N_26
                            x       y       z     vdW  Elec       q    Type
                         _______ _______ _______ _____ _____    ______ ____

>  <TORSDO>
F 6

$$$$
=
 OpenBabel11072412243D

 27 30  0  0  1  0  0  0  0  0999 V2000
  161.6120  205.1510  151.7880 C   0  0  0  0  0  2  0  0  0  0  0  0
  162.3400  205.5560  143.9570 O   0  0  0  0  0  0  0  0  0  0  0  0
  160.5580  201.2680  150.1540 C   0  0  0  0  0  2  0  0  0  0  0  0
  161.5000  205.5030  144.8920 C   0  0  0  0  0  0  0  0  0  0  0  0
  161.9160  206.2150  150.7300 C   0  0  1  0  0  3  0  0  0  0  0  0
  161.2120  207.0020  148.4540 C   0  0  0  0  0  0  0  0  0  0  0  0
  160.7930  206.2640  149.6810 C   0  0  1  0  0  3  0  0  0  0  0  0
  161.4530  208.2350  148.3700 O   0  0  0  0  0  0  0  0  0  0  0  0
  160.5990  204.9240  149.1260 N   0  0  0  0  0  0  0  0  0  0  0  0
  161.2310  206.0570  147.3550 C   0  0  0  0  0  0  0  0  0  0  0  0
  161.8310  202.7110  151.7120 C   0  0  0  0  0  3  0  0  0  0  0  0
  161.5370  201.4470  151.1790 O   0  0  0  0  0  0  0  0  0  0  0  0
  160.9050  204.8770  147.7570 N   0  0  0  0  0  0  0  0  0  0  0  0
  161.3460  203.8210  151.1530 C   0  0  0  0  0  0  0  0  0  0  0  0
  160.4080  203.7440  149.9710 C   0  0  2  0  0  3  0  0  0  0  0  0
  160.5970  202.4430  149.1840 C   0  0  0  0  0  2  0  0  0  0  0  0
  161.6690  206.3580  146.0270 N   0  0  0  0  0  2  0  0  0  0  0  0
  160.5260  203.3150  144.8870 F   0  0  0  0  0  0  0  0  0  0  0  0
  160.4050  204.6490  144.7690 O   0  0  0  0  0  0  0  0  0  0  0  0
  162.0680  207.5550  151.4270 C   0  0  0  0  0  2  0  0  0  0  0  0
  161.5600  207.4640  152.7830 N   0  0  0  0  0  2  0  0  0  0  0  0
  160.6290  208.4360  152.9180 O   0  0  0  0  0  0  0  0  0  0  0  0
  160.7250  208.8320  154.2520 C   0  0  0  0  0  2  0  0  0  0  0  0
  160.4220  207.7060  157.2010 C   0  0  0  0  0  2  0  0  0  0  0  0
  159.7320  207.2770  155.9200 C   0  0  0  0  0  2  0  0  0  0  0  0
  160.9800  207.6210  155.1310 C   0  0  0  0  0  3  0  0  0  0  0  0
  161.6690  208.0500  156.4120 C   0  0  0  0  0  2  0  0  0  0  0  0
  2  4  2  0  0  0  0
  3 12  1  0  0  0  0
  4 17  1  0  0  0  0
  5 20  1  1  0  0  0
  5  1  1  0  0  0  0
  7  6  1  6  0  0  0
  7  5  1  0  0  0  0
  8  6  2  0  0  0  0
  9  7  1  0  0  0  0
  9 15  1  0  0  0  0
 10 13  2  0  0  0  0
 10  6  1  0  0  0  0
 12 11  1  0  0  0  0
 13  9  1  0  0  0  0
 14 11  2  0  0  0  0
 14  1  1  0  0  0  0
 15 16  1  6  0  0  0
 15 14  1  0  0  0  0
 16  3  1  0  0  0  0
 17 10  1  0  0  0  0
 19 18  1  0  0  0  0
 19  4  1  0  0  0  0
 20 21  1  0  0  0  0
 21 22  1  0  0  0  0
 22 23  1  0  0  0  0
 23 26  1  0  0  0  0
 25 24  1  0  0  0  0
 26 25  1  0  0  0  0
 26 27  1  0  0  0  0
 27 24  1  0  0  0  0
M  END
>  <MODEL>
2

>  <REMARK>
 VINA RESULT:      -8.0      3.221      6.810
  Name = 
  6 active torsions:
  status: ('A' for Active; 'I' for Inactive)
    1  A    between atoms: C_2  and  C_7
    2  A    between atoms: C_2  and  N_26
    3  A    between atoms: C_6  and  O_27
    4  A    between atoms: C_12  and  C_13
    5  A    between atoms: C_12  and  O_22
    6  A    between atoms: O_22  and  N_26
                            x       y       z     vdW  Elec       q    Type
                         _______ _______ _______ _____ _____    ______ ____

>  <TORSDO>
F 6

$$$$
=
 OpenBabel11072412243D

 27 30  0  0  1  0  0  0  0  0999 V2000
  161.4680  205.0310  151.9640 C   0  0  0  0  0  2  0  0  0  0  0  0
  162.6300  205.6730  144.2010 O   0  0  0  0  0  0  0  0  0  0  0  0
  160.5710  201.1820  150.1640 C   0  0  0  0  0  2  0  0  0  0  0  0
  161.7400  205.5810  145.0850 C   0  0  0  0  0  0  0  0  0  0  0  0
  161.8130  206.1290  150.9550 C   0  0  1  0  0  3  0  0  0  0  0  0
  161.2270  206.9710  148.6660 C   0  0  0  0  0  0  0  0  0  0  0  0
  160.7510  206.1930  149.8450 C   0  0  1  0  0  3  0  0  0  0  0  0
  161.4520  208.2100  148.6290 O   0  0  0  0  0  0  0  0  0  0  0  0
  160.6100  204.8670  149.2430 N   0  0  0  0  0  0  0  0  0  0  0  0
  161.3230  206.0590  147.5430 C   0  0  0  0  0  0  0  0  0  0  0  0
  161.7300  202.5970  151.8320 C   0  0  0  0  0  3  0  0  0  0  0  0
  161.4870  201.3460  151.2470 O   0  0  0  0  0  0  0  0  0  0  0  0
  160.9940  204.8640  147.8930 N   0  0  0  0  0  0  0  0  0  0  0  0
  161.2600  203.7170  151.2770 C   0  0  0  0  0  0  0  0  0  0  0  0
  160.3910  203.6600  150.0420 C   0  0  2  0  0  3  0  0  0  0  0  0
  160.6450  202.3850  149.2310 C   0  0  0  0  0  2  0  0  0  0  0  0
  161.8300  206.4040  146.2510 N   0  0  0  0  0  2  0  0  0  0  0  0
  160.7980  203.3800  144.9830 F   0  0  0  0  0  0  0  0  0  0  0  0
  160.6670  204.7150  144.8750 O   0  0  0  0  0  0  0  0  0  0  0  0
  161.9040  207.4510  151.6960 C   0  0  0  0  0  2  0  0  0  0  0  0
  161.0460  207.4170  152.8660 N   0  0  0  0  0  2  0  0  0  0  0  0
  161.0220  208.6730  153.3690 O   0  0  0  0  0  0  0  0  0  0  0  0
  160.5560  209.4640  152.3170 C   0  0  0  0  0  2  0  0  0  0  0  0
  158.9520  211.3500  154.2980 C   0  0  0  0  0  2  0  0  0  0  0  0
  160.4180  210.9610  154.2980 C   0  0  0  0  0  2  0  0  0  0  0  0
  160.4040  210.9000  152.7830 C   0  0  0  0  0  3  0  0  0  0  0  0
  158.9390  211.2890  152.7840 C   0  0  0  0  0  2  0  0  0  0  0  0
  2  4  2  0  0  0  0
  3 12  1  0  0  0  0
  4 17  1  0  0  0  0
  5 20  1  1  0  0  0
  5  1  1  0  0  0  0
  7  6  1  6  0  0  0
  7  5  1  0  0  0  0
  8  6  2  0  0  0  0
  9  7  1  0  0  0  0
  9 15  1  0  0  0  0
 10 13  2  0  0  0  0
 10  6  1  0  0  0  0
 12 11  1  0  0  0  0
 13  9  1  0  0  0  0
 14 11  2  0  0  0  0
 14  1  1  0  0  0  0
 15 16  1  6  0  0  0
 15 14  1  0  0  0  0
 16  3  1  0  0  0  0
 17 10  1  0  0  0  0
 19 18  1  0  0  0  0
 19  4  1  0  0  0  0
 20 21  1  0  0  0  0
 21 22  1  0  0  0  0
 23 26  1  0  0  0  0
 23 22  1  0  0  0  0
 24 25  1  0  0  0  0
 26 27  1  0  0  0  0
 26 25  1  0  0  0  0
 27 24  1  0  0  0  0
M  END
>  <MODEL>
3

>  <REMARK>
 VINA RESULT:      -7.7      3.161      7.043
  Name = 
  6 active torsions:
  status: ('A' for Active; 'I' for Inactive)
    1  A    between atoms: C_2  and  C_7
    2  A    between atoms: C_2  and  N_26
    3  A    between atoms: C_6  and  O_27
    4  A    between atoms: C_12  and  C_13
    5  A    between atoms: C_12  and  O_22
    6  A    between atoms: O_22  and  N_26
                            x       y       z     vdW  Elec       q    Type
                         _______ _______ _______ _____ _____    ______ ____

>  <TORSDO>
F 6

$$$$
=
 OpenBabel11072412243D

 27 30  0  0  1  0  0  0  0  0999 V2000
  161.4160  204.9080  148.5120 C   0  0  0  0  0  2  0  0  0  0  0  0
  159.6470  210.5700  153.6940 O   0  0  0  0  0  0  0  0  0  0  0  0
  160.9850  203.0500  152.4130 C   0  0  0  0  0  2  0  0  0  0  0  0
  160.5660  209.7980  153.3150 C   0  0  0  0  0  0  0  0  0  0  0  0
  161.2880  206.4340  148.5270 C   0  0  1  0  0  3  0  0  0  0  0  0
  161.8370  208.4540  149.9100 C   0  0  0  0  0  0  0  0  0  0  0  0
  162.1970  207.0380  149.6090 C   0  0  1  0  0  3  0  0  0  0  0  0
  161.9690  209.4390  149.1370 O   0  0  0  0  0  0  0  0  0  0  0  0
  161.8910  206.4120  150.8950 N   0  0  0  0  0  0  0  0  0  0  0  0
  161.3650  208.5080  151.2790 C   0  0  0  0  0  0  0  0  0  0  0  0
  160.4620  203.2090  149.9990 C   0  0  0  0  0  3  0  0  0  0  0  0
  160.2750  202.6110  151.2540 O   0  0  0  0  0  0  0  0  0  0  0  0
  161.3780  207.3380  151.8160 N   0  0  0  0  0  0  0  0  0  0  0  0
  161.1670  204.3350  149.8730 C   0  0  0  0  0  0  0  0  0  0  0  0
  161.8450  204.9600  151.0700 C   0  0  2  0  0  3  0  0  0  0  0  0
  161.1530  204.5650  152.3800 C   0  0  0  0  0  2  0  0  0  0  0  0
  160.8390  209.6760  151.9160 N   0  0  0  0  0  2  0  0  0  0  0  0
  160.8490  208.0390  154.9180 F   0  0  0  0  0  0  0  0  0  0  0  0
  161.3200  209.1230  154.2750 O   0  0  0  0  0  0  0  0  0  0  0  0
  161.6560  206.9600  147.1510 C   0  0  0  0  0  2  0  0  0  0  0  0
  161.1020  206.0910  146.1290 N   0  0  0  0  0  2  0  0  0  0  0  0
  162.1060  205.8180  145.2640 O   0  0  0  0  0  0  0  0  0  0  0  0
  161.6900  204.6660  144.5950 C   0  0  0  0  0  2  0  0  0  0  0  0
  160.1670  201.9080  144.9600 C   0  0  0  0  0  2  0  0  0  0  0  0
  161.1390  202.6130  145.8870 C   0  0  0  0  0  2  0  0  0  0  0  0
  160.6230  203.9560  145.4090 C   0  0  0  0  0  3  0  0  0  0  0  0
  159.6520  203.2510  144.4830 C   0  0  0  0  0  2  0  0  0  0  0  0
  1  5  1  0  0  0  0
  1 14  1  0  0  0  0
  4  2  2  0  0  0  0
  4 19  1  0  0  0  0
  5 20  1  6  0  0  0
  5  7  1  0  0  0  0
  6 10  1  0  0  0  0
  7  6  1  1  0  0  0
  7  9  1  0  0  0  0
  8  6  2  0  0  0  0
  9 15  1  0  0  0  0
  9 13  1  0  0  0  0
 10 13  2  0  0  0  0
 10 17  1  0  0  0  0
 11 12  1  0  0  0  0
 12  3  1  0  0  0  0
 14 11  2  0  0  0  0
 14 15  1  0  0  0  0
 15 16  1  1  0  0  0
 16  3  1  0  0  0  0
 17  4  1  0  0  0  0
 19 18  1  0  0  0  0
 21 20  1  0  0  0  0
 22 21  1  0  0  0  0
 23 22  1  0  0  0  0
 23 26  1  0  0  0  0
 24 25  1  0  0  0  0
 26 25  1  0  0  0  0
 27 24  1  0  0  0  0
 27 26  1  0  0  0  0
M  END
>  <MODEL>
4

>  <REMARK>
 VINA RESULT:      -7.5      2.857      5.147
  Name = 
  6 active torsions:
  status: ('A' for Active; 'I' for Inactive)
    1  A    between atoms: C_2  and  C_7
    2  A    between atoms: C_2  and  N_26
    3  A    between atoms: C_6  and  O_27
    4  A    between atoms: C_12  and  C_13
    5  A    between atoms: C_12  and  O_22
    6  A    between atoms: O_22  and  N_26
                            x       y       z     vdW  Elec       q    Type
                         _______ _______ _______ _____ _____    ______ ____

>  <TORSDO>
F 6

$$$$
=
 OpenBabel11072412243D

 27 30  0  0  1  0  0  0  0  0999 V2000
  161.6410  208.4290  152.5700 C   0  0  0  0  0  2  0  0  0  0  0  0
  155.6160  213.3240  153.8980 O   0  0  0  0  0  0  0  0  0  0  0  0
  160.0780  207.5670  156.5280 C   0  0  0  0  0  2  0  0  0  0  0  0
  156.8120  213.0870  154.2080 C   0  0  0  0  0  0  0  0  0  0  0  0
  160.9700  209.6160  151.8750 C   0  0  1  0  0  3  0  0  0  0  0  0
  159.9800  211.8760  152.3320 C   0  0  0  0  0  0  0  0  0  0  0  0
  160.9350  210.8360  152.8110 C   0  0  1  0  0  3  0  0  0  0  0  0
  160.0980  212.5780  151.2930 O   0  0  0  0  0  0  0  0  0  0  0  0
  160.2950  210.4540  154.0700 N   0  0  0  0  0  0  0  0  0  0  0  0
  158.9170  211.9850  153.3110 C   0  0  0  0  0  0  0  0  0  0  0  0
  160.7880  206.8730  154.2610 C   0  0  0  0  0  3  0  0  0  0  0  0
  160.2470  206.5700  155.5190 O   0  0  0  0  0  0  0  0  0  0  0  0
  159.0960  211.1540  154.2780 N   0  0  0  0  0  0  0  0  0  0  0  0
  160.9910  208.1380  153.8870 C   0  0  0  0  0  0  0  0  0  0  0  0
  160.7090  209.2790  154.8370 C   0  0  2  0  0  3  0  0  0  0  0  0
  159.6680  208.8900  155.8920 C   0  0  0  0  0  2  0  0  0  0  0  0
  157.7580  212.8120  153.1700 N   0  0  0  0  0  2  0  0  0  0  0  0
  156.8690  212.1740  156.4230 F   0  0  0  0  0  0  0  0  0  0  0  0
  157.1870  213.1470  155.5500 O   0  0  0  0  0  0  0  0  0  0  0  0
  161.7390  209.9290  150.6050 C   0  0  0  0  0  2  0  0  0  0  0  0
  162.3340  208.7130  150.0810 N   0  0  0  0  0  2  0  0  0  0  0  0
  161.5580  208.3120  149.0480 O   0  0  0  0  0  0  0  0  0  0  0  0
  161.9770  207.0090  148.7770 C   0  0  0  0  0  2  0  0  0  0  0  0
  161.1940  204.1380  149.8740 C   0  0  0  0  0  2  0  0  0  0  0  0
  160.8110  205.5140  150.3860 C   0  0  0  0  0  2  0  0  0  0  0  0
  160.8190  206.0470  148.9670 C   0  0  0  0  0  3  0  0  0  0  0  0
  161.2020  204.6720  148.4550 C   0  0  0  0  0  2  0  0  0  0  0  0
  1 14  1  0  0  0  0
  2  4  2  0  0  0  0
  4 19  1  0  0  0  0
  5 20  1  6  0  0  0
  5  1  1  0  0  0  0
  5  7  1  0  0  0  0
  6 10  1  0  0  0  0
  7  6  1  6  0  0  0
  7  9  1  0  0  0  0
  8  6  2  0  0  0  0
  9 13  1  0  0  0  0
  9 15  1  0  0  0  0
 10 13  2  0  0  0  0
 11 12  1  0  0  0  0
 12  3  1  0  0  0  0
 14 11  2  0  0  0  0
 14 15  1  0  0  0  0
 15 16  1  1  0  0  0
 16  3  1  0  0  0  0
 17 10  1  0  0  0  0
 17  4  1  0  0  0  0
 19 18  1  0  0  0  0
 21 20  1  0  0  0  0
 22 21  1  0  0  0  0
 23 26  1  0  0  0  0
 23 22  1  0  0  0  0
 24 25  1  0  0  0  0
 26 25  1  0  0  0  0
 27 26  1  0  0  0  0
 27 24  1  0  0  0  0
M  END
>  <MODEL>
5

>  <REMARK>
 VINA RESULT:      -7.2      3.540      5.213
  Name = 
  6 active torsions:
  status: ('A' for Active; 'I' for Inactive)
    1  A    between atoms: C_2  and  C_7
    2  A    between atoms: C_2  and  N_26
    3  A    between atoms: C_6  and  O_27
    4  A    between atoms: C_12  and  C_13
    5  A    between atoms: C_12  and  O_22
    6  A    between atoms: O_22  and  N_26
                            x       y       z     vdW  Elec       q    Type
                         _______ _______ _______ _____ _____    ______ ____

>  <TORSDO>
F 6

$$$$
=
 OpenBabel11072412243D

 27 30  0  0  1  0  0  0  0  0999 V2000
  161.2570  206.9010  152.5390 C   0  0  0  0  0  2  0  0  0  0  0  0
  160.6920  212.5640  147.0950 O   0  0  0  0  0  0  0  0  0  0  0  0
  161.1030  210.7170  154.6040 C   0  0  0  0  0  2  0  0  0  0  0  0
  161.4770  212.0330  147.9220 C   0  0  0  0  0  0  0  0  0  0  0  0
  161.2870  207.0150  151.0120 C   0  0  1  0  0  3  0  0  0  0  0  0
  162.1960  208.4280  149.1490 C   0  0  0  0  0  0  0  0  0  0  0  0
  162.3740  208.0070  150.5690 C   0  0  1  0  0  3  0  0  0  0  0  0
  162.3350  207.6990  148.1320 O   0  0  0  0  0  0  0  0  0  0  0  0
  162.1600  209.2850  151.2480 N   0  0  0  0  0  0  0  0  0  0  0  0
  161.8970  209.8460  149.1420 C   0  0  0  0  0  0  0  0  0  0  0  0
  160.3190  208.3980  154.2370 C   0  0  0  0  0  3  0  0  0  0  0  0
  160.2220  209.6320  154.8970 O   0  0  0  0  0  0  0  0  0  0  0  0
  161.8540  210.3120  150.3420 N   0  0  0  0  0  0  0  0  0  0  0  0
  161.1140  208.2480  153.1750 C   0  0  0  0  0  0  0  0  0  0  0  0
  161.9880  209.3850  152.6980 C   0  0  2  0  0  3  0  0  0  0  0  0
  161.4190  210.7460  153.1130 C   0  0  0  0  0  2  0  0  0  0  0  0
  161.5700  210.6060  147.9760 N   0  0  0  0  0  2  0  0  0  0  0  0
  163.3260  213.5230  148.2380 F   0  0  0  0  0  0  0  0  0  0  0  0
  162.2670  212.8540  148.7270 O   0  0  0  0  0  0  0  0  0  0  0  0
  161.5420  205.6350  150.4320 C   0  0  0  0  0  2  0  0  0  0  0  0
  160.5060  205.3090  149.4690 N   0  0  0  0  0  2  0  0  0  0  0  0
  160.6490  203.9970  149.1710 O   0  0  0  0  0  0  0  0  0  0  0  0
  161.7460  203.9500  148.3100 C   0  0  0  0  0  2  0  0  0  0  0  0
  162.5290  204.0270  145.2380 C   0  0  0  0  0  2  0  0  0  0  0  0
  161.2920  203.4660  145.9130 C   0  0  0  0  0  2  0  0  0  0  0  0
  161.3730  204.5520  146.9680 C   0  0  0  0  0  3  0  0  0  0  0  0
  162.6090  205.1130  146.2920 C   0  0  0  0  0  2  0  0  0  0  0  0
  1 14  1  0  0  0  0
  2  4  2  0  0  0  0
  3 12  1  0  0  0  0
  4 17  1  0  0  0  0
  4 19  1  0  0  0  0
  5 20  1  6  0  0  0
  5  1  1  0  0  0  0
  7  6  1  6  0  0  0
  7  5  1  0  0  0  0
  7  9  1  0  0  0  0
  8  6  2  0  0  0  0
  9 15  1  0  0  0  0
 10  6  1  0  0  0  0
 10 13  2  0  0  0  0
 11 12  1  0  0  0  0
 13  9  1  0  0  0  0
 14 11  2  0  0  0  0
 15 16  1  6  0  0  0
 15 14  1  0  0  0  0
 16  3  1  0  0  0  0
 17 10  1  0  0  0  0
 18 19  1  0  0  0  0
 21 20  1  0  0  0  0
 22 21  1  0  0  0  0
 23 22  1  0  0  0  0
 24 25  1  0  0  0  0
 24 27  1  0  0  0  0
 25 26  1  0  0  0  0
 26 23  1  0  0  0  0
 27 26  1  0  0  0  0
M  END
>  <MODEL>
6

>  <REMARK>
 VINA RESULT:      -7.1      1.581      1.867
  Name = 
  6 active torsions:
  status: ('A' for Active; 'I' for Inactive)
    1  A    between atoms: C_2  and  C_7
    2  A    between atoms: C_2  and  N_26
    3  A    between atoms: C_6  and  O_27
    4  A    between atoms: C_12  and  C_13
    5  A    between atoms: C_12  and  O_22
    6  A    between atoms: O_22  and  N_26
                            x       y       z     vdW  Elec       q    Type
                         _______ _______ _______ _____ _____    ______ ____

>  <TORSDO>
F 6

$$$$
=
 OpenBabel11072412243D

 27 30  0  0  1  0  0  0  0  0999 V2000
  161.7690  205.1180  150.2650 C   0  0  0  0  0  2  0  0  0  0  0  0
  163.4630  212.4720  148.0100 O   0  0  0  0  0  0  0  0  0  0  0  0
  160.8320  205.4600  146.0390 C   0  0  0  0  0  2  0  0  0  0  0  0
  162.5130  211.6860  148.2610 C   0  0  0  0  0  0  0  0  0  0  0  0
  162.2250  206.4280  150.9140 C   0  0  1  0  0  3  0  0  0  0  0  0
  161.8260  208.9040  150.8710 C   0  0  0  0  0  0  0  0  0  0  0  0
  161.2410  207.5620  150.5840 C   0  0  1  0  0  3  0  0  0  0  0  0
  162.1040  209.3700  152.0070 O   0  0  0  0  0  0  0  0  0  0  0  0
  161.0850  207.6510  149.1320 N   0  0  0  0  0  0  0  0  0  0  0  0
  161.9570  209.6080  149.6110 C   0  0  0  0  0  0  0  0  0  0  0  0
  161.9370  204.3370  147.9480 C   0  0  0  0  0  3  0  0  0  0  0  0
  161.6810  204.4440  146.5730 O   0  0  0  0  0  0  0  0  0  0  0  0
  161.5560  208.8740  148.6300 N   0  0  0  0  0  0  0  0  0  0  0  0
  161.5510  205.2950  148.7940 C   0  0  0  0  0  0  0  0  0  0  0  0
  160.7640  206.4870  148.3040 C   0  0  2  0  0  3  0  0  0  0  0  0
  161.0170  206.7580  146.8170 C   0  0  0  0  0  2  0  0  0  0  0  0
  162.5610  210.8940  149.4520 N   0  0  0  0  0  2  0  0  0  0  0  0
  160.2660  212.2770  147.6760 F   0  0  0  0  0  0  0  0  0  0  0  0
  161.4210  211.6470  147.3940 O   0  0  0  0  0  0  0  0  0  0  0  0
  162.3230  206.2130  152.4140 C   0  0  0  0  0  2  0  0  0  0  0  0
  161.2240  205.3770  152.8620 N   0  0  0  0  0  2  0  0  0  0  0  0
  160.5780  206.0670  153.8290 O   0  0  0  0  0  0  0  0  0  0  0  0
  161.5260  206.9700  154.3100 C   0  0  0  0  0  2  0  0  0  0  0  0
  160.4560  207.4260  157.2610 C   0  0  0  0  0  2  0  0  0  0  0  0
  161.6160  208.0790  156.5340 C   0  0  0  0  0  2  0  0  0  0  0  0
  160.8570  207.9790  155.2260 C   0  0  0  0  0  3  0  0  0  0  0  0
  159.6980  207.3250  155.9530 C   0  0  0  0  0  2  0  0  0  0  0  0
  1  5  1  0  0  0  0
  2  4  2  0  0  0  0
  3 12  1  0  0  0  0
  3 16  1  0  0  0  0
  4 17  1  0  0  0  0
  5 20  1  1  0  0  0
  6  8  2  0  0  0  0
  7  6  1  6  0  0  0
  7  5  1  0  0  0  0
  9  7  1  0  0  0  0
 10  6  1  0  0  0  0
 11 14  2  0  0  0  0
 12 11  1  0  0  0  0
 13  9  1  0  0  0  0
 13 10  2  0  0  0  0
 14  1  1  0  0  0  0
 15 16  1  6  0  0  0
 15 14  1  0  0  0  0
 15  9  1  0  0  0  0
 17 10  1  0  0  0  0
 19 18  1  0  0  0  0
 19  4  1  0  0  0  0
 20 21  1  0  0  0  0
 21 22  1  0  0  0  0
 22 23  1  0  0  0  0
 23 26  1  0  0  0  0
 25 24  1  0  0  0  0
 26 27  1  0  0  0  0
 26 25  1  0  0  0  0
 27 24  1  0  0  0  0
M  END
>  <MODEL>
7

>  <REMARK>
 VINA RESULT:      -7.1      2.349      5.719
  Name = 
  6 active torsions:
  status: ('A' for Active; 'I' for Inactive)
    1  A    between atoms: C_2  and  C_7
    2  A    between atoms: C_2  and  N_26
    3  A    between atoms: C_6  and  O_27
    4  A    between atoms: C_12  and  C_13
    5  A    between atoms: C_12  and  O_22
    6  A    between atoms: O_22  and  N_26
                            x       y       z     vdW  Elec       q    Type
                         _______ _______ _______ _____ _____    ______ ____

>  <TORSDO>
F 6

$$$$
=
 OpenBabel11072412243D

 27 30  0  0  1  0  0  0  0  0999 V2000
  161.5040  206.2190  151.1490 C   0  0  0  0  0  2  0  0  0  0  0  0
  162.8800  211.1230  157.1560 O   0  0  0  0  0  0  0  0  0  0  0  0
  161.9160  210.2250  149.5250 C   0  0  0  0  0  2  0  0  0  0  0  0
  162.0070  210.7660  156.3230 C   0  0  0  0  0  0  0  0  0  0  0  0
  161.5630  206.1530  152.6780 C   0  0  1  0  0  3  0  0  0  0  0  0
  160.8870  207.4100  154.7410 C   0  0  0  0  0  0  0  0  0  0  0  0
  160.5980  207.1790  153.2960 C   0  0  1  0  0  3  0  0  0  0  0  0
  160.7310  206.5810  155.6760 O   0  0  0  0  0  0  0  0  0  0  0  0
  160.8990  208.5040  152.7550 N   0  0  0  0  0  0  0  0  0  0  0  0
  161.3200  208.7850  154.8910 C   0  0  0  0  0  0  0  0  0  0  0  0
  162.4940  207.8180  149.5780 C   0  0  0  0  0  3  0  0  0  0  0  0
  162.6750  209.1080  149.0580 O   0  0  0  0  0  0  0  0  0  0  0  0
  161.3460  209.3850  153.7510 N   0  0  0  0  0  0  0  0  0  0  0  0
  161.7430  207.6140  150.6620 C   0  0  0  0  0  0  0  0  0  0  0  0
  161.0060  208.7600  151.3180 C   0  0  2  0  0  3  0  0  0  0  0  0
  161.6810  210.1040  151.0260 C   0  0  0  0  0  2  0  0  0  0  0  0
  161.7760  209.3690  156.1140 N   0  0  0  0  0  2  0  0  0  0  0  0
  159.9450  211.9110  155.9000 F   0  0  0  0  0  0  0  0  0  0  0  0
  161.2590  211.7430  155.6660 O   0  0  0  0  0  0  0  0  0  0  0  0
  161.2070  204.7420  153.1120 C   0  0  0  0  0  2  0  0  0  0  0  0
  160.5450  204.0460  152.0240 N   0  0  0  0  0  2  0  0  0  0  0  0
  160.9470  202.7560  152.0840 O   0  0  0  0  0  0  0  0  0  0  0  0
  161.5120  202.5050  150.8330 C   0  0  0  0  0  2  0  0  0  0  0  0
  160.8190  202.0100  147.7780 C   0  0  0  0  0  2  0  0  0  0  0  0
  160.0990  201.5410  149.0280 C   0  0  0  0  0  2  0  0  0  0  0  0
  160.5040  202.8160  149.7420 C   0  0  0  0  0  3  0  0  0  0  0  0
  161.2240  203.2830  148.4930 C   0  0  0  0  0  2  0  0  0  0  0  0
  1  5  1  0  0  0  0
  3 16  1  0  0  0  0
  4  2  2  0  0  0  0
  5 20  1  6  0  0  0
  5  7  1  0  0  0  0
  6 10  1  0  0  0  0
  6  8  2  0  0  0  0
  7  6  1  1  0  0  0
  9  7  1  0  0  0  0
  9 13  1  0  0  0  0
 10 17  1  0  0  0  0
 11 14  2  0  0  0  0
 12  3  1  0  0  0  0
 12 11  1  0  0  0  0
 13 10  2  0  0  0  0
 14  1  1  0  0  0  0
 14 15  1  0  0  0  0
 15 16  1  1  0  0  0
 15  9  1  0  0  0  0
 17  4  1  0  0  0  0
 19 18  1  0  0  0  0
 19  4  1  0  0  0  0
 21 22  1  0  0  0  0
 21 20  1  0  0  0  0
 23 22  1  0  0  0  0
 24 27  1  0  0  0  0
 24 25  1  0  0  0  0
 25 26  1  0  0  0  0
 26 23  1  0  0  0  0
 27 26  1  0  0  0  0
M  END
>  <MODEL>
8

>  <REMARK>
 VINA RESULT:      -6.9      2.563      4.896
  Name = 
  6 active torsions:
  status: ('A' for Active; 'I' for Inactive)
    1  A    between atoms: C_2  and  C_7
    2  A    between atoms: C_2  and  N_26
    3  A    between atoms: C_6  and  O_27
    4  A    between atoms: C_12  and  C_13
    5  A    between atoms: C_12  and  O_22
    6  A    between atoms: O_22  and  N_26
                            x       y       z     vdW  Elec       q    Type
                         _______ _______ _______ _____ _____    ______ ____

>  <TORSDO>
F 6

$$$$
=
 OpenBabel11072412243D

 27 30  0  0  1  0  0  0  0  0999 V2000
  161.8810  206.4490  148.9350 C   0  0  0  0  0  2  0  0  0  0  0  0
  159.3360  209.4540  155.7550 O   0  0  0  0  0  0  0  0  0  0  0  0
  160.8800  203.1340  151.5550 C   0  0  0  0  0  2  0  0  0  0  0  0
  160.3040  208.8630  155.2100 C   0  0  0  0  0  0  0  0  0  0  0  0
  161.7460  207.8270  149.5870 C   0  0  1  0  0  3  0  0  0  0  0  0
  162.0740  209.0270  151.7660 C   0  0  0  0  0  0  0  0  0  0  0  0
  162.4820  207.8560  150.9370 C   0  0  1  0  0  3  0  0  0  0  0  0
  162.3160  210.2370  151.5190 O   0  0  0  0  0  0  0  0  0  0  0  0
  161.9900  206.7600  151.7730 N   0  0  0  0  0  0  0  0  0  0  0  0
  161.4030  208.5200  152.9470 C   0  0  0  0  0  0  0  0  0  0  0  0
  160.7230  204.3390  149.3980 C   0  0  0  0  0  3  0  0  0  0  0  0
  160.3540  203.2760  150.2350 O   0  0  0  0  0  0  0  0  0  0  0  0
  161.3400  207.2340  152.9240 N   0  0  0  0  0  0  0  0  0  0  0  0
  161.4340  205.3660  149.8680 C   0  0  0  0  0  0  0  0  0  0  0  0
  161.9230  205.3780  151.2970 C   0  0  2  0  0  3  0  0  0  0  0  0
  161.0460  204.5050  152.2010 C   0  0  0  0  0  2  0  0  0  0  0  0
  160.7840  209.3340  153.9470 N   0  0  0  0  0  2  0  0  0  0  0  0
  160.3490  206.5770  155.9250 F   0  0  0  0  0  0  0  0  0  0  0  0
  160.9090  207.7990  155.8780 O   0  0  0  0  0  0  0  0  0  0  0  0
  162.3130  208.8670  148.6380 C   0  0  0  0  0  2  0  0  0  0  0  0
  161.4700  210.0490  148.6450 N   0  0  0  0  0  2  0  0  0  0  0  0
  162.2840  211.1090  148.4350 O   0  0  0  0  0  0  0  0  0  0  0  0
  161.5300  212.2150  148.8280 C   0  0  0  0  0  2  0  0  0  0  0  0
  161.5400  213.2830  145.8420 C   0  0  0  0  0  2  0  0  0  0  0  0
  160.7190  213.7350  147.0350 C   0  0  0  0  0  2  0  0  0  0  0  0
  161.8770  213.4090  147.9580 C   0  0  0  0  0  3  0  0  0  0  0  0
  162.6960  212.9580  146.7660 C   0  0  0  0  0  2  0  0  0  0  0  0
  1  5  1  0  0  0  0
  1 14  1  0  0  0  0
  3 16  1  0  0  0  0
  4  2  2  0  0  0  0
  4 19  1  0  0  0  0
  5 20  1  6  0  0  0
  5  7  1  0  0  0  0
  6 10  1  0  0  0  0
  7  6  1  1  0  0  0
  7  9  1  0  0  0  0
  8  6  2  0  0  0  0
  9 13  1  0  0  0  0
 10 17  1  0  0  0  0
 11 14  2  0  0  0  0
 11 12  1  0  0  0  0
 12  3  1  0  0  0  0
 13 10  2  0  0  0  0
 14 15  1  0  0  0  0
 15  9  1  0  0  0  0
 15 16  1  1  0  0  0
 17  4  1  0  0  0  0
 19 18  1  0  0  0  0
 20 21  1  0  0  0  0
 22 21  1  0  0  0  0
 22 23  1  0  0  0  0
 24 27  1  0  0  0  0
 24 25  1  0  0  0  0
 25 26  1  0  0  0  0
 26 23  1  0  0  0  0
 27 26  1  0  0  0  0
M  END
>  <MODEL>
9

>  <REMARK>
 VINA RESULT:      -6.9      2.732      7.430
  Name = 
  6 active torsions:
  status: ('A' for Active; 'I' for Inactive)
    1  A    between atoms: C_2  and  C_7
    2  A    between atoms: C_2  and  N_26
    3  A    between atoms: C_6  and  O_27
    4  A    between atoms: C_12  and  C_13
    5  A    between atoms: C_12  and  O_22
    6  A    between atoms: O_22  and  N_26
                            x       y       z     vdW  Elec       q    Type
                         _______ _______ _______ _____ _____    ______ ____

>  <TORSDO>
F 6

$$$$
