=
 OpenBabel11072413083D

 35 39  0  0  1  0  0  0  0  0999 V2000
  161.2760  211.0300  152.8040 C   0  0  0  0  0  1  0  0  0  0  0  0
  159.7780  210.7570  156.1000 C   0  0  0  0  0  0  0  0  0  0  0  0
  160.1710  212.9480  151.6610 C   0  0  0  0  0  0  0  0  0  0  0  0
  161.1500  212.8620  150.5290 C   0  0  0  0  0  2  0  0  0  0  0  0
  160.4470  207.7350  152.6330 C   0  0  0  0  0  2  0  0  0  0  0  0
  158.7440  213.3610  154.0320 N   0  0  0  0  0  0  0  0  0  0  0  0
  158.3980  214.1720  152.8640 C   0  0  0  0  0  2  0  0  0  0  0  0
  161.2250  208.7140  147.7100 O   0  0  0  0  0  0  0  0  0  0  0  0
  158.9500  210.8150  151.9920 C   0  0  0  0  0  1  0  0  0  0  0  0
  161.5380  209.2930  148.7390 C   0  0  0  0  0  0  0  0  0  0  0  0
  162.3750  210.5380  148.6560 C   0  0  2  0  0  3  0  0  0  0  0  0
  161.0480  208.7750  150.0550 C   0  0  0  0  0  2  0  0  0  0  0  0
  159.6040  211.4580  155.1360 C   0  0  0  0  0  0  0  0  0  0  0  0
  161.5390  207.7070  153.6860 C   0  0  2  0  0  3  0  0  0  0  0  0
  160.5070  212.1950  149.3200 C   0  0  0  0  0  2  0  0  0  0  0  0
  162.3880  206.8320  152.7810 C   0  0  2  0  0  3  0  0  0  0  0  0
  163.0790  210.7570  149.8430 O   0  0  0  0  0  1  0  0  0  0  0  0
  159.1300  206.9260  156.4390 C   0  0  0  0  0  1  0  0  0  0  0  0
  159.9570  211.7720  152.6060 C   0  0  0  0  0  0  0  0  0  0  0  0
  161.5310  211.7590  148.2580 C   0  0  1  0  0  3  0  0  0  0  0  0
  160.1640  207.8060  155.7630 C   0  0  1  0  0  3  0  0  0  0  0  0
  159.4220  212.2540  153.9470 C   0  0  0  0  0  0  0  0  0  0  0  0
  160.8900  208.6570  156.8220 C   0  0  2  0  0  3  0  0  0  0  0  0
  162.6670  207.5900  151.5090 C   0  0  2  0  0  3  0  0  0  0  0  0
  159.4540  214.0720  151.8010 C   0  0  0  0  0  3  0  0  0  0  0  0
  161.0820  206.9320  154.9150 C   0  0  0  0  0  2  0  0  0  0  0  0
  161.3090  206.8600  151.7360 C   0  0  2  0  0  0  0  0  0  0  0  0
  161.6870  207.4270  150.3770 C   0  0  1  0  0  3  0  0  0  0  0  0
  160.0240  209.8540  157.2360 C   0  0  0  0  0  2  0  0  0  0  0  0
  162.3660  212.9060  147.6760 C   0  0  0  0  0  0  0  0  0  0  0  0
  163.6040  212.9760  148.2920 F   0  0  0  0  0  0  0  0  0  0  0  0
  162.5510  212.6980  146.3220 F   0  0  0  0  0  0  0  0  0  0  0  0
  161.7030  214.1070  147.8530 F   0  0  0  0  0  0  0  0  0  0  0  0
  162.7350  210.1240  157.2610 O   0  0  0  0  0  1  0  0  0  0  0  0
  162.2860  209.1200  156.4030 C   0  0  0  0  0  2  0  0  0  0  0  0
  2 29  1  0  0  0  0
  3 25  2  0  0  0  0
  3 19  1  0  0  0  0
  4  3  1  0  0  0  0
  7  6  1  0  0  0  0
  8 10  2  0  0  0  0
  9 19  1  0  0  0  0
 10 12  1  0  0  0  0
 11 10  1  0  0  0  0
 11 17  1  1  0  0  0
 12 28  1  0  0  0  0
 13  2  3  0  0  0  0
 14  5  1  6  0  0  0
 14 26  1  0  0  0  0
 15  4  1  0  0  0  0
 16 14  1  0  0  0  0
 19  1  1  0  0  0  0
 19 22  1  0  0  0  0
 20 11  1  0  0  0  0
 20 15  1  0  0  0  0
 21 18  1  0  0  0  0
 21 23  1  0  0  0  0
 22  6  2  0  0  0  0
 22 13  1  0  0  0  0
 23 29  1  0  0  0  0
 24 27  1  0  0  0  0
 24 16  1  0  0  0  0
 25  7  1  0  0  0  0
 26 21  1  0  0  0  0
 27  5  1  0  0  0  0
 27 16  1  0  0  0  0
 28 24  1  0  0  0  0
 28 27  1  0  0  0  0
 30 33  1  0  0  0  0
 30 20  1  0  0  0  0
 30 31  1  0  0  0  0
 32 30  1  0  0  0  0
 35 23  1  0  0  0  0
 35 34  1  0  0  0  0
M  END
>  <MODEL>
1

>  <REMARK>
 VINA RESULT:      -1.7      0.000      0.000
  Name = 
  2 active torsions:
  status: ('A' for Active; 'I' for Inactive)
    1  A    between atoms: C_2  and  C_24
    2  A    between atoms: C_22  and  C_27
                            x       y       z     vdW  Elec       q    Type
                         _______ _______ _______ _____ _____    ______ ____

>  <TORSDO>
F 2

$$$$
=
 OpenBabel11072413083D

 35 39  0  0  1  0  0  0  0  0999 V2000
  159.8950  209.5780  151.9900 C   0  0  0  0  0  1  0  0  0  0  0  0
  162.2150  207.8860  149.7670 C   0  0  0  0  0  0  0  0  0  0  0  0
  160.0130  212.0070  151.4500 C   0  0  0  0  0  0  0  0  0  0  0  0
  158.8470  212.2830  152.3510 C   0  0  0  0  0  2  0  0  0  0  0  0
  161.6270  207.8820  154.3780 C   0  0  0  0  0  2  0  0  0  0  0  0
  161.8110  211.3270  149.4170 N   0  0  0  0  0  0  0  0  0  0  0  0
  161.5710  212.7460  149.6850 C   0  0  0  0  0  2  0  0  0  0  0  0
  159.3200  211.3700  157.2610 O   0  0  0  0  0  0  0  0  0  0  0  0
  161.8750  210.9010  152.6580 C   0  0  0  0  0  1  0  0  0  0  0  0
  159.1250  210.9580  156.1270 C   0  0  0  0  0  0  0  0  0  0  0  0
  157.9540  211.4820  155.3470 C   0  0  2  0  0  3  0  0  0  0  0  0
  160.0790  209.9730  155.5260 C   0  0  0  0  0  2  0  0  0  0  0  0
  161.9040  209.0320  149.9690 C   0  0  0  0  0  0  0  0  0  0  0  0
  160.9140  206.7440  153.6710 C   0  0  2  0  0  3  0  0  0  0  0  0
  159.3230  212.8880  153.6660 C   0  0  0  0  0  2  0  0  0  0  0  0
  160.1700  206.4140  154.9530 C   0  0  2  0  0  3  0  0  0  0  0  0
  157.5540  210.5760  154.3610 O   0  0  0  0  0  1  0  0  0  0  0  0
  164.0800  205.4400  152.1650 C   0  0  0  0  0  1  0  0  0  0  0  0
  160.8190  210.7210  151.5800 C   0  0  0  0  0  0  0  0  0  0  0  0
  158.2440  212.8730  154.7610 C   0  0  1  0  0  3  0  0  0  0  0  0
  162.6850  206.0290  152.0700 C   0  0  1  0  0  3  0  0  0  0  0  0
  161.5110  210.3880  150.2660 C   0  0  0  0  0  0  0  0  0  0  0  0
  162.0370  205.6070  150.7370 C   0  0  2  0  0  3  0  0  0  0  0  0
  159.3470  207.6130  155.3490 C   0  0  2  0  0  3  0  0  0  0  0  0
  160.3570  212.9370  150.5480 C   0  0  0  0  0  3  0  0  0  0  0  0
  161.8930  205.6340  153.3120 C   0  0  0  0  0  2  0  0  0  0  0  0
  160.8740  207.5410  155.6540 C   0  0  2  0  0  0  0  0  0  0  0  0
  159.9960  208.6320  156.2490 C   0  0  1  0  0  3  0  0  0  0  0  0
  162.5660  206.4690  149.5840 C   0  0  0  0  0  2  0  0  0  0  0  0
  156.9730  213.6550  154.4070 C   0  0  0  0  0  0  0  0  0  0  0  0
  157.1780  214.4520  153.2930 F   0  0  0  0  0  0  0  0  0  0  0  0
  155.9480  212.7670  154.1390 F   0  0  0  0  0  0  0  0  0  0  0  0
  156.6000  214.4530  155.4720 F   0  0  0  0  0  0  0  0  0  0  0  0
  160.0220  204.3080  150.6750 O   0  0  0  0  0  1  0  0  0  0  0  0
  160.5070  205.6130  150.7570 C   0  0  0  0  0  2  0  0  0  0  0  0
  2 13  3  0  0  0  0
  3 19  1  0  0  0  0
  3  4  1  0  0  0  0
  4 15  1  0  0  0  0
  5 27  1  0  0  0  0
  6  7  1  0  0  0  0
  6 22  2  0  0  0  0
  7 25  1  0  0  0  0
 10  8  2  0  0  0  0
 11 17  1  6  0  0  0
 11 10  1  0  0  0  0
 12 10  1  0  0  0  0
 12 28  1  0  0  0  0
 13 22  1  0  0  0  0
 14 26  1  1  0  0  0
 14  5  1  0  0  0  0
 14 16  1  0  0  0  0
 15 20  1  0  0  0  0
 16 24  1  0  0  0  0
 16 27  1  0  0  0  0
 19  1  1  0  0  0  0
 19  9  1  0  0  0  0
 20 11  1  0  0  0  0
 21 18  1  0  0  0  0
 21 26  1  0  0  0  0
 22 19  1  0  0  0  0
 23 35  1  0  0  0  0
 23 21  1  0  0  0  0
 24 27  1  0  0  0  0
 24 28  1  0  0  0  0
 25  3  2  0  0  0  0
 27 28  1  0  0  0  0
 29  2  1  0  0  0  0
 29 23  1  0  0  0  0
 30 20  1  0  0  0  0
 30 33  1  0  0  0  0
 31 30  1  0  0  0  0
 32 30  1  0  0  0  0
 34 35  1  0  0  0  0
M  END
>  <MODEL>
2

>  <REMARK>
 VINA RESULT:      -0.5      3.296      6.204
  Name = 
  2 active torsions:
  status: ('A' for Active; 'I' for Inactive)
    1  A    between atoms: C_2  and  C_24
    2  A    between atoms: C_22  and  C_27
                            x       y       z     vdW  Elec       q    Type
                         _______ _______ _______ _____ _____    ______ ____

>  <TORSDO>
F 2

$$$$
=
 OpenBabel11072413083D

 35 39  0  0  1  0  0  0  0  0999 V2000
  161.5590  210.9560  151.4740 C   0  0  0  0  0  1  0  0  0  0  0  0
  161.8250  211.4170  147.8830 C   0  0  0  0  0  0  0  0  0  0  0  0
  161.9510  208.5380  151.9270 C   0  0  0  0  0  0  0  0  0  0  0  0
  161.9760  208.7990  153.4030 C   0  0  0  0  0  2  0  0  0  0  0  0
  158.5840  212.5410  151.0180 C   0  0  0  0  0  2  0  0  0  0  0  0
  162.4100  208.2400  149.1830 N   0  0  0  0  0  0  0  0  0  0  0  0
  162.3750  207.0360  150.0160 C   0  0  0  0  0  2  0  0  0  0  0  0
  157.8240  210.5320  155.6210 O   0  0  0  0  0  0  0  0  0  0  0  0
  159.8270  209.2900  150.8910 C   0  0  0  0  0  1  0  0  0  0  0  0
  158.8250  210.7390  154.9520 C   0  0  0  0  0  0  0  0  0  0  0  0
  160.1740  210.4220  155.5310 C   0  0  2  0  0  3  0  0  0  0  0  0
  158.6840  211.2640  153.5570 C   0  0  0  0  0  2  0  0  0  0  0  0
  161.8810  210.4750  148.6310 C   0  0  0  0  0  0  0  0  0  0  0  0
  159.5610  213.6640  150.7210 C   0  0  2  0  0  3  0  0  0  0  0  0
  160.6620  208.3680  154.0420 C   0  0  0  0  0  2  0  0  0  0  0  0
  159.0150  214.4490  151.9000 C   0  0  2  0  0  3  0  0  0  0  0  0
  161.1790  211.1810  154.9240 O   0  0  0  0  0  1  0  0  0  0  0  0
  158.7450  213.6670  147.0700 C   0  0  0  0  0  1  0  0  0  0  0  0
  161.3250  209.5370  150.9630 C   0  0  0  0  0  0  0  0  0  0  0  0
  160.4760  208.9170  155.4660 C   0  0  1  0  0  3  0  0  0  0  0  0
  159.6980  213.4960  148.2380 C   0  0  1  0  0  3  0  0  0  0  0  0
  161.9160  209.3790  149.5700 C   0  0  0  0  0  0  0  0  0  0  0  0
  161.1370  213.8000  147.7790 C   0  0  2  0  0  3  0  0  0  0  0  0
  159.2370  213.6450  153.1550 C   0  0  2  0  0  3  0  0  0  0  0  0
  162.4580  207.3830  151.4750 C   0  0  0  0  0  3  0  0  0  0  0  0
  159.2120  214.3480  149.4060 C   0  0  0  0  0  2  0  0  0  0  0  0
  158.0470  213.3390  152.1960 C   0  0  2  0  0  0  0  0  0  0  0  0
  158.1470  212.6920  153.5690 C   0  0  1  0  0  3  0  0  0  0  0  0
  161.7250  212.6040  147.0200 C   0  0  0  0  0  2  0  0  0  0  0  0
  161.5580  208.4750  156.4600 C   0  0  0  0  0  0  0  0  0  0  0  0
  161.1010  207.4430  157.2600 F   0  0  0  0  0  0  0  0  0  0  0  0
  162.6710  208.0430  155.7630 F   0  0  0  0  0  0  0  0  0  0  0  0
  161.9240  209.5410  157.2600 F   0  0  0  0  0  0  0  0  0  0  0  0
  163.3650  214.4260  148.4120 O   0  0  0  0  0  1  0  0  0  0  0  0
  162.0740  214.2360  148.9070 C   0  0  0  0  0  2  0  0  0  0  0  0
  2 13  3  0  0  0  0
  3  4  1  0  0  0  0
  4 15  1  0  0  0  0
  5 27  1  0  0  0  0
  6 22  2  0  0  0  0
  6  7  1  0  0  0  0
  7 25  1  0  0  0  0
  9 19  1  0  0  0  0
 10 11  1  0  0  0  0
 10  8  2  0  0  0  0
 11 17  1  6  0  0  0
 12 28  1  0  0  0  0
 12 10  1  0  0  0  0
 13 22  1  0  0  0  0
 14 26  1  6  0  0  0
 14  5  1  0  0  0  0
 14 16  1  0  0  0  0
 15 20  1  0  0  0  0
 16 27  1  0  0  0  0
 16 24  1  0  0  0  0
 18 21  1  0  0  0  0
 19  1  1  0  0  0  0
 19  3  1  0  0  0  0
 20 11  1  0  0  0  0
 20 30  1  0  0  0  0
 21 26  1  0  0  0  0
 22 19  1  0  0  0  0
 23 21  1  0  0  0  0
 23 35  1  0  0  0  0
 24 28  1  0  0  0  0
 25  3  2  0  0  0  0
 27 24  1  0  0  0  0
 27 28  1  0  0  0  0
 29 23  1  0  0  0  0
 29  2  1  0  0  0  0
 30 31  1  0  0  0  0
 30 33  1  0  0  0  0
 32 30  1  0  0  0  0
 34 35  1  0  0  0  0
M  END
>  <MODEL>
3

>  <REMARK>
 VINA RESULT:       0.0      3.650      7.911
  Name = 
  2 active torsions:
  status: ('A' for Active; 'I' for Inactive)
    1  A    between atoms: C_2  and  C_24
    2  A    between atoms: C_22  and  C_27
                            x       y       z     vdW  Elec       q    Type
                         _______ _______ _______ _____ _____    ______ ____

>  <TORSDO>
F 2

$$$$
=
 OpenBabel11072413083D

 35 39  0  0  1  0  0  0  0  0999 V2000
  159.7100  209.5990  152.4500 C   0  0  0  0  0  1  0  0  0  0  0  0
  158.6530  210.5660  155.7860 C   0  0  0  0  0  0  0  0  0  0  0  0
  161.2720  207.6760  152.7130 C   0  0  0  0  0  0  0  0  0  0  0  0
  161.2890  207.4630  151.2290 C   0  0  0  0  0  2  0  0  0  0  0  0
  160.4850  212.9030  152.2100 C   0  0  0  0  0  2  0  0  0  0  0  0
  160.7650  207.8170  155.4610 N   0  0  0  0  0  0  0  0  0  0  0  0
  161.7890  206.8820  154.9910 C   0  0  0  0  0  2  0  0  0  0  0  0
  163.1510  211.0770  148.2910 O   0  0  0  0  0  0  0  0  0  0  0  0
  161.9930  209.9670  153.3270 C   0  0  0  0  0  1  0  0  0  0  0  0
  162.2280  210.6330  148.9560 C   0  0  0  0  0  0  0  0  0  0  0  0
  161.6410  209.2970  148.5980 C   0  0  2  0  0  3  0  0  0  0  0  0
  161.7300  211.4060  150.1370 C   0  0  0  0  0  2  0  0  0  0  0  0
  159.4130  209.7490  155.3320 C   0  0  0  0  0  0  0  0  0  0  0  0
  158.9700  212.9620  152.2650 C   0  0  2  0  0  3  0  0  0  0  0  0
  162.5800  208.0050  150.6290 C   0  0  0  0  0  2  0  0  0  0  0  0
  158.9440  213.5730  150.8760 C   0  0  2  0  0  3  0  0  0  0  0  0
  160.3240  209.1820  149.0520 O   0  0  0  0  0  1  0  0  0  0  0  0
  158.9610  214.4530  155.6960 C   0  0  0  0  0  1  0  0  0  0  0  0
  160.8200  209.0020  153.3110 C   0  0  0  0  0  0  0  0  0  0  0  0
  162.5220  208.1410  149.0980 C   0  0  1  0  0  3  0  0  0  0  0  0
  158.6230  213.3580  154.7020 C   0  0  1  0  0  3  0  0  0  0  0  0
  160.3270  208.8050  154.7370 C   0  0  0  0  0  0  0  0  0  0  0  0
  157.3680  212.6000  155.1750 C   0  0  2  0  0  3  0  0  0  0  0  0
  159.5680  212.5970  149.9130 C   0  0  2  0  0  3  0  0  0  0  0  0
  161.7020  206.6840  153.5050 C   0  0  0  0  0  3  0  0  0  0  0  0
  158.5070  213.9700  153.3090 C   0  0  0  0  0  2  0  0  0  0  0  0
  160.4440  213.5140  150.8190 C   0  0  2  0  0  0  0  0  0  0  0  0
  161.0540  212.6990  149.6890 C   0  0  1  0  0  3  0  0  0  0  0  0
  157.7270  211.5980  156.2790 C   0  0  0  0  0  2  0  0  0  0  0  0
  162.2670  206.8240  148.3560 C   0  0  0  0  0  0  0  0  0  0  0  0
  161.6880  205.8880  149.1960 F   0  0  0  0  0  0  0  0  0  0  0  0
  161.4180  207.0550  147.2900 F   0  0  0  0  0  0  0  0  0  0  0  0
  163.4600  206.3200  147.8700 F   0  0  0  0  0  0  0  0  0  0  0  0
  155.5270  211.1840  154.5790 O   0  0  0  0  0  1  0  0  0  0  0  0
  156.5940  211.9100  154.0500 C   0  0  0  0  0  2  0  0  0  0  0  0
  1 19  1  0  0  0  0
  2 29  1  0  0  0  0
  3 19  1  0  0  0  0
  3 25  2  0  0  0  0
  4  3  1  0  0  0  0
  7  6  1  0  0  0  0
  8 10  2  0  0  0  0
 10 12  1  0  0  0  0
 11 10  1  0  0  0  0
 11 17  1  1  0  0  0
 11 20  1  0  0  0  0
 13  2  3  0  0  0  0
 14  5  1  1  0  0  0
 14 26  1  0  0  0  0
 15  4  1  0  0  0  0
 16 14  1  0  0  0  0
 19  9  1  0  0  0  0
 19 22  1  0  0  0  0
 20 15  1  0  0  0  0
 21 23  1  0  0  0  0
 21 18  1  0  0  0  0
 22 13  1  0  0  0  0
 22  6  2  0  0  0  0
 23 29  1  0  0  0  0
 24 27  1  0  0  0  0
 24 16  1  0  0  0  0
 25  7  1  0  0  0  0
 26 21  1  0  0  0  0
 27 16  1  0  0  0  0
 27  5  1  0  0  0  0
 28 24  1  0  0  0  0
 28 12  1  0  0  0  0
 28 27  1  0  0  0  0
 30 20  1  0  0  0  0
 30 31  1  0  0  0  0
 32 30  1  0  0  0  0
 33 30  1  0  0  0  0
 35 34  1  0  0  0  0
 35 23  1  0  0  0  0
M  END
>  <MODEL>
4

>  <REMARK>
 VINA RESULT:       0.5      2.912      5.513
  Name = 
  2 active torsions:
  status: ('A' for Active; 'I' for Inactive)
    1  A    between atoms: C_2  and  C_24
    2  A    between atoms: C_22  and  C_27
                            x       y       z     vdW  Elec       q    Type
                         _______ _______ _______ _____ _____    ______ ____

>  <TORSDO>
F 2

$$$$
=
 OpenBabel11072413083D

 35 39  0  0  1  0  0  0  0  0999 V2000
  160.4100  207.0000  151.6880 C   0  0  0  0  0  1  0  0  0  0  0  0
  160.3510  206.5980  155.2970 C   0  0  0  0  0  0  0  0  0  0  0  0
  161.0420  204.7920  150.7220 C   0  0  0  0  0  0  0  0  0  0  0  0
  160.7540  205.2930  149.3400 C   0  0  0  0  0  2  0  0  0  0  0  0
  162.4550  209.6100  152.4500 C   0  0  0  0  0  2  0  0  0  0  0  0
  161.0440  203.8030  153.3400 N   0  0  0  0  0  0  0  0  0  0  0  0
  161.5020  202.9210  152.2640 C   0  0  0  0  0  2  0  0  0  0  0  0
  163.5120  209.0620  147.5120 O   0  0  0  0  0  0  0  0  0  0  0  0
  162.7380  206.1850  151.8770 C   0  0  0  0  0  1  0  0  0  0  0  0
  162.5950  208.6770  148.2200 C   0  0  0  0  0  0  0  0  0  0  0  0
  161.4580  207.9180  147.5990 C   0  0  2  0  0  3  0  0  0  0  0  0
  162.6440  208.9310  149.6940 C   0  0  0  0  0  2  0  0  0  0  0  0
  160.6240  205.8900  154.3610 C   0  0  0  0  0  0  0  0  0  0  0  0
  161.1300  210.1090  152.9940 C   0  0  2  0  0  3  0  0  0  0  0  0
  162.0510  205.6150  148.6090 C   0  0  0  0  0  2  0  0  0  0  0  0
  161.1620  211.2650  152.0100 C   0  0  2  0  0  3  0  0  0  0  0  0
  160.2940  208.0260  148.3670 O   0  0  0  0  0  1  0  0  0  0  0  0
  162.2430  209.7700  156.5490 C   0  0  0  0  0  1  0  0  0  0  0  0
  161.2800  205.7590  151.8750 C   0  0  0  0  0  0  0  0  0  0  0  0
  161.8340  206.4510  147.3370 C   0  0  1  0  0  3  0  0  0  0  0  0
  161.3380  209.4250  155.3820 C   0  0  1  0  0  3  0  0  0  0  0  0
  160.9620  205.0940  153.2060 C   0  0  0  0  0  0  0  0  0  0  0  0
  159.9630  208.9720  155.9110 C   0  0  2  0  0  3  0  0  0  0  0  0
  161.1730  210.7020  150.6120 C   0  0  2  0  0  3  0  0  0  0  0  0
  161.1260  203.4690  150.9170 C   0  0  0  0  0  3  0  0  0  0  0  0
  161.2890  210.6100  154.4240 C   0  0  0  0  0  2  0  0  0  0  0  0
  162.4740  210.7710  151.4690 C   0  0  2  0  0  0  0  0  0  0  0  0
  162.5160  210.4230  149.9880 C   0  0  1  0  0  3  0  0  0  0  0  0
  160.0250  207.5190  156.3970 C   0  0  0  0  0  2  0  0  0  0  0  0
  160.9470  205.7790  146.2820 C   0  0  0  0  0  0  0  0  0  0  0  0
  159.6350  206.2070  146.3960 F   0  0  0  0  0  0  0  0  0  0  0  0
  161.4130  206.0960  145.0200 F   0  0  0  0  0  0  0  0  0  0  0  0
  160.9900  204.4060  146.4370 F   0  0  0  0  0  0  0  0  0  0  0  0
  158.0490  210.2680  155.2720 O   0  0  0  0  0  1  0  0  0  0  0  0
  158.8180  209.1600  154.9150 C   0  0  0  0  0  2  0  0  0  0  0  0
  1 19  1  0  0  0  0
  2 29  1  0  0  0  0
  3 25  2  0  0  0  0
  3 19  1  0  0  0  0
  4  3  1  0  0  0  0
  7  6  1  0  0  0  0
  8 10  2  0  0  0  0
 10 12  1  0  0  0  0
 11 10  1  0  0  0  0
 11 17  1  1  0  0  0
 12 28  1  0  0  0  0
 13  2  3  0  0  0  0
 14  5  1  6  0  0  0
 14 26  1  0  0  0  0
 15  4  1  0  0  0  0
 16 14  1  0  0  0  0
 19  9  1  0  0  0  0
 19 22  1  0  0  0  0
 20 11  1  0  0  0  0
 20 15  1  0  0  0  0
 21 23  1  0  0  0  0
 21 18  1  0  0  0  0
 22  6  2  0  0  0  0
 22 13  1  0  0  0  0
 23 29  1  0  0  0  0
 24 27  1  0  0  0  0
 24 16  1  0  0  0  0
 25  7  1  0  0  0  0
 26 21  1  0  0  0  0
 27 16  1  0  0  0  0
 27  5  1  0  0  0  0
 28 24  1  0  0  0  0
 28 27  1  0  0  0  0
 30 31  1  0  0  0  0
 30 33  1  0  0  0  0
 30 20  1  0  0  0  0
 32 30  1  0  0  0  0
 35 34  1  0  0  0  0
 35 23  1  0  0  0  0
M  END
>  <MODEL>
5

>  <REMARK>
 VINA RESULT:       0.8      3.457      5.874
  Name = 
  2 active torsions:
  status: ('A' for Active; 'I' for Inactive)
    1  A    between atoms: C_2  and  C_24
    2  A    between atoms: C_22  and  C_27
                            x       y       z     vdW  Elec       q    Type
                         _______ _______ _______ _____ _____    ______ ____

>  <TORSDO>
F 2

$$$$
