=
 OpenBabel11072414063D

 57 61  0  0  1  0  0  0  0  0999 V2000
  160.9150  214.4530  148.9760 C   0  0  0  0  0  3  0  0  0  0  0  0
  162.4570  210.6440  154.1560 C   0  0  0  0  0  1  0  0  0  0  0  0
  158.0040  212.6070  154.8440 C   0  0  0  0  0  2  0  0  0  0  0  0
  156.7770  212.3460  152.7640 C   0  0  0  0  0  0  0  0  0  0  0  0
  159.3280  213.0910  150.1670 C   0  0  2  0  0  0  0  0  0  0  0  0
  158.4680  212.0460  156.1990 C   0  0  1  0  0  0  0  0  0  0  0  0
  161.3520  208.7500  155.7960 O   0  0  0  0  0  0  0  0  0  0  0  0
  159.1860  210.8540  155.9280 O   0  0  0  0  0  0  0  0  0  0  0  0
  159.5100  213.8670  148.8980 C   0  0  0  0  0  3  0  0  0  0  0  0
  160.0590  210.5250  156.9970 C   0  0  2  0  0  3  0  0  0  0  0  0
  157.0740  211.6780  154.0650 C   0  0  0  0  0  2  0  0  0  0  0  0
  160.3200  213.8040  152.4780 C   0  0  0  0  0  1  0  0  0  0  0  0
  158.8230  214.2500  157.0840 O   0  0  0  0  0  0  0  0  0  0  0  0
  161.4290  209.6870  153.5520 C   0  0  1  0  0  3  0  0  0  0  0  0
  160.5280  213.4750  150.9910 C   0  0  1  0  0  0  0  0  0  0  0  0
  160.4130  212.0310  150.4630 C   0  0  1  0  0  3  0  0  0  0  0  0
  155.8180  213.1720  152.6820 O   0  0  0  0  0  0  0  0  0  0  0  0
  160.5920  208.9420  154.6170 C   0  0  1  0  0  3  0  0  0  0  0  0
  159.3260  213.1270  156.8200 C   0  0  0  0  0  0  0  0  0  0  0  0
  161.4330  214.3010  150.2830 O   0  0  0  0  0  0  0  0  0  0  0  0
  160.6590  210.4270  152.5440 C   0  0  0  0  0  0  0  0  0  0  0  0
  161.2280  211.5040  157.0730 C   0  0  0  0  0  2  0  0  0  0  0  0
  157.9440  213.2040  150.8280 C   0  0  0  0  0  2  0  0  0  0  0  0
  160.3490  211.1210  151.6120 C   0  0  0  0  0  0  0  0  0  0  0  0
  157.6060  212.1180  151.6690 O   0  0  0  0  0  0  0  0  0  0  0  0
  160.5370  209.0600  156.9140 C   0  0  0  0  0  2  0  0  0  0  0  0
  157.2900  211.7340  157.1310 C   0  0  0  0  0  1  0  0  0  0  0  0
  161.6590  213.9660  157.2580 C   0  0  0  0  0  1  0  0  0  0  0  0
  160.7260  212.8700  157.0520 N   0  0  0  0  0  0  0  0  0  0  0  0
  160.0820  207.5960  154.0830 C   0  0  0  0  0  2  0  0  0  0  0  0
  161.0270  207.0770  152.9810 C   0  0  1  0  0  3  0  0  0  0  0  0
  160.9020  205.6050  152.7040 C   0  0  0  0  0  0  0  0  0  0  0  0
  161.1920  204.7250  153.6720 C   0  0  0  0  0  2  0  0  0  0  0  0
  159.3610  205.5040  150.8920 O   0  0  0  0  0  0  0  0  0  0  0  0
  160.4700  205.1330  151.3630 C   0  0  0  0  0  0  0  0  0  0  0  0
  161.3090  204.1580  150.5850 C   0  0  2  0  0  3  0  0  0  0  0  0
  161.4110  204.4590  149.1180 C   0  0  0  0  0  0  0  0  0  0  0  0
  162.5360  204.2590  146.9640 C   0  0  0  0  0  3  0  0  0  0  0  0
  161.6770  205.2220  146.3970 C   0  0  0  0  0  0  0  0  0  0  0  0
  160.7350  205.8390  147.2310 C   0  0  0  0  0  3  0  0  0  0  0  0
  160.6120  205.4630  148.5690 C   0  0  0  0  0  3  0  0  0  0  0  0
  162.3960  203.8700  148.3060 C   0  0  0  0  0  3  0  0  0  0  0  0
  161.7400  205.5510  144.9550 C   0  0  0  0  0  0  0  0  0  0  0  0
  162.6870  206.2660  144.5310 O   0  0  0  0  0  0  0  0  0  0  0  0
  160.7500  205.0090  143.9740 C   0  0  0  0  0  2  0  0  0  0  0  0
  160.0740  203.8640  144.5670 N   0  0  0  0  0  1  0  0  0  0  0  0
  161.1070  202.6600  150.9390 C   0  0  0  0  0  0  0  0  0  0  0  0
  159.7400  202.3720  150.9570 O   0  0  0  0  0  1  0  0  0  0  0  0
  161.6280  202.4070  152.2120 O   0  0  0  0  0  1  0  0  0  0  0  0
  161.7790  201.7770  149.8880 C   0  0  0  0  0  2  0  0  0  0  0  0
  160.8200  201.1930  148.9110 C   0  0  0  0  0  0  0  0  0  0  0  0
  161.2150  200.1230  148.1130 O   0  0  0  0  0  0  0  0  0  0  0  0
  159.6470  201.6490  148.8350 O   0  0  0  0  0  1  0  0  0  0  0  0
  161.1390  207.8280  151.7700 O   0  0  0  0  0  0  0  0  0  0  0  0
  162.3930  207.6000  151.1320 C   0  0  0  0  0  2  0  0  0  0  0  0
  161.6650  208.6830  149.0520 C   0  0  0  0  0  2  0  0  0  0  0  0
  162.5840  208.5580  150.0000 C   0  0  0  0  0  3  0  0  0  0  0  0
  1 20  1  0  0  0  0
  3  6  1  0  0  0  0
  4 11  1  0  0  0  0
  5  9  1  6  0  0  0
  5 16  1  0  0  0  0
  5 23  1  0  0  0  0
  5 15  1  0  0  0  0
  6 19  1  0  0  0  0
  6 27  1  1  0  0  0
  7 26  1  0  0  0  0
  8  6  1  0  0  0  0
  8 10  1  0  0  0  0
  9  1  2  0  0  0  0
 10 26  1  6  0  0  0
 10 22  1  0  0  0  0
 11  3  1  0  0  0  0
 14  2  1  1  0  0  0
 14 18  1  0  0  0  0
 15 12  1  1  0  0  0
 16 15  1  0  0  0  0
 16 24  1  1  0  0  0
 17  4  2  0  0  0  0
 18 30  1  6  0  0  0
 18  7  1  0  0  0  0
 19 29  1  0  0  0  0
 19 13  2  0  0  0  0
 20 15  1  0  0  0  0
 21 14  1  0  0  0  0
 23 25  1  0  0  0  0
 24 21  3  0  0  0  0
 25  4  1  0  0  0  0
 29 22  1  0  0  0  0
 29 28  1  0  0  0  0
 31 30  1  6  0  0  0
 32 31  1  0  0  0  0
 32 33  2  0  0  0  0
 34 35  2  0  0  0  0
 35 32  1  0  0  0  0
 36 47  1  0  0  0  0
 36 35  1  6  0  0  0
 37 36  1  0  0  0  0
 38 42  1  0  0  0  0
 39 38  2  0  0  0  0
 39 40  1  0  0  0  0
 40 41  2  0  0  0  0
 41 37  1  0  0  0  0
 42 37  2  0  0  0  0
 43 39  1  0  0  0  0
 44 43  2  0  0  0  0
 45 46  1  0  0  0  0
 45 43  1  0  0  0  0
 47 48  1  0  0  0  0
 47 49  1  0  0  0  0
 50 47  1  0  0  0  0
 51 50  1  0  0  0  0
 52 51  2  0  0  0  0
 53 51  1  0  0  0  0
 54 31  1  0  0  0  0
 55 54  1  0  0  0  0
 56 57  2  0  0  0  0
 57 55  1  0  0  0  0
M  END
>  <MODEL>
1

>  <REMARK>
 VINA RESULT:      -0.1      0.000      0.000
  Name = 
  14 active torsions:
  status: ('A' for Active; 'I' for Inactive)
    1  A    between atoms: C_7  and  C_9
    2  A    between atoms: C_7  and  C_22
    3  A    between atoms: C_9  and  C_57
    4  A    between atoms: C_12  and  C_57
    5  A    between atoms: C_17  and  C_36
    6  A    between atoms: C_17  and  C_51
    7  A    between atoms: C_21  and  C_31
    8  A    between atoms: C_23  and  C_25
    9  A    between atoms: C_25  and  C_27
   10  A    between atoms: C_31  and  O_54
   11  A    between atoms: C_33  and  C_45
   12  A    between atoms: C_36  and  C_45
   13  A    between atoms: C_36  and  O_54
   14  A    between atoms: C_51  and  C_57
                            x       y       z     vdW  Elec       q    Type
                         _______ _______ _______ _____ _____    ______ ____

>  <TORSDO>
F 14

$$$$
