=
 OpenBabel11072411473D

 53 57  0  0  1  0  0  0  0  0999 V2000
  160.5220  211.7160  152.6600 C   0  0  1  0  0  3  0  0  0  0  0  0
  159.3670  212.3930  152.2690 O   0  0  0  0  0  1  0  0  0  0  0  0
  160.6080  211.7030  154.1490 C   0  0  0  0  0  3  0  0  0  0  0  0
  159.8540  212.4710  154.9410 C   0  0  0  0  0  0  0  0  0  0  0  0
  158.9200  213.3790  154.4270 O   0  0  0  0  0  0  0  0  0  0  0  0
  158.2430  213.8820  156.5640 O   0  0  0  0  0  1  0  0  0  0  0  0
  157.8650  213.9100  155.2200 C   0  0  2  0  0  3  0  0  0  0  0  0
  156.5830  213.1090  154.9960 C   0  0  1  0  0  3  0  0  0  0  0  0
  156.1950  212.3550  156.2750 C   0  0  2  0  0  3  0  0  0  0  0  0
  155.8290  210.9200  156.0740 C   0  0  2  0  0  3  0  0  0  0  0  0
  155.9100  210.5180  154.7360 O   0  0  0  0  0  1  0  0  0  0  0  0
  154.8540  211.9260  156.1970 O   0  0  0  0  0  0  0  0  0  0  0  0
  155.4700  214.0760  154.6080 C   0  0  0  0  0  2  0  0  0  0  0  0
  154.9150  213.7230  153.3760 O   0  0  0  0  0  0  0  0  0  0  0  0
  155.6480  214.4530  152.4370 C   0  0  0  0  0  2  0  0  0  0  0  0
  155.1990  214.1010  151.0290 C   0  0  0  0  0  2  0  0  0  0  0  0
  156.4010  213.8790  150.1330 C   0  0  0  0  0  1  0  0  0  0  0  0
  159.9700  212.3070  156.3540 N   0  0  0  0  0  2  0  0  0  0  0  0
  159.6460  209.9140  156.0920 C   0  0  0  0  0  2  0  0  0  0  0  0
  159.9300  207.8630  157.2610 O   0  0  0  0  0  1  0  0  0  0  0  0
  160.2110  211.0100  156.9650 C   0  0  1  0  0  3  0  0  0  0  0  0
  160.5350  208.7030  156.3250 C   0  0  2  0  0  0  0  0  0  0  0  0
  161.6960  210.7320  157.0410 C   0  0  0  0  0  2  0  0  0  0  0  0
  161.8450  209.2280  156.8940 C   0  0  0  0  0  2  0  0  0  0  0  0
  159.8830  206.9890  154.5960 O   0  0  0  0  0  1  0  0  0  0  0  0
  160.7890  207.9440  155.0530 C   0  0  0  0  0  0  0  0  0  0  0  0
  161.8300  208.1750  154.3810 O   0  0  0  0  0  0  0  0  0  0  0  0
  160.4860  210.2970  152.1160 C   0  0  0  0  0  2  0  0  0  0  0  0
  161.7390  210.0250  151.2980 C   0  0  2  0  0  3  0  0  0  0  0  0
  162.8480  210.6610  151.8650 O   0  0  0  0  0  1  0  0  0  0  0  0
  161.5410  210.4300  149.8320 C   0  0  1  0  0  3  0  0  0  0  0  0
  161.9900  211.8560  149.5120 C   0  0  0  0  0  2  0  0  0  0  0  0
  161.8120  213.0500  147.3550 C   0  0  0  0  0  1  0  0  0  0  0  0
  162.5310  211.9450  148.0980 C   0  0  0  0  0  2  0  0  0  0  0  0
  162.1820  209.4160  148.8870 C   0  0  0  0  0  2  0  0  0  0  0  0
  161.3420  208.1560  148.7180 C   0  0  0  0  0  2  0  0  0  0  0  0
  162.0000  206.1450  147.4190 C   0  0  1  0  0  0  0  0  0  0  0  0
  161.8590  205.8870  149.7690 C   0  0  1  0  0  3  0  0  0  0  0  0
  163.0890  205.9130  146.5760 O   0  0  0  0  0  1  0  0  0  0  0  0
  161.3140  204.8680  147.8720 C   0  0  1  0  0  0  0  0  0  0  0  0
  160.9320  204.9900  149.2190 O   0  0  0  0  0  0  0  0  0  0  0  0
  162.2300  206.9130  148.6980 C   0  0  2  0  0  3  0  0  0  0  0  0
  160.6020  205.7960  146.9010 C   0  0  0  0  0  2  0  0  0  0  0  0
  161.5440  202.4240  148.3920 C   0  0  0  0  0  2  0  0  0  0  0  0
  161.8980  203.5160  147.4050 C   0  0  1  0  0  3  0  0  0  0  0  0
  160.2530  202.0120  146.4820 C   0  0  1  0  0  3  0  0  0  0  0  0
  160.3390  201.7580  147.9180 N   0  0  0  0  0  2  0  0  0  0  0  0
  161.3170  203.0240  146.0980 C   0  0  0  0  0  2  0  0  0  0  0  0
  160.4370  200.7420  145.7170 C   0  0  0  0  0  0  0  0  0  0  0  0
  161.0150  199.7560  146.2450 O   0  0  0  0  0  0  0  0  0  0  0  0
  159.9590  200.6490  144.3810 N   0  0  0  0  0  1  0  0  0  0  0  0
  161.1400  205.7010  152.0660 N   0  0  0  0  0  2  0  0  0  0  0  0
  161.3550  206.4620  151.0580 C   0  0  0  0  0  3  0  0  0  0  0  0
  1  2  1  1  0  0  0
  1  3  1  0  0  0  0
  3  4  2  0  0  0  0
  4 18  1  0  0  0  0
  5  4  1  0  0  0  0
  5  7  1  0  0  0  0
  7  6  1  1  0  0  0
  8 13  1  1  0  0  0
  8  7  1  0  0  0  0
  9  8  1  6  0  0  0
 10 11  1  6  0  0  0
 10 12  1  0  0  0  0
 10  9  1  0  0  0  0
 12  9  1  0  0  0  0
 14 13  1  0  0  0  0
 15 14  1  0  0  0  0
 16 15  1  0  0  0  0
 17 16  1  0  0  0  0
 19 22  1  0  0  0  0
 19 21  1  0  0  0  0
 21 18  1  6  0  0  0
 21 23  1  0  0  0  0
 22 24  1  0  0  0  0
 22 20  1  1  0  0  0
 24 23  1  0  0  0  0
 25 26  1  0  0  0  0
 26 22  1  0  0  0  0
 27 26  2  0  0  0  0
 28  1  1  0  0  0  0
 29 30  1  1  0  0  0
 29 28  1  0  0  0  0
 31 35  1  6  0  0  0
 31 29  1  0  0  0  0
 32 31  1  0  0  0  0
 33 34  1  0  0  0  0
 34 32  1  0  0  0  0
 36 35  1  0  0  0  0
 37 39  1  6  0  0  0
 37 40  1  0  0  0  0
 37 42  1  0  0  0  0
 38 53  1  1  0  0  0
 40 43  1  6  0  0  0
 40 41  1  0  0  0  0
 41 38  1  0  0  0  0
 42 36  1  6  0  0  0
 42 38  1  0  0  0  0
 43 37  1  0  0  0  0
 45 48  1  6  0  0  0
 45 40  1  0  0  0  0
 45 44  1  0  0  0  0
 46 49  1  6  0  0  0
 46 47  1  0  0  0  0
 47 44  1  0  0  0  0
 48 46  1  0  0  0  0
 49 50  2  0  0  0  0
 51 49  1  0  0  0  0
 53 52  2  0  0  0  0
M  END
>  <MODEL>
1

>  <REMARK>
 VINA RESULT:      -4.5      0.000      0.000
  Name = 
  23 active torsions:
  status: ('A' for Active; 'I' for Inactive)
    1  A    between atoms: C_2  and  C_28
    2  A    between atoms: C_4  and  C_37
    3  A    between atoms: C_4  and  C_42
    4  A    between atoms: C_7  and  C_21
    5  A    between atoms: C_9  and  C_10
    6  A    between atoms: C_9  and  C_31
    7  A    between atoms: C_9  and  C_52
    8  A    between atoms: C_13  and  C_19
    9  A    between atoms: C_13  and  C_37
   10  A    between atoms: C_14  and  C_33
   11  A    between atoms: C_15  and  C_46
   12  A    between atoms: C_17  and  N_23
   13  A    between atoms: O_18  and  C_26
   14  A    between atoms: O_18  and  C_31
   15  A    between atoms: C_19  and  C_48
   16  A    between atoms: N_23  and  C_30
   17  A    between atoms: C_25  and  C_26
   18  A    between atoms: C_27  and  C_38
   19  A    between atoms: C_30  and  O_47
   20  A    between atoms: C_33  and  C_37
   21  A    between atoms: C_34  and  C_35
   22  A    between atoms: C_38  and  C_42
   23  A    between atoms: O_47  and  C_52
                            x       y       z     vdW  Elec       q    Type
                         _______ _______ _______ _____ _____    ______ ____

>  <TORSDO>
F 23

$$$$
=
 OpenBabel11072411473D

 53 57  0  0  1  0  0  0  0  0999 V2000
  162.1770  208.8290  151.1680 C   0  0  1  0  0  3  0  0  0  0  0  0
  163.1090  207.8430  150.8450 O   0  0  0  0  0  1  0  0  0  0  0  0
  161.9720  209.7210  149.9890 C   0  0  0  0  0  3  0  0  0  0  0  0
  161.5410  209.2900  148.8010 C   0  0  0  0  0  0  0  0  0  0  0  0
  161.2590  207.9400  148.5560 O   0  0  0  0  0  0  0  0  0  0  0  0
  163.3340  207.6900  147.6020 O   0  0  0  0  0  1  0  0  0  0  0  0
  162.2730  207.0070  148.2000 C   0  0  2  0  0  3  0  0  0  0  0  0
  161.7050  205.9470  147.2590 C   0  0  1  0  0  3  0  0  0  0  0  0
  162.1040  206.2520  145.8080 C   0  0  2  0  0  3  0  0  0  0  0  0
  161.0620  205.9280  144.7870 C   0  0  2  0  0  3  0  0  0  0  0  0
  159.8950  205.3970  145.3470 O   0  0  0  0  0  1  0  0  0  0  0  0
  162.1380  205.0610  145.0540 O   0  0  0  0  0  0  0  0  0  0  0  0
  162.2590  204.5880  147.6710 C   0  0  0  0  0  2  0  0  0  0  0  0
  161.4200  203.9740  148.6040 O   0  0  0  0  0  0  0  0  0  0  0  0
  160.6780  203.0540  147.8580 C   0  0  0  0  0  2  0  0  0  0  0  0
  160.8590  201.6540  148.4190 C   0  0  0  0  0  2  0  0  0  0  0  0
  159.7450  201.3290  149.3940 C   0  0  0  0  0  1  0  0  0  0  0  0
  161.3050  210.2540  147.7750 N   0  0  0  0  0  2  0  0  0  0  0  0
  162.5420  212.1800  146.9620 C   0  0  0  0  0  2  0  0  0  0  0  0
  163.0000  214.4520  147.4920 O   0  0  0  0  0  1  0  0  0  0  0  0
  161.5460  211.6740  147.9780 C   0  0  1  0  0  3  0  0  0  0  0  0
  162.1770  213.6350  146.7160 C   0  0  2  0  0  0  0  0  0  0  0  0
  160.2820  212.4640  147.7230 C   0  0  0  0  0  2  0  0  0  0  0  0
  160.7330  213.8030  147.1680 C   0  0  0  0  0  2  0  0  0  0  0  0
  163.5510  213.9550  144.6280 O   0  0  0  0  0  1  0  0  0  0  0  0
  162.3150  214.0090  145.2680 C   0  0  0  0  0  0  0  0  0  0  0  0
  161.2990  214.3690  144.6130 O   0  0  0  0  0  0  0  0  0  0  0  0
  160.8670  208.1750  151.5750 C   0  0  0  0  0  2  0  0  0  0  0  0
  161.0340  206.6640  151.6120 C   0  0  2  0  0  3  0  0  0  0  0  0
  160.0420  206.0380  150.8500 O   0  0  0  0  0  1  0  0  0  0  0  0
  161.0500  206.1450  153.0550 C   0  0  1  0  0  3  0  0  0  0  0  0
  160.9180  204.6260  153.1750 C   0  0  0  0  0  2  0  0  0  0  0  0
  161.5590  202.5600  151.9810 C   0  0  0  0  0  1  0  0  0  0  0  0
  161.0270  203.9660  151.8150 C   0  0  0  0  0  2  0  0  0  0  0  0
  162.2710  206.6620  153.8150 C   0  0  0  0  0  2  0  0  0  0  0  0
  161.8970  207.4360  155.0730 C   0  0  0  0  0  2  0  0  0  0  0  0
  161.5610  209.8920  154.9340 C   0  0  1  0  0  0  0  0  0  0  0  0
  159.7300  208.6170  155.7270 C   0  0  1  0  0  3  0  0  0  0  0  0
  161.6140  210.7650  153.8450 O   0  0  0  0  0  1  0  0  0  0  0  0
  160.8570  210.4860  156.1410 C   0  0  1  0  0  0  0  0  0  0  0  0
  160.0720  209.4990  156.7620 O   0  0  0  0  0  0  0  0  0  0  0  0
  160.9010  208.5470  154.7470 C   0  0  2  0  0  3  0  0  0  0  0  0
  162.3580  210.2580  156.1880 C   0  0  0  0  0  2  0  0  0  0  0  0
  159.8130  212.1670  154.5980 C   0  0  0  0  0  2  0  0  0  0  0  0
  160.2660  211.9080  156.0190 C   0  0  1  0  0  3  0  0  0  0  0  0
  157.8580  211.9530  155.8700 C   0  0  1  0  0  3  0  0  0  0  0  0
  158.3900  211.8640  154.5130 N   0  0  0  0  0  2  0  0  0  0  0  0
  159.0140  212.1170  156.8410 C   0  0  0  0  0  2  0  0  0  0  0  0
  156.9120  213.1030  155.9840 C   0  0  0  0  0  0  0  0  0  0  0  0
  155.7090  212.9770  155.6300 O   0  0  0  0  0  0  0  0  0  0  0  0
  157.3730  214.3490  156.4900 N   0  0  0  0  0  1  0  0  0  0  0  0
  159.9030  206.7420  157.2380 N   0  0  0  0  0  2  0  0  0  0  0  0
  159.2720  207.2970  156.2710 C   0  0  0  0  0  3  0  0  0  0  0  0
  1  2  1  6  0  0  0
  1 28  1  0  0  0  0
  3  1  1  0  0  0  0
  4  3  2  0  0  0  0
  5  4  1  0  0  0  0
  7  6  1  6  0  0  0
  7  5  1  0  0  0  0
  8 13  1  1  0  0  0
  8  7  1  0  0  0  0
  9  8  1  1  0  0  0
 10 12  1  0  0  0  0
 10 11  1  1  0  0  0
 10  9  1  0  0  0  0
 12  9  1  0  0  0  0
 13 14  1  0  0  0  0
 15 16  1  0  0  0  0
 15 14  1  0  0  0  0
 16 17  1  0  0  0  0
 18  4  1  0  0  0  0
 19 21  1  0  0  0  0
 21 18  1  6  0  0  0
 22 19  1  0  0  0  0
 22 24  1  0  0  0  0
 22 20  1  1  0  0  0
 23 21  1  0  0  0  0
 24 23  1  0  0  0  0
 25 26  1  0  0  0  0
 26 22  1  0  0  0  0
 27 26  2  0  0  0  0
 28 29  1  0  0  0  0
 29 30  1  6  0  0  0
 29 31  1  0  0  0  0
 31 32  1  6  0  0  0
 31 35  1  0  0  0  0
 34 33  1  0  0  0  0
 34 32  1  0  0  0  0
 35 36  1  0  0  0  0
 37 39  1  6  0  0  0
 37 40  1  0  0  0  0
 37 43  1  0  0  0  0
 38 53  1  1  0  0  0
 38 41  1  0  0  0  0
 40 43  1  1  0  0  0
 40 41  1  0  0  0  0
 42 37  1  0  0  0  0
 42 36  1  1  0  0  0
 42 38  1  0  0  0  0
 45 44  1  6  0  0  0
 45 40  1  0  0  0  0
 45 48  1  0  0  0  0
 46 49  1  6  0  0  0
 46 48  1  0  0  0  0
 47 44  1  0  0  0  0
 47 46  1  0  0  0  0
 49 51  1  0  0  0  0
 50 49  2  0  0  0  0
 53 52  2  0  0  0  0
M  END
>  <MODEL>
2

>  <REMARK>
 VINA RESULT:      -3.9      2.910     10.731
  Name = 
  23 active torsions:
  status: ('A' for Active; 'I' for Inactive)
    1  A    between atoms: C_2  and  C_28
    2  A    between atoms: C_4  and  C_37
    3  A    between atoms: C_4  and  C_42
    4  A    between atoms: C_7  and  C_21
    5  A    between atoms: C_9  and  C_10
    6  A    between atoms: C_9  and  C_31
    7  A    between atoms: C_9  and  C_52
    8  A    between atoms: C_13  and  C_19
    9  A    between atoms: C_13  and  C_37
   10  A    between atoms: C_14  and  C_33
   11  A    between atoms: C_15  and  C_46
   12  A    between atoms: C_17  and  N_23
   13  A    between atoms: O_18  and  C_26
   14  A    between atoms: O_18  and  C_31
   15  A    between atoms: C_19  and  C_48
   16  A    between atoms: N_23  and  C_30
   17  A    between atoms: C_25  and  C_26
   18  A    between atoms: C_27  and  C_38
   19  A    between atoms: C_30  and  O_47
   20  A    between atoms: C_33  and  C_37
   21  A    between atoms: C_34  and  C_35
   22  A    between atoms: C_38  and  C_42
   23  A    between atoms: O_47  and  C_52
                            x       y       z     vdW  Elec       q    Type
                         _______ _______ _______ _____ _____    ______ ____

>  <TORSDO>
F 23

$$$$
=
 OpenBabel11072411473D

 53 57  0  0  1  0  0  0  0  0999 V2000
  161.7310  210.4610  151.6310 C   0  0  1  0  0  3  0  0  0  0  0  0
  163.1220  210.3570  151.6470 O   0  0  0  0  0  1  0  0  0  0  0  0
  161.3360  211.6790  150.8650 C   0  0  0  0  0  3  0  0  0  0  0  0
  160.5640  212.6480  151.3620 C   0  0  0  0  0  0  0  0  0  0  0  0
  160.0400  212.5910  152.6600 O   0  0  0  0  0  0  0  0  0  0  0  0
  157.9270  212.3720  151.7830 O   0  0  0  0  0  1  0  0  0  0  0  0
  158.7100  212.1580  152.9200 C   0  0  2  0  0  3  0  0  0  0  0  0
  158.1390  212.9060  154.1240 C   0  0  1  0  0  3  0  0  0  0  0  0
  156.6730  213.2820  153.8730 C   0  0  2  0  0  3  0  0  0  0  0  0
  156.0520  214.1360  154.9310 C   0  0  2  0  0  3  0  0  0  0  0  0
  156.9330  214.4420  155.9740 O   0  0  0  0  0  1  0  0  0  0  0  0
  155.8540  212.7430  154.8860 O   0  0  0  0  0  0  0  0  0  0  0  0
  158.2370  212.0000  155.3460 C   0  0  0  0  0  2  0  0  0  0  0  0
  159.2290  211.0320  155.1670 O   0  0  0  0  0  0  0  0  0  0  0  0
  160.1140  211.2330  156.2290 C   0  0  0  0  0  2  0  0  0  0  0  0
  161.5470  211.0410  155.7640 C   0  0  0  0  0  2  0  0  0  0  0  0
  162.1610  209.8290  156.4360 C   0  0  0  0  0  1  0  0  0  0  0  0
  160.3240  213.8040  150.5590 N   0  0  0  0  0  2  0  0  0  0  0  0
  161.1330  214.2370  148.3100 C   0  0  0  0  0  2  0  0  0  0  0  0
  160.4210  214.2030  146.0410 O   0  0  0  0  0  1  0  0  0  0  0  0
  159.9920  213.7070  149.1460 C   0  0  1  0  0  3  0  0  0  0  0  0
  161.0890  213.4510  147.0080 C   0  0  2  0  0  0  0  0  0  0  0  0
  159.8400  212.2590  148.7390 C   0  0  0  0  0  2  0  0  0  0  0  0
  160.2980  212.1830  147.2930 C   0  0  0  0  0  2  0  0  0  0  0  0
  163.3830  212.4650  147.3480 O   0  0  0  0  0  1  0  0  0  0  0  0
  162.4670  213.1060  146.5180 C   0  0  0  0  0  0  0  0  0  0  0  0
  162.8010  213.3910  145.3360 O   0  0  0  0  0  0  0  0  0  0  0  0
  161.1380  209.2150  150.9950 C   0  0  0  0  0  2  0  0  0  0  0  0
  160.5850  208.2960  152.0740 C   0  0  2  0  0  3  0  0  0  0  0  0
  160.1080  209.0390  153.1590 O   0  0  0  0  0  1  0  0  0  0  0  0
  161.6320  207.2640  152.5100 C   0  0  1  0  0  3  0  0  0  0  0  0
  161.7950  207.1400  154.0250 C   0  0  0  0  0  2  0  0  0  0  0  0
  159.6980  207.2270  155.3320 C   0  0  0  0  0  1  0  0  0  0  0  0
  160.6730  206.3130  154.6220 C   0  0  0  0  0  2  0  0  0  0  0  0
  161.3720  205.9050  151.8620 C   0  0  0  0  0  2  0  0  0  0  0  0
  161.7760  205.8660  150.3940 C   0  0  0  0  0  2  0  0  0  0  0  0
  160.6800  203.6650  150.0530 C   0  0  1  0  0  0  0  0  0  0  0  0
  161.1440  204.9280  148.1040 C   0  0  1  0  0  3  0  0  0  0  0  0
  159.4550  203.1700  150.5050 O   0  0  0  0  0  1  0  0  0  0  0  0
  161.2610  202.8590  148.9050 C   0  0  1  0  0  0  0  0  0  0  0  0
  161.8570  203.7270  147.9730 O   0  0  0  0  0  0  0  0  0  0  0  0
  160.7460  205.0940  149.5710 C   0  0  2  0  0  3  0  0  0  0  0  0
  161.9270  202.8030  150.2690 C   0  0  0  0  0  2  0  0  0  0  0  0
  159.6730  202.0750  147.1270 C   0  0  0  0  0  2  0  0  0  0  0  0
  160.4470  201.6640  148.3610 C   0  0  1  0  0  3  0  0  0  0  0  0
  161.3880  200.6680  146.3750 C   0  0  1  0  0  3  0  0  0  0  0  0
  160.4640  201.7180  145.9560 N   0  0  0  0  0  2  0  0  0  0  0  0
  161.3060  200.5140  147.8830 C   0  0  0  0  0  2  0  0  0  0  0  0
  161.0540  199.3800  145.6970 C   0  0  0  0  0  0  0  0  0  0  0  0
  160.0510  199.2980  144.9390 O   0  0  0  0  0  0  0  0  0  0  0  0
  161.8720  198.2370  145.9130 N   0  0  0  0  0  1  0  0  0  0  0  0
  162.1720  206.1020  146.2620 N   0  0  0  0  0  2  0  0  0  0  0  0
  161.9070  206.0760  147.5150 C   0  0  0  0  0  3  0  0  0  0  0  0
  1  2  1  6  0  0  0
  3  4  2  0  0  0  0
  3  1  1  0  0  0  0
  4  5  1  0  0  0  0
  5  7  1  0  0  0  0
  7  6  1  6  0  0  0
  7  8  1  0  0  0  0
  8 13  1  1  0  0  0
  9  8  1  1  0  0  0
  9 12  1  0  0  0  0
  9 10  1  0  0  0  0
 10 11  1  1  0  0  0
 12 10  1  0  0  0  0
 14 13  1  0  0  0  0
 14 15  1  0  0  0  0
 16 15  1  0  0  0  0
 16 17  1  0  0  0  0
 18  4  1  0  0  0  0
 19 21  1  0  0  0  0
 21 18  1  1  0  0  0
 22 20  1  6  0  0  0
 22 24  1  0  0  0  0
 22 19  1  0  0  0  0
 23 21  1  0  0  0  0
 24 23  1  0  0  0  0
 26 22  1  0  0  0  0
 26 25  1  0  0  0  0
 27 26  2  0  0  0  0
 28  1  1  0  0  0  0
 28 29  1  0  0  0  0
 29 31  1  0  0  0  0
 29 30  1  1  0  0  0
 31 35  1  1  0  0  0
 31 32  1  0  0  0  0
 32 34  1  0  0  0  0
 34 33  1  0  0  0  0
 36 35  1  0  0  0  0
 37 43  1  0  0  0  0
 37 39  1  1  0  0  0
 38 53  1  1  0  0  0
 38 42  1  0  0  0  0
 40 37  1  0  0  0  0
 40 43  1  1  0  0  0
 41 38  1  0  0  0  0
 41 40  1  0  0  0  0
 42 37  1  0  0  0  0
 42 36  1  1  0  0  0
 45 44  1  6  0  0  0
 45 40  1  0  0  0  0
 46 49  1  6  0  0  0
 46 48  1  0  0  0  0
 47 46  1  0  0  0  0
 47 44  1  0  0  0  0
 48 45  1  0  0  0  0
 49 51  1  0  0  0  0
 50 49  2  0  0  0  0
 52 53  2  0  0  0  0
M  END
>  <MODEL>
3

>  <REMARK>
 VINA RESULT:      -3.1      2.399      5.827
  Name = 
  23 active torsions:
  status: ('A' for Active; 'I' for Inactive)
    1  A    between atoms: C_2  and  C_28
    2  A    between atoms: C_4  and  C_37
    3  A    between atoms: C_4  and  C_42
    4  A    between atoms: C_7  and  C_21
    5  A    between atoms: C_9  and  C_10
    6  A    between atoms: C_9  and  C_31
    7  A    between atoms: C_9  and  C_52
    8  A    between atoms: C_13  and  C_19
    9  A    between atoms: C_13  and  C_37
   10  A    between atoms: C_14  and  C_33
   11  A    between atoms: C_15  and  C_46
   12  A    between atoms: C_17  and  N_23
   13  A    between atoms: O_18  and  C_26
   14  A    between atoms: O_18  and  C_31
   15  A    between atoms: C_19  and  C_48
   16  A    between atoms: N_23  and  C_30
   17  A    between atoms: C_25  and  C_26
   18  A    between atoms: C_27  and  C_38
   19  A    between atoms: C_30  and  O_47
   20  A    between atoms: C_33  and  C_37
   21  A    between atoms: C_34  and  C_35
   22  A    between atoms: C_38  and  C_42
   23  A    between atoms: O_47  and  C_52
                            x       y       z     vdW  Elec       q    Type
                         _______ _______ _______ _____ _____    ______ ____

>  <TORSDO>
F 23

$$$$
=
 OpenBabel11072411473D

 53 57  0  0  1  0  0  0  0  0999 V2000
  161.6690  210.7650  151.6060 C   0  0  1  0  0  3  0  0  0  0  0  0
  163.0520  210.7090  151.4340 O   0  0  0  0  0  1  0  0  0  0  0  0
  161.1500  212.0380  151.0240 C   0  0  0  0  0  3  0  0  0  0  0  0
  160.4500  212.9390  151.7190 C   0  0  0  0  0  0  0  0  0  0  0  0
  160.1250  212.7500  153.0680 O   0  0  0  0  0  0  0  0  0  0  0  0
  157.9820  213.5290  152.7910 O   0  0  0  0  0  1  0  0  0  0  0  0
  158.7790  212.6390  153.5140 C   0  0  2  0  0  3  0  0  0  0  0  0
  158.6960  212.9260  155.0130 C   0  0  1  0  0  3  0  0  0  0  0  0
  160.0750  212.7600  155.6650 C   0  0  2  0  0  3  0  0  0  0  0  0
  160.1770  211.6320  156.6410 C   0  0  2  0  0  3  0  0  0  0  0  0
  158.9800  210.9230  156.7840 O   0  0  0  0  0  1  0  0  0  0  0  0
  159.9800  212.9620  157.0570 O   0  0  0  0  0  0  0  0  0  0  0  0
  158.2040  214.3570  155.2040 C   0  0  0  0  0  2  0  0  0  0  0  0
  157.2230  214.4140  156.1970 O   0  0  0  0  0  0  0  0  0  0  0  0
  156.0810  213.8800  155.5960 C   0  0  0  0  0  2  0  0  0  0  0  0
  155.2340  213.1540  156.6280 C   0  0  0  0  0  2  0  0  0  0  0  0
  155.9900  211.9650  157.1870 C   0  0  0  0  0  1  0  0  0  0  0  0
  160.0810  214.1560  151.0720 N   0  0  0  0  0  2  0  0  0  0  0  0
  160.3820  214.1480  148.6620 C   0  0  0  0  0  2  0  0  0  0  0  0
  159.1540  214.3610  146.6360 O   0  0  0  0  0  1  0  0  0  0  0  0
  159.3840  214.1730  149.7960 C   0  0  1  0  0  3  0  0  0  0  0  0
  159.6880  213.4220  147.5200 C   0  0  2  0  0  0  0  0  0  0  0  0
  158.5610  212.9150  149.6290 C   0  0  0  0  0  2  0  0  0  0  0  0
  158.5580  212.6150  148.1410 C   0  0  0  0  0  2  0  0  0  0  0  0
  161.3740  211.5490  147.4590 O   0  0  0  0  0  1  0  0  0  0  0  0
  160.6310  212.5130  146.7820 C   0  0  0  0  0  0  0  0  0  0  0  0
  160.7490  212.6150  145.5310 O   0  0  0  0  0  0  0  0  0  0  0  0
  161.0250  209.5680  150.9260 C   0  0  0  0  0  2  0  0  0  0  0  0
  160.3660  208.6760  151.9660 C   0  0  2  0  0  3  0  0  0  0  0  0
  159.6250  209.4390  152.8750 O   0  0  0  0  0  1  0  0  0  0  0  0
  161.4030  207.7980  152.6780 C   0  0  1  0  0  3  0  0  0  0  0  0
  161.5010  208.0420  154.1840 C   0  0  0  0  0  2  0  0  0  0  0  0
  160.3470  207.7200  156.3460 C   0  0  0  0  0  1  0  0  0  0  0  0
  160.4920  207.1950  154.9340 C   0  0  0  0  0  2  0  0  0  0  0  0
  161.1840  206.3190  152.3640 C   0  0  0  0  0  2  0  0  0  0  0  0
  161.8120  205.8980  151.0410 C   0  0  0  0  0  2  0  0  0  0  0  0
  160.6540  203.7800  150.4630 C   0  0  1  0  0  0  0  0  0  0  0  0
  161.1830  205.2220  148.6600 C   0  0  1  0  0  3  0  0  0  0  0  0
  159.4080  203.2800  150.8480 O   0  0  0  0  0  1  0  0  0  0  0  0
  161.2270  203.0790  149.2430 C   0  0  1  0  0  0  0  0  0  0  0  0
  161.8610  204.0190  148.4120 O   0  0  0  0  0  0  0  0  0  0  0  0
  160.7710  205.2480  150.1320 C   0  0  2  0  0  3  0  0  0  0  0  0
  161.8710  202.8620  150.6020 C   0  0  0  0  0  2  0  0  0  0  0  0
  159.8520  202.4560  147.2380 C   0  0  0  0  0  2  0  0  0  0  0  0
  160.3840  201.9720  148.5700 C   0  0  1  0  0  3  0  0  0  0  0  0
  161.5060  200.8740  146.7380 C   0  0  1  0  0  3  0  0  0  0  0  0
  160.7700  202.0130  146.1960 N   0  0  0  0  0  2  0  0  0  0  0  0
  161.1810  200.7360  148.2140 C   0  0  0  0  0  2  0  0  0  0  0  0
  161.1460  199.6240  146.0040 C   0  0  0  0  0  0  0  0  0  0  0  0
  161.9050  198.6200  146.0420 O   0  0  0  0  0  0  0  0  0  0  0  0
  159.9400  199.5700  145.2530 N   0  0  0  0  0  1  0  0  0  0  0  0
  161.4150  207.5130  147.9350 N   0  0  0  0  0  2  0  0  0  0  0  0
  161.9890  206.4000  148.2010 C   0  0  0  0  0  3  0  0  0  0  0  0
  1  2  1  6  0  0  0
  3  1  1  0  0  0  0
  3  4  2  0  0  0  0
  4  5  1  0  0  0  0
  5  7  1  0  0  0  0
  7  6  1  6  0  0  0
  7  8  1  0  0  0  0
  8 13  1  6  0  0  0
  9  8  1  6  0  0  0
  9 10  1  0  0  0  0
  9 12  1  0  0  0  0
 10 11  1  6  0  0  0
 10 12  1  0  0  0  0
 13 14  1  0  0  0  0
 15 14  1  0  0  0  0
 15 16  1  0  0  0  0
 16 17  1  0  0  0  0
 18  4  1  0  0  0  0
 19 21  1  0  0  0  0
 21 18  1  1  0  0  0
 22 20  1  6  0  0  0
 22 24  1  0  0  0  0
 22 19  1  0  0  0  0
 23 21  1  0  0  0  0
 24 23  1  0  0  0  0
 26 25  1  0  0  0  0
 26 22  1  0  0  0  0
 27 26  2  0  0  0  0
 28  1  1  0  0  0  0
 28 29  1  0  0  0  0
 29 31  1  0  0  0  0
 29 30  1  1  0  0  0
 31 35  1  1  0  0  0
 31 32  1  0  0  0  0
 32 34  1  0  0  0  0
 34 33  1  0  0  0  0
 36 35  1  0  0  0  0
 37 43  1  0  0  0  0
 37 39  1  1  0  0  0
 38 53  1  1  0  0  0
 38 42  1  0  0  0  0
 40 37  1  0  0  0  0
 40 43  1  1  0  0  0
 41 38  1  0  0  0  0
 41 40  1  0  0  0  0
 42 37  1  0  0  0  0
 42 36  1  1  0  0  0
 45 44  1  6  0  0  0
 45 40  1  0  0  0  0
 46 49  1  6  0  0  0
 46 48  1  0  0  0  0
 47 46  1  0  0  0  0
 47 44  1  0  0  0  0
 48 45  1  0  0  0  0
 49 50  2  0  0  0  0
 51 49  1  0  0  0  0
 52 53  2  0  0  0  0
M  END
>  <MODEL>
4

>  <REMARK>
 VINA RESULT:      -2.9      2.359      5.434
  Name = 
  23 active torsions:
  status: ('A' for Active; 'I' for Inactive)
    1  A    between atoms: C_2  and  C_28
    2  A    between atoms: C_4  and  C_37
    3  A    between atoms: C_4  and  C_42
    4  A    between atoms: C_7  and  C_21
    5  A    between atoms: C_9  and  C_10
    6  A    between atoms: C_9  and  C_31
    7  A    between atoms: C_9  and  C_52
    8  A    between atoms: C_13  and  C_19
    9  A    between atoms: C_13  and  C_37
   10  A    between atoms: C_14  and  C_33
   11  A    between atoms: C_15  and  C_46
   12  A    between atoms: C_17  and  N_23
   13  A    between atoms: O_18  and  C_26
   14  A    between atoms: O_18  and  C_31
   15  A    between atoms: C_19  and  C_48
   16  A    between atoms: N_23  and  C_30
   17  A    between atoms: C_25  and  C_26
   18  A    between atoms: C_27  and  C_38
   19  A    between atoms: C_30  and  O_47
   20  A    between atoms: C_33  and  C_37
   21  A    between atoms: C_34  and  C_35
   22  A    between atoms: C_38  and  C_42
   23  A    between atoms: O_47  and  C_52
                            x       y       z     vdW  Elec       q    Type
                         _______ _______ _______ _____ _____    ______ ____

>  <TORSDO>
F 23

$$$$
=
 OpenBabel11072411473D

 53 57  0  0  1  0  0  0  0  0999 V2000
  161.6460  209.9470  151.4430 C   0  0  1  0  0  3  0  0  0  0  0  0
  162.6940  210.0800  152.3530 O   0  0  0  0  0  1  0  0  0  0  0  0
  162.0400  210.5630  150.1420 C   0  0  0  0  0  3  0  0  0  0  0  0
  161.8530  209.9740  148.9570 C   0  0  0  0  0  0  0  0  0  0  0  0
  161.2790  208.7020  148.8400 O   0  0  0  0  0  0  0  0  0  0  0  0
  163.2110  207.8920  147.8960 O   0  0  0  0  0  1  0  0  0  0  0  0
  162.0620  207.5370  148.6060 C   0  0  2  0  0  3  0  0  0  0  0  0
  161.2450  206.4990  147.8400 C   0  0  1  0  0  3  0  0  0  0  0  0
  162.0850  205.8860  146.7110 C   0  0  2  0  0  3  0  0  0  0  0  0
  161.4530  205.9360  145.3580 C   0  0  2  0  0  3  0  0  0  0  0  0
  160.1920  206.5430  145.3650 O   0  0  0  0  0  1  0  0  0  0  0  0
  161.4140  204.7780  146.1550 O   0  0  0  0  0  0  0  0  0  0  0  0
  160.8150  205.4080  148.8140 C   0  0  0  0  0  2  0  0  0  0  0  0
  160.7240  204.1730  148.1660 O   0  0  0  0  0  0  0  0  0  0  0  0
  161.2280  203.2530  149.0890 C   0  0  0  0  0  2  0  0  0  0  0  0
  160.9450  201.8340  148.6250 C   0  0  0  0  0  2  0  0  0  0  0  0
  160.6860  200.9330  149.8160 C   0  0  0  0  0  1  0  0  0  0  0  0
  162.1960  210.7010  147.7780 N   0  0  0  0  0  2  0  0  0  0  0  0
  160.3410  212.2380  148.0920 C   0  0  0  0  0  2  0  0  0  0  0  0
  159.6250  214.4290  147.5080 O   0  0  0  0  0  1  0  0  0  0  0  0
  161.7390  212.0630  147.5480 C   0  0  1  0  0  3  0  0  0  0  0  0
  160.2450  213.6940  148.5190 C   0  0  2  0  0  0  0  0  0  0  0  0
  162.5930  213.0420  148.3230 C   0  0  0  0  0  2  0  0  0  0  0  0
  161.6730  214.1900  148.6980 C   0  0  0  0  0  2  0  0  0  0  0  0
  160.1080  214.2720  150.9690 O   0  0  0  0  0  1  0  0  0  0  0  0
  159.4770  213.8500  149.8010 C   0  0  0  0  0  0  0  0  0  0  0  0
  158.2400  213.6060  149.8250 O   0  0  0  0  0  0  0  0  0  0  0  0
  161.3210  208.4740  151.2580 C   0  0  0  0  0  2  0  0  0  0  0  0
  162.2270  207.6300  152.1400 C   0  0  2  0  0  3  0  0  0  0  0  0
  162.6570  206.4870  151.4580 O   0  0  0  0  0  1  0  0  0  0  0  0
  161.5350  207.2730  153.4620 C   0  0  1  0  0  3  0  0  0  0  0  0
  161.2190  205.7850  153.6210 C   0  0  0  0  0  2  0  0  0  0  0  0
  160.8040  203.7070  152.3500 C   0  0  0  0  0  1  0  0  0  0  0  0
  160.6570  205.2130  152.3350 C   0  0  0  0  0  2  0  0  0  0  0  0
  162.3180  207.8100  154.6580 C   0  0  0  0  0  2  0  0  0  0  0  0
  161.4330  208.5330  155.6660 C   0  0  0  0  0  2  0  0  0  0  0  0
  160.7930  210.9090  155.3320 C   0  0  1  0  0  0  0  0  0  0  0  0
  159.0220  209.3390  155.4200 C   0  0  1  0  0  3  0  0  0  0  0  0
  161.1130  211.8110  154.3160 O   0  0  0  0  0  1  0  0  0  0  0  0
  159.6030  211.3490  156.1670 C   0  0  1  0  0  0  0  0  0  0  0  0
  158.8080  210.2330  156.4800 O   0  0  0  0  0  0  0  0  0  0  0  0
  160.4710  209.4830  154.9540 C   0  0  2  0  0  3  0  0  0  0  0  0
  160.9930  211.3580  156.7820 C   0  0  0  0  0  2  0  0  0  0  0  0
  158.5570  212.6730  154.3100 C   0  0  0  0  0  2  0  0  0  0  0  0
  158.8870  212.6640  155.7870 C   0  0  1  0  0  3  0  0  0  0  0  0
  156.5150  212.4100  155.4260 C   0  0  1  0  0  3  0  0  0  0  0  0
  157.1890  212.1980  154.1480 N   0  0  0  0  0  2  0  0  0  0  0  0
  157.5420  212.8360  156.4590 C   0  0  0  0  0  2  0  0  0  0  0  0
  155.4490  213.4470  155.2870 C   0  0  0  0  0  0  0  0  0  0  0  0
  154.9200  213.9600  156.3090 O   0  0  0  0  0  0  0  0  0  0  0  0
  155.0270  213.8560  153.9920 N   0  0  0  0  0  1  0  0  0  0  0  0
  159.3890  207.2010  156.4820 N   0  0  0  0  0  2  0  0  0  0  0  0
  158.6060  207.9480  155.7950 C   0  0  0  0  0  3  0  0  0  0  0  0
  1  2  1  1  0  0  0
  3  1  1  0  0  0  0
  4  3  2  0  0  0  0
  5  4  1  0  0  0  0
  7  6  1  6  0  0  0
  7  5  1  0  0  0  0
  8  7  1  0  0  0  0
  8 13  1  1  0  0  0
  9  8  1  1  0  0  0
 10 11  1  1  0  0  0
 10 12  1  0  0  0  0
 10  9  1  0  0  0  0
 12  9  1  0  0  0  0
 14 13  1  0  0  0  0
 14 15  1  0  0  0  0
 16 15  1  0  0  0  0
 16 17  1  0  0  0  0
 18  4  1  0  0  0  0
 19 22  1  0  0  0  0
 21 18  1  1  0  0  0
 21 19  1  0  0  0  0
 21 23  1  0  0  0  0
 22 20  1  6  0  0  0
 22 24  1  0  0  0  0
 22 26  1  0  0  0  0
 23 24  1  0  0  0  0
 26 27  2  0  0  0  0
 26 25  1  0  0  0  0
 28  1  1  0  0  0  0
 28 29  1  0  0  0  0
 29 30  1  6  0  0  0
 29 31  1  0  0  0  0
 31 32  1  1  0  0  0
 31 35  1  0  0  0  0
 34 33  1  0  0  0  0
 34 32  1  0  0  0  0
 35 36  1  0  0  0  0
 37 39  1  6  0  0  0
 37 40  1  0  0  0  0
 37 43  1  0  0  0  0
 38 53  1  1  0  0  0
 38 41  1  0  0  0  0
 40 41  1  0  0  0  0
 40 43  1  1  0  0  0
 42 37  1  0  0  0  0
 42 38  1  0  0  0  0
 42 36  1  1  0  0  0
 45 44  1  6  0  0  0
 45 40  1  0  0  0  0
 45 48  1  0  0  0  0
 46 49  1  6  0  0  0
 46 48  1  0  0  0  0
 47 44  1  0  0  0  0
 47 46  1  0  0  0  0
 49 50  2  0  0  0  0
 51 49  1  0  0  0  0
 53 52  2  0  0  0  0
M  END
>  <MODEL>
5

>  <REMARK>
 VINA RESULT:      -2.7      2.931     10.338
  Name = 
  23 active torsions:
  status: ('A' for Active; 'I' for Inactive)
    1  A    between atoms: C_2  and  C_28
    2  A    between atoms: C_4  and  C_37
    3  A    between atoms: C_4  and  C_42
    4  A    between atoms: C_7  and  C_21
    5  A    between atoms: C_9  and  C_10
    6  A    between atoms: C_9  and  C_31
    7  A    between atoms: C_9  and  C_52
    8  A    between atoms: C_13  and  C_19
    9  A    between atoms: C_13  and  C_37
   10  A    between atoms: C_14  and  C_33
   11  A    between atoms: C_15  and  C_46
   12  A    between atoms: C_17  and  N_23
   13  A    between atoms: O_18  and  C_26
   14  A    between atoms: O_18  and  C_31
   15  A    between atoms: C_19  and  C_48
   16  A    between atoms: N_23  and  C_30
   17  A    between atoms: C_25  and  C_26
   18  A    between atoms: C_27  and  C_38
   19  A    between atoms: C_30  and  O_47
   20  A    between atoms: C_33  and  C_37
   21  A    between atoms: C_34  and  C_35
   22  A    between atoms: C_38  and  C_42
   23  A    between atoms: O_47  and  C_52
                            x       y       z     vdW  Elec       q    Type
                         _______ _______ _______ _____ _____    ______ ____

>  <TORSDO>
F 23

$$$$
=
 OpenBabel11072411473D

 53 57  0  0  1  0  0  0  0  0999 V2000
  158.9870  211.1740  152.8870 C   0  0  1  0  0  3  0  0  0  0  0  0
  157.7540  210.9720  152.2670 O   0  0  0  0  0  1  0  0  0  0  0  0
  158.8490  212.2310  153.9310 C   0  0  0  0  0  3  0  0  0  0  0  0
  159.0630  213.5290  153.7030 C   0  0  0  0  0  0  0  0  0  0  0  0
  159.4600  214.0100  152.4490 O   0  0  0  0  0  0  0  0  0  0  0  0
  157.2330  214.0810  151.8920 O   0  0  0  0  0  1  0  0  0  0  0  0
  158.5200  214.4070  151.4580 C   0  0  2  0  0  3  0  0  0  0  0  0
  158.8370  213.7250  150.1280 C   0  0  1  0  0  3  0  0  0  0  0  0
  158.1320  214.4510  148.9750 C   0  0  2  0  0  3  0  0  0  0  0  0
  156.7110  214.0460  148.7520 C   0  0  2  0  0  3  0  0  0  0  0  0
  156.2740  213.0650  149.6490 O   0  0  0  0  0  1  0  0  0  0  0  0
  157.7630  213.5280  147.9750 O   0  0  0  0  0  0  0  0  0  0  0  0
  160.3460  213.7620  149.9150 C   0  0  0  0  0  2  0  0  0  0  0  0
  160.6510  214.0600  148.5850 O   0  0  0  0  0  0  0  0  0  0  0  0
  162.0350  214.2540  148.5750 C   0  0  0  0  0  2  0  0  0  0  0  0
  162.5750  214.1210  147.1610 C   0  0  0  0  0  2  0  0  0  0  0  0
  162.0660  212.8450  146.5210 C   0  0  0  0  0  1  0  0  0  0  0  0
  158.8170  214.4530  154.7630 N   0  0  0  0  0  2  0  0  0  0  0  0
  156.5730  213.5610  155.0260 C   0  0  0  0  0  2  0  0  0  0  0  0
  154.7720  213.4920  156.5770 O   0  0  0  0  0  1  0  0  0  0  0  0
  157.7180  214.2810  155.7000 C   0  0  1  0  0  3  0  0  0  0  0  0
  155.8790  212.7720  156.1260 C   0  0  2  0  0  0  0  0  0  0  0  0
  158.1360  213.3830  156.8430 C   0  0  0  0  0  2  0  0  0  0  0  0
  156.8840  212.6320  157.2600 C   0  0  0  0  0  2  0  0  0  0  0  0
  155.1890  211.1780  154.3010 O   0  0  0  0  0  0  0  0  0  0  0  0
  155.4410  211.4160  155.6500 C   0  0  0  0  0  0  0  0  0  0  0  0
  155.3050  210.4750  156.4760 O   0  0  0  0  0  1  0  0  0  0  0  0
  159.4610  209.8700  153.5070 C   0  0  0  0  0  2  0  0  0  0  0  0
  160.7580  209.4250  152.8500 C   0  0  2  0  0  3  0  0  0  0  0  0
  160.5000  208.7800  151.6350 O   0  0  0  0  0  1  0  0  0  0  0  0
  161.5830  208.5440  153.7950 C   0  0  1  0  0  3  0  0  0  0  0  0
  160.8420  208.1220  155.0640 C   0  0  0  0  0  2  0  0  0  0  0  0
  161.4840  210.0070  156.5290 C   0  0  0  0  0  1  0  0  0  0  0  0
  161.6240  208.5170  156.3020 C   0  0  0  0  0  2  0  0  0  0  0  0
  162.1660  207.3380  153.0600 C   0  0  0  0  0  2  0  0  0  0  0  0
  161.2850  206.8700  151.9080 C   0  0  0  0  0  2  0  0  0  0  0  0
  161.7550  206.5960  149.4850 C   0  0  1  0  0  0  0  0  0  0  0  0
  161.7740  204.6230  150.7970 C   0  0  1  0  0  3  0  0  0  0  0  0
  162.7680  207.1230  148.6820 O   0  0  0  0  0  1  0  0  0  0  0  0
  161.0460  205.4120  148.8510 C   0  0  1  0  0  0  0  0  0  0  0  0
  160.7690  204.4460  149.8340 O   0  0  0  0  0  0  0  0  0  0  0  0
  162.1120  206.1120  150.8700 C   0  0  2  0  0  3  0  0  0  0  0  0
  160.3090  206.7320  149.0020 C   0  0  0  0  0  2  0  0  0  0  0  0
  162.3770  203.6730  147.6270 C   0  0  0  0  0  2  0  0  0  0  0  0
  161.5330  204.9190  147.4700 C   0  0  1  0  0  3  0  0  0  0  0  0
  160.3610  202.9700  146.6640 C   0  0  1  0  0  3  0  0  0  0  0  0
  161.5150  202.5140  147.4340 N   0  0  0  0  0  2  0  0  0  0  0  0
  160.4110  204.4830  146.5530 C   0  0  0  0  0  2  0  0  0  0  0  0
  160.3590  202.3450  145.3080 C   0  0  0  0  0  0  0  0  0  0  0  0
  160.2060  203.0540  144.2780 O   0  0  0  0  0  0  0  0  0  0  0  0
  160.5260  200.9390  145.1790 N   0  0  0  0  0  1  0  0  0  0  0  0
  160.1600  203.7650  152.3740 N   0  0  0  0  0  2  0  0  0  0  0  0
  161.3910  203.9890  152.1000 C   0  0  0  0  0  3  0  0  0  0  0  0
  1  2  1  1  0  0  0
  1 28  1  0  0  0  0
  1  3  1  0  0  0  0
  4  3  2  0  0  0  0
  4 18  1  0  0  0  0
  5  4  1  0  0  0  0
  7  6  1  1  0  0  0
  7  5  1  0  0  0  0
  8 13  1  6  0  0  0
  8  7  1  0  0  0  0
  9  8  1  1  0  0  0
 10  9  1  0  0  0  0
 10 11  1  1  0  0  0
 12 10  1  0  0  0  0
 12  9  1  0  0  0  0
 14 13  1  0  0  0  0
 15 14  1  0  0  0  0
 16 15  1  0  0  0  0
 17 16  1  0  0  0  0
 19 21  1  0  0  0  0
 19 22  1  0  0  0  0
 21 18  1  6  0  0  0
 21 23  1  0  0  0  0
 22 20  1  1  0  0  0
 22 24  1  0  0  0  0
 23 24  1  0  0  0  0
 25 26  2  0  0  0  0
 26 22  1  0  0  0  0
 26 27  1  0  0  0  0
 29 30  1  6  0  0  0
 29 28  1  0  0  0  0
 29 31  1  0  0  0  0
 31 35  1  6  0  0  0
 31 32  1  0  0  0  0
 32 34  1  0  0  0  0
 34 33  1  0  0  0  0
 36 35  1  0  0  0  0
 37 39  1  6  0  0  0
 37 42  1  0  0  0  0
 38 42  1  0  0  0  0
 38 53  1  1  0  0  0
 40 43  1  6  0  0  0
 40 37  1  0  0  0  0
 40 41  1  0  0  0  0
 41 38  1  0  0  0  0
 42 36  1  1  0  0  0
 43 37  1  0  0  0  0
 45 48  1  6  0  0  0
 45 44  1  0  0  0  0
 45 40  1  0  0  0  0
 46 49  1  6  0  0  0
 46 47  1  0  0  0  0
 47 44  1  0  0  0  0
 48 46  1  0  0  0  0
 50 49  2  0  0  0  0
 51 49  1  0  0  0  0
 53 52  2  0  0  0  0
M  END
>  <MODEL>
6

>  <REMARK>
 VINA RESULT:      -2.0      2.037      4.932
  Name = 
  23 active torsions:
  status: ('A' for Active; 'I' for Inactive)
    1  A    between atoms: C_2  and  C_28
    2  A    between atoms: C_4  and  C_37
    3  A    between atoms: C_4  and  C_42
    4  A    between atoms: C_7  and  C_21
    5  A    between atoms: C_9  and  C_10
    6  A    between atoms: C_9  and  C_31
    7  A    between atoms: C_9  and  C_52
    8  A    between atoms: C_13  and  C_19
    9  A    between atoms: C_13  and  C_37
   10  A    between atoms: C_14  and  C_33
   11  A    between atoms: C_15  and  C_46
   12  A    between atoms: C_17  and  N_23
   13  A    between atoms: O_18  and  C_26
   14  A    between atoms: O_18  and  C_31
   15  A    between atoms: C_19  and  C_48
   16  A    between atoms: N_23  and  C_30
   17  A    between atoms: C_25  and  C_26
   18  A    between atoms: C_27  and  C_38
   19  A    between atoms: C_30  and  O_47
   20  A    between atoms: C_33  and  C_37
   21  A    between atoms: C_34  and  C_35
   22  A    between atoms: C_38  and  C_42
   23  A    between atoms: O_47  and  C_52
                            x       y       z     vdW  Elec       q    Type
                         _______ _______ _______ _____ _____    ______ ____

>  <TORSDO>
F 23

$$$$
=
 OpenBabel11072411473D

 53 57  0  0  1  0  0  0  0  0999 V2000
  161.3130  206.4140  153.9420 C   0  0  1  0  0  3  0  0  0  0  0  0
  160.6430  205.9110  155.0570 O   0  0  0  0  0  1  0  0  0  0  0  0
  161.4700  205.3300  152.9280 C   0  0  0  0  0  3  0  0  0  0  0  0
  161.4730  205.5440  151.6100 C   0  0  0  0  0  0  0  0  0  0  0  0
  161.3080  206.8220  151.0620 O   0  0  0  0  0  0  0  0  0  0  0  0
  160.0200  205.8320  149.4370 O   0  0  0  0  0  1  0  0  0  0  0  0
  160.5160  207.0520  149.9030 C   0  0  2  0  0  3  0  0  0  0  0  0
  161.3470  207.7510  148.8280 C   0  0  1  0  0  3  0  0  0  0  0  0
  162.2880  208.7810  149.4670 C   0  0  2  0  0  3  0  0  0  0  0  0
  162.1000  210.1850  148.9900 C   0  0  2  0  0  3  0  0  0  0  0  0
  161.0850  210.3070  148.0340 O   0  0  0  0  0  1  0  0  0  0  0  0
  163.1170  209.3560  148.4820 O   0  0  0  0  0  0  0  0  0  0  0  0
  162.1630  206.6970  148.0880 C   0  0  0  0  0  2  0  0  0  0  0  0
  161.7350  206.5800  146.7630 O   0  0  0  0  0  0  0  0  0  0  0  0
  162.5730  205.6110  146.2060 C   0  0  0  0  0  2  0  0  0  0  0  0
  161.7880  204.3430  145.9140 C   0  0  0  0  0  2  0  0  0  0  0  0
  160.6750  204.6290  144.9250 C   0  0  0  0  0  1  0  0  0  0  0  0
  161.7150  204.4350  150.7440 N   0  0  0  0  0  2  0  0  0  0  0  0
  160.4750  202.9790  149.2470 C   0  0  0  0  0  2  0  0  0  0  0  0
  158.8740  201.2210  149.2700 O   0  0  0  0  0  1  0  0  0  0  0  0
  160.8190  203.2910  150.6840 C   0  0  1  0  0  3  0  0  0  0  0  0
  160.2440  201.4770  149.1960 C   0  0  2  0  0  0  0  0  0  0  0  0
  161.5120  202.0520  151.2050 C   0  0  0  0  0  2  0  0  0  0  0  0
  160.9320  200.8900  150.4190 C   0  0  0  0  0  2  0  0  0  0  0  0
  160.2030  201.0920  146.7060 O   0  0  0  0  0  0  0  0  0  0  0  0
  160.8040  200.8680  147.9420 C   0  0  0  0  0  0  0  0  0  0  0  0
  161.8390  200.1500  148.0010 O   0  0  0  0  0  1  0  0  0  0  0  0
  160.5270  207.5770  153.3610 C   0  0  0  0  0  2  0  0  0  0  0  0
  161.1830  208.8920  153.7510 C   0  0  2  0  0  3  0  0  0  0  0  0
  162.1810  208.6820  154.7090 O   0  0  0  0  0  1  0  0  0  0  0  0
  160.1410  209.9080  154.2340 C   0  0  1  0  0  3  0  0  0  0  0  0
  159.8440  209.8360  155.7320 C   0  0  0  0  0  2  0  0  0  0  0  0
  157.8450  211.2650  155.9990 C   0  0  0  0  0  1  0  0  0  0  0  0
  158.3490  209.8380  155.9870 C   0  0  0  0  0  2  0  0  0  0  0  0
  160.5110  211.3260  153.8040 C   0  0  0  0  0  2  0  0  0  0  0  0
  159.2910  212.1830  153.4880 C   0  0  0  0  0  2  0  0  0  0  0  0
  159.9240  212.9410  151.2100 C   0  0  1  0  0  0  0  0  0  0  0  0
  157.6060  212.7510  151.6560 C   0  0  1  0  0  3  0  0  0  0  0  0
  160.6780  212.3180  150.2120 O   0  0  0  0  0  1  0  0  0  0  0  0
  159.0870  214.0960  150.6910 C   0  0  1  0  0  0  0  0  0  0  0  0
  157.8340  214.0960  151.3290 O   0  0  0  0  0  0  0  0  0  0  0  0
  158.9470  212.1050  152.0010 C   0  0  2  0  0  3  0  0  0  0  0  0
  160.2810  214.3800  151.5870 C   0  0  0  0  0  2  0  0  0  0  0  0
  159.9660  213.3810  148.4520 C   0  0  0  0  0  2  0  0  0  0  0  0
  159.1280  214.4110  149.1790 C   0  0  1  0  0  3  0  0  0  0  0  0
  157.7450  212.9540  147.8430 C   0  0  1  0  0  3  0  0  0  0  0  0
  159.0720  212.3520  147.9370 N   0  0  0  0  0  2  0  0  0  0  0  0
  157.7770  214.3200  148.5040 C   0  0  0  0  0  2  0  0  0  0  0  0
  157.3260  213.0720  146.4150 C   0  0  0  0  0  0  0  0  0  0  0  0
  158.0430  212.5920  145.4970 O   0  0  0  0  0  0  0  0  0  0  0  0
  156.1120  213.7370  146.0880 N   0  0  0  0  0  1  0  0  0  0  0  0
  155.4670  213.3120  152.6250 N   0  0  0  0  0  2  0  0  0  0  0  0
  156.5450  212.6240  152.7070 C   0  0  0  0  0  3  0  0  0  0  0  0
  1  2  1  1  0  0  0
  3  1  1  0  0  0  0
  4  3  2  0  0  0  0
  5  4  1  0  0  0  0
  7  6  1  6  0  0  0
  7  5  1  0  0  0  0
  8 13  1  1  0  0  0
  8  7  1  0  0  0  0
  9  8  1  6  0  0  0
 10 11  1  6  0  0  0
 10  9  1  0  0  0  0
 12 10  1  0  0  0  0
 12  9  1  0  0  0  0
 14 13  1  0  0  0  0
 15 14  1  0  0  0  0
 16 15  1  0  0  0  0
 17 16  1  0  0  0  0
 18  4  1  0  0  0  0
 19 21  1  0  0  0  0
 21 18  1  6  0  0  0
 21 23  1  0  0  0  0
 22 19  1  0  0  0  0
 22 20  1  1  0  0  0
 22 24  1  0  0  0  0
 24 23  1  0  0  0  0
 25 26  2  0  0  0  0
 26 27  1  0  0  0  0
 26 22  1  0  0  0  0
 28 29  1  0  0  0  0
 28  1  1  0  0  0  0
 29 31  1  0  0  0  0
 29 30  1  1  0  0  0
 31 35  1  1  0  0  0
 31 32  1  0  0  0  0
 32 34  1  0  0  0  0
 34 33  1  0  0  0  0
 36 35  1  0  0  0  0
 37 39  1  6  0  0  0
 37 43  1  0  0  0  0
 37 42  1  0  0  0  0
 38 42  1  0  0  0  0
 38 53  1  1  0  0  0
 40 37  1  0  0  0  0
 40 41  1  0  0  0  0
 40 43  1  1  0  0  0
 41 38  1  0  0  0  0
 42 36  1  1  0  0  0
 45 44  1  6  0  0  0
 45 40  1  0  0  0  0
 46 49  1  6  0  0  0
 46 47  1  0  0  0  0
 46 48  1  0  0  0  0
 47 44  1  0  0  0  0
 48 45  1  0  0  0  0
 50 49  2  0  0  0  0
 51 49  1  0  0  0  0
 52 53  2  0  0  0  0
M  END
>  <MODEL>
7

>  <REMARK>
 VINA RESULT:      -1.9      3.063      9.619
  Name = 
  23 active torsions:
  status: ('A' for Active; 'I' for Inactive)
    1  A    between atoms: C_2  and  C_28
    2  A    between atoms: C_4  and  C_37
    3  A    between atoms: C_4  and  C_42
    4  A    between atoms: C_7  and  C_21
    5  A    between atoms: C_9  and  C_10
    6  A    between atoms: C_9  and  C_31
    7  A    between atoms: C_9  and  C_52
    8  A    between atoms: C_13  and  C_19
    9  A    between atoms: C_13  and  C_37
   10  A    between atoms: C_14  and  C_33
   11  A    between atoms: C_15  and  C_46
   12  A    between atoms: C_17  and  N_23
   13  A    between atoms: O_18  and  C_26
   14  A    between atoms: O_18  and  C_31
   15  A    between atoms: C_19  and  C_48
   16  A    between atoms: N_23  and  C_30
   17  A    between atoms: C_25  and  C_26
   18  A    between atoms: C_27  and  C_38
   19  A    between atoms: C_30  and  O_47
   20  A    between atoms: C_33  and  C_37
   21  A    between atoms: C_34  and  C_35
   22  A    between atoms: C_38  and  C_42
   23  A    between atoms: O_47  and  C_52
                            x       y       z     vdW  Elec       q    Type
                         _______ _______ _______ _____ _____    ______ ____

>  <TORSDO>
F 23

$$$$
=
 OpenBabel11072411473D

 53 57  0  0  1  0  0  0  0  0999 V2000
  159.9380  209.0850  152.8390 C   0  0  1  0  0  3  0  0  0  0  0  0
  159.7220  208.1230  153.8250 O   0  0  0  0  0  1  0  0  0  0  0  0
  160.4120  210.3490  153.4760 C   0  0  0  0  0  3  0  0  0  0  0  0
  159.8930  211.5510  153.2120 C   0  0  0  0  0  0  0  0  0  0  0  0
  158.8570  211.7290  152.2870 O   0  0  0  0  0  0  0  0  0  0  0  0
  157.2470  213.3670  152.2590 O   0  0  0  0  0  1  0  0  0  0  0  0
  158.5080  213.0100  151.7770 C   0  0  2  0  0  3  0  0  0  0  0  0
  158.5240  212.9920  150.2500 C   0  0  1  0  0  3  0  0  0  0  0  0
  157.3590  213.8220  149.6940 C   0  0  2  0  0  3  0  0  0  0  0  0
  156.7630  213.3010  148.4260 C   0  0  2  0  0  3  0  0  0  0  0  0
  157.3840  212.1330  147.9690 O   0  0  0  0  0  1  0  0  0  0  0  0
  157.7000  214.3510  148.4320 O   0  0  0  0  0  0  0  0  0  0  0  0
  159.8480  213.5760  149.7730 C   0  0  0  0  0  2  0  0  0  0  0  0
  160.5120  212.6790  148.9330 O   0  0  0  0  0  0  0  0  0  0  0  0
  161.6880  213.3400  148.5700 C   0  0  0  0  0  2  0  0  0  0  0  0
  161.8910  213.2640  147.0660 C   0  0  0  0  0  2  0  0  0  0  0  0
  160.6180  212.7990  146.3860 C   0  0  0  0  0  1  0  0  0  0  0  0
  160.3770  212.6740  153.9480 N   0  0  0  0  0  2  0  0  0  0  0  0
  158.3000  213.4960  154.9040 C   0  0  0  0  0  2  0  0  0  0  0  0
  157.4100  214.3890  156.9190 O   0  0  0  0  0  1  0  0  0  0  0  0
  159.7400  213.1270  155.1740 C   0  0  1  0  0  3  0  0  0  0  0  0
  157.5520  213.2050  156.1950 C   0  0  2  0  0  0  0  0  0  0  0  0
  159.6800  212.0020  156.1830 C   0  0  0  0  0  2  0  0  0  0  0  0
  158.4120  212.2320  156.9870 C   0  0  0  0  0  2  0  0  0  0  0  0
  155.1650  212.7380  156.8580 O   0  0  0  0  0  1  0  0  0  0  0  0
  156.1980  212.6070  155.9330 C   0  0  0  0  0  0  0  0  0  0  0  0
  155.9860  211.9840  154.8580 O   0  0  0  0  0  0  0  0  0  0  0  0
  160.9660  208.5700  151.8450 C   0  0  0  0  0  2  0  0  0  0  0  0
  161.5510  207.2570  152.3400 C   0  0  2  0  0  3  0  0  0  0  0  0
  162.5010  207.4840  153.3410 O   0  0  0  0  0  1  0  0  0  0  0  0
  162.1340  206.4400  151.1800 C   0  0  1  0  0  3  0  0  0  0  0  0
  162.0760  204.9270  151.3900 C   0  0  0  0  0  2  0  0  0  0  0  0
  160.9870  203.0670  152.6000 C   0  0  0  0  0  1  0  0  0  0  0  0
  161.0970  204.5720  152.4920 C   0  0  0  0  0  2  0  0  0  0  0  0
  161.5050  206.8450  149.8480 C   0  0  0  0  0  2  0  0  0  0  0  0
  161.9360  205.9450  148.6960 C   0  0  0  0  0  2  0  0  0  0  0  0
  160.9770  203.6560  148.7790 C   0  0  1  0  0  0  0  0  0  0  0  0
  160.7430  204.8290  146.7340 C   0  0  1  0  0  3  0  0  0  0  0  0
  159.9840  203.1060  149.5910 O   0  0  0  0  0  1  0  0  0  0  0  0
  161.2620  202.8250  147.5400 C   0  0  1  0  0  0  0  0  0  0  0  0
  161.4840  203.6740  146.4420 O   0  0  0  0  0  0  0  0  0  0  0  0
  160.7790  205.0550  148.2450 C   0  0  2  0  0  3  0  0  0  0  0  0
  162.3000  202.8980  148.6480 C   0  0  0  0  0  2  0  0  0  0  0  0
  159.9100  201.5090  145.8860 C   0  0  0  0  0  2  0  0  0  0  0  0
  160.4280  201.5450  147.3080 C   0  0  1  0  0  3  0  0  0  0  0  0
  161.5710  199.8620  146.0100 C   0  0  1  0  0  3  0  0  0  0  0  0
  160.8390  200.7230  145.0850 N   0  0  0  0  0  2  0  0  0  0  0  0
  161.2310  200.2690  147.4330 C   0  0  0  0  0  2  0  0  0  0  0  0
  161.2200  198.4290  145.7770 C   0  0  0  0  0  0  0  0  0  0  0  0
  161.4340  197.5650  146.6690 O   0  0  0  0  0  0  0  0  0  0  0  0
  160.6440  198.0370  144.5370 N   0  0  0  0  0  1  0  0  0  0  0  0
  160.4640  206.4390  144.9570 N   0  0  0  0  0  2  0  0  0  0  0  0
  161.2010  205.9890  145.9020 C   0  0  0  0  0  3  0  0  0  0  0  0
  1  3  1  0  0  0  0
  1  2  1  1  0  0  0
  4  3  2  0  0  0  0
  4 18  1  0  0  0  0
  5  4  1  0  0  0  0
  7  6  1  6  0  0  0
  7  5  1  0  0  0  0
  8 13  1  6  0  0  0
  8  7  1  0  0  0  0
  9  8  1  6  0  0  0
 10 11  1  6  0  0  0
 10 12  1  0  0  0  0
 10  9  1  0  0  0  0
 12  9  1  0  0  0  0
 14 13  1  0  0  0  0
 15 14  1  0  0  0  0
 16 15  1  0  0  0  0
 17 16  1  0  0  0  0
 19 21  1  0  0  0  0
 19 22  1  0  0  0  0
 21 18  1  6  0  0  0
 21 23  1  0  0  0  0
 22 20  1  1  0  0  0
 22 24  1  0  0  0  0
 23 24  1  0  0  0  0
 26 22  1  0  0  0  0
 26 25  1  0  0  0  0
 27 26  2  0  0  0  0
 28 29  1  0  0  0  0
 28  1  1  0  0  0  0
 29 30  1  1  0  0  0
 31 35  1  6  0  0  0
 31 32  1  0  0  0  0
 31 29  1  0  0  0  0
 32 34  1  0  0  0  0
 34 33  1  0  0  0  0
 36 35  1  0  0  0  0
 37 39  1  1  0  0  0
 38 53  1  6  0  0  0
 38 42  1  0  0  0  0
 40 43  1  1  0  0  0
 40 37  1  0  0  0  0
 41 38  1  0  0  0  0
 41 40  1  0  0  0  0
 42 36  1  6  0  0  0
 42 37  1  0  0  0  0
 43 37  1  0  0  0  0
 45 44  1  6  0  0  0
 45 48  1  0  0  0  0
 45 40  1  0  0  0  0
 46 49  1  1  0  0  0
 46 48  1  0  0  0  0
 47 44  1  0  0  0  0
 47 46  1  0  0  0  0
 49 50  2  0  0  0  0
 51 49  1  0  0  0  0
 52 53  2  0  0  0  0
M  END
>  <MODEL>
8

>  <REMARK>
 VINA RESULT:      -1.7      2.161      5.136
  Name = 
  23 active torsions:
  status: ('A' for Active; 'I' for Inactive)
    1  A    between atoms: C_2  and  C_28
    2  A    between atoms: C_4  and  C_37
    3  A    between atoms: C_4  and  C_42
    4  A    between atoms: C_7  and  C_21
    5  A    between atoms: C_9  and  C_10
    6  A    between atoms: C_9  and  C_31
    7  A    between atoms: C_9  and  C_52
    8  A    between atoms: C_13  and  C_19
    9  A    between atoms: C_13  and  C_37
   10  A    between atoms: C_14  and  C_33
   11  A    between atoms: C_15  and  C_46
   12  A    between atoms: C_17  and  N_23
   13  A    between atoms: O_18  and  C_26
   14  A    between atoms: O_18  and  C_31
   15  A    between atoms: C_19  and  C_48
   16  A    between atoms: N_23  and  C_30
   17  A    between atoms: C_25  and  C_26
   18  A    between atoms: C_27  and  C_38
   19  A    between atoms: C_30  and  O_47
   20  A    between atoms: C_33  and  C_37
   21  A    between atoms: C_34  and  C_35
   22  A    between atoms: C_38  and  C_42
   23  A    between atoms: O_47  and  C_52
                            x       y       z     vdW  Elec       q    Type
                         _______ _______ _______ _____ _____    ______ ____

>  <TORSDO>
F 23

$$$$
