=
 OpenBabel11072411533D

 32 35  0  0  1  0  0  0  0  0999 V2000
  161.1970  207.3230  154.5950 N   0  0  0  0  0  2  0  0  0  0  0  0
  161.6810  211.0770  156.1040 S   0  0  0  0  0  0  0  0  0  0  0  0
  159.9810  211.3490  155.6100 C   0  0  0  0  0  0  0  0  0  0  0  0
  161.9310  208.9110  149.8230 C   0  0  0  0  0  0  0  0  0  0  0  0
  161.5360  209.2590  156.0070 C   0  0  0  0  0  2  0  0  0  0  0  0
  161.2930  206.5910  153.3690 C   0  0  0  0  0  0  0  0  0  0  0  0
  161.2220  205.3350  153.3970 O   0  0  0  0  0  0  0  0  0  0  0  0
  159.4230  210.6180  154.5200 N   0  0  0  0  0  2  0  0  0  0  0  0
  159.6610  209.1890  154.3450 C   0  0  0  0  0  2  0  0  0  0  0  0
  161.1160  208.7810  154.6120 C   0  0  2  0  0  0  0  0  0  0  0  0
  161.5840  207.5580  149.6640 C   0  0  0  0  0  0  0  0  0  0  0  0
  161.5090  207.3340  152.1000 C   0  0  0  0  0  0  0  0  0  0  0  0
  161.3720  206.7570  150.8140 C   0  0  0  0  0  0  0  0  0  0  0  0
  159.2880  212.2120  156.2060 O   0  0  0  0  0  0  0  0  0  0  0  0
  162.0520  209.3530  153.5320 C   0  0  0  0  0  2  0  0  0  0  0  0
  161.0880  205.6520  148.2430 C   0  0  0  0  0  3  0  0  0  0  0  0
  161.0160  205.4100  150.6450 C   0  0  0  0  0  3  0  0  0  0  0  0
  161.4410  206.9940  148.3870 C   0  0  0  0  0  3  0  0  0  0  0  0
  161.8430  208.7000  152.1930 C   0  0  0  0  0  0  0  0  0  0  0  0
  160.8720  204.8520  149.3730 C   0  0  0  0  0  0  0  0  0  0  0  0
  162.0500  209.4340  151.0710 N   0  0  0  0  0  0  0  0  0  0  0  0
  162.1460  209.8130  148.6460 C   0  0  0  0  0  2  0  0  0  0  0  0
  161.9470  211.2740  149.0310 C   0  0  0  0  0  2  0  0  0  0  0  0
  162.2230  212.2020  147.8580 C   0  0  0  0  0  2  0  0  0  0  0  0
  163.5650  212.5860  147.8570 O   0  0  0  0  0  1  0  0  0  0  0  0
  160.5150  203.5050  149.2620 O   0  0  0  0  0  0  0  0  0  0  0  0
  161.1990  202.5880  148.4180 C   0  0  0  0  0  2  0  0  0  0  0  0
  160.2740  201.7430  147.7860 O   0  0  0  0  0  0  0  0  0  0  0  0
  159.6210  201.4860  145.5970 F   0  0  0  0  0  0  0  0  0  0  0  0
  161.5750  202.5390  146.0620 F   0  0  0  0  0  0  0  0  0  0  0  0
  160.7020  201.5380  146.4620 C   0  0  0  0  0  0  0  0  0  0  0  0
  161.3700  200.3310  146.3960 F   0  0  0  0  0  0  0  0  0  0  0  0
  1 10  1  0  0  0  0
  3  2  1  0  0  0  0
  3 14  2  0  0  0  0
  4 21  1  0  0  0  0
  5  2  1  0  0  0  0
  6  7  2  0  0  0  0
  6  1  1  0  0  0  0
  8  3  1  0  0  0  0
  9  8  1  0  0  0  0
  9 10  1  0  0  0  0
 10 15  1  6  0  0  0
 10  5  1  0  0  0  0
 11  4  2  0  0  0  0
 11 13  1  0  0  0  0
 12 19  1  0  0  0  0
 12  6  1  0  0  0  0
 13 12  2  0  0  0  0
 16 18  2  0  0  0  0
 16 20  1  0  0  0  0
 17 13  1  0  0  0  0
 18 11  1  0  0  0  0
 19 15  1  0  0  0  0
 20 17  2  0  0  0  0
 21 19  2  0  0  0  0
 22 23  1  0  0  0  0
 22  4  1  0  0  0  0
 24 23  1  0  0  0  0
 25 24  1  0  0  0  0
 26 20  1  0  0  0  0
 27 26  1  0  0  0  0
 28 27  1  0  0  0  0
 29 31  1  0  0  0  0
 30 31  1  0  0  0  0
 31 28  1  0  0  0  0
 32 31  1  0  0  0  0
M  END
>  <MODEL>
1

>  <REMARK>
 VINA RESULT:      -8.2      0.000      0.000
  Name = 
  7 active torsions:
  status: ('A' for Active; 'I' for Inactive)
    1  A    between atoms: C_6  and  C_8
    2  A    between atoms: C_7  and  O_11
    3  A    between atoms: C_8  and  C_24
    4  A    between atoms: O_11  and  C_16
    5  A    between atoms: C_16  and  O_19
    6  A    between atoms: O_19  and  C_29
    7  A    between atoms: C_20  and  C_24
                            x       y       z     vdW  Elec       q    Type
                         _______ _______ _______ _____ _____    ______ ____

>  <TORSDO>
F 7

$$$$
=
 OpenBabel11072411533D

 32 35  0  0  1  0  0  0  0  0999 V2000
  161.0220  207.8780  154.5610 N   0  0  0  0  0  2  0  0  0  0  0  0
  161.5320  211.4730  156.4110 S   0  0  0  0  0  0  0  0  0  0  0  0
  159.8700  211.8420  155.8550 C   0  0  0  0  0  0  0  0  0  0  0  0
  162.0590  209.8380  149.9870 C   0  0  0  0  0  0  0  0  0  0  0  0
  161.3400  209.6760  156.1500 C   0  0  0  0  0  2  0  0  0  0  0  0
  161.1620  207.2500  153.2830 C   0  0  0  0  0  0  0  0  0  0  0  0
  161.0530  205.9990  153.1990 O   0  0  0  0  0  0  0  0  0  0  0  0
  159.3510  211.2250  154.6780 N   0  0  0  0  0  2  0  0  0  0  0  0
  159.5560  209.8090  154.3930 C   0  0  0  0  0  2  0  0  0  0  0  0
  160.9820  209.3310  154.7000 C   0  0  2  0  0  0  0  0  0  0  0  0
  161.6820  208.5160  149.6950 C   0  0  0  0  0  0  0  0  0  0  0  0
  161.4690  208.0890  152.0960 C   0  0  0  0  0  0  0  0  0  0  0  0
  161.3850  207.6280  150.7600 C   0  0  0  0  0  0  0  0  0  0  0  0
  159.1710  212.6750  156.4860 O   0  0  0  0  0  0  0  0  0  0  0  0
  161.9910  209.9610  153.7220 C   0  0  0  0  0  2  0  0  0  0  0  0
  161.2090  206.7540  148.0910 C   0  0  0  0  0  3  0  0  0  0  0  0
  161.0000  206.3120  150.4570 C   0  0  0  0  0  3  0  0  0  0  0  0
  161.5920  208.0660  148.3690 C   0  0  0  0  0  3  0  0  0  0  0  0
  161.8370  209.4300  152.3230 C   0  0  0  0  0  0  0  0  0  0  0  0
  160.9090  205.8690  149.1350 C   0  0  0  0  0  0  0  0  0  0  0  0
  162.1250  210.2500  151.2800 N   0  0  0  0  0  0  0  0  0  0  0  0
  162.3640  210.8280  148.9050 C   0  0  0  0  0  2  0  0  0  0  0  0
  161.5900  212.1240  149.1140 C   0  0  0  0  0  2  0  0  0  0  0  0
  161.2110  212.7660  147.7880 C   0  0  0  0  0  2  0  0  0  0  0  0
  162.3130  212.7810  146.9320 O   0  0  0  0  0  1  0  0  0  0  0  0
  160.5200  204.5490  148.8910 O   0  0  0  0  0  0  0  0  0  0  0  0
  161.1240  203.4310  149.5270 C   0  0  0  0  0  2  0  0  0  0  0  0
  161.3560  202.4160  148.5860 O   0  0  0  0  0  0  0  0  0  0  0  0
  161.4970  200.9860  150.3790 F   0  0  0  0  0  0  0  0  0  0  0  0
  159.5370  201.1750  149.2540 F   0  0  0  0  0  0  0  0  0  0  0  0
  160.9180  201.1990  149.1380 C   0  0  0  0  0  0  0  0  0  0  0  0
  161.3000  200.1710  148.2980 F   0  0  0  0  0  0  0  0  0  0  0  0
  1 10  1  0  0  0  0
  3  2  1  0  0  0  0
  3 14  2  0  0  0  0
  4 21  1  0  0  0  0
  5  2  1  0  0  0  0
  6  1  1  0  0  0  0
  7  6  2  0  0  0  0
  8  3  1  0  0  0  0
  9  8  1  0  0  0  0
  9 10  1  0  0  0  0
 10 15  1  6  0  0  0
 10  5  1  0  0  0  0
 11  4  2  0  0  0  0
 11 13  1  0  0  0  0
 12 19  1  0  0  0  0
 12  6  1  0  0  0  0
 13 12  2  0  0  0  0
 16 18  2  0  0  0  0
 16 20  1  0  0  0  0
 17 13  1  0  0  0  0
 18 11  1  0  0  0  0
 19 15  1  0  0  0  0
 20 17  2  0  0  0  0
 21 19  2  0  0  0  0
 22 23  1  0  0  0  0
 22  4  1  0  0  0  0
 24 23  1  0  0  0  0
 25 24  1  0  0  0  0
 26 20  1  0  0  0  0
 26 27  1  0  0  0  0
 28 31  1  0  0  0  0
 28 27  1  0  0  0  0
 31 30  1  0  0  0  0
 31 29  1  0  0  0  0
 32 31  1  0  0  0  0
M  END
>  <MODEL>
2

>  <REMARK>
 VINA RESULT:      -8.1      1.318      1.559
  Name = 
  7 active torsions:
  status: ('A' for Active; 'I' for Inactive)
    1  A    between atoms: C_6  and  C_8
    2  A    between atoms: C_7  and  O_11
    3  A    between atoms: C_8  and  C_24
    4  A    between atoms: O_11  and  C_16
    5  A    between atoms: C_16  and  O_19
    6  A    between atoms: O_19  and  C_29
    7  A    between atoms: C_20  and  C_24
                            x       y       z     vdW  Elec       q    Type
                         _______ _______ _______ _____ _____    ______ ____

>  <TORSDO>
F 7

$$$$
=
 OpenBabel11072411533D

 32 35  0  0  1  0  0  0  0  0999 V2000
  160.1480  209.3270  155.7670 N   0  0  0  0  0  2  0  0  0  0  0  0
  159.7980  213.3810  155.9910 S   0  0  0  0  0  0  0  0  0  0  0  0
  158.2270  213.1550  155.1610 C   0  0  0  0  0  0  0  0  0  0  0  0
  161.6940  209.5090  150.9280 C   0  0  0  0  0  0  0  0  0  0  0  0
  159.9160  211.6260  156.4840 C   0  0  0  0  0  2  0  0  0  0  0  0
  160.6030  208.2920  154.8900 C   0  0  0  0  0  0  0  0  0  0  0  0
  160.6920  207.1140  155.3240 O   0  0  0  0  0  0  0  0  0  0  0  0
  158.0210  212.0360  154.3020 N   0  0  0  0  0  2  0  0  0  0  0  0
  158.4750  210.6950  154.6570 C   0  0  0  0  0  2  0  0  0  0  0  0
  159.8770  210.6770  155.2820 C   0  0  2  0  0  0  0  0  0  0  0  0
  161.5690  208.1310  151.1760 C   0  0  0  0  0  0  0  0  0  0  0  0
  160.9940  208.6440  153.4990 C   0  0  0  0  0  0  0  0  0  0  0  0
  161.2180  207.6900  152.4770 C   0  0  0  0  0  0  0  0  0  0  0  0
  157.3140  214.0070  155.3100 O   0  0  0  0  0  0  0  0  0  0  0  0
  160.9430  211.0650  154.2420 C   0  0  0  0  0  2  0  0  0  0  0  0
  161.6480  205.8260  150.4140 C   0  0  0  0  0  3  0  0  0  0  0  0
  161.0850  206.3130  152.7120 C   0  0  0  0  0  3  0  0  0  0  0  0
  161.7830  207.1910  150.1570 C   0  0  0  0  0  3  0  0  0  0  0  0
  161.1190  210.0110  153.1840 C   0  0  0  0  0  0  0  0  0  0  0  0
  161.2960  205.3790  151.6940 C   0  0  0  0  0  0  0  0  0  0  0  0
  161.4690  210.3970  151.9300 N   0  0  0  0  0  0  0  0  0  0  0  0
  162.0430  210.0370  149.5700 C   0  0  0  0  0  2  0  0  0  0  0  0
  161.9240  211.5560  149.5250 C   0  0  0  0  0  2  0  0  0  0  0  0
  162.5000  212.1220  148.2360 C   0  0  0  0  0  2  0  0  0  0  0  0
  162.2810  213.4990  148.1790 O   0  0  0  0  0  1  0  0  0  0  0  0
  161.1500  204.0190  151.9830 O   0  0  0  0  0  0  0  0  0  0  0  0
  160.3540  203.1400  151.1990 C   0  0  0  0  0  2  0  0  0  0  0  0
  161.1340  202.0620  150.7540 O   0  0  0  0  0  0  0  0  0  0  0  0
  161.1920  202.9150  148.6210 F   0  0  0  0  0  0  0  0  0  0  0  0
  161.4580  200.6860  148.9380 F   0  0  0  0  0  0  0  0  0  0  0  0
  160.8270  201.8300  149.4010 C   0  0  0  0  0  0  0  0  0  0  0  0
  159.4630  201.6490  149.2840 F   0  0  0  0  0  0  0  0  0  0  0  0
  2  5  1  0  0  0  0
  3 14  2  0  0  0  0
  3  2  1  0  0  0  0
  4 11  2  0  0  0  0
  4 21  1  0  0  0  0
  6  7  2  0  0  0  0
  6  1  1  0  0  0  0
  8  9  1  0  0  0  0
  8  3  1  0  0  0  0
  9 10  1  0  0  0  0
 10 15  1  6  0  0  0
 10  1  1  0  0  0  0
 10  5  1  0  0  0  0
 11 13  1  0  0  0  0
 12  6  1  0  0  0  0
 13 17  1  0  0  0  0
 13 12  2  0  0  0  0
 16 20  1  0  0  0  0
 18 16  2  0  0  0  0
 18 11  1  0  0  0  0
 19 12  1  0  0  0  0
 19 15  1  0  0  0  0
 20 26  1  0  0  0  0
 20 17  2  0  0  0  0
 21 19  2  0  0  0  0
 22  4  1  0  0  0  0
 23 22  1  0  0  0  0
 24 23  1  0  0  0  0
 25 24  1  0  0  0  0
 27 26  1  0  0  0  0
 28 27  1  0  0  0  0
 29 31  1  0  0  0  0
 30 31  1  0  0  0  0
 31 28  1  0  0  0  0
 32 31  1  0  0  0  0
M  END
>  <MODEL>
3

>  <REMARK>
 VINA RESULT:      -7.8      1.877      2.397
  Name = 
  7 active torsions:
  status: ('A' for Active; 'I' for Inactive)
    1  A    between atoms: C_6  and  C_8
    2  A    between atoms: C_7  and  O_11
    3  A    between atoms: C_8  and  C_24
    4  A    between atoms: O_11  and  C_16
    5  A    between atoms: C_16  and  O_19
    6  A    between atoms: O_19  and  C_29
    7  A    between atoms: C_20  and  C_24
                            x       y       z     vdW  Elec       q    Type
                         _______ _______ _______ _____ _____    ______ ____

>  <TORSDO>
F 7

$$$$
=
 OpenBabel11072411533D

 32 35  0  0  1  0  0  0  0  0999 V2000
  162.3880  211.4130  150.2570 N   0  0  0  0  0  2  0  0  0  0  0  0
  162.4850  213.0700  146.5350 S   0  0  0  0  0  0  0  0  0  0  0  0
  160.6970  213.0780  146.6410 C   0  0  0  0  0  0  0  0  0  0  0  0
  161.3940  206.7840  148.4090 C   0  0  0  0  0  0  0  0  0  0  0  0
  162.7010  212.8510  148.3350 C   0  0  0  0  0  2  0  0  0  0  0  0
  162.2840  210.1460  150.9130 C   0  0  0  0  0  0  0  0  0  0  0  0
  162.4880  210.0780  152.1540 O   0  0  0  0  0  0  0  0  0  0  0  0
  160.0190  212.1170  147.4470 N   0  0  0  0  0  2  0  0  0  0  0  0
  160.4900  211.7560  148.7800 C   0  0  0  0  0  2  0  0  0  0  0  0
  162.0140  211.5840  148.8570 C   0  0  2  0  0  0  0  0  0  0  0  0
  161.3070  206.6030  149.8010 C   0  0  0  0  0  0  0  0  0  0  0  0
  161.9730  208.9380  150.1050 C   0  0  0  0  0  0  0  0  0  0  0  0
  161.6020  207.6900  150.6610 C   0  0  0  0  0  0  0  0  0  0  0  0
  160.0360  213.9140  145.9730 O   0  0  0  0  0  0  0  0  0  0  0  0
  162.4640  210.3470  148.0580 C   0  0  0  0  0  2  0  0  0  0  0  0
  160.8390  205.2010  151.7290 C   0  0  0  0  0  3  0  0  0  0  0  0
  161.5020  207.5020  152.0490 C   0  0  0  0  0  3  0  0  0  0  0  0
  160.9300  205.3660  150.3460 C   0  0  0  0  0  3  0  0  0  0  0  0
  162.0260  209.0610  148.7020 C   0  0  0  0  0  0  0  0  0  0  0  0
  161.1230  206.2700  152.5890 C   0  0  0  0  0  0  0  0  0  0  0  0
  161.7490  207.9950  147.9090 N   0  0  0  0  0  0  0  0  0  0  0  0
  161.0750  205.6790  147.4490 C   0  0  0  0  0  2  0  0  0  0  0  0
  162.1690  205.5340  146.3980 C   0  0  0  0  0  2  0  0  0  0  0  0
  161.5950  205.5630  144.9890 C   0  0  0  0  0  2  0  0  0  0  0  0
  160.3130  206.1140  145.0070 O   0  0  0  0  0  1  0  0  0  0  0  0
  161.0390  206.1380  153.9780 O   0  0  0  0  0  0  0  0  0  0  0  0
  160.4430  207.1190  154.8160 C   0  0  0  0  0  2  0  0  0  0  0  0
  161.4420  207.8390  155.4880 O   0  0  0  0  0  0  0  0  0  0  0  0
  162.2440  209.9890  155.3530 F   0  0  0  0  0  0  0  0  0  0  0  0
  160.2690  209.4710  154.3670 F   0  0  0  0  0  0  0  0  0  0  0  0
  161.1050  209.2040  155.4400 C   0  0  0  0  0  0  0  0  0  0  0  0
  160.4360  209.5350  156.6010 F   0  0  0  0  0  0  0  0  0  0  0  0
  1  6  1  0  0  0  0
  2  3  1  0  0  0  0
  2  5  1  0  0  0  0
  3  8  1  0  0  0  0
  4 11  1  0  0  0  0
  5 10  1  0  0  0  0
  6  7  2  0  0  0  0
  8  9  1  0  0  0  0
  9 10  1  0  0  0  0
 10 15  1  6  0  0  0
 10  1  1  0  0  0  0
 11 18  2  0  0  0  0
 11 13  1  0  0  0  0
 12 13  1  0  0  0  0
 12  6  1  0  0  0  0
 13 17  2  0  0  0  0
 14  3  2  0  0  0  0
 15 19  1  0  0  0  0
 16 20  2  0  0  0  0
 17 20  1  0  0  0  0
 18 16  1  0  0  0  0
 19 12  2  0  0  0  0
 20 26  1  0  0  0  0
 21  4  2  0  0  0  0
 21 19  1  0  0  0  0
 22  4  1  0  0  0  0
 23 22  1  0  0  0  0
 24 25  1  0  0  0  0
 24 23  1  0  0  0  0
 26 27  1  0  0  0  0
 27 28  1  0  0  0  0
 29 31  1  0  0  0  0
 30 31  1  0  0  0  0
 31 28  1  0  0  0  0
 31 32  1  0  0  0  0
M  END
>  <MODEL>
4

>  <REMARK>
 VINA RESULT:      -6.7      4.744      7.225
  Name = 
  7 active torsions:
  status: ('A' for Active; 'I' for Inactive)
    1  A    between atoms: C_6  and  C_8
    2  A    between atoms: C_7  and  O_11
    3  A    between atoms: C_8  and  C_24
    4  A    between atoms: O_11  and  C_16
    5  A    between atoms: C_16  and  O_19
    6  A    between atoms: O_19  and  C_29
    7  A    between atoms: C_20  and  C_24
                            x       y       z     vdW  Elec       q    Type
                         _______ _______ _______ _____ _____    ______ ____

>  <TORSDO>
F 7

$$$$
=
 OpenBabel11072411533D

 32 35  0  0  1  0  0  0  0  0999 V2000
  160.4370  208.8860  154.6480 N   0  0  0  0  0  2  0  0  0  0  0  0
  160.0050  212.6730  156.0880 S   0  0  0  0  0  0  0  0  0  0  0  0
  158.4360  212.6770  155.2260 C   0  0  0  0  0  0  0  0  0  0  0  0
  161.9590  210.5560  150.0940 C   0  0  0  0  0  0  0  0  0  0  0  0
  160.1610  210.8540  156.0280 C   0  0  0  0  0  2  0  0  0  0  0  0
  160.9100  208.1740  153.4990 C   0  0  0  0  0  0  0  0  0  0  0  0
  161.0240  206.9220  153.5570 O   0  0  0  0  0  0  0  0  0  0  0  0
  158.2490  211.8660  154.0680 N   0  0  0  0  0  2  0  0  0  0  0  0
  158.7320  210.4900  154.0010 C   0  0  0  0  0  2  0  0  0  0  0  0
  160.1360  210.3130  154.5940 C   0  0  2  0  0  0  0  0  0  0  0  0
  161.8630  209.1660  149.9140 C   0  0  0  0  0  0  0  0  0  0  0  0
  161.2870  208.9390  152.2820 C   0  0  0  0  0  0  0  0  0  0  0  0
  161.5260  208.3440  151.0190 C   0  0  0  0  0  0  0  0  0  0  0  0
  157.5060  213.4240  155.6240 O   0  0  0  0  0  0  0  0  0  0  0  0
  161.1900  211.0200  153.7220 C   0  0  0  0  0  2  0  0  0  0  0  0
  161.9860  207.2020  148.4900 C   0  0  0  0  0  3  0  0  0  0  0  0
  161.4230  206.9580  150.8260 C   0  0  0  0  0  3  0  0  0  0  0  0
  162.0920  208.5820  148.6580 C   0  0  0  0  0  3  0  0  0  0  0  0
  161.3830  210.3400  152.3950 C   0  0  0  0  0  0  0  0  0  0  0  0
  161.6480  206.3810  149.5730 C   0  0  0  0  0  0  0  0  0  0  0  0
  161.7190  211.0950  151.3180 N   0  0  0  0  0  0  0  0  0  0  0  0
  162.2900  211.4780  148.9610 C   0  0  0  0  0  2  0  0  0  0  0  0
  161.2110  212.5380  148.7830 C   0  0  0  0  0  2  0  0  0  0  0  0
  160.8130  212.6870  147.3220 C   0  0  0  0  0  2  0  0  0  0  0  0
  159.4460  212.9540  147.2240 O   0  0  0  0  0  1  0  0  0  0  0  0
  161.5320  204.9940  149.4370 O   0  0  0  0  0  0  0  0  0  0  0  0
  160.7990  204.3770  148.3870 C   0  0  0  0  0  2  0  0  0  0  0  0
  160.9950  205.0850  147.1910 O   0  0  0  0  0  0  0  0  0  0  0  0
  162.5000  205.1790  145.4570 F   0  0  0  0  0  0  0  0  0  0  0  0
  162.8680  203.7470  147.1760 F   0  0  0  0  0  0  0  0  0  0  0  0
  161.8980  204.3570  146.3950 C   0  0  0  0  0  0  0  0  0  0  0  0
  161.2000  203.3710  145.7260 F   0  0  0  0  0  0  0  0  0  0  0  0
  3 14  2  0  0  0  0
  3  2  1  0  0  0  0
  4 21  1  0  0  0  0
  5  2  1  0  0  0  0
  6  7  2  0  0  0  0
  6  1  1  0  0  0  0
  8  3  1  0  0  0  0
  9  8  1  0  0  0  0
  9 10  1  0  0  0  0
 10 15  1  6  0  0  0
 10  1  1  0  0  0  0
 10  5  1  0  0  0  0
 11  4  2  0  0  0  0
 11 13  1  0  0  0  0
 12 19  1  0  0  0  0
 12  6  1  0  0  0  0
 13 12  2  0  0  0  0
 16 18  2  0  0  0  0
 16 20  1  0  0  0  0
 17 13  1  0  0  0  0
 18 11  1  0  0  0  0
 19 15  1  0  0  0  0
 20 17  2  0  0  0  0
 21 19  2  0  0  0  0
 22  4  1  0  0  0  0
 23 22  1  0  0  0  0
 24 23  1  0  0  0  0
 25 24  1  0  0  0  0
 26 20  1  0  0  0  0
 27 26  1  0  0  0  0
 28 27  1  0  0  0  0
 29 31  1  0  0  0  0
 31 30  1  0  0  0  0
 31 28  1  0  0  0  0
 32 31  1  0  0  0  0
M  END
>  <MODEL>
5

>  <REMARK>
 VINA RESULT:      -6.2      1.856      2.220
  Name = 
  7 active torsions:
  status: ('A' for Active; 'I' for Inactive)
    1  A    between atoms: C_6  and  C_8
    2  A    between atoms: C_7  and  O_11
    3  A    between atoms: C_8  and  C_24
    4  A    between atoms: O_11  and  C_16
    5  A    between atoms: C_16  and  O_19
    6  A    between atoms: O_19  and  C_29
    7  A    between atoms: C_20  and  C_24
                            x       y       z     vdW  Elec       q    Type
                         _______ _______ _______ _____ _____    ______ ____

>  <TORSDO>
F 7

$$$$
=
 OpenBabel11072411533D

 32 35  0  0  1  0  0  0  0  0999 V2000
  162.3320  207.5590  147.8860 N   0  0  0  0  0  2  0  0  0  0  0  0
  162.4940  204.5730  145.1180 S   0  0  0  0  0  0  0  0  0  0  0  0
  160.7070  204.6910  145.0860 C   0  0  0  0  0  0  0  0  0  0  0  0
  161.1860  204.3210  151.6330 C   0  0  0  0  0  0  0  0  0  0  0  0
  162.6980  206.2030  145.9150 C   0  0  0  0  0  2  0  0  0  0  0  0
  162.1830  207.7710  149.2940 C   0  0  0  0  0  0  0  0  0  0  0  0
  162.3810  208.9210  149.7660 O   0  0  0  0  0  0  0  0  0  0  0  0
  159.9950  205.1490  146.2330 N   0  0  0  0  0  2  0  0  0  0  0  0
  160.4510  206.2890  147.0220 C   0  0  0  0  0  2  0  0  0  0  0  0
  161.9670  206.2930  147.2600 C   0  0  2  0  0  0  0  0  0  0  0  0
  161.0890  205.5800  152.2520 C   0  0  0  0  0  0  0  0  0  0  0  0
  161.8330  206.6180  150.1640 C   0  0  0  0  0  0  0  0  0  0  0  0
  161.4180  206.7430  151.5120 C   0  0  0  0  0  0  0  0  0  0  0  0
  160.0770  204.3350  144.0570 O   0  0  0  0  0  0  0  0  0  0  0  0
  162.3770  205.1330  148.1850 C   0  0  0  0  0  2  0  0  0  0  0  0
  160.5690  206.9550  154.1860 C   0  0  0  0  0  3  0  0  0  0  0  0
  161.3090  207.9960  152.1350 C   0  0  0  0  0  3  0  0  0  0  0  0
  160.6690  205.6990  153.5850 C   0  0  0  0  0  3  0  0  0  0  0  0
  161.8950  205.3300  149.5950 C   0  0  0  0  0  0  0  0  0  0  0  0
  160.8870  208.1120  153.4630 C   0  0  0  0  0  0  0  0  0  0  0  0
  161.5830  204.2370  150.3370 N   0  0  0  0  0  0  0  0  0  0  0  0
  160.8320  203.0580  152.3560 C   0  0  0  0  0  2  0  0  0  0  0  0
  161.3930  201.8380  151.6350 C   0  0  0  0  0  2  0  0  0  0  0  0
  160.4620  201.3730  150.5250 C   0  0  0  0  0  2  0  0  0  0  0  0
  161.2070  200.9540  149.4210 O   0  0  0  0  0  1  0  0  0  0  0  0
  160.7950  209.3840  154.0340 O   0  0  0  0  0  0  0  0  0  0  0  0
  161.4940  210.5140  153.5290 C   0  0  0  0  0  2  0  0  0  0  0  0
  160.6810  211.6550  153.6220 O   0  0  0  0  0  0  0  0  0  0  0  0
  158.8190  211.1380  152.3780 F   0  0  0  0  0  0  0  0  0  0  0  0
  159.8000  213.1660  152.1260 F   0  0  0  0  0  0  0  0  0  0  0  0
  160.0230  211.8240  152.3900 C   0  0  0  0  0  0  0  0  0  0  0  0
  160.8250  211.3130  151.3880 F   0  0  0  0  0  0  0  0  0  0  0  0
  1  6  1  0  0  0  0
  2  5  1  0  0  0  0
  3  2  1  0  0  0  0
  3  8  1  0  0  0  0
  4 11  1  0  0  0  0
  4 22  1  0  0  0  0
  6  7  2  0  0  0  0
  6 12  1  0  0  0  0
  8  9  1  0  0  0  0
  9 10  1  0  0  0  0
 10  5  1  6  0  0  0
 10  1  1  0  0  0  0
 10 15  1  0  0  0  0
 11 18  1  0  0  0  0
 12 13  1  0  0  0  0
 13 17  1  0  0  0  0
 13 11  2  0  0  0  0
 14  3  2  0  0  0  0
 15 19  1  0  0  0  0
 17 20  2  0  0  0  0
 18 16  2  0  0  0  0
 19 12  2  0  0  0  0
 19 21  1  0  0  0  0
 20 26  1  0  0  0  0
 20 16  1  0  0  0  0
 21  4  2  0  0  0  0
 23 22  1  0  0  0  0
 24 23  1  0  0  0  0
 25 24  1  0  0  0  0
 27 28  1  0  0  0  0
 27 26  1  0  0  0  0
 29 31  1  0  0  0  0
 30 31  1  0  0  0  0
 31 28  1  0  0  0  0
 32 31  1  0  0  0  0
M  END
>  <MODEL>
6

>  <REMARK>
 VINA RESULT:      -5.9      4.991      8.803
  Name = 
  7 active torsions:
  status: ('A' for Active; 'I' for Inactive)
    1  A    between atoms: C_6  and  C_8
    2  A    between atoms: C_7  and  O_11
    3  A    between atoms: C_8  and  C_24
    4  A    between atoms: O_11  and  C_16
    5  A    between atoms: C_16  and  O_19
    6  A    between atoms: O_19  and  C_29
    7  A    between atoms: C_20  and  C_24
                            x       y       z     vdW  Elec       q    Type
                         _______ _______ _______ _____ _____    ______ ____

>  <TORSDO>
F 7

$$$$
=
 OpenBabel11072411533D

 32 35  0  0  1  0  0  0  0  0999 V2000
  162.2240  207.5500  147.3810 N   0  0  0  0  0  2  0  0  0  0  0  0
  162.2960  204.3320  144.8830 S   0  0  0  0  0  0  0  0  0  0  0  0
  160.5090  204.4440  144.9060 C   0  0  0  0  0  0  0  0  0  0  0  0
  161.2300  204.6550  151.4380 C   0  0  0  0  0  0  0  0  0  0  0  0
  162.5230  206.0260  145.5250 C   0  0  0  0  0  2  0  0  0  0  0  0
  162.1260  207.8850  148.7690 C   0  0  0  0  0  0  0  0  0  0  0  0
  162.3370  209.0720  149.1300 O   0  0  0  0  0  0  0  0  0  0  0  0
  159.8370  205.0010  146.0340 N   0  0  0  0  0  2  0  0  0  0  0  0
  160.3170  206.2070  146.7020 C   0  0  0  0  0  2  0  0  0  0  0  0
  161.8410  206.2330  146.8820 C   0  0  2  0  0  0  0  0  0  0  0  0
  161.1510  205.9630  151.9470 C   0  0  0  0  0  0  0  0  0  0  0  0
  161.8130  206.8130  149.7500 C   0  0  0  0  0  0  0  0  0  0  0  0
  161.4480  207.0570  151.0960 C   0  0  0  0  0  0  0  0  0  0  0  0
  159.8420  203.9990  143.9370 O   0  0  0  0  0  0  0  0  0  0  0  0
  162.2900  205.1590  147.8900 C   0  0  0  0  0  2  0  0  0  0  0  0
  160.6970  207.5020  153.7700 C   0  0  0  0  0  3  0  0  0  0  0  0
  161.3560  208.3600  151.6100 C   0  0  0  0  0  3  0  0  0  0  0  0
  160.7800  206.1990  153.2790 C   0  0  0  0  0  3  0  0  0  0  0  0
  161.8590  205.4800  149.2950 C   0  0  0  0  0  0  0  0  0  0  0  0
  160.9830  208.5910  152.9370 C   0  0  0  0  0  0  0  0  0  0  0  0
  161.5800  204.4560  150.1410 N   0  0  0  0  0  0  0  0  0  0  0  0
  160.9080  203.4590  152.2830 C   0  0  0  0  0  2  0  0  0  0  0  0
  161.4180  202.1780  151.6350 C   0  0  0  0  0  2  0  0  0  0  0  0
  160.4840  201.7020  150.5330 C   0  0  0  0  0  2  0  0  0  0  0  0
  161.1960  200.9560  149.5920 O   0  0  0  0  0  1  0  0  0  0  0  0
  160.9070  209.9090  153.3970 O   0  0  0  0  0  0  0  0  0  0  0  0
  160.9480  210.2530  154.7760 C   0  0  0  0  0  2  0  0  0  0  0  0
  162.2800  210.2920  155.2160 O   0  0  0  0  0  0  0  0  0  0  0  0
  161.2260  210.2090  157.2560 F   0  0  0  0  0  0  0  0  0  0  0  0
  162.3680  208.3960  156.5170 F   0  0  0  0  0  0  0  0  0  0  0  0
  162.3220  209.7810  156.5260 C   0  0  0  0  0  0  0  0  0  0  0  0
  163.4660  210.2480  157.1440 F   0  0  0  0  0  0  0  0  0  0  0  0
  1  6  1  0  0  0  0
  2  3  1  0  0  0  0
  2  5  1  0  0  0  0
  3  8  1  0  0  0  0
  4 11  1  0  0  0  0
  4 22  1  0  0  0  0
  6  7  2  0  0  0  0
  6 12  1  0  0  0  0
  8  9  1  0  0  0  0
  9 10  1  0  0  0  0
 10  5  1  6  0  0  0
 10  1  1  0  0  0  0
 10 15  1  0  0  0  0
 11 18  1  0  0  0  0
 12 13  1  0  0  0  0
 13 17  1  0  0  0  0
 13 11  2  0  0  0  0
 14  3  2  0  0  0  0
 15 19  1  0  0  0  0
 17 20  2  0  0  0  0
 18 16  2  0  0  0  0
 19 12  2  0  0  0  0
 19 21  1  0  0  0  0
 20 26  1  0  0  0  0
 20 16  1  0  0  0  0
 21  4  2  0  0  0  0
 23 22  1  0  0  0  0
 24 23  1  0  0  0  0
 25 24  1  0  0  0  0
 26 27  1  0  0  0  0
 27 28  1  0  0  0  0
 28 31  1  0  0  0  0
 30 31  1  0  0  0  0
 31 32  1  0  0  0  0
 31 29  1  0  0  0  0
M  END
>  <MODEL>
7

>  <REMARK>
 VINA RESULT:      -5.9      5.344      9.177
  Name = 
  7 active torsions:
  status: ('A' for Active; 'I' for Inactive)
    1  A    between atoms: C_6  and  C_8
    2  A    between atoms: C_7  and  O_11
    3  A    between atoms: C_8  and  C_24
    4  A    between atoms: O_11  and  C_16
    5  A    between atoms: C_16  and  O_19
    6  A    between atoms: O_19  and  C_29
    7  A    between atoms: C_20  and  C_24
                            x       y       z     vdW  Elec       q    Type
                         _______ _______ _______ _____ _____    ______ ____

>  <TORSDO>
F 7

$$$$
=
 OpenBabel11072411533D

 32 35  0  0  1  0  0  0  0  0999 V2000
  160.9850  214.2400  148.2700 N   0  0  0  0  0  2  0  0  0  0  0  0
  162.3580  213.3340  144.5420 S   0  0  0  0  0  0  0  0  0  0  0  0
  160.7570  212.5760  144.2840 C   0  0  0  0  0  0  0  0  0  0  0  0
  161.9580  209.5620  150.0040 C   0  0  0  0  0  0  0  0  0  0  0  0
  161.7950  214.2940  145.9900 C   0  0  0  0  0  2  0  0  0  0  0  0
  160.8810  213.6890  149.5870 C   0  0  0  0  0  0  0  0  0  0  0  0
  160.5220  214.4330  150.5370 O   0  0  0  0  0  0  0  0  0  0  0  0
  160.0200  212.0550  145.3890 N   0  0  0  0  0  2  0  0  0  0  0  0
  159.9170  212.7720  146.6560 C   0  0  0  0  0  2  0  0  0  0  0  0
  161.2440  213.3990  147.1060 C   0  0  2  0  0  0  0  0  0  0  0  0
  161.3040  210.1790  151.0850 C   0  0  0  0  0  0  0  0  0  0  0  0
  161.2350  212.2620  149.8020 C   0  0  0  0  0  0  0  0  0  0  0  0
  160.9390  211.5450  150.9860 C   0  0  0  0  0  0  0  0  0  0  0  0
  160.2950  212.4710  143.1190 O   0  0  0  0  0  0  0  0  0  0  0  0
  162.2610  212.3080  147.4860 C   0  0  0  0  0  2  0  0  0  0  0  0
  160.3480  210.0820  153.3160 C   0  0  0  0  0  3  0  0  0  0  0  0
  160.2770  212.1490  152.0670 C   0  0  0  0  0  3  0  0  0  0  0  0
  161.0050  209.4610  152.2530 C   0  0  0  0  0  3  0  0  0  0  0  0
  161.8770  211.5840  148.7470 C   0  0  0  0  0  0  0  0  0  0  0  0
  159.9790  211.4310  153.2280 C   0  0  0  0  0  0  0  0  0  0  0  0
  162.2220  210.2780  148.8800 N   0  0  0  0  0  0  0  0  0  0  0  0
  162.3490  208.1160  150.0400 C   0  0  0  0  0  2  0  0  0  0  0  0
  162.1270  207.4550  148.6850 C   0  0  0  0  0  2  0  0  0  0  0  0
  160.8420  206.6400  148.6680 C   0  0  0  0  0  2  0  0  0  0  0  0
  161.1060  205.3240  149.0510 O   0  0  0  0  0  1  0  0  0  0  0  0
  159.3180  212.0810  154.2740 O   0  0  0  0  0  0  0  0  0  0  0  0
  157.9050  212.2370  154.3220 C   0  0  0  0  0  2  0  0  0  0  0  0
  157.3160  211.0720  154.8360 O   0  0  0  0  0  0  0  0  0  0  0  0
  155.6750  211.4400  156.4020 F   0  0  0  0  0  0  0  0  0  0  0  0
  155.5560  212.4870  154.3940 F   0  0  0  0  0  0  0  0  0  0  0  0
  155.9500  211.3300  155.0480 C   0  0  0  0  0  0  0  0  0  0  0  0
  155.2170  210.2750  154.5400 F   0  0  0  0  0  0  0  0  0  0  0  0
  1  6  1  0  0  0  0
  2  5  1  0  0  0  0
  3  2  1  0  0  0  0
  3  8  1  0  0  0  0
  4 22  1  0  0  0  0
  4 11  1  0  0  0  0
  6 12  1  0  0  0  0
  6  7  2  0  0  0  0
  8  9  1  0  0  0  0
  9 10  1  0  0  0  0
 10  5  1  6  0  0  0
 10 15  1  0  0  0  0
 10  1  1  0  0  0  0
 11 18  1  0  0  0  0
 12 13  1  0  0  0  0
 13 11  2  0  0  0  0
 13 17  1  0  0  0  0
 14  3  2  0  0  0  0
 15 19  1  0  0  0  0
 17 20  2  0  0  0  0
 18 16  2  0  0  0  0
 19 21  1  0  0  0  0
 19 12  2  0  0  0  0
 20 16  1  0  0  0  0
 20 26  1  0  0  0  0
 21  4  2  0  0  0  0
 23 22  1  0  0  0  0
 24 23  1  0  0  0  0
 24 25  1  0  0  0  0
 26 27  1  0  0  0  0
 27 28  1  0  0  0  0
 28 31  1  0  0  0  0
 30 31  1  0  0  0  0
 31 29  1  0  0  0  0
 32 31  1  0  0  0  0
M  END
>  <MODEL>
8

>  <REMARK>
 VINA RESULT:      -5.6      5.547      9.158
  Name = 
  7 active torsions:
  status: ('A' for Active; 'I' for Inactive)
    1  A    between atoms: C_6  and  C_8
    2  A    between atoms: C_7  and  O_11
    3  A    between atoms: C_8  and  C_24
    4  A    between atoms: O_11  and  C_16
    5  A    between atoms: C_16  and  O_19
    6  A    between atoms: O_19  and  C_29
    7  A    between atoms: C_20  and  C_24
                            x       y       z     vdW  Elec       q    Type
                         _______ _______ _______ _____ _____    ______ ____

>  <TORSDO>
F 7

$$$$
