=
 OpenBabel11072414373D

 26 29  0  0  0  0  0  0  0  0999 V2000
  162.2760  207.3220  149.3110 C   0  0  0  0  0  0  0  0  0  0  0  0
  161.1660  204.0570  149.5030 C   0  0  0  0  0  2  0  0  0  0  0  0
  161.1720  203.0190  150.5780 C   0  0  0  0  0  2  0  0  0  0  0  0
  161.6570  205.9570  150.9490 C   0  0  0  0  0  0  0  0  0  0  0  0
  161.1980  205.5770  152.1490 C   0  0  0  0  0  2  0  0  0  0  0  0
  160.2880  203.3330  151.6920 N   0  0  0  0  0  0  0  0  0  0  0  0
  160.3440  204.4040  152.4210 C   0  0  0  0  0  3  0  0  0  0  0  0
  161.4670  205.3430  149.7140 C   0  0  0  0  0  0  0  0  0  0  0  0
  162.2100  207.1990  150.6880 C   0  0  0  0  0  0  0  0  0  0  0  0
  161.8000  206.2030  148.7150 N   0  0  0  0  0  0  0  0  0  0  0  0
  161.6500  204.2730  144.7110 C   0  0  0  0  0  3  0  0  0  0  0  0
  162.7160  205.2640  146.7070 C   0  0  0  0  0  3  0  0  0  0  0  0
  162.8220  205.0310  145.2360 C   0  0  0  0  0  2  0  0  0  0  0  0
  160.4030  204.7350  144.7770 C   0  0  0  0  0  3  0  0  0  0  0  0
  160.0070  205.9860  145.4490 C   0  0  0  0  0  3  0  0  0  0  0  0
  161.7310  205.9590  147.2930 C   0  0  0  0  0  0  0  0  0  0  0  0
  160.5860  206.5180  146.5330 C   0  0  0  0  0  3  0  0  0  0  0  0
  162.6860  208.5670  148.5880 C   0  0  0  0  0  2  0  0  0  0  0  0
  161.4980  209.4970  148.4380 C   0  0  0  0  0  1  0  0  0  0  0  0
  162.5050  208.2750  151.6900 C   0  0  0  0  0  2  0  0  0  0  0  0
  160.9250  208.9040  153.5520 C   0  0  0  0  0  2  0  0  0  0  0  0
  161.3880  210.5100  151.6430 C   0  0  0  0  0  2  0  0  0  0  0  0
  159.3270  210.6290  152.9300 O   0  0  0  0  0  0  0  0  0  0  0  0
  161.2460  209.0440  152.0590 C   0  0  0  0  0  3  0  0  0  0  0  0
  160.3410  211.3990  152.3330 C   0  0  0  0  0  2  0  0  0  0  0  0
  159.9260  209.9740  154.0210 C   0  0  0  0  0  2  0  0  0  0  0  0
  1  9  2  0  0  0  0
  2  8  1  0  0  0  0
  2  3  1  0  0  0  0
  3  6  1  0  0  0  0
  4  5  1  0  0  0  0
  5  7  1  0  0  0  0
  6  7  2  0  0  0  0
  8  4  2  0  0  0  0
  9  4  1  0  0  0  0
  9 20  1  0  0  0  0
 10  1  1  0  0  0  0
 10  8  1  0  0  0  0
 11 14  2  0  0  0  0
 11 13  1  0  0  0  0
 12 16  2  0  0  0  0
 13 12  1  0  0  0  0
 14 15  1  0  0  0  0
 15 17  2  0  0  0  0
 16 10  1  0  0  0  0
 17 16  1  0  0  0  0
 18  1  1  0  0  0  0
 19 18  1  0  0  0  0
 20 24  1  0  0  0  0
 21 26  1  0  0  0  0
 22 24  1  0  0  0  0
 22 25  1  0  0  0  0
 23 26  1  0  0  0  0
 24 21  1  0  0  0  0
 25 23  1  0  0  0  0
M  END
>  <MODEL>
1

>  <REMARK>
 VINA RESULT:      -6.6      0.000      0.000
  Name = 
  4 active torsions:
  status: ('A' for Active; 'I' for Inactive)
    1  A    between atoms: C_4  and  C_7
    2  A    between atoms: C_11  and  C_18
    3  A    between atoms: C_15  and  N_26
    4  A    between atoms: C_18  and  C_25
                            x       y       z     vdW  Elec       q    Type
                         _______ _______ _______ _____ _____    ______ ____

>  <TORSDO>
F 4

$$$$
=
 OpenBabel11072414373D

 26 29  0  0  0  0  0  0  0  0999 V2000
  162.1320  207.1040  149.3020 C   0  0  0  0  0  0  0  0  0  0  0  0
  161.0680  203.8740  149.9120 C   0  0  0  0  0  2  0  0  0  0  0  0
  161.1920  202.9420  151.0740 C   0  0  0  0  0  2  0  0  0  0  0  0
  161.6940  205.9000  151.1160 C   0  0  0  0  0  0  0  0  0  0  0  0
  161.3640  205.6360  152.3870 C   0  0  0  0  0  2  0  0  0  0  0  0
  160.4260  203.3620  152.2390 N   0  0  0  0  0  0  0  0  0  0  0  0
  160.5500  204.4970  152.8550 C   0  0  0  0  0  3  0  0  0  0  0  0
  161.3810  205.1730  149.9700 C   0  0  0  0  0  0  0  0  0  0  0  0
  162.2090  207.1100  150.6840 C   0  0  0  0  0  0  0  0  0  0  0  0
  161.6040  205.9350  148.8650 N   0  0  0  0  0  0  0  0  0  0  0  0
  161.1610  205.9820  144.4410 C   0  0  0  0  0  3  0  0  0  0  0  0
  160.4250  206.1730  146.7910 C   0  0  0  0  0  3  0  0  0  0  0  0
  160.0300  205.8100  145.3980 C   0  0  0  0  0  2  0  0  0  0  0  0
  162.2990  205.2980  144.5390 C   0  0  0  0  0  3  0  0  0  0  0  0
  162.6280  204.3700  145.6360 C   0  0  0  0  0  3  0  0  0  0  0  0
  161.3900  205.5590  147.4880 C   0  0  0  0  0  0  0  0  0  0  0  0
  162.2290  204.4800  146.9090 C   0  0  0  0  0  3  0  0  0  0  0  0
  162.4570  208.2740  148.4270 C   0  0  0  0  0  2  0  0  0  0  0  0
  161.3500  209.3070  148.5070 C   0  0  0  0  0  1  0  0  0  0  0  0
  162.6000  208.2750  151.5440 C   0  0  0  0  0  2  0  0  0  0  0  0
  161.2210  208.8440  153.5780 C   0  0  0  0  0  2  0  0  0  0  0  0
  161.4420  210.4870  151.6570 C   0  0  0  0  0  2  0  0  0  0  0  0
  159.5330  210.5450  153.1620 O   0  0  0  0  0  0  0  0  0  0  0  0
  161.3740  209.0120  152.0610 C   0  0  0  0  0  3  0  0  0  0  0  0
  160.4610  211.3450  152.4710 C   0  0  0  0  0  2  0  0  0  0  0  0
  160.2600  209.8870  154.1710 C   0  0  0  0  0  2  0  0  0  0  0  0
  1  9  2  0  0  0  0
  2  8  1  0  0  0  0
  2  3  1  0  0  0  0
  3  6  1  0  0  0  0
  4  5  1  0  0  0  0
  5  7  1  0  0  0  0
  6  7  2  0  0  0  0
  8  4  2  0  0  0  0
  9  4  1  0  0  0  0
  9 20  1  0  0  0  0
 10  1  1  0  0  0  0
 10  8  1  0  0  0  0
 11 14  2  0  0  0  0
 11 13  1  0  0  0  0
 12 16  2  0  0  0  0
 13 12  1  0  0  0  0
 14 15  1  0  0  0  0
 15 17  2  0  0  0  0
 16 10  1  0  0  0  0
 17 16  1  0  0  0  0
 18 19  1  0  0  0  0
 18  1  1  0  0  0  0
 20 24  1  0  0  0  0
 21 26  1  0  0  0  0
 22 24  1  0  0  0  0
 22 25  1  0  0  0  0
 23 26  1  0  0  0  0
 24 21  1  0  0  0  0
 25 23  1  0  0  0  0
M  END
>  <MODEL>
2

>  <REMARK>
 VINA RESULT:      -6.5      0.533      1.250
  Name = 
  4 active torsions:
  status: ('A' for Active; 'I' for Inactive)
    1  A    between atoms: C_4  and  C_7
    2  A    between atoms: C_11  and  C_18
    3  A    between atoms: C_15  and  N_26
    4  A    between atoms: C_18  and  C_25
                            x       y       z     vdW  Elec       q    Type
                         _______ _______ _______ _____ _____    ______ ____

>  <TORSDO>
F 4

$$$$
=
 OpenBabel11072414373D

 26 29  0  0  0  0  0  0  0  0999 V2000
  161.1560  208.1920  153.1490 C   0  0  0  0  0  0  0  0  0  0  0  0
  161.3580  210.7670  150.8540 C   0  0  0  0  0  2  0  0  0  0  0  0
  162.2380  211.0440  149.6790 C   0  0  0  0  0  2  0  0  0  0  0  0
  161.9310  208.4080  151.0790 C   0  0  0  0  0  0  0  0  0  0  0  0
  162.3070  208.0480  149.8450 C   0  0  0  0  0  2  0  0  0  0  0  0
  162.0200  210.1330  148.5640 N   0  0  0  0  0  0  0  0  0  0  0  0
  162.1220  208.8400  148.6140 C   0  0  0  0  0  3  0  0  0  0  0  0
  161.3200  209.5900  151.4890 C   0  0  0  0  0  0  0  0  0  0  0  0
  161.8600  207.5380  152.1530 C   0  0  0  0  0  0  0  0  0  0  0  0
  160.8030  209.4340  152.7370 N   0  0  0  0  0  0  0  0  0  0  0  0
  157.9180  211.4570  155.4500 C   0  0  0  0  0  3  0  0  0  0  0  0
  158.7630  210.5550  153.3110 C   0  0  0  0  0  3  0  0  0  0  0  0
  157.9170  211.5970  153.9650 C   0  0  0  0  0  2  0  0  0  0  0  0
  159.0230  211.5690  156.1840 C   0  0  0  0  0  3  0  0  0  0  0  0
  160.3800  211.7460  155.6370 C   0  0  0  0  0  3  0  0  0  0  0  0
  160.0800  210.4150  153.5120 C   0  0  0  0  0  0  0  0  0  0  0  0
  160.8340  211.2520  154.4780 C   0  0  0  0  0  3  0  0  0  0  0  0
  160.7290  207.5670  154.4400 C   0  0  0  0  0  2  0  0  0  0  0  0
  161.5740  208.1000  155.5810 C   0  0  0  0  0  1  0  0  0  0  0  0
  162.2930  206.1020  152.1720 C   0  0  0  0  0  2  0  0  0  0  0  0
  161.6700  205.0850  149.9500 C   0  0  0  0  0  2  0  0  0  0  0  0
  161.2040  203.8530  152.1190 C   0  0  0  0  0  2  0  0  0  0  0  0
  159.9110  203.4120  150.1060 O   0  0  0  0  0  0  0  0  0  0  0  0
  161.3010  205.2180  151.4330 C   0  0  0  0  0  3  0  0  0  0  0  0
  160.5390  202.8070  151.2100 C   0  0  0  0  0  2  0  0  0  0  0  0
  160.9460  203.9010  149.2890 C   0  0  0  0  0  2  0  0  0  0  0  0
  1 18  1  0  0  0  0
  2  8  1  0  0  0  0
  3  2  1  0  0  0  0
  4  8  2  0  0  0  0
  4  9  1  0  0  0  0
  5  4  1  0  0  0  0
  6  7  2  0  0  0  0
  6  3  1  0  0  0  0
  7  5  1  0  0  0  0
  8 10  1  0  0  0  0
  9 20  1  0  0  0  0
  9  1  2  0  0  0  0
 10  1  1  0  0  0  0
 10 16  1  0  0  0  0
 11 14  2  0  0  0  0
 12 16  2  0  0  0  0
 12 13  1  0  0  0  0
 13 11  1  0  0  0  0
 15 14  1  0  0  0  0
 16 17  1  0  0  0  0
 17 15  2  0  0  0  0
 18 19  1  0  0  0  0
 21 24  1  0  0  0  0
 23 25  1  0  0  0  0
 24 22  1  0  0  0  0
 24 20  1  0  0  0  0
 25 22  1  0  0  0  0
 26 21  1  0  0  0  0
 26 23  1  0  0  0  0
M  END
>  <MODEL>
3

>  <REMARK>
 VINA RESULT:      -6.3      3.058      7.724
  Name = 
  4 active torsions:
  status: ('A' for Active; 'I' for Inactive)
    1  A    between atoms: C_4  and  C_7
    2  A    between atoms: C_11  and  C_18
    3  A    between atoms: C_15  and  N_26
    4  A    between atoms: C_18  and  C_25
                            x       y       z     vdW  Elec       q    Type
                         _______ _______ _______ _____ _____    ______ ____

>  <TORSDO>
F 4

$$$$
=
 OpenBabel11072414373D

 26 29  0  0  0  0  0  0  0  0999 V2000
  161.2390  204.6440  151.4810 C   0  0  0  0  0  0  0  0  0  0  0  0
  161.2660  206.4480  148.5350 C   0  0  0  0  0  2  0  0  0  0  0  0
  161.1390  207.9000  148.2050 C   0  0  0  0  0  2  0  0  0  0  0  0
  161.6970  206.7420  150.9160 C   0  0  0  0  0  0  0  0  0  0  0  0
  162.2340  207.9670  150.9990 C   0  0  0  0  0  2  0  0  0  0  0  0
  162.2750  208.6960  148.6450 N   0  0  0  0  0  0  0  0  0  0  0  0
  162.7060  208.7860  149.8660 C   0  0  0  0  0  3  0  0  0  0  0  0
  161.4370  205.9840  149.7780 C   0  0  0  0  0  0  0  0  0  0  0  0
  161.5290  205.8950  151.9980 C   0  0  0  0  0  0  0  0  0  0  0  0
  161.2070  204.6900  150.1270 N   0  0  0  0  0  0  0  0  0  0  0  0
  161.5420  201.1500  147.4570 C   0  0  0  0  0  3  0  0  0  0  0  0
  161.4980  203.5510  148.0380 C   0  0  0  0  0  3  0  0  0  0  0  0
  161.2060  202.5260  146.9910 C   0  0  0  0  0  2  0  0  0  0  0  0
  160.9510  200.5780  148.5040 C   0  0  0  0  0  3  0  0  0  0  0  0
  159.9760  201.2460  149.3850 C   0  0  0  0  0  3  0  0  0  0  0  0
  160.9170  203.5850  149.2440 C   0  0  0  0  0  0  0  0  0  0  0  0
  159.9580  202.5480  149.6990 C   0  0  0  0  0  3  0  0  0  0  0  0
  161.1140  203.3950  152.2970 C   0  0  0  0  0  2  0  0  0  0  0  0
  162.2800  202.4680  152.0110 C   0  0  0  0  0  1  0  0  0  0  0  0
  161.7920  206.2200  153.4390 C   0  0  0  0  0  2  0  0  0  0  0  0
  160.3330  206.9520  155.3610 C   0  0  0  0  0  2  0  0  0  0  0  0
  161.4950  208.6600  153.8870 C   0  0  0  0  0  2  0  0  0  0  0  0
  159.4730  209.2150  155.1200 O   0  0  0  0  0  0  0  0  0  0  0  0
  160.8310  207.2830  153.9480 C   0  0  0  0  0  3  0  0  0  0  0  0
  160.7410  209.6920  154.7410 C   0  0  0  0  0  2  0  0  0  0  0  0
  159.7060  208.1790  156.0420 C   0  0  0  0  0  2  0  0  0  0  0  0
  1  9  2  0  0  0  0
  1 18  1  0  0  0  0
  2  8  1  0  0  0  0
  3  2  1  0  0  0  0
  3  6  1  0  0  0  0
  4  5  1  0  0  0  0
  4  9  1  0  0  0  0
  6  7  2  0  0  0  0
  7  5  1  0  0  0  0
  8 10  1  0  0  0  0
  8  4  2  0  0  0  0
  9 20  1  0  0  0  0
 10  1  1  0  0  0  0
 11 14  2  0  0  0  0
 12 16  2  0  0  0  0
 13 11  1  0  0  0  0
 13 12  1  0  0  0  0
 14 15  1  0  0  0  0
 15 17  2  0  0  0  0
 16 17  1  0  0  0  0
 16 10  1  0  0  0  0
 19 18  1  0  0  0  0
 20 24  1  0  0  0  0
 21 26  1  0  0  0  0
 22 24  1  0  0  0  0
 22 25  1  0  0  0  0
 23 26  1  0  0  0  0
 24 21  1  0  0  0  0
 25 23  1  0  0  0  0
M  END
>  <MODEL>
4

>  <REMARK>
 VINA RESULT:      -6.0      2.020      4.116
  Name = 
  4 active torsions:
  status: ('A' for Active; 'I' for Inactive)
    1  A    between atoms: C_4  and  C_7
    2  A    between atoms: C_11  and  C_18
    3  A    between atoms: C_15  and  N_26
    4  A    between atoms: C_18  and  C_25
                            x       y       z     vdW  Elec       q    Type
                         _______ _______ _______ _____ _____    ______ ____

>  <TORSDO>
F 4

$$$$
=
 OpenBabel11072414373D

 26 29  0  0  0  0  0  0  0  0999 V2000
  161.6880  208.9050  150.0130 C   0  0  0  0  0  0  0  0  0  0  0  0
  161.5030  205.9390  151.7750 C   0  0  0  0  0  2  0  0  0  0  0  0
  161.8150  205.5460  153.1830 C   0  0  0  0  0  2  0  0  0  0  0  0
  161.5010  208.3470  152.1550 C   0  0  0  0  0  0  0  0  0  0  0  0
  161.1920  208.4700  153.4530 C   0  0  0  0  0  2  0  0  0  0  0  0
  160.9080  206.1270  154.1620 N   0  0  0  0  0  0  0  0  0  0  0  0
  160.6920  207.3950  154.3320 C   0  0  0  0  0  3  0  0  0  0  0  0
  161.4520  207.2080  151.3560 C   0  0  0  0  0  0  0  0  0  0  0  0
  161.6920  209.4180  151.2990 C   0  0  0  0  0  0  0  0  0  0  0  0
  161.5160  207.5610  150.0440 N   0  0  0  0  0  0  0  0  0  0  0  0
  162.6230  204.8140  146.7270 C   0  0  0  0  0  3  0  0  0  0  0  0
  162.2130  206.9900  147.8220 C   0  0  0  0  0  3  0  0  0  0  0  0
  162.1870  206.2270  146.5390 C   0  0  0  0  0  2  0  0  0  0  0  0
  161.9740  203.9570  147.5130 C   0  0  0  0  0  3  0  0  0  0  0  0
  160.8180  204.3050  148.3600 C   0  0  0  0  0  3  0  0  0  0  0  0
  161.4790  206.6810  148.9000 C   0  0  0  0  0  0  0  0  0  0  0  0
  160.6020  205.4850  148.9530 C   0  0  0  0  0  3  0  0  0  0  0  0
  161.7290  209.7330  148.7670 C   0  0  0  0  0  2  0  0  0  0  0  0
  162.5040  211.0120  149.0180 C   0  0  0  0  0  1  0  0  0  0  0  0
  161.7120  210.8710  151.6730 C   0  0  0  0  0  2  0  0  0  0  0  0
  160.2790  211.7110  153.5700 C   0  0  0  0  0  2  0  0  0  0  0  0
  159.9060  212.5310  151.1980 C   0  0  0  0  0  2  0  0  0  0  0  0
  158.1210  212.5720  152.8500 O   0  0  0  0  0  0  0  0  0  0  0  0
  160.3290  211.3530  152.0790 C   0  0  0  0  0  3  0  0  0  0  0  0
  158.7220  213.2990  151.8060 C   0  0  0  0  0  2  0  0  0  0  0  0
  159.0480  212.5680  153.9070 C   0  0  0  0  0  2  0  0  0  0  0  0
  1 10  1  0  0  0  0
  1  9  2  0  0  0  0
  2  3  1  0  0  0  0
  3  6  1  0  0  0  0
  4  5  1  0  0  0  0
  5  7  1  0  0  0  0
  6  7  2  0  0  0  0
  8  2  1  0  0  0  0
  8  4  2  0  0  0  0
  9 20  1  0  0  0  0
  9  4  1  0  0  0  0
 10  8  1  0  0  0  0
 11 14  2  0  0  0  0
 12 16  2  0  0  0  0
 13 11  1  0  0  0  0
 13 12  1  0  0  0  0
 14 15  1  0  0  0  0
 15 17  2  0  0  0  0
 16 17  1  0  0  0  0
 16 10  1  0  0  0  0
 18 19  1  0  0  0  0
 18  1  1  0  0  0  0
 20 24  1  0  0  0  0
 21 26  1  0  0  0  0
 22 25  1  0  0  0  0
 22 24  1  0  0  0  0
 23 26  1  0  0  0  0
 24 21  1  0  0  0  0
 25 23  1  0  0  0  0
M  END
>  <MODEL>
5

>  <REMARK>
 VINA RESULT:      -5.7      1.689      2.667
  Name = 
  4 active torsions:
  status: ('A' for Active; 'I' for Inactive)
    1  A    between atoms: C_4  and  C_7
    2  A    between atoms: C_11  and  C_18
    3  A    between atoms: C_15  and  N_26
    4  A    between atoms: C_18  and  C_25
                            x       y       z     vdW  Elec       q    Type
                         _______ _______ _______ _____ _____    ______ ____

>  <TORSDO>
F 4

$$$$
=
 OpenBabel11072414373D

 26 29  0  0  0  0  0  0  0  0999 V2000
  161.1670  207.5370  150.1920 C   0  0  0  0  0  0  0  0  0  0  0  0
  160.7160  204.6380  152.0170 C   0  0  0  0  0  2  0  0  0  0  0  0
  160.1590  203.2880  151.7010 C   0  0  0  0  0  2  0  0  0  0  0  0
  160.9750  205.3780  149.7080 C   0  0  0  0  0  0  0  0  0  0  0  0
  161.1090  204.2380  149.0170 C   0  0  0  0  0  2  0  0  0  0  0  0
  160.9860  202.5210  150.7800 N   0  0  0  0  0  0  0  0  0  0  0  0
  161.3370  202.8970  149.5880 C   0  0  0  0  0  3  0  0  0  0  0  0
  160.9890  205.5620  151.0890 C   0  0  0  0  0  0  0  0  0  0  0  0
  161.0460  206.6400  149.1440 C   0  0  0  0  0  0  0  0  0  0  0  0
  161.1580  206.8790  151.3770 N   0  0  0  0  0  0  0  0  0  0  0  0
  160.3380  209.2330  155.0600 C   0  0  0  0  0  3  0  0  0  0  0  0
  161.2110  208.8190  152.7860 C   0  0  0  0  0  3  0  0  0  0  0  0
  161.3940  209.5720  154.0620 C   0  0  0  0  0  2  0  0  0  0  0  0
  160.1710  208.0050  155.5450 C   0  0  0  0  0  3  0  0  0  0  0  0
  160.9260  206.8180  155.1010 C   0  0  0  0  0  3  0  0  0  0  0  0
  161.2420  207.4830  152.6860 C   0  0  0  0  0  0  0  0  0  0  0  0
  161.3940  206.5970  153.8670 C   0  0  0  0  0  3  0  0  0  0  0  0
  161.4090  209.0050  150.0310 C   0  0  0  0  0  2  0  0  0  0  0  0
  162.2370  209.2620  148.7870 C   0  0  0  0  0  1  0  0  0  0  0  0
  161.1610  206.9630  147.6840 C   0  0  0  0  0  2  0  0  0  0  0  0
  160.3820  205.8250  145.5720 C   0  0  0  0  0  2  0  0  0  0  0  0
  162.6880  205.3600  146.5240 C   0  0  0  0  0  2  0  0  0  0  0  0
  161.5550  203.7470  145.0990 O   0  0  0  0  0  0  0  0  0  0  0  0
  161.2300  205.6970  146.8450 C   0  0  0  0  0  3  0  0  0  0  0  0
  162.7970  204.3480  145.3730 C   0  0  0  0  0  2  0  0  0  0  0  0
  160.7520  204.7540  144.5340 C   0  0  0  0  0  2  0  0  0  0  0  0
  1 10  1  0  0  0  0
  3  2  1  0  0  0  0
  4  8  2  0  0  0  0
  5  7  1  0  0  0  0
  5  4  1  0  0  0  0
  6  3  1  0  0  0  0
  7  6  2  0  0  0  0
  8 10  1  0  0  0  0
  8  2  1  0  0  0  0
  9  4  1  0  0  0  0
  9  1  2  0  0  0  0
 10 16  1  0  0  0  0
 11 14  2  0  0  0  0
 12 13  1  0  0  0  0
 13 11  1  0  0  0  0
 15 14  1  0  0  0  0
 16 12  2  0  0  0  0
 16 17  1  0  0  0  0
 17 15  2  0  0  0  0
 18  1  1  0  0  0  0
 19 18  1  0  0  0  0
 20  9  1  0  0  0  0
 21 24  1  0  0  0  0
 22 24  1  0  0  0  0
 23 25  1  0  0  0  0
 24 20  1  0  0  0  0
 25 22  1  0  0  0  0
 26 23  1  0  0  0  0
 26 21  1  0  0  0  0
M  END
>  <MODEL>
6

>  <REMARK>
 VINA RESULT:      -5.6      2.481      6.715
  Name = 
  4 active torsions:
  status: ('A' for Active; 'I' for Inactive)
    1  A    between atoms: C_4  and  C_7
    2  A    between atoms: C_11  and  C_18
    3  A    between atoms: C_15  and  N_26
    4  A    between atoms: C_18  and  C_25
                            x       y       z     vdW  Elec       q    Type
                         _______ _______ _______ _____ _____    ______ ____

>  <TORSDO>
F 4

$$$$
=
 OpenBabel11072414373D

 26 29  0  0  0  0  0  0  0  0999 V2000
  160.6820  210.3420  152.6250 C   0  0  0  0  0  0  0  0  0  0  0  0
  159.9010  213.4730  151.3930 C   0  0  0  0  0  2  0  0  0  0  0  0
  160.5400  214.3860  150.3960 C   0  0  0  0  0  2  0  0  0  0  0  0
  161.1450  211.4710  150.7700 C   0  0  0  0  0  0  0  0  0  0  0  0
  161.4800  211.6830  149.4910 C   0  0  0  0  0  2  0  0  0  0  0  0
  160.4780  213.8870  149.0300 N   0  0  0  0  0  0  0  0  0  0  0  0
  160.9510  212.7510  148.6200 C   0  0  0  0  0  3  0  0  0  0  0  0
  160.2670  212.1990  151.5690 C   0  0  0  0  0  0  0  0  0  0  0  0
  161.4380  210.3110  151.4660 C   0  0  0  0  0  0  0  0  0  0  0  0
  159.9480  211.4800  152.6780 N   0  0  0  0  0  0  0  0  0  0  0  0
  156.9510  211.4700  155.9630 C   0  0  0  0  0  3  0  0  0  0  0  0
  157.7500  211.6000  153.6290 C   0  0  0  0  0  3  0  0  0  0  0  0
  156.7090  212.0390  154.6060 C   0  0  0  0  0  2  0  0  0  0  0  0
  158.0490  211.7300  156.6700 C   0  0  0  0  0  3  0  0  0  0  0  0
  159.1930  212.5210  156.1820 C   0  0  0  0  0  3  0  0  0  0  0  0
  159.0570  211.8700  153.7460 C   0  0  0  0  0  0  0  0  0  0  0  0
  159.6240  212.5860  154.9160 C   0  0  0  0  0  3  0  0  0  0  0  0
  160.5860  209.2180  153.6090 C   0  0  0  0  0  2  0  0  0  0  0  0
  161.4670  209.5020  154.8110 C   0  0  0  0  0  1  0  0  0  0  0  0
  162.2640  209.1580  150.9780 C   0  0  0  0  0  2  0  0  0  0  0  0
  161.9980  208.0020  148.7520 C   0  0  0  0  0  2  0  0  0  0  0  0
  161.3010  206.8530  150.9040 C   0  0  0  0  0  2  0  0  0  0  0  0
  160.3170  206.2450  148.7650 O   0  0  0  0  0  0  0  0  0  0  0  0
  161.4240  208.1860  150.1630 C   0  0  0  0  0  3  0  0  0  0  0  0
  160.8170  205.7300  149.9740 C   0  0  0  0  0  2  0  0  0  0  0  0
  161.4290  206.7500  148.0670 C   0  0  0  0  0  2  0  0  0  0  0  0
  1 10  1  0  0  0  0
  1 18  1  0  0  0  0
  2  8  1  0  0  0  0
  3  2  1  0  0  0  0
  4  9  1  0  0  0  0
  4  8  2  0  0  0  0
  5  4  1  0  0  0  0
  6  3  1  0  0  0  0
  7  6  2  0  0  0  0
  7  5  1  0  0  0  0
  8 10  1  0  0  0  0
  9  1  2  0  0  0  0
 10 16  1  0  0  0  0
 11 14  2  0  0  0  0
 12 16  2  0  0  0  0
 12 13  1  0  0  0  0
 13 11  1  0  0  0  0
 15 14  1  0  0  0  0
 16 17  1  0  0  0  0
 17 15  2  0  0  0  0
 18 19  1  0  0  0  0
 20  9  1  0  0  0  0
 21 24  1  0  0  0  0
 23 25  1  0  0  0  0
 24 22  1  0  0  0  0
 24 20  1  0  0  0  0
 25 22  1  0  0  0  0
 26 21  1  0  0  0  0
 26 23  1  0  0  0  0
M  END
>  <MODEL>
7

>  <REMARK>
 VINA RESULT:      -5.5      3.213      8.563
  Name = 
  4 active torsions:
  status: ('A' for Active; 'I' for Inactive)
    1  A    between atoms: C_4  and  C_7
    2  A    between atoms: C_11  and  C_18
    3  A    between atoms: C_15  and  N_26
    4  A    between atoms: C_18  and  C_25
                            x       y       z     vdW  Elec       q    Type
                         _______ _______ _______ _____ _____    ______ ____

>  <TORSDO>
F 4

$$$$
=
 OpenBabel11072414373D

 26 29  0  0  0  0  0  0  0  0999 V2000
  161.3570  207.1350  152.6960 C   0  0  0  0  0  0  0  0  0  0  0  0
  161.5880  207.6710  149.2910 C   0  0  0  0  0  2  0  0  0  0  0  0
  161.3000  208.8370  148.4010 C   0  0  0  0  0  2  0  0  0  0  0  0
  161.5810  208.9160  151.3870 C   0  0  0  0  0  0  0  0  0  0  0  0
  161.9090  210.1630  151.0240 C   0  0  0  0  0  2  0  0  0  0  0  0
  162.2190  209.9510  148.5890 N   0  0  0  0  0  0  0  0  0  0  0  0
  162.4290  210.5760  149.7060 C   0  0  0  0  0  3  0  0  0  0  0  0
  161.6240  207.7510  150.6260 C   0  0  0  0  0  0  0  0  0  0  0  0
  161.3690  208.5200  152.6970 C   0  0  0  0  0  0  0  0  0  0  0  0
  161.5380  206.6640  151.4380 N   0  0  0  0  0  0  0  0  0  0  0  0
  160.5380  202.3720  150.8420 C   0  0  0  0  0  3  0  0  0  0  0  0
  161.5030  204.3320  151.9950 C   0  0  0  0  0  3  0  0  0  0  0  0
  161.6250  202.8670  151.7360 C   0  0  0  0  0  2  0  0  0  0  0  0
  160.3740  202.8100  149.5950 C   0  0  0  0  0  3  0  0  0  0  0  0
  161.1660  203.8870  148.9730 C   0  0  0  0  0  3  0  0  0  0  0  0
  161.5620  205.2750  151.0450 C   0  0  0  0  0  0  0  0  0  0  0  0
  161.6850  204.9490  149.6020 C   0  0  0  0  0  3  0  0  0  0  0  0
  161.2910  206.2850  153.9260 C   0  0  0  0  0  2  0  0  0  0  0  0
  160.1430  206.7350  154.8090 C   0  0  0  0  0  1  0  0  0  0  0  0
  161.3460  209.4050  153.9070 C   0  0  0  0  0  2  0  0  0  0  0  0
  159.3930  210.0870  155.3510 C   0  0  0  0  0  2  0  0  0  0  0  0
  160.3360  211.6720  153.6080 C   0  0  0  0  0  2  0  0  0  0  0  0
  158.0360  211.8550  154.3770 O   0  0  0  0  0  0  0  0  0  0  0  0
  160.0580  210.2120  153.9740 C   0  0  0  0  0  3  0  0  0  0  0  0
  159.1840  212.5930  154.0360 C   0  0  0  0  0  2  0  0  0  0  0  0
  158.3440  211.1870  155.5760 C   0  0  0  0  0  2  0  0  0  0  0  0
  1  9  2  0  0  0  0
  1 18  1  0  0  0  0
  2  8  1  0  0  0  0
  3  6  1  0  0  0  0
  3  2  1  0  0  0  0
  4  9  1  0  0  0  0
  5  4  1  0  0  0  0
  6  7  2  0  0  0  0
  7  5  1  0  0  0  0
  8  4  2  0  0  0  0
  8 10  1  0  0  0  0
  9 20  1  0  0  0  0
 10  1  1  0  0  0  0
 11 13  1  0  0  0  0
 13 12  1  0  0  0  0
 14 11  2  0  0  0  0
 15 14  1  0  0  0  0
 15 17  2  0  0  0  0
 16 10  1  0  0  0  0
 16 12  2  0  0  0  0
 17 16  1  0  0  0  0
 18 19  1  0  0  0  0
 20 24  1  0  0  0  0
 21 26  1  0  0  0  0
 22 24  1  0  0  0  0
 22 25  1  0  0  0  0
 23 26  1  0  0  0  0
 24 21  1  0  0  0  0
 25 23  1  0  0  0  0
M  END
>  <MODEL>
8

>  <REMARK>
 VINA RESULT:      -5.4      2.305      4.591
  Name = 
  4 active torsions:
  status: ('A' for Active; 'I' for Inactive)
    1  A    between atoms: C_4  and  C_7
    2  A    between atoms: C_11  and  C_18
    3  A    between atoms: C_15  and  N_26
    4  A    between atoms: C_18  and  C_25
                            x       y       z     vdW  Elec       q    Type
                         _______ _______ _______ _____ _____    ______ ____

>  <TORSDO>
F 4

$$$$
=
 OpenBabel11072414373D

 26 29  0  0  0  0  0  0  0  0999 V2000
  160.9500  206.1970  151.4770 C   0  0  0  0  0  0  0  0  0  0  0  0
  161.8690  209.5220  151.2950 C   0  0  0  0  0  2  0  0  0  0  0  0
  162.6610  210.3290  150.3170 C   0  0  0  0  0  2  0  0  0  0  0  0
  161.5280  207.5900  149.8470 C   0  0  0  0  0  0  0  0  0  0  0  0
  161.6090  208.0960  148.6090 C   0  0  0  0  0  2  0  0  0  0  0  0
  162.0000  210.4920  149.0300 N   0  0  0  0  0  0  0  0  0  0  0  0
  161.6100  209.5280  148.2540 C   0  0  0  0  0  3  0  0  0  0  0  0
  161.4560  208.2720  151.0590 C   0  0  0  0  0  0  0  0  0  0  0  0
  161.2460  206.2640  150.1260 C   0  0  0  0  0  0  0  0  0  0  0  0
  161.0520  207.4240  152.0420 N   0  0  0  0  0  0  0  0  0  0  0  0
  161.5810  208.0630  156.4120 C   0  0  0  0  0  3  0  0  0  0  0  0
  161.0640  206.7940  154.3560 C   0  0  0  0  0  3  0  0  0  0  0  0
  160.7840  206.9530  155.8140 C   0  0  0  0  0  2  0  0  0  0  0  0
  161.4630  209.3300  156.0180 C   0  0  0  0  0  3  0  0  0  0  0  0
  160.6180  209.7860  154.9000 C   0  0  0  0  0  3  0  0  0  0  0  0
  160.8380  207.7400  153.4350 C   0  0  0  0  0  0  0  0  0  0  0  0
  160.3430  209.0950  153.7860 C   0  0  0  0  0  3  0  0  0  0  0  0
  160.4560  204.9710  152.1790 C   0  0  0  0  0  2  0  0  0  0  0  0
  161.4500  203.8390  152.0110 C   0  0  0  0  0  1  0  0  0  0  0  0
  161.1040  205.1500  149.1320 C   0  0  0  0  0  2  0  0  0  0  0  0
  162.6020  204.5210  147.2020 C   0  0  0  0  0  2  0  0  0  0  0  0
  160.4560  205.8190  146.8120 C   0  0  0  0  0  2  0  0  0  0  0  0
  162.3140  205.9390  145.2470 O   0  0  0  0  0  0  0  0  0  0  0  0
  161.6270  205.5640  147.7650 C   0  0  0  0  0  3  0  0  0  0  0  0
  160.9130  205.8470  145.3460 C   0  0  0  0  0  2  0  0  0  0  0  0
  162.8170  204.7030  145.6910 C   0  0  0  0  0  2  0  0  0  0  0  0
  1 10  1  0  0  0  0
  1 18  1  0  0  0  0
  3  2  1  0  0  0  0
  4  9  1  0  0  0  0
  4  8  2  0  0  0  0
  5  4  1  0  0  0  0
  6  3  1  0  0  0  0
  7  5  1  0  0  0  0
  7  6  2  0  0  0  0
  8  2  1  0  0  0  0
  8 10  1  0  0  0  0
  9  1  2  0  0  0  0
 10 16  1  0  0  0  0
 12 13  1  0  0  0  0
 13 11  1  0  0  0  0
 14 11  2  0  0  0  0
 15 14  1  0  0  0  0
 16 17  1  0  0  0  0
 16 12  2  0  0  0  0
 17 15  2  0  0  0  0
 19 18  1  0  0  0  0
 20  9  1  0  0  0  0
 21 24  1  0  0  0  0
 22 24  1  0  0  0  0
 23 25  1  0  0  0  0
 23 26  1  0  0  0  0
 24 20  1  0  0  0  0
 25 22  1  0  0  0  0
 26 21  1  0  0  0  0
M  END
>  <MODEL>
9

>  <REMARK>
 VINA RESULT:      -5.4      2.560      7.465
  Name = 
  4 active torsions:
  status: ('A' for Active; 'I' for Inactive)
    1  A    between atoms: C_4  and  C_7
    2  A    between atoms: C_11  and  C_18
    3  A    between atoms: C_15  and  N_26
    4  A    between atoms: C_18  and  C_25
                            x       y       z     vdW  Elec       q    Type
                         _______ _______ _______ _____ _____    ______ ____

>  <TORSDO>
F 4

$$$$
