=
 OpenBabel11072413573D

 29 32  0  0  1  0  0  0  0  0999 V2000
  161.1060  202.9670  146.7690 C   0  0  1  0  0  3  0  0  0  0  0  0
  160.8040  200.5520  146.6630 N   0  0  0  0  0  1  0  0  0  0  0  0
  161.6340  205.2320  144.1450 C   0  0  0  0  0  0  0  0  0  0  0  0
  160.7010  202.3890  150.7840 C   0  0  0  0  0  0  0  0  0  0  0  0
  161.1430  204.1210  148.9360 N   0  0  0  0  0  0  0  0  0  0  0  0
  161.7070  204.1180  147.5740 C   0  0  2  0  0  3  0  0  0  0  0  0
  161.5620  205.3410  146.6450 C   0  0  2  0  0  0  0  0  0  0  0  0
  161.7110  205.7940  143.0450 O   0  0  0  0  0  0  0  0  0  0  0  0
  161.0160  200.5800  149.6170 N   0  0  0  0  0  0  0  0  0  0  0  0
  160.3890  203.2190  151.8980 N   0  0  0  0  0  1  0  0  0  0  0  0
  161.0140  202.8060  149.5130 C   0  0  0  0  0  0  0  0  0  0  0  0
  161.4230  203.2620  145.4280 O   0  0  0  0  0  0  0  0  0  0  0  0
  161.1910  201.6380  148.7990 C   0  0  0  0  0  0  0  0  0  0  0  0
  161.5520  204.6390  145.3070 C   0  0  0  0  0  0  0  0  0  0  0  0
  160.7110  201.0410  150.8280 N   0  0  0  0  0  2  0  0  0  0  0  0
  161.5420  201.6110  147.3290 C   0  0  2  0  0  3  0  0  0  0  0  0
  162.6170  207.2970  147.6080 O   0  0  0  0  0  1  0  0  0  0  0  0
  162.8070  206.2270  146.7330 C   0  0  0  0  0  2  0  0  0  0  0  0
  160.2820  206.1740  146.8590 C   0  0  0  0  0  2  0  0  0  0  0  0
  159.3270  206.1480  145.6720 C   0  0  0  0  0  1  0  0  0  0  0  0
  161.0700  205.3260  149.7560 C   0  0  0  0  0  2  0  0  0  0  0  0
  162.3430  205.4820  150.5840 C   0  0  0  0  0  2  0  0  0  0  0  0
  162.1060  206.5300  152.8750 C   0  0  0  0  0  2  0  0  0  0  0  0
  161.3120  207.7710  150.9090 C   0  0  0  0  0  2  0  0  0  0  0  0
  160.8380  207.7930  154.6280 C   0  0  0  0  0  1  0  0  0  0  0  0
  160.8260  207.2710  153.2020 C   0  0  1  0  0  3  0  0  0  0  0  0
  161.4050  209.5080  152.5170 O   0  0  0  0  0  1  0  0  0  0  0  0
  162.3600  206.7770  151.3950 C   0  0  2  0  0  3  0  0  0  0  0  0
  160.6860  208.3650  152.1530 C   0  0  1  0  0  3  0  0  0  0  0  0
  1 12  1  6  0  0  0
  1 16  1  0  0  0  0
  1  6  1  0  0  0  0
  3 14  2  0  0  0  0
  4 15  1  0  0  0  0
  4 10  1  0  0  0  0
  5 11  1  0  0  0  0
  5 21  1  0  0  0  0
  6  5  1  1  0  0  0
  7 18  1  1  0  0  0
  7 19  1  0  0  0  0
  7  6  1  0  0  0  0
  8  3  2  0  0  0  0
  9 15  1  0  0  0  0
 11  4  2  0  0  0  0
 13 11  1  0  0  0  0
 13  9  2  0  0  0  0
 14 12  1  0  0  0  0
 14  7  1  0  0  0  0
 16  2  1  6  0  0  0
 16 13  1  0  0  0  0
 18 17  1  0  0  0  0
 20 19  1  0  0  0  0
 21 22  1  0  0  0  0
 23 26  1  0  0  0  0
 24 28  1  0  0  0  0
 24 29  1  0  0  0  0
 26 25  1  1  0  0  0
 28 22  1  6  0  0  0
 28 23  1  0  0  0  0
 29 27  1  1  0  0  0
 29 26  1  0  0  0  0
M  END
>  <MODEL>
1

>  <REMARK>
 VINA RESULT:      -5.7      0.000      0.000
  Name = 
  5 active torsions:
  status: ('A' for Active; 'I' for Inactive)
    1  A    between atoms: C_2  and  N_12
    2  A    between atoms: C_2  and  C_23
    3  A    between atoms: C_4  and  C_14
    4  A    between atoms: C_8  and  C_14
    5  A    between atoms: C_23  and  C_25
                            x       y       z     vdW  Elec       q    Type
                         _______ _______ _______ _____ _____    ______ ____

>  <TORSDO>
F 5

$$$$
=
 OpenBabel11072413573D

 29 32  0  0  1  0  0  0  0  0999 V2000
  161.1180  204.8780  149.7600 C   0  0  1  0  0  3  0  0  0  0  0  0
  160.9220  203.8730  151.9710 N   0  0  0  0  0  1  0  0  0  0  0  0
  161.3170  203.2940  146.6380 C   0  0  0  0  0  0  0  0  0  0  0  0
  161.0820  208.3820  151.8430 C   0  0  0  0  0  0  0  0  0  0  0  0
  161.2850  207.3150  149.5120 N   0  0  0  0  0  0  0  0  0  0  0  0
  161.7310  206.0240  148.9580 C   0  0  2  0  0  3  0  0  0  0  0  0
  161.4510  205.6450  147.4890 C   0  0  2  0  0  0  0  0  0  0  0  0
  161.2740  202.4910  145.6970 O   0  0  0  0  0  0  0  0  0  0  0  0
  161.3810  206.5940  153.0470 N   0  0  0  0  0  0  0  0  0  0  0  0
  160.8270  209.7450  151.5220 N   0  0  0  0  0  1  0  0  0  0  0  0
  161.2660  207.3510  150.9540 C   0  0  0  0  0  0  0  0  0  0  0  0
  161.3080  203.7350  148.9570 O   0  0  0  0  0  0  0  0  0  0  0  0
  161.4370  206.2350  151.7480 C   0  0  0  0  0  0  0  0  0  0  0  0
  161.3610  204.1430  147.6310 C   0  0  0  0  0  0  0  0  0  0  0  0
  161.1590  207.9050  153.1030 N   0  0  0  0  0  2  0  0  0  0  0  0
  161.6630  204.8480  151.1900 C   0  0  2  0  0  3  0  0  0  0  0  0
  163.5230  204.9050  146.4760 O   0  0  0  0  0  1  0  0  0  0  0  0
  162.6570  205.9900  146.6110 C   0  0  0  0  0  2  0  0  0  0  0  0
  160.1570  206.2380  146.8980 C   0  0  0  0  0  2  0  0  0  0  0  0
  160.1350  206.2690  145.3750 C   0  0  0  0  0  1  0  0  0  0  0  0
  161.2250  208.5360  148.7170 C   0  0  0  0  0  2  0  0  0  0  0  0
  162.5610  209.2740  148.7750 C   0  0  0  0  0  2  0  0  0  0  0  0
  161.0420  211.2460  148.3260 C   0  0  0  0  0  2  0  0  0  0  0  0
  163.4690  211.5310  148.0780 C   0  0  0  0  0  2  0  0  0  0  0  0
  160.3120  213.2410  146.9970 C   0  0  0  0  0  1  0  0  0  0  0  0
  161.3480  212.1400  147.1420 C   0  0  1  0  0  3  0  0  0  0  0  0
  162.7680  213.7920  148.1730 O   0  0  0  0  0  1  0  0  0  0  0  0
  162.3910  210.7900  148.8600 C   0  0  2  0  0  3  0  0  0  0  0  0
  162.7640  212.6590  147.3540 C   0  0  1  0  0  3  0  0  0  0  0  0
  1 12  1  6  0  0  0
  1 16  1  0  0  0  0
  3 14  2  0  0  0  0
  4 15  1  0  0  0  0
  5 11  1  0  0  0  0
  6  5  1  1  0  0  0
  6  1  1  0  0  0  0
  7 18  1  6  0  0  0
  7 14  1  0  0  0  0
  7  6  1  0  0  0  0
  8  3  2  0  0  0  0
  9 15  1  0  0  0  0
 10  4  1  0  0  0  0
 11 13  1  0  0  0  0
 11  4  2  0  0  0  0
 13  9  2  0  0  0  0
 14 12  1  0  0  0  0
 16 13  1  0  0  0  0
 16  2  1  1  0  0  0
 17 18  1  0  0  0  0
 19  7  1  0  0  0  0
 20 19  1  0  0  0  0
 21 22  1  0  0  0  0
 21  5  1  0  0  0  0
 23 28  1  0  0  0  0
 24 28  1  0  0  0  0
 26 25  1  1  0  0  0
 26 29  1  0  0  0  0
 26 23  1  0  0  0  0
 28 22  1  6  0  0  0
 29 24  1  0  0  0  0
 29 27  1  1  0  0  0
M  END
>  <MODEL>
2

>  <REMARK>
 VINA RESULT:      -5.5      3.456      5.048
  Name = 
  5 active torsions:
  status: ('A' for Active; 'I' for Inactive)
    1  A    between atoms: C_2  and  N_12
    2  A    between atoms: C_2  and  C_23
    3  A    between atoms: C_4  and  C_14
    4  A    between atoms: C_8  and  C_14
    5  A    between atoms: C_23  and  C_25
                            x       y       z     vdW  Elec       q    Type
                         _______ _______ _______ _____ _____    ______ ____

>  <TORSDO>
F 5

$$$$
=
 OpenBabel11072413573D

 29 32  0  0  1  0  0  0  0  0999 V2000
  159.5810  211.6820  152.6770 C   0  0  1  0  0  3  0  0  0  0  0  0
  158.2170  213.6390  152.1850 N   0  0  0  0  0  1  0  0  0  0  0  0
  159.5590  209.6530  155.5360 C   0  0  0  0  0  0  0  0  0  0  0  0
  161.2060  212.4520  149.0190 C   0  0  0  0  0  0  0  0  0  0  0  0
  161.3030  210.9360  151.0930 N   0  0  0  0  0  0  0  0  0  0  0  0
  160.9630  211.0510  152.5230 C   0  0  2  0  0  3  0  0  0  0  0  0
  160.9110  209.8070  153.4350 C   0  0  2  0  0  0  0  0  0  0  0  0
  159.2730  209.0720  156.5910 O   0  0  0  0  0  0  0  0  0  0  0  0
  159.9790  214.0510  149.8390 N   0  0  0  0  0  0  0  0  0  0  0  0
  161.9640  211.7060  148.0730 N   0  0  0  0  0  1  0  0  0  0  0  0
  160.9280  212.0910  150.3140 C   0  0  2  0  0  3  0  0  0  0  0  0
  159.2130  211.4220  154.0120 O   0  0  0  0  0  0  0  0  0  0  0  0
  160.1390  213.1150  150.7980 C   0  0  0  0  0  0  0  0  0  0  0  0
  159.8620  210.2650  154.4220 C   0  0  0  0  0  0  0  0  0  0  0  0
  160.6270  213.6410  148.7520 N   0  0  0  0  0  0  0  0  0  0  0  0
  159.5800  213.1370  152.2020 C   0  0  2  0  0  3  0  0  0  0  0  0
  162.5920  210.7750  154.8850 O   0  0  0  0  0  1  0  0  0  0  0  0
  162.2420  209.6300  154.1700 C   0  0  0  0  0  2  0  0  0  0  0  0
  160.4970  208.5000  152.7310 C   0  0  0  0  0  2  0  0  0  0  0  0
  161.2010  207.2610  153.2710 C   0  0  0  0  0  1  0  0  0  0  0  0
  162.2400  209.9420  150.5830 C   0  0  0  0  0  2  0  0  0  0  0  0
  161.6280  209.1920  149.4020 C   0  0  0  0  0  2  0  0  0  0  0  0
  162.6540  207.2230  148.1870 C   0  0  0  0  0  2  0  0  0  0  0  0
  160.6590  206.8600  149.5740 C   0  0  0  0  0  2  0  0  0  0  0  0
  162.5150  205.1350  146.8100 C   0  0  0  0  0  1  0  0  0  0  0  0
  161.7310  206.2200  147.5280 C   0  0  1  0  0  3  0  0  0  0  0  0
  161.4270  204.6340  149.3170 O   0  0  0  0  0  1  0  0  0  0  0  0
  161.9270  207.6940  149.4390 C   0  0  2  0  0  3  0  0  0  0  0  0
  160.8220  205.6890  148.6270 C   0  0  1  0  0  3  0  0  0  0  0  0
  1 12  1  1  0  0  0
  3  8  2  0  0  0  0
  6  5  1  6  0  0  0
  6  1  1  0  0  0  0
  6  7  1  0  0  0  0
  7 19  1  6  0  0  0
  7 18  1  0  0  0  0
  7 14  1  0  0  0  0
  9 13  2  0  0  0  0
 10  4  1  0  0  0  0
 11  4  1  6  0  0  0
 11 13  1  0  0  0  0
 11  5  1  0  0  0  0
 12 14  1  0  0  0  0
 13 16  1  0  0  0  0
 14  3  2  0  0  0  0
 15  4  2  0  0  0  0
 15  9  1  0  0  0  0
 16  2  1  6  0  0  0
 16  1  1  0  0  0  0
 18 17  1  0  0  0  0
 19 20  1  0  0  0  0
 21  5  1  0  0  0  0
 22 21  1  0  0  0  0
 23 28  1  0  0  0  0
 26 25  1  1  0  0  0
 26 23  1  0  0  0  0
 26 29  1  0  0  0  0
 28 22  1  6  0  0  0
 28 24  1  0  0  0  0
 29 27  1  1  0  0  0
 29 24  1  0  0  0  0
M  END
>  <MODEL>
3

>  <REMARK>
 VINA RESULT:      -5.3      4.674      9.314
  Name = 
  5 active torsions:
  status: ('A' for Active; 'I' for Inactive)
    1  A    between atoms: C_2  and  N_12
    2  A    between atoms: C_2  and  C_23
    3  A    between atoms: C_4  and  C_14
    4  A    between atoms: C_8  and  C_14
    5  A    between atoms: C_23  and  C_25
                            x       y       z     vdW  Elec       q    Type
                         _______ _______ _______ _____ _____    ______ ____

>  <TORSDO>
F 5

$$$$
=
 OpenBabel11072413573D

 29 32  0  0  1  0  0  0  0  0999 V2000
  161.3040  205.4580  148.8130 C   0  0  1  0  0  3  0  0  0  0  0  0
  161.4220  206.6070  146.6690 N   0  0  0  0  0  1  0  0  0  0  0  0
  160.5260  202.1020  149.4670 C   0  0  0  0  0  0  0  0  0  0  0  0
  162.2940  209.1150  150.3180 C   0  0  0  0  0  0  0  0  0  0  0  0
  161.6860  206.6870  150.9050 N   0  0  0  0  0  0  0  0  0  0  0  0
  160.9160  205.5930  150.2850 C   0  0  2  0  0  3  0  0  0  0  0  0
  160.9960  204.1510  150.8270 C   0  0  2  0  0  0  0  0  0  0  0  0
  160.3150  200.8850  149.3930 O   0  0  0  0  0  0  0  0  0  0  0  0
  161.6780  209.1100  148.2310 N   0  0  0  0  0  0  0  0  0  0  0  0
  162.8310  209.5890  151.5480 N   0  0  0  0  0  1  0  0  0  0  0  0
  161.8150  207.8530  150.0660 C   0  0  2  0  0  3  0  0  0  0  0  0
  160.8010  204.2010  148.4230 O   0  0  0  0  0  0  0  0  0  0  0  0
  161.4490  207.8800  148.7350 C   0  0  0  0  0  0  0  0  0  0  0  0
  160.7480  203.3880  149.5470 C   0  0  0  0  0  0  0  0  0  0  0  0
  162.1990  209.8610  149.1980 N   0  0  0  0  0  0  0  0  0  0  0  0
  160.8710  206.6860  148.0100 C   0  0  2  0  0  3  0  0  0  0  0  0
  160.2780  203.8630  153.1220 O   0  0  0  0  0  1  0  0  0  0  0  0
  159.8430  203.8820  151.7970 C   0  0  0  0  0  2  0  0  0  0  0  0
  162.3460  203.7680  151.4640 C   0  0  0  0  0  2  0  0  0  0  0  0
  162.5360  202.2670  151.6480 C   0  0  0  0  0  1  0  0  0  0  0  0
  161.9670  206.7390  152.3350 C   0  0  0  0  0  2  0  0  0  0  0  0
  160.7510  207.2610  153.0970 C   0  0  0  0  0  2  0  0  0  0  0  0
  160.9330  208.3170  155.3890 C   0  0  0  0  0  2  0  0  0  0  0  0
  160.1220  209.6780  153.5120 C   0  0  0  0  0  2  0  0  0  0  0  0
  160.0750  209.7450  157.2600 C   0  0  0  0  0  1  0  0  0  0  0  0
  159.8240  209.2410  155.8490 C   0  0  1  0  0  3  0  0  0  0  0  0
  160.6560  211.3690  155.0830 O   0  0  0  0  0  1  0  0  0  0  0  0
  161.0550  208.5330  153.8880 C   0  0  2  0  0  3  0  0  0  0  0  0
  159.7360  210.3510  154.8120 C   0  0  1  0  0  3  0  0  0  0  0  0
  1 12  1  6  0  0  0
  1  6  1  0  0  0  0
  3 14  2  0  0  0  0
  4 10  1  0  0  0  0
  5 21  1  0  0  0  0
  6  7  1  0  0  0  0
  6  5  1  1  0  0  0
  7 19  1  1  0  0  0
  7 18  1  0  0  0  0
  8  3  2  0  0  0  0
  9 13  2  0  0  0  0
  9 15  1  0  0  0  0
 11 13  1  6  0  0  0
 11  4  1  0  0  0  0
 11  5  1  0  0  0  0
 12 14  1  0  0  0  0
 14  7  1  0  0  0  0
 15  4  2  0  0  0  0
 16  2  1  6  0  0  0
 16 13  1  0  0  0  0
 16  1  1  0  0  0  0
 18 17  1  0  0  0  0
 19 20  1  0  0  0  0
 21 22  1  0  0  0  0
 23 26  1  0  0  0  0
 24 28  1  0  0  0  0
 24 29  1  0  0  0  0
 26 25  1  1  0  0  0
 28 22  1  6  0  0  0
 28 23  1  0  0  0  0
 29 27  1  1  0  0  0
 29 26  1  0  0  0  0
M  END
>  <MODEL>
4

>  <REMARK>
 VINA RESULT:      -4.9      3.104      5.411
  Name = 
  5 active torsions:
  status: ('A' for Active; 'I' for Inactive)
    1  A    between atoms: C_2  and  N_12
    2  A    between atoms: C_2  and  C_23
    3  A    between atoms: C_4  and  C_14
    4  A    between atoms: C_8  and  C_14
    5  A    between atoms: C_23  and  C_25
                            x       y       z     vdW  Elec       q    Type
                         _______ _______ _______ _____ _____    ______ ____

>  <TORSDO>
F 5

$$$$
=
 OpenBabel11072413573D

 29 32  0  0  1  0  0  0  0  0999 V2000
  157.8770  213.5940  151.3670 C   0  0  1  0  0  3  0  0  0  0  0  0
  157.4390  214.4530  149.1300 N   0  0  0  0  0  1  0  0  0  0  0  0
  155.9720  213.9890  154.2830 C   0  0  0  0  0  0  0  0  0  0  0  0
  161.2220  212.0430  149.6280 C   0  0  0  0  0  0  0  0  0  0  0  0
  159.9230  212.3170  151.8300 N   0  0  0  0  0  0  0  0  0  0  0  0
  158.9620  213.2810  152.3960 C   0  0  2  0  0  3  0  0  0  0  0  0
  158.1760  212.9630  153.6850 C   0  0  2  0  0  0  0  0  0  0  0  0
  155.0760  214.2080  155.1080 O   0  0  0  0  0  0  0  0  0  0  0  0
  160.1670  213.5290  148.4390 N   0  0  0  0  0  0  0  0  0  0  0  0
  162.1460  211.0110  149.9570 N   0  0  0  0  0  1  0  0  0  0  0  0
  160.2650  212.5810  150.4530 C   0  0  2  0  0  3  0  0  0  0  0  0
  156.8510  214.2160  152.1040 O   0  0  0  0  0  0  0  0  0  0  0  0
  159.6090  213.5050  149.6660 C   0  0  0  0  0  0  0  0  0  0  0  0
  156.9190  213.7570  153.4130 C   0  0  0  0  0  0  0  0  0  0  0  0
  161.1490  212.6310  148.4160 N   0  0  0  0  0  0  0  0  0  0  0  0
  158.4540  214.3440  150.1640 C   0  0  2  0  0  3  0  0  0  0  0  0
  160.0140  212.8160  155.2540 O   0  0  0  0  0  1  0  0  0  0  0  0
  158.8860  213.5580  154.9020 C   0  0  0  0  0  2  0  0  0  0  0  0
  157.8660  211.4700  153.9080 C   0  0  0  0  0  2  0  0  0  0  0  0
  157.4110  211.1410  155.3240 C   0  0  0  0  0  1  0  0  0  0  0  0
  160.7250  211.4240  152.6590 C   0  0  0  0  0  2  0  0  0  0  0  0
  160.0940  210.0350  152.7070 C   0  0  0  0  0  2  0  0  0  0  0  0
  161.2110  208.2030  151.3650 C   0  0  0  0  0  2  0  0  0  0  0  0
  160.8450  207.8640  153.7710 C   0  0  0  0  0  2  0  0  0  0  0  0
  161.5530  205.8080  150.7170 C   0  0  0  0  0  1  0  0  0  0  0  0
  160.8210  206.7660  151.6410 C   0  0  1  0  0  3  0  0  0  0  0  0
  162.4380  206.1690  153.3250 O   0  0  0  0  0  1  0  0  0  0  0  0
  161.1350  208.9170  152.7080 C   0  0  2  0  0  3  0  0  0  0  0  0
  161.1020  206.5230  153.1170 C   0  0  1  0  0  3  0  0  0  0  0  0
  1 12  1  1  0  0  0
  1  6  1  0  0  0  0
  3  8  2  0  0  0  0
  4 10  1  0  0  0  0
  5 21  1  0  0  0  0
  6  5  1  6  0  0  0
  6  7  1  0  0  0  0
  7 19  1  1  0  0  0
  7 18  1  0  0  0  0
  9 13  2  0  0  0  0
 11  4  1  6  0  0  0
 11  5  1  0  0  0  0
 12 14  1  0  0  0  0
 13 16  1  0  0  0  0
 13 11  1  0  0  0  0
 14  7  1  0  0  0  0
 14  3  2  0  0  0  0
 15  9  1  0  0  0  0
 15  4  2  0  0  0  0
 16  2  1  6  0  0  0
 16  1  1  0  0  0  0
 18 17  1  0  0  0  0
 19 20  1  0  0  0  0
 21 22  1  0  0  0  0
 23 26  1  0  0  0  0
 23 28  1  0  0  0  0
 26 25  1  6  0  0  0
 26 29  1  0  0  0  0
 28 22  1  6  0  0  0
 28 24  1  0  0  0  0
 29 27  1  6  0  0  0
 29 24  1  0  0  0  0
M  END
>  <MODEL>
5

>  <REMARK>
 VINA RESULT:      -4.5      5.781     10.106
  Name = 
  5 active torsions:
  status: ('A' for Active; 'I' for Inactive)
    1  A    between atoms: C_2  and  N_12
    2  A    between atoms: C_2  and  C_23
    3  A    between atoms: C_4  and  C_14
    4  A    between atoms: C_8  and  C_14
    5  A    between atoms: C_23  and  C_25
                            x       y       z     vdW  Elec       q    Type
                         _______ _______ _______ _____ _____    ______ ____

>  <TORSDO>
F 5

$$$$
=
 OpenBabel11072413573D

 29 32  0  0  1  0  0  0  0  0999 V2000
  160.6780  203.3000  147.6480 C   0  0  1  0  0  3  0  0  0  0  0  0
  159.6790  201.1220  148.0900 N   0  0  0  0  0  1  0  0  0  0  0  0
  161.1640  204.9100  144.5720 C   0  0  0  0  0  0  0  0  0  0  0  0
  161.1350  203.4090  151.6980 C   0  0  0  0  0  0  0  0  0  0  0  0
  161.5820  204.6490  149.4900 N   0  0  0  0  0  0  0  0  0  0  0  0
  161.7640  204.2860  148.0730 C   0  0  2  0  0  3  0  0  0  0  0  0
  161.7500  205.3590  146.9640 C   0  0  2  0  0  0  0  0  0  0  0  0
  161.1230  205.2700  143.3890 O   0  0  0  0  0  0  0  0  0  0  0  0
  160.6170  201.4610  150.8790 N   0  0  0  0  0  0  0  0  0  0  0  0
  161.3620  204.4320  152.6610 N   0  0  0  0  0  1  0  0  0  0  0  0
  161.2280  203.5330  150.3330 C   0  0  0  0  0  0  0  0  0  0  0  0
  160.7230  203.2990  146.2400 O   0  0  0  0  0  0  0  0  0  0  0  0
  160.8800  202.2890  149.8470 C   0  0  0  0  0  0  0  0  0  0  0  0
  161.2070  204.5310  145.8230 C   0  0  0  0  0  0  0  0  0  0  0  0
  160.7690  202.1480  152.0080 N   0  0  0  0  0  2  0  0  0  0  0  0
  160.8310  201.9600  148.3720 C   0  0  2  0  0  3  0  0  0  0  0  0
  163.9940  204.7030  146.3300 O   0  0  0  0  0  1  0  0  0  0  0  0
  163.1780  205.7950  146.6280 C   0  0  0  0  0  2  0  0  0  0  0  0
  160.8580  206.5830  147.2530 C   0  0  0  0  0  2  0  0  0  0  0  0
  161.6390  207.8470  147.5910 C   0  0  0  0  0  1  0  0  0  0  0  0
  162.0640  205.9070  150.0500 C   0  0  0  0  0  2  0  0  0  0  0  0
  160.9810  206.5560  150.9090 C   0  0  0  0  0  2  0  0  0  0  0  0
  160.4590  208.2250  152.7370 C   0  0  0  0  0  2  0  0  0  0  0  0
  162.2170  208.7560  151.1060 C   0  0  0  0  0  2  0  0  0  0  0  0
  160.0490  210.5460  153.5870 C   0  0  0  0  0  1  0  0  0  0  0  0
  160.4200  209.6960  152.3830 C   0  0  1  0  0  3  0  0  0  0  0  0
  162.7070  210.3290  152.8090 O   0  0  0  0  0  1  0  0  0  0  0  0
  161.5400  207.6150  151.8570 C   0  0  2  0  0  3  0  0  0  0  0  0
  161.7860  210.0310  151.7990 C   0  0  1  0  0  3  0  0  0  0  0  0
  1 12  1  6  0  0  0
  1  6  1  0  0  0  0
  1 16  1  0  0  0  0
  3 14  2  0  0  0  0
  4 15  1  0  0  0  0
  4 10  1  0  0  0  0
  5 21  1  0  0  0  0
  5 11  1  0  0  0  0
  6  5  1  1  0  0  0
  7 18  1  6  0  0  0
  7 19  1  0  0  0  0
  7  6  1  0  0  0  0
  8  3  2  0  0  0  0
  9 15  1  0  0  0  0
 11  4  2  0  0  0  0
 13 11  1  0  0  0  0
 13  9  2  0  0  0  0
 14 12  1  0  0  0  0
 14  7  1  0  0  0  0
 16  2  1  1  0  0  0
 16 13  1  0  0  0  0
 17 18  1  0  0  0  0
 19 20  1  0  0  0  0
 21 22  1  0  0  0  0
 24 29  1  0  0  0  0
 24 28  1  0  0  0  0
 26 23  1  0  0  0  0
 26 25  1  1  0  0  0
 28 22  1  6  0  0  0
 28 23  1  0  0  0  0
 29 26  1  0  0  0  0
 29 27  1  1  0  0  0
M  END
>  <MODEL>
6

>  <REMARK>
 VINA RESULT:      -4.4      1.359      1.689
  Name = 
  5 active torsions:
  status: ('A' for Active; 'I' for Inactive)
    1  A    between atoms: C_2  and  N_12
    2  A    between atoms: C_2  and  C_23
    3  A    between atoms: C_4  and  C_14
    4  A    between atoms: C_8  and  C_14
    5  A    between atoms: C_23  and  C_25
                            x       y       z     vdW  Elec       q    Type
                         _______ _______ _______ _____ _____    ______ ____

>  <TORSDO>
F 5

$$$$
=
 OpenBabel11072413573D

 29 32  0  0  1  0  0  0  0  0999 V2000
  160.8310  207.2010  153.6180 C   0  0  1  0  0  3  0  0  0  0  0  0
  160.2380  207.3200  155.9770 N   0  0  0  0  0  1  0  0  0  0  0  0
  161.7540  204.3990  151.7240 C   0  0  0  0  0  0  0  0  0  0  0  0
  160.1770  211.2240  153.7130 C   0  0  0  0  0  0  0  0  0  0  0  0
  160.9130  209.2400  152.2520 N   0  0  0  0  0  0  0  0  0  0  0  0
  161.5330  207.9200  152.4670 C   0  0  2  0  0  3  0  0  0  0  0  0
  161.5830  206.8670  151.3410 C   0  0  2  0  0  0  0  0  0  0  0  0
  161.9490  203.2540  151.2940 O   0  0  0  0  0  0  0  0  0  0  0  0
  160.3180  210.2640  155.6610 N   0  0  0  0  0  0  0  0  0  0  0  0
  159.9200  212.2290  152.7380 N   0  0  0  0  0  1  0  0  0  0  0  0
  160.5960  209.9370  153.4740 C   0  0  0  0  0  0  0  0  0  0  0  0
  161.2430  205.8580  153.5070 O   0  0  0  0  0  0  0  0  0  0  0  0
  160.6590  209.3560  154.7240 C   0  0  0  0  0  0  0  0  0  0  0  0
  161.5470  205.6070  152.1760 C   0  0  0  0  0  0  0  0  0  0  0  0
  160.0180  211.4030  155.0410 N   0  0  0  0  0  2  0  0  0  0  0  0
  161.0710  207.9180  154.9480 C   0  0  2  0  0  3  0  0  0  0  0  0
  162.8070  207.6100  149.3880 O   0  0  0  0  0  1  0  0  0  0  0  0
  162.9220  206.9370  150.6050 C   0  0  0  0  0  2  0  0  0  0  0  0
  160.4080  206.9220  150.3450 C   0  0  0  0  0  2  0  0  0  0  0  0
  160.4560  205.8360  149.2770 C   0  0  0  0  0  1  0  0  0  0  0  0
  160.9530  209.9300  150.9670 C   0  0  0  0  0  2  0  0  0  0  0  0
  162.3190  210.5770  150.7540 C   0  0  0  0  0  2  0  0  0  0  0  0
  161.3850  212.6980  149.7380 C   0  0  0  0  0  2  0  0  0  0  0  0
  161.9560  210.8200  148.2610 C   0  0  0  0  0  2  0  0  0  0  0  0
  159.8840  213.9440  148.1660 C   0  0  0  0  0  1  0  0  0  0  0  0
  160.3680  212.5780  148.6230 C   0  0  1  0  0  3  0  0  0  0  0  0
  161.8060  212.5860  146.6890 O   0  0  0  0  0  1  0  0  0  0  0  0
  162.3380  211.5260  149.5560 C   0  0  2  0  0  3  0  0  0  0  0  0
  161.0350  211.7680  147.5210 C   0  0  1  0  0  3  0  0  0  0  0  0
  1 12  1  1  0  0  0
  1 16  1  0  0  0  0
  3 14  2  0  0  0  0
  4 15  1  0  0  0  0
  5 11  1  0  0  0  0
  6  5  1  6  0  0  0
  6  1  1  0  0  0  0
  7 19  1  6  0  0  0
  7 14  1  0  0  0  0
  7  6  1  0  0  0  0
  8  3  2  0  0  0  0
 10  4  1  0  0  0  0
 11  4  2  0  0  0  0
 11 13  1  0  0  0  0
 13 16  1  0  0  0  0
 13  9  2  0  0  0  0
 14 12  1  0  0  0  0
 15  9  1  0  0  0  0
 16  2  1  1  0  0  0
 17 18  1  0  0  0  0
 18  7  1  0  0  0  0
 20 19  1  0  0  0  0
 21  5  1  0  0  0  0
 22 21  1  0  0  0  0
 24 28  1  0  0  0  0
 26 25  1  6  0  0  0
 26 23  1  0  0  0  0
 28 23  1  0  0  0  0
 28 22  1  1  0  0  0
 29 27  1  6  0  0  0
 29 24  1  0  0  0  0
 29 26  1  0  0  0  0
M  END
>  <MODEL>
7

>  <REMARK>
 VINA RESULT:      -4.4      4.525      7.493
  Name = 
  5 active torsions:
  status: ('A' for Active; 'I' for Inactive)
    1  A    between atoms: C_2  and  N_12
    2  A    between atoms: C_2  and  C_23
    3  A    between atoms: C_4  and  C_14
    4  A    between atoms: C_8  and  C_14
    5  A    between atoms: C_23  and  C_25
                            x       y       z     vdW  Elec       q    Type
                         _______ _______ _______ _____ _____    ______ ____

>  <TORSDO>
F 5

$$$$
=
 OpenBabel11072413573D

 29 32  0  0  1  0  0  0  0  0999 V2000
  161.2580  207.2690  152.8600 C   0  0  1  0  0  3  0  0  0  0  0  0
  161.1180  204.9080  152.2780 N   0  0  0  0  0  1  0  0  0  0  0  0
  160.6310  208.8110  155.9470 C   0  0  0  0  0  0  0  0  0  0  0  0
  162.3180  207.7090  148.9490 C   0  0  0  0  0  0  0  0  0  0  0  0
  161.8330  208.9390  151.1540 N   0  0  0  0  0  0  0  0  0  0  0  0
  161.0270  208.6950  152.3640 C   0  0  2  0  0  3  0  0  0  0  0  0
  161.1970  209.5640  153.6270 C   0  0  2  0  0  0  0  0  0  0  0  0
  160.4430  209.0620  157.1440 O   0  0  0  0  0  0  0  0  0  0  0  0
  161.4820  205.7680  149.4670 N   0  0  0  0  0  0  0  0  0  0  0  0
  162.9740  208.7170  148.1870 N   0  0  0  0  0  1  0  0  0  0  0  0
  161.8440  207.8290  150.2330 C   0  0  2  0  0  3  0  0  0  0  0  0
  160.7450  207.2580  154.1730 O   0  0  0  0  0  0  0  0  0  0  0  0
  161.3370  206.5820  150.5330 C   0  0  0  0  0  0  0  0  0  0  0  0
  160.8310  208.5460  154.6820 C   0  0  0  0  0  0  0  0  0  0  0  0
  162.0870  206.4570  148.5020 N   0  0  0  0  0  0  0  0  0  0  0  0
  160.7120  206.2410  151.8670 C   0  0  2  0  0  3  0  0  0  0  0  0
  159.1060  210.4330  152.7680 O   0  0  0  0  0  1  0  0  0  0  0  0
  160.1620  210.6910  153.6430 C   0  0  0  0  0  2  0  0  0  0  0  0
  162.6170  210.1240  153.8470 C   0  0  0  0  0  2  0  0  0  0  0  0
  162.8420  210.7030  155.2380 C   0  0  0  0  0  1  0  0  0  0  0  0
  162.2650  210.2720  150.7500 C   0  0  0  0  0  2  0  0  0  0  0  0
  161.1210  211.0170  150.0650 C   0  0  0  0  0  2  0  0  0  0  0  0
  160.4190  213.0920  148.7990 C   0  0  0  0  0  2  0  0  0  0  0  0
  162.5730  212.0390  148.2610 C   0  0  0  0  0  2  0  0  0  0  0  0
  160.1510  214.4430  146.7070 C   0  0  0  0  0  1  0  0  0  0  0  0
  160.6750  213.1490  147.3080 C   0  0  1  0  0  3  0  0  0  0  0  0
  162.8600  214.1660  147.2570 O   0  0  0  0  0  1  0  0  0  0  0  0
  161.5820  212.3070  149.3880 C   0  0  2  0  0  3  0  0  0  0  0  0
  162.1730  212.9550  147.1230 C   0  0  1  0  0  3  0  0  0  0  0  0
  1 12  1  1  0  0  0
  3  8  2  0  0  0  0
  6  5  1  6  0  0  0
  6  1  1  0  0  0  0
  6  7  1  0  0  0  0
  7 18  1  6  0  0  0
  7 19  1  0  0  0  0
  7 14  1  0  0  0  0
  9 13  2  0  0  0  0
 10  4  1  0  0  0  0
 11  4  1  1  0  0  0
 11 13  1  0  0  0  0
 11  5  1  0  0  0  0
 12 14  1  0  0  0  0
 13 16  1  0  0  0  0
 14  3  2  0  0  0  0
 15  4  2  0  0  0  0
 15  9  1  0  0  0  0
 16  2  1  1  0  0  0
 16  1  1  0  0  0  0
 17 18  1  0  0  0  0
 19 20  1  0  0  0  0
 21  5  1  0  0  0  0
 22 21  1  0  0  0  0
 23 28  1  0  0  0  0
 24 28  1  0  0  0  0
 26 25  1  1  0  0  0
 26 23  1  0  0  0  0
 28 22  1  6  0  0  0
 29 27  1  1  0  0  0
 29 26  1  0  0  0  0
 29 24  1  0  0  0  0
M  END
>  <MODEL>
8

>  <REMARK>
 VINA RESULT:      -4.4      4.435      7.945
  Name = 
  5 active torsions:
  status: ('A' for Active; 'I' for Inactive)
    1  A    between atoms: C_2  and  N_12
    2  A    between atoms: C_2  and  C_23
    3  A    between atoms: C_4  and  C_14
    4  A    between atoms: C_8  and  C_14
    5  A    between atoms: C_23  and  C_25
                            x       y       z     vdW  Elec       q    Type
                         _______ _______ _______ _____ _____    ______ ____

>  <TORSDO>
F 5

$$$$
=
 OpenBabel11072413573D

 29 32  0  0  1  0  0  0  0  0999 V2000
  161.5200  207.3100  152.6750 C   0  0  1  0  0  3  0  0  0  0  0  0
  162.0490  205.5730  151.0500 N   0  0  0  0  0  1  0  0  0  0  0  0
  160.7960  206.9760  156.0890 C   0  0  0  0  0  0  0  0  0  0  0  0
  161.9530  209.8030  149.4790 C   0  0  0  0  0  0  0  0  0  0  0  0
  161.3610  209.6590  151.9760 N   0  0  0  0  0  0  0  0  0  0  0  0
  160.8080  208.6440  152.8920 C   0  0  2  0  0  3  0  0  0  0  0  0
  160.8420  208.8430  154.4210 C   0  0  2  0  0  0  0  0  0  0  0  0
  160.6730  206.5770  157.2540 O   0  0  0  0  0  0  0  0  0  0  0  0
  161.8180  207.6880  148.9880 N   0  0  0  0  0  0  0  0  0  0  0  0
  162.1780  211.1980  149.3090 N   0  0  0  0  0  1  0  0  0  0  0  0
  161.6100  209.1630  150.6450 C   0  0  2  0  0  3  0  0  0  0  0  0
  161.1840  206.5350  153.8030 O   0  0  0  0  0  0  0  0  0  0  0  0
  161.5480  207.8280  150.3020 C   0  0  0  0  0  0  0  0  0  0  0  0
  160.9260  207.3990  154.8590 C   0  0  0  0  0  0  0  0  0  0  0  0
  162.0700  208.8950  148.4880 N   0  0  0  0  0  0  0  0  0  0  0  0
  161.2100  206.7350  151.2910 C   0  0  2  0  0  3  0  0  0  0  0  0
  159.0320  208.7540  156.0270 O   0  0  0  0  0  1  0  0  0  0  0  0
  159.5190  209.4350  154.9110 C   0  0  0  0  0  2  0  0  0  0  0  0
  162.0360  209.6650  154.9450 C   0  0  0  0  0  2  0  0  0  0  0  0
  161.6420  210.7730  155.9130 C   0  0  0  0  0  1  0  0  0  0  0  0
  161.3150  211.0880  152.2640 C   0  0  0  0  0  2  0  0  0  0  0  0
  159.9130  211.6360  152.0090 C   0  0  0  0  0  2  0  0  0  0  0  0
  158.1470  211.5810  153.8200 C   0  0  0  0  0  2  0  0  0  0  0  0
  158.8470  213.7500  152.9050 C   0  0  0  0  0  2  0  0  0  0  0  0
  155.9790  212.3100  154.8440 C   0  0  0  0  0  1  0  0  0  0  0  0
  156.9560  212.5090  153.6970 C   0  0  1  0  0  3  0  0  0  0  0  0
  157.7590  214.4430  154.8920 O   0  0  0  0  0  1  0  0  0  0  0  0
  159.3260  212.3410  153.2310 C   0  0  2  0  0  3  0  0  0  0  0  0
  157.5220  213.9200  153.6170 C   0  0  1  0  0  3  0  0  0  0  0  0
  1  6  1  0  0  0  0
  1 12  1  1  0  0  0
  3  8  2  0  0  0  0
  5 21  1  0  0  0  0
  6  5  1  6  0  0  0
  6  7  1  0  0  0  0
  7 14  1  0  0  0  0
  7 18  1  1  0  0  0
  7 19  1  0  0  0  0
  9 13  2  0  0  0  0
 10  4  1  0  0  0  0
 11  4  1  1  0  0  0
 11  5  1  0  0  0  0
 12 14  1  0  0  0  0
 13 11  1  0  0  0  0
 13 16  1  0  0  0  0
 14  3  2  0  0  0  0
 15  9  1  0  0  0  0
 15  4  2  0  0  0  0
 16  2  1  6  0  0  0
 16  1  1  0  0  0  0
 18 17  1  0  0  0  0
 19 20  1  0  0  0  0
 22 21  1  0  0  0  0
 24 28  1  0  0  0  0
 24 29  1  0  0  0  0
 26 23  1  0  0  0  0
 26 25  1  1  0  0  0
 28 22  1  6  0  0  0
 28 23  1  0  0  0  0
 29 26  1  0  0  0  0
 29 27  1  1  0  0  0
M  END
>  <MODEL>
9

>  <REMARK>
 VINA RESULT:      -3.7      4.925      8.192
  Name = 
  5 active torsions:
  status: ('A' for Active; 'I' for Inactive)
    1  A    between atoms: C_2  and  N_12
    2  A    between atoms: C_2  and  C_23
    3  A    between atoms: C_4  and  C_14
    4  A    between atoms: C_8  and  C_14
    5  A    between atoms: C_23  and  C_25
                            x       y       z     vdW  Elec       q    Type
                         _______ _______ _______ _____ _____    ______ ____

>  <TORSDO>
F 5

$$$$
