=
 OpenBabel11072415183D

 58 64  0  0  1  0  0  0  0  0999 V2000
  162.0200  214.3730  149.8890 O   0  0  0  0  0  0  0  0  0  0  0  0
  161.7430  213.1950  149.5390 C   0  0  0  0  0  0  0  0  0  0  0  0
  161.5400  210.3580  148.2170 C   0  0  0  0  0  0  0  0  0  0  0  0
  161.8000  211.0100  150.7240 C   0  0  0  0  0  2  0  0  0  0  0  0
  161.5810  208.2620  148.4880 C   0  0  0  0  0  0  0  0  0  0  0  0
  162.0360  212.7670  148.2110 N   0  0  0  0  0  2  0  0  0  0  0  0
  161.2940  211.6880  147.5730 C   0  0  0  0  0  2  0  0  0  0  0  0
  161.1490  212.2870  150.4720 N   0  0  0  0  0  0  0  0  0  0  0  0
  161.4670  209.2030  147.5270 N   0  0  0  0  0  0  0  0  0  0  0  0
  161.7020  208.7700  149.6940 O   0  0  0  0  0  0  0  0  0  0  0  0
  161.6680  210.0700  149.5670 C   0  0  0  0  0  0  0  0  0  0  0  0
  162.1080  204.0780  151.2530 N   0  0  0  0  0  0  0  0  0  0  0  0
  160.6200  205.1350  146.4420 C   0  0  0  0  0  2  0  0  0  0  0  0
  161.5620  206.7940  148.2010 C   0  0  1  0  0  3  0  0  0  0  0  0
  161.4800  202.9300  146.1640 O   0  0  0  0  0  1  0  0  0  0  0  0
  161.4050  206.4530  150.7370 C   0  0  2  0  0  3  0  0  0  0  0  0
  161.7790  204.1740  146.7170 C   0  0  2  0  0  3  0  0  0  0  0  0
  160.9060  205.9800  149.3470 C   0  0  2  0  0  3  0  0  0  0  0  0
  160.9230  206.5850  146.8200 C   0  0  0  0  0  2  0  0  0  0  0  0
  162.3570  205.4800  151.3710 C   0  0  0  0  0  0  0  0  0  0  0  0
  162.0960  203.9990  148.2090 C   0  0  0  0  0  2  0  0  0  0  0  0
  160.9560  203.6570  150.4550 C   0  0  1  0  0  3  0  0  0  0  0  0
  160.9410  204.4300  149.1280 C   0  0  1  0  0  3  0  0  0  0  0  0
  163.3520  205.9010  152.0180 O   0  0  0  0  0  0  0  0  0  0  0  0
  162.9760  203.1820  151.7810 O   0  0  0  0  0  1  0  0  0  0  0  0
  160.9040  202.1440  150.2500 C   0  0  0  0  0  3  0  0  0  0  0  0
  159.5200  201.6370  150.6080 C   0  0  0  0  0  2  0  0  0  0  0  0
  159.9060  201.8190  149.1560 C   0  0  0  0  0  2  0  0  0  0  0  0
  160.2050  206.7040  151.6390 C   0  0  0  0  0  2  0  0  0  0  0  0
  160.4720  206.2050  153.0500 C   0  0  0  0  0  2  0  0  0  0  0  0
  161.2000  209.5140  155.6800 C   0  0  0  0  0  3  0  0  0  0  0  0
  160.6960  207.3620  153.9600 C   0  0  0  0  0  0  0  0  0  0  0  0
  160.7640  208.2900  156.1990 C   0  0  0  0  0  3  0  0  0  0  0  0
  160.5150  207.2140  155.3410 C   0  0  0  0  0  3  0  0  0  0  0  0
  161.3880  209.6620  154.3010 C   0  0  0  0  0  3  0  0  0  0  0  0
  161.1400  208.5860  153.4420 C   0  0  0  0  0  3  0  0  0  0  0  0
  160.0940  212.7450  151.3680 C   0  0  0  0  0  2  0  0  0  0  0  0
  158.7350  212.2980  150.8530 C   0  0  0  0  0  2  0  0  0  0  0  0
  157.7470  213.4550  150.8830 C   0  0  2  0  0  3  0  0  0  0  0  0
  157.6700  214.1900  149.5400 C   0  0  0  0  0  2  0  0  0  0  0  0
  156.2410  214.4510  149.0720 C   0  0  0  0  0  2  0  0  0  0  0  0
  158.2470  213.3590  147.3500 O   0  0  0  0  0  0  0  0  0  0  0  0
  157.2250  213.8680  146.8150 C   0  0  0  0  0  0  0  0  0  0  0  0
  156.1600  214.3730  147.6200 N   0  0  0  0  0  2  0  0  0  0  0  0
  157.1190  213.9170  145.3290 C   0  0  0  0  0  2  0  0  0  0  0  0
  158.4900  213.7880  144.6780 C   0  0  0  0  0  3  0  0  0  0  0  0
  158.4730  214.4520  143.3380 C   0  0  0  0  0  3  0  0  0  0  0  0
  158.9310  213.8860  142.3570 O   0  0  0  0  0  0  0  0  0  0  0  0
  158.8380  212.3430  144.5130 C   0  0  0  0  0  3  0  0  0  0  0  0
  159.9130  212.0150  144.0360 O   0  0  0  0  0  0  0  0  0  0  0  0
  158.0640  214.3960  152.0370 C   0  0  0  0  0  2  0  0  0  0  0  0
  156.9470  214.3570  153.0700 C   0  0  0  0  0  2  0  0  0  0  0  0
  156.3470  211.1810  155.0400 C   0  0  0  0  0  3  0  0  0  0  0  0
  157.5400  211.0760  155.7620 C   0  0  0  0  0  3  0  0  0  0  0  0
  156.1550  212.2520  154.1610 C   0  0  0  0  0  3  0  0  0  0  0  0
  158.3500  213.1090  154.7280 C   0  0  0  0  0  3  0  0  0  0  0  0
  157.1540  213.2190  154.0060 C   0  0  0  0  0  0  0  0  0  0  0  0
  158.5410  212.0380  155.6050 C   0  0  0  0  0  3  0  0  0  0  0  0
  2  1  2  0  0  0  0
  2  8  1  0  0  0  0
  3 11  2  0  0  0  0
  5 10  1  0  0  0  0
  6  2  1  0  0  0  0
  7  6  1  0  0  0  0
  7  3  1  0  0  0  0
  8  4  1  0  0  0  0
  8 37  1  0  0  0  0
  9  3  1  0  0  0  0
  9  5  2  0  0  0  0
 11 10  1  0  0  0  0
 11  4  1  0  0  0  0
 12 20  1  0  0  0  0
 12 25  1  0  0  0  0
 13 17  1  0  0  0  0
 13 19  1  0  0  0  0
 14  5  1  1  0  0  0
 14 18  1  0  0  0  0
 16 20  1  0  0  0  0
 16 29  1  1  0  0  0
 17 15  1  1  0  0  0
 17 21  1  0  0  0  0
 18 16  1  0  0  0  0
 19 14  1  0  0  0  0
 20 24  2  0  0  0  0
 21 23  1  0  0  0  0
 22 12  1  0  0  0  0
 23 18  1  0  0  0  0
 23 22  1  0  0  0  0
 26 22  1  0  0  0  0
 26 27  1  0  0  0  0
 28 26  1  0  0  0  0
 28 27  1  0  0  0  0
 29 30  1  0  0  0  0
 30 32  1  0  0  0  0
 31 33  1  0  0  0  0
 32 34  1  0  0  0  0
 34 33  2  0  0  0  0
 35 31  2  0  0  0  0
 36 32  2  0  0  0  0
 36 35  1  0  0  0  0
 38 39  1  0  0  0  0
 38 37  1  0  0  0  0
 39 51  1  0  0  0  0
 40 39  1  0  0  0  0
 41 40  1  0  0  0  0
 43 42  2  0  0  0  0
 43 44  1  0  0  0  0
 44 41  1  0  0  0  0
 45 43  1  0  0  0  0
 46 45  1  0  0  0  0
 47 46  1  0  0  0  0
 48 47  2  0  0  0  0
 49 46  1  0  0  0  0
 50 49  2  0  0  0  0
 51 52  1  0  0  0  0
 52 57  1  0  0  0  0
 53 54  1  0  0  0  0
 55 53  2  0  0  0  0
 56 58  1  0  0  0  0
 57 55  1  0  0  0  0
 57 56  2  0  0  0  0
 58 54  2  0  0  0  0
M  END
>  <MODEL>
1

>  <REMARK>
 VINA RESULT:      -2.8      0.000      0.000
  Name = 
  18 active torsions:
  status: ('A' for Active; 'I' for Inactive)
    1  A    between atoms: C_1  and  C_13
    2  A    between atoms: C_4  and  C_41
    3  A    between atoms: C_7  and  C_10
    4  A    between atoms: C_7  and  C_46
    5  A    between atoms: C_7  and  C_47
    6  A    between atoms: C_10  and  C_54
    7  A    between atoms: C_12  and  C_33
    8  A    between atoms: C_13  and  C_31
    9  A    between atoms: C_13  and  C_39
   10  A    between atoms: C_14  and  C_31
   11  A    between atoms: C_18  and  C_56
   12  A    between atoms: C_19  and  C_24
   13  A    between atoms: C_24  and  C_56
   14  A    between atoms: C_26  and  C_54
   15  A    between atoms: C_28  and  N_43
   16  A    between atoms: C_28  and  C_47
   17  A    between atoms: N_38  and  C_40
   18  A    between atoms: C_40  and  C_46
                            x       y       z     vdW  Elec       q    Type
                         _______ _______ _______ _____ _____    ______ ____

>  <TORSDO>
F 18

$$$$
=
 OpenBabel11072415183D

 58 64  0  0  1  0  0  0  0  0999 V2000
  163.0980  204.8920  145.8140 O   0  0  0  0  0  0  0  0  0  0  0  0
  162.5900  205.1420  146.9400 C   0  0  0  0  0  0  0  0  0  0  0  0
  161.7730  205.3160  149.9630 C   0  0  0  0  0  0  0  0  0  0  0  0
  162.3970  207.2170  148.2960 C   0  0  0  0  0  2  0  0  0  0  0  0
  161.4850  206.5430  151.6600 C   0  0  0  0  0  0  0  0  0  0  0  0
  162.6670  204.1690  147.9790 N   0  0  0  0  0  2  0  0  0  0  0  0
  161.6900  204.1230  149.0590 C   0  0  0  0  0  2  0  0  0  0  0  0
  161.9510  206.3990  147.1780 N   0  0  0  0  0  0  0  0  0  0  0  0
  161.4340  205.2540  151.2650 N   0  0  0  0  0  0  0  0  0  0  0  0
  161.8150  207.3660  150.6890 O   0  0  0  0  0  0  0  0  0  0  0  0
  161.9890  206.6400  149.6160 C   0  0  0  0  0  0  0  0  0  0  0  0
  162.2430  210.7640  154.3120 N   0  0  0  0  0  0  0  0  0  0  0  0
  159.5560  206.4300  155.0000 C   0  0  0  0  0  2  0  0  0  0  0  0
  161.1870  206.9830  153.0580 C   0  0  1  0  0  3  0  0  0  0  0  0
  159.9960  207.0410  157.2610 O   0  0  0  0  0  1  0  0  0  0  0  0
  161.7410  209.3570  152.2700 C   0  0  2  0  0  3  0  0  0  0  0  0
  160.6070  206.8780  156.0190 C   0  0  2  0  0  3  0  0  0  0  0  0
  160.7960  208.4820  153.1320 C   0  0  2  0  0  3  0  0  0  0  0  0
  160.1470  206.0190  153.6510 C   0  0  0  0  0  2  0  0  0  0  0  0
  162.7000  210.1630  153.0990 C   0  0  0  0  0  0  0  0  0  0  0  0
  161.3240  208.1800  155.6360 C   0  0  0  0  0  2  0  0  0  0  0  0
  160.8620  210.5070  154.7210 C   0  0  1  0  0  3  0  0  0  0  0  0
  160.5590  209.0070  154.5880 C   0  0  1  0  0  3  0  0  0  0  0  0
  163.8880  210.3230  152.7140 O   0  0  0  0  0  0  0  0  0  0  0  0
  163.1010  211.4590  155.0970 O   0  0  0  0  0  1  0  0  0  0  0  0
  160.5510  211.0440  156.1160 C   0  0  0  0  0  3  0  0  0  0  0  0
  160.0220  212.4610  156.0020 C   0  0  0  0  0  2  0  0  0  0  0  0
  159.0630  211.3120  156.2320 C   0  0  0  0  0  2  0  0  0  0  0  0
  160.9050  210.2620  151.3750 C   0  0  0  0  0  2  0  0  0  0  0  0
  161.7740  210.9500  150.3350 C   0  0  0  0  0  2  0  0  0  0  0  0
  159.6230  214.2750  148.6850 C   0  0  0  0  0  3  0  0  0  0  0  0
  161.0500  212.1220  149.7700 C   0  0  0  0  0  0  0  0  0  0  0  0
  160.4900  213.5320  147.8770 C   0  0  0  0  0  3  0  0  0  0  0  0
  161.2000  212.4540  148.4170 C   0  0  0  0  0  3  0  0  0  0  0  0
  159.4670  213.9410  150.0360 C   0  0  0  0  0  3  0  0  0  0  0  0
  160.1760  212.8640  150.5760 C   0  0  0  0  0  3  0  0  0  0  0  0
  161.0870  206.9850  146.1590 C   0  0  0  0  0  2  0  0  0  0  0  0
  160.1170  205.9420  145.6270 C   0  0  0  0  0  2  0  0  0  0  0  0
  160.7670  205.1270  144.5190 C   0  0  2  0  0  3  0  0  0  0  0  0
  160.6400  205.8030  143.1480 C   0  0  0  0  0  2  0  0  0  0  0  0
  161.9850  206.1570  142.5190 C   0  0  0  0  0  2  0  0  0  0  0  0
  163.0370  205.6090  139.9160 O   0  0  0  0  0  0  0  0  0  0  0  0
  162.3930  206.6810  140.0780 C   0  0  0  0  0  0  0  0  0  0  0  0
  161.7900  206.9840  141.3360 N   0  0  0  0  0  2  0  0  0  0  0  0
  162.2410  207.6290  138.9370 C   0  0  0  0  0  2  0  0  0  0  0  0
  161.4570  208.8670  139.3550 C   0  0  0  0  0  3  0  0  0  0  0  0
  160.3990  209.1560  138.3380 C   0  0  0  0  0  3  0  0  0  0  0  0
  159.5330  208.3310  138.0890 O   0  0  0  0  0  0  0  0  0  0  0  0
  162.3790  210.0390  139.4620 C   0  0  0  0  0  3  0  0  0  0  0  0
  162.9770  210.2630  140.5010 O   0  0  0  0  0  0  0  0  0  0  0  0
  160.2230  203.7050  144.5130 C   0  0  0  0  0  2  0  0  0  0  0  0
  160.1090  203.1800  145.9360 C   0  0  0  0  0  2  0  0  0  0  0  0
  160.5530  199.5420  144.9900 C   0  0  0  0  0  3  0  0  0  0  0  0
  161.2830  199.0600  146.0810 C   0  0  0  0  0  3  0  0  0  0  0  0
  160.1710  200.8870  144.9430 C   0  0  0  0  0  3  0  0  0  0  0  0
  161.2510  201.2660  147.0790 C   0  0  0  0  0  3  0  0  0  0  0  0
  160.5160  201.7500  145.9890 C   0  0  0  0  0  0  0  0  0  0  0  0
  161.6330  199.9220  147.1240 C   0  0  0  0  0  3  0  0  0  0  0  0
  1  2  2  0  0  0  0
  2  8  1  0  0  0  0
  2  6  1  0  0  0  0
  3  9  1  0  0  0  0
  4 11  1  0  0  0  0
  6  7  1  0  0  0  0
  7  3  1  0  0  0  0
  8  4  1  0  0  0  0
  9  5  2  0  0  0  0
 10  5  1  0  0  0  0
 11  3  2  0  0  0  0
 11 10  1  0  0  0  0
 12 22  1  0  0  0  0
 12 25  1  0  0  0  0
 13 17  1  0  0  0  0
 14  5  1  6  0  0  0
 14 18  1  0  0  0  0
 14 19  1  0  0  0  0
 16 29  1  1  0  0  0
 16 20  1  0  0  0  0
 16 18  1  0  0  0  0
 17 15  1  1  0  0  0
 18 23  1  0  0  0  0
 19 13  1  0  0  0  0
 20 12  1  0  0  0  0
 21 17  1  0  0  0  0
 22 26  1  0  0  0  0
 23 22  1  0  0  0  0
 23 21  1  0  0  0  0
 24 20  2  0  0  0  0
 26 28  1  0  0  0  0
 27 26  1  0  0  0  0
 27 28  1  0  0  0  0
 30 29  1  0  0  0  0
 31 35  1  0  0  0  0
 32 30  1  0  0  0  0
 32 36  1  0  0  0  0
 33 34  1  0  0  0  0
 33 31  2  0  0  0  0
 34 32  2  0  0  0  0
 35 36  2  0  0  0  0
 37  8  1  0  0  0  0
 38 37  1  0  0  0  0
 39 38  1  0  0  0  0
 40 39  1  0  0  0  0
 41 40  1  0  0  0  0
 42 43  2  0  0  0  0
 43 44  1  0  0  0  0
 44 41  1  0  0  0  0
 45 46  1  0  0  0  0
 45 43  1  0  0  0  0
 46 49  1  0  0  0  0
 47 46  1  0  0  0  0
 48 47  2  0  0  0  0
 49 50  2  0  0  0  0
 51 39  1  0  0  0  0
 51 52  1  0  0  0  0
 52 57  1  0  0  0  0
 53 54  1  0  0  0  0
 54 58  2  0  0  0  0
 55 53  2  0  0  0  0
 55 57  1  0  0  0  0
 56 58  1  0  0  0  0
 57 56  2  0  0  0  0
M  END
>  <MODEL>
2

>  <REMARK>
 VINA RESULT:      -0.6      3.554      9.320
  Name = 
  18 active torsions:
  status: ('A' for Active; 'I' for Inactive)
    1  A    between atoms: C_1  and  C_13
    2  A    between atoms: C_4  and  C_41
    3  A    between atoms: C_7  and  C_10
    4  A    between atoms: C_7  and  C_46
    5  A    between atoms: C_7  and  C_47
    6  A    between atoms: C_10  and  C_54
    7  A    between atoms: C_12  and  C_33
    8  A    between atoms: C_13  and  C_31
    9  A    between atoms: C_13  and  C_39
   10  A    between atoms: C_14  and  C_31
   11  A    between atoms: C_18  and  C_56
   12  A    between atoms: C_19  and  C_24
   13  A    between atoms: C_24  and  C_56
   14  A    between atoms: C_26  and  C_54
   15  A    between atoms: C_28  and  N_43
   16  A    between atoms: C_28  and  C_47
   17  A    between atoms: N_38  and  C_40
   18  A    between atoms: C_40  and  C_46
                            x       y       z     vdW  Elec       q    Type
                         _______ _______ _______ _____ _____    ______ ____

>  <TORSDO>
F 18

$$$$
=
 OpenBabel11072415183D

 58 64  0  0  1  0  0  0  0  0999 V2000
  162.6770  213.8760  148.7640 O   0  0  0  0  0  0  0  0  0  0  0  0
  162.2950  212.6870  148.5950 C   0  0  0  0  0  0  0  0  0  0  0  0
  161.7940  209.7320  147.6730 C   0  0  0  0  0  0  0  0  0  0  0  0
  162.3320  210.6660  150.0430 C   0  0  0  0  0  2  0  0  0  0  0  0
  161.7320  207.6870  148.2090 C   0  0  0  0  0  0  0  0  0  0  0  0
  162.4330  212.0800  147.3120 N   0  0  0  0  0  2  0  0  0  0  0  0
  161.5680  210.9870  146.8860 C   0  0  0  0  0  2  0  0  0  0  0  0
  161.7400  211.9470  149.6850 N   0  0  0  0  0  0  0  0  0  0  0  0
  161.5840  208.5090  147.1480 N   0  0  0  0  0  0  0  0  0  0  0  0
  162.0000  208.3300  149.3230 O   0  0  0  0  0  0  0  0  0  0  0  0
  162.0330  209.6040  149.0320 C   0  0  0  0  0  0  0  0  0  0  0  0
  161.9770  203.8710  151.4950 N   0  0  0  0  0  0  0  0  0  0  0  0
  160.5030  204.4060  146.5930 C   0  0  0  0  0  2  0  0  0  0  0  0
  161.5960  206.2010  148.1160 C   0  0  1  0  0  3  0  0  0  0  0  0
  161.1880  202.1230  146.6030 O   0  0  0  0  0  1  0  0  0  0  0  0
  161.4510  206.2060  150.6750 C   0  0  2  0  0  3  0  0  0  0  0  0
  161.5900  203.4010  146.9870 C   0  0  2  0  0  3  0  0  0  0  0  0
  160.8970  205.5970  149.3620 C   0  0  2  0  0  3  0  0  0  0  0  0
  160.9230  205.8640  146.7770 C   0  0  0  0  0  2  0  0  0  0  0  0
  162.3340  205.2530  151.4280 C   0  0  0  0  0  0  0  0  0  0  0  0
  161.9140  203.3980  148.4880 C   0  0  0  0  0  2  0  0  0  0  0  0
  160.7840  203.4410  150.7640 C   0  0  1  0  0  3  0  0  0  0  0  0
  160.8090  204.0340  149.3470 C   0  0  1  0  0  3  0  0  0  0  0  0
  163.3680  205.6750  152.0100 O   0  0  0  0  0  0  0  0  0  0  0  0
  162.7810  202.9860  152.1320 O   0  0  0  0  0  1  0  0  0  0  0  0
  160.6120  201.9230  150.7600 C   0  0  0  0  0  3  0  0  0  0  0  0
  159.1350  201.5850  150.6990 C   0  0  0  0  0  2  0  0  0  0  0  0
  159.9840  201.4920  149.4490 C   0  0  0  0  0  2  0  0  0  0  0  0
  160.2870  206.6660  151.5430 C   0  0  0  0  0  2  0  0  0  0  0  0
  160.4860  208.1000  152.0030 C   0  0  0  0  0  2  0  0  0  0  0  0
  161.3020  208.2160  156.2130 C   0  0  0  0  0  3  0  0  0  0  0  0
  160.7940  208.1240  153.4600 C   0  0  0  0  0  0  0  0  0  0  0  0
  161.8440  209.1910  155.3680 C   0  0  0  0  0  3  0  0  0  0  0  0
  161.5880  209.1470  153.9940 C   0  0  0  0  0  3  0  0  0  0  0  0
  160.5030  207.1960  155.6830 C   0  0  0  0  0  3  0  0  0  0  0  0
  160.2460  207.1520  154.3090 C   0  0  0  0  0  3  0  0  0  0  0  0
  160.8060  212.5870  150.6040 C   0  0  0  0  0  2  0  0  0  0  0  0
  159.6690  213.2370  149.8300 C   0  0  0  0  0  2  0  0  0  0  0  0
  159.0390  214.3540  150.6490 C   0  0  2  0  0  3  0  0  0  0  0  0
  159.6310  214.4480  152.0600 C   0  0  0  0  0  2  0  0  0  0  0  0
  158.5820  214.3610  153.1650 C   0  0  0  0  0  2  0  0  0  0  0  0
  156.2350  213.4320  154.5110 O   0  0  0  0  0  0  0  0  0  0  0  0
  157.1070  212.5790  154.1900 C   0  0  0  0  0  0  0  0  0  0  0  0
  158.2710  212.9690  153.4620 N   0  0  0  0  0  2  0  0  0  0  0  0
  156.9060  211.1470  154.5530 C   0  0  0  0  0  2  0  0  0  0  0  0
  157.1890  210.9130  156.0310 C   0  0  0  0  0  3  0  0  0  0  0  0
  156.4370  211.9140  156.8500 C   0  0  0  0  0  3  0  0  0  0  0  0
  155.2460  211.7610  157.0800 O   0  0  0  0  0  0  0  0  0  0  0  0
  158.6530  211.0530  156.2960 C   0  0  0  0  0  3  0  0  0  0  0  0
  159.3940  211.5200  155.4460 O   0  0  0  0  0  0  0  0  0  0  0  0
  157.5230  214.2110  150.6680 C   0  0  0  0  0  2  0  0  0  0  0  0
  157.1000  212.9930  149.8610 C   0  0  0  0  0  2  0  0  0  0  0  0
  155.9660  214.4480  146.5560 C   0  0  0  0  0  3  0  0  0  0  0  0
  156.9540  213.9670  145.6900 C   0  0  0  0  0  3  0  0  0  0  0  0
  156.0150  214.1290  147.9170 C   0  0  0  0  0  3  0  0  0  0  0  0
  158.0400  212.8520  147.5440 C   0  0  0  0  0  3  0  0  0  0  0  0
  157.0500  213.3290  148.4130 C   0  0  0  0  0  0  0  0  0  0  0  0
  157.9910  213.1710  146.1850 C   0  0  0  0  0  3  0  0  0  0  0  0
  2  1  2  0  0  0  0
  2  8  1  0  0  0  0
  3 11  2  0  0  0  0
  5 10  1  0  0  0  0
  6  2  1  0  0  0  0
  7  6  1  0  0  0  0
  7  3  1  0  0  0  0
  8  4  1  0  0  0  0
  8 37  1  0  0  0  0
  9  3  1  0  0  0  0
  9  5  2  0  0  0  0
 11 10  1  0  0  0  0
 11  4  1  0  0  0  0
 12 25  1  0  0  0  0
 13 19  1  0  0  0  0
 13 17  1  0  0  0  0
 14  5  1  1  0  0  0
 14 18  1  0  0  0  0
 16 20  1  0  0  0  0
 16 29  1  1  0  0  0
 17 15  1  1  0  0  0
 17 21  1  0  0  0  0
 18 16  1  0  0  0  0
 19 14  1  0  0  0  0
 20 12  1  0  0  0  0
 20 24  2  0  0  0  0
 21 23  1  0  0  0  0
 22 12  1  0  0  0  0
 23 18  1  0  0  0  0
 23 22  1  0  0  0  0
 26 22  1  0  0  0  0
 27 26  1  0  0  0  0
 28 27  1  0  0  0  0
 28 26  1  0  0  0  0
 29 30  1  0  0  0  0
 30 32  1  0  0  0  0
 32 34  2  0  0  0  0
 32 36  1  0  0  0  0
 33 31  2  0  0  0  0
 34 33  1  0  0  0  0
 35 31  1  0  0  0  0
 36 35  2  0  0  0  0
 38 37  1  0  0  0  0
 38 39  1  0  0  0  0
 39 51  1  0  0  0  0
 39 40  1  0  0  0  0
 40 41  1  0  0  0  0
 41 44  1  0  0  0  0
 43 42  2  0  0  0  0
 43 45  1  0  0  0  0
 44 43  1  0  0  0  0
 45 46  1  0  0  0  0
 46 49  1  0  0  0  0
 46 47  1  0  0  0  0
 47 48  2  0  0  0  0
 50 49  2  0  0  0  0
 52 51  1  0  0  0  0
 53 55  1  0  0  0  0
 54 58  1  0  0  0  0
 54 53  2  0  0  0  0
 55 57  2  0  0  0  0
 56 57  1  0  0  0  0
 57 52  1  0  0  0  0
 58 56  2  0  0  0  0
M  END
>  <MODEL>
3

>  <REMARK>
 VINA RESULT:      -0.2      2.165      5.236
  Name = 
  18 active torsions:
  status: ('A' for Active; 'I' for Inactive)
    1  A    between atoms: C_1  and  C_13
    2  A    between atoms: C_4  and  C_41
    3  A    between atoms: C_7  and  C_10
    4  A    between atoms: C_7  and  C_46
    5  A    between atoms: C_7  and  C_47
    6  A    between atoms: C_10  and  C_54
    7  A    between atoms: C_12  and  C_33
    8  A    between atoms: C_13  and  C_31
    9  A    between atoms: C_13  and  C_39
   10  A    between atoms: C_14  and  C_31
   11  A    between atoms: C_18  and  C_56
   12  A    between atoms: C_19  and  C_24
   13  A    between atoms: C_24  and  C_56
   14  A    between atoms: C_26  and  C_54
   15  A    between atoms: C_28  and  N_43
   16  A    between atoms: C_28  and  C_47
   17  A    between atoms: N_38  and  C_40
   18  A    between atoms: C_40  and  C_46
                            x       y       z     vdW  Elec       q    Type
                         _______ _______ _______ _____ _____    ______ ____

>  <TORSDO>
F 18

$$$$
