=
 OpenBabel11072413483D

 29 31  0  0  1  0  0  0  0  0999 V2000
  160.9820  206.0690  151.4090 C   0  0  0  0  0  0  0  0  0  0  0  0
  160.6460  205.4700  150.2720 C   0  0  0  0  0  0  0  0  0  0  0  0
  160.1980  206.1580  149.0230 C   0  0  0  0  0  1  0  0  0  0  0  0
  161.4980  203.8230  151.5870 C   0  0  0  0  0  3  0  0  0  0  0  0
  161.5850  205.0990  152.3620 C   0  0  0  0  0  2  0  0  0  0  0  0
  160.9620  204.0500  150.3960 C   0  0  0  0  0  0  0  0  0  0  0  0
  161.9390  208.4260  151.2740 C   0  0  0  0  0  0  0  0  0  0  0  0
  162.8300  208.1180  150.4390 O   0  0  0  0  0  0  0  0  0  0  0  0
  160.9400  207.4790  151.6650 N   0  0  0  0  0  2  0  0  0  0  0  0
  161.8690  209.8220  151.7930 C   0  0  0  0  0  2  0  0  0  0  0  0
  160.9340  209.9240  152.9910 C   0  0  0  0  0  0  0  0  0  0  0  0
  161.6680  210.3960  154.2260 C   0  0  0  0  0  2  0  0  0  0  0  0
  161.1540  208.9670  154.1460 C   0  0  0  0  0  2  0  0  0  0  0  0
  159.5780  210.6050  152.8540 C   0  0  0  0  0  2  0  0  0  0  0  0
  159.6990  212.0890  152.8020 C   0  0  0  0  0  0  0  0  0  0  0  0
  160.0510  212.6490  151.7340 O   0  0  0  0  0  0  0  0  0  0  0  0
  159.4100  212.8600  153.9180 O   0  0  0  0  0  1  0  0  0  0  0  0
  160.7300  202.9930  149.3930 C   0  0  0  0  0  0  0  0  0  0  0  0
  159.7500  202.2080  149.5300 O   0  0  0  0  0  0  0  0  0  0  0  0
  161.8860  204.1570  147.5330 C   0  0  0  0  0  3  0  0  0  0  0  0
  161.0000  202.0180  147.1350 C   0  0  0  0  0  3  0  0  0  0  0  0
  160.4030  202.3090  144.8360 O   0  0  0  0  0  1  0  0  0  0  0  0
  161.4730  204.0760  146.2760 C   0  0  0  0  0  0  0  0  0  0  0  0
  160.9330  202.7540  146.0410 C   0  0  0  0  0  0  0  0  0  0  0  0
  161.6430  202.8390  148.2130 C   0  0  2  0  0  3  0  0  0  0  0  0
  160.4860  206.0650  145.4970 F   0  0  0  0  0  0  0  0  0  0  0  0
  162.7280  205.8540  145.3860 F   0  0  0  0  0  0  0  0  0  0  0  0
  161.5260  205.1810  145.2680 C   0  0  0  0  0  0  0  0  0  0  0  0
  161.4180  204.6830  143.9820 F   0  0  0  0  0  0  0  0  0  0  0  0
  1  9  1  0  0  0  0
  1  5  1  0  0  0  0
  2  6  1  0  0  0  0
  2  1  2  0  0  0  0
  3  2  1  0  0  0  0
  4  5  1  0  0  0  0
  6  4  2  0  0  0  0
  7  9  1  0  0  0  0
  7 10  1  0  0  0  0
  8  7  2  0  0  0  0
 10 11  1  0  0  0  0
 11 13  1  0  0  0  0
 11 12  1  0  0  0  0
 13 12  1  0  0  0  0
 14 11  1  0  0  0  0
 15 14  1  0  0  0  0
 15 17  1  0  0  0  0
 16 15  2  0  0  0  0
 18 19  2  0  0  0  0
 18  6  1  0  0  0  0
 20 25  1  0  0  0  0
 21 25  1  0  0  0  0
 22 24  1  0  0  0  0
 23 20  2  0  0  0  0
 24 23  1  0  0  0  0
 24 21  2  0  0  0  0
 25 18  1  1  0  0  0
 28 27  1  0  0  0  0
 28 26  1  0  0  0  0
 28 23  1  0  0  0  0
 29 28  1  0  0  0  0
M  END
>  <MODEL>
1

>  <REMARK>
 VINA RESULT:      -9.0      0.000      0.000
  Name = 
  8 active torsions:
  status: ('A' for Active; 'I' for Inactive)
    1  A    between atoms: C_1  and  C_27
    2  A    between atoms: C_3  and  N_18
    3  A    between atoms: C_7  and  C_8
    4  A    between atoms: C_7  and  C_27
    5  A    between atoms: C_8  and  C_17
    6  A    between atoms: C_12  and  C_22
    7  A    between atoms: C_12  and  C_28
    8  A    between atoms: C_14  and  C_15
                            x       y       z     vdW  Elec       q    Type
                         _______ _______ _______ _____ _____    ______ ____

>  <TORSDO>
F 8

$$$$
=
 OpenBabel11072413483D

 29 31  0  0  1  0  0  0  0  0999 V2000
  161.2120  205.5340  151.7280 C   0  0  0  0  0  0  0  0  0  0  0  0
  161.1350  204.2580  151.3630 C   0  0  1  0  0  3  0  0  0  0  0  0
  161.1210  203.0860  152.2900 C   0  0  0  0  0  1  0  0  0  0  0  0
  160.7970  205.4480  149.4550 C   0  0  0  0  0  3  0  0  0  0  0  0
  160.9800  206.4330  150.5650 C   0  0  0  0  0  3  0  0  0  0  0  0
  160.8870  204.2110  149.9240 C   0  0  0  0  0  0  0  0  0  0  0  0
  161.1360  207.3770  153.4830 C   0  0  0  0  0  0  0  0  0  0  0  0
  160.5840  208.2130  152.7190 O   0  0  0  0  0  0  0  0  0  0  0  0
  161.3340  206.0220  153.0690 N   0  0  0  0  0  2  0  0  0  0  0  0
  161.5050  207.7830  154.8690 C   0  0  0  0  0  2  0  0  0  0  0  0
  160.2730  208.1240  155.6960 C   0  0  0  0  0  0  0  0  0  0  0  0
  160.3290  207.4820  157.0640 C   0  0  0  0  0  2  0  0  0  0  0  0
  159.3150  207.0010  156.0380 C   0  0  0  0  0  2  0  0  0  0  0  0
  159.7720  209.5610  155.7760 C   0  0  0  0  0  2  0  0  0  0  0  0
  160.8710  210.5490  155.5860 C   0  0  0  0  0  0  0  0  0  0  0  0
  160.9700  211.1710  154.4990 O   0  0  0  0  0  0  0  0  0  0  0  0
  161.7770  210.8010  156.6050 O   0  0  0  0  0  1  0  0  0  0  0  0
  160.7620  203.0080  149.0790 C   0  0  0  0  0  0  0  0  0  0  0  0
  159.9470  202.1010  149.4050 O   0  0  0  0  0  0  0  0  0  0  0  0
  161.8830  204.1800  147.2030 C   0  0  0  0  0  3  0  0  0  0  0  0
  160.8280  202.1270  146.7690 C   0  0  0  0  0  3  0  0  0  0  0  0
  160.1160  202.5660  144.5260 O   0  0  0  0  0  1  0  0  0  0  0  0
  161.3910  204.1870  145.9720 C   0  0  0  0  0  0  0  0  0  0  0  0
  160.7470  202.9170  145.7140 C   0  0  0  0  0  0  0  0  0  0  0  0
  161.5900  202.8510  147.8390 C   0  0  2  0  0  3  0  0  0  0  0  0
  162.5720  206.1050  145.2930 F   0  0  0  0  0  0  0  0  0  0  0  0
  161.5590  204.8460  143.7220 F   0  0  0  0  0  0  0  0  0  0  0  0
  161.4590  205.3330  145.0120 C   0  0  0  0  0  0  0  0  0  0  0  0
  160.3270  206.1240  145.1030 F   0  0  0  0  0  0  0  0  0  0  0  0
  1  9  1  0  0  0  0
  2  1  1  0  0  0  0
  2  3  1  1  0  0  0
  4  6  2  0  0  0  0
  4  5  1  0  0  0  0
  5  1  2  0  0  0  0
  6  2  1  0  0  0  0
  7 10  1  0  0  0  0
  8  7  2  0  0  0  0
  9  7  1  0  0  0  0
 10 11  1  0  0  0  0
 11 14  1  0  0  0  0
 11 13  1  0  0  0  0
 11 12  1  0  0  0  0
 13 12  1  0  0  0  0
 15 14  1  0  0  0  0
 15 17  1  0  0  0  0
 16 15  2  0  0  0  0
 18 19  2  0  0  0  0
 18  6  1  0  0  0  0
 20 25  1  0  0  0  0
 21 25  1  0  0  0  0
 22 24  1  0  0  0  0
 23 20  2  0  0  0  0
 24 23  1  0  0  0  0
 24 21  2  0  0  0  0
 25 18  1  1  0  0  0
 27 28  1  0  0  0  0
 28 29  1  0  0  0  0
 28 26  1  0  0  0  0
 28 23  1  0  0  0  0
M  END
>  <MODEL>
2

>  <REMARK>
 VINA RESULT:      -8.8      1.688      2.469
  Name = 
  8 active torsions:
  status: ('A' for Active; 'I' for Inactive)
    1  A    between atoms: C_1  and  C_27
    2  A    between atoms: C_3  and  N_18
    3  A    between atoms: C_7  and  C_8
    4  A    between atoms: C_7  and  C_27
    5  A    between atoms: C_8  and  C_17
    6  A    between atoms: C_12  and  C_22
    7  A    between atoms: C_12  and  C_28
    8  A    between atoms: C_14  and  C_15
                            x       y       z     vdW  Elec       q    Type
                         _______ _______ _______ _____ _____    ______ ____

>  <TORSDO>
F 8

$$$$
=
 OpenBabel11072413483D

 29 31  0  0  1  0  0  0  0  0999 V2000
  161.5080  209.4210  152.5610 C   0  0  0  0  0  0  0  0  0  0  0  0
  161.3480  208.1110  152.7190 C   0  0  1  0  0  3  0  0  0  0  0  0
  160.7150  207.4470  153.8990 C   0  0  0  0  0  1  0  0  0  0  0  0
  162.0920  208.3690  150.5860 C   0  0  0  0  0  3  0  0  0  0  0  0
  161.9710  209.7360  151.1830 C   0  0  0  0  0  3  0  0  0  0  0  0
  161.7320  207.4520  151.4740 C   0  0  0  0  0  0  0  0  0  0  0  0
  159.9360  211.2100  153.4650 C   0  0  0  0  0  0  0  0  0  0  0  0
  158.9750  210.8750  152.7240 O   0  0  0  0  0  0  0  0  0  0  0  0
  161.1390  210.4360  153.5030 N   0  0  0  0  0  2  0  0  0  0  0  0
  159.7850  212.3750  154.3820 C   0  0  0  0  0  2  0  0  0  0  0  0
  158.9520  212.0160  155.6060 C   0  0  0  0  0  0  0  0  0  0  0  0
  159.7890  212.0170  156.8640 C   0  0  0  0  0  2  0  0  0  0  0  0
  159.2530  210.7080  156.3090 C   0  0  0  0  0  2  0  0  0  0  0  0
  157.5970  212.6750  155.8370 C   0  0  0  0  0  2  0  0  0  0  0  0
  156.5950  212.2710  154.8110 C   0  0  0  0  0  0  0  0  0  0  0  0
  156.0240  211.1550  154.9030 O   0  0  0  0  0  1  0  0  0  0  0  0
  156.2740  213.1220  153.7650 O   0  0  0  0  0  0  0  0  0  0  0  0
  161.7480  206.0030  151.1990 C   0  0  0  0  0  0  0  0  0  0  0  0
  162.6400  205.2790  151.7230 O   0  0  0  0  0  0  0  0  0  0  0  0
  160.5140  203.9280  150.6330 C   0  0  0  0  0  3  0  0  0  0  0  0
  161.1920  205.3380  148.8820 C   0  0  0  0  0  3  0  0  0  0  0  0
  161.5890  203.6640  147.2180 O   0  0  0  0  0  1  0  0  0  0  0  0
  160.7990  203.1990  149.5640 C   0  0  0  0  0  0  0  0  0  0  0  0
  161.2120  204.0780  148.4900 C   0  0  0  0  0  0  0  0  0  0  0  0
  160.7190  205.3790  150.3040 C   0  0  2  0  0  3  0  0  0  0  0  0
  161.1670  201.1600  150.6800 F   0  0  0  0  0  0  0  0  0  0  0  0
  159.4310  201.3130  149.2500 F   0  0  0  0  0  0  0  0  0  0  0  0
  160.7360  201.7050  149.4840 C   0  0  0  0  0  0  0  0  0  0  0  0
  161.5350  201.2310  148.4590 F   0  0  0  0  0  0  0  0  0  0  0  0
  1  2  1  0  0  0  0
  1  9  1  0  0  0  0
  2  3  1  6  0  0  0
  4  5  1  0  0  0  0
  4  6  2  0  0  0  0
  5  1  2  0  0  0  0
  6  2  1  0  0  0  0
  7  9  1  0  0  0  0
  7 10  1  0  0  0  0
  8  7  2  0  0  0  0
 10 11  1  0  0  0  0
 11 14  1  0  0  0  0
 11 13  1  0  0  0  0
 11 12  1  0  0  0  0
 13 12  1  0  0  0  0
 15 16  1  0  0  0  0
 15 14  1  0  0  0  0
 17 15  2  0  0  0  0
 18  6  1  0  0  0  0
 18 19  2  0  0  0  0
 21 25  1  0  0  0  0
 22 24  1  0  0  0  0
 23 20  2  0  0  0  0
 24 21  2  0  0  0  0
 24 23  1  0  0  0  0
 25 20  1  0  0  0  0
 25 18  1  1  0  0  0
 27 28  1  0  0  0  0
 28 23  1  0  0  0  0
 28 26  1  0  0  0  0
 29 28  1  0  0  0  0
M  END
>  <MODEL>
3

>  <REMARK>
 VINA RESULT:      -8.8      2.988      4.377
  Name = 
  8 active torsions:
  status: ('A' for Active; 'I' for Inactive)
    1  A    between atoms: C_1  and  C_27
    2  A    between atoms: C_3  and  N_18
    3  A    between atoms: C_7  and  C_8
    4  A    between atoms: C_7  and  C_27
    5  A    between atoms: C_8  and  C_17
    6  A    between atoms: C_12  and  C_22
    7  A    between atoms: C_12  and  C_28
    8  A    between atoms: C_14  and  C_15
                            x       y       z     vdW  Elec       q    Type
                         _______ _______ _______ _____ _____    ______ ____

>  <TORSDO>
F 8

$$$$
=
 OpenBabel11072413483D

 29 31  0  0  1  0  0  0  0  0999 V2000
  160.9350  205.9280  151.3990 C   0  0  0  0  0  0  0  0  0  0  0  0
  160.5830  205.3250  150.2690 C   0  0  0  0  0  0  0  0  0  0  0  0
  160.0980  206.0070  149.0320 C   0  0  0  0  0  1  0  0  0  0  0  0
  161.4870  203.6890  151.5630 C   0  0  0  0  0  3  0  0  0  0  0  0
  161.5720  204.9650  152.3380 C   0  0  0  0  0  2  0  0  0  0  0  0
  160.9220  203.9090  150.3840 C   0  0  0  0  0  0  0  0  0  0  0  0
  161.8900  208.2870  151.3130 C   0  0  0  0  0  0  0  0  0  0  0  0
  162.8170  207.9840  150.5150 O   0  0  0  0  0  0  0  0  0  0  0  0
  160.8790  207.3360  151.6580 N   0  0  0  0  0  2  0  0  0  0  0  0
  161.7950  209.6810  151.8330 C   0  0  0  0  0  2  0  0  0  0  0  0
  161.0650  209.7280  153.1690 C   0  0  0  0  0  0  0  0  0  0  0  0
  159.7030  210.3690  153.0320 C   0  0  0  0  0  2  0  0  0  0  0  0
  160.8090  211.0860  153.7890 C   0  0  0  0  0  2  0  0  0  0  0  0
  161.0140  208.4940  154.0620 C   0  0  0  0  0  2  0  0  0  0  0  0
  160.9280  208.8510  155.5060 C   0  0  0  0  0  0  0  0  0  0  0  0
  161.9660  209.1950  156.1260 O   0  0  0  0  0  0  0  0  0  0  0  0
  159.7100  208.8230  156.1690 O   0  0  0  0  0  1  0  0  0  0  0  0
  160.6830  202.8500  149.3860 C   0  0  0  0  0  0  0  0  0  0  0  0
  159.7160  202.0530  149.5420 O   0  0  0  0  0  0  0  0  0  0  0  0
  161.8500  204.0390  147.5490 C   0  0  0  0  0  3  0  0  0  0  0  0
  160.8910  201.9440  147.0920 C   0  0  0  0  0  3  0  0  0  0  0  0
  160.2720  202.3320  144.8140 O   0  0  0  0  0  1  0  0  0  0  0  0
  161.4170  204.0140  146.2970 C   0  0  0  0  0  0  0  0  0  0  0  0
  160.8320  202.7190  146.0250 C   0  0  0  0  0  0  0  0  0  0  0  0
  161.5740  202.7080  148.1880 C   0  0  2  0  0  3  0  0  0  0  0  0
  162.3180  206.1380  145.8310 F   0  0  0  0  0  0  0  0  0  0  0  0
  162.0070  204.6970  144.1260 F   0  0  0  0  0  0  0  0  0  0  0  0
  161.4910  205.1510  145.3250 C   0  0  0  0  0  0  0  0  0  0  0  0
  160.2370  205.6880  145.0960 F   0  0  0  0  0  0  0  0  0  0  0  0
  1  9  1  0  0  0  0
  1  5  1  0  0  0  0
  2  6  1  0  0  0  0
  2  1  2  0  0  0  0
  3  2  1  0  0  0  0
  4  5  1  0  0  0  0
  6  4  2  0  0  0  0
  7  9  1  0  0  0  0
  7 10  1  0  0  0  0
  8  7  2  0  0  0  0
 10 11  1  0  0  0  0
 11 13  1  0  0  0  0
 11 14  1  0  0  0  0
 12 11  1  0  0  0  0
 12 13  1  0  0  0  0
 14 15  1  0  0  0  0
 15 16  2  0  0  0  0
 15 17  1  0  0  0  0
 18 19  2  0  0  0  0
 18  6  1  0  0  0  0
 20 25  1  0  0  0  0
 21 25  1  0  0  0  0
 22 24  1  0  0  0  0
 23 20  2  0  0  0  0
 24 23  1  0  0  0  0
 24 21  2  0  0  0  0
 25 18  1  1  0  0  0
 27 28  1  0  0  0  0
 28 26  1  0  0  0  0
 28 23  1  0  0  0  0
 29 28  1  0  0  0  0
M  END
>  <MODEL>
4

>  <REMARK>
 VINA RESULT:      -8.7      1.424      1.900
  Name = 
  8 active torsions:
  status: ('A' for Active; 'I' for Inactive)
    1  A    between atoms: C_1  and  C_27
    2  A    between atoms: C_3  and  N_18
    3  A    between atoms: C_7  and  C_8
    4  A    between atoms: C_7  and  C_27
    5  A    between atoms: C_8  and  C_17
    6  A    between atoms: C_12  and  C_22
    7  A    between atoms: C_12  and  C_28
    8  A    between atoms: C_14  and  C_15
                            x       y       z     vdW  Elec       q    Type
                         _______ _______ _______ _____ _____    ______ ____

>  <TORSDO>
F 8

$$$$
=
 OpenBabel11072413483D

 29 31  0  0  1  0  0  0  0  0999 V2000
  160.5550  208.3650  154.2700 C   0  0  0  0  0  0  0  0  0  0  0  0
  160.8840  208.2170  152.9910 C   0  0  0  0  0  0  0  0  0  0  0  0
  161.0010  209.3190  151.9880 C   0  0  0  0  0  1  0  0  0  0  0  0
  161.2100  206.1740  153.9330 C   0  0  0  0  0  3  0  0  0  0  0  0
  160.7500  207.0940  155.0180 C   0  0  0  0  0  2  0  0  0  0  0  0
  161.2830  206.8280  152.7820 C   0  0  0  0  0  0  0  0  0  0  0  0
  161.1450  210.5730  155.3940 C   0  0  0  0  0  0  0  0  0  0  0  0
  162.3560  210.5330  155.0500 O   0  0  0  0  0  0  0  0  0  0  0  0
  160.2140  209.5980  154.9160 N   0  0  0  0  0  2  0  0  0  0  0  0
  160.6580  211.7030  156.2360 C   0  0  0  0  0  2  0  0  0  0  0  0
  159.4020  212.3330  155.6480 C   0  0  0  0  0  0  0  0  0  0  0  0
  158.7130  213.2310  156.6510 C   0  0  0  0  0  2  0  0  0  0  0  0
  158.0640  211.9220  156.2300 C   0  0  0  0  0  2  0  0  0  0  0  0
  159.4330  212.9660  154.2630 C   0  0  0  0  0  2  0  0  0  0  0  0
  158.3090  212.4950  153.4050 C   0  0  0  0  0  0  0  0  0  0  0  0
  158.3880  211.3790  152.8320 O   0  0  0  0  0  0  0  0  0  0  0  0
  157.1700  213.2690  153.2470 O   0  0  0  0  0  1  0  0  0  0  0  0
  161.6970  206.1990  151.5130 C   0  0  0  0  0  0  0  0  0  0  0  0
  162.9220  206.1560  151.2110 O   0  0  0  0  0  0  0  0  0  0  0  0
  160.5180  204.1350  150.8070 C   0  0  0  0  0  3  0  0  0  0  0  0
  161.1500  205.6820  149.1570 C   0  0  0  0  0  3  0  0  0  0  0  0
  161.5870  204.1400  147.3800 O   0  0  0  0  0  1  0  0  0  0  0  0
  160.8190  203.4910  149.6880 C   0  0  0  0  0  0  0  0  0  0  0  0
  161.2030  204.4530  148.6780 C   0  0  0  0  0  0  0  0  0  0  0  0
  160.6810  205.6110  150.5800 C   0  0  2  0  0  3  0  0  0  0  0  0
  159.5020  201.5900  149.2510 F   0  0  0  0  0  0  0  0  0  0  0  0
  161.6010  201.6630  148.4330 F   0  0  0  0  0  0  0  0  0  0  0  0
  160.7970  202.0050  149.5040 C   0  0  0  0  0  0  0  0  0  0  0  0
  161.2630  201.3600  150.6360 F   0  0  0  0  0  0  0  0  0  0  0  0
  1  9  1  0  0  0  0
  1  5  1  0  0  0  0
  2  1  2  0  0  0  0
  3  2  1  0  0  0  0
  4  5  1  0  0  0  0
  6  2  1  0  0  0  0
  6  4  2  0  0  0  0
  7 10  1  0  0  0  0
  8  7  2  0  0  0  0
  9  7  1  0  0  0  0
 11 13  1  0  0  0  0
 11 10  1  0  0  0  0
 11 12  1  0  0  0  0
 13 12  1  0  0  0  0
 14 11  1  0  0  0  0
 15 14  1  0  0  0  0
 16 15  2  0  0  0  0
 17 15  1  0  0  0  0
 18  6  1  0  0  0  0
 19 18  2  0  0  0  0
 21 25  1  0  0  0  0
 22 24  1  0  0  0  0
 23 20  2  0  0  0  0
 24 21  2  0  0  0  0
 24 23  1  0  0  0  0
 25 20  1  0  0  0  0
 25 18  1  1  0  0  0
 26 28  1  0  0  0  0
 27 28  1  0  0  0  0
 28 23  1  0  0  0  0
 28 29  1  0  0  0  0
M  END
>  <MODEL>
5

>  <REMARK>
 VINA RESULT:      -8.6      2.892      4.256
  Name = 
  8 active torsions:
  status: ('A' for Active; 'I' for Inactive)
    1  A    between atoms: C_1  and  C_27
    2  A    between atoms: C_3  and  N_18
    3  A    between atoms: C_7  and  C_8
    4  A    between atoms: C_7  and  C_27
    5  A    between atoms: C_8  and  C_17
    6  A    between atoms: C_12  and  C_22
    7  A    between atoms: C_12  and  C_28
    8  A    between atoms: C_14  and  C_15
                            x       y       z     vdW  Elec       q    Type
                         _______ _______ _______ _____ _____    ______ ____

>  <TORSDO>
F 8

$$$$
=
 OpenBabel11072413483D

 29 31  0  0  1  0  0  0  0  0999 V2000
  160.8820  208.7190  153.7060 C   0  0  0  0  0  0  0  0  0  0  0  0
  161.2270  208.1920  152.5360 C   0  0  0  0  0  0  0  0  0  0  0  0
  161.5710  208.9610  151.3020 C   0  0  0  0  0  1  0  0  0  0  0  0
  161.1540  206.4400  153.9820 C   0  0  0  0  0  3  0  0  0  0  0  0
  160.8230  207.6730  154.7620 C   0  0  0  0  0  2  0  0  0  0  0  0
  161.3830  206.7510  152.7140 C   0  0  0  0  0  0  0  0  0  0  0  0
  159.6530  210.7110  154.7110 C   0  0  0  0  0  0  0  0  0  0  0  0
  158.8480  210.0020  155.3710 O   0  0  0  0  0  0  0  0  0  0  0  0
  160.7390  210.1150  153.9940 N   0  0  0  0  0  2  0  0  0  0  0  0
  159.5270  212.1960  154.7500 C   0  0  0  0  0  2  0  0  0  0  0  0
  158.6930  212.7140  153.5860 C   0  0  0  0  0  0  0  0  0  0  0  0
  158.6340  211.7090  152.4570 C   0  0  0  0  0  2  0  0  0  0  0  0
  159.4040  213.0080  152.2810 C   0  0  0  0  0  2  0  0  0  0  0  0
  157.3310  213.3510  153.8360 C   0  0  0  0  0  2  0  0  0  0  0  0
  156.5710  212.6470  154.9070 C   0  0  0  0  0  0  0  0  0  0  0  0
  155.9610  211.5810  154.6410 O   0  0  0  0  0  0  0  0  0  0  0  0
  156.5460  213.1480  156.2000 O   0  0  0  0  0  1  0  0  0  0  0  0
  161.7260  205.7560  151.6800 C   0  0  0  0  0  0  0  0  0  0  0  0
  162.8960  205.2820  151.6370 O   0  0  0  0  0  0  0  0  0  0  0  0
  160.4560  203.8230  150.7860 C   0  0  0  0  0  3  0  0  0  0  0  0
  161.2110  205.4590  149.2790 C   0  0  0  0  0  3  0  0  0  0  0  0
  161.6080  204.0410  147.3930 O   0  0  0  0  0  1  0  0  0  0  0  0
  160.7490  203.2540  149.6260 C   0  0  0  0  0  0  0  0  0  0  0  0
  161.2100  204.2710  148.7040 C   0  0  0  0  0  0  0  0  0  0  0  0
  160.7040  205.3010  150.6820 C   0  0  2  0  0  3  0  0  0  0  0  0
  160.6660  201.0720  150.5040 F   0  0  0  0  0  0  0  0  0  0  0  0
  159.4700  201.5390  148.6520 F   0  0  0  0  0  0  0  0  0  0  0  0
  160.6520  201.7910  149.3220 C   0  0  0  0  0  0  0  0  0  0  0  0
  161.7100  201.3790  148.5320 F   0  0  0  0  0  0  0  0  0  0  0  0
  1  9  1  0  0  0  0
  1  5  1  0  0  0  0
  2  6  1  0  0  0  0
  2  1  2  0  0  0  0
  3  2  1  0  0  0  0
  4  5  1  0  0  0  0
  6  4  2  0  0  0  0
  7 10  1  0  0  0  0
  7  8  2  0  0  0  0
  9  7  1  0  0  0  0
 11 14  1  0  0  0  0
 11 10  1  0  0  0  0
 12 11  1  0  0  0  0
 13 12  1  0  0  0  0
 13 11  1  0  0  0  0
 14 15  1  0  0  0  0
 15 17  1  0  0  0  0
 16 15  2  0  0  0  0
 18  6  1  0  0  0  0
 19 18  2  0  0  0  0
 21 25  1  0  0  0  0
 22 24  1  0  0  0  0
 23 20  2  0  0  0  0
 24 21  2  0  0  0  0
 24 23  1  0  0  0  0
 25 20  1  0  0  0  0
 25 18  1  1  0  0  0
 27 28  1  0  0  0  0
 28 23  1  0  0  0  0
 28 26  1  0  0  0  0
 29 28  1  0  0  0  0
M  END
>  <MODEL>
6

>  <REMARK>
 VINA RESULT:      -8.5      2.855      4.386
  Name = 
  8 active torsions:
  status: ('A' for Active; 'I' for Inactive)
    1  A    between atoms: C_1  and  C_27
    2  A    between atoms: C_3  and  N_18
    3  A    between atoms: C_7  and  C_8
    4  A    between atoms: C_7  and  C_27
    5  A    between atoms: C_8  and  C_17
    6  A    between atoms: C_12  and  C_22
    7  A    between atoms: C_12  and  C_28
    8  A    between atoms: C_14  and  C_15
                            x       y       z     vdW  Elec       q    Type
                         _______ _______ _______ _____ _____    ______ ____

>  <TORSDO>
F 8

$$$$
=
 OpenBabel11072413483D

 29 31  0  0  1  0  0  0  0  0999 V2000
  161.2190  206.5830  153.2100 C   0  0  0  0  0  0  0  0  0  0  0  0
  161.1400  206.9260  151.9290 C   0  0  0  0  0  0  0  0  0  0  0  0
  161.3100  208.3080  151.3850 C   0  0  0  0  0  1  0  0  0  0  0  0
  161.0810  204.6540  151.9430 C   0  0  0  0  0  3  0  0  0  0  0  0
  161.2180  205.1030  153.3630 C   0  0  0  0  0  2  0  0  0  0  0  0
  161.0390  205.7050  151.1350 C   0  0  0  0  0  0  0  0  0  0  0  0
  160.5030  207.7630  155.3510 C   0  0  0  0  0  0  0  0  0  0  0  0
  159.4770  207.0500  155.5130 O   0  0  0  0  0  0  0  0  0  0  0  0
  161.4420  207.4730  154.3110 N   0  0  0  0  0  2  0  0  0  0  0  0
  160.7890  208.8670  156.3100 C   0  0  0  0  0  2  0  0  0  0  0  0
  160.8120  210.2200  155.6100 C   0  0  0  0  0  0  0  0  0  0  0  0
  162.2280  210.7010  155.3850 C   0  0  0  0  0  2  0  0  0  0  0  0
  161.3330  211.4110  156.3880 C   0  0  0  0  0  2  0  0  0  0  0  0
  159.9370  210.4710  154.3880 C   0  0  0  0  0  2  0  0  0  0  0  0
  158.7970  211.3810  154.6920 C   0  0  0  0  0  0  0  0  0  0  0  0
  157.8590  210.9820  155.4260 O   0  0  0  0  0  1  0  0  0  0  0  0
  158.7710  212.6710  154.1850 O   0  0  0  0  0  0  0  0  0  0  0  0
  160.8980  205.6010  149.6700 C   0  0  0  0  0  0  0  0  0  0  0  0
  159.9630  206.2190  149.0890 O   0  0  0  0  0  0  0  0  0  0  0  0
  161.9880  205.2980  147.4640 C   0  0  0  0  0  3  0  0  0  0  0  0
  161.3160  203.3860  148.6510 C   0  0  0  0  0  3  0  0  0  0  0  0
  160.7540  201.9950  146.7860 O   0  0  0  0  0  1  0  0  0  0  0  0
  161.6170  204.3550  146.6100 C   0  0  0  0  0  0  0  0  0  0  0  0
  161.2090  203.1810  147.3510 C   0  0  0  0  0  0  0  0  0  0  0  0
  161.8510  204.7710  148.8640 C   0  0  2  0  0  3  0  0  0  0  0  0
  162.7000  203.8580  144.5800 F   0  0  0  0  0  0  0  0  0  0  0  0
  160.4460  203.8950  144.6240 F   0  0  0  0  0  0  0  0  0  0  0  0
  161.5920  204.4880  145.1190 C   0  0  0  0  0  0  0  0  0  0  0  0
  161.6040  205.8190  144.7420 F   0  0  0  0  0  0  0  0  0  0  0  0
  1  5  1  0  0  0  0
  1  9  1  0  0  0  0
  2  1  2  0  0  0  0
  3  2  1  0  0  0  0
  4  5  1  0  0  0  0
  6  2  1  0  0  0  0
  6  4  2  0  0  0  0
  7  8  2  0  0  0  0
  7 10  1  0  0  0  0
  9  7  1  0  0  0  0
 11 10  1  0  0  0  0
 11 13  1  0  0  0  0
 12 11  1  0  0  0  0
 12 13  1  0  0  0  0
 14 15  1  0  0  0  0
 14 11  1  0  0  0  0
 15 16  1  0  0  0  0
 17 15  2  0  0  0  0
 18  6  1  0  0  0  0
 19 18  2  0  0  0  0
 20 25  1  0  0  0  0
 21 25  1  0  0  0  0
 22 24  1  0  0  0  0
 23 24  1  0  0  0  0
 23 20  2  0  0  0  0
 24 21  2  0  0  0  0
 25 18  1  1  0  0  0
 26 28  1  0  0  0  0
 27 28  1  0  0  0  0
 28 23  1  0  0  0  0
 29 28  1  0  0  0  0
M  END
>  <MODEL>
7

>  <REMARK>
 VINA RESULT:      -8.4      1.987      2.774
  Name = 
  8 active torsions:
  status: ('A' for Active; 'I' for Inactive)
    1  A    between atoms: C_1  and  C_27
    2  A    between atoms: C_3  and  N_18
    3  A    between atoms: C_7  and  C_8
    4  A    between atoms: C_7  and  C_27
    5  A    between atoms: C_8  and  C_17
    6  A    between atoms: C_12  and  C_22
    7  A    between atoms: C_12  and  C_28
    8  A    between atoms: C_14  and  C_15
                            x       y       z     vdW  Elec       q    Type
                         _______ _______ _______ _____ _____    ______ ____

>  <TORSDO>
F 8

$$$$
=
 OpenBabel11072413483D

 29 31  0  0  1  0  0  0  0  0999 V2000
  160.9710  209.5250  152.2290 C   0  0  0  0  0  0  0  0  0  0  0  0
  161.3530  208.6180  151.3370 C   0  0  0  0  0  0  0  0  0  0  0  0
  161.9560  208.9110  150.0010 C   0  0  0  0  0  1  0  0  0  0  0  0
  160.8300  207.4340  153.2060 C   0  0  0  0  0  3  0  0  0  0  0  0
  160.6220  208.8810  153.5240 C   0  0  0  0  0  2  0  0  0  0  0  0
  161.2490  207.3000  151.9550 C   0  0  0  0  0  0  0  0  0  0  0  0
  159.9060  211.8350  152.0870 C   0  0  0  0  0  0  0  0  0  0  0  0
  158.7840  211.4470  152.5090 O   0  0  0  0  0  0  0  0  0  0  0  0
  161.0280  210.9480  152.0650 N   0  0  0  0  0  2  0  0  0  0  0  0
  160.0890  213.2600  151.6910 C   0  0  0  0  0  2  0  0  0  0  0  0
  159.6550  213.4970  150.2500 C   0  0  0  0  0  0  0  0  0  0  0  0
  158.4730  214.4370  150.1760 C   0  0  0  0  0  2  0  0  0  0  0  0
  158.3010  212.9690  149.8220 C   0  0  0  0  0  2  0  0  0  0  0  0
  160.6890  213.8160  149.1770 C   0  0  0  0  0  2  0  0  0  0  0  0
  161.2190  212.5850  148.5260 C   0  0  0  0  0  0  0  0  0  0  0  0
  162.2510  212.0330  148.9830 O   0  0  0  0  0  1  0  0  0  0  0  0
  160.5740  212.0330  147.4290 O   0  0  0  0  0  0  0  0  0  0  0  0
  161.5370  205.9950  151.3290 C   0  0  0  0  0  0  0  0  0  0  0  0
  162.5990  205.3820  151.6300 O   0  0  0  0  0  0  0  0  0  0  0  0
  160.4200  203.9130  150.5740 C   0  0  0  0  0  3  0  0  0  0  0  0
  161.1390  205.4500  148.9490 C   0  0  0  0  0  3  0  0  0  0  0  0
  161.6950  203.8940  147.2180 O   0  0  0  0  0  1  0  0  0  0  0  0
  160.7940  203.2610  149.4820 C   0  0  0  0  0  0  0  0  0  0  0  0
  161.2310  204.2170  148.4870 C   0  0  0  0  0  0  0  0  0  0  0  0
  160.5850  205.3890  150.3420 C   0  0  2  0  0  3  0  0  0  0  0  0
  159.8850  201.4200  148.3330 F   0  0  0  0  0  0  0  0  0  0  0  0
  162.0570  201.3560  148.9320 F   0  0  0  0  0  0  0  0  0  0  0  0
  160.7950  201.7730  149.3130 C   0  0  0  0  0  0  0  0  0  0  0  0
  160.4530  201.1410  150.4950 F   0  0  0  0  0  0  0  0  0  0  0  0
  1  5  1  0  0  0  0
  2  6  1  0  0  0  0
  2  1  2  0  0  0  0
  3  2  1  0  0  0  0
  4  5  1  0  0  0  0
  6  4  2  0  0  0  0
  7  8  2  0  0  0  0
  9  7  1  0  0  0  0
  9  1  1  0  0  0  0
 10  7  1  0  0  0  0
 11 10  1  0  0  0  0
 12 11  1  0  0  0  0
 13 12  1  0  0  0  0
 13 11  1  0  0  0  0
 14 11  1  0  0  0  0
 15 16  1  0  0  0  0
 15 14  1  0  0  0  0
 17 15  2  0  0  0  0
 18 19  2  0  0  0  0
 18  6  1  0  0  0  0
 21 25  1  0  0  0  0
 22 24  1  0  0  0  0
 23 20  2  0  0  0  0
 24 21  2  0  0  0  0
 24 23  1  0  0  0  0
 25 20  1  0  0  0  0
 25 18  1  1  0  0  0
 26 28  1  0  0  0  0
 27 28  1  0  0  0  0
 28 23  1  0  0  0  0
 28 29  1  0  0  0  0
M  END
>  <MODEL>
8

>  <REMARK>
 VINA RESULT:      -8.3      3.030      4.621
  Name = 
  8 active torsions:
  status: ('A' for Active; 'I' for Inactive)
    1  A    between atoms: C_1  and  C_27
    2  A    between atoms: C_3  and  N_18
    3  A    between atoms: C_7  and  C_8
    4  A    between atoms: C_7  and  C_27
    5  A    between atoms: C_8  and  C_17
    6  A    between atoms: C_12  and  C_22
    7  A    between atoms: C_12  and  C_28
    8  A    between atoms: C_14  and  C_15
                            x       y       z     vdW  Elec       q    Type
                         _______ _______ _______ _____ _____    ______ ____

>  <TORSDO>
F 8

$$$$
=
 OpenBabel11072413483D

 29 31  0  0  1  0  0  0  0  0999 V2000
  162.1880  209.4640  151.2280 C   0  0  0  0  0  0  0  0  0  0  0  0
  162.2140  208.1880  150.8570 C   0  0  1  0  0  3  0  0  0  0  0  0
  162.2310  207.0130  151.7800 C   0  0  0  0  0  1  0  0  0  0  0  0
  161.8950  209.3620  148.9370 C   0  0  0  0  0  3  0  0  0  0  0  0
  161.9560  210.3510  150.0570 C   0  0  0  0  0  3  0  0  0  0  0  0
  162.0430  208.1310  149.4080 C   0  0  0  0  0  0  0  0  0  0  0  0
  161.0720  210.3960  153.3190 C   0  0  0  0  0  0  0  0  0  0  0  0
  159.9030  210.1500  152.9190 O   0  0  0  0  0  0  0  0  0  0  0  0
  162.2110  209.9530  152.5740 N   0  0  0  0  0  2  0  0  0  0  0  0
  161.2720  211.0780  154.6290 C   0  0  0  0  0  2  0  0  0  0  0  0
  160.8510  210.1860  155.7900 C   0  0  0  0  0  0  0  0  0  0  0  0
  162.0510  209.6300  156.5230 C   0  0  0  0  0  2  0  0  0  0  0  0
  161.1670  208.7070  155.6990 C   0  0  0  0  0  2  0  0  0  0  0  0
  159.7680  210.6440  156.7600 C   0  0  0  0  0  2  0  0  0  0  0  0
  158.6590  211.3570  156.0660 C   0  0  0  0  0  0  0  0  0  0  0  0
  157.8140  210.7020  155.4050 O   0  0  0  0  0  0  0  0  0  0  0  0
  158.5390  212.7350  156.1580 O   0  0  0  0  0  1  0  0  0  0  0  0
  162.0390  206.9270  148.5560 C   0  0  0  0  0  0  0  0  0  0  0  0
  162.9920  206.7310  147.7510 O   0  0  0  0  0  0  0  0  0  0  0  0
  160.7940  205.3560  150.0170 C   0  0  0  0  0  3  0  0  0  0  0  0
  161.2060  204.7260  147.7920 C   0  0  0  0  0  3  0  0  0  0  0  0
  161.4270  202.3680  148.1310 O   0  0  0  0  0  1  0  0  0  0  0  0
  160.9570  204.0430  149.9520 C   0  0  0  0  0  0  0  0  0  0  0  0
  161.2060  203.6650  148.5770 C   0  0  0  0  0  0  0  0  0  0  0  0
  160.9190  205.9330  148.6350 C   0  0  2  0  0  3  0  0  0  0  0  0
  162.1950  202.9590  151.6340 F   0  0  0  0  0  0  0  0  0  0  0  0
  160.0860  203.6100  152.0920 F   0  0  0  0  0  0  0  0  0  0  0  0
  160.9210  203.1000  151.1150 C   0  0  0  0  0  0  0  0  0  0  0  0
  160.4510  201.8580  150.7300 F   0  0  0  0  0  0  0  0  0  0  0  0
  1  9  1  0  0  0  0
  2  1  1  0  0  0  0
  2  3  1  1  0  0  0
  4  6  2  0  0  0  0
  4  5  1  0  0  0  0
  5  1  2  0  0  0  0
  6  2  1  0  0  0  0
  7 10  1  0  0  0  0
  8  7  2  0  0  0  0
  9  7  1  0  0  0  0
 10 11  1  0  0  0  0
 11 12  1  0  0  0  0
 11 14  1  0  0  0  0
 13 11  1  0  0  0  0
 13 12  1  0  0  0  0
 15 17  1  0  0  0  0
 15 14  1  0  0  0  0
 16 15  2  0  0  0  0
 18  6  1  0  0  0  0
 19 18  2  0  0  0  0
 21 24  2  0  0  0  0
 21 25  1  0  0  0  0
 22 24  1  0  0  0  0
 23 20  2  0  0  0  0
 23 28  1  0  0  0  0
 24 23  1  0  0  0  0
 25 18  1  1  0  0  0
 25 20  1  0  0  0  0
 28 26  1  0  0  0  0
 28 27  1  0  0  0  0
 29 28  1  0  0  0  0
M  END
>  <MODEL>
9

>  <REMARK>
 VINA RESULT:      -8.2      2.919      4.379
  Name = 
  8 active torsions:
  status: ('A' for Active; 'I' for Inactive)
    1  A    between atoms: C_1  and  C_27
    2  A    between atoms: C_3  and  N_18
    3  A    between atoms: C_7  and  C_8
    4  A    between atoms: C_7  and  C_27
    5  A    between atoms: C_8  and  C_17
    6  A    between atoms: C_12  and  C_22
    7  A    between atoms: C_12  and  C_28
    8  A    between atoms: C_14  and  C_15
                            x       y       z     vdW  Elec       q    Type
                         _______ _______ _______ _____ _____    ______ ____

>  <TORSDO>
F 8

$$$$
