=
 OpenBabel11072414483D

 45 47  0  0  1  0  0  0  0  0999 V2000
  161.6620  207.5510  151.8270 C   0  0  0  0  0  2  0  0  0  0  0  0
  162.5940  207.3390  150.6400 C   0  0  0  0  0  2  0  0  0  0  0  0
  161.9080  209.7360  149.9310 C   0  0  0  0  0  2  0  0  0  0  0  0
  162.2340  208.3180  149.5580 C   0  0  0  0  0  0  0  0  0  0  0  0
  162.1740  207.9520  148.2720 C   0  0  0  0  0  3  0  0  0  0  0  0
  161.6930  208.9930  152.3670 C   0  0  1  0  0  3  0  0  0  0  0  0
  162.2890  210.0180  151.3870 C   0  0  0  0  0  2  0  0  0  0  0  0
  162.4950  206.5630  147.8130 C   0  0  0  0  0  2  0  0  0  0  0  0
  161.7770  206.2730  146.5100 C   0  0  0  0  0  2  0  0  0  0  0  0
  162.3620  205.0300  145.8610 C   0  0  0  0  0  2  0  0  0  0  0  0
  162.6430  204.0320  146.8820 N   0  0  0  0  0  2  0  0  0  0  0  0
  161.4900  203.1480  146.9380 C   0  0  0  0  0  2  0  0  0  0  0  0
  161.5660  202.2560  148.1670 C   0  0  1  0  0  3  0  0  0  0  0  0
  160.7900  203.1340  151.7700 C   0  0  0  0  0  3  0  0  0  0  0  0
  161.2230  202.4240  150.6500 C   0  0  0  0  0  0  0  0  0  0  0  0
  161.7160  201.1690  150.7980 F   0  0  0  0  0  0  0  0  0  0  0  0
  160.6150  204.2710  149.2640 N   0  0  0  0  0  0  0  0  0  0  0  0
  159.6860  206.2240  150.1840 F   0  0  0  0  0  0  0  0  0  0  0  0
  161.1300  203.0150  149.3850 C   0  0  0  0  0  0  0  0  0  0  0  0
  160.1920  204.9800  150.3450 C   0  0  0  0  0  0  0  0  0  0  0  0
  160.2710  204.4210  151.6210 C   0  0  0  0  0  3  0  0  0  0  0  0
  160.7100  201.0060  147.9670 C   0  0  0  0  0  2  0  0  0  0  0  0
  161.0600  199.5920  145.8720 C   0  0  0  0  0  0  0  0  0  0  0  0
  161.7310  198.6900  145.3020 O   0  0  0  0  0  0  0  0  0  0  0  0
  161.4250  199.9950  147.1950 N   0  0  0  0  0  2  0  0  0  0  0  0
  159.9390  201.4830  144.7950 C   0  0  0  0  0  2  0  0  0  0  0  0
  159.9200  200.2140  145.1800 C   0  0  0  0  0  3  0  0  0  0  0  0
  160.4020  209.3850  152.7330 O   0  0  0  0  0  0  0  0  0  0  0  0
  160.5750  210.5220  153.5310 C   0  0  1  0  0  3  0  0  0  0  0  0
  160.0150  210.9600  157.2610 O   0  0  0  0  0  1  0  0  0  0  0  0
  158.3740  211.6540  153.0250 C   0  0  0  0  0  2  0  0  0  0  0  0
  157.8310  212.9620  153.6020 C   0  0  0  0  0  2  0  0  0  0  0  0
  160.1260  212.7030  155.5870 C   0  0  0  0  0  2  0  0  0  0  0  0
  158.8030  213.3900  155.9280 C   0  0  0  0  0  2  0  0  0  0  0  0
  159.8670  209.0740  155.3050 O   0  0  0  0  0  0  0  0  0  0  0  0
  157.5450  212.9620  155.1290 C   0  0  1  0  0  0  0  0  0  0  0  0
  159.8820  211.7240  152.8860 C   0  0  0  0  0  2  0  0  0  0  0  0
  160.1090  211.2940  155.9510 N   0  0  0  0  0  0  0  0  0  0  0  0
  160.1460  210.2550  154.9600 C   0  0  0  0  0  0  0  0  0  0  0  0
  155.6320  214.4530  154.3250 N   0  0  0  0  0  1  0  0  0  0  0  0
  156.4650  213.9920  155.3880 C   0  0  0  0  0  0  0  0  0  0  0  0
  156.2270  214.3900  156.5610 O   0  0  0  0  0  0  0  0  0  0  0  0
  156.6570  210.7390  154.8250 O   0  0  0  0  0  0  0  0  0  0  0  0
  156.7400  211.4630  156.9880 O   0  0  0  0  0  1  0  0  0  0  0  0
  156.9990  211.6430  155.6340 C   0  0  0  0  0  0  0  0  0  0  0  0
  1  6  1  0  0  0  0
  2  1  1  0  0  0  0
  3  7  1  0  0  0  0
  4  3  1  0  0  0  0
  4  2  1  0  0  0  0
  5  4  2  0  0  0  0
  6 28  1  6  0  0  0
  7  6  1  0  0  0  0
  8  5  1  0  0  0  0
  9  8  1  0  0  0  0
 10  9  1  0  0  0  0
 10 11  1  0  0  0  0
 11 12  1  0  0  0  0
 13 12  1  6  0  0  0
 13 19  1  0  0  0  0
 15 16  1  0  0  0  0
 15 14  2  0  0  0  0
 17 19  2  0  0  0  0
 17 20  1  0  0  0  0
 18 20  1  0  0  0  0
 19 15  1  0  0  0  0
 20 21  2  0  0  0  0
 21 14  1  0  0  0  0
 22 13  1  0  0  0  0
 23 25  1  0  0  0  0
 24 23  2  0  0  0  0
 25 22  1  0  0  0  0
 26 27  2  0  0  0  0
 27 23  1  0  0  0  0
 29 28  1  6  0  0  0
 29 39  1  0  0  0  0
 31 32  1  0  0  0  0
 32 36  1  0  0  0  0
 33 34  1  0  0  0  0
 33 38  1  0  0  0  0
 36 41  1  1  0  0  0
 36 45  1  0  0  0  0
 36 34  1  0  0  0  0
 37 31  1  0  0  0  0
 37 29  1  0  0  0  0
 38 30  1  0  0  0  0
 39 35  2  0  0  0  0
 39 38  1  0  0  0  0
 40 41  1  0  0  0  0
 41 42  2  0  0  0  0
 43 45  2  0  0  0  0
 45 44  1  0  0  0  0
M  END
>  <MODEL>
1

>  <REMARK>
 VINA RESULT:      -6.9      0.000      0.000
  Name = 
  14 active torsions:
  status: ('A' for Active; 'I' for Inactive)
    1  A    between atoms: C_1  and  O_40
    2  A    between atoms: C_2  and  C_18
    3  A    between atoms: C_2  and  N_37
    4  A    between atoms: C_5  and  C_25
    5  A    between atoms: C_5  and  C_35
    6  A    between atoms: C_7  and  C_26
    7  A    between atoms: C_11  and  C_44
    8  A    between atoms: C_18  and  C_23
    9  A    between atoms: C_18  and  C_32
   10  A    between atoms: C_23  and  N_43
   11  A    between atoms: C_25  and  N_43
   12  A    between atoms: C_26  and  C_39
   13  A    between atoms: C_29  and  C_35
   14  A    between atoms: O_40  and  C_41
                            x       y       z     vdW  Elec       q    Type
                         _______ _______ _______ _____ _____    ______ ____

>  <TORSDO>
F 14

$$$$
=
 OpenBabel11072414483D

 45 47  0  0  1  0  0  0  0  0999 V2000
  161.9010  213.7000  144.3560 C   0  0  0  0  0  2  0  0  0  0  0  0
  161.8680  213.3350  145.8360 C   0  0  0  0  0  2  0  0  0  0  0  0
  159.4110  212.6340  145.4010 C   0  0  0  0  0  2  0  0  0  0  0  0
  160.4360  213.2770  146.2900 C   0  0  0  0  0  0  0  0  0  0  0  0
  160.0480  213.8050  147.4570 C   0  0  0  0  0  3  0  0  0  0  0  0
  161.0930  212.7260  143.4790 C   0  0  1  0  0  3  0  0  0  0  0  0
  160.0840  211.8670  144.2590 C   0  0  0  0  0  2  0  0  0  0  0  0
  161.0070  214.4530  148.4080 C   0  0  0  0  0  2  0  0  0  0  0  0
  160.4540  214.3900  149.8180 C   0  0  0  0  0  2  0  0  0  0  0  0
  160.3340  212.9430  150.2630 C   0  0  0  0  0  2  0  0  0  0  0  0
  160.0740  212.8910  151.6940 N   0  0  0  0  0  2  0  0  0  0  0  0
  159.9220  211.4870  152.0450 C   0  0  0  0  0  2  0  0  0  0  0  0
  160.9770  211.0780  153.0600 C   0  0  1  0  0  3  0  0  0  0  0  0
  160.6870  211.0540  156.8380 C   0  0  0  0  0  3  0  0  0  0  0  0
  161.2430  211.0670  155.5580 C   0  0  0  0  0  0  0  0  0  0  0  0
  162.5910  211.0440  155.4100 F   0  0  0  0  0  0  0  0  0  0  0  0
  159.0460  211.0950  154.6220 N   0  0  0  0  0  0  0  0  0  0  0  0
  157.1400  211.0930  155.9970 F   0  0  0  0  0  0  0  0  0  0  0  0
  160.3980  211.0900  154.4430 C   0  0  0  0  0  0  0  0  0  0  0  0
  158.4860  211.0880  155.8620 C   0  0  0  0  0  0  0  0  0  0  0  0
  159.3000  211.0650  156.9950 C   0  0  0  0  0  3  0  0  0  0  0  0
  161.5350  209.6980  152.7140 C   0  0  0  0  0  2  0  0  0  0  0  0
  161.8040  208.2040  150.6640 C   0  0  0  0  0  0  0  0  0  0  0  0
  161.7700  208.1140  149.4070 O   0  0  0  0  0  0  0  0  0  0  0  0
  161.5030  209.4620  151.2750 N   0  0  0  0  0  2  0  0  0  0  0  0
  161.4840  205.8860  151.3830 C   0  0  0  0  0  2  0  0  0  0  0  0
  162.1480  207.0300  151.4800 C   0  0  0  0  0  3  0  0  0  0  0  0
  160.4290  213.4390  142.4760 O   0  0  0  0  0  0  0  0  0  0  0  0
  161.2200  213.2860  141.3310 C   0  0  1  0  0  3  0  0  0  0  0  0
  160.3840  214.0400  137.7040 O   0  0  0  0  0  1  0  0  0  0  0  0
  160.8320  210.8190  140.9520 C   0  0  0  0  0  2  0  0  0  0  0  0
  161.3590  209.9450  139.8140 C   0  0  0  0  0  2  0  0  0  0  0  0
  162.1400  212.5930  138.5280 C   0  0  0  0  0  2  0  0  0  0  0  0
  161.7690  211.3500  137.7170 C   0  0  0  0  0  2  0  0  0  0  0  0
  159.2980  214.1600  140.1960 O   0  0  0  0  0  0  0  0  0  0  0  0
  160.8460  210.3010  138.3910 C   0  0  1  0  0  0  0  0  0  0  0  0
  161.8440  211.8900  141.3080 C   0  0  0  0  0  2  0  0  0  0  0  0
  160.9830  213.4450  138.7640 N   0  0  0  0  0  0  0  0  0  0  0  0
  160.4390  213.6350  140.0790 C   0  0  0  0  0  0  0  0  0  0  0  0
  162.1410  208.5850  137.0120 N   0  0  0  0  0  1  0  0  0  0  0  0
  160.9030  209.0380  137.5580 C   0  0  0  0  0  0  0  0  0  0  0  0
  159.8770  208.3210  137.4110 O   0  0  0  0  0  0  0  0  0  0  0  0
  158.9210  211.3280  137.3590 O   0  0  0  0  0  0  0  0  0  0  0  0
  158.6250  210.6670  139.5240 O   0  0  0  0  0  1  0  0  0  0  0  0
  159.4010  210.7540  138.3740 C   0  0  0  0  0  0  0  0  0  0  0  0
  1  2  1  0  0  0  0
  2  4  1  0  0  0  0
  3  4  1  0  0  0  0
  4  5  2  0  0  0  0
  5  8  1  0  0  0  0
  6 28  1  6  0  0  0
  6  7  1  0  0  0  0
  6  1  1  0  0  0  0
  7  3  1  0  0  0  0
  8  9  1  0  0  0  0
  9 10  1  0  0  0  0
 10 11  1  0  0  0  0
 11 12  1  0  0  0  0
 13 12  1  6  0  0  0
 13 19  1  0  0  0  0
 14 21  1  0  0  0  0
 15 14  2  0  0  0  0
 16 15  1  0  0  0  0
 17 20  1  0  0  0  0
 19 17  2  0  0  0  0
 19 15  1  0  0  0  0
 20 18  1  0  0  0  0
 20 21  2  0  0  0  0
 22 13  1  0  0  0  0
 23 25  1  0  0  0  0
 23 27  1  0  0  0  0
 24 23  2  0  0  0  0
 25 22  1  0  0  0  0
 26 27  2  0  0  0  0
 29 28  1  1  0  0  0
 30 38  1  0  0  0  0
 31 37  1  0  0  0  0
 32 31  1  0  0  0  0
 33 38  1  0  0  0  0
 34 36  1  0  0  0  0
 34 33  1  0  0  0  0
 36 41  1  6  0  0  0
 36 32  1  0  0  0  0
 37 29  1  0  0  0  0
 38 39  1  0  0  0  0
 39 35  2  0  0  0  0
 39 29  1  0  0  0  0
 40 41  1  0  0  0  0
 42 41  2  0  0  0  0
 43 45  2  0  0  0  0
 45 36  1  0  0  0  0
 45 44  1  0  0  0  0
M  END
>  <MODEL>
2

>  <REMARK>
 VINA RESULT:      -5.7      7.770     12.635
  Name = 
  14 active torsions:
  status: ('A' for Active; 'I' for Inactive)
    1  A    between atoms: C_1  and  O_40
    2  A    between atoms: C_2  and  C_18
    3  A    between atoms: C_2  and  N_37
    4  A    between atoms: C_5  and  C_25
    5  A    between atoms: C_5  and  C_35
    6  A    between atoms: C_7  and  C_26
    7  A    between atoms: C_11  and  C_44
    8  A    between atoms: C_18  and  C_23
    9  A    between atoms: C_18  and  C_32
   10  A    between atoms: C_23  and  N_43
   11  A    between atoms: C_25  and  N_43
   12  A    between atoms: C_26  and  C_39
   13  A    between atoms: C_29  and  C_35
   14  A    between atoms: O_40  and  C_41
                            x       y       z     vdW  Elec       q    Type
                         _______ _______ _______ _____ _____    ______ ____

>  <TORSDO>
F 14

$$$$
=
 OpenBabel11072414483D

 45 47  0  0  1  0  0  0  0  0999 V2000
  161.3220  209.0890  152.7470 C   0  0  0  0  0  2  0  0  0  0  0  0
  160.7880  207.6760  152.5470 C   0  0  0  0  0  2  0  0  0  0  0  0
  160.4650  207.6500  155.1190 C   0  0  0  0  0  2  0  0  0  0  0  0
  160.8590  206.9390  153.8560 C   0  0  0  0  0  0  0  0  0  0  0  0
  161.2870  205.6730  153.9250 C   0  0  0  0  0  3  0  0  0  0  0  0
  160.5730  209.8640  153.8480 C   0  0  1  0  0  3  0  0  0  0  0  0
  159.7620  208.9730  154.8030 C   0  0  0  0  0  2  0  0  0  0  0  0
  161.6880  204.8880  152.7140 C   0  0  0  0  0  2  0  0  0  0  0  0
  160.4580  204.2910  152.0580 C   0  0  0  0  0  2  0  0  0  0  0  0
  160.6720  202.8080  151.8120 C   0  0  0  0  0  2  0  0  0  0  0  0
  162.0430  202.5750  151.3830 N   0  0  0  0  0  2  0  0  0  0  0  0
  162.0070  202.3800  149.9420 C   0  0  0  0  0  2  0  0  0  0  0  0
  160.8110  203.1010  149.3400 C   0  0  1  0  0  3  0  0  0  0  0  0
  161.1840  206.4940  147.6950 C   0  0  0  0  0  3  0  0  0  0  0  0
  160.7620  205.4910  148.5690 C   0  0  0  0  0  0  0  0  0  0  0  0
  159.8560  205.7790  149.5370 F   0  0  0  0  0  0  0  0  0  0  0  0
  162.1690  203.9310  147.4330 N   0  0  0  0  0  0  0  0  0  0  0  0
  163.4860  204.5940  145.6030 F   0  0  0  0  0  0  0  0  0  0  0  0
  161.2730  204.1960  148.4260 C   0  0  0  0  0  0  0  0  0  0  0  0
  162.5950  204.8970  146.5750 C   0  0  0  0  0  0  0  0  0  0  0  0
  162.1060  206.1990  146.6910 C   0  0  0  0  0  3  0  0  0  0  0  0
  159.9180  202.1090  148.5960 C   0  0  0  0  0  2  0  0  0  0  0  0
  161.0740  200.5880  146.9040 C   0  0  0  0  0  0  0  0  0  0  0  0
  161.6860  199.5050  146.6980 O   0  0  0  0  0  0  0  0  0  0  0  0
  160.6550  200.9030  148.2360 N   0  0  0  0  0  2  0  0  0  0  0  0
  159.7230  201.3780  145.0220 C   0  0  0  0  0  2  0  0  0  0  0  0
  160.7980  201.5060  145.7890 C   0  0  0  0  0  3  0  0  0  0  0  0
  161.4810  210.6360  154.5790 O   0  0  0  0  0  0  0  0  0  0  0  0
  160.9840  211.9430  154.5220 C   0  0  1  0  0  3  0  0  0  0  0  0
  159.4020  214.0440  157.2600 O   0  0  0  0  0  1  0  0  0  0  0  0
  158.7110  211.4210  153.5500 C   0  0  0  0  0  2  0  0  0  0  0  0
  157.5680  212.3920  153.2520 C   0  0  0  0  0  2  0  0  0  0  0  0
  159.2130  214.3770  154.8710 C   0  0  0  0  0  2  0  0  0  0  0  0
  157.6860  214.4250  154.7980 C   0  0  0  0  0  2  0  0  0  0  0  0
  160.5030  211.5920  156.8430 O   0  0  0  0  0  0  0  0  0  0  0  0
  156.9410  213.1020  154.4830 C   0  0  1  0  0  0  0  0  0  0  0  0
  160.0490  212.0960  153.3210 C   0  0  0  0  0  2  0  0  0  0  0  0
  159.6720  213.5960  156.0110 N   0  0  0  0  0  0  0  0  0  0  0  0
  160.3620  212.3480  155.8440 C   0  0  0  0  0  0  0  0  0  0  0  0
  154.6970  214.1910  155.0380 N   0  0  0  0  0  1  0  0  0  0  0  0
  155.5120  213.4550  154.1260 C   0  0  0  0  0  0  0  0  0  0  0  0
  155.0510  213.1840  152.9840 O   0  0  0  0  0  0  0  0  0  0  0  0
  156.7900  212.7180  156.8610 O   0  0  0  0  0  1  0  0  0  0  0  0
  157.0080  210.8370  155.5860 O   0  0  0  0  0  0  0  0  0  0  0  0
  156.8630  212.2140  155.7080 C   0  0  0  0  0  0  0  0  0  0  0  0
  1  6  1  0  0  0  0
  2  1  1  0  0  0  0
  2  4  1  0  0  0  0
  4  5  2  0  0  0  0
  4  3  1  0  0  0  0
  6 28  1  1  0  0  0
  6  7  1  0  0  0  0
  7  3  1  0  0  0  0
  8  5  1  0  0  0  0
  9  8  1  0  0  0  0
 10  9  1  0  0  0  0
 11 10  1  0  0  0  0
 12 11  1  0  0  0  0
 13 22  1  6  0  0  0
 13 12  1  0  0  0  0
 14 15  1  0  0  0  0
 15 16  1  0  0  0  0
 17 19  1  0  0  0  0
 18 20  1  0  0  0  0
 19 15  2  0  0  0  0
 19 13  1  0  0  0  0
 20 21  1  0  0  0  0
 20 17  2  0  0  0  0
 21 14  2  0  0  0  0
 23 25  1  0  0  0  0
 24 23  2  0  0  0  0
 25 22  1  0  0  0  0
 26 27  2  0  0  0  0
 27 23  1  0  0  0  0
 29 28  1  1  0  0  0
 29 39  1  0  0  0  0
 32 31  1  0  0  0  0
 32 36  1  0  0  0  0
 33 38  1  0  0  0  0
 34 33  1  0  0  0  0
 36 41  1  6  0  0  0
 36 34  1  0  0  0  0
 36 45  1  0  0  0  0
 37 31  1  0  0  0  0
 37 29  1  0  0  0  0
 38 30  1  0  0  0  0
 39 38  1  0  0  0  0
 39 35  2  0  0  0  0
 41 40  1  0  0  0  0
 42 41  2  0  0  0  0
 44 45  2  0  0  0  0
 45 43  1  0  0  0  0
M  END
>  <MODEL>
3

>  <REMARK>
 VINA RESULT:      -5.4      1.804      3.422
  Name = 
  14 active torsions:
  status: ('A' for Active; 'I' for Inactive)
    1  A    between atoms: C_1  and  O_40
    2  A    between atoms: C_2  and  C_18
    3  A    between atoms: C_2  and  N_37
    4  A    between atoms: C_5  and  C_25
    5  A    between atoms: C_5  and  C_35
    6  A    between atoms: C_7  and  C_26
    7  A    between atoms: C_11  and  C_44
    8  A    between atoms: C_18  and  C_23
    9  A    between atoms: C_18  and  C_32
   10  A    between atoms: C_23  and  N_43
   11  A    between atoms: C_25  and  N_43
   12  A    between atoms: C_26  and  C_39
   13  A    between atoms: C_29  and  C_35
   14  A    between atoms: O_40  and  C_41
                            x       y       z     vdW  Elec       q    Type
                         _______ _______ _______ _____ _____    ______ ____

>  <TORSDO>
F 14

$$$$
=
 OpenBabel11072414483D

 45 47  0  0  1  0  0  0  0  0999 V2000
  161.9870  213.4610  144.9020 C   0  0  0  0  0  2  0  0  0  0  0  0
  161.5470  212.9170  146.2560 C   0  0  0  0  0  2  0  0  0  0  0  0
  159.2680  212.4640  145.1070 C   0  0  0  0  0  2  0  0  0  0  0  0
  160.0450  212.9100  146.3130 C   0  0  0  0  0  0  0  0  0  0  0  0
  159.3820  213.3150  147.4030 C   0  0  0  0  0  3  0  0  0  0  0  0
  161.4030  212.6690  143.7180 C   0  0  1  0  0  3  0  0  0  0  0  0
  160.1890  211.7980  144.0810 C   0  0  0  0  0  2  0  0  0  0  0  0
  160.0780  213.7640  148.6500 C   0  0  0  0  0  2  0  0  0  0  0  0
  159.2070  213.4780  149.8570 C   0  0  0  0  0  2  0  0  0  0  0  0
  160.0730  213.3080  151.0930 C   0  0  0  0  0  2  0  0  0  0  0  0
  159.4370  212.3770  152.0120 N   0  0  0  0  0  2  0  0  0  0  0  0
  160.5050  211.6800  152.7130 C   0  0  0  0  0  2  0  0  0  0  0  0
  160.1080  210.2370  152.9820 C   0  0  1  0  0  3  0  0  0  0  0  0
  161.7560  207.1380  151.5530 C   0  0  0  0  0  3  0  0  0  0  0  0
  161.0440  207.9760  152.4120 C   0  0  0  0  0  0  0  0  0  0  0  0
  160.5610  207.4870  153.5820 F   0  0  0  0  0  0  0  0  0  0  0  0
  161.3590  209.7840  150.8840 N   0  0  0  0  0  0  0  0  0  0  0  0
  162.5420  209.4840  148.8760 F   0  0  0  0  0  0  0  0  0  0  0  0
  160.8480  209.3160  152.0580 C   0  0  0  0  0  0  0  0  0  0  0  0
  162.0510  208.9810  150.0320 C   0  0  0  0  0  0  0  0  0  0  0  0
  162.2640  207.6410  150.3540 C   0  0  0  0  0  3  0  0  0  0  0  0
  160.3780  209.8780  154.4420 C   0  0  0  0  0  2  0  0  0  0  0  0
  160.0150  211.7420  156.1460 C   0  0  0  0  0  0  0  0  0  0  0  0
  160.4920  212.7540  156.7270 O   0  0  0  0  0  0  0  0  0  0  0  0
  160.8260  211.0440  155.1970 N   0  0  0  0  0  2  0  0  0  0  0  0
  157.5820  212.0140  156.1060 C   0  0  0  0  0  2  0  0  0  0  0  0
  158.6460  211.2960  156.4440 C   0  0  0  0  0  3  0  0  0  0  0  0
  161.0590  213.5510  142.6890 O   0  0  0  0  0  0  0  0  0  0  0  0
  161.9300  213.2460  141.6360 C   0  0  1  0  0  3  0  0  0  0  0  0
  161.6560  214.1160  137.9500 O   0  0  0  0  0  1  0  0  0  0  0  0
  161.1360  210.8910  141.1830 C   0  0  0  0  0  2  0  0  0  0  0  0
  161.6160  209.9260  140.0980 C   0  0  0  0  0  2  0  0  0  0  0  0
  163.0110  212.3740  138.9420 C   0  0  0  0  0  2  0  0  0  0  0  0
  162.5100  211.2150  138.0780 C   0  0  0  0  0  2  0  0  0  0  0  0
  160.3420  214.4530  140.3070 O   0  0  0  0  0  0  0  0  0  0  0  0
  161.3400  210.3610  138.6320 C   0  0  1  0  0  0  0  0  0  0  0  0
  162.2840  211.7580  141.6620 C   0  0  0  0  0  2  0  0  0  0  0  0
  162.0130  213.4270  139.0610 N   0  0  0  0  0  0  0  0  0  0  0  0
  161.3710  213.7250  140.3100 C   0  0  0  0  0  0  0  0  0  0  0  0
  160.0050  208.4390  137.6080 N   0  0  0  0  0  1  0  0  0  0  0  0
  161.2540  209.1040  137.7940 C   0  0  0  0  0  0  0  0  0  0  0  0
  162.2660  208.6760  137.1730 O   0  0  0  0  0  0  0  0  0  0  0  0
  159.2770  211.3040  139.4580 O   0  0  0  0  0  1  0  0  0  0  0  0
  159.5310  211.3600  137.1890 O   0  0  0  0  0  0  0  0  0  0  0  0
  160.0140  211.0740  138.4610 C   0  0  0  0  0  0  0  0  0  0  0  0
  1  2  1  0  0  0  0
  2  4  1  0  0  0  0
  3  4  1  0  0  0  0
  4  5  2  0  0  0  0
  5  8  1  0  0  0  0
  6 28  1  6  0  0  0
  6  7  1  0  0  0  0
  6  1  1  0  0  0  0
  7  3  1  0  0  0  0
  8  9  1  0  0  0  0
  9 10  1  0  0  0  0
 10 11  1  0  0  0  0
 11 12  1  0  0  0  0
 13 12  1  1  0  0  0
 13 22  1  0  0  0  0
 14 15  1  0  0  0  0
 15 16  1  0  0  0  0
 17 19  1  0  0  0  0
 18 20  1  0  0  0  0
 19 15  2  0  0  0  0
 19 13  1  0  0  0  0
 20 21  1  0  0  0  0
 20 17  2  0  0  0  0
 21 14  2  0  0  0  0
 22 25  1  0  0  0  0
 23 27  1  0  0  0  0
 23 24  2  0  0  0  0
 25 23  1  0  0  0  0
 26 27  2  0  0  0  0
 29 37  1  0  0  0  0
 29 28  1  1  0  0  0
 30 38  1  0  0  0  0
 31 37  1  0  0  0  0
 32 31  1  0  0  0  0
 33 38  1  0  0  0  0
 34 36  1  0  0  0  0
 34 33  1  0  0  0  0
 35 39  2  0  0  0  0
 36 41  1  6  0  0  0
 36 32  1  0  0  0  0
 38 39  1  0  0  0  0
 39 29  1  0  0  0  0
 40 41  1  0  0  0  0
 42 41  2  0  0  0  0
 44 45  2  0  0  0  0
 45 36  1  0  0  0  0
 45 43  1  0  0  0  0
M  END
>  <MODEL>
4

>  <REMARK>
 VINA RESULT:      -5.4      7.483     12.881
  Name = 
  14 active torsions:
  status: ('A' for Active; 'I' for Inactive)
    1  A    between atoms: C_1  and  O_40
    2  A    between atoms: C_2  and  C_18
    3  A    between atoms: C_2  and  N_37
    4  A    between atoms: C_5  and  C_25
    5  A    between atoms: C_5  and  C_35
    6  A    between atoms: C_7  and  C_26
    7  A    between atoms: C_11  and  C_44
    8  A    between atoms: C_18  and  C_23
    9  A    between atoms: C_18  and  C_32
   10  A    between atoms: C_23  and  N_43
   11  A    between atoms: C_25  and  N_43
   12  A    between atoms: C_26  and  C_39
   13  A    between atoms: C_29  and  C_35
   14  A    between atoms: O_40  and  C_41
                            x       y       z     vdW  Elec       q    Type
                         _______ _______ _______ _____ _____    ______ ____

>  <TORSDO>
F 14

$$$$
=
 OpenBabel11072414483D

 45 47  0  0  1  0  0  0  0  0999 V2000
  161.3220  208.9100  152.5120 C   0  0  0  0  0  2  0  0  0  0  0  0
  160.8320  207.5080  152.1700 C   0  0  0  0  0  2  0  0  0  0  0  0
  160.7820  207.1180  154.7320 C   0  0  0  0  0  2  0  0  0  0  0  0
  161.0720  206.6070  153.3500 C   0  0  0  0  0  0  0  0  0  0  0  0
  161.5590  205.3700  153.2000 C   0  0  0  0  0  3  0  0  0  0  0  0
  160.6600  209.4860  153.7780 C   0  0  1  0  0  3  0  0  0  0  0  0
  159.9930  208.4290  154.6750 C   0  0  0  0  0  2  0  0  0  0  0  0
  161.8640  204.7800  151.8580 C   0  0  0  0  0  2  0  0  0  0  0  0
  160.5890  204.2620  151.2220 C   0  0  0  0  0  2  0  0  0  0  0  0
  160.6280  202.7460  151.1450 C   0  0  0  0  0  2  0  0  0  0  0  0
  160.1240  202.3080  149.8520 N   0  0  0  0  0  2  0  0  0  0  0  0
  161.1690  201.4990  149.2430 C   0  0  0  0  0  2  0  0  0  0  0  0
  161.7010  202.1780  147.9900 C   0  0  1  0  0  3  0  0  0  0  0  0
  160.5060  199.7790  145.3110 C   0  0  0  0  0  3  0  0  0  0  0  0
  161.1290  200.2700  146.4590 C   0  0  0  0  0  0  0  0  0  0  0  0
  161.8440  199.4300  147.2490 F   0  0  0  0  0  0  0  0  0  0  0  0
  160.3060  202.4540  145.9530 N   0  0  0  0  0  0  0  0  0  0  0  0
  158.9920  202.8430  144.0440 F   0  0  0  0  0  0  0  0  0  0  0  0
  161.0160  201.6290  146.7740 C   0  0  0  0  0  0  0  0  0  0  0  0
  159.6880  201.9920  144.8320 C   0  0  0  0  0  0  0  0  0  0  0  0
  159.7800  200.6430  144.4900 C   0  0  0  0  0  3  0  0  0  0  0  0
  161.5090  203.6910  148.0880 C   0  0  0  0  0  2  0  0  0  0  0  0
  162.1650  205.5270  146.4420 C   0  0  0  0  0  0  0  0  0  0  0  0
  163.0780  206.0530  145.7500 O   0  0  0  0  0  0  0  0  0  0  0  0
  162.4820  204.4010  147.2650 N   0  0  0  0  0  2  0  0  0  0  0  0
  160.0510  206.0010  145.3020 C   0  0  0  0  0  2  0  0  0  0  0  0
  160.7980  206.0680  146.3960 C   0  0  0  0  0  3  0  0  0  0  0  0
  161.6050  210.2030  154.5170 O   0  0  0  0  0  0  0  0  0  0  0  0
  161.1800  211.5360  154.4640 C   0  0  1  0  0  3  0  0  0  0  0  0
  159.8950  213.7700  157.2520 O   0  0  0  0  0  1  0  0  0  0  0  0
  158.8250  211.1310  153.6450 C   0  0  0  0  0  2  0  0  0  0  0  0
  157.7220  212.1610  153.3980 C   0  0  0  0  0  2  0  0  0  0  0  0
  159.5760  214.0740  154.8730 C   0  0  0  0  0  2  0  0  0  0  0  0
  158.0520  214.2090  154.8930 C   0  0  0  0  0  2  0  0  0  0  0  0
  160.8270  211.2520  156.8180 O   0  0  0  0  0  0  0  0  0  0  0  0
  157.2150  212.9260  154.6510 C   0  0  1  0  0  0  0  0  0  0  0  0
  160.1820  211.7230  153.3200 C   0  0  0  0  0  2  0  0  0  0  0  0
  160.0600  213.2870  155.9970 N   0  0  0  0  0  0  0  0  0  0  0  0
  160.6670  211.9980  155.8140 C   0  0  0  0  0  0  0  0  0  0  0  0
  155.0040  212.6770  153.3950 N   0  0  0  0  0  1  0  0  0  0  0  0
  155.7890  213.3550  154.3750 C   0  0  0  0  0  0  0  0  0  0  0  0
  155.2450  214.2570  155.0700 O   0  0  0  0  0  0  0  0  0  0  0  0
  157.7640  210.9570  155.9350 O   0  0  0  0  0  0  0  0  0  0  0  0
  156.3420  212.4200  156.9610 O   0  0  0  0  0  1  0  0  0  0  0  0
  157.1630  212.0650  155.8960 C   0  0  0  0  0  0  0  0  0  0  0  0
  1  6  1  0  0  0  0
  2  1  1  0  0  0  0
  2  4  1  0  0  0  0
  4  3  1  0  0  0  0
  5  4  2  0  0  0  0
  6 28  1  1  0  0  0
  6  7  1  0  0  0  0
  7  3  1  0  0  0  0
  8  5  1  0  0  0  0
  9  8  1  0  0  0  0
 10  9  1  0  0  0  0
 11 10  1  0  0  0  0
 12 11  1  0  0  0  0
 13 22  1  1  0  0  0
 13 12  1  0  0  0  0
 14 15  1  0  0  0  0
 15 19  2  0  0  0  0
 15 16  1  0  0  0  0
 17 19  1  0  0  0  0
 18 20  1  0  0  0  0
 19 13  1  0  0  0  0
 20 17  2  0  0  0  0
 21 20  1  0  0  0  0
 21 14  2  0  0  0  0
 23 25  1  0  0  0  0
 24 23  2  0  0  0  0
 25 22  1  0  0  0  0
 26 27  2  0  0  0  0
 27 23  1  0  0  0  0
 29 28  1  1  0  0  0
 29 39  1  0  0  0  0
 32 31  1  0  0  0  0
 32 36  1  0  0  0  0
 33 34  1  0  0  0  0
 33 38  1  0  0  0  0
 36 41  1  6  0  0  0
 36 34  1  0  0  0  0
 36 45  1  0  0  0  0
 37 31  1  0  0  0  0
 37 29  1  0  0  0  0
 38 30  1  0  0  0  0
 39 38  1  0  0  0  0
 39 35  2  0  0  0  0
 40 41  1  0  0  0  0
 41 42  2  0  0  0  0
 45 43  2  0  0  0  0
 45 44  1  0  0  0  0
M  END
>  <MODEL>
5

>  <REMARK>
 VINA RESULT:      -5.0      2.225      4.000
  Name = 
  14 active torsions:
  status: ('A' for Active; 'I' for Inactive)
    1  A    between atoms: C_1  and  O_40
    2  A    between atoms: C_2  and  C_18
    3  A    between atoms: C_2  and  N_37
    4  A    between atoms: C_5  and  C_25
    5  A    between atoms: C_5  and  C_35
    6  A    between atoms: C_7  and  C_26
    7  A    between atoms: C_11  and  C_44
    8  A    between atoms: C_18  and  C_23
    9  A    between atoms: C_18  and  C_32
   10  A    between atoms: C_23  and  N_43
   11  A    between atoms: C_25  and  N_43
   12  A    between atoms: C_26  and  C_39
   13  A    between atoms: C_29  and  C_35
   14  A    between atoms: O_40  and  C_41
                            x       y       z     vdW  Elec       q    Type
                         _______ _______ _______ _____ _____    ______ ____

>  <TORSDO>
F 14

$$$$
=
 OpenBabel11072414483D

 45 47  0  0  1  0  0  0  0  0999 V2000
  161.7550  208.2590  154.3120 C   0  0  0  0  0  2  0  0  0  0  0  0
  161.5170  209.0590  155.5880 C   0  0  0  0  0  2  0  0  0  0  0  0
  159.2040  207.8910  155.6480 C   0  0  0  0  0  2  0  0  0  0  0  0
  160.0380  209.1230  155.8530 C   0  0  0  0  0  0  0  0  0  0  0  0
  159.4450  210.2560  156.2430 C   0  0  0  0  0  3  0  0  0  0  0  0
  161.1520  206.8430  154.3700 C   0  0  1  0  0  3  0  0  0  0  0  0
  160.0890  206.6560  155.4650 C   0  0  0  0  0  2  0  0  0  0  0  0
  160.2040  211.5250  156.4820 C   0  0  0  0  0  2  0  0  0  0  0  0
  159.9240  212.5100  155.3640 C   0  0  0  0  0  2  0  0  0  0  0  0
  159.1520  211.8240  154.2500 C   0  0  0  0  0  2  0  0  0  0  0  0
  160.0360  211.5820  153.1200 N   0  0  0  0  0  2  0  0  0  0  0  0
  159.3290  212.0240  151.9280 C   0  0  0  0  0  2  0  0  0  0  0  0
  160.0080  213.2490  151.3340 C   0  0  1  0  0  3  0  0  0  0  0  0
  161.8230  211.7780  148.3510 C   0  0  0  0  0  3  0  0  0  0  0  0
  161.4190  212.0080  149.6660 C   0  0  0  0  0  0  0  0  0  0  0  0
  161.9890  211.3070  150.6780 F   0  0  0  0  0  0  0  0  0  0  0  0
  159.8910  213.6720  148.8890 N   0  0  0  0  0  0  0  0  0  0  0  0
  159.7060  214.1750  146.6010 F   0  0  0  0  0  0  0  0  0  0  0  0
  160.4350  212.9700  149.9240 C   0  0  0  0  0  0  0  0  0  0  0  0
  160.2700  213.4580  147.6000 C   0  0  0  0  0  0  0  0  0  0  0  0
  161.2470  212.5060  147.3080 C   0  0  0  0  0  3  0  0  0  0  0  0
  159.0680  214.4520  151.3920 C   0  0  0  0  0  2  0  0  0  0  0  0
  156.5720  214.1650  151.8370 C   0  0  0  0  0  0  0  0  0  0  0  0
  155.6640  213.9570  152.6870 O   0  0  0  0  0  0  0  0  0  0  0  0
  157.9340  214.1940  152.2730 N   0  0  0  0  0  2  0  0  0  0  0  0
  155.0370  214.0500  149.9330 C   0  0  0  0  0  2  0  0  0  0  0  0
  156.2260  214.3760  150.4230 C   0  0  0  0  0  3  0  0  0  0  0  0
  160.6090  206.5140  153.1250 O   0  0  0  0  0  0  0  0  0  0  0  0
  161.6950  206.4990  152.2410 C   0  0  1  0  0  3  0  0  0  0  0  0
  162.4490  208.7880  149.3070 O   0  0  0  0  0  1  0  0  0  0  0  0
  160.8620  204.6980  150.6770 C   0  0  0  0  0  2  0  0  0  0  0  0
  161.5270  204.1720  149.4050 C   0  0  0  0  0  2  0  0  0  0  0  0
  163.3610  206.5830  149.7110 C   0  0  0  0  0  2  0  0  0  0  0  0
  163.0100  205.9710  148.3540 C   0  0  0  0  0  2  0  0  0  0  0  0
  160.6020  208.3960  151.2650 O   0  0  0  0  0  0  0  0  0  0  0  0
  161.6730  205.1920  148.2430 C   0  0  1  0  0  0  0  0  0  0  0  0
  161.9110  205.0840  151.7010 C   0  0  0  0  0  2  0  0  0  0  0  0
  162.4530  207.6640  150.0640 N   0  0  0  0  0  0  0  0  0  0  0  0
  161.5350  207.5540  151.1640 C   0  0  0  0  0  0  0  0  0  0  0  0
  162.6400  204.7410  145.9220 N   0  0  0  0  0  1  0  0  0  0  0  0
  161.7070  204.4060  146.9500 C   0  0  0  0  0  0  0  0  0  0  0  0
  160.9770  203.3900  146.7970 O   0  0  0  0  0  0  0  0  0  0  0  0
  159.5500  206.0880  148.9600 O   0  0  0  0  0  1  0  0  0  0  0  0
  160.3800  206.9850  147.0320 O   0  0  0  0  0  0  0  0  0  0  0  0
  160.4970  206.1400  148.1300 C   0  0  0  0  0  0  0  0  0  0  0  0
  1  6  1  0  0  0  0
  1  2  1  0  0  0  0
  2  4  1  0  0  0  0
  3  4  1  0  0  0  0
  4  5  2  0  0  0  0
  5  8  1  0  0  0  0
  6 28  1  6  0  0  0
  6  7  1  0  0  0  0
  7  3  1  0  0  0  0
  9  8  1  0  0  0  0
 10  9  1  0  0  0  0
 11 10  1  0  0  0  0
 12 11  1  0  0  0  0
 13 22  1  6  0  0  0
 13 12  1  0  0  0  0
 14 15  1  0  0  0  0
 15 19  2  0  0  0  0
 15 16  1  0  0  0  0
 17 19  1  0  0  0  0
 18 20  1  0  0  0  0
 19 13  1  0  0  0  0
 20 17  2  0  0  0  0
 21 20  1  0  0  0  0
 21 14  2  0  0  0  0
 22 25  1  0  0  0  0
 23 25  1  0  0  0  0
 23 24  2  0  0  0  0
 26 27  2  0  0  0  0
 27 23  1  0  0  0  0
 29 28  1  6  0  0  0
 30 38  1  0  0  0  0
 31 37  1  0  0  0  0
 32 31  1  0  0  0  0
 33 38  1  0  0  0  0
 34 33  1  0  0  0  0
 36 41  1  6  0  0  0
 36 34  1  0  0  0  0
 36 32  1  0  0  0  0
 37 29  1  0  0  0  0
 38 39  1  0  0  0  0
 39 35  2  0  0  0  0
 39 29  1  0  0  0  0
 40 41  1  0  0  0  0
 42 41  2  0  0  0  0
 44 45  2  0  0  0  0
 45 36  1  0  0  0  0
 45 43  1  0  0  0  0
M  END
>  <MODEL>
6

>  <REMARK>
 VINA RESULT:      -4.8      3.344     10.349
  Name = 
  14 active torsions:
  status: ('A' for Active; 'I' for Inactive)
    1  A    between atoms: C_1  and  O_40
    2  A    between atoms: C_2  and  C_18
    3  A    between atoms: C_2  and  N_37
    4  A    between atoms: C_5  and  C_25
    5  A    between atoms: C_5  and  C_35
    6  A    between atoms: C_7  and  C_26
    7  A    between atoms: C_11  and  C_44
    8  A    between atoms: C_18  and  C_23
    9  A    between atoms: C_18  and  C_32
   10  A    between atoms: C_23  and  N_43
   11  A    between atoms: C_25  and  N_43
   12  A    between atoms: C_26  and  C_39
   13  A    between atoms: C_29  and  C_35
   14  A    between atoms: O_40  and  C_41
                            x       y       z     vdW  Elec       q    Type
                         _______ _______ _______ _____ _____    ______ ____

>  <TORSDO>
F 14

$$$$
=
 OpenBabel11072414483D

 45 47  0  0  1  0  0  0  0  0999 V2000
  160.9630  212.6590  149.2780 C   0  0  0  0  0  2  0  0  0  0  0  0
  161.0730  213.2480  147.8760 C   0  0  0  0  0  2  0  0  0  0  0  0
  158.5730  213.8700  148.1590 C   0  0  0  0  0  2  0  0  0  0  0  0
  159.6930  213.3730  147.2910 C   0  0  0  0  0  0  0  0  0  0  0  0
  159.4350  213.0310  146.0240 C   0  0  0  0  0  3  0  0  0  0  0  0
  160.0530  213.4850  150.2060 C   0  0  1  0  0  3  0  0  0  0  0  0
  159.1130  214.4530  149.4670 C   0  0  0  0  0  2  0  0  0  0  0  0
  160.4950  212.5380  145.0880 C   0  0  0  0  0  2  0  0  0  0  0  0
  161.1930  213.7150  144.4350 C   0  0  0  0  0  2  0  0  0  0  0  0
  161.3030  213.4850  142.9370 C   0  0  0  0  0  2  0  0  0  0  0  0
  161.6710  212.1020  142.6800 N   0  0  0  0  0  2  0  0  0  0  0  0
  160.6410  211.5440  141.8170 C   0  0  0  0  0  2  0  0  0  0  0  0
  160.8000  212.0660  140.3970 C   0  0  1  0  0  3  0  0  0  0  0  0
  161.8900  210.1730  137.3020 C   0  0  0  0  0  3  0  0  0  0  0  0
  161.5550  211.2260  138.1530 C   0  0  0  0  0  0  0  0  0  0  0  0
  161.5760  212.5010  137.6890 F   0  0  0  0  0  0  0  0  0  0  0  0
  161.1590  209.6570  139.9100 N   0  0  0  0  0  0  0  0  0  0  0  0
  161.4450  207.3500  139.5640 F   0  0  0  0  0  0  0  0  0  0  0  0
  161.1880  210.9490  139.4760 C   0  0  0  0  0  0  0  0  0  0  0  0
  161.4870  208.6190  139.0950 C   0  0  0  0  0  0  0  0  0  0  0  0
  161.8570  208.8600  137.7720 C   0  0  0  0  0  3  0  0  0  0  0  0
  159.5060  212.7330  139.9330 C   0  0  0  0  0  2  0  0  0  0  0  0
  157.0810  212.0990  139.4550 C   0  0  0  0  0  0  0  0  0  0  0  0
  156.2120  211.1870  139.4210 O   0  0  0  0  0  0  0  0  0  0  0  0
  158.4200  211.7640  139.8310 N   0  0  0  0  0  2  0  0  0  0  0  0
  155.7840  214.1490  139.7840 C   0  0  0  0  0  2  0  0  0  0  0  0
  156.7160  213.4820  139.1150 C   0  0  0  0  0  3  0  0  0  0  0  0
  159.3040  212.6250  151.0150 O   0  0  0  0  0  0  0  0  0  0  0  0
  159.5660  213.0320  152.3280 C   0  0  1  0  0  3  0  0  0  0  0  0
  160.2190  210.9280  155.4210 O   0  0  0  0  0  1  0  0  0  0  0  0
  157.1840  213.4460  153.0600 C   0  0  0  0  0  2  0  0  0  0  0  0
  156.6830  213.8770  154.4390 C   0  0  0  0  0  2  0  0  0  0  0  0
  159.5180  213.2420  155.3510 C   0  0  0  0  0  2  0  0  0  0  0  0
  158.2990  213.1080  156.2650 C   0  0  0  0  0  2  0  0  0  0  0  0
  159.7020  210.6780  152.7610 O   0  0  0  0  0  0  0  0  0  0  0  0
  156.9220  212.8670  155.5940 C   0  0  1  0  0  0  0  0  0  0  0  0
  158.5350  214.0710  152.7710 C   0  0  0  0  0  2  0  0  0  0  0  0
  159.8240  211.9890  154.6770 N   0  0  0  0  0  0  0  0  0  0  0  0
  159.6790  211.8380  153.2560 C   0  0  0  0  0  0  0  0  0  0  0  0
  155.3490  214.4270  156.8670 N   0  0  0  0  0  1  0  0  0  0  0  0
  155.8540  213.1110  156.6400 C   0  0  0  0  0  0  0  0  0  0  0  0
  155.3310  212.1460  157.2600 O   0  0  0  0  0  0  0  0  0  0  0  0
  155.8740  211.0890  154.3420 O   0  0  0  0  0  0  0  0  0  0  0  0
  157.5230  210.4260  155.7750 O   0  0  0  0  0  1  0  0  0  0  0  0
  156.7690  211.4220  155.1650 C   0  0  0  0  0  0  0  0  0  0  0  0
  1  6  1  0  0  0  0
  2  1  1  0  0  0  0
  3  7  1  0  0  0  0
  4  2  1  0  0  0  0
  4  3  1  0  0  0  0
  5  4  2  0  0  0  0
  6 28  1  6  0  0  0
  7  6  1  0  0  0  0
  8  5  1  0  0  0  0
  9  8  1  0  0  0  0
 10  9  1  0  0  0  0
 11 10  1  0  0  0  0
 12 11  1  0  0  0  0
 13 22  1  6  0  0  0
 13 12  1  0  0  0  0
 14 21  2  0  0  0  0
 14 15  1  0  0  0  0
 15 19  2  0  0  0  0
 16 15  1  0  0  0  0
 19 17  1  0  0  0  0
 19 13  1  0  0  0  0
 20 18  1  0  0  0  0
 20 17  2  0  0  0  0
 21 20  1  0  0  0  0
 23 25  1  0  0  0  0
 24 23  2  0  0  0  0
 25 22  1  0  0  0  0
 27 23  1  0  0  0  0
 27 26  2  0  0  0  0
 29 28  1  6  0  0  0
 29 37  1  0  0  0  0
 29 39  1  0  0  0  0
 31 32  1  0  0  0  0
 32 36  1  0  0  0  0
 33 34  1  0  0  0  0
 35 39  2  0  0  0  0
 36 45  1  6  0  0  0
 36 34  1  0  0  0  0
 36 41  1  0  0  0  0
 37 31  1  0  0  0  0
 38 33  1  0  0  0  0
 38 30  1  0  0  0  0
 39 38  1  0  0  0  0
 41 40  1  0  0  0  0
 41 42  2  0  0  0  0
 43 45  2  0  0  0  0
 45 44  1  0  0  0  0
M  END
>  <MODEL>
7

>  <REMARK>
 VINA RESULT:      -4.8      6.950      9.023
  Name = 
  14 active torsions:
  status: ('A' for Active; 'I' for Inactive)
    1  A    between atoms: C_1  and  O_40
    2  A    between atoms: C_2  and  C_18
    3  A    between atoms: C_2  and  N_37
    4  A    between atoms: C_5  and  C_25
    5  A    between atoms: C_5  and  C_35
    6  A    between atoms: C_7  and  C_26
    7  A    between atoms: C_11  and  C_44
    8  A    between atoms: C_18  and  C_23
    9  A    between atoms: C_18  and  C_32
   10  A    between atoms: C_23  and  N_43
   11  A    between atoms: C_25  and  N_43
   12  A    between atoms: C_26  and  C_39
   13  A    between atoms: C_29  and  C_35
   14  A    between atoms: O_40  and  C_41
                            x       y       z     vdW  Elec       q    Type
                         _______ _______ _______ _____ _____    ______ ____

>  <TORSDO>
F 14

$$$$
=
 OpenBabel11072414483D

 45 47  0  0  1  0  0  0  0  0999 V2000
  160.4360  214.0510  145.6890 C   0  0  0  0  0  2  0  0  0  0  0  0
  160.3270  213.4630  147.0920 C   0  0  0  0  0  2  0  0  0  0  0  0
  157.9810  212.6480  146.3500 C   0  0  0  0  0  2  0  0  0  0  0  0
  158.8770  213.2260  147.4090 C   0  0  0  0  0  0  0  0  0  0  0  0
  158.3600  213.5380  148.6030 C   0  0  0  0  0  3  0  0  0  0  0  0
  159.7830  213.1620  144.6140 C   0  0  1  0  0  3  0  0  0  0  0  0
  158.8010  212.1190  145.1710 C   0  0  0  0  0  2  0  0  0  0  0  0
  159.1840  214.1060  149.7160 C   0  0  0  0  0  2  0  0  0  0  0  0
  158.3170  214.3230  150.9400 C   0  0  0  0  0  2  0  0  0  0  0  0
  158.4410  213.1360  151.8800 C   0  0  0  0  0  2  0  0  0  0  0  0
  159.8270  212.6980  151.9340 N   0  0  0  0  0  2  0  0  0  0  0  0
  159.8120  211.2430  151.9110 C   0  0  0  0  0  2  0  0  0  0  0  0
  161.1940  210.6940  152.2310 C   0  0  1  0  0  3  0  0  0  0  0  0
  161.2830  209.1490  155.6900 C   0  0  0  0  0  3  0  0  0  0  0  0
  161.3430  210.0960  154.6670 C   0  0  0  0  0  0  0  0  0  0  0  0
  161.6390  211.3870  154.9600 F   0  0  0  0  0  0  0  0  0  0  0  0
  160.8300  208.3880  153.0780 N   0  0  0  0  0  0  0  0  0  0  0  0
  160.4840  206.1640  153.7560 F   0  0  0  0  0  0  0  0  0  0  0  0
  161.1080  209.6950  153.3460 C   0  0  0  0  0  0  0  0  0  0  0  0
  160.7630  207.4520  154.0630 C   0  0  0  0  0  0  0  0  0  0  0  0
  160.9910  207.8180  155.3900 C   0  0  0  0  0  3  0  0  0  0  0  0
  161.8150  210.0680  150.9840 C   0  0  0  0  0  2  0  0  0  0  0  0
  162.3220  207.5800  150.7430 C   0  0  0  0  0  0  0  0  0  0  0  0
  163.0200  206.5990  151.1190 O   0  0  0  0  0  0  0  0  0  0  0  0
  162.5710  208.8660  151.3170 N   0  0  0  0  0  2  0  0  0  0  0  0
  160.4800  206.3290  149.7240 C   0  0  0  0  0  2  0  0  0  0  0  0
  161.2720  207.3940  149.7300 C   0  0  0  0  0  3  0  0  0  0  0  0
  159.1340  213.9660  143.6720 O   0  0  0  0  0  0  0  0  0  0  0  0
  160.0330  214.0840  142.6060 C   0  0  1  0  0  3  0  0  0  0  0  0
  159.3340  214.4510  138.8910 O   0  0  0  0  0  1  0  0  0  0  0  0
  160.5600  211.6310  142.3070 C   0  0  0  0  0  2  0  0  0  0  0  0
  161.4620  210.9820  141.2570 C   0  0  0  0  0  2  0  0  0  0  0  0
  161.3960  213.7190  139.9230 C   0  0  0  0  0  2  0  0  0  0  0  0
  161.5570  212.4140  139.1410 C   0  0  0  0  0  2  0  0  0  0  0  0
  158.0440  214.2180  141.2750 O   0  0  0  0  0  0  0  0  0  0  0  0
  160.9950  211.1180  139.7820 C   0  0  1  0  0  0  0  0  0  0  0  0
  161.1010  212.9930  142.6970 C   0  0  0  0  0  2  0  0  0  0  0  0
  159.9990  214.1160  140.0230 N   0  0  0  0  0  0  0  0  0  0  0  0
  159.3010  214.1220  141.2780 C   0  0  0  0  0  0  0  0  0  0  0  0
  162.3210  210.1540  137.8230 N   0  0  0  0  0  1  0  0  0  0  0  0
  161.5640  209.9440  139.0140 C   0  0  0  0  0  0  0  0  0  0  0  0
  161.4550  208.7710  139.4640 O   0  0  0  0  0  0  0  0  0  0  0  0
  158.7660  210.6430  140.5750 O   0  0  0  0  0  1  0  0  0  0  0  0
  158.9030  211.2670  138.3840 O   0  0  0  0  0  0  0  0  0  0  0  0
  159.4910  211.0380  139.6230 C   0  0  0  0  0  0  0  0  0  0  0  0
  1  2  1  0  0  0  0
  2  4  1  0  0  0  0
  3  4  1  0  0  0  0
  4  5  2  0  0  0  0
  5  8  1  0  0  0  0
  6 28  1  6  0  0  0
  6  7  1  0  0  0  0
  6  1  1  0  0  0  0
  7  3  1  0  0  0  0
  8  9  1  0  0  0  0
  9 10  1  0  0  0  0
 10 11  1  0  0  0  0
 12 11  1  0  0  0  0
 12 13  1  0  0  0  0
 13 22  1  6  0  0  0
 13 19  1  0  0  0  0
 15 16  1  0  0  0  0
 15 14  2  0  0  0  0
 17 19  2  0  0  0  0
 17 20  1  0  0  0  0
 18 20  1  0  0  0  0
 19 15  1  0  0  0  0
 20 21  2  0  0  0  0
 21 14  1  0  0  0  0
 22 25  1  0  0  0  0
 23 24  2  0  0  0  0
 23 25  1  0  0  0  0
 26 27  2  0  0  0  0
 27 23  1  0  0  0  0
 29 37  1  0  0  0  0
 29 28  1  1  0  0  0
 30 38  1  0  0  0  0
 31 37  1  0  0  0  0
 32 31  1  0  0  0  0
 33 38  1  0  0  0  0
 34 36  1  0  0  0  0
 34 33  1  0  0  0  0
 35 39  2  0  0  0  0
 36 41  1  6  0  0  0
 36 32  1  0  0  0  0
 38 39  1  0  0  0  0
 39 29  1  0  0  0  0
 40 41  1  0  0  0  0
 41 42  2  0  0  0  0
 44 45  2  0  0  0  0
 45 36  1  0  0  0  0
 45 43  1  0  0  0  0
M  END
>  <MODEL>
8

>  <REMARK>
 VINA RESULT:      -4.5      7.341     11.692
  Name = 
  14 active torsions:
  status: ('A' for Active; 'I' for Inactive)
    1  A    between atoms: C_1  and  O_40
    2  A    between atoms: C_2  and  C_18
    3  A    between atoms: C_2  and  N_37
    4  A    between atoms: C_5  and  C_25
    5  A    between atoms: C_5  and  C_35
    6  A    between atoms: C_7  and  C_26
    7  A    between atoms: C_11  and  C_44
    8  A    between atoms: C_18  and  C_23
    9  A    between atoms: C_18  and  C_32
   10  A    between atoms: C_23  and  N_43
   11  A    between atoms: C_25  and  N_43
   12  A    between atoms: C_26  and  C_39
   13  A    between atoms: C_29  and  C_35
   14  A    between atoms: O_40  and  C_41
                            x       y       z     vdW  Elec       q    Type
                         _______ _______ _______ _____ _____    ______ ____

>  <TORSDO>
F 14

$$$$
=
 OpenBabel11072414483D

 45 47  0  0  1  0  0  0  0  0999 V2000
  161.9500  208.2610  153.5660 C   0  0  0  0  0  2  0  0  0  0  0  0
  161.7820  208.6600  155.0280 C   0  0  0  0  0  2  0  0  0  0  0  0
  159.7700  207.0260  155.0340 C   0  0  0  0  0  2  0  0  0  0  0  0
  160.3830  208.3280  155.4660 C   0  0  0  0  0  0  0  0  0  0  0  0
  159.6620  209.1740  156.2110 C   0  0  0  0  0  3  0  0  0  0  0  0
  161.6390  206.7740  153.3100 C   0  0  1  0  0  3  0  0  0  0  0  0
  160.8270  206.1000  154.4280 C   0  0  0  0  0  2  0  0  0  0  0  0
  160.2000  210.4850  156.6930 C   0  0  0  0  0  2  0  0  0  0  0  0
  159.8260  211.5850  155.7190 C   0  0  0  0  0  2  0  0  0  0  0  0
  159.2960  210.9780  154.4310 C   0  0  0  0  0  2  0  0  0  0  0  0
  159.8240  211.7110  153.2910 N   0  0  0  0  0  2  0  0  0  0  0  0
  158.7030  211.9740  152.4020 C   0  0  0  0  0  2  0  0  0  0  0  0
  158.7440  213.4130  151.9100 C   0  0  1  0  0  3  0  0  0  0  0  0
  157.2860  213.5330  148.4150 C   0  0  0  0  0  3  0  0  0  0  0  0
  157.3730  213.5210  149.8070 C   0  0  0  0  0  0  0  0  0  0  0  0
  156.2410  213.5670  150.5540 F   0  0  0  0  0  0  0  0  0  0  0  0
  159.7520  213.3900  149.6400 N   0  0  0  0  0  0  0  0  0  0  0  0
  160.8210  213.3420  147.5470 F   0  0  0  0  0  0  0  0  0  0  0  0
  158.6320  213.4520  150.4150 C   0  0  0  0  0  0  0  0  0  0  0  0
  159.6860  213.4040  148.2810 C   0  0  0  0  0  0  0  0  0  0  0  0
  158.4470  213.4740  147.6440 C   0  0  0  0  0  3  0  0  0  0  0  0
  157.6260  214.2250  152.5620 C   0  0  0  0  0  2  0  0  0  0  0  0
  157.0780  213.9130  155.0350 C   0  0  0  0  0  0  0  0  0  0  0  0
  157.3810  214.1790  156.2290 O   0  0  0  0  0  0  0  0  0  0  0  0
  157.8900  214.4400  153.9810 N   0  0  0  0  0  2  0  0  0  0  0  0
  155.9470  211.7510  154.8390 C   0  0  0  0  0  2  0  0  0  0  0  0
  155.9070  213.0730  154.7390 C   0  0  0  0  0  3  0  0  0  0  0  0
  160.9670  206.6390  152.0920 O   0  0  0  0  0  0  0  0  0  0  0  0
  161.9690  206.4170  151.1400 C   0  0  1  0  0  3  0  0  0  0  0  0
  162.8240  208.4110  148.0250 O   0  0  0  0  0  1  0  0  0  0  0  0
  160.7680  204.6810  149.7510 C   0  0  0  0  0  2  0  0  0  0  0  0
  161.2530  203.9960  148.4730 C   0  0  0  0  0  2  0  0  0  0  0  0
  163.4350  206.1200  148.5040 C   0  0  0  0  0  2  0  0  0  0  0  0
  162.8970  205.4970  147.2150 C   0  0  0  0  0  2  0  0  0  0  0  0
  161.0930  208.4020  150.1230 O   0  0  0  0  0  0  0  0  0  0  0  0
  161.4570  204.9210  147.2420 C   0  0  1  0  0  0  0  0  0  0  0  0
  161.9360  204.9590  150.6760 C   0  0  0  0  0  2  0  0  0  0  0  0
  162.7220  207.3410  148.8490 N   0  0  0  0  0  0  0  0  0  0  0  0
  161.8840  207.4260  150.0120 C   0  0  0  0  0  0  0  0  0  0  0  0
  161.2340  202.6490  146.0960 N   0  0  0  0  0  1  0  0  0  0  0  0
  161.2790  204.0730  146.0010 C   0  0  0  0  0  0  0  0  0  0  0  0
  161.0780  204.6120  144.8790 O   0  0  0  0  0  0  0  0  0  0  0  0
  160.4720  206.8700  146.2140 O   0  0  0  0  0  0  0  0  0  0  0  0
  159.4960  206.2060  148.1680 O   0  0  0  0  0  1  0  0  0  0  0  0
  160.4250  206.0270  147.1490 C   0  0  0  0  0  0  0  0  0  0  0  0
  1  2  1  0  0  0  0
  2  4  1  0  0  0  0
  3  4  1  0  0  0  0
  4  5  2  0  0  0  0
  5  8  1  0  0  0  0
  6 28  1  6  0  0  0
  6  1  1  0  0  0  0
  6  7  1  0  0  0  0
  7  3  1  0  0  0  0
  9  8  1  0  0  0  0
 10  9  1  0  0  0  0
 11 10  1  0  0  0  0
 12 11  1  0  0  0  0
 13 12  1  1  0  0  0
 13 22  1  0  0  0  0
 14 15  1  0  0  0  0
 15 19  2  0  0  0  0
 15 16  1  0  0  0  0
 17 19  1  0  0  0  0
 18 20  1  0  0  0  0
 19 13  1  0  0  0  0
 20 17  2  0  0  0  0
 21 20  1  0  0  0  0
 21 14  2  0  0  0  0
 22 25  1  0  0  0  0
 23 24  2  0  0  0  0
 25 23  1  0  0  0  0
 27 26  2  0  0  0  0
 27 23  1  0  0  0  0
 29 28  1  1  0  0  0
 30 38  1  0  0  0  0
 31 37  1  0  0  0  0
 32 31  1  0  0  0  0
 33 38  1  0  0  0  0
 34 36  1  0  0  0  0
 34 33  1  0  0  0  0
 36 41  1  6  0  0  0
 36 32  1  0  0  0  0
 37 29  1  0  0  0  0
 38 39  1  0  0  0  0
 39 35  2  0  0  0  0
 39 29  1  0  0  0  0
 41 40  1  0  0  0  0
 42 41  2  0  0  0  0
 43 45  2  0  0  0  0
 45 36  1  0  0  0  0
 45 44  1  0  0  0  0
M  END
>  <MODEL>
9

>  <REMARK>
 VINA RESULT:      -4.4      3.446     10.950
  Name = 
  14 active torsions:
  status: ('A' for Active; 'I' for Inactive)
    1  A    between atoms: C_1  and  O_40
    2  A    between atoms: C_2  and  C_18
    3  A    between atoms: C_2  and  N_37
    4  A    between atoms: C_5  and  C_25
    5  A    between atoms: C_5  and  C_35
    6  A    between atoms: C_7  and  C_26
    7  A    between atoms: C_11  and  C_44
    8  A    between atoms: C_18  and  C_23
    9  A    between atoms: C_18  and  C_32
   10  A    between atoms: C_23  and  N_43
   11  A    between atoms: C_25  and  N_43
   12  A    between atoms: C_26  and  C_39
   13  A    between atoms: C_29  and  C_35
   14  A    between atoms: O_40  and  C_41
                            x       y       z     vdW  Elec       q    Type
                         _______ _______ _______ _____ _____    ______ ____

>  <TORSDO>
F 14

$$$$
