=
 OpenBabel11072413183D

 27 31  0  0  1  0  0  0  0  0999 V2000
  161.0960  205.8000  153.8010 N   0  0  0  0  0  0  0  0  0  0  0  0
  160.8200  210.0820  152.0510 C   0  0  0  0  0  3  0  0  0  0  0  0
  160.8420  206.9400  154.6250 C   0  0  0  0  0  0  0  0  0  0  0  0
  160.5910  209.3260  154.3610 C   0  0  0  0  0  0  0  0  0  0  0  0
  160.3860  209.4260  155.7510 C   0  0  0  0  0  3  0  0  0  0  0  0
  160.8110  208.0580  153.8760 C   0  0  0  0  0  0  0  0  0  0  0  0
  161.0280  207.7490  152.5840 C   0  0  0  0  0  0  0  0  0  0  0  0
  160.4160  208.2880  156.5270 N   0  0  0  0  0  0  0  0  0  0  0  0
  161.2040  206.2890  152.5880 C   0  0  0  0  0  0  0  0  0  0  0  0
  160.5920  210.3850  153.4280 C   0  0  0  0  0  0  0  0  0  0  0  0
  161.0420  208.7510  151.6120 C   0  0  0  0  0  3  0  0  0  0  0  0
  160.6400  207.0380  156.0000 C   0  0  0  0  0  3  0  0  0  0  0  0
  161.1970  205.2760  148.9080 C   0  0  0  0  0  2  0  0  0  0  0  0
  161.4750  205.4570  151.3770 C   0  0  1  0  0  3  0  0  0  0  0  0
  161.0260  204.0150  151.6120 C   0  0  0  0  0  2  0  0  0  0  0  0
  161.0850  202.9790  147.9380 C   0  0  0  0  0  3  0  0  0  0  0  0
  160.7660  206.0350  150.1590 C   0  0  0  0  0  2  0  0  0  0  0  0
  161.0300  200.9960  149.3250 C   0  0  0  0  0  3  0  0  0  0  0  0
  161.0520  201.5870  148.0590 C   0  0  0  0  0  3  0  0  0  0  0  0
  161.0870  203.1890  150.3590 C   0  0  0  0  0  0  0  0  0  0  0  0
  161.0860  203.7870  149.0780 C   0  0  0  0  0  0  0  0  0  0  0  0
  161.0430  201.7950  150.4710 C   0  0  0  0  0  3  0  0  0  0  0  0
  158.0240  211.7790  153.7750 O   0  0  0  0  0  0  0  0  0  0  0  0
  160.3670  211.7300  153.8800 N   0  0  0  0  0  2  0  0  0  0  0  0
  159.0700  213.7310  154.5030 N   0  0  0  0  0  2  0  0  0  0  0  0
  159.1000  212.3810  154.0390 C   0  0  0  0  0  0  0  0  0  0  0  0
  157.8230  214.4530  154.6870 C   0  0  0  0  0  1  0  0  0  0  0  0
  1  3  1  0  0  0  0
  2 10  1  0  0  0  0
  3 12  2  0  0  0  0
  4  5  1  0  0  0  0
  5  8  2  0  0  0  0
  6  4  1  0  0  0  0
  6  3  1  0  0  0  0
  7  9  1  0  0  0  0
  7  6  2  0  0  0  0
  9  1  2  0  0  0  0
 10 24  1  0  0  0  0
 10  4  2  0  0  0  0
 11  2  2  0  0  0  0
 11  7  1  0  0  0  0
 12  8  1  0  0  0  0
 13 21  1  0  0  0  0
 13 17  1  0  0  0  0
 14 15  1  0  0  0  0
 14  9  1  1  0  0  0
 16 19  2  0  0  0  0
 16 21  1  0  0  0  0
 17 14  1  0  0  0  0
 18 22  2  0  0  0  0
 19 18  1  0  0  0  0
 20 22  1  0  0  0  0
 20 15  1  0  0  0  0
 21 20  2  0  0  0  0
 23 26  2  0  0  0  0
 24 26  1  0  0  0  0
 25 27  1  0  0  0  0
 26 25  1  0  0  0  0
M  END
>  <MODEL>
1

>  <REMARK>
 VINA RESULT:     -10.9      0.000      0.000
  Name = 
  2 active torsions:
  status: ('A' for Active; 'I' for Inactive)
    1  A    between atoms: C_3  and  C_24
    2  A    between atoms: N_12  and  C_25
                            x       y       z     vdW  Elec       q    Type
                         _______ _______ _______ _____ _____    ______ ____

>  <TORSDO>
F 2

$$$$
=
 OpenBabel11072413183D

 27 31  0  0  1  0  0  0  0  0999 V2000
  160.8150  206.5980  152.5190 N   0  0  0  0  0  0  0  0  0  0  0  0
  161.9840  208.8600  148.6470 C   0  0  0  0  0  3  0  0  0  0  0  0
  161.1460  207.9900  152.5240 C   0  0  0  0  0  0  0  0  0  0  0  0
  161.8100  209.6840  150.9380 C   0  0  0  0  0  0  0  0  0  0  0  0
  161.8600  210.6100  151.9970 C   0  0  0  0  0  3  0  0  0  0  0  0
  161.4470  208.4010  151.2780 C   0  0  0  0  0  0  0  0  0  0  0  0
  161.3400  207.3710  150.4180 C   0  0  0  0  0  0  0  0  0  0  0  0
  161.5550  210.1990  153.2770 N   0  0  0  0  0  0  0  0  0  0  0  0
  160.9320  206.2380  151.2620 C   0  0  0  0  0  0  0  0  0  0  0  0
  162.0910  209.9370  149.5780 C   0  0  0  0  0  0  0  0  0  0  0  0
  161.6050  207.5570  149.0610 C   0  0  0  0  0  3  0  0  0  0  0  0
  161.1960  208.9050  153.5730 C   0  0  0  0  0  3  0  0  0  0  0  0
  161.0260  202.4230  151.2110 C   0  0  0  0  0  2  0  0  0  0  0  0
  160.6820  204.8510  150.7690 C   0  0  1  0  0  3  0  0  0  0  0  0
  161.1030  204.7240  149.3050 C   0  0  0  0  0  2  0  0  0  0  0  0
  161.1300  200.9060  149.2300 C   0  0  0  0  0  3  0  0  0  0  0  0
  161.4340  203.8350  151.6200 C   0  0  0  0  0  2  0  0  0  0  0  0
  161.1160  201.7480  146.9610 C   0  0  0  0  0  3  0  0  0  0  0  0
  161.1380  200.6730  147.8530 C   0  0  0  0  0  3  0  0  0  0  0  0
  161.0640  203.3020  148.8230 C   0  0  0  0  0  0  0  0  0  0  0  0
  161.1090  202.2140  149.7250 C   0  0  0  0  0  0  0  0  0  0  0  0
  161.0830  203.0590  147.4450 C   0  0  0  0  0  3  0  0  0  0  0  0
  160.8240  211.6470  147.5480 O   0  0  0  0  0  0  0  0  0  0  0  0
  162.4750  211.2590  149.1680 N   0  0  0  0  0  2  0  0  0  0  0  0
  162.3600  213.3660  147.8950 N   0  0  0  0  0  2  0  0  0  0  0  0
  161.8350  212.0680  148.1730 C   0  0  0  0  0  0  0  0  0  0  0  0
  161.7630  214.2400  146.9000 C   0  0  0  0  0  1  0  0  0  0  0  0
  1  3  1  0  0  0  0
  2 11  2  0  0  0  0
  2 10  1  0  0  0  0
  3 12  2  0  0  0  0
  4  6  1  0  0  0  0
  4  5  1  0  0  0  0
  5  8  2  0  0  0  0
  6  3  1  0  0  0  0
  7  9  1  0  0  0  0
  7  6  2  0  0  0  0
  8 12  1  0  0  0  0
  9  1  2  0  0  0  0
 10  4  2  0  0  0  0
 11  7  1  0  0  0  0
 13 17  1  0  0  0  0
 14  9  1  1  0  0  0
 14 17  1  0  0  0  0
 15 14  1  0  0  0  0
 16 21  1  0  0  0  0
 18 22  2  0  0  0  0
 18 19  1  0  0  0  0
 19 16  2  0  0  0  0
 20 15  1  0  0  0  0
 20 21  2  0  0  0  0
 21 13  1  0  0  0  0
 22 20  1  0  0  0  0
 23 26  2  0  0  0  0
 24 10  1  0  0  0  0
 25 26  1  0  0  0  0
 26 24  1  0  0  0  0
 27 25  1  0  0  0  0
M  END
>  <MODEL>
2

>  <REMARK>
 VINA RESULT:     -10.5      2.867      3.952
  Name = 
  2 active torsions:
  status: ('A' for Active; 'I' for Inactive)
    1  A    between atoms: C_3  and  C_24
    2  A    between atoms: N_12  and  C_25
                            x       y       z     vdW  Elec       q    Type
                         _______ _______ _______ _____ _____    ______ ____

>  <TORSDO>
F 2

$$$$
=
 OpenBabel11072413183D

 27 31  0  0  1  0  0  0  0  0999 V2000
  161.4320  207.0040  149.6510 N   0  0  0  0  0  0  0  0  0  0  0  0
  160.8310  206.8790  154.2440 C   0  0  0  0  0  3  0  0  0  0  0  0
  161.6210  208.1600  150.4720 C   0  0  0  0  0  0  0  0  0  0  0  0
  161.4770  208.7450  152.8090 C   0  0  0  0  0  0  0  0  0  0  0  0
  161.8480  210.0600  152.4690 C   0  0  0  0  0  3  0  0  0  0  0  0
  161.3850  207.8570  151.7620 C   0  0  0  0  0  0  0  0  0  0  0  0
  161.0450  206.5590  151.8730 C   0  0  0  0  0  0  0  0  0  0  0  0
  162.0920  210.3800  151.1510 N   0  0  0  0  0  0  0  0  0  0  0  0
  161.0910  206.0560  150.4920 C   0  0  0  0  0  0  0  0  0  0  0  0
  161.1930  208.2530  154.1010 C   0  0  0  0  0  0  0  0  0  0  0  0
  160.7540  206.0120  153.1230 C   0  0  0  0  0  3  0  0  0  0  0  0
  161.9880  209.4610  150.1340 C   0  0  0  0  0  3  0  0  0  0  0  0
  161.0330  202.2440  150.6760 C   0  0  0  0  0  2  0  0  0  0  0  0
  160.7870  204.6520  150.0840 C   0  0  1  0  0  3  0  0  0  0  0  0
  161.2060  204.4190  148.6320 C   0  0  0  0  0  2  0  0  0  0  0  0
  161.0820  200.6060  148.7930 C   0  0  0  0  0  3  0  0  0  0  0  0
  161.4960  203.6610  150.9990 C   0  0  0  0  0  2  0  0  0  0  0  0
  161.1080  201.3060  146.4760 C   0  0  0  0  0  3  0  0  0  0  0  0
  161.0840  200.2880  147.4320 C   0  0  0  0  0  3  0  0  0  0  0  0
  161.1130  202.9720  148.2380 C   0  0  0  0  0  0  0  0  0  0  0  0
  161.1120  201.9410  149.2060 C   0  0  0  0  0  0  0  0  0  0  0  0
  161.1260  202.6440  146.8790 C   0  0  0  0  0  3  0  0  0  0  0  0
  159.2290  210.2570  154.9840 O   0  0  0  0  0  0  0  0  0  0  0  0
  161.2740  209.1370  155.2300 N   0  0  0  0  0  2  0  0  0  0  0  0
  160.5510  210.9010  156.7920 N   0  0  0  0  0  2  0  0  0  0  0  0
  160.2980  210.1040  155.6350 C   0  0  0  0  0  0  0  0  0  0  0  0
  159.6070  211.9000  157.2600 C   0  0  0  0  0  1  0  0  0  0  0  0
  1  3  1  0  0  0  0
  1  9  2  0  0  0  0
  3  6  2  0  0  0  0
  4 10  1  0  0  0  0
  5  4  2  0  0  0  0
  6  7  1  0  0  0  0
  6  4  1  0  0  0  0
  7 11  2  0  0  0  0
  8  5  1  0  0  0  0
  9  7  1  0  0  0  0
 10  2  2  0  0  0  0
 10 24  1  0  0  0  0
 11  2  1  0  0  0  0
 12  3  1  0  0  0  0
 12  8  2  0  0  0  0
 13 17  1  0  0  0  0
 14  9  1  1  0  0  0
 14 17  1  0  0  0  0
 15 14  1  0  0  0  0
 16 21  1  0  0  0  0
 18 22  2  0  0  0  0
 18 19  1  0  0  0  0
 19 16  2  0  0  0  0
 20 15  1  0  0  0  0
 20 21  2  0  0  0  0
 21 13  1  0  0  0  0
 22 20  1  0  0  0  0
 23 26  2  0  0  0  0
 24 26  1  0  0  0  0
 25 27  1  0  0  0  0
 26 25  1  0  0  0  0
M  END
>  <MODEL>
3

>  <REMARK>
 VINA RESULT:     -10.5      1.827      3.331
  Name = 
  2 active torsions:
  status: ('A' for Active; 'I' for Inactive)
    1  A    between atoms: C_3  and  C_24
    2  A    between atoms: N_12  and  C_25
                            x       y       z     vdW  Elec       q    Type
                         _______ _______ _______ _____ _____    ______ ____

>  <TORSDO>
F 2

$$$$
=
 OpenBabel11072413183D

 27 31  0  0  1  0  0  0  0  0999 V2000
  161.9710  206.8520  148.7270 N   0  0  0  0  0  0  0  0  0  0  0  0
  160.8060  202.3680  148.6690 C   0  0  0  0  0  3  0  0  0  0  0  0
  161.8140  206.1260  147.5050 C   0  0  0  0  0  0  0  0  0  0  0  0
  161.2490  203.8850  146.8080 C   0  0  0  0  0  0  0  0  0  0  0  0
  161.3920  204.2990  145.4700 C   0  0  0  0  0  3  0  0  0  0  0  0
  161.4740  204.8490  147.7630 C   0  0  0  0  0  0  0  0  0  0  0  0
  161.3900  204.6580  149.0940 C   0  0  0  0  0  0  0  0  0  0  0  0
  161.7390  205.6040  145.1950 N   0  0  0  0  0  0  0  0  0  0  0  0
  161.7170  205.9720  149.6670 C   0  0  0  0  0  0  0  0  0  0  0  0
  160.9020  202.5940  147.2620 C   0  0  0  0  0  0  0  0  0  0  0  0
  161.0510  203.4050  149.6050 C   0  0  0  0  0  3  0  0  0  0  0  0
  161.9560  206.5370  146.1810 C   0  0  0  0  0  3  0  0  0  0  0  0
  161.2050  205.4640  153.4150 C   0  0  0  0  0  2  0  0  0  0  0  0
  161.7610  206.2810  151.1270 C   0  0  1  0  0  3  0  0  0  0  0  0
  161.1760  207.6670  151.3950 C   0  0  0  0  0  2  0  0  0  0  0  0
  160.7280  207.1870  155.1570 C   0  0  0  0  0  3  0  0  0  0  0  0
  160.9980  205.2280  151.9220 C   0  0  0  0  0  2  0  0  0  0  0  0
  160.5910  209.5460  154.6320 C   0  0  0  0  0  3  0  0  0  0  0  0
  160.5480  208.5100  155.5680 C   0  0  0  0  0  3  0  0  0  0  0  0
  161.0090  207.9400  152.8630 C   0  0  0  0  0  0  0  0  0  0  0  0
  160.9420  206.8900  153.8080 C   0  0  0  0  0  0  0  0  0  0  0  0
  160.8170  209.2610  153.2830 C   0  0  0  0  0  3  0  0  0  0  0  0
  161.9540  199.8470  147.2650 O   0  0  0  0  0  0  0  0  0  0  0  0
  160.6550  201.5490  146.3080 N   0  0  0  0  0  2  0  0  0  0  0  0
  160.8280  199.3090  145.2960 N   0  0  0  0  0  2  0  0  0  0  0  0
  161.1840  200.2180  146.3380 C   0  0  0  0  0  0  0  0  0  0  0  0
  161.3250  197.9440  145.2620 C   0  0  0  0  0  1  0  0  0  0  0  0
  1  9  2  0  0  0  0
  2 11  2  0  0  0  0
  3  6  1  0  0  0  0
  3  1  1  0  0  0  0
  4 10  2  0  0  0  0
  4  6  1  0  0  0  0
  5  4  1  0  0  0  0
  6  7  2  0  0  0  0
  7 11  1  0  0  0  0
  7  9  1  0  0  0  0
  8  5  2  0  0  0  0
  8 12  1  0  0  0  0
 10  2  1  0  0  0  0
 12  3  2  0  0  0  0
 13 21  1  0  0  0  0
 14  9  1  6  0  0  0
 14 15  1  0  0  0  0
 14 17  1  0  0  0  0
 15 20  1  0  0  0  0
 16 19  1  0  0  0  0
 17 13  1  0  0  0  0
 18 19  2  0  0  0  0
 20 22  2  0  0  0  0
 20 21  1  0  0  0  0
 21 16  2  0  0  0  0
 22 18  1  0  0  0  0
 24 26  1  0  0  0  0
 24 10  1  0  0  0  0
 25 26  1  0  0  0  0
 26 23  2  0  0  0  0
 27 25  1  0  0  0  0
M  END
>  <MODEL>
4

>  <REMARK>
 VINA RESULT:      -9.8      4.524      9.619
  Name = 
  2 active torsions:
  status: ('A' for Active; 'I' for Inactive)
    1  A    between atoms: C_3  and  C_24
    2  A    between atoms: N_12  and  C_25
                            x       y       z     vdW  Elec       q    Type
                         _______ _______ _______ _____ _____    ______ ____

>  <TORSDO>
F 2

$$$$
=
 OpenBabel11072413183D

 27 31  0  0  1  0  0  0  0  0999 V2000
  162.0710  207.8880  147.7350 N   0  0  0  0  0  0  0  0  0  0  0  0
  161.3580  206.5580  152.1160 C   0  0  0  0  0  3  0  0  0  0  0  0
  161.9730  208.8300  148.8060 C   0  0  0  0  0  0  0  0  0  0  0  0
  161.6260  208.8020  151.1950 C   0  0  0  0  0  0  0  0  0  0  0  0
  161.7100  210.2080  151.1910 C   0  0  0  0  0  3  0  0  0  0  0  0
  161.7670  208.1890  149.9720 C   0  0  0  0  0  0  0  0  0  0  0  0
  161.7180  206.8600  149.7600 C   0  0  0  0  0  0  0  0  0  0  0  0
  161.9210  210.8740  150.0030 N   0  0  0  0  0  0  0  0  0  0  0  0
  161.9190  206.7190  148.3100 C   0  0  0  0  0  0  0  0  0  0  0  0
  161.4140  207.9710  152.3150 C   0  0  0  0  0  0  0  0  0  0  0  0
  161.5110  205.9840  150.8270 C   0  0  0  0  0  3  0  0  0  0  0  0
  162.0570  210.2210  148.8010 C   0  0  0  0  0  3  0  0  0  0  0  0
  161.2400  204.2180  145.5080 C   0  0  0  0  0  2  0  0  0  0  0  0
  161.9460  205.4200  147.5730 C   0  0  1  0  0  3  0  0  0  0  0  0
  161.4890  204.2820  148.4860 C   0  0  0  0  0  2  0  0  0  0  0  0
  160.8760  201.7550  145.6900 C   0  0  0  0  0  3  0  0  0  0  0  0
  161.0590  205.4870  146.3350 C   0  0  0  0  0  2  0  0  0  0  0  0
  160.9850  200.5900  147.8090 C   0  0  0  0  0  3  0  0  0  0  0  0
  160.8110  200.5670  146.4220 C   0  0  0  0  0  3  0  0  0  0  0  0
  161.3020  202.9930  147.7380 C   0  0  0  0  0  0  0  0  0  0  0  0
  161.1030  202.9720  146.3380 C   0  0  0  0  0  0  0  0  0  0  0  0
  161.2250  201.8000  148.4640 C   0  0  0  0  0  3  0  0  0  0  0  0
  160.4830  206.6840  154.7910 O   0  0  0  0  0  0  0  0  0  0  0  0
  161.2600  208.5590  153.6160 N   0  0  0  0  0  2  0  0  0  0  0  0
  160.7130  208.6520  156.0170 N   0  0  0  0  0  2  0  0  0  0  0  0
  160.8030  207.9030  154.8060 C   0  0  0  0  0  0  0  0  0  0  0  0
  160.2590  208.0540  157.2600 C   0  0  0  0  0  1  0  0  0  0  0  0
  1  9  2  0  0  0  0
  1  3  1  0  0  0  0
  2 10  1  0  0  0  0
  3  6  1  0  0  0  0
  4 10  2  0  0  0  0
  5  4  1  0  0  0  0
  6  4  1  0  0  0  0
  7  6  2  0  0  0  0
  7 11  1  0  0  0  0
  8  5  2  0  0  0  0
  9  7  1  0  0  0  0
 10 24  1  0  0  0  0
 11  2  2  0  0  0  0
 12  3  2  0  0  0  0
 12  8  1  0  0  0  0
 13 17  1  0  0  0  0
 13 21  1  0  0  0  0
 14  9  1  1  0  0  0
 14 15  1  0  0  0  0
 16 21  2  0  0  0  0
 16 19  1  0  0  0  0
 17 14  1  0  0  0  0
 18 22  1  0  0  0  0
 19 18  2  0  0  0  0
 20 22  2  0  0  0  0
 20 15  1  0  0  0  0
 21 20  1  0  0  0  0
 23 26  2  0  0  0  0
 24 26  1  0  0  0  0
 25 27  1  0  0  0  0
 26 25  1  0  0  0  0
M  END
>  <MODEL>
5

>  <REMARK>
 VINA RESULT:      -9.6      2.622      4.474
  Name = 
  2 active torsions:
  status: ('A' for Active; 'I' for Inactive)
    1  A    between atoms: C_3  and  C_24
    2  A    between atoms: N_12  and  C_25
                            x       y       z     vdW  Elec       q    Type
                         _______ _______ _______ _____ _____    ______ ____

>  <TORSDO>
F 2

$$$$
=
 OpenBabel11072413183D

 27 31  0  0  1  0  0  0  0  0999 V2000
  162.1130  208.2570  148.1490 N   0  0  0  0  0  0  0  0  0  0  0  0
  161.3630  208.3210  152.7210 C   0  0  0  0  0  3  0  0  0  0  0  0
  161.9840  209.4800  148.8790 C   0  0  0  0  0  0  0  0  0  0  0  0
  161.6030  210.1800  151.1570 C   0  0  0  0  0  0  0  0  0  0  0  0
  161.6620  211.5170  150.7220 C   0  0  0  0  0  3  0  0  0  0  0  0
  161.7720  209.2230  150.1830 C   0  0  0  0  0  0  0  0  0  0  0  0
  161.7500  207.8930  150.3890 C   0  0  0  0  0  0  0  0  0  0  0  0
  161.8780  211.7910  149.3890 N   0  0  0  0  0  0  0  0  0  0  0  0
  161.9740  207.3170  149.0550 C   0  0  0  0  0  0  0  0  0  0  0  0
  161.3910  209.7280  152.4770 C   0  0  0  0  0  0  0  0  0  0  0  0
  161.5440  207.3830  151.6720 C   0  0  0  0  0  3  0  0  0  0  0  0
  162.0420  210.8030  148.4470 C   0  0  0  0  0  3  0  0  0  0  0  0
  161.7540  204.1100  146.9970 C   0  0  0  0  0  2  0  0  0  0  0  0
  162.0340  205.8560  148.7530 C   0  0  1  0  0  3  0  0  0  0  0  0
  161.2180  205.0680  149.7780 C   0  0  0  0  0  2  0  0  0  0  0  0
  161.0560  201.8350  147.7520 C   0  0  0  0  0  3  0  0  0  0  0  0
  161.5190  205.5770  147.3460 C   0  0  0  0  0  2  0  0  0  0  0  0
  160.4610  201.3670  150.0510 C   0  0  0  0  0  3  0  0  0  0  0  0
  160.6570  200.9300  148.7380 C   0  0  0  0  0  3  0  0  0  0  0  0
  161.0780  203.6210  149.4010 C   0  0  0  0  0  0  0  0  0  0  0  0
  161.2530  203.1820  148.0680 C   0  0  0  0  0  0  0  0  0  0  0  0
  160.6670  202.7090  150.3800 C   0  0  0  0  0  3  0  0  0  0  0  0
  158.9300  211.1500  153.2350 O   0  0  0  0  0  0  0  0  0  0  0  0
  161.2090  210.6840  153.5330 N   0  0  0  0  0  2  0  0  0  0  0  0
  160.0020  212.2850  154.9660 N   0  0  0  0  0  2  0  0  0  0  0  0
  159.9940  211.3610  153.8780 C   0  0  0  0  0  0  0  0  0  0  0  0
  158.8080  213.0060  155.3720 C   0  0  0  0  0  1  0  0  0  0  0  0
  1  3  1  0  0  0  0
  1  9  2  0  0  0  0
  3  6  2  0  0  0  0
  4 10  1  0  0  0  0
  5  4  2  0  0  0  0
  6  7  1  0  0  0  0
  6  4  1  0  0  0  0
  7 11  2  0  0  0  0
  8  5  1  0  0  0  0
  9  7  1  0  0  0  0
 10  2  2  0  0  0  0
 10 24  1  0  0  0  0
 11  2  1  0  0  0  0
 12  3  1  0  0  0  0
 12  8  2  0  0  0  0
 13 17  1  0  0  0  0
 13 21  1  0  0  0  0
 14  9  1  1  0  0  0
 14 15  1  0  0  0  0
 16 21  2  0  0  0  0
 16 19  1  0  0  0  0
 17 14  1  0  0  0  0
 18 22  1  0  0  0  0
 19 18  2  0  0  0  0
 20 15  1  0  0  0  0
 20 22  2  0  0  0  0
 21 20  1  0  0  0  0
 23 26  2  0  0  0  0
 24 26  1  0  0  0  0
 25 27  1  0  0  0  0
 26 25  1  0  0  0  0
M  END
>  <MODEL>
6

>  <REMARK>
 VINA RESULT:      -9.6      2.121      3.599
  Name = 
  2 active torsions:
  status: ('A' for Active; 'I' for Inactive)
    1  A    between atoms: C_3  and  C_24
    2  A    between atoms: N_12  and  C_25
                            x       y       z     vdW  Elec       q    Type
                         _______ _______ _______ _____ _____    ______ ____

>  <TORSDO>
F 2

$$$$
=
 OpenBabel11072413183D

 27 31  0  0  1  0  0  0  0  0999 V2000
  161.2240  204.8840  153.0720 N   0  0  0  0  0  0  0  0  0  0  0  0
  160.9100  206.6980  148.8190 C   0  0  0  0  0  3  0  0  0  0  0  0
  161.1110  204.0650  151.9040 C   0  0  0  0  0  0  0  0  0  0  0  0
  160.9190  204.3590  149.5170 C   0  0  0  0  0  0  0  0  0  0  0  0
  160.8780  202.9590  149.3800 C   0  0  0  0  0  3  0  0  0  0  0  0
  161.0360  204.8340  150.8020 C   0  0  0  0  0  0  0  0  0  0  0  0
  161.0920  206.1340  151.1470 C   0  0  0  0  0  0  0  0  0  0  0  0
  160.9540  202.1620  150.5020 N   0  0  0  0  0  0  0  0  0  0  0  0
  161.2130  206.1130  152.6130 C   0  0  0  0  0  0  0  0  0  0  0  0
  160.8530  205.3130  148.4780 C   0  0  0  0  0  0  0  0  0  0  0  0
  161.0310  207.1260  150.1670 C   0  0  0  0  0  3  0  0  0  0  0  0
  161.0710  202.6790  151.7710 C   0  0  0  0  0  3  0  0  0  0  0  0
  160.9140  208.2530  155.7590 C   0  0  0  0  0  2  0  0  0  0  0  0
  161.3080  207.3250  153.4800 C   0  0  1  0  0  3  0  0  0  0  0  0
  160.6510  208.5220  152.7940 C   0  0  0  0  0  2  0  0  0  0  0  0
  160.4140  210.6930  155.9260 C   0  0  0  0  0  3  0  0  0  0  0  0
  160.6500  207.0710  154.8320 C   0  0  0  0  0  2  0  0  0  0  0  0
  160.1060  212.0820  153.9680 C   0  0  0  0  0  3  0  0  0  0  0  0
  160.1730  211.9460  155.3570 C   0  0  0  0  0  3  0  0  0  0  0  0
  160.5380  209.7100  153.7060 C   0  0  0  0  0  0  0  0  0  0  0  0
  160.5820  209.5690  155.1130 C   0  0  0  0  0  0  0  0  0  0  0  0
  160.2850  210.9660  153.1460 C   0  0  0  0  0  3  0  0  0  0  0  0
  161.9670  206.5610  146.0580 O   0  0  0  0  0  0  0  0  0  0  0  0
  160.7310  204.8720  147.1170 N   0  0  0  0  0  2  0  0  0  0  0  0
  161.0600  204.9200  144.6750 N   0  0  0  0  0  2  0  0  0  0  0  0
  161.2870  205.5040  145.9570 C   0  0  0  0  0  0  0  0  0  0  0  0
  161.5920  205.5050  143.4570 C   0  0  0  0  0  1  0  0  0  0  0  0
  2 11  1  0  0  0  0
  3  1  1  0  0  0  0
  4  6  1  0  0  0  0
  5  4  2  0  0  0  0
  5  8  1  0  0  0  0
  6  7  1  0  0  0  0
  6  3  2  0  0  0  0
  7  9  1  0  0  0  0
  8 12  2  0  0  0  0
  9  1  2  0  0  0  0
 10  2  2  0  0  0  0
 10  4  1  0  0  0  0
 11  7  2  0  0  0  0
 12  3  1  0  0  0  0
 14  9  1  6  0  0  0
 14 17  1  0  0  0  0
 15 14  1  0  0  0  0
 15 20  1  0  0  0  0
 17 13  1  0  0  0  0
 18 19  2  0  0  0  0
 19 16  1  0  0  0  0
 20 21  1  0  0  0  0
 21 13  1  0  0  0  0
 21 16  2  0  0  0  0
 22 20  2  0  0  0  0
 22 18  1  0  0  0  0
 24 10  1  0  0  0  0
 25 26  1  0  0  0  0
 26 23  2  0  0  0  0
 26 24  1  0  0  0  0
 27 25  1  0  0  0  0
M  END
>  <MODEL>
7

>  <REMARK>
 VINA RESULT:      -9.5      3.401      8.226
  Name = 
  2 active torsions:
  status: ('A' for Active; 'I' for Inactive)
    1  A    between atoms: C_3  and  C_24
    2  A    between atoms: N_12  and  C_25
                            x       y       z     vdW  Elec       q    Type
                         _______ _______ _______ _____ _____    ______ ____

>  <TORSDO>
F 2

$$$$
=
 OpenBabel11072413183D

 27 31  0  0  1  0  0  0  0  0999 V2000
  161.1560  205.9930  153.5970 N   0  0  0  0  0  0  0  0  0  0  0  0
  160.5180  210.4580  152.5360 C   0  0  0  0  0  3  0  0  0  0  0  0
  161.1980  207.0210  154.5900 C   0  0  0  0  0  0  0  0  0  0  0  0
  160.9590  209.4200  154.7010 C   0  0  0  0  0  0  0  0  0  0  0  0
  161.1800  209.3450  156.0900 C   0  0  0  0  0  3  0  0  0  0  0  0
  160.9830  208.2230  154.0240 C   0  0  0  0  0  0  0  0  0  0  0  0
  160.7960  208.0770  152.6980 C   0  0  0  0  0  0  0  0  0  0  0  0
  161.4010  208.1200  156.6790 N   0  0  0  0  0  0  0  0  0  0  0  0
  160.9160  206.6290  152.4750 C   0  0  0  0  0  0  0  0  0  0  0  0
  160.7190  210.5870  153.9440 C   0  0  0  0  0  0  0  0  0  0  0  0
  160.5540  209.1930  151.8950 C   0  0  0  0  0  3  0  0  0  0  0  0
  161.4160  206.9450  155.9640 C   0  0  0  0  0  3  0  0  0  0  0  0
  160.9370  203.7910  149.9230 C   0  0  0  0  0  2  0  0  0  0  0  0
  160.7870  205.9560  151.1480 C   0  0  1  0  0  3  0  0  0  0  0  0
  161.6070  206.6990  150.0930 C   0  0  0  0  0  2  0  0  0  0  0  0
  161.5700  203.8870  147.5100 C   0  0  0  0  0  3  0  0  0  0  0  0
  161.2420  204.5030  151.2370 C   0  0  0  0  0  2  0  0  0  0  0  0
  162.2240  205.9530  146.4320 C   0  0  0  0  0  3  0  0  0  0  0  0
  161.9660  204.5810  146.3650 C   0  0  0  0  0  3  0  0  0  0  0  0
  161.6760  205.9480  148.7940 C   0  0  0  0  0  0  0  0  0  0  0  0
  161.4380  204.5560  148.7300 C   0  0  0  0  0  0  0  0  0  0  0  0
  162.0830  206.6330  147.6440 C   0  0  0  0  0  3  0  0  0  0  0  0
  158.4210  211.9140  155.2130 O   0  0  0  0  0  0  0  0  0  0  0  0
  160.6840  211.8640  154.6010 N   0  0  0  0  0  2  0  0  0  0  0  0
  159.6990  213.7660  155.8200 N   0  0  0  0  0  2  0  0  0  0  0  0
  159.5450  212.4840  155.2110 C   0  0  0  0  0  0  0  0  0  0  0  0
  158.5890  214.4530  156.4570 C   0  0  0  0  0  1  0  0  0  0  0  0
  1  3  1  0  0  0  0
  2 10  1  0  0  0  0
  3 12  2  0  0  0  0
  4  5  1  0  0  0  0
  5  8  2  0  0  0  0
  6  3  1  0  0  0  0
  6  4  1  0  0  0  0
  7  6  2  0  0  0  0
  9  7  1  0  0  0  0
  9  1  2  0  0  0  0
 10 24  1  0  0  0  0
 10  4  2  0  0  0  0
 11  2  2  0  0  0  0
 11  7  1  0  0  0  0
 12  8  1  0  0  0  0
 13 17  1  0  0  0  0
 14 17  1  0  0  0  0
 14  9  1  1  0  0  0
 15 14  1  0  0  0  0
 16 21  1  0  0  0  0
 18 22  2  0  0  0  0
 19 18  1  0  0  0  0
 19 16  2  0  0  0  0
 20 15  1  0  0  0  0
 21 20  2  0  0  0  0
 21 13  1  0  0  0  0
 22 20  1  0  0  0  0
 24 26  1  0  0  0  0
 25 27  1  0  0  0  0
 26 23  2  0  0  0  0
 26 25  1  0  0  0  0
M  END
>  <MODEL>
8

>  <REMARK>
 VINA RESULT:      -9.3      1.196      2.148
  Name = 
  2 active torsions:
  status: ('A' for Active; 'I' for Inactive)
    1  A    between atoms: C_3  and  C_24
    2  A    between atoms: N_12  and  C_25
                            x       y       z     vdW  Elec       q    Type
                         _______ _______ _______ _____ _____    ______ ____

>  <TORSDO>
F 2

$$$$
=
 OpenBabel11072413183D

 27 31  0  0  1  0  0  0  0  0999 V2000
  161.6310  207.2810  148.4180 N   0  0  0  0  0  0  0  0  0  0  0  0
  160.9010  202.8660  149.6210 C   0  0  0  0  0  3  0  0  0  0  0  0
  161.8710  206.2000  147.5140 C   0  0  0  0  0  0  0  0  0  0  0  0
  161.7040  203.7920  147.5100 C   0  0  0  0  0  0  0  0  0  0  0  0
  162.1690  203.7940  146.1810 C   0  0  0  0  0  3  0  0  0  0  0  0
  161.5810  205.0260  148.1050 C   0  0  0  0  0  0  0  0  0  0  0  0
  161.1570  205.2410  149.3650 C   0  0  0  0  0  0  0  0  0  0  0  0
  162.4680  204.9900  145.5660 N   0  0  0  0  0  0  0  0  0  0  0  0
  161.2060  206.7030  149.5170 C   0  0  0  0  0  0  0  0  0  0  0  0
  161.3550  202.6630  148.2820 C   0  0  0  0  0  0  0  0  0  0  0  0
  160.7970  204.1670  150.1800 C   0  0  0  0  0  3  0  0  0  0  0  0
  162.3310  206.2030  146.1990 C   0  0  0  0  0  3  0  0  0  0  0  0
  161.0530  209.5860  152.0130 C   0  0  0  0  0  2  0  0  0  0  0  0
  160.8280  207.4470  150.7550 C   0  0  1  0  0  3  0  0  0  0  0  0
  161.1140  206.5970  151.9930 C   0  0  0  0  0  2  0  0  0  0  0  0
  160.8920  209.4680  154.5010 C   0  0  0  0  0  3  0  0  0  0  0  0
  161.5840  208.7680  150.8400 C   0  0  0  0  0  2  0  0  0  0  0  0
  160.7390  207.3620  155.6840 C   0  0  0  0  0  3  0  0  0  0  0  0
  160.7690  208.7580  155.6990 C   0  0  0  0  0  3  0  0  0  0  0  0
  160.9440  207.3740  153.2680 C   0  0  0  0  0  0  0  0  0  0  0  0
  160.9970  208.7870  153.2850 C   0  0  0  0  0  0  0  0  0  0  0  0
  160.8310  206.6720  154.4720 C   0  0  0  0  0  3  0  0  0  0  0  0
  160.0950  201.6430  145.8280 O   0  0  0  0  0  0  0  0  0  0  0  0
  161.4640  201.3510  147.7100 N   0  0  0  0  0  2  0  0  0  0  0  0
  161.0590  199.5370  146.0910 N   0  0  0  0  0  2  0  0  0  0  0  0
  160.8360  200.8830  146.5090 C   0  0  0  0  0  0  0  0  0  0  0  0
  160.4560  198.9960  144.8860 C   0  0  0  0  0  1  0  0  0  0  0  0
  1  9  2  0  0  0  0
  2 11  1  0  0  0  0
  3  6  1  0  0  0  0
  3  1  1  0  0  0  0
  4  6  2  0  0  0  0
  4 10  1  0  0  0  0
  5  4  1  0  0  0  0
  6  7  1  0  0  0  0
  7  9  1  0  0  0  0
  7 11  2  0  0  0  0
  8  5  2  0  0  0  0
  8 12  1  0  0  0  0
 10  2  2  0  0  0  0
 12  3  2  0  0  0  0
 13 21  1  0  0  0  0
 14  9  1  6  0  0  0
 14 17  1  0  0  0  0
 14 15  1  0  0  0  0
 15 20  1  0  0  0  0
 16 19  1  0  0  0  0
 17 13  1  0  0  0  0
 18 19  2  0  0  0  0
 20 21  1  0  0  0  0
 20 22  2  0  0  0  0
 21 16  2  0  0  0  0
 22 18  1  0  0  0  0
 23 26  2  0  0  0  0
 24 10  1  0  0  0  0
 25 26  1  0  0  0  0
 26 24  1  0  0  0  0
 27 25  1  0  0  0  0
M  END
>  <MODEL>
9

>  <REMARK>
 VINA RESULT:      -8.9      4.205      9.272
  Name = 
  2 active torsions:
  status: ('A' for Active; 'I' for Inactive)
    1  A    between atoms: C_3  and  C_24
    2  A    between atoms: N_12  and  C_25
                            x       y       z     vdW  Elec       q    Type
                         _______ _______ _______ _____ _____    ______ ____

>  <TORSDO>
F 2

$$$$
