=
 OpenBabel11072411383D

 61 66  0  0  1  0  0  0  0  0999 V2000
  161.3570  209.5440  155.2860 C   0  0  1  0  0  3  0  0  0  0  0  0
  159.8450  213.0520  155.4540 C   0  0  2  0  0  3  0  0  0  0  0  0
  160.9350  212.1130  154.8890 C   0  0  1  0  0  3  0  0  0  0  0  0
  158.9710  212.0980  156.1990 C   0  0  0  0  0  0  0  0  0  0  0  0
  157.8700  212.4000  156.7360 O   0  0  0  0  0  0  0  0  0  0  0  0
  160.8880  210.8970  155.8510 C   0  0  1  0  0  3  0  0  0  0  0  0
  159.5640  210.8640  156.3640 O   0  0  0  0  0  0  0  0  0  0  0  0
  157.6040  213.9960  154.7710 C   0  0  0  0  0  2  0  0  0  0  0  0
  159.1740  213.3180  153.0500 C   0  0  0  0  0  2  0  0  0  0  0  0
  155.8470  212.5210  154.1060 F   0  0  0  0  0  0  0  0  0  0  0  0
  157.9050  212.5130  152.8860 C   0  0  2  0  0  0  0  0  0  0  0  0
  156.8620  213.3290  153.6220 C   0  0  2  0  0  3  0  0  0  0  0  0
  158.0630  211.2740  153.4910 F   0  0  0  0  0  0  0  0  0  0  0  0
  159.0960  213.9360  154.4380 C   0  0  2  0  0  3  0  0  0  0  0  0
  157.5540  212.3300  151.4190 C   0  0  0  0  0  2  0  0  0  0  0  0
  156.8320  214.4380  148.7070 O   0  0  0  0  0  0  0  0  0  0  0  0
  157.6580  213.7270  149.3370 C   0  0  0  0  0  0  0  0  0  0  0  0
  157.5670  213.6270  150.7540 N   0  0  0  0  0  2  0  0  0  0  0  0
  158.7910  213.0910  148.5930 C   0  0  0  0  0  2  0  0  0  0  0  0
  159.7240  214.1610  148.0430 C   0  0  0  0  0  2  0  0  0  0  0  0
  161.8360  213.8340  147.2560 O   0  0  0  0  0  1  0  0  0  0  0  0
  160.5300  213.6240  146.9540 N   0  0  0  0  0  0  0  0  0  0  0  0
  160.2090  214.3420  145.7170 C   0  0  0  0  0  2  0  0  0  0  0  0
  161.1480  213.8340  143.5820 O   0  0  0  0  0  1  0  0  0  0  0  0
  160.1690  213.4350  144.4900 C   0  0  0  0  0  2  0  0  0  0  0  0
  161.8640  211.4470  152.8000 F   0  0  0  0  0  0  0  0  0  0  0  0
  160.6590  211.7130  153.4330 C   0  0  0  0  0  2  0  0  0  0  0  0
  162.1350  207.3900  156.2980 O   0  0  0  0  0  0  0  0  0  0  0  0
  161.1920  208.3970  156.2980 C   0  0  0  0  0  0  0  0  0  0  0  0
  162.2110  208.3570  157.2330 O   0  0  0  0  0  0  0  0  0  0  0  0
  159.8240  208.0120  156.8530 C   0  0  0  0  0  3  0  0  0  0  0  0
  159.6720  206.6380  156.8070 F   0  0  0  0  0  0  0  0  0  0  0  0
  158.8060  208.6020  156.1190 F   0  0  0  0  0  0  0  0  0  0  0  0
  160.6220  209.1720  153.9980 C   0  0  0  0  0  2  0  0  0  0  0  0
  161.1680  205.4160  153.4000 C   0  0  0  0  0  2  0  0  0  0  0  0
  161.2760  206.6410  151.1770 C   0  0  1  0  0  3  0  0  0  0  0  0
  160.8170  207.9180  151.8850 C   0  0  0  0  0  2  0  0  0  0  0  0
  160.6010  206.6760  154.0390 C   0  0  0  0  0  2  0  0  0  0  0  0
  161.1870  207.9120  153.3610 C   0  0  2  0  0  3  0  0  0  0  0  0
  160.8070  205.3710  151.9140 C   0  0  1  0  0  3  0  0  0  0  0  0
  160.9010  202.8380  151.5150 C   0  0  0  0  0  0  0  0  0  0  0  0
  159.8890  202.6470  152.2510 O   0  0  0  0  0  0  0  0  0  0  0  0
  161.3780  204.1740  151.2950 N   0  0  0  0  0  2  0  0  0  0  0  0
  161.5980  201.6920  150.8900 C   0  0  0  0  0  0  0  0  0  0  0  0
  162.6430  201.1600  151.5090 C   0  0  0  0  0  2  0  0  0  0  0  0
  161.0760  201.0410  149.6660 C   0  0  0  0  0  0  0  0  0  0  0  0
  161.9440  200.5940  148.6790 O   0  0  0  0  0  0  0  0  0  0  0  0
  159.8330  200.9020  149.4990 O   0  0  0  0  0  1  0  0  0  0  0  0
  160.8440  206.6430  149.7030 C   0  0  0  0  0  2  0  0  0  0  0  0
  160.6920  208.0430  149.1020 C   0  0  0  0  0  2  0  0  0  0  0  0
  161.8480  208.3550  148.1580 C   0  0  1  0  0  3  0  0  0  0  0  0
  162.6490  209.6000  148.5730 C   0  0  0  0  0  2  0  0  0  0  0  0
  161.8880  210.7470  148.3400 O   0  0  0  0  0  1  0  0  0  0  0  0
  162.6030  207.2060  147.8200 O   0  0  0  0  0  0  0  0  0  0  0  0
  160.0470  203.6910  144.6730 C   0  0  0  0  0  1  0  0  0  0  0  0
  161.4890  205.6070  144.8030 O   0  0  0  0  0  0  0  0  0  0  0  0
  161.8230  206.3140  147.0620 C   0  0  2  0  0  3  0  0  0  0  0  0
  161.4410  204.2130  144.9670 C   0  0  1  0  0  3  0  0  0  0  0  0
  162.6590  205.0650  146.8120 C   0  0  1  0  0  3  0  0  0  0  0  0
  161.8030  203.9030  146.3980 C   0  0  0  0  0  2  0  0  0  0  0  0
  162.4670  206.0810  145.7030 C   0  0  1  0  0  3  0  0  0  0  0  0
  1 34  1  6  0  0  0
  1 29  1  0  0  0  0
  2  4  1  6  0  0  0
  3 27  1  6  0  0  0
  3  2  1  0  0  0  0
  3  6  1  0  0  0  0
  4  7  1  0  0  0  0
  4  5  2  0  0  0  0
  6  1  1  6  0  0  0
  6  7  1  0  0  0  0
 11  9  1  0  0  0  0
 11 13  1  1  0  0  0
 11 12  1  0  0  0  0
 12 10  1  1  0  0  0
 12  8  1  0  0  0  0
 14  9  1  6  0  0  0
 14  8  1  0  0  0  0
 14  2  1  0  0  0  0
 15 11  1  0  0  0  0
 16 17  2  0  0  0  0
 17 18  1  0  0  0  0
 18 15  1  0  0  0  0
 19 17  1  0  0  0  0
 20 19  1  0  0  0  0
 22 21  1  0  0  0  0
 22 20  1  0  0  0  0
 23 22  1  0  0  0  0
 24 25  1  0  0  0  0
 25 23  1  0  0  0  0
 26 27  1  0  0  0  0
 28 30  1  0  0  0  0
 29 28  1  0  0  0  0
 29 31  1  0  0  0  0
 29 30  1  0  0  0  0
 32 31  1  0  0  0  0
 33 31  1  0  0  0  0
 35 38  1  0  0  0  0
 36 49  1  6  0  0  0
 36 37  1  0  0  0  0
 36 40  1  0  0  0  0
 37 39  1  0  0  0  0
 39 34  1  1  0  0  0
 39 38  1  0  0  0  0
 40 43  1  6  0  0  0
 40 35  1  0  0  0  0
 41 42  2  0  0  0  0
 43 41  1  0  0  0  0
 44 45  2  0  0  0  0
 44 41  1  0  0  0  0
 46 44  1  0  0  0  0
 47 46  2  0  0  0  0
 48 46  1  0  0  0  0
 50 49  1  0  0  0  0
 51 52  1  1  0  0  0
 51 50  1  0  0  0  0
 53 52  1  0  0  0  0
 54 51  1  0  0  0  0
 56 58  1  0  0  0  0
 57 54  1  1  0  0  0
 58 55  1  1  0  0  0
 58 60  1  0  0  0  0
 59 60  1  6  0  0  0
 59 57  1  0  0  0  0
 61 56  1  6  0  0  0
 61 59  1  0  0  0  0
 61 57  1  0  0  0  0
M  END
>  <MODEL>
1

>  <REMARK>
 VINA RESULT:      -3.7      0.000      0.000
  Name = 
  23 active torsions:
  status: ('A' for Active; 'I' for Inactive)
    1  A    between atoms: C_1  and  C_16
    2  A    between atoms: C_1  and  C_33
    3  A    between atoms: C_2  and  C_54
    4  A    between atoms: C_3  and  C_6
    5  A    between atoms: C_3  and  C_40
    6  A    between atoms: C_3  and  C_47
    7  A    between atoms: C_5  and  C_10
    8  A    between atoms: C_5  and  O_19
    9  A    between atoms: C_5  and  C_31
   10  A    between atoms: C_6  and  C_50
   11  A    between atoms: C_7  and  C_42
   12  A    between atoms: C_7  and  N_56
   13  A    between atoms: C_9  and  C_12
   14  A    between atoms: C_10  and  C_21
   15  A    between atoms: C_12  and  C_14
   16  A    between atoms: C_13  and  C_37
   17  A    between atoms: C_17  and  N_27
   18  A    between atoms: C_17  and  C_61
   19  A    between atoms: O_19  and  C_39
   20  A    between atoms: C_21  and  C_22
   21  A    between atoms: C_24  and  C_40
   22  A    between atoms: N_27  and  C_33
   23  A    between atoms: N_51  and  C_55
                            x       y       z     vdW  Elec       q    Type
                         _______ _______ _______ _____ _____    ______ ____

>  <TORSDO>
F 23

$$$$
=
 OpenBabel11072411383D

 61 66  0  0  1  0  0  0  0  0999 V2000
  160.7540  209.0830  154.5820 C   0  0  1  0  0  3  0  0  0  0  0  0
  161.3010  205.9240  152.5000 C   0  0  2  0  0  3  0  0  0  0  0  0
  161.3540  206.6170  153.8800 C   0  0  1  0  0  3  0  0  0  0  0  0
  160.6760  206.9780  151.6470 C   0  0  0  0  0  0  0  0  0  0  0  0
  160.3220  206.8180  150.4470 O   0  0  0  0  0  0  0  0  0  0  0  0
  161.3230  208.1250  153.5190 C   0  0  1  0  0  3  0  0  0  0  0  0
  160.6510  208.2080  152.2700 O   0  0  0  0  0  0  0  0  0  0  0  0
  161.6110  203.4170  152.5060 C   0  0  0  0  0  2  0  0  0  0  0  0
  159.8940  204.3910  151.0950 C   0  0  0  0  0  2  0  0  0  0  0  0
  162.8250  202.3670  150.7360 F   0  0  0  0  0  0  0  0  0  0  0  0
  160.8630  203.6330  150.2170 C   0  0  2  0  0  0  0  0  0  0  0  0
  161.5500  202.6810  151.1740 C   0  0  2  0  0  3  0  0  0  0  0  0
  161.7840  204.5190  149.6750 F   0  0  0  0  0  0  0  0  0  0  0  0
  160.5920  204.5560  152.4370 C   0  0  2  0  0  3  0  0  0  0  0  0
  160.1370  202.8970  149.1030 C   0  0  0  0  0  2  0  0  0  0  0  0
  162.7720  202.9140  146.7840 O   0  0  0  0  0  0  0  0  0  0  0  0
  161.5410  202.8020  147.0250 C   0  0  0  0  0  0  0  0  0  0  0  0
  161.1130  202.2250  148.2530 N   0  0  0  0  0  2  0  0  0  0  0  0
  160.5520  203.1760  145.9650 C   0  0  0  0  0  2  0  0  0  0  0  0
  161.2440  203.9520  144.8530 C   0  0  0  0  0  2  0  0  0  0  0  0
  161.1340  205.9840  143.8290 O   0  0  0  0  0  1  0  0  0  0  0  0
  161.0660  205.3860  145.0450 N   0  0  0  0  0  0  0  0  0  0  0  0
  162.1520  205.8980  145.8860 C   0  0  0  0  0  2  0  0  0  0  0  0
  160.6170  206.3260  147.6630 O   0  0  0  0  0  1  0  0  0  0  0  0
  161.6750  206.8840  146.9480 C   0  0  0  0  0  2  0  0  0  0  0  0
  160.2640  206.9040  155.9770 F   0  0  0  0  0  0  0  0  0  0  0  0
  160.1780  206.2100  154.7800 C   0  0  0  0  0  2  0  0  0  0  0  0
  161.5150  210.5060  156.4980 O   0  0  0  0  0  0  0  0  0  0  0  0
  161.8600  209.8410  155.3380 C   0  0  0  0  0  0  0  0  0  0  0  0
  162.1200  209.3050  156.5860 O   0  0  0  0  0  0  0  0  0  0  0  0
  163.0960  210.3760  154.6200 C   0  0  0  0  0  3  0  0  0  0  0  0
  163.9810  210.9020  155.5440 F   0  0  0  0  0  0  0  0  0  0  0  0
  162.7530  211.3660  153.7120 F   0  0  0  0  0  0  0  0  0  0  0  0
  159.7830  210.1000  153.9810 C   0  0  0  0  0  2  0  0  0  0  0  0
  161.6860  211.0980  150.7960 C   0  0  0  0  0  2  0  0  0  0  0  0
  160.0090  212.9160  151.3730 C   0  0  1  0  0  3  0  0  0  0  0  0
  159.4330  212.0070  152.4610 C   0  0  0  0  0  2  0  0  0  0  0  0
  161.0060  210.1850  151.8070 C   0  0  0  0  0  2  0  0  0  0  0  0
  160.4630  211.0100  152.9700 C   0  0  2  0  0  3  0  0  0  0  0  0
  160.6820  212.1110  150.2430 C   0  0  1  0  0  3  0  0  0  0  0  0
  161.4140  212.7820  147.8770 C   0  0  0  0  0  0  0  0  0  0  0  0
  160.8360  211.7760  147.3720 O   0  0  0  0  0  0  0  0  0  0  0  0
  161.3430  213.0070  149.2940 N   0  0  0  0  0  2  0  0  0  0  0  0
  162.1700  213.7200  147.0180 C   0  0  0  0  0  0  0  0  0  0  0  0
  163.1860  214.3950  147.5390 C   0  0  0  0  0  2  0  0  0  0  0  0
  161.9090  213.8200  145.5630 C   0  0  0  0  0  0  0  0  0  0  0  0
  162.9400  214.1030  144.6780 O   0  0  0  0  0  0  0  0  0  0  0  0
  160.7400  213.6670  145.1130 O   0  0  0  0  0  1  0  0  0  0  0  0
  158.9380  213.8760  150.8330 C   0  0  0  0  0  2  0  0  0  0  0  0
  157.5460  213.2480  150.7090 C   0  0  0  0  0  2  0  0  0  0  0  0
  156.5320  214.0090  151.5550 C   0  0  1  0  0  3  0  0  0  0  0  0
  155.1150  213.4160  151.4810 C   0  0  0  0  0  2  0  0  0  0  0  0
  154.1740  214.4170  151.7290 O   0  0  0  0  0  1  0  0  0  0  0  0
  157.0180  214.3130  152.8500 O   0  0  0  0  0  0  0  0  0  0  0  0
  155.0420  211.3000  156.8260 C   0  0  0  0  0  1  0  0  0  0  0  0
  156.9560  211.8880  155.4980 O   0  0  0  0  0  0  0  0  0  0  0  0
  156.4050  213.4860  153.8090 C   0  0  2  0  0  3  0  0  0  0  0  0
  156.1310  212.3210  156.5500 C   0  0  1  0  0  3  0  0  0  0  0  0
  156.4800  214.2010  155.1520 C   0  0  1  0  0  3  0  0  0  0  0  0
  155.5020  213.6270  156.1370 C   0  0  0  0  0  2  0  0  0  0  0  0
  157.4230  213.0520  154.8530 C   0  0  1  0  0  3  0  0  0  0  0  0
  1 34  1  6  0  0  0
  1 29  1  0  0  0  0
  2  4  1  6  0  0  0
  2  3  1  0  0  0  0
  3 27  1  1  0  0  0
  4  7  1  0  0  0  0
  5  4  2  0  0  0  0
  6  3  1  0  0  0  0
  6  1  1  1  0  0  0
  7  6  1  0  0  0  0
 11 13  1  6  0  0  0
 11  9  1  0  0  0  0
 11 12  1  0  0  0  0
 12 10  1  6  0  0  0
 12  8  1  0  0  0  0
 14  9  1  6  0  0  0
 14  2  1  0  0  0  0
 14  8  1  0  0  0  0
 15 11  1  0  0  0  0
 16 17  2  0  0  0  0
 17 18  1  0  0  0  0
 18 15  1  0  0  0  0
 19 17  1  0  0  0  0
 20 22  1  0  0  0  0
 20 19  1  0  0  0  0
 21 22  1  0  0  0  0
 22 23  1  0  0  0  0
 23 25  1  0  0  0  0
 25 24  1  0  0  0  0
 27 26  1  0  0  0  0
 28 30  1  0  0  0  0
 29 28  1  0  0  0  0
 29 30  1  0  0  0  0
 31 29  1  0  0  0  0
 31 32  1  0  0  0  0
 33 31  1  0  0  0  0
 35 38  1  0  0  0  0
 36 49  1  6  0  0  0
 36 37  1  0  0  0  0
 37 39  1  0  0  0  0
 38 39  1  0  0  0  0
 39 34  1  1  0  0  0
 40 43  1  6  0  0  0
 40 35  1  0  0  0  0
 40 36  1  0  0  0  0
 41 43  1  0  0  0  0
 42 41  2  0  0  0  0
 44 45  2  0  0  0  0
 44 41  1  0  0  0  0
 46 44  1  0  0  0  0
 47 46  2  0  0  0  0
 48 46  1  0  0  0  0
 50 49  1  0  0  0  0
 51 50  1  1  0  0  0
 51 54  1  0  0  0  0
 52 51  1  0  0  0  0
 52 53  1  0  0  0  0
 56 58  1  0  0  0  0
 57 54  1  6  0  0  0
 57 61  1  0  0  0  0
 57 59  1  0  0  0  0
 58 55  1  6  0  0  0
 59 60  1  1  0  0  0
 60 58  1  0  0  0  0
 61 59  1  0  0  0  0
 61 56  1  1  0  0  0
M  END
>  <MODEL>
2

>  <REMARK>
 VINA RESULT:      -3.3      2.644      9.509
  Name = 
  23 active torsions:
  status: ('A' for Active; 'I' for Inactive)
    1  A    between atoms: C_1  and  C_16
    2  A    between atoms: C_1  and  C_33
    3  A    between atoms: C_2  and  C_54
    4  A    between atoms: C_3  and  C_6
    5  A    between atoms: C_3  and  C_40
    6  A    between atoms: C_3  and  C_47
    7  A    between atoms: C_5  and  C_10
    8  A    between atoms: C_5  and  O_19
    9  A    between atoms: C_5  and  C_31
   10  A    between atoms: C_6  and  C_50
   11  A    between atoms: C_7  and  C_42
   12  A    between atoms: C_7  and  N_56
   13  A    between atoms: C_9  and  C_12
   14  A    between atoms: C_10  and  C_21
   15  A    between atoms: C_12  and  C_14
   16  A    between atoms: C_13  and  C_37
   17  A    between atoms: C_17  and  N_27
   18  A    between atoms: C_17  and  C_61
   19  A    between atoms: O_19  and  C_39
   20  A    between atoms: C_21  and  C_22
   21  A    between atoms: C_24  and  C_40
   22  A    between atoms: N_27  and  C_33
   23  A    between atoms: N_51  and  C_55
                            x       y       z     vdW  Elec       q    Type
                         _______ _______ _______ _____ _____    ______ ____

>  <TORSDO>
F 23

$$$$
