=
 OpenBabel11072409533D

 48 50  0  0  1  0  0  0  0  0999 V2000
  161.9740  210.4910  148.9070 C   0  0  0  0  0  0  0  0  0  0  0  0
  162.0070  210.4050  150.4010 C   0  0  0  0  0  1  0  0  0  0  0  0
  162.1060  209.3810  148.1660 C   0  0  0  0  0  3  0  0  0  0  0  0
  164.0750  212.4590  148.4010 O   0  0  0  0  0  0  0  0  0  0  0  0
  161.7840  211.8060  148.2460 C   0  0  0  0  0  0  0  0  0  0  0  0
  162.7470  213.8880  147.0360 C   0  0  0  0  0  2  0  0  0  0  0  0
  160.2930  213.5300  147.3120 C   0  0  0  0  0  0  0  0  0  0  0  0
  161.3090  214.3090  146.9160 C   0  0  0  0  0  3  0  0  0  0  0  0
  160.5470  212.2280  147.9520 C   0  0  0  0  0  3  0  0  0  0  0  0
  162.9320  212.6910  147.9260 C   0  0  0  0  0  0  0  0  0  0  0  0
  158.8620  213.9660  147.1210 C   0  0  2  0  0  3  0  0  0  0  0  0
  158.7780  213.4000  149.5890 C   0  0  0  0  0  2  0  0  0  0  0  0
  155.9870  214.0630  149.7610 C   0  0  0  0  0  3  0  0  0  0  0  0
  156.6520  213.8620  148.4220 C   0  0  0  0  0  2  0  0  0  0  0  0
  158.1770  213.8000  150.9390 C   0  0  1  0  0  3  0  0  0  0  0  0
  158.1430  214.2240  148.4680 C   0  0  2  0  0  3  0  0  0  0  0  0
  156.6760  213.9870  150.9110 C   0  0  0  0  0  3  0  0  0  0  0  0
  158.5780  212.9030  151.9750 O   0  0  0  0  0  0  0  0  0  0  0  0
  157.6540  212.1360  153.9600 O   0  0  0  0  0  0  0  0  0  0  0  0
  158.5730  214.3270  154.0200 C   0  0  0  0  0  1  0  0  0  0  0  0
  158.2320  213.0590  153.3230 C   0  0  0  0  0  0  0  0  0  0  0  0
  158.0950  212.9670  146.2320 C   0  0  1  0  0  3  0  0  0  0  0  0
  157.0230  213.5920  145.5890 O   0  0  0  0  0  1  0  0  0  0  0  0
  158.9300  212.7420  144.0310 O   0  0  0  0  0  0  0  0  0  0  0  0
  158.9940  212.3670  145.1910 C   0  0  0  0  0  3  0  0  0  0  0  0
  162.3120  208.0190  148.7440 C   0  0  0  0  0  2  0  0  0  0  0  0
  160.4570  207.1420  149.9690 O   0  0  0  0  0  1  0  0  0  0  0  0
  161.0050  207.2370  148.6850 C   0  0  2  0  0  3  0  0  0  0  0  0
  161.1920  205.8380  148.0860 C   0  0  1  0  0  3  0  0  0  0  0  0
  162.6870  204.4200  146.5760 C   0  0  0  0  0  2  0  0  0  0  0  0
  161.5480  206.4410  145.6610 C   0  0  0  0  0  3  0  0  0  0  0  0
  160.7250  205.7060  144.9010 C   0  0  0  0  0  3  0  0  0  0  0  0
  161.7150  203.5580  145.7390 C   0  0  1  0  0  3  0  0  0  0  0  0
  162.1800  205.8410  146.8980 C   0  0  1  0  0  3  0  0  0  0  0  0
  161.3840  202.4080  146.4330 F   0  0  0  0  0  0  0  0  0  0  0  0
  160.4330  204.2880  145.2990 C   0  0  2  0  0  3  0  0  0  0  0  0
  159.8340  203.6220  144.2430 F   0  0  0  0  0  0  0  0  0  0  0  0
  161.6210  204.8930  149.1180 N   0  0  0  0  0  2  0  0  0  0  0  0
  160.4130  204.2950  149.6660 C   0  0  0  0  0  2  0  0  0  0  0  0
  160.7740  203.1020  150.5300 C   0  0  0  0  0  2  0  0  0  0  0  0
  161.7390  203.5300  151.6250 C   0  0  0  0  0  2  0  0  0  0  0  0
  161.0900  204.4700  152.5280 N   0  0  0  0  0  2  0  0  0  0  0  0
  162.6690  206.1710  152.2280 O   0  0  0  0  0  0  0  0  0  0  0  0
  161.6160  205.7740  152.7940 C   0  0  0  0  0  0  0  0  0  0  0  0
  160.9050  206.6810  153.7340 C   0  0  0  0  0  2  0  0  0  0  0  0
  161.0460  208.1210  153.2720 C   0  0  0  0  0  2  0  0  0  0  0  0
  160.4020  208.3530  155.6110 N   0  0  0  0  0  1  0  0  0  0  0  0
  160.8150  209.0780  154.4280 C   0  0  0  0  0  2  0  0  0  0  0  0
  1  2  1  0  0  0  0
  3 26  1  0  0  0  0
  3  1  2  0  0  0  0
  5  1  1  0  0  0  0
  6 10  1  0  0  0  0
  7  9  1  0  0  0  0
  8  6  1  0  0  0  0
  8  7  2  0  0  0  0
  9  5  2  0  0  0  0
 10  5  1  0  0  0  0
 10  4  2  0  0  0  0
 11 22  1  1  0  0  0
 11  7  1  0  0  0  0
 12 15  1  0  0  0  0
 13 17  2  0  0  0  0
 14 16  1  0  0  0  0
 14 13  1  0  0  0  0
 15 18  1  1  0  0  0
 16 11  1  6  0  0  0
 16 12  1  0  0  0  0
 17 15  1  0  0  0  0
 18 21  1  0  0  0  0
 21 19  2  0  0  0  0
 21 20  1  0  0  0  0
 22 23  1  6  0  0  0
 24 25  2  0  0  0  0
 25 22  1  0  0  0  0
 28 26  1  0  0  0  0
 28 27  1  1  0  0  0
 29 28  1  0  0  0  0
 29 38  1  1  0  0  0
 30 34  1  0  0  0  0
 31 34  1  0  0  0  0
 32 36  1  0  0  0  0
 32 31  2  0  0  0  0
 33 35  1  1  0  0  0
 33 30  1  0  0  0  0
 34 29  1  1  0  0  0
 36 37  1  6  0  0  0
 36 33  1  0  0  0  0
 38 39  1  0  0  0  0
 39 40  1  0  0  0  0
 40 41  1  0  0  0  0
 41 42  1  0  0  0  0
 42 44  1  0  0  0  0
 43 44  2  0  0  0  0
 44 45  1  0  0  0  0
 46 45  1  0  0  0  0
 46 48  1  0  0  0  0
 48 47  1  0  0  0  0
M  END
>  <MODEL>
1

>  <REMARK>
 VINA RESULT:      -6.7      0.000      0.000
  Name = 
  19 active torsions:
  status: ('A' for Active; 'I' for Inactive)
    1  A    between atoms: C_3  and  C_12
    2  A    between atoms: C_5  and  C_29
    3  A    between atoms: C_5  and  C_33
    4  A    between atoms: C_5  and  C_34
    5  A    between atoms: N_6  and  C_7
    6  A    between atoms: N_6  and  C_9
    7  A    between atoms: C_7  and  C_40
    8  A    between atoms: C_9  and  C_22
    9  A    between atoms: C_9  and  C_27
   10  A    between atoms: C_13  and  C_32
   11  A    between atoms: C_13  and  C_47
   12  A    between atoms: N_16  and  C_23
   13  A    between atoms: O_19  and  C_28
   14  A    between atoms: O_19  and  C_31
   15  A    between atoms: C_23  and  C_40
   16  A    between atoms: C_27  and  C_44
   17  A    between atoms: C_34  and  C_35
   18  A    between atoms: C_39  and  C_47
   19  A    between atoms: C_41  and  C_44
                            x       y       z     vdW  Elec       q    Type
                         _______ _______ _______ _____ _____    ______ ____

>  <TORSDO>
F 19

$$$$
=
 OpenBabel11072409533D

 48 50  0  0  1  0  0  0  0  0999 V2000
  161.5910  208.6770  151.8500 C   0  0  0  0  0  0  0  0  0  0  0  0
  161.9290  209.8580  150.9940 C   0  0  0  0  0  1  0  0  0  0  0  0
  161.8730  207.4360  151.4260 C   0  0  0  0  0  3  0  0  0  0  0  0
  161.4590  206.6990  153.9990 O   0  0  0  0  0  0  0  0  0  0  0  0
  160.9530  208.8830  153.1740 C   0  0  0  0  0  0  0  0  0  0  0  0
  160.6120  208.1910  155.6500 C   0  0  0  0  0  2  0  0  0  0  0  0
  159.5890  210.2570  154.6960 C   0  0  0  0  0  0  0  0  0  0  0  0
  159.7290  209.4050  155.7210 C   0  0  0  0  0  3  0  0  0  0  0  0
  160.2580  210.0030  153.4090 C   0  0  0  0  0  3  0  0  0  0  0  0
  161.0380  207.8600  154.2470 C   0  0  0  0  0  0  0  0  0  0  0  0
  158.7380  211.4940  154.8270 C   0  0  2  0  0  3  0  0  0  0  0  0
  159.5650  212.6460  152.7280 C   0  0  0  0  0  2  0  0  0  0  0  0
  156.9900  213.8150  152.2200 C   0  0  0  0  0  3  0  0  0  0  0  0
  157.3140  213.2180  153.5660 C   0  0  0  0  0  2  0  0  0  0  0  0
  159.1890  213.0570  151.3030 C   0  0  1  0  0  3  0  0  0  0  0  0
  158.3410  212.0820  153.4510 C   0  0  2  0  0  3  0  0  0  0  0  0
  157.8650  213.7830  151.2020 C   0  0  0  0  0  3  0  0  0  0  0  0
  160.2420  213.7910  150.6770 O   0  0  0  0  0  0  0  0  0  0  0  0
  159.6190  213.3470  148.4850 O   0  0  0  0  0  0  0  0  0  0  0  0
  161.7330  214.3940  148.7730 C   0  0  0  0  0  1  0  0  0  0  0  0
  160.4720  213.8060  149.2950 C   0  0  0  0  0  0  0  0  0  0  0  0
  159.4190  212.5390  155.7340 C   0  0  1  0  0  3  0  0  0  0  0  0
  159.4720  213.7860  155.1060 O   0  0  0  0  0  1  0  0  0  0  0  0
  157.5600  212.2340  157.1640 O   0  0  0  0  0  0  0  0  0  0  0  0
  158.6860  212.6880  157.0350 C   0  0  0  0  0  3  0  0  0  0  0  0
  162.5020  207.1350  150.1050 C   0  0  0  0  0  2  0  0  0  0  0  0
  160.1900  206.9060  149.5410 O   0  0  0  0  0  1  0  0  0  0  0  0
  161.4760  206.4770  149.1900 C   0  0  2  0  0  3  0  0  0  0  0  0
  161.5520  204.9470  149.2380 C   0  0  1  0  0  3  0  0  0  0  0  0
  160.1470  202.8440  149.6010 C   0  0  0  0  0  2  0  0  0  0  0  0
  160.5020  204.4460  151.4780 C   0  0  0  0  0  3  0  0  0  0  0  0
  161.2810  203.5840  152.1450 C   0  0  0  0  0  3  0  0  0  0  0  0
  161.0800  201.8560  150.3370 C   0  0  1  0  0  3  0  0  0  0  0  0
  160.3460  204.3260  149.9790 C   0  0  1  0  0  3  0  0  0  0  0  0
  161.8390  201.1490  149.4210 F   0  0  0  0  0  0  0  0  0  0  0  0
  162.0010  202.5090  151.3830 C   0  0  2  0  0  3  0  0  0  0  0  0
  162.4830  201.5560  152.2660 F   0  0  0  0  0  0  0  0  0  0  0  0
  161.6730  204.3980  147.8870 N   0  0  0  0  0  2  0  0  0  0  0  0
  162.1100  205.4900  147.0290 C   0  0  0  0  0  2  0  0  0  0  0  0
  161.0720  205.7490  145.9540 C   0  0  0  0  0  2  0  0  0  0  0  0
  161.3200  204.8320  144.7660 C   0  0  0  0  0  2  0  0  0  0  0  0
  161.2030  203.4390  145.1730 N   0  0  0  0  0  2  0  0  0  0  0  0
  159.2040  203.0520  144.0210 O   0  0  0  0  0  0  0  0  0  0  0  0
  160.1110  202.6060  144.7730 C   0  0  0  0  0  0  0  0  0  0  0  0
  160.0500  201.1930  145.2310 C   0  0  0  0  0  2  0  0  0  0  0  0
  160.8790  201.0200  146.4920 C   0  0  0  0  0  2  0  0  0  0  0  0
  161.0940  198.8590  145.3860 N   0  0  0  0  0  1  0  0  0  0  0  0
  161.4380  199.6110  146.5750 C   0  0  0  0  0  2  0  0  0  0  0  0
  1  5  1  0  0  0  0
  2  1  1  0  0  0  0
  3  1  2  0  0  0  0
  4 10  2  0  0  0  0
  5  9  2  0  0  0  0
  5 10  1  0  0  0  0
  6  8  1  0  0  0  0
  7 11  1  0  0  0  0
  7  8  2  0  0  0  0
  9  7  1  0  0  0  0
 10  6  1  0  0  0  0
 11 22  1  1  0  0  0
 12 16  1  0  0  0  0
 13 14  1  0  0  0  0
 15 18  1  1  0  0  0
 15 12  1  0  0  0  0
 16 14  1  0  0  0  0
 16 11  1  1  0  0  0
 17 15  1  0  0  0  0
 17 13  2  0  0  0  0
 19 21  2  0  0  0  0
 20 21  1  0  0  0  0
 21 18  1  0  0  0  0
 22 23  1  6  0  0  0
 22 25  1  0  0  0  0
 25 24  2  0  0  0  0
 26  3  1  0  0  0  0
 28 29  1  0  0  0  0
 28 27  1  1  0  0  0
 28 26  1  0  0  0  0
 29 38  1  6  0  0  0
 30 34  1  0  0  0  0
 30 33  1  0  0  0  0
 31 32  2  0  0  0  0
 33 35  1  6  0  0  0
 33 36  1  0  0  0  0
 34 29  1  6  0  0  0
 34 31  1  0  0  0  0
 36 32  1  0  0  0  0
 36 37  1  1  0  0  0
 39 38  1  0  0  0  0
 40 39  1  0  0  0  0
 41 42  1  0  0  0  0
 41 40  1  0  0  0  0
 43 44  2  0  0  0  0
 44 42  1  0  0  0  0
 44 45  1  0  0  0  0
 45 46  1  0  0  0  0
 46 48  1  0  0  0  0
 47 48  1  0  0  0  0
M  END
>  <MODEL>
2

>  <REMARK>
 VINA RESULT:      -6.2      2.747      7.084
  Name = 
  19 active torsions:
  status: ('A' for Active; 'I' for Inactive)
    1  A    between atoms: C_3  and  C_12
    2  A    between atoms: C_5  and  C_29
    3  A    between atoms: C_5  and  C_33
    4  A    between atoms: C_5  and  C_34
    5  A    between atoms: N_6  and  C_7
    6  A    between atoms: N_6  and  C_9
    7  A    between atoms: C_7  and  C_40
    8  A    between atoms: C_9  and  C_22
    9  A    between atoms: C_9  and  C_27
   10  A    between atoms: C_13  and  C_32
   11  A    between atoms: C_13  and  C_47
   12  A    between atoms: N_16  and  C_23
   13  A    between atoms: O_19  and  C_28
   14  A    between atoms: O_19  and  C_31
   15  A    between atoms: C_23  and  C_40
   16  A    between atoms: C_27  and  C_44
   17  A    between atoms: C_34  and  C_35
   18  A    between atoms: C_39  and  C_47
   19  A    between atoms: C_41  and  C_44
                            x       y       z     vdW  Elec       q    Type
                         _______ _______ _______ _____ _____    ______ ____

>  <TORSDO>
F 19

$$$$
=
 OpenBabel11072409533D

 48 50  0  0  1  0  0  0  0  0999 V2000
  160.2310  209.7030  155.6300 C   0  0  0  0  0  0  0  0  0  0  0  0
  159.2460  209.4720  156.7330 C   0  0  0  0  0  1  0  0  0  0  0  0
  160.7830  210.9140  155.4650 C   0  0  0  0  0  3  0  0  0  0  0  0
  161.4500  207.1790  156.4610 O   0  0  0  0  0  0  0  0  0  0  0  0
  160.6050  208.5870  154.7270 C   0  0  0  0  0  0  0  0  0  0  0  0
  161.2390  206.1010  154.3490 C   0  0  0  0  0  2  0  0  0  0  0  0
  160.8860  207.6840  152.4530 C   0  0  0  0  0  0  0  0  0  0  0  0
  161.2490  206.4710  152.8920 C   0  0  0  0  0  3  0  0  0  0  0  0
  160.5140  208.7480  153.4000 C   0  0  0  0  0  3  0  0  0  0  0  0
  161.1120  207.2950  155.2530 C   0  0  0  0  0  0  0  0  0  0  0  0
  160.8560  207.9970  150.9780 C   0  0  2  0  0  3  0  0  0  0  0  0
  160.8290  206.9480  148.6730 C   0  0  0  0  0  2  0  0  0  0  0  0
  161.1960  204.3080  149.7470 C   0  0  0  0  0  3  0  0  0  0  0  0
  160.7870  205.4540  150.6380 C   0  0  0  0  0  2  0  0  0  0  0  0
  161.4400  205.8530  147.7960 C   0  0  1  0  0  3  0  0  0  0  0  0
  161.3150  206.7970  150.1150 C   0  0  2  0  0  3  0  0  0  0  0  0
  161.4470  204.4830  148.4400 C   0  0  0  0  0  3  0  0  0  0  0  0
  160.8380  205.8230  146.5020 O   0  0  0  0  0  0  0  0  0  0  0  0
  160.7040  204.8430  144.4030 O   0  0  0  0  0  0  0  0  0  0  0  0
  162.8800  204.9800  145.3480 C   0  0  0  0  0  1  0  0  0  0  0  0
  161.4110  205.2010  145.3850 C   0  0  0  0  0  0  0  0  0  0  0  0
  161.6550  209.2790  150.6700 C   0  0  1  0  0  3  0  0  0  0  0  0
  162.7200  209.4290  151.5620 O   0  0  0  0  0  1  0  0  0  0  0  0
  162.1240  210.2440  148.5620 O   0  0  0  0  0  0  0  0  0  0  0  0
  162.2010  209.2530  149.2720 C   0  0  0  0  0  3  0  0  0  0  0  0
  160.4580  212.0970  156.3170 C   0  0  0  0  0  2  0  0  0  0  0  0
  160.0780  214.4530  156.1880 O   0  0  0  0  0  1  0  0  0  0  0  0
  160.0820  213.2770  155.4290 C   0  0  2  0  0  3  0  0  0  0  0  0
  158.7200  213.0820  154.7530 C   0  0  1  0  0  3  0  0  0  0  0  0
  156.3380  214.0040  154.8450 C   0  0  0  0  0  2  0  0  0  0  0  0
  157.1170  212.3830  156.5730 C   0  0  0  0  0  3  0  0  0  0  0  0
  156.3200  211.4120  156.1070 C   0  0  0  0  0  3  0  0  0  0  0  0
  155.4470  212.8790  154.2680 C   0  0  1  0  0  3  0  0  0  0  0  0
  157.5490  213.5130  155.6650 C   0  0  1  0  0  3  0  0  0  0  0  0
  155.3950  212.9770  152.8900 F   0  0  0  0  0  0  0  0  0  0  0  0
  155.8730  211.4570  154.6740 C   0  0  2  0  0  3  0  0  0  0  0  0
  154.8300  210.5660  154.4830 F   0  0  0  0  0  0  0  0  0  0  0  0
  158.6760  213.7960  153.4760 N   0  0  0  0  0  2  0  0  0  0  0  0
  158.8000  212.7920  152.4300 C   0  0  0  0  0  2  0  0  0  0  0  0
  158.1470  213.2920  151.1560 C   0  0  0  0  0  2  0  0  0  0  0  0
  159.1560  214.0790  150.3330 C   0  0  0  0  0  2  0  0  0  0  0  0
  159.2470  213.5290  148.9880 N   0  0  0  0  0  2  0  0  0  0  0  0
  161.5800  213.6460  148.8730 O   0  0  0  0  0  0  0  0  0  0  0  0
  160.4940  213.3490  148.3100 C   0  0  0  0  0  0  0  0  0  0  0  0
  160.5140  212.7870  146.9330 C   0  0  0  0  0  2  0  0  0  0  0  0
  159.0940  212.6090  146.4250 C   0  0  0  0  0  2  0  0  0  0  0  0
  157.7340  214.0360  144.9920 N   0  0  0  0  0  1  0  0  0  0  0  0
  158.9370  213.2330  145.0500 C   0  0  0  0  0  2  0  0  0  0  0  0
  1  2  1  0  0  0  0
  3  1  2  0  0  0  0
  3 26  1  0  0  0  0
  5 10  1  0  0  0  0
  5  1  1  0  0  0  0
  6 10  1  0  0  0  0
  7  8  2  0  0  0  0
  7  9  1  0  0  0  0
  8  6  1  0  0  0  0
  9  5  2  0  0  0  0
 10  4  2  0  0  0  0
 11 22  1  1  0  0  0
 11  7  1  0  0  0  0
 12 16  1  0  0  0  0
 13 14  1  0  0  0  0
 15 18  1  6  0  0  0
 15 17  1  0  0  0  0
 15 12  1  0  0  0  0
 16 14  1  0  0  0  0
 16 11  1  1  0  0  0
 17 13  2  0  0  0  0
 19 21  2  0  0  0  0
 20 21  1  0  0  0  0
 21 18  1  0  0  0  0
 22 23  1  1  0  0  0
 24 25  2  0  0  0  0
 25 22  1  0  0  0  0
 28 27  1  1  0  0  0
 28 26  1  0  0  0  0
 29 38  1  6  0  0  0
 29 28  1  0  0  0  0
 30 34  1  0  0  0  0
 32 31  2  0  0  0  0
 33 35  1  6  0  0  0
 33 36  1  0  0  0  0
 33 30  1  0  0  0  0
 34 29  1  6  0  0  0
 34 31  1  0  0  0  0
 36 37  1  1  0  0  0
 36 32  1  0  0  0  0
 39 38  1  0  0  0  0
 40 39  1  0  0  0  0
 41 40  1  0  0  0  0
 42 41  1  0  0  0  0
 44 43  2  0  0  0  0
 44 42  1  0  0  0  0
 45 44  1  0  0  0  0
 46 45  1  0  0  0  0
 47 48  1  0  0  0  0
 48 46  1  0  0  0  0
M  END
>  <MODEL>
3

>  <REMARK>
 VINA RESULT:      -6.0      4.125     10.134
  Name = 
  19 active torsions:
  status: ('A' for Active; 'I' for Inactive)
    1  A    between atoms: C_3  and  C_12
    2  A    between atoms: C_5  and  C_29
    3  A    between atoms: C_5  and  C_33
    4  A    between atoms: C_5  and  C_34
    5  A    between atoms: N_6  and  C_7
    6  A    between atoms: N_6  and  C_9
    7  A    between atoms: C_7  and  C_40
    8  A    between atoms: C_9  and  C_22
    9  A    between atoms: C_9  and  C_27
   10  A    between atoms: C_13  and  C_32
   11  A    between atoms: C_13  and  C_47
   12  A    between atoms: N_16  and  C_23
   13  A    between atoms: O_19  and  C_28
   14  A    between atoms: O_19  and  C_31
   15  A    between atoms: C_23  and  C_40
   16  A    between atoms: C_27  and  C_44
   17  A    between atoms: C_34  and  C_35
   18  A    between atoms: C_39  and  C_47
   19  A    between atoms: C_41  and  C_44
                            x       y       z     vdW  Elec       q    Type
                         _______ _______ _______ _____ _____    ______ ____

>  <TORSDO>
F 19

$$$$
=
 OpenBabel11072409533D

 48 50  0  0  1  0  0  0  0  0999 V2000
  161.6510  208.2900  151.9690 C   0  0  0  0  0  0  0  0  0  0  0  0
  161.9700  209.6260  151.3740 C   0  0  0  0  0  1  0  0  0  0  0  0
  161.8490  207.1720  151.2550 C   0  0  0  0  0  3  0  0  0  0  0  0
  161.0470  205.8170  153.4070 O   0  0  0  0  0  0  0  0  0  0  0  0
  161.1270  208.2030  153.3550 C   0  0  0  0  0  0  0  0  0  0  0  0
  160.6760  206.8500  155.5200 C   0  0  0  0  0  2  0  0  0  0  0  0
  160.2220  209.2990  155.3670 C   0  0  0  0  0  0  0  0  0  0  0  0
  160.1540  208.1530  156.0580 C   0  0  0  0  0  3  0  0  0  0  0  0
  160.7650  209.3210  153.9980 C   0  0  0  0  0  3  0  0  0  0  0  0
  160.9610  206.9000  154.0450 C   0  0  0  0  0  0  0  0  0  0  0  0
  159.7390  210.5950  155.9660 C   0  0  2  0  0  3  0  0  0  0  0  0
  159.2320  212.3910  154.2520 C   0  0  0  0  0  2  0  0  0  0  0  0
  156.4900  212.5760  155.0940 C   0  0  0  0  0  3  0  0  0  0  0  0
  157.5150  211.8750  155.9500 C   0  0  0  0  0  2  0  0  0  0  0  0
  158.1760  212.9210  153.2790 C   0  0  1  0  0  3  0  0  0  0  0  0
  158.6420  211.2670  155.1040 C   0  0  2  0  0  3  0  0  0  0  0  0
  156.8050  213.0950  153.8960 C   0  0  0  0  0  3  0  0  0  0  0  0
  158.6170  214.1140  152.6300 O   0  0  0  0  0  0  0  0  0  0  0  0
  157.5450  214.3570  150.5860 O   0  0  0  0  0  0  0  0  0  0  0  0
  159.9200  214.4350  150.5290 C   0  0  0  0  0  1  0  0  0  0  0  0
  158.6220  214.2940  151.2410 C   0  0  0  0  0  0  0  0  0  0  0  0
  160.9200  211.5450  156.2500 C   0  0  1  0  0  3  0  0  0  0  0  0
  160.5770  212.4920  157.2180 O   0  0  0  0  0  1  0  0  0  0  0  0
  163.1090  210.6800  156.0170 O   0  0  0  0  0  0  0  0  0  0  0  0
  162.1230  210.7860  156.7280 C   0  0  0  0  0  3  0  0  0  0  0  0
  162.3610  207.1640  149.8520 C   0  0  0  0  0  2  0  0  0  0  0  0
  159.9900  206.9950  149.5990 O   0  0  0  0  0  1  0  0  0  0  0  0
  161.1930  207.0230  148.8840 C   0  0  2  0  0  3  0  0  0  0  0  0
  161.3140  205.7710  148.0070 C   0  0  1  0  0  3  0  0  0  0  0  0
  162.7580  204.7380  146.1700 C   0  0  0  0  0  2  0  0  0  0  0  0
  161.2840  206.6830  145.6530 C   0  0  0  0  0  3  0  0  0  0  0  0
  160.4620  205.9360  144.9040 C   0  0  0  0  0  3  0  0  0  0  0  0
  161.7930  203.8550  145.3450 C   0  0  1  0  0  3  0  0  0  0  0  0
  162.1340  206.0350  146.7240 C   0  0  1  0  0  3  0  0  0  0  0  0
  161.6890  202.6020  145.9210 F   0  0  0  0  0  0  0  0  0  0  0  0
  160.3890  204.4570  145.1490 C   0  0  2  0  0  3  0  0  0  0  0  0
  159.7420  203.8400  144.0910 F   0  0  0  0  0  0  0  0  0  0  0  0
  161.8860  204.6630  148.7730 N   0  0  0  0  0  2  0  0  0  0  0  0
  160.7690  203.9370  149.3580 C   0  0  0  0  0  2  0  0  0  0  0  0
  161.1720  203.3660  150.7040 C   0  0  0  0  0  2  0  0  0  0  0  0
  160.7540  201.9070  150.7920 C   0  0  0  0  0  2  0  0  0  0  0  0
  161.5280  201.1050  149.8540 N   0  0  0  0  0  2  0  0  0  0  0  0
  159.9400  201.2010  148.1390 O   0  0  0  0  0  0  0  0  0  0  0  0
  161.0560  200.7790  148.5430 C   0  0  0  0  0  0  0  0  0  0  0  0
  161.8950  199.9490  147.6390 C   0  0  0  0  0  2  0  0  0  0  0  0
  161.2290  199.8260  146.2800 C   0  0  0  0  0  2  0  0  0  0  0  0
  161.4790  198.2390  144.4480 N   0  0  0  0  0  1  0  0  0  0  0  0
  161.1530  198.3710  145.8520 C   0  0  0  0  0  2  0  0  0  0  0  0
  1  5  1  0  0  0  0
  2  1  1  0  0  0  0
  3  1  2  0  0  0  0
  4 10  2  0  0  0  0
  5  9  2  0  0  0  0
  5 10  1  0  0  0  0
  6  8  1  0  0  0  0
  7 11  1  0  0  0  0
  7  8  2  0  0  0  0
  9  7  1  0  0  0  0
 10  6  1  0  0  0  0
 11 22  1  6  0  0  0
 12 16  1  0  0  0  0
 13 14  1  0  0  0  0
 15 18  1  1  0  0  0
 15 17  1  0  0  0  0
 15 12  1  0  0  0  0
 16 14  1  0  0  0  0
 16 11  1  1  0  0  0
 17 13  2  0  0  0  0
 19 21  2  0  0  0  0
 20 21  1  0  0  0  0
 21 18  1  0  0  0  0
 22 25  1  0  0  0  0
 22 23  1  1  0  0  0
 24 25  2  0  0  0  0
 26  3  1  0  0  0  0
 28 27  1  1  0  0  0
 28 26  1  0  0  0  0
 29 38  1  1  0  0  0
 29 28  1  0  0  0  0
 30 34  1  0  0  0  0
 31 34  1  0  0  0  0
 32 36  1  0  0  0  0
 32 31  2  0  0  0  0
 33 35  1  1  0  0  0
 33 30  1  0  0  0  0
 34 29  1  1  0  0  0
 36 37  1  6  0  0  0
 36 33  1  0  0  0  0
 38 39  1  0  0  0  0
 39 40  1  0  0  0  0
 40 41  1  0  0  0  0
 42 41  1  0  0  0  0
 43 44  2  0  0  0  0
 44 42  1  0  0  0  0
 45 44  1  0  0  0  0
 46 45  1  0  0  0  0
 47 48  1  0  0  0  0
 48 46  1  0  0  0  0
M  END
>  <MODEL>
4

>  <REMARK>
 VINA RESULT:      -5.8      3.021      6.801
  Name = 
  19 active torsions:
  status: ('A' for Active; 'I' for Inactive)
    1  A    between atoms: C_3  and  C_12
    2  A    between atoms: C_5  and  C_29
    3  A    between atoms: C_5  and  C_33
    4  A    between atoms: C_5  and  C_34
    5  A    between atoms: N_6  and  C_7
    6  A    between atoms: N_6  and  C_9
    7  A    between atoms: C_7  and  C_40
    8  A    between atoms: C_9  and  C_22
    9  A    between atoms: C_9  and  C_27
   10  A    between atoms: C_13  and  C_32
   11  A    between atoms: C_13  and  C_47
   12  A    between atoms: N_16  and  C_23
   13  A    between atoms: O_19  and  C_28
   14  A    between atoms: O_19  and  C_31
   15  A    between atoms: C_23  and  C_40
   16  A    between atoms: C_27  and  C_44
   17  A    between atoms: C_34  and  C_35
   18  A    between atoms: C_39  and  C_47
   19  A    between atoms: C_41  and  C_44
                            x       y       z     vdW  Elec       q    Type
                         _______ _______ _______ _____ _____    ______ ____

>  <TORSDO>
F 19

$$$$
=
 OpenBabel11072409533D

 48 50  0  0  1  0  0  0  0  0999 V2000
  161.0480  206.6900  153.3070 C   0  0  0  0  0  0  0  0  0  0  0  0
  161.1650  205.8660  154.5510 C   0  0  0  0  0  1  0  0  0  0  0  0
  160.9600  208.0260  153.3910 C   0  0  0  0  0  3  0  0  0  0  0  0
  161.2050  203.8080  152.8430 O   0  0  0  0  0  0  0  0  0  0  0  0
  161.0410  206.0280  151.9780 C   0  0  0  0  0  0  0  0  0  0  0  0
  160.7420  203.9120  150.5100 C   0  0  0  0  0  2  0  0  0  0  0  0
  161.1090  206.1740  149.5210 C   0  0  0  0  0  0  0  0  0  0  0  0
  160.9750  204.8500  149.3590 C   0  0  0  0  0  3  0  0  0  0  0  0
  161.0960  206.7730  150.8660 C   0  0  0  0  0  3  0  0  0  0  0  0
  161.0060  204.5500  151.8450 C   0  0  0  0  0  0  0  0  0  0  0  0
  161.2840  207.0860  148.3340 C   0  0  2  0  0  3  0  0  0  0  0  0
  160.7160  205.3260  146.6030 C   0  0  0  0  0  2  0  0  0  0  0  0
  163.4900  204.7610  146.1050 C   0  0  0  0  0  3  0  0  0  0  0  0
  163.0680  205.5410  147.3250 C   0  0  0  0  0  2  0  0  0  0  0  0
  161.1350  204.7160  145.2630 C   0  0  1  0  0  3  0  0  0  0  0  0
  161.7710  206.3260  147.0770 C   0  0  2  0  0  3  0  0  0  0  0  0
  162.6000  204.3440  145.1900 C   0  0  0  0  0  3  0  0  0  0  0  0
  160.2940  203.6210  144.9020 O   0  0  0  0  0  0  0  0  0  0  0  0
  160.9670  202.1360  146.5540 O   0  0  0  0  0  0  0  0  0  0  0  0
  159.8620  201.1760  144.6820 C   0  0  0  0  0  1  0  0  0  0  0  0
  160.4150  202.3310  145.4360 C   0  0  0  0  0  0  0  0  0  0  0  0
  162.1950  208.2790  148.6850 C   0  0  1  0  0  3  0  0  0  0  0  0
  161.9790  209.3470  147.8090 O   0  0  0  0  0  1  0  0  0  0  0  0
  162.0050  209.9430  150.3550 O   0  0  0  0  0  0  0  0  0  0  0  0
  161.9510  208.7530  150.0880 C   0  0  0  0  0  3  0  0  0  0  0  0
  160.9470  208.7760  154.6830 C   0  0  0  0  0  2  0  0  0  0  0  0
  162.3780  210.5760  155.3350 O   0  0  0  0  0  1  0  0  0  0  0  0
  161.3640  210.2210  154.4380 C   0  0  2  0  0  3  0  0  0  0  0  0
  160.1860  211.1940  154.5610 C   0  0  1  0  0  3  0  0  0  0  0  0
  159.8400  213.3730  155.8500 C   0  0  0  0  0  2  0  0  0  0  0  0
  159.0740  211.2100  156.8270 C   0  0  0  0  0  3  0  0  0  0  0  0
  157.7820  211.5330  156.6790 C   0  0  0  0  0  3  0  0  0  0  0  0
  158.3540  213.7400  155.6320 C   0  0  1  0  0  3  0  0  0  0  0  0
  160.1240  211.8600  155.9540 C   0  0  1  0  0  3  0  0  0  0  0  0
  158.2110  214.4530  154.4550 F   0  0  0  0  0  0  0  0  0  0  0  0
  157.3940  212.5370  155.6330 C   0  0  2  0  0  3  0  0  0  0  0  0
  156.0920  212.9570  155.8500 F   0  0  0  0  0  0  0  0  0  0  0  0
  160.2420  212.2020  153.5030 N   0  0  0  0  0  2  0  0  0  0  0  0
  159.4760  211.6770  152.3830 C   0  0  0  0  0  2  0  0  0  0  0  0
  158.4590  212.7060  151.9270 C   0  0  0  0  0  2  0  0  0  0  0  0
  159.1380  213.7530  151.0570 C   0  0  0  0  0  2  0  0  0  0  0  0
  158.7840  213.5520  149.6590 N   0  0  0  0  0  2  0  0  0  0  0  0
  160.9930  213.5040  148.8900 O   0  0  0  0  0  0  0  0  0  0  0  0
  159.7630  213.4470  148.6210 C   0  0  0  0  0  0  0  0  0  0  0  0
  159.3310  213.2490  147.2120 C   0  0  0  0  0  2  0  0  0  0  0  0
  160.3630  212.4220  146.4640 C   0  0  0  0  0  2  0  0  0  0  0  0
  159.3410  213.7480  144.6940 N   0  0  0  0  0  1  0  0  0  0  0  0
  160.2550  212.6600  144.9690 C   0  0  0  0  0  2  0  0  0  0  0  0
  1  3  2  0  0  0  0
  1  2  1  0  0  0  0
  3 26  1  0  0  0  0
  5  1  1  0  0  0  0
  6 10  1  0  0  0  0
  7  9  1  0  0  0  0
  8  7  2  0  0  0  0
  8  6  1  0  0  0  0
  9  5  2  0  0  0  0
 10  5  1  0  0  0  0
 10  4  2  0  0  0  0
 11 22  1  1  0  0  0
 11  7  1  0  0  0  0
 12 16  1  0  0  0  0
 13 14  1  0  0  0  0
 15 18  1  1  0  0  0
 15 12  1  0  0  0  0
 16 14  1  0  0  0  0
 16 11  1  1  0  0  0
 17 15  1  0  0  0  0
 17 13  2  0  0  0  0
 18 21  1  0  0  0  0
 20 21  1  0  0  0  0
 21 19  2  0  0  0  0
 22 23  1  6  0  0  0
 22 25  1  0  0  0  0
 25 24  2  0  0  0  0
 28 29  1  0  0  0  0
 28 26  1  0  0  0  0
 28 27  1  1  0  0  0
 29 38  1  6  0  0  0
 30 34  1  0  0  0  0
 32 31  2  0  0  0  0
 33 35  1  6  0  0  0
 33 36  1  0  0  0  0
 33 30  1  0  0  0  0
 34 29  1  6  0  0  0
 34 31  1  0  0  0  0
 36 37  1  1  0  0  0
 36 32  1  0  0  0  0
 39 38  1  0  0  0  0
 40 39  1  0  0  0  0
 41 40  1  0  0  0  0
 42 41  1  0  0  0  0
 44 43  2  0  0  0  0
 44 42  1  0  0  0  0
 45 44  1  0  0  0  0
 46 45  1  0  0  0  0
 47 48  1  0  0  0  0
 48 46  1  0  0  0  0
M  END
>  <MODEL>
5

>  <REMARK>
 VINA RESULT:      -5.7      4.300     10.239
  Name = 
  19 active torsions:
  status: ('A' for Active; 'I' for Inactive)
    1  A    between atoms: C_3  and  C_12
    2  A    between atoms: C_5  and  C_29
    3  A    between atoms: C_5  and  C_33
    4  A    between atoms: C_5  and  C_34
    5  A    between atoms: N_6  and  C_7
    6  A    between atoms: N_6  and  C_9
    7  A    between atoms: C_7  and  C_40
    8  A    between atoms: C_9  and  C_22
    9  A    between atoms: C_9  and  C_27
   10  A    between atoms: C_13  and  C_32
   11  A    between atoms: C_13  and  C_47
   12  A    between atoms: N_16  and  C_23
   13  A    between atoms: O_19  and  C_28
   14  A    between atoms: O_19  and  C_31
   15  A    between atoms: C_23  and  C_40
   16  A    between atoms: C_27  and  C_44
   17  A    between atoms: C_34  and  C_35
   18  A    between atoms: C_39  and  C_47
   19  A    between atoms: C_41  and  C_44
                            x       y       z     vdW  Elec       q    Type
                         _______ _______ _______ _____ _____    ______ ____

>  <TORSDO>
F 19

$$$$
=
 OpenBabel11072409533D

 48 50  0  0  1  0  0  0  0  0999 V2000
  161.8030  210.2200  149.9270 C   0  0  0  0  0  0  0  0  0  0  0  0
  162.3100  209.6820  151.2290 C   0  0  0  0  0  1  0  0  0  0  0  0
  161.7180  209.4170  148.8560 C   0  0  0  0  0  3  0  0  0  0  0  0
  163.0940  212.2600  148.2790 O   0  0  0  0  0  0  0  0  0  0  0  0
  161.3840  211.6400  149.8260 C   0  0  0  0  0  0  0  0  0  0  0  0
  161.4250  213.9270  148.6060 C   0  0  0  0  0  2  0  0  0  0  0  0
  159.9730  213.5080  150.5910 C   0  0  0  0  0  0  0  0  0  0  0  0
  160.4590  214.3560  149.6740 C   0  0  0  0  0  3  0  0  0  0  0  0
  160.4200  212.1050  150.6320 C   0  0  0  0  0  3  0  0  0  0  0  0
  162.0290  212.5760  148.8730 C   0  0  0  0  0  0  0  0  0  0  0  0
  158.9620  213.9660  151.6110 C   0  0  2  0  0  3  0  0  0  0  0  0
  158.1730  212.2400  153.2900 C   0  0  0  0  0  2  0  0  0  0  0  0
  159.2950  213.7070  155.4920 C   0  0  0  0  0  3  0  0  0  0  0  0
  159.1160  214.3570  154.1430 C   0  0  0  0  0  2  0  0  0  0  0  0
  158.5340  211.5050  154.5820 C   0  0  1  0  0  3  0  0  0  0  0  0
  159.2040  213.3330  153.0030 C   0  0  2  0  0  3  0  0  0  0  0  0
  158.9830  212.4180  155.7030 C   0  0  0  0  0  3  0  0  0  0  0  0
  157.4810  210.6370  155.0000 O   0  0  0  0  0  0  0  0  0  0  0  0
  155.2530  210.8510  154.3880 O   0  0  0  0  0  0  0  0  0  0  0  0
  155.8350  211.7390  156.5130 C   0  0  0  0  0  1  0  0  0  0  0  0
  156.1650  211.0570  155.2340 C   0  0  0  0  0  0  0  0  0  0  0  0
  157.5240  213.7310  151.1050 C   0  0  1  0  0  3  0  0  0  0  0  0
  156.6030  214.4530  151.8690 O   0  0  0  0  0  1  0  0  0  0  0  0
  156.6400  213.5230  148.9220 O   0  0  0  0  0  0  0  0  0  0  0  0
  157.3810  214.1410  149.6690 C   0  0  0  0  0  3  0  0  0  0  0  0
  162.1270  207.9800  148.8620 C   0  0  0  0  0  2  0  0  0  0  0  0
  160.6370  207.9090  146.9940 O   0  0  0  0  0  1  0  0  0  0  0  0
  161.8170  207.3570  147.5060 C   0  0  2  0  0  3  0  0  0  0  0  0
  161.6950  205.8310  147.5840 C   0  0  1  0  0  3  0  0  0  0  0  0
  162.6880  203.5890  146.8660 C   0  0  0  0  0  2  0  0  0  0  0  0
  162.4490  205.4360  145.2070 C   0  0  0  0  0  3  0  0  0  0  0  0
  161.4810  204.7920  144.5410 C   0  0  0  0  0  3  0  0  0  0  0  0
  161.5410  202.8540  146.1340 C   0  0  1  0  0  3  0  0  0  0  0  0
  162.7110  205.1180  146.6630 C   0  0  1  0  0  3  0  0  0  0  0  0
  160.7560  202.1750  147.0470 F   0  0  0  0  0  0  0  0  0  0  0  0
  160.6580  203.7630  145.2610 C   0  0  2  0  0  3  0  0  0  0  0  0
  159.9480  203.0090  144.3410 F   0  0  0  0  0  0  0  0  0  0  0  0
  161.8360  205.3760  148.9670 N   0  0  0  0  0  2  0  0  0  0  0  0
  160.5060  205.0020  149.4230 C   0  0  0  0  0  2  0  0  0  0  0  0
  160.5030  203.5550  149.8760 C   0  0  0  0  0  2  0  0  0  0  0  0
  161.1410  203.4430  151.2520 C   0  0  0  0  0  2  0  0  0  0  0  0
  161.1200  204.7360  151.9230 N   0  0  0  0  0  2  0  0  0  0  0  0
  163.4460  204.9240  152.0850 O   0  0  0  0  0  0  0  0  0  0  0  0
  162.3120  205.4180  152.3230 C   0  0  0  0  0  0  0  0  0  0  0  0
  162.2170  206.7330  153.0110 C   0  0  0  0  0  2  0  0  0  0  0  0
  160.7960  206.9650  153.4930 C   0  0  0  0  0  2  0  0  0  0  0  0
  159.5640  206.9410  155.5960 N   0  0  0  0  0  1  0  0  0  0  0  0
  160.7880  207.3740  154.9550 C   0  0  0  0  0  2  0  0  0  0  0  0
  1  2  1  0  0  0  0
  3 26  1  0  0  0  0
  3  1  2  0  0  0  0
  4 10  2  0  0  0  0
  5  1  1  0  0  0  0
  5  9  2  0  0  0  0
  6 10  1  0  0  0  0
  6  8  1  0  0  0  0
  7  9  1  0  0  0  0
  7 11  1  0  0  0  0
  8  7  2  0  0  0  0
 10  5  1  0  0  0  0
 11 22  1  6  0  0  0
 12 15  1  0  0  0  0
 13 17  2  0  0  0  0
 14 13  1  0  0  0  0
 15 18  1  1  0  0  0
 15 17  1  0  0  0  0
 16 11  1  6  0  0  0
 16 12  1  0  0  0  0
 16 14  1  0  0  0  0
 18 21  1  0  0  0  0
 19 21  2  0  0  0  0
 21 20  1  0  0  0  0
 22 23  1  1  0  0  0
 24 25  2  0  0  0  0
 25 22  1  0  0  0  0
 28 27  1  1  0  0  0
 28 29  1  0  0  0  0
 28 26  1  0  0  0  0
 29 38  1  1  0  0  0
 31 34  1  0  0  0  0
 32 31  2  0  0  0  0
 32 36  1  0  0  0  0
 33 30  1  0  0  0  0
 33 35  1  1  0  0  0
 34 30  1  0  0  0  0
 34 29  1  1  0  0  0
 36 37  1  6  0  0  0
 36 33  1  0  0  0  0
 38 39  1  0  0  0  0
 39 40  1  0  0  0  0
 40 41  1  0  0  0  0
 41 42  1  0  0  0  0
 42 44  1  0  0  0  0
 43 44  2  0  0  0  0
 44 45  1  0  0  0  0
 45 46  1  0  0  0  0
 46 48  1  0  0  0  0
 48 47  1  0  0  0  0
M  END
>  <MODEL>
6

>  <REMARK>
 VINA RESULT:      -4.6      1.798      3.028
  Name = 
  19 active torsions:
  status: ('A' for Active; 'I' for Inactive)
    1  A    between atoms: C_3  and  C_12
    2  A    between atoms: C_5  and  C_29
    3  A    between atoms: C_5  and  C_33
    4  A    between atoms: C_5  and  C_34
    5  A    between atoms: N_6  and  C_7
    6  A    between atoms: N_6  and  C_9
    7  A    between atoms: C_7  and  C_40
    8  A    between atoms: C_9  and  C_22
    9  A    between atoms: C_9  and  C_27
   10  A    between atoms: C_13  and  C_32
   11  A    between atoms: C_13  and  C_47
   12  A    between atoms: N_16  and  C_23
   13  A    between atoms: O_19  and  C_28
   14  A    between atoms: O_19  and  C_31
   15  A    between atoms: C_23  and  C_40
   16  A    between atoms: C_27  and  C_44
   17  A    between atoms: C_34  and  C_35
   18  A    between atoms: C_39  and  C_47
   19  A    between atoms: C_41  and  C_44
                            x       y       z     vdW  Elec       q    Type
                         _______ _______ _______ _____ _____    ______ ____

>  <TORSDO>
F 19

$$$$
=
 OpenBabel11072409533D

 48 50  0  0  1  0  0  0  0  0999 V2000
  161.1080  206.1580  149.2380 C   0  0  0  0  0  0  0  0  0  0  0  0
  159.8040  206.2010  148.5040 C   0  0  0  0  0  1  0  0  0  0  0  0
  162.2510  205.9540  148.5660 C   0  0  0  0  0  3  0  0  0  0  0  0
  160.5790  204.0890  151.2350 O   0  0  0  0  0  0  0  0  0  0  0  0
  161.1350  206.3510  150.7090 C   0  0  0  0  0  0  0  0  0  0  0  0
  161.2540  205.3870  153.1130 C   0  0  0  0  0  2  0  0  0  0  0  0
  161.3030  207.8410  152.6630 C   0  0  0  0  0  0  0  0  0  0  0  0
  161.2590  206.8290  153.5400 C   0  0  0  0  0  3  0  0  0  0  0  0
  161.2850  207.5830  151.2130 C   0  0  0  0  0  3  0  0  0  0  0  0
  160.9690  205.2140  151.6480 C   0  0  0  0  0  0  0  0  0  0  0  0
  161.3650  209.2720  153.1340 C   0  0  2  0  0  3  0  0  0  0  0  0
  159.4900  210.6580  154.1230 C   0  0  0  0  0  2  0  0  0  0  0  0
  160.4060  210.1860  156.8060 C   0  0  0  0  0  3  0  0  0  0  0  0
  161.2940  209.8910  155.6240 C   0  0  0  0  0  2  0  0  0  0  0  0
  158.5050  210.7690  155.2890 C   0  0  1  0  0  3  0  0  0  0  0  0
  160.4780  209.5190  154.3780 C   0  0  2  0  0  3  0  0  0  0  0  0
  159.1490  210.6330  156.6520 C   0  0  0  0  0  3  0  0  0  0  0  0
  157.7160  211.9560  155.1950 O   0  0  0  0  0  0  0  0  0  0  0  0
  155.6690  213.0470  155.1510 O   0  0  0  0  0  0  0  0  0  0  0  0
  155.5820  210.6740  155.0830 C   0  0  0  0  0  1  0  0  0  0  0  0
  156.3160  211.9640  155.1520 C   0  0  0  0  0  0  0  0  0  0  0  0
  161.0410  210.2460  151.9830 C   0  0  1  0  0  3  0  0  0  0  0  0
  161.0180  211.5670  152.4380 O   0  0  0  0  0  1  0  0  0  0  0  0
  161.9610  210.8410  149.8870 O   0  0  0  0  0  0  0  0  0  0  0  0
  162.0530  210.1370  150.8800 C   0  0  0  0  0  3  0  0  0  0  0  0
  162.3180  205.7390  147.0900 C   0  0  0  0  0  2  0  0  0  0  0  0
  164.2670  204.6760  146.2050 O   0  0  0  0  0  1  0  0  0  0  0  0
  163.0260  204.4210  146.7990 C   0  0  2  0  0  3  0  0  0  0  0  0
  162.1910  203.5000  145.9010 C   0  0  1  0  0  3  0  0  0  0  0  0
  160.0460  202.1270  145.6980 C   0  0  0  0  0  2  0  0  0  0  0  0
  160.8930  202.7950  147.9470 C   0  0  0  0  0  3  0  0  0  0  0  0
  161.2210  201.5350  148.2630 C   0  0  0  0  0  3  0  0  0  0  0  0
  160.4620  200.6760  146.0310 C   0  0  1  0  0  3  0  0  0  0  0  0
  160.7950  203.2140  146.4970 C   0  0  1  0  0  3  0  0  0  0  0  0
  160.9310  200.0460  144.8930 F   0  0  0  0  0  0  0  0  0  0  0  0
  161.5000  200.5540  147.1610 C   0  0  2  0  0  3  0  0  0  0  0  0
  161.5080  199.2670  147.6740 F   0  0  0  0  0  0  0  0  0  0  0  0
  162.0780  204.0640  144.5550 N   0  0  0  0  0  2  0  0  0  0  0  0
  160.9090  204.9290  144.5600 C   0  0  0  0  0  2  0  0  0  0  0  0
  161.1960  206.1890  143.7660 C   0  0  0  0  0  2  0  0  0  0  0  0
  161.6170  205.8240  142.3520 C   0  0  0  0  0  2  0  0  0  0  0  0
  161.5810  207.0020  141.4960 N   0  0  0  0  0  2  0  0  0  0  0  0
  162.4690  205.9230  139.6190 O   0  0  0  0  0  0  0  0  0  0  0  0
  162.0340  206.9850  140.1390 C   0  0  0  0  0  0  0  0  0  0  0  0
  161.9760  208.2260  139.3230 C   0  0  0  0  0  2  0  0  0  0  0  0
  160.8900  208.1040  138.2680 C   0  0  0  0  0  2  0  0  0  0  0  0
  158.6730  208.9340  137.6900 N   0  0  0  0  0  1  0  0  0  0  0  0
  159.9060  209.2540  138.3790 C   0  0  0  0  0  2  0  0  0  0  0  0
  1  5  1  0  0  0  0
  2  1  1  0  0  0  0
  3  1  2  0  0  0  0
  4 10  2  0  0  0  0
  5  9  2  0  0  0  0
  5 10  1  0  0  0  0
  6  8  1  0  0  0  0
  7 11  1  0  0  0  0
  7  8  2  0  0  0  0
  9  7  1  0  0  0  0
 10  6  1  0  0  0  0
 11 22  1  6  0  0  0
 12 16  1  0  0  0  0
 12 15  1  0  0  0  0
 14 13  1  0  0  0  0
 15 18  1  1  0  0  0
 15 17  1  0  0  0  0
 16 11  1  6  0  0  0
 16 14  1  0  0  0  0
 17 13  2  0  0  0  0
 19 21  2  0  0  0  0
 20 21  1  0  0  0  0
 21 18  1  0  0  0  0
 22 23  1  1  0  0  0
 24 25  2  0  0  0  0
 25 22  1  0  0  0  0
 26  3  1  0  0  0  0
 28 27  1  6  0  0  0
 28 26  1  0  0  0  0
 29 38  1  6  0  0  0
 29 28  1  0  0  0  0
 30 33  1  0  0  0  0
 30 34  1  0  0  0  0
 31 32  2  0  0  0  0
 33 35  1  6  0  0  0
 33 36  1  0  0  0  0
 34 29  1  6  0  0  0
 34 31  1  0  0  0  0
 36 37  1  1  0  0  0
 36 32  1  0  0  0  0
 38 39  1  0  0  0  0
 40 39  1  0  0  0  0
 41 40  1  0  0  0  0
 42 41  1  0  0  0  0
 43 44  2  0  0  0  0
 44 42  1  0  0  0  0
 45 44  1  0  0  0  0
 46 48  1  0  0  0  0
 46 45  1  0  0  0  0
 47 48  1  0  0  0  0
M  END
>  <MODEL>
7

>  <REMARK>
 VINA RESULT:      -4.5      4.305      8.042
  Name = 
  19 active torsions:
  status: ('A' for Active; 'I' for Inactive)
    1  A    between atoms: C_3  and  C_12
    2  A    between atoms: C_5  and  C_29
    3  A    between atoms: C_5  and  C_33
    4  A    between atoms: C_5  and  C_34
    5  A    between atoms: N_6  and  C_7
    6  A    between atoms: N_6  and  C_9
    7  A    between atoms: C_7  and  C_40
    8  A    between atoms: C_9  and  C_22
    9  A    between atoms: C_9  and  C_27
   10  A    between atoms: C_13  and  C_32
   11  A    between atoms: C_13  and  C_47
   12  A    between atoms: N_16  and  C_23
   13  A    between atoms: O_19  and  C_28
   14  A    between atoms: O_19  and  C_31
   15  A    between atoms: C_23  and  C_40
   16  A    between atoms: C_27  and  C_44
   17  A    between atoms: C_34  and  C_35
   18  A    between atoms: C_39  and  C_47
   19  A    between atoms: C_41  and  C_44
                            x       y       z     vdW  Elec       q    Type
                         _______ _______ _______ _____ _____    ______ ____

>  <TORSDO>
F 19

$$$$
=
 OpenBabel11072409533D

 48 50  0  0  1  0  0  0  0  0999 V2000
  159.8720  213.3500  147.9100 C   0  0  0  0  0  0  0  0  0  0  0  0
  161.1990  212.6670  148.0260 C   0  0  0  0  0  1  0  0  0  0  0  0
  159.1840  213.6720  149.0150 C   0  0  0  0  0  3  0  0  0  0  0  0
  157.0350  213.5450  147.2340 O   0  0  0  0  0  0  0  0  0  0  0  0
  159.3250  213.6810  146.5710 C   0  0  0  0  0  0  0  0  0  0  0  0
  157.3650  214.4530  145.0590 C   0  0  0  0  0  2  0  0  0  0  0  0
  159.6680  214.0930  144.1670 C   0  0  0  0  0  0  0  0  0  0  0  0
  158.3760  214.3730  143.9480 C   0  0  0  0  0  3  0  0  0  0  0  0
  160.1530  213.7840  145.5230 C   0  0  0  0  0  3  0  0  0  0  0  0
  157.8700  213.8730  146.3500 C   0  0  0  0  0  0  0  0  0  0  0  0
  160.6610  214.0780  143.0320 C   0  0  2  0  0  3  0  0  0  0  0  0
  159.6890  212.4390  141.3630 C   0  0  0  0  0  2  0  0  0  0  0  0
  160.1670  214.2250  139.1630 C   0  0  0  0  0  3  0  0  0  0  0  0
  160.8280  214.4520  140.4990 C   0  0  0  0  0  2  0  0  0  0  0  0
  158.8530  212.3090  140.0880 C   0  0  1  0  0  3  0  0  0  0  0  0
  159.9740  213.9130  141.6550 C   0  0  2  0  0  3  0  0  0  0  0  0
  159.3020  213.2170  138.9640 C   0  0  0  0  0  3  0  0  0  0  0  0
  158.7600  210.9490  139.6620 O   0  0  0  0  0  0  0  0  0  0  0  0
  157.5360  209.1360  138.8900 O   0  0  0  0  0  0  0  0  0  0  0  0
  156.4120  211.2290  138.8740 C   0  0  0  0  0  1  0  0  0  0  0  0
  157.5980  210.3720  139.1320 C   0  0  0  0  0  0  0  0  0  0  0  0
  161.7550  213.0180  143.2710 C   0  0  1  0  0  3  0  0  0  0  0  0
  162.4190  212.7100  142.0800 O   0  0  0  0  0  1  0  0  0  0  0  0
  163.7290  214.1520  143.9120 O   0  0  0  0  0  0  0  0  0  0  0  0
  162.7640  213.4960  144.2720 C   0  0  0  0  0  3  0  0  0  0  0  0
  159.6510  213.3680  150.4010 C   0  0  0  0  0  2  0  0  0  0  0  0
  157.4450  213.8200  151.2030 O   0  0  0  0  0  1  0  0  0  0  0  0
  158.4770  212.8750  151.2380 C   0  0  2  0  0  3  0  0  0  0  0  0
  158.8790  212.5860  152.6890 C   0  0  1  0  0  3  0  0  0  0  0  0
  157.2130  211.9730  154.5270 C   0  0  0  0  0  2  0  0  0  0  0  0
  158.4460  214.1390  154.6320 C   0  0  0  0  0  3  0  0  0  0  0  0
  159.1750  213.7400  155.6830 C   0  0  0  0  0  3  0  0  0  0  0  0
  158.0790  211.4830  155.7100 C   0  0  1  0  0  3  0  0  0  0  0  0
  157.8360  213.1160  153.6990 C   0  0  1  0  0  3  0  0  0  0  0  0
  158.3620  210.1370  155.5640 F   0  0  0  0  0  0  0  0  0  0  0  0
  159.3860  212.2710  155.9120 C   0  0  2  0  0  3  0  0  0  0  0  0
  159.8820  212.0660  157.1890 F   0  0  0  0  0  0  0  0  0  0  0  0
  159.1100  211.1540  152.8810 N   0  0  0  0  0  2  0  0  0  0  0  0
  160.4090  210.8580  152.2960 C   0  0  0  0  0  2  0  0  0  0  0  0
  160.6150  209.3560  152.2300 C   0  0  0  0  0  2  0  0  0  0  0  0
  161.7530  209.0330  151.2750 C   0  0  0  0  0  2  0  0  0  0  0  0
  161.5070  207.7600  150.6110 N   0  0  0  0  0  2  0  0  0  0  0  0
  162.4450  208.4070  148.5680 O   0  0  0  0  0  0  0  0  0  0  0  0
  161.8690  207.5180  149.2480 C   0  0  0  0  0  0  0  0  0  0  0  0
  161.5810  206.1960  148.6300 C   0  0  0  0  0  2  0  0  0  0  0  0
  162.1390  206.1510  147.2180 C   0  0  0  0  0  2  0  0  0  0  0  0
  161.6230  205.3990  144.9580 N   0  0  0  0  0  1  0  0  0  0  0  0
  161.0460  205.8030  146.2230 C   0  0  0  0  0  2  0  0  0  0  0  0
  1  2  1  0  0  0  0
  1  3  2  0  0  0  0
  3 26  1  0  0  0  0
  5  1  1  0  0  0  0
  6 10  1  0  0  0  0
  7  9  1  0  0  0  0
  8  7  2  0  0  0  0
  8  6  1  0  0  0  0
  9  5  2  0  0  0  0
 10  5  1  0  0  0  0
 10  4  2  0  0  0  0
 11 22  1  1  0  0  0
 11  7  1  0  0  0  0
 12 16  1  0  0  0  0
 13 14  1  0  0  0  0
 14 16  1  0  0  0  0
 15 18  1  6  0  0  0
 15 12  1  0  0  0  0
 16 11  1  1  0  0  0
 17 13  2  0  0  0  0
 17 15  1  0  0  0  0
 19 21  2  0  0  0  0
 20 21  1  0  0  0  0
 21 18  1  0  0  0  0
 22 23  1  6  0  0  0
 22 25  1  0  0  0  0
 24 25  2  0  0  0  0
 26 28  1  0  0  0  0
 28 27  1  1  0  0  0
 28 29  1  0  0  0  0
 29 38  1  6  0  0  0
 30 33  1  0  0  0  0
 31 32  2  0  0  0  0
 32 36  1  0  0  0  0
 33 35  1  6  0  0  0
 33 36  1  0  0  0  0
 34 29  1  6  0  0  0
 34 30  1  0  0  0  0
 34 31  1  0  0  0  0
 36 37  1  1  0  0  0
 39 38  1  0  0  0  0
 40 39  1  0  0  0  0
 41 40  1  0  0  0  0
 42 41  1  0  0  0  0
 43 44  2  0  0  0  0
 44 42  1  0  0  0  0
 45 44  1  0  0  0  0
 46 45  1  0  0  0  0
 47 48  1  0  0  0  0
 48 46  1  0  0  0  0
M  END
>  <MODEL>
8

>  <REMARK>
 VINA RESULT:      -4.3      4.271      8.948
  Name = 
  19 active torsions:
  status: ('A' for Active; 'I' for Inactive)
    1  A    between atoms: C_3  and  C_12
    2  A    between atoms: C_5  and  C_29
    3  A    between atoms: C_5  and  C_33
    4  A    between atoms: C_5  and  C_34
    5  A    between atoms: N_6  and  C_7
    6  A    between atoms: N_6  and  C_9
    7  A    between atoms: C_7  and  C_40
    8  A    between atoms: C_9  and  C_22
    9  A    between atoms: C_9  and  C_27
   10  A    between atoms: C_13  and  C_32
   11  A    between atoms: C_13  and  C_47
   12  A    between atoms: N_16  and  C_23
   13  A    between atoms: O_19  and  C_28
   14  A    between atoms: O_19  and  C_31
   15  A    between atoms: C_23  and  C_40
   16  A    between atoms: C_27  and  C_44
   17  A    between atoms: C_34  and  C_35
   18  A    between atoms: C_39  and  C_47
   19  A    between atoms: C_41  and  C_44
                            x       y       z     vdW  Elec       q    Type
                         _______ _______ _______ _____ _____    ______ ____

>  <TORSDO>
F 19

$$$$
=
 OpenBabel11072409533D

 48 50  0  0  1  0  0  0  0  0999 V2000
  160.9460  210.0680  151.6690 C   0  0  0  0  0  0  0  0  0  0  0  0
  160.4440  209.1290  152.7220 C   0  0  0  0  0  1  0  0  0  0  0  0
  161.8770  209.6600  150.7940 C   0  0  0  0  0  3  0  0  0  0  0  0
  161.7980  212.1210  149.7700 O   0  0  0  0  0  0  0  0  0  0  0  0
  160.4050  211.4470  151.5890 C   0  0  0  0  0  0  0  0  0  0  0  0
  160.0720  213.6730  150.3010 C   0  0  0  0  0  2  0  0  0  0  0  0
  158.9850  213.2390  152.5050 C   0  0  0  0  0  0  0  0  0  0  0  0
  159.2530  214.0780  151.4950 C   0  0  0  0  0  3  0  0  0  0  0  0
  159.5440  211.8770  152.5210 C   0  0  0  0  0  3  0  0  0  0  0  0
  160.8160  212.3840  150.5140 C   0  0  0  0  0  0  0  0  0  0  0  0
  158.1110  213.6670  153.6570 C   0  0  2  0  0  3  0  0  0  0  0  0
  159.8990  212.7310  155.1880 C   0  0  0  0  0  2  0  0  0  0  0  0
  158.1660  210.6340  156.1150 C   0  0  0  0  0  3  0  0  0  0  0  0
  157.8240  211.4280  154.8790 C   0  0  0  0  0  2  0  0  0  0  0  0
  160.1570  212.0830  156.5500 C   0  0  1  0  0  3  0  0  0  0  0  0
  158.3940  212.8520  154.9420 C   0  0  2  0  0  3  0  0  0  0  0  0
  159.2570  210.9040  156.8500 C   0  0  0  0  0  3  0  0  0  0  0  0
  161.5350  211.7480  156.7150 O   0  0  0  0  0  0  0  0  0  0  0  0
  162.5360  210.7280  154.8870 O   0  0  0  0  0  0  0  0  0  0  0  0
  162.3990  209.4150  156.8620 C   0  0  0  0  0  1  0  0  0  0  0  0
  162.1590  210.6610  156.0890 C   0  0  0  0  0  0  0  0  0  0  0  0
  156.6210  213.6330  153.2600 C   0  0  1  0  0  3  0  0  0  0  0  0
  155.8190  214.1220  154.2950 O   0  0  0  0  0  1  0  0  0  0  0  0
  155.4930  214.1320  151.2420 O   0  0  0  0  0  0  0  0  0  0  0  0
  156.3690  214.4530  152.0290 C   0  0  0  0  0  3  0  0  0  0  0  0
  162.4870  208.2960  150.8060 C   0  0  0  0  0  2  0  0  0  0  0  0
  161.1900  208.2340  148.7990 O   0  0  0  0  0  1  0  0  0  0  0  0
  162.2690  207.6290  149.4540 C   0  0  2  0  0  3  0  0  0  0  0  0
  162.0270  206.1200  149.5840 C   0  0  1  0  0  3  0  0  0  0  0  0
  160.0230  204.5410  149.7280 C   0  0  0  0  0  2  0  0  0  0  0  0
  160.9070  205.6270  151.7920 C   0  0  0  0  0  3  0  0  0  0  0  0
  161.3760  204.4670  152.2720 C   0  0  0  0  0  3  0  0  0  0  0  0
  160.5990  203.2040  150.2480 C   0  0  1  0  0  3  0  0  0  0  0  0
  160.6970  205.8040  150.3050 C   0  0  1  0  0  3  0  0  0  0  0  0
  161.0730  202.4500  149.1900 F   0  0  0  0  0  0  0  0  0  0  0  0
  161.6980  203.3550  151.3150 C   0  0  2  0  0  3  0  0  0  0  0  0
  161.8600  202.1710  152.0150 F   0  0  0  0  0  0  0  0  0  0  0  0
  162.0730  205.4800  148.2690 N   0  0  0  0  0  2  0  0  0  0  0  0
  161.9850  206.5440  147.2810 C   0  0  0  0  0  2  0  0  0  0  0  0
  160.8050  206.2990  146.3610 C   0  0  0  0  0  2  0  0  0  0  0  0
  161.2560  205.5090  145.1430 C   0  0  0  0  0  2  0  0  0  0  0  0
  160.4430  204.3100  144.9910 N   0  0  0  0  0  2  0  0  0  0  0  0
  161.9680  202.8890  146.0530 O   0  0  0  0  0  0  0  0  0  0  0  0
  160.8650  203.0260  145.4610 C   0  0  0  0  0  0  0  0  0  0  0  0
  159.9870  201.8410  145.2670 C   0  0  0  0  0  2  0  0  0  0  0  0
  160.8230  200.6320  144.8860 C   0  0  0  0  0  2  0  0  0  0  0  0
  161.3610  200.1830  147.2200 N   0  0  0  0  0  1  0  0  0  0  0  0
  160.8210  199.6080  146.0060 C   0  0  0  0  0  2  0  0  0  0  0  0
  1  2  1  0  0  0  0
  3 26  1  0  0  0  0
  3  1  2  0  0  0  0
  4 10  2  0  0  0  0
  5  1  1  0  0  0  0
  5  9  2  0  0  0  0
  6 10  1  0  0  0  0
  6  8  1  0  0  0  0
  7  9  1  0  0  0  0
  7 11  1  0  0  0  0
  8  7  2  0  0  0  0
 10  5  1  0  0  0  0
 11 22  1  6  0  0  0
 12 15  1  0  0  0  0
 13 17  2  0  0  0  0
 14 16  1  0  0  0  0
 14 13  1  0  0  0  0
 15 18  1  6  0  0  0
 15 17  1  0  0  0  0
 16 11  1  6  0  0  0
 16 12  1  0  0  0  0
 19 21  2  0  0  0  0
 21 18  1  0  0  0  0
 21 20  1  0  0  0  0
 22 23  1  1  0  0  0
 24 25  2  0  0  0  0
 25 22  1  0  0  0  0
 28 27  1  1  0  0  0
 28 29  1  0  0  0  0
 28 26  1  0  0  0  0
 29 38  1  6  0  0  0
 30 33  1  0  0  0  0
 30 34  1  0  0  0  0
 31 32  2  0  0  0  0
 33 35  1  6  0  0  0
 33 36  1  0  0  0  0
 34 29  1  6  0  0  0
 34 31  1  0  0  0  0
 36 37  1  1  0  0  0
 36 32  1  0  0  0  0
 39 38  1  0  0  0  0
 40 39  1  0  0  0  0
 41 40  1  0  0  0  0
 42 41  1  0  0  0  0
 42 44  1  0  0  0  0
 44 43  2  0  0  0  0
 45 44  1  0  0  0  0
 46 45  1  0  0  0  0
 46 48  1  0  0  0  0
 48 47  1  0  0  0  0
M  END
>  <MODEL>
9

>  <REMARK>
 VINA RESULT:      -4.3      3.030      6.302
  Name = 
  19 active torsions:
  status: ('A' for Active; 'I' for Inactive)
    1  A    between atoms: C_3  and  C_12
    2  A    between atoms: C_5  and  C_29
    3  A    between atoms: C_5  and  C_33
    4  A    between atoms: C_5  and  C_34
    5  A    between atoms: N_6  and  C_7
    6  A    between atoms: N_6  and  C_9
    7  A    between atoms: C_7  and  C_40
    8  A    between atoms: C_9  and  C_22
    9  A    between atoms: C_9  and  C_27
   10  A    between atoms: C_13  and  C_32
   11  A    between atoms: C_13  and  C_47
   12  A    between atoms: N_16  and  C_23
   13  A    between atoms: O_19  and  C_28
   14  A    between atoms: O_19  and  C_31
   15  A    between atoms: C_23  and  C_40
   16  A    between atoms: C_27  and  C_44
   17  A    between atoms: C_34  and  C_35
   18  A    between atoms: C_39  and  C_47
   19  A    between atoms: C_41  and  C_44
                            x       y       z     vdW  Elec       q    Type
                         _______ _______ _______ _____ _____    ______ ____

>  <TORSDO>
F 19

$$$$
