=
 OpenBabel11072414033D

 62 69  0  0  1  0  0  0  0  0999 V2000
  159.3880  205.0870  145.4770 C   0  0  1  0  0  3  0  0  0  0  0  0
  163.4360  206.4930  147.1340 C   0  0  0  0  0  1  0  0  0  0  0  0
  161.3340  202.5120  147.8120 C   0  0  0  0  0  3  0  0  0  0  0  0
  160.6530  204.9790  146.3100 C   0  0  2  0  0  3  0  0  0  0  0  0
  159.4890  202.2020  150.4870 C   0  0  1  0  0  0  0  0  0  0  0  0
  161.1300  206.2700  146.6110 O   0  0  0  0  0  0  0  0  0  0  0  0
  160.5250  204.3270  150.4010 C   0  0  1  0  0  3  0  0  0  0  0  0
  159.8910  206.7580  143.8190 O   0  0  0  0  0  1  0  0  0  0  0  0
  161.6740  207.0440  148.8240 C   0  0  2  0  0  3  0  0  0  0  0  0
  158.7810  201.3450  149.6300 O   0  0  0  0  0  1  0  0  0  0  0  0
  161.2460  204.7450  143.9600 C   0  0  1  0  0  3  0  0  0  0  0  0
  160.9940  202.1140  150.2980 C   0  0  1  0  0  3  0  0  0  0  0  0
  158.3690  206.0770  146.0300 C   0  0  0  0  0  1  0  0  0  0  0  0
  161.4120  201.6560  148.9250 C   0  0  0  0  0  0  0  0  0  0  0  0
  160.3990  205.2430  151.6070 C   0  0  0  0  0  2  0  0  0  0  0  0
  161.6600  205.6910  152.0510 O   0  0  0  0  0  0  0  0  0  0  0  0
  161.5110  202.8560  145.3940 O   0  0  0  0  0  0  0  0  0  0  0  0
  161.5480  203.3760  150.5990 O   0  0  0  0  0  0  0  0  0  0  0  0
  162.0520  206.1290  147.6570 C   0  0  2  0  0  3  0  0  0  0  0  0
  159.1920  203.6350  150.1770 C   0  0  0  0  0  2  0  0  0  0  0  0
  161.6310  204.2800  145.3630 C   0  0  2  0  0  3  0  0  0  0  0  0
  162.1240  199.8590  147.4640 C   0  0  0  0  0  3  0  0  0  0  0  0
  162.5790  206.7690  150.0360 C   0  0  1  0  0  3  0  0  0  0  0  0
  161.8010  200.3260  148.7390 C   0  0  0  0  0  3  0  0  0  0  0  0
  160.3310  206.8880  149.1270 F   0  0  0  0  0  0  0  0  0  0  0  0
  162.0390  200.7150  146.3630 C   0  0  0  0  0  3  0  0  0  0  0  0
  163.7700  207.4860  149.9470 O   0  0  0  0  0  1  0  0  0  0  0  0
  159.8490  205.3800  144.0550 C   0  0  1  0  0  3  0  0  0  0  0  0
  161.9680  206.9280  151.4370 C   0  0  1  0  0  3  0  0  0  0  0  0
  161.6390  202.0450  146.5290 C   0  0  0  0  0  0  0  0  0  0  0  0
  161.9210  210.4650  152.6230 C   0  0  2  0  0  3  0  0  0  0  0  0
  160.9260  211.6280  152.7890 C   0  0  0  0  0  2  0  0  0  0  0  0
  161.2150  210.5880  154.8440 N   0  0  0  0  0  0  0  0  0  0  0  0
  160.7050  211.6160  154.2600 C   0  0  0  0  0  0  0  0  0  0  0  0
  161.6320  208.3590  153.9550 C   0  0  0  0  0  2  0  0  0  0  0  0
  160.5530  208.0750  153.0970 O   0  0  0  0  0  0  0  0  0  0  0  0
  161.6730  209.5180  151.4050 C   0  0  1  0  0  3  0  0  0  0  0  0
  161.0370  208.1350  151.7660 C   0  0  1  0  0  3  0  0  0  0  0  0
  161.8690  209.7850  153.9140 N   0  0  0  0  0  0  0  0  0  0  0  0
  162.5690  213.7080  149.0320 C   0  0  0  0  0  2  0  0  0  0  0  0
  161.0050  210.2070  150.1970 C   0  0  2  0  0  3  0  0  0  0  0  0
  161.2070  211.3740  146.8760 C   0  0  0  0  0  1  0  0  0  0  0  0
  161.6890  211.5820  148.2950 C   0  0  1  0  0  0  0  0  0  0  0  0
  161.9160  210.2450  148.9860 C   0  0  0  0  0  2  0  0  0  0  0  0
  160.6830  211.6650  150.4750 C   0  0  0  0  0  2  0  0  0  0  0  0
  162.9470  212.4290  148.3120 C   0  0  0  0  0  2  0  0  0  0  0  0
  160.7380  214.4530  150.3410 C   0  0  0  0  0  1  0  0  0  0  0  0
  161.1180  213.7460  149.1210 N   0  0  0  0  0  0  0  0  0  0  0  0
  160.6720  212.3470  149.1080 C   0  0  1  0  0  3  0  0  0  0  0  0
  159.9640  212.5960  154.9340 O   0  0  0  0  0  0  0  0  0  0  0  0
  158.5400  212.5730  155.0140 C   0  0  0  0  0  0  0  0  0  0  0  0
  158.0510  211.4930  154.2930 F   0  0  0  0  0  0  0  0  0  0  0  0
  158.0040  213.7530  154.5130 F   0  0  0  0  0  0  0  0  0  0  0  0
  158.1710  212.4360  156.3390 F   0  0  0  0  0  0  0  0  0  0  0  0
  159.1570  201.8760  151.9380 C   0  0  0  0  0  2  0  0  0  0  0  0
  160.1910  202.2730  152.7890 O   0  0  0  0  0  1  0  0  0  0  0  0
  162.3110  205.6610  143.3610 C   0  0  0  0  0  2  0  0  0  0  0  0
  161.7640  206.4130  142.1580 C   0  0  0  0  0  2  0  0  0  0  0  0
  162.6220  206.1210  140.9400 C   0  0  0  0  0  2  0  0  0  0  0  0
  162.1490  206.9260  139.7690 C   0  0  0  0  0  0  0  0  0  0  0  0
  161.4660  208.1130  139.9610 O   0  0  0  0  0  1  0  0  0  0  0  0
  162.3580  206.5200  138.5920 O   0  0  0  0  0  0  0  0  0  0  0  0
  1 13  1  1  0  0  0
  1  4  1  0  0  0  0
  3 14  1  0  0  0  0
  4  6  1  6  0  0  0
  5 10  1  6  0  0  0
  5 55  1  0  0  0  0
  6 19  1  0  0  0  0
  7 20  1  1  0  0  0
  7 18  1  0  0  0  0
  7 15  1  0  0  0  0
  9 25  1  1  0  0  0
  9 23  1  0  0  0  0
 11 57  1  1  0  0  0
 11 28  1  0  0  0  0
 11 21  1  0  0  0  0
 12 14  1  6  0  0  0
 12  5  1  0  0  0  0
 12 18  1  0  0  0  0
 15 16  1  0  0  0  0
 17 30  1  0  0  0  0
 19  2  1  6  0  0  0
 19  9  1  0  0  0  0
 20  5  1  0  0  0  0
 21 17  1  6  0  0  0
 21  4  1  0  0  0  0
 22 24  1  0  0  0  0
 23 27  1  1  0  0  0
 23 29  1  0  0  0  0
 24 14  2  0  0  0  0
 26 30  1  0  0  0  0
 26 22  2  0  0  0  0
 28  8  1  1  0  0  0
 28  1  1  0  0  0  0
 29 38  1  0  0  0  0
 29 16  1  6  0  0  0
 30  3  2  0  0  0  0
 31 32  1  1  0  0  0
 31 39  1  0  0  0  0
 32 34  1  0  0  0  0
 34 33  2  0  0  0  0
 34 50  1  0  0  0  0
 36 35  1  0  0  0  0
 37 41  1  6  0  0  0
 37 38  1  0  0  0  0
 37 31  1  0  0  0  0
 38 36  1  1  0  0  0
 39 35  1  0  0  0  0
 39 33  1  0  0  0  0
 40 48  1  0  0  0  0
 41 44  1  6  0  0  0
 41 45  1  0  0  0  0
 43 42  1  6  0  0  0
 43 46  1  0  0  0  0
 43 44  1  0  0  0  0
 43 49  1  0  0  0  0
 46 40  1  0  0  0  0
 48 47  1  0  0  0  0
 49 48  1  0  0  0  0
 49 45  1  1  0  0  0
 50 51  1  0  0  0  0
 51 54  1  0  0  0  0
 52 51  1  0  0  0  0
 53 51  1  0  0  0  0
 55 56  1  0  0  0  0
 58 57  1  0  0  0  0
 59 58  1  0  0  0  0
 60 61  1  0  0  0  0
 60 59  1  0  0  0  0
 62 60  2  0  0  0  0
M  END
>  <MODEL>
1

>  <REMARK>
 VINA RESULT:      13.7      0.000      0.000
  Name = 
  9 active torsions:
  status: ('A' for Active; 'I' for Inactive)
    1  A    between atoms: C_7  and  C_43
    2  A    between atoms: C_8  and  C_36
    3  A    between atoms: C_8  and  C_44
    4  A    between atoms: C_9  and  C_17
    5  A    between atoms: C_20  and  O_31
    6  A    between atoms: C_23  and  C_61
    7  A    between atoms: C_29  and  O_31
    8  A    between atoms: C_44  and  C_61
    9  A    between atoms: C_53  and  C_59
                            x       y       z     vdW  Elec       q    Type
                         _______ _______ _______ _____ _____    ______ ____

>  <TORSDO>
F 9

$$$$
=
 OpenBabel11072414033D

 62 69  0  0  1  0  0  0  0  0999 V2000
  163.7950  212.1350  148.9160 C   0  0  1  0  0  3  0  0  0  0  0  0
  160.3230  209.6980  147.1500 C   0  0  0  0  0  1  0  0  0  0  0  0
  160.4110  212.0960  151.0190 C   0  0  0  0  0  3  0  0  0  0  0  0
  162.4050  211.5240  148.8960 C   0  0  2  0  0  3  0  0  0  0  0  0
  161.1240  210.5050  153.7790 C   0  0  1  0  0  0  0  0  0  0  0  0
  162.4030  210.3840  148.0670 O   0  0  0  0  0  0  0  0  0  0  0  0
  161.0720  209.0320  151.9280 C   0  0  1  0  0  3  0  0  0  0  0  0
  164.4890  212.1440  146.6110 O   0  0  0  0  0  1  0  0  0  0  0  0
  161.5850  208.2180  148.7240 C   0  0  2  0  0  3  0  0  0  0  0  0
  161.6580  211.7610  154.1040 O   0  0  0  0  0  1  0  0  0  0  0  0
  162.4790  213.3400  147.2760 C   0  0  1  0  0  3  0  0  0  0  0  0
  159.8300  210.6010  152.9880 C   0  0  1  0  0  3  0  0  0  0  0  0
  164.9100  211.1210  149.1500 C   0  0  0  0  0  1  0  0  0  0  0  0
  159.6860  211.8780  152.2040 C   0  0  0  0  0  0  0  0  0  0  0  0
  161.1870  207.5380  152.1870 C   0  0  0  0  0  2  0  0  0  0  0  0
  160.1310  206.8250  151.5860 O   0  0  0  0  0  0  0  0  0  0  0  0
  161.0950  213.5900  149.2030 O   0  0  0  0  0  0  0  0  0  0  0  0
  159.7500  209.4760  152.1410 O   0  0  0  0  0  0  0  0  0  0  0  0
  161.2380  209.6650  148.3670 C   0  0  2  0  0  3  0  0  0  0  0  0
  162.0320  209.7600  152.8520 C   0  0  0  0  0  2  0  0  0  0  0  0
  161.5540  212.6230  148.2560 C   0  0  2  0  0  3  0  0  0  0  0  0
  158.7890  214.1230  152.0390 C   0  0  0  0  0  3  0  0  0  0  0  0
  160.3340  207.4730  149.2190 C   0  0  1  0  0  3  0  0  0  0  0  0
  158.8820  212.9040  152.7120 C   0  0  0  0  0  3  0  0  0  0  0  0
  162.6090  208.1970  149.6570 F   0  0  0  0  0  0  0  0  0  0  0  0
  159.5170  214.3320  150.8650 C   0  0  0  0  0  3  0  0  0  0  0  0
  159.5990  206.9630  148.1510 O   0  0  0  0  0  1  0  0  0  0  0  0
  163.9200  212.9270  147.6210 C   0  0  1  0  0  3  0  0  0  0  0  0
  160.5220  206.3940  150.2960 C   0  0  1  0  0  3  0  0  0  0  0  0
  160.3360  213.3230  150.3500 C   0  0  0  0  0  0  0  0  0  0  0  0
  161.4060  202.7700  150.2680 C   0  0  2  0  0  3  0  0  0  0  0  0
  162.6350  201.8690  150.0460 C   0  0  0  0  0  2  0  0  0  0  0  0
  162.2840  202.1110  152.3280 N   0  0  0  0  0  0  0  0  0  0  0  0
  162.9560  201.4640  151.4410 C   0  0  0  0  0  0  0  0  0  0  0  0
  161.3390  204.3540  152.2120 C   0  0  0  0  0  2  0  0  0  0  0  0
  162.2670  205.1290  151.4930 O   0  0  0  0  0  0  0  0  0  0  0  0
  161.3570  204.0840  149.4240 C   0  0  1  0  0  3  0  0  0  0  0  0
  161.7100  205.3870  150.2150 C   0  0  1  0  0  3  0  0  0  0  0  0
  161.4080  202.9990  151.7100 N   0  0  0  0  0  0  0  0  0  0  0  0
  159.7430  204.2490  144.8030 C   0  0  0  0  0  2  0  0  0  0  0  0
  162.0650  203.9810  148.0570 C   0  0  2  0  0  3  0  0  0  0  0  0
  162.9730  205.4650  144.9910 C   0  0  0  0  0  1  0  0  0  0  0  0
  161.8240  204.9360  145.8200 C   0  0  1  0  0  0  0  0  0  0  0  0
  162.0150  205.2860  147.2880 C   0  0  0  0  0  2  0  0  0  0  0  0
  161.3950  202.9740  147.1390 C   0  0  0  0  0  2  0  0  0  0  0  0
  160.5010  205.4640  145.2980 C   0  0  0  0  0  2  0  0  0  0  0  0
  159.9780  201.8970  144.9870 C   0  0  0  0  0  1  0  0  0  0  0  0
  160.6870  203.1470  144.7250 N   0  0  0  0  0  0  0  0  0  0  0  0
  161.7300  203.4320  145.7200 C   0  0  1  0  0  3  0  0  0  0  0  0
  163.9360  200.5140  151.7600 O   0  0  0  0  0  0  0  0  0  0  0  0
  165.2610  200.5600  151.2310 C   0  0  0  0  0  0  0  0  0  0  0  0
  165.9460  201.6310  151.7850 F   0  0  0  0  0  0  0  0  0  0  0  0
  165.2300  200.6870  149.8480 F   0  0  0  0  0  0  0  0  0  0  0  0
  165.9120  199.3860  151.5630 F   0  0  0  0  0  0  0  0  0  0  0  0
  160.8650  209.7050  155.0500 C   0  0  0  0  0  2  0  0  0  0  0  0
  159.9530  210.3650  155.8780 O   0  0  0  0  0  1  0  0  0  0  0  0
  162.0800  213.0680  145.8270 C   0  0  0  0  0  2  0  0  0  0  0  0
  160.7930  213.7950  145.4750 C   0  0  0  0  0  2  0  0  0  0  0  0
  159.6990  212.7850  145.1800 C   0  0  0  0  0  2  0  0  0  0  0  0
  158.4650  213.1150  145.9600 C   0  0  0  0  0  0  0  0  0  0  0  0
  157.3790  212.2580  145.9560 O   0  0  0  0  0  0  0  0  0  0  0  0
  158.3980  214.1890  146.6210 O   0  0  0  0  0  1  0  0  0  0  0  0
  1 13  1  6  0  0  0
  3 14  1  0  0  0  0
  4  6  1  6  0  0  0
  4  1  1  0  0  0  0
  5 10  1  1  0  0  0
  5 55  1  0  0  0  0
  6 19  1  0  0  0  0
  7 18  1  0  0  0  0
  7 15  1  1  0  0  0
  7 20  1  0  0  0  0
  9 23  1  0  0  0  0
  9 25  1  1  0  0  0
 11 57  1  6  0  0  0
 11 28  1  0  0  0  0
 11 21  1  0  0  0  0
 12 18  1  6  0  0  0
 12  5  1  0  0  0  0
 14 24  2  0  0  0  0
 14 12  1  0  0  0  0
 16 15  1  0  0  0  0
 17 30  1  0  0  0  0
 19  2  1  6  0  0  0
 19  9  1  0  0  0  0
 20  5  1  0  0  0  0
 21  4  1  0  0  0  0
 21 17  1  1  0  0  0
 22 24  1  0  0  0  0
 23 27  1  6  0  0  0
 23 29  1  0  0  0  0
 26 22  2  0  0  0  0
 28  8  1  6  0  0  0
 28  1  1  0  0  0  0
 29 16  1  1  0  0  0
 30 26  1  0  0  0  0
 30  3  2  0  0  0  0
 31 32  1  6  0  0  0
 31 39  1  0  0  0  0
 32 34  1  0  0  0  0
 34 50  1  0  0  0  0
 34 33  2  0  0  0  0
 36 35  1  0  0  0  0
 37 41  1  6  0  0  0
 37 38  1  0  0  0  0
 37 31  1  0  0  0  0
 38 29  1  0  0  0  0
 38 36  1  1  0  0  0
 39 35  1  0  0  0  0
 39 33  1  0  0  0  0
 40 46  1  0  0  0  0
 41 45  1  6  0  0  0
 43 42  1  6  0  0  0
 43 44  1  0  0  0  0
 44 41  1  0  0  0  0
 46 43  1  0  0  0  0
 48 40  1  0  0  0  0
 48 47  1  0  0  0  0
 48 49  1  0  0  0  0
 49 43  1  0  0  0  0
 49 45  1  1  0  0  0
 51 54  1  0  0  0  0
 51 50  1  0  0  0  0
 51 52  1  0  0  0  0
 53 51  1  0  0  0  0
 55 56  1  0  0  0  0
 58 57  1  0  0  0  0
 59 58  1  0  0  0  0
 59 60  1  0  0  0  0
 60 62  1  0  0  0  0
 61 60  2  0  0  0  0
M  END
>  <MODEL>
2

>  <REMARK>
 VINA RESULT:      16.1      3.834      9.149
  Name = 
  9 active torsions:
  status: ('A' for Active; 'I' for Inactive)
    1  A    between atoms: C_7  and  C_43
    2  A    between atoms: C_8  and  C_36
    3  A    between atoms: C_8  and  C_44
    4  A    between atoms: C_9  and  C_17
    5  A    between atoms: C_20  and  O_31
    6  A    between atoms: C_23  and  C_61
    7  A    between atoms: C_29  and  O_31
    8  A    between atoms: C_44  and  C_61
    9  A    between atoms: C_53  and  C_59
                            x       y       z     vdW  Elec       q    Type
                         _______ _______ _______ _____ _____    ______ ____

>  <TORSDO>
F 9

$$$$
