=
 OpenBabel11072415173D

 58 65  0  0  1  0  0  0  0  0999 V2000
  161.5150  208.9380  149.2140 C   0  0  2  0  0  3  0  0  0  0  0  0
  162.3280  207.9550  150.0480 C   0  0  2  0  0  3  0  0  0  0  0  0
  162.5520  207.3690  147.7000 C   0  0  1  0  0  3  0  0  0  0  0  0
  161.3680  208.3000  147.8450 C   0  0  0  0  0  2  0  0  0  0  0  0
  162.8790  206.8980  149.1030 C   0  0  0  0  0  2  0  0  0  0  0  0
  162.1340  205.9810  146.6600 S   0  0  0  0  0  0  0  0  0  0  0  0
  160.3710  205.9190  146.4360 C   0  0  0  0  0  1  0  0  0  0  0  0
  162.5980  204.6990  147.2800 O   0  0  0  0  0  0  0  0  0  0  0  0
  162.7950  206.1360  145.3170 O   0  0  0  0  0  0  0  0  0  0  0  0
  161.5170  207.3200  151.1960 C   0  0  2  0  0  3  0  0  0  0  0  0
  160.4420  206.3750  150.6730 C   0  0  0  0  0  2  0  0  0  0  0  0
  161.2450  202.8460  151.0310 C   0  0  0  0  0  0  0  0  0  0  0  0
  160.5140  203.7080  148.9000 C   0  0  0  0  0  3  0  0  0  0  0  0
  160.7040  204.9670  151.0880 C   0  0  0  0  0  0  0  0  0  0  0  0
  161.4480  200.0340  148.5340 C   0  0  0  0  0  1  0  0  0  0  0  0
  161.4750  201.5770  150.5070 C   0  0  0  0  0  3  0  0  0  0  0  0
  161.2110  201.3710  149.1390 C   0  0  0  0  0  0  0  0  0  0  0  0
  160.7260  202.4300  148.3430 C   0  0  0  0  0  3  0  0  0  0  0  0
  161.4380  203.2520  152.2630 O   0  0  0  0  0  0  0  0  0  0  0  0
  161.1380  204.5370  152.3360 C   0  0  0  0  0  3  0  0  0  0  0  0
  160.7880  203.8720  150.2560 C   0  0  0  0  0  0  0  0  0  0  0  0
  160.8450  208.4080  152.0240 C   0  0  0  0  0  2  0  0  0  0  0  0
  161.5920  208.6670  153.2050 O   0  0  0  0  0  0  0  0  0  0  0  0
  160.5200  207.2760  154.6770 O   0  0  0  0  0  0  0  0  0  0  0  0
  161.0700  208.3960  154.4710 C   0  0  0  0  0  0  0  0  0  0  0  0
  162.1700  210.3340  155.3590 C   0  0  0  0  0  0  0  0  0  0  0  0
  160.7060  210.6860  155.0740 N   0  0  0  0  0  0  0  0  0  0  0  0
  163.3940  210.6350  155.3820 O   0  0  0  0  0  0  0  0  0  0  0  0
  161.1210  209.4430  155.5510 C   0  0  1  0  0  3  0  0  0  0  0  0
  158.0220  211.9250  152.9560 C   0  0  0  0  0  2  0  0  0  0  0  0
  157.2990  211.6290  154.2610 C   0  0  0  0  0  2  0  0  0  0  0  0
  159.4470  211.4670  153.1540 C   0  0  0  0  0  2  0  0  0  0  0  0
  158.3680  211.3220  155.2980 C   0  0  0  0  0  2  0  0  0  0  0  0
  159.6890  211.6270  154.6340 C   0  0  0  0  0  3  0  0  0  0  0  0
  162.2810  210.2480  149.0980 C   0  0  0  0  0  2  0  0  0  0  0  0
  161.9990  211.1550  150.2820 C   0  0  0  0  0  2  0  0  0  0  0  0
  161.0660  212.2850  149.8790 C   0  0  0  0  0  2  0  0  0  0  0  0
  161.4890  212.8030  148.5220 C   0  0  0  0  0  2  0  0  0  0  0  0
  159.4250  214.2290  148.4080 C   0  0  0  0  0  1  0  0  0  0  0  0
  160.2790  213.2040  147.6720 C   0  0  1  0  0  3  0  0  0  0  0  0
  159.4070  212.0760  145.3070 O   0  0  0  0  0  1  0  0  0  0  0  0
  160.3350  213.1010  145.1420 C   0  0  1  0  0  0  0  0  0  0  0  0
  162.6800  213.5720  144.9590 O   0  0  0  0  0  1  0  0  0  0  0  0
  160.7880  213.8390  146.3860 C   0  0  2  0  0  3  0  0  0  0  0  0
  161.7300  212.8560  145.6820 C   0  0  1  0  0  3  0  0  0  0  0  0
  160.1570  214.2740  141.6670 O   0  0  0  0  0  0  0  0  0  0  0  0
  160.2040  213.4500  142.6200 C   0  0  0  0  0  0  0  0  0  0  0  0
  160.1970  213.9520  143.9600 N   0  0  0  0  0  2  0  0  0  0  0  0
  160.2800  211.9980  142.3600 C   0  0  0  0  0  3  0  0  0  0  0  0
  161.1050  211.3840  141.5030 C   0  0  0  0  0  3  0  0  0  0  0  0
  162.0980  212.0990  140.6460 C   0  0  0  0  0  2  0  0  0  0  0  0
  161.3350  211.6910  138.1480 O   0  0  0  0  0  0  0  0  0  0  0  0
  163.9840  211.7940  138.9770 C   0  0  0  0  0  2  0  0  0  0  0  0
  162.8780  211.1120  139.7710 C   0  0  2  0  0  0  0  0  0  0  0  0
  163.4340  212.9560  138.2310 N   0  0  0  0  0  2  0  0  0  0  0  0
  162.2020  210.6530  138.4610 C   0  0  1  0  0  3  0  0  0  0  0  0
  162.1770  212.6370  137.4790 C   0  0  0  0  0  2  0  0  0  0  0  0
  162.0530  209.8350  139.6770 C   0  0  0  0  0  2  0  0  0  0  0  0
  1 35  1  6  0  0  0
  1  2  1  0  0  0  0
  2 10  1  1  0  0  0
  3  6  1  6  0  0  0
  3  4  1  0  0  0  0
  3  5  1  0  0  0  0
  4  1  1  0  0  0  0
  5  2  1  0  0  0  0
  6  8  2  0  0  0  0
  7  6  1  0  0  0  0
  9  6  2  0  0  0  0
 10 11  1  6  0  0  0
 10 22  1  0  0  0  0
 11 14  1  0  0  0  0
 12 19  1  0  0  0  0
 13 21  1  0  0  0  0
 14 20  2  0  0  0  0
 15 17  1  0  0  0  0
 16 12  1  0  0  0  0
 17 16  2  0  0  0  0
 18 13  2  0  0  0  0
 18 17  1  0  0  0  0
 19 20  1  0  0  0  0
 21 12  2  0  0  0  0
 21 14  1  0  0  0  0
 22 23  1  0  0  0  0
 23 25  1  0  0  0  0
 25 24  2  0  0  0  0
 26 28  2  0  0  0  0
 26 29  1  0  0  0  0
 27 26  1  0  0  0  0
 27 29  1  0  0  0  0
 29 25  1  6  0  0  0
 30 32  1  0  0  0  0
 30 31  1  0  0  0  0
 31 33  1  0  0  0  0
 32 34  1  0  0  0  0
 34 27  1  0  0  0  0
 34 33  1  0  0  0  0
 35 36  1  0  0  0  0
 37 36  1  0  0  0  0
 38 37  1  0  0  0  0
 40 39  1  1  0  0  0
 40 38  1  0  0  0  0
 42 41  1  1  0  0  0
 42 45  1  0  0  0  0
 42 44  1  0  0  0  0
 44 40  1  1  0  0  0
 45 43  1  6  0  0  0
 45 44  1  0  0  0  0
 46 47  2  0  0  0  0
 47 48  1  0  0  0  0
 48 42  1  0  0  0  0
 49 47  1  0  0  0  0
 50 49  2  0  0  0  0
 51 50  1  0  0  0  0
 52 56  1  0  0  0  0
 53 54  1  0  0  0  0
 54 51  1  1  0  0  0
 55 53  1  0  0  0  0
 56 58  1  1  0  0  0
 56 54  1  0  0  0  0
 57 52  1  0  0  0  0
 57 55  1  0  0  0  0
 58 54  1  0  0  0  0
M  END
>  <MODEL>
1

>  <REMARK>
 VINA RESULT:      -6.9      0.000      0.000
  Name = 
  19 active torsions:
  status: ('A' for Active; 'I' for Inactive)
    1  A    between atoms: C_3  and  C_18
    2  A    between atoms: C_4  and  C_47
    3  A    between atoms: N_5  and  C_46
    4  A    between atoms: C_7  and  N_28
    5  A    between atoms: C_12  and  C_25
    6  A    between atoms: O_13  and  C_39
    7  A    between atoms: O_13  and  C_41
    8  A    between atoms: C_15  and  C_42
    9  A    between atoms: C_17  and  S_19
   10  A    between atoms: C_18  and  C_35
   11  A    between atoms: C_22  and  C_34
   12  A    between atoms: C_22  and  C_35
   13  A    between atoms: C_23  and  C_26
   14  A    between atoms: C_26  and  C_53
   15  A    between atoms: C_34  and  C_58
   16  A    between atoms: C_39  and  C_47
   17  A    between atoms: C_41  and  CA_55
   18  A    between atoms: C_42  and  C_47
   19  A    between atoms: C_45  and  C_58
                            x       y       z     vdW  Elec       q    Type
                         _______ _______ _______ _____ _____    ______ ____

>  <TORSDO>
F 19

$$$$
=
 OpenBabel11072415173D

 58 65  0  0  1  0  0  0  0  0999 V2000
  161.6280  209.3540  149.0300 C   0  0  2  0  0  3  0  0  0  0  0  0
  162.6830  208.5730  149.8040 C   0  0  2  0  0  3  0  0  0  0  0  0
  162.5170  207.6590  147.5580 C   0  0  1  0  0  3  0  0  0  0  0  0
  161.2920  208.5080  147.8160 C   0  0  0  0  0  2  0  0  0  0  0  0
  163.1520  207.4310  148.9150 C   0  0  0  0  0  2  0  0  0  0  0  0
  162.0570  206.1020  146.8180 S   0  0  0  0  0  0  0  0  0  0  0  0
  160.2840  205.9730  146.7650 C   0  0  0  0  0  1  0  0  0  0  0  0
  162.6110  204.9570  147.6090 O   0  0  0  0  0  0  0  0  0  0  0  0
  162.5970  206.0280  145.4150 O   0  0  0  0  0  0  0  0  0  0  0  0
  162.1760  208.0580  151.1660 C   0  0  2  0  0  3  0  0  0  0  0  0
  160.8360  207.3430  151.0370 C   0  0  0  0  0  2  0  0  0  0  0  0
  161.1020  203.8340  151.9550 C   0  0  0  0  0  0  0  0  0  0  0  0
  160.5790  204.4520  149.6820 C   0  0  0  0  0  3  0  0  0  0  0  0
  160.8740  205.9930  151.6690 C   0  0  0  0  0  0  0  0  0  0  0  0
  160.9780  200.6710  149.9140 C   0  0  0  0  0  1  0  0  0  0  0  0
  161.1620  202.4800  151.6370 C   0  0  0  0  0  3  0  0  0  0  0  0
  160.9180  202.1060  150.3010 C   0  0  0  0  0  0  0  0  0  0  0  0
  160.6210  203.0870  149.3320 C   0  0  0  0  0  3  0  0  0  0  0  0
  161.3080  204.3930  153.1220 O   0  0  0  0  0  0  0  0  0  0  0  0
  161.1970  205.7040  152.9890 C   0  0  0  0  0  3  0  0  0  0  0  0
  160.8270  204.7820  151.0130 C   0  0  0  0  0  0  0  0  0  0  0  0
  162.0140  209.2210  152.1370 C   0  0  0  0  0  2  0  0  0  0  0  0
  160.6420  209.5560  152.2880 O   0  0  0  0  0  0  0  0  0  0  0  0
  159.9690  211.6620  152.8900 O   0  0  0  0  0  0  0  0  0  0  0  0
  160.2170  210.4750  153.2490 C   0  0  0  0  0  0  0  0  0  0  0  0
  160.9620  210.7960  155.5070 C   0  0  0  0  0  0  0  0  0  0  0  0
  159.4490  211.0320  155.4480 N   0  0  0  0  0  0  0  0  0  0  0  0
  162.1070  211.0760  155.9530 O   0  0  0  0  0  0  0  0  0  0  0  0
  160.1070  210.0630  154.6920 C   0  0  1  0  0  3  0  0  0  0  0  0
  156.9030  213.6260  155.3150 C   0  0  0  0  0  2  0  0  0  0  0  0
  156.1190  212.3780  154.9430 C   0  0  0  0  0  2  0  0  0  0  0  0
  158.3430  213.1900  155.4500 C   0  0  0  0  0  2  0  0  0  0  0  0
  157.0340  211.1900  155.1920 C   0  0  0  0  0  2  0  0  0  0  0  0
  158.2580  211.7460  155.8790 C   0  0  0  0  0  3  0  0  0  0  0  0
  162.2160  210.6860  148.5890 C   0  0  0  0  0  2  0  0  0  0  0  0
  161.6220  211.8380  149.3800 C   0  0  0  0  0  2  0  0  0  0  0  0
  161.6380  213.1150  148.5560 C   0  0  0  0  0  2  0  0  0  0  0  0
  162.0470  212.7750  147.1390 C   0  0  0  0  0  2  0  0  0  0  0  0
  159.9000  214.0210  146.7680 C   0  0  0  0  0  1  0  0  0  0  0  0
  160.9290  213.0890  146.1410 C   0  0  1  0  0  3  0  0  0  0  0  0
  160.4710  211.9430  143.6710 O   0  0  0  0  0  1  0  0  0  0  0  0
  161.3220  213.0450  143.6400 C   0  0  1  0  0  0  0  0  0  0  0  0
  163.6210  213.7150  143.7710 O   0  0  0  0  0  1  0  0  0  0  0  0
  161.5440  213.7910  144.9400 C   0  0  2  0  0  3  0  0  0  0  0  0
  162.6500  212.9060  144.3550 C   0  0  1  0  0  3  0  0  0  0  0  0
  161.6800  214.3370  140.2210 O   0  0  0  0  0  0  0  0  0  0  0  0
  161.6960  213.4930  141.1580 C   0  0  0  0  0  0  0  0  0  0  0  0
  161.2660  213.9070  142.4590 N   0  0  0  0  0  2  0  0  0  0  0  0
  162.1630  212.1110  140.9230 C   0  0  0  0  0  3  0  0  0  0  0  0
  161.4320  211.0910  140.4580 C   0  0  0  0  0  3  0  0  0  0  0  0
  159.9850  211.1980  140.1020 C   0  0  0  0  0  2  0  0  0  0  0  0
  157.8680  209.9410  139.1390 O   0  0  0  0  0  0  0  0  0  0  0  0
  158.9430  212.2570  138.0460 C   0  0  0  0  0  2  0  0  0  0  0  0
  159.7850  211.1090  138.5850 C   0  0  2  0  0  0  0  0  0  0  0  0
  157.6740  212.3630  138.8160 N   0  0  0  0  0  2  0  0  0  0  0  0
  158.7470  210.0880  138.0740 C   0  0  1  0  0  3  0  0  0  0  0  0
  156.9750  211.0490  138.9890 C   0  0  0  0  0  2  0  0  0  0  0  0
  160.1650  209.6970  138.1560 C   0  0  0  0  0  2  0  0  0  0  0  0
  1 35  1  6  0  0  0
  1  2  1  0  0  0  0
  2 10  1  1  0  0  0
  3  6  1  1  0  0  0
  3  4  1  0  0  0  0
  3  5  1  0  0  0  0
  4  1  1  0  0  0  0
  5  2  1  0  0  0  0
  6  8  2  0  0  0  0
  7  6  1  0  0  0  0
  9  6  2  0  0  0  0
 10 11  1  6  0  0  0
 10 22  1  0  0  0  0
 11 14  1  0  0  0  0
 12 19  1  0  0  0  0
 13 21  1  0  0  0  0
 14 20  2  0  0  0  0
 15 17  1  0  0  0  0
 16 12  1  0  0  0  0
 17 16  2  0  0  0  0
 18 13  2  0  0  0  0
 18 17  1  0  0  0  0
 20 19  1  0  0  0  0
 21 14  1  0  0  0  0
 21 12  2  0  0  0  0
 22 23  1  0  0  0  0
 23 25  1  0  0  0  0
 24 25  2  0  0  0  0
 26 28  2  0  0  0  0
 27 26  1  0  0  0  0
 27 34  1  0  0  0  0
 29 25  1  6  0  0  0
 29 27  1  0  0  0  0
 29 26  1  0  0  0  0
 30 32  1  0  0  0  0
 31 33  1  0  0  0  0
 31 30  1  0  0  0  0
 32 34  1  0  0  0  0
 33 34  1  0  0  0  0
 35 36  1  0  0  0  0
 37 36  1  0  0  0  0
 38 37  1  0  0  0  0
 40 39  1  1  0  0  0
 40 38  1  0  0  0  0
 42 41  1  1  0  0  0
 42 45  1  0  0  0  0
 42 44  1  0  0  0  0
 44 40  1  1  0  0  0
 45 43  1  6  0  0  0
 45 44  1  0  0  0  0
 46 47  2  0  0  0  0
 47 48  1  0  0  0  0
 48 42  1  0  0  0  0
 49 47  1  0  0  0  0
 50 49  2  0  0  0  0
 51 50  1  0  0  0  0
 53 54  1  0  0  0  0
 53 55  1  0  0  0  0
 54 51  1  1  0  0  0
 55 57  1  0  0  0  0
 56 58  1  1  0  0  0
 56 54  1  0  0  0  0
 56 52  1  0  0  0  0
 57 52  1  0  0  0  0
 58 54  1  0  0  0  0
M  END
>  <MODEL>
2

>  <REMARK>
 VINA RESULT:      -6.9      1.817      2.197
  Name = 
  19 active torsions:
  status: ('A' for Active; 'I' for Inactive)
    1  A    between atoms: C_3  and  C_18
    2  A    between atoms: C_4  and  C_47
    3  A    between atoms: N_5  and  C_46
    4  A    between atoms: C_7  and  N_28
    5  A    between atoms: C_12  and  C_25
    6  A    between atoms: O_13  and  C_39
    7  A    between atoms: O_13  and  C_41
    8  A    between atoms: C_15  and  C_42
    9  A    between atoms: C_17  and  S_19
   10  A    between atoms: C_18  and  C_35
   11  A    between atoms: C_22  and  C_34
   12  A    between atoms: C_22  and  C_35
   13  A    between atoms: C_23  and  C_26
   14  A    between atoms: C_26  and  C_53
   15  A    between atoms: C_34  and  C_58
   16  A    between atoms: C_39  and  C_47
   17  A    between atoms: C_41  and  CA_55
   18  A    between atoms: C_42  and  C_47
   19  A    between atoms: C_45  and  C_58
                            x       y       z     vdW  Elec       q    Type
                         _______ _______ _______ _____ _____    ______ ____

>  <TORSDO>
F 19

$$$$
=
 OpenBabel11072415173D

 58 65  0  0  1  0  0  0  0  0999 V2000
  162.3210  206.9470  150.8660 C   0  0  2  0  0  3  0  0  0  0  0  0
  161.1250  207.1060  149.9360 C   0  0  2  0  0  3  0  0  0  0  0  0
  160.9090  205.0060  151.1420 C   0  0  1  0  0  3  0  0  0  0  0  0
  162.3380  205.4850  151.2740 C   0  0  0  0  0  2  0  0  0  0  0  0
  160.3030  205.8290  150.0220 C   0  0  0  0  0  2  0  0  0  0  0  0
  160.8640  203.2710  150.7340 S   0  0  0  0  0  0  0  0  0  0  0  0
  160.9580  202.3090  152.2270 C   0  0  0  0  0  1  0  0  0  0  0  0
  162.0110  202.9080  149.8410 O   0  0  0  0  0  0  0  0  0  0  0  0
  159.5770  202.9500  150.0230 O   0  0  0  0  0  0  0  0  0  0  0  0
  161.5290  207.4220  148.4810 C   0  0  2  0  0  3  0  0  0  0  0  0
  162.3750  206.3090  147.8750 C   0  0  0  0  0  2  0  0  0  0  0  0
  160.7240  204.5050  145.1820 C   0  0  0  0  0  0  0  0  0  0  0  0
  161.6620  203.2970  147.0470 C   0  0  0  0  0  3  0  0  0  0  0  0
  161.7710  205.7890  146.6140 C   0  0  0  0  0  0  0  0  0  0  0  0
  159.8550  200.8680  144.7370 C   0  0  0  0  0  1  0  0  0  0  0  0
  160.1930  203.3470  144.6210 C   0  0  0  0  0  3  0  0  0  0  0  0
  160.4090  202.1290  145.2950 C   0  0  0  0  0  0  0  0  0  0  0  0
  161.1460  202.1060  146.4970 C   0  0  0  0  0  3  0  0  0  0  0  0
  160.6280  205.7320  144.7300 O   0  0  0  0  0  0  0  0  0  0  0  0
  161.2350  206.5440  145.5780 C   0  0  0  0  0  3  0  0  0  0  0  0
  161.4260  204.4810  146.3510 C   0  0  0  0  0  0  0  0  0  0  0  0
  162.3260  208.7190  148.4310 C   0  0  0  0  0  2  0  0  0  0  0  0
  161.4810  209.8330  148.6850 O   0  0  0  0  0  0  0  0  0  0  0  0
  162.2240  210.6350  150.6980 O   0  0  0  0  0  0  0  0  0  0  0  0
  161.8910  210.8860  149.5040 C   0  0  0  0  0  0  0  0  0  0  0  0
  162.6590  212.4280  147.8340 C   0  0  0  0  0  0  0  0  0  0  0  0
  161.1260  212.4060  147.8180 N   0  0  0  0  0  0  0  0  0  0  0  0
  163.7680  212.4970  147.2410 O   0  0  0  0  0  0  0  0  0  0  0  0
  161.8870  212.2970  148.9820 C   0  0  1  0  0  3  0  0  0  0  0  0
  158.2730  214.0150  146.2380 C   0  0  0  0  0  2  0  0  0  0  0  0
  159.0170  213.4260  145.0500 C   0  0  0  0  0  2  0  0  0  0  0  0
  159.1300  213.7320  147.4490 C   0  0  0  0  0  2  0  0  0  0  0  0
  160.1080  212.5290  145.6110 C   0  0  0  0  0  2  0  0  0  0  0  0
  159.8640  212.4610  147.1000 C   0  0  0  0  0  3  0  0  0  0  0  0
  162.1200  207.8260  152.0920 C   0  0  0  0  0  2  0  0  0  0  0  0
  160.7310  207.6430  152.6770 C   0  0  0  0  0  2  0  0  0  0  0  0
  160.7720  206.6900  153.8610 C   0  0  0  0  0  2  0  0  0  0  0  0
  161.4690  207.3790  155.0140 C   0  0  0  0  0  2  0  0  0  0  0  0
  160.0780  207.2610  157.1010 C   0  0  0  0  0  1  0  0  0  0  0  0
  160.4730  208.1230  155.9090 C   0  0  1  0  0  3  0  0  0  0  0  0
  159.3500  210.5300  155.1560 O   0  0  0  0  0  1  0  0  0  0  0  0
  160.5240  210.6550  155.8930 C   0  0  1  0  0  0  0  0  0  0  0  0
  162.9110  210.8210  155.7140 O   0  0  0  0  0  1  0  0  0  0  0  0
  161.1490  209.3830  156.4300 C   0  0  2  0  0  3  0  0  0  0  0  0
  161.7940  210.1280  155.2560 C   0  0  1  0  0  3  0  0  0  0  0  0
  160.4520  214.0630  157.2580 O   0  0  0  0  0  0  0  0  0  0  0  0
  160.2430  213.1300  156.4360 C   0  0  0  0  0  0  0  0  0  0  0  0
  160.6350  211.8020  156.7960 N   0  0  0  0  0  2  0  0  0  0  0  0
  159.6220  213.4040  155.1240 C   0  0  0  0  0  3  0  0  0  0  0  0
  158.3910  213.8810  154.9100 C   0  0  0  0  0  3  0  0  0  0  0  0
  157.4240  214.2110  156.0000 C   0  0  0  0  0  2  0  0  0  0  0  0
  156.4090  211.9830  155.0040 O   0  0  0  0  0  0  0  0  0  0  0  0
  154.9810  213.7990  156.5470 C   0  0  0  0  0  2  0  0  0  0  0  0
  155.9840  214.2060  155.4760 C   0  0  2  0  0  0  0  0  0  0  0  0
  155.3990  212.5160  157.1730 N   0  0  0  0  0  2  0  0  0  0  0  0
  155.5610  213.0060  154.6020 C   0  0  1  0  0  3  0  0  0  0  0  0
  155.7700  211.4620  156.1750 C   0  0  0  0  0  2  0  0  0  0  0  0
  156.0520  214.2340  153.9540 C   0  0  0  0  0  2  0  0  0  0  0  0
  1  4  1  0  0  0  0
  1 35  1  1  0  0  0
  2 10  1  6  0  0  0
  2  5  1  0  0  0  0
  2  1  1  0  0  0  0
  3  6  1  6  0  0  0
  3  4  1  0  0  0  0
  5  3  1  0  0  0  0
  6  7  1  0  0  0  0
  8  6  2  0  0  0  0
  9  6  2  0  0  0  0
 10 11  1  1  0  0  0
 12 21  1  0  0  0  0
 14 11  1  0  0  0  0
 15 17  1  0  0  0  0
 16 12  2  0  0  0  0
 16 17  1  0  0  0  0
 17 18  2  0  0  0  0
 18 13  1  0  0  0  0
 19 12  1  0  0  0  0
 19 20  1  0  0  0  0
 20 14  2  0  0  0  0
 21 14  1  0  0  0  0
 21 13  2  0  0  0  0
 22 10  1  0  0  0  0
 22 23  1  0  0  0  0
 23 25  1  0  0  0  0
 25 24  2  0  0  0  0
 26 29  1  0  0  0  0
 27 26  1  0  0  0  0
 27 29  1  0  0  0  0
 28 26  2  0  0  0  0
 29 25  1  6  0  0  0
 30 32  1  0  0  0  0
 31 33  1  0  0  0  0
 31 30  1  0  0  0  0
 33 34  1  0  0  0  0
 34 32  1  0  0  0  0
 34 27  1  0  0  0  0
 35 36  1  0  0  0  0
 36 37  1  0  0  0  0
 37 38  1  0  0  0  0
 38 40  1  0  0  0  0
 40 39  1  1  0  0  0
 42 41  1  6  0  0  0
 42 44  1  0  0  0  0
 42 48  1  0  0  0  0
 44 40  1  6  0  0  0
 45 43  1  1  0  0  0
 45 42  1  0  0  0  0
 45 44  1  0  0  0  0
 47 48  1  0  0  0  0
 47 46  2  0  0  0  0
 49 47  1  0  0  0  0
 50 49  2  0  0  0  0
 50 51  1  0  0  0  0
 52 57  1  0  0  0  0
 53 55  1  0  0  0  0
 54 51  1  1  0  0  0
 54 53  1  0  0  0  0
 56 58  1  6  0  0  0
 56 52  1  0  0  0  0
 56 54  1  0  0  0  0
 57 55  1  0  0  0  0
 58 54  1  0  0  0  0
M  END
>  <MODEL>
3

>  <REMARK>
 VINA RESULT:      -5.8      3.660      9.910
  Name = 
  19 active torsions:
  status: ('A' for Active; 'I' for Inactive)
    1  A    between atoms: C_3  and  C_18
    2  A    between atoms: C_4  and  C_47
    3  A    between atoms: N_5  and  C_46
    4  A    between atoms: C_7  and  N_28
    5  A    between atoms: C_12  and  C_25
    6  A    between atoms: O_13  and  C_39
    7  A    between atoms: O_13  and  C_41
    8  A    between atoms: C_15  and  C_42
    9  A    between atoms: C_17  and  S_19
   10  A    between atoms: C_18  and  C_35
   11  A    between atoms: C_22  and  C_34
   12  A    between atoms: C_22  and  C_35
   13  A    between atoms: C_23  and  C_26
   14  A    between atoms: C_26  and  C_53
   15  A    between atoms: C_34  and  C_58
   16  A    between atoms: C_39  and  C_47
   17  A    between atoms: C_41  and  CA_55
   18  A    between atoms: C_42  and  C_47
   19  A    between atoms: C_45  and  C_58
                            x       y       z     vdW  Elec       q    Type
                         _______ _______ _______ _____ _____    ______ ____

>  <TORSDO>
F 19

$$$$
=
 OpenBabel11072415173D

 58 65  0  0  1  0  0  0  0  0999 V2000
  160.1780  209.6940  152.7780 C   0  0  2  0  0  3  0  0  0  0  0  0
  160.8020  211.0680  152.5630 C   0  0  2  0  0  3  0  0  0  0  0  0
  161.5370  210.1960  154.7100 C   0  0  1  0  0  3  0  0  0  0  0  0
  160.3400  209.3900  154.2560 C   0  0  0  0  0  2  0  0  0  0  0  0
  161.5570  211.4320  153.8320 C   0  0  0  0  0  2  0  0  0  0  0  0
  161.3710  210.6550  156.4260 S   0  0  0  0  0  0  0  0  0  0  0  0
  160.2930  209.5020  157.2460 C   0  0  0  0  0  1  0  0  0  0  0  0
  160.8020  212.0350  156.5510 O   0  0  0  0  0  0  0  0  0  0  0  0
  162.7200  210.6250  157.0920 O   0  0  0  0  0  0  0  0  0  0  0  0
  159.7680  212.1490  152.1890 C   0  0  2  0  0  3  0  0  0  0  0  0
  160.3960  213.2730  151.3730 C   0  0  0  0  0  2  0  0  0  0  0  0
  159.7810  213.0810  147.7940 C   0  0  0  0  0  0  0  0  0  0  0  0
  162.0170  213.4570  148.6170 C   0  0  0  0  0  3  0  0  0  0  0  0
  159.8870  213.2810  149.9720 C   0  0  0  0  0  0  0  0  0  0  0  0
  162.1010  213.0900  144.8270 C   0  0  0  0  0  1  0  0  0  0  0  0
  160.2150  213.0070  146.4730 C   0  0  0  0  0  3  0  0  0  0  0  0
  161.5910  213.1680  146.2210 C   0  0  0  0  0  0  0  0  0  0  0  0
  162.4850  213.3990  147.2880 C   0  0  0  0  0  3  0  0  0  0  0  0
  158.5580  212.9460  148.2450 O   0  0  0  0  0  0  0  0  0  0  0  0
  158.5800  213.0430  149.5630 C   0  0  0  0  0  3  0  0  0  0  0  0
  160.6500  213.2920  148.8240 C   0  0  0  0  0  0  0  0  0  0  0  0
  159.1590  212.7480  153.4510 C   0  0  0  0  0  2  0  0  0  0  0  0
  158.6900  214.0650  153.2010 O   0  0  0  0  0  0  0  0  0  0  0  0
  157.0610  214.4530  151.6370 O   0  0  0  0  0  0  0  0  0  0  0  0
  157.3600  214.3110  152.8580 C   0  0  0  0  0  0  0  0  0  0  0  0
  155.0570  214.0660  153.4850 C   0  0  0  0  0  0  0  0  0  0  0  0
  155.9170  213.2100  154.4210 N   0  0  0  0  0  0  0  0  0  0  0  0
  154.0070  214.2540  152.8140 O   0  0  0  0  0  0  0  0  0  0  0  0
  156.3150  214.4530  153.9310 C   0  0  1  0  0  3  0  0  0  0  0  0
  155.3100  210.8800  157.1480 C   0  0  0  0  0  2  0  0  0  0  0  0
  154.8180  210.1030  155.9360 C   0  0  0  0  0  2  0  0  0  0  0  0
  155.7010  212.2470  156.6360 C   0  0  0  0  0  2  0  0  0  0  0  0
  155.2370  210.8910  154.7050 C   0  0  0  0  0  2  0  0  0  0  0  0
  156.1230  212.0050  155.2080 C   0  0  0  0  0  3  0  0  0  0  0  0
  160.9360  208.6660  151.9510 C   0  0  0  0  0  2  0  0  0  0  0  0
  161.6960  207.6990  152.8390 C   0  0  0  0  0  2  0  0  0  0  0  0
  161.2030  206.2770  152.6260 C   0  0  0  0  0  2  0  0  0  0  0  0
  161.8830  205.7060  151.4000 C   0  0  0  0  0  2  0  0  0  0  0  0
  160.6290  205.2970  149.2630 C   0  0  0  0  0  1  0  0  0  0  0  0
  160.9610  204.7450  150.6440 C   0  0  1  0  0  3  0  0  0  0  0  0
  159.4450  202.5960  149.8020 O   0  0  0  0  0  1  0  0  0  0  0  0
  160.7680  202.2790  150.0950 C   0  0  1  0  0  0  0  0  0  0  0  0
  162.2390  201.5540  151.8460 O   0  0  0  0  0  1  0  0  0  0  0  0
  161.6920  203.4210  150.4680 C   0  0  2  0  0  3  0  0  0  0  0  0
  161.2070  202.4360  151.5370 C   0  0  1  0  0  3  0  0  0  0  0  0
  161.6110  199.9850  147.3550 O   0  0  0  0  0  0  0  0  0  0  0  0
  161.0570  200.9590  147.9340 C   0  0  0  0  0  0  0  0  0  0  0  0
  161.4060  201.2340  149.2950 N   0  0  0  0  0  2  0  0  0  0  0  0
  160.0600  201.7890  147.2290 C   0  0  0  0  0  3  0  0  0  0  0  0
  160.3140  202.7550  146.3380 C   0  0  0  0  0  3  0  0  0  0  0  0
  161.6890  203.1590  145.9160 C   0  0  0  0  0  2  0  0  0  0  0  0
  162.4320  204.9550  144.1240 O   0  0  0  0  0  0  0  0  0  0  0  0
  160.7850  205.4980  146.2940 C   0  0  0  0  0  2  0  0  0  0  0  0
  162.0040  204.5890  146.3670 C   0  0  2  0  0  0  0  0  0  0  0  0
  160.1680  205.4150  144.9430 N   0  0  0  0  0  2  0  0  0  0  0  0
  162.7550  205.4900  145.3650 C   0  0  1  0  0  3  0  0  0  0  0  0
  161.1610  205.5440  143.8290 C   0  0  0  0  0  2  0  0  0  0  0  0
  163.5200  204.7410  146.3760 C   0  0  0  0  0  2  0  0  0  0  0  0
  1 35  1  6  0  0  0
  1  4  1  0  0  0  0
  2 10  1  1  0  0  0
  2  1  1  0  0  0  0
  2  5  1  0  0  0  0
  3  6  1  1  0  0  0
  4  3  1  0  0  0  0
  5  3  1  0  0  0  0
  6  8  2  0  0  0  0
  6  9  2  0  0  0  0
  6  7  1  0  0  0  0
 10 11  1  1  0  0  0
 10 22  1  0  0  0  0
 12 19  1  0  0  0  0
 12 21  1  0  0  0  0
 13 21  2  0  0  0  0
 14 11  1  0  0  0  0
 15 17  1  0  0  0  0
 16 12  2  0  0  0  0
 17 16  1  0  0  0  0
 17 18  2  0  0  0  0
 18 13  1  0  0  0  0
 19 20  1  0  0  0  0
 20 14  2  0  0  0  0
 21 14  1  0  0  0  0
 23 22  1  0  0  0  0
 24 25  2  0  0  0  0
 25 23  1  0  0  0  0
 26 29  1  0  0  0  0
 26 27  1  0  0  0  0
 27 34  1  0  0  0  0
 28 26  2  0  0  0  0
 29 25  1  6  0  0  0
 29 27  1  0  0  0  0
 31 30  1  0  0  0  0
 32 30  1  0  0  0  0
 33 34  1  0  0  0  0
 33 31  1  0  0  0  0
 34 32  1  0  0  0  0
 35 36  1  0  0  0  0
 37 36  1  0  0  0  0
 38 37  1  0  0  0  0
 40 39  1  6  0  0  0
 40 38  1  0  0  0  0
 42 41  1  6  0  0  0
 42 44  1  0  0  0  0
 42 45  1  0  0  0  0
 44 40  1  1  0  0  0
 44 45  1  0  0  0  0
 45 43  1  6  0  0  0
 46 47  2  0  0  0  0
 47 48  1  0  0  0  0
 48 42  1  0  0  0  0
 49 47  1  0  0  0  0
 50 49  2  0  0  0  0
 51 50  1  0  0  0  0
 52 56  1  0  0  0  0
 53 54  1  0  0  0  0
 54 51  1  6  0  0  0
 54 58  1  0  0  0  0
 55 53  1  0  0  0  0
 56 54  1  0  0  0  0
 56 58  1  1  0  0  0
 57 52  1  0  0  0  0
 57 55  1  0  0  0  0
M  END
>  <MODEL>
4

>  <REMARK>
 VINA RESULT:      -5.3      4.000      9.381
  Name = 
  19 active torsions:
  status: ('A' for Active; 'I' for Inactive)
    1  A    between atoms: C_3  and  C_18
    2  A    between atoms: C_4  and  C_47
    3  A    between atoms: N_5  and  C_46
    4  A    between atoms: C_7  and  N_28
    5  A    between atoms: C_12  and  C_25
    6  A    between atoms: O_13  and  C_39
    7  A    between atoms: O_13  and  C_41
    8  A    between atoms: C_15  and  C_42
    9  A    between atoms: C_17  and  S_19
   10  A    between atoms: C_18  and  C_35
   11  A    between atoms: C_22  and  C_34
   12  A    between atoms: C_22  and  C_35
   13  A    between atoms: C_23  and  C_26
   14  A    between atoms: C_26  and  C_53
   15  A    between atoms: C_34  and  C_58
   16  A    between atoms: C_39  and  C_47
   17  A    between atoms: C_41  and  CA_55
   18  A    between atoms: C_42  and  C_47
   19  A    between atoms: C_45  and  C_58
                            x       y       z     vdW  Elec       q    Type
                         _______ _______ _______ _____ _____    ______ ____

>  <TORSDO>
F 19

$$$$
=
 OpenBabel11072415173D

 58 65  0  0  1  0  0  0  0  0999 V2000
  160.7070  209.7710  151.6420 C   0  0  2  0  0  3  0  0  0  0  0  0
  160.7040  211.0380  152.4890 C   0  0  2  0  0  3  0  0  0  0  0  0
  161.4150  209.1690  153.8720 C   0  0  1  0  0  3  0  0  0  0  0  0
  160.7620  208.6150  152.6240 C   0  0  0  0  0  2  0  0  0  0  0  0
  161.0310  210.6350  153.9180 C   0  0  0  0  0  2  0  0  0  0  0  0
  160.8150  208.3230  155.3230 S   0  0  0  0  0  0  0  0  0  0  0  0
  160.6040  206.5950  154.9560 C   0  0  0  0  0  1  0  0  0  0  0  0
  159.5030  208.8960  155.7640 O   0  0  0  0  0  0  0  0  0  0  0  0
  161.8080  208.4700  156.4430 O   0  0  0  0  0  0  0  0  0  0  0  0
  159.3740  211.8140  152.4100 C   0  0  2  0  0  3  0  0  0  0  0  0
  159.5830  213.2480  151.9360 C   0  0  0  0  0  2  0  0  0  0  0  0
  158.4930  213.4960  148.4750 C   0  0  0  0  0  0  0  0  0  0  0  0
  160.8360  213.2350  148.9870 C   0  0  0  0  0  3  0  0  0  0  0  0
  158.9210  213.4920  150.6230 C   0  0  0  0  0  0  0  0  0  0  0  0
  160.3420  213.1550  145.2120 C   0  0  0  0  0  1  0  0  0  0  0  0
  158.7220  213.4190  147.1040 C   0  0  0  0  0  3  0  0  0  0  0  0
  160.0500  213.2490  146.6670 C   0  0  0  0  0  0  0  0  0  0  0  0
  161.1000  213.1650  147.6040 C   0  0  0  0  0  3  0  0  0  0  0  0
  157.3430  213.6360  149.0890 O   0  0  0  0  0  0  0  0  0  0  0  0
  157.5560  213.6210  150.3940 C   0  0  0  0  0  3  0  0  0  0  0  0
  159.5100  213.4020  149.3800 C   0  0  0  0  0  0  0  0  0  0  0  0
  158.7070  211.8490  153.7790 C   0  0  0  0  0  2  0  0  0  0  0  0
  157.4440  212.4940  153.7020 O   0  0  0  0  0  0  0  0  0  0  0  0
  155.7240  211.0170  154.0310 O   0  0  0  0  0  0  0  0  0  0  0  0
  156.3480  212.0400  154.4360 C   0  0  0  0  0  0  0  0  0  0  0  0
  155.5670  211.9300  156.7020 C   0  0  0  0  0  0  0  0  0  0  0  0
  156.8590  212.7540  156.6650 N   0  0  0  0  0  0  0  0  0  0  0  0
  154.8060  211.0950  157.2600 O   0  0  0  0  0  0  0  0  0  0  0  0
  155.8940  212.7890  155.6600 C   0  0  1  0  0  3  0  0  0  0  0  0
  160.4740  212.8220  157.0600 C   0  0  0  0  0  2  0  0  0  0  0  0
  160.1750  214.2190  156.5380 C   0  0  0  0  0  2  0  0  0  0  0  0
  159.1570  212.0830  157.0550 C   0  0  0  0  0  2  0  0  0  0  0  0
  158.6640  214.3830  156.5550 C   0  0  0  0  0  2  0  0  0  0  0  0
  158.1220  213.1620  157.2590 C   0  0  0  0  0  3  0  0  0  0  0  0
  161.9470  209.7630  150.7600 C   0  0  0  0  0  2  0  0  0  0  0  0
  162.3750  208.3450  150.4280 C   0  0  0  0  0  2  0  0  0  0  0  0
  162.3670  208.1230  148.9240 C   0  0  0  0  0  2  0  0  0  0  0  0
  162.0130  206.6780  148.6480 C   0  0  0  0  0  2  0  0  0  0  0  0
  163.4710  205.3620  147.0840 C   0  0  0  0  0  1  0  0  0  0  0  0
  162.2780  206.3040  147.1860 C   0  0  1  0  0  3  0  0  0  0  0  0
  162.7150  204.4210  145.2150 O   0  0  0  0  0  1  0  0  0  0  0  0
  161.3710  204.6390  145.5070 C   0  0  1  0  0  0  0  0  0  0  0  0
  159.4540  205.9540  144.9150 O   0  0  0  0  0  1  0  0  0  0  0  0
  161.0500  205.5850  146.6470 C   0  0  2  0  0  3  0  0  0  0  0  0
  160.8160  206.0150  145.1950 C   0  0  1  0  0  3  0  0  0  0  0  0
  159.8750  201.3080  145.8870 O   0  0  0  0  0  0  0  0  0  0  0  0
  160.6730  202.2610  146.1010 C   0  0  0  0  0  0  0  0  0  0  0  0
  160.4650  203.4950  145.4070 N   0  0  0  0  0  2  0  0  0  0  0  0
  161.8060  202.1030  147.0340 C   0  0  0  0  0  3  0  0  0  0  0  0
  161.8820  202.5780  148.2830 C   0  0  0  0  0  3  0  0  0  0  0  0
  160.8010  203.3730  148.9390 C   0  0  0  0  0  2  0  0  0  0  0  0
  162.2990  203.4420  151.1170 O   0  0  0  0  0  0  0  0  0  0  0  0
  159.5270  203.6260  151.1180 C   0  0  0  0  0  2  0  0  0  0  0  0
  160.3090  202.6820  150.2150 C   0  0  2  0  0  0  0  0  0  0  0  0
  160.3170  204.8620  151.3690 N   0  0  0  0  0  2  0  0  0  0  0  0
  161.3490  202.4520  151.3320 C   0  0  1  0  0  3  0  0  0  0  0  0
  161.7360  204.5890  151.7630 C   0  0  0  0  0  2  0  0  0  0  0  0
  161.0860  201.3790  150.3570 C   0  0  0  0  0  2  0  0  0  0  0  0
  1 35  1  6  0  0  0
  1  2  1  0  0  0  0
  1  4  1  0  0  0  0
  2 10  1  1  0  0  0
  2  5  1  0  0  0  0
  3  5  1  0  0  0  0
  3  6  1  1  0  0  0
  4  3  1  0  0  0  0
  6  8  2  0  0  0  0
  6  9  2  0  0  0  0
  7  6  1  0  0  0  0
 10 11  1  1  0  0  0
 10 22  1  0  0  0  0
 12 19  1  0  0  0  0
 12 21  1  0  0  0  0
 13 21  2  0  0  0  0
 14 11  1  0  0  0  0
 15 17  1  0  0  0  0
 16 12  2  0  0  0  0
 17 16  1  0  0  0  0
 17 18  2  0  0  0  0
 18 13  1  0  0  0  0
 19 20  1  0  0  0  0
 20 14  2  0  0  0  0
 21 14  1  0  0  0  0
 23 22  1  0  0  0  0
 23 25  1  0  0  0  0
 24 25  2  0  0  0  0
 26 28  2  0  0  0  0
 27 26  1  0  0  0  0
 27 34  1  0  0  0  0
 29 25  1  6  0  0  0
 29 27  1  0  0  0  0
 29 26  1  0  0  0  0
 31 33  1  0  0  0  0
 31 30  1  0  0  0  0
 32 30  1  0  0  0  0
 32 34  1  0  0  0  0
 33 34  1  0  0  0  0
 36 35  1  0  0  0  0
 37 36  1  0  0  0  0
 38 37  1  0  0  0  0
 40 39  1  1  0  0  0
 40 38  1  0  0  0  0
 42 41  1  6  0  0  0
 42 44  1  0  0  0  0
 44 40  1  6  0  0  0
 45 43  1  1  0  0  0
 45 42  1  0  0  0  0
 45 44  1  0  0  0  0
 46 47  2  0  0  0  0
 47 49  1  0  0  0  0
 48 42  1  0  0  0  0
 48 47  1  0  0  0  0
 49 50  2  0  0  0  0
 50 51  1  0  0  0  0
 52 56  1  0  0  0  0
 52 57  1  0  0  0  0
 53 55  1  0  0  0  0
 54 51  1  6  0  0  0
 54 58  1  0  0  0  0
 54 53  1  0  0  0  0
 54 56  1  0  0  0  0
 55 57  1  0  0  0  0
 56 58  1  6  0  0  0
M  END
>  <MODEL>
5

>  <REMARK>
 VINA RESULT:      -5.3      4.118      9.452
  Name = 
  19 active torsions:
  status: ('A' for Active; 'I' for Inactive)
    1  A    between atoms: C_3  and  C_18
    2  A    between atoms: C_4  and  C_47
    3  A    between atoms: N_5  and  C_46
    4  A    between atoms: C_7  and  N_28
    5  A    between atoms: C_12  and  C_25
    6  A    between atoms: O_13  and  C_39
    7  A    between atoms: O_13  and  C_41
    8  A    between atoms: C_15  and  C_42
    9  A    between atoms: C_17  and  S_19
   10  A    between atoms: C_18  and  C_35
   11  A    between atoms: C_22  and  C_34
   12  A    between atoms: C_22  and  C_35
   13  A    between atoms: C_23  and  C_26
   14  A    between atoms: C_26  and  C_53
   15  A    between atoms: C_34  and  C_58
   16  A    between atoms: C_39  and  C_47
   17  A    between atoms: C_41  and  CA_55
   18  A    between atoms: C_42  and  C_47
   19  A    between atoms: C_45  and  C_58
                            x       y       z     vdW  Elec       q    Type
                         _______ _______ _______ _____ _____    ______ ____

>  <TORSDO>
F 19

$$$$
=
 OpenBabel11072415173D

 58 65  0  0  1  0  0  0  0  0999 V2000
  161.5050  205.4100  145.2470 C   0  0  2  0  0  3  0  0  0  0  0  0
  162.4030  204.9430  146.3860 C   0  0  2  0  0  3  0  0  0  0  0  0
  161.4390  202.9960  145.2960 C   0  0  1  0  0  3  0  0  0  0  0  0
  160.6450  204.2150  144.8790 C   0  0  0  0  0  2  0  0  0  0  0  0
  162.2630  203.4320  146.4910 C   0  0  0  0  0  2  0  0  0  0  0  0
  160.3460  201.6600  145.7480 S   0  0  0  0  0  0  0  0  0  0  0  0
  160.7700  201.0730  147.3720 C   0  0  0  0  0  1  0  0  0  0  0  0
  160.4610  200.5310  144.7700 O   0  0  0  0  0  0  0  0  0  0  0  0
  158.9230  202.1500  145.7580 O   0  0  0  0  0  0  0  0  0  0  0  0
  162.0870  205.6350  147.7280 C   0  0  2  0  0  3  0  0  0  0  0  0
  160.8500  205.0440  148.3910 C   0  0  0  0  0  2  0  0  0  0  0  0
  161.2160  204.5770  151.9800 C   0  0  0  0  0  0  0  0  0  0  0  0
  160.9960  206.7990  151.0670 C   0  0  0  0  0  3  0  0  0  0  0  0
  161.1320  204.6170  149.7920 C   0  0  0  0  0  0  0  0  0  0  0  0
  161.0640  206.9870  154.8700 C   0  0  0  0  0  1  0  0  0  0  0  0
  161.2030  205.0490  153.2890 C   0  0  0  0  0  3  0  0  0  0  0  0
  161.0880  206.4390  153.4880 C   0  0  0  0  0  0  0  0  0  0  0  0
  160.9930  207.3080  152.3820 C   0  0  0  0  0  3  0  0  0  0  0  0
  161.2990  203.3330  151.5760 O   0  0  0  0  0  0  0  0  0  0  0  0
  161.2340  203.3110  150.2560 C   0  0  0  0  0  3  0  0  0  0  0  0
  161.1100  205.4200  150.9120 C   0  0  0  0  0  0  0  0  0  0  0  0
  161.8530  207.1240  147.5040 C   0  0  0  0  0  2  0  0  0  0  0  0
  162.1750  207.8600  148.6760 O   0  0  0  0  0  0  0  0  0  0  0  0
  163.0770  209.8060  147.8700 O   0  0  0  0  0  0  0  0  0  0  0  0
  162.2600  209.2530  148.6610 C   0  0  0  0  0  0  0  0  0  0  0  0
  162.1620  210.5160  150.6980 C   0  0  0  0  0  0  0  0  0  0  0  0
  161.7520  211.4250  149.5340 N   0  0  0  0  0  0  0  0  0  0  0  0
  162.7440  210.3280  151.8000 O   0  0  0  0  0  0  0  0  0  0  0  0
  161.4240  210.0720  149.6080 C   0  0  1  0  0  3  0  0  0  0  0  0
  162.7070  213.9040  147.0500 C   0  0  0  0  0  2  0  0  0  0  0  0
  161.2600  213.6130  146.6840 C   0  0  0  0  0  2  0  0  0  0  0  0
  163.0510  212.9580  148.1760 C   0  0  0  0  0  2  0  0  0  0  0  0
  160.6840  212.7590  147.8010 C   0  0  0  0  0  2  0  0  0  0  0  0
  161.7380  212.7240  148.8820 C   0  0  0  0  0  3  0  0  0  0  0  0
  162.3710  205.8120  144.0610 C   0  0  0  0  0  2  0  0  0  0  0  0
  161.5650  205.8320  142.7750 C   0  0  0  0  0  2  0  0  0  0  0  0
  162.3300  206.5540  141.6780 C   0  0  0  0  0  2  0  0  0  0  0  0
  161.3350  207.1510  140.7050 C   0  0  0  0  0  2  0  0  0  0  0  0
  161.6950  207.5920  138.2600 C   0  0  0  0  0  1  0  0  0  0  0  0
  162.0270  208.0490  139.6750 C   0  0  1  0  0  3  0  0  0  0  0  0
  162.6600  209.8550  137.6850 O   0  0  0  0  0  1  0  0  0  0  0  0
  161.9820  210.4120  138.7660 C   0  0  1  0  0  0  0  0  0  0  0  0
  162.2830  211.4680  140.8990 O   0  0  0  0  0  1  0  0  0  0  0  0
  161.5110  209.4690  139.8550 C   0  0  2  0  0  3  0  0  0  0  0  0
  162.6980  210.4050  140.1020 C   0  0  1  0  0  3  0  0  0  0  0  0
  159.1090  212.3620  137.5720 O   0  0  0  0  0  0  0  0  0  0  0  0
  159.7980  211.3390  137.8340 C   0  0  0  0  0  0  0  0  0  0  0  0
  161.0580  211.5130  138.4890 N   0  0  0  0  0  2  0  0  0  0  0  0
  159.3230  209.9910  137.4590 C   0  0  0  0  0  3  0  0  0  0  0  0
  158.0500  209.6160  137.2840 C   0  0  0  0  0  3  0  0  0  0  0  0
  156.8810  210.5290  137.4560 C   0  0  0  0  0  2  0  0  0  0  0  0
  154.3260  211.0340  137.9120 O   0  0  0  0  0  0  0  0  0  0  0  0
  155.7970  209.0900  139.2430 C   0  0  0  0  0  2  0  0  0  0  0  0
  156.3430  210.4670  138.8900 C   0  0  2  0  0  0  0  0  0  0  0  0
  154.8180  208.6510  138.2130 N   0  0  0  0  0  2  0  0  0  0  0  0
  154.9580  211.0980  139.1460 C   0  0  1  0  0  3  0  0  0  0  0  0
  153.8040  209.7010  137.8740 C   0  0  0  0  0  2  0  0  0  0  0  0
  156.1710  211.9010  139.3750 C   0  0  0  0  0  2  0  0  0  0  0  0
  1 35  1  6  0  0  0
  1  2  1  0  0  0  0
  2  5  1  0  0  0  0
  2 10  1  1  0  0  0
  3  6  1  1  0  0  0
  3  5  1  0  0  0  0
  4  1  1  0  0  0  0
  4  3  1  0  0  0  0
  6  9  2  0  0  0  0
  6  7  1  0  0  0  0
  8  6  2  0  0  0  0
 10 22  1  6  0  0  0
 10 11  1  0  0  0  0
 11 14  1  0  0  0  0
 12 16  1  0  0  0  0
 13 18  2  0  0  0  0
 14 20  2  0  0  0  0
 14 21  1  0  0  0  0
 16 17  2  0  0  0  0
 17 15  1  0  0  0  0
 18 17  1  0  0  0  0
 19 12  1  0  0  0  0
 20 19  1  0  0  0  0
 21 13  1  0  0  0  0
 21 12  2  0  0  0  0
 22 23  1  0  0  0  0
 24 25  2  0  0  0  0
 25 23  1  0  0  0  0
 26 28  2  0  0  0  0
 27 29  1  0  0  0  0
 27 26  1  0  0  0  0
 29 25  1  6  0  0  0
 29 26  1  0  0  0  0
 30 32  1  0  0  0  0
 31 30  1  0  0  0  0
 31 33  1  0  0  0  0
 32 34  1  0  0  0  0
 33 34  1  0  0  0  0
 34 27  1  0  0  0  0
 36 35  1  0  0  0  0
 37 36  1  0  0  0  0
 38 37  1  0  0  0  0
 40 39  1  6  0  0  0
 40 38  1  0  0  0  0
 42 41  1  6  0  0  0
 42 44  1  0  0  0  0
 42 45  1  0  0  0  0
 44 40  1  6  0  0  0
 44 45  1  0  0  0  0
 45 43  1  1  0  0  0
 46 47  2  0  0  0  0
 47 48  1  0  0  0  0
 48 42  1  0  0  0  0
 49 47  1  0  0  0  0
 50 51  1  0  0  0  0
 50 49  2  0  0  0  0
 52 56  1  0  0  0  0
 54 51  1  6  0  0  0
 54 56  1  0  0  0  0
 54 53  1  0  0  0  0
 54 58  1  0  0  0  0
 55 53  1  0  0  0  0
 56 58  1  6  0  0  0
 57 52  1  0  0  0  0
 57 55  1  0  0  0  0
M  END
>  <MODEL>
6

>  <REMARK>
 VINA RESULT:      -5.0      3.470      6.472
  Name = 
  19 active torsions:
  status: ('A' for Active; 'I' for Inactive)
    1  A    between atoms: C_3  and  C_18
    2  A    between atoms: C_4  and  C_47
    3  A    between atoms: N_5  and  C_46
    4  A    between atoms: C_7  and  N_28
    5  A    between atoms: C_12  and  C_25
    6  A    between atoms: O_13  and  C_39
    7  A    between atoms: O_13  and  C_41
    8  A    between atoms: C_15  and  C_42
    9  A    between atoms: C_17  and  S_19
   10  A    between atoms: C_18  and  C_35
   11  A    between atoms: C_22  and  C_34
   12  A    between atoms: C_22  and  C_35
   13  A    between atoms: C_23  and  C_26
   14  A    between atoms: C_26  and  C_53
   15  A    between atoms: C_34  and  C_58
   16  A    between atoms: C_39  and  C_47
   17  A    between atoms: C_41  and  CA_55
   18  A    between atoms: C_42  and  C_47
   19  A    between atoms: C_45  and  C_58
                            x       y       z     vdW  Elec       q    Type
                         _______ _______ _______ _____ _____    ______ ____

>  <TORSDO>
F 19

$$$$
=
 OpenBabel11072415173D

 58 65  0  0  1  0  0  0  0  0999 V2000
  161.3580  205.6220  145.6170 C   0  0  2  0  0  3  0  0  0  0  0  0
  162.2680  205.4400  146.8260 C   0  0  2  0  0  3  0  0  0  0  0  0
  161.6960  203.2520  145.9370 C   0  0  1  0  0  3  0  0  0  0  0  0
  160.7290  204.2640  145.3630 C   0  0  0  0  0  2  0  0  0  0  0  0
  162.3790  203.9480  147.0970 C   0  0  0  0  0  2  0  0  0  0  0  0
  160.8240  201.8040  146.5070 S   0  0  0  0  0  0  0  0  0  0  0  0
  159.8610  201.1290  145.1720 C   0  0  0  0  0  1  0  0  0  0  0  0
  159.9140  202.1490  147.6450 O   0  0  0  0  0  0  0  0  0  0  0  0
  161.8110  200.7680  146.9720 O   0  0  0  0  0  0  0  0  0  0  0  0
  161.7790  206.2070  148.0710 C   0  0  2  0  0  3  0  0  0  0  0  0
  160.6280  205.4870  148.7620 C   0  0  0  0  0  2  0  0  0  0  0  0
  161.1930  204.9900  152.3210 C   0  0  0  0  0  0  0  0  0  0  0  0
  160.8050  207.2090  151.4580 C   0  0  0  0  0  3  0  0  0  0  0  0
  161.0010  205.0560  150.1400 C   0  0  0  0  0  0  0  0  0  0  0  0
  161.0480  207.3450  155.2560 C   0  0  0  0  0  1  0  0  0  0  0  0
  161.2180  205.4410  153.6370 C   0  0  0  0  0  3  0  0  0  0  0  0
  161.0350  206.8180  153.8660 C   0  0  0  0  0  0  0  0  0  0  0  0
  160.8380  207.6970  152.7800 C   0  0  0  0  0  3  0  0  0  0  0  0
  161.3260  203.7580  151.8920 O   0  0  0  0  0  0  0  0  0  0  0  0
  161.1980  203.7520  150.5770 C   0  0  0  0  0  3  0  0  0  0  0  0
  160.9890  205.8400  151.2740 C   0  0  0  0  0  0  0  0  0  0  0  0
  161.3110  207.6020  147.6750 C   0  0  0  0  0  2  0  0  0  0  0  0
  162.3450  208.5520  147.8850 O   0  0  0  0  0  0  0  0  0  0  0  0
  161.8780  209.3750  149.9720 O   0  0  0  0  0  0  0  0  0  0  0  0
  162.1850  209.6200  148.7690 C   0  0  0  0  0  0  0  0  0  0  0  0
  161.2030  211.4610  147.5860 C   0  0  0  0  0  0  0  0  0  0  0  0
  161.5280  211.9110  149.0140 N   0  0  0  0  0  0  0  0  0  0  0  0
  160.4600  211.4690  146.5680 O   0  0  0  0  0  0  0  0  0  0  0  0
  162.3290  211.0360  148.2800 C   0  0  1  0  0  3  0  0  0  0  0  0
  159.4680  213.9900  151.1730 C   0  0  0  0  0  2  0  0  0  0  0  0
  159.5180  212.6740  151.9350 C   0  0  0  0  0  2  0  0  0  0  0  0
  160.1990  213.7480  149.8740 C   0  0  0  0  0  2  0  0  0  0  0  0
  160.5460  211.7980  151.2380 C   0  0  0  0  0  2  0  0  0  0  0  0
  161.2100  212.6790  150.2070 C   0  0  0  0  0  3  0  0  0  0  0  0
  162.1970  206.0370  144.4180 C   0  0  0  0  0  2  0  0  0  0  0  0
  161.5140  205.6650  143.1140 C   0  0  0  0  0  2  0  0  0  0  0  0
  162.2700  206.2470  141.9300 C   0  0  0  0  0  2  0  0  0  0  0  0
  161.3770  207.2470  141.2280 C   0  0  0  0  0  2  0  0  0  0  0  0
  161.8160  207.1860  138.7570 C   0  0  0  0  0  1  0  0  0  0  0  0
  162.1010  207.9230  140.0600 C   0  0  1  0  0  3  0  0  0  0  0  0
  162.7380  209.2700  137.7350 O   0  0  0  0  0  1  0  0  0  0  0  0
  162.0500  210.0390  138.6700 C   0  0  1  0  0  0  0  0  0  0  0  0
  162.3310  211.5260  140.5310 O   0  0  0  0  0  1  0  0  0  0  0  0
  161.5760  209.3450  139.9310 C   0  0  2  0  0  3  0  0  0  0  0  0
  162.7570  210.3210  139.9800 C   0  0  1  0  0  3  0  0  0  0  0  0
  159.1800  211.6730  137.0650 O   0  0  0  0  0  0  0  0  0  0  0  0
  159.8720  210.7330  137.5410 C   0  0  0  0  0  0  0  0  0  0  0  0
  161.1230  211.0500  138.1600 N   0  0  0  0  0  2  0  0  0  0  0  0
  159.4110  209.3330  137.4480 C   0  0  0  0  0  3  0  0  0  0  0  0
  158.1400  208.9150  137.3910 C   0  0  0  0  0  3  0  0  0  0  0  0
  156.9600  209.8300  137.4230 C   0  0  0  0  0  2  0  0  0  0  0  0
  154.5810  210.9170  137.8080 O   0  0  0  0  0  0  0  0  0  0  0  0
  155.5790  208.7800  139.2750 C   0  0  0  0  0  2  0  0  0  0  0  0
  156.4190  209.9770  138.8500 C   0  0  2  0  0  0  0  0  0  0  0  0
  154.5290  208.5080  138.2580 N   0  0  0  0  0  2  0  0  0  0  0  0
  155.2090  210.9150  139.0460 C   0  0  1  0  0  3  0  0  0  0  0  0
  153.7760  209.7340  137.8410 C   0  0  0  0  0  2  0  0  0  0  0  0
  156.5700  211.4400  139.2460 C   0  0  0  0  0  2  0  0  0  0  0  0
  1 35  1  6  0  0  0
  1  2  1  0  0  0  0
  2  5  1  0  0  0  0
  2 10  1  1  0  0  0
  3  6  1  1  0  0  0
  3  5  1  0  0  0  0
  4  1  1  0  0  0  0
  4  3  1  0  0  0  0
  6  9  2  0  0  0  0
  6  8  2  0  0  0  0
  7  6  1  0  0  0  0
 10 22  1  6  0  0  0
 10 11  1  0  0  0  0
 11 14  1  0  0  0  0
 12 16  1  0  0  0  0
 13 18  2  0  0  0  0
 14 20  2  0  0  0  0
 14 21  1  0  0  0  0
 16 17  2  0  0  0  0
 17 15  1  0  0  0  0
 18 17  1  0  0  0  0
 19 12  1  0  0  0  0
 20 19  1  0  0  0  0
 21 13  1  0  0  0  0
 21 12  2  0  0  0  0
 22 23  1  0  0  0  0
 23 25  1  0  0  0  0
 25 24  2  0  0  0  0
 26 29  1  0  0  0  0
 26 27  1  0  0  0  0
 27 34  1  0  0  0  0
 28 26  2  0  0  0  0
 29 25  1  1  0  0  0
 29 27  1  0  0  0  0
 30 31  1  0  0  0  0
 32 34  1  0  0  0  0
 32 30  1  0  0  0  0
 33 31  1  0  0  0  0
 34 33  1  0  0  0  0
 36 35  1  0  0  0  0
 37 36  1  0  0  0  0
 38 37  1  0  0  0  0
 40 39  1  6  0  0  0
 40 38  1  0  0  0  0
 42 41  1  6  0  0  0
 42 44  1  0  0  0  0
 42 45  1  0  0  0  0
 44 45  1  0  0  0  0
 44 40  1  6  0  0  0
 45 43  1  1  0  0  0
 46 47  2  0  0  0  0
 47 48  1  0  0  0  0
 48 42  1  0  0  0  0
 49 47  1  0  0  0  0
 50 51  1  0  0  0  0
 50 49  2  0  0  0  0
 52 57  1  0  0  0  0
 52 56  1  0  0  0  0
 54 51  1  6  0  0  0
 54 56  1  0  0  0  0
 54 58  1  0  0  0  0
 54 53  1  0  0  0  0
 55 53  1  0  0  0  0
 56 58  1  6  0  0  0
 57 55  1  0  0  0  0
M  END
>  <MODEL>
7

>  <REMARK>
 VINA RESULT:      -5.0      3.427      6.356
  Name = 
  19 active torsions:
  status: ('A' for Active; 'I' for Inactive)
    1  A    between atoms: C_3  and  C_18
    2  A    between atoms: C_4  and  C_47
    3  A    between atoms: N_5  and  C_46
    4  A    between atoms: C_7  and  N_28
    5  A    between atoms: C_12  and  C_25
    6  A    between atoms: O_13  and  C_39
    7  A    between atoms: O_13  and  C_41
    8  A    between atoms: C_15  and  C_42
    9  A    between atoms: C_17  and  S_19
   10  A    between atoms: C_18  and  C_35
   11  A    between atoms: C_22  and  C_34
   12  A    between atoms: C_22  and  C_35
   13  A    between atoms: C_23  and  C_26
   14  A    between atoms: C_26  and  C_53
   15  A    between atoms: C_34  and  C_58
   16  A    between atoms: C_39  and  C_47
   17  A    between atoms: C_41  and  CA_55
   18  A    between atoms: C_42  and  C_47
   19  A    between atoms: C_45  and  C_58
                            x       y       z     vdW  Elec       q    Type
                         _______ _______ _______ _____ _____    ______ ____

>  <TORSDO>
F 19

$$$$
=
 OpenBabel11072415173D

 58 65  0  0  1  0  0  0  0  0999 V2000
  161.2670  210.8260  152.8950 C   0  0  2  0  0  3  0  0  0  0  0  0
  160.0680  209.9590  153.2620 C   0  0  2  0  0  3  0  0  0  0  0  0
  159.2790  211.9410  152.0980 C   0  0  1  0  0  3  0  0  0  0  0  0
  160.7020  212.1900  152.5470 C   0  0  0  0  0  2  0  0  0  0  0  0
  158.8120  210.7210  152.8680 C   0  0  0  0  0  2  0  0  0  0  0  0
  158.2460  213.3460  152.4740 S   0  0  0  0  0  0  0  0  0  0  0  0
  157.5260  213.9700  150.9720 C   0  0  0  0  0  1  0  0  0  0  0  0
  159.0470  214.4310  153.1240 O   0  0  0  0  0  0  0  0  0  0  0  0
  157.1440  212.9300  153.4110 O   0  0  0  0  0  0  0  0  0  0  0  0
  160.0430  209.5600  154.7520 C   0  0  2  0  0  3  0  0  0  0  0  0
  160.9420  210.4600  155.5920 C   0  0  0  0  0  2  0  0  0  0  0  0
  158.6340  212.9450  156.9060 C   0  0  0  0  0  0  0  0  0  0  0  0
  157.7860  210.9570  155.8360 C   0  0  0  0  0  3  0  0  0  0  0  0
  160.2050  211.6580  156.0880 C   0  0  0  0  0  0  0  0  0  0  0  0
  154.8810  212.9950  157.2190 C   0  0  0  0  0  1  0  0  0  0  0  0
  157.3560  213.3780  157.2500 C   0  0  0  0  0  3  0  0  0  0  0  0
  156.2640  212.5750  156.8680 C   0  0  0  0  0  0  0  0  0  0  0  0
  156.4790  211.3750  156.1590 C   0  0  0  0  0  3  0  0  0  0  0  0
  159.7780  213.5280  157.1750 O   0  0  0  0  0  0  0  0  0  0  0  0
  160.7570  212.7710  156.7110 C   0  0  0  0  0  3  0  0  0  0  0  0
  158.8400  211.7780  156.2310 C   0  0  0  0  0  0  0  0  0  0  0  0
  160.5110  208.1200  154.9150 C   0  0  0  0  0  2  0  0  0  0  0  0
  160.9520  207.5960  153.6710 O   0  0  0  0  0  0  0  0  0  0  0  0
  160.4350  205.4280  154.2050 O   0  0  0  0  0  0  0  0  0  0  0  0
  161.0850  206.2220  153.4650 C   0  0  0  0  0  0  0  0  0  0  0  0
  161.4820  204.6270  151.7170 C   0  0  0  0  0  0  0  0  0  0  0  0
  161.5870  206.0380  151.1300 N   0  0  0  0  0  0  0  0  0  0  0  0
  161.1410  203.4160  151.6290 O   0  0  0  0  0  0  0  0  0  0  0  0
  162.0240  205.7020  152.4100 C   0  0  1  0  0  3  0  0  0  0  0  0
  162.1880  207.5340  147.8690 C   0  0  0  0  0  2  0  0  0  0  0  0
  160.8210  206.8930  147.6890 C   0  0  0  0  0  2  0  0  0  0  0  0
  162.6520  207.1460  149.2540 C   0  0  0  0  0  2  0  0  0  0  0  0
  160.3630  206.4340  149.0640 C   0  0  0  0  0  2  0  0  0  0  0  0
  161.3760  206.9790  150.0420 C   0  0  0  0  0  3  0  0  0  0  0  0
  161.9630  210.2270  151.6820 C   0  0  0  0  0  2  0  0  0  0  0  0
  161.5190  210.9100  150.4020 C   0  0  0  0  0  2  0  0  0  0  0  0
  162.6290  210.8710  149.3630 C   0  0  0  0  0  2  0  0  0  0  0  0
  162.0980  211.4390  148.0650 C   0  0  0  0  0  2  0  0  0  0  0  0
  162.2860  213.9400  147.9380 C   0  0  0  0  0  1  0  0  0  0  0  0
  161.3750  212.7710  148.2890 C   0  0  1  0  0  3  0  0  0  0  0  0
  161.7780  213.7880  145.7540 O   0  0  0  0  0  1  0  0  0  0  0  0
  160.4520  213.4720  146.0370 C   0  0  1  0  0  0  0  0  0  0  0  0
  158.3990  214.3550  146.9120 O   0  0  0  0  0  1  0  0  0  0  0  0
  160.1610  212.8150  147.3720 C   0  0  2  0  0  3  0  0  0  0  0  0
  159.7720  214.2770  147.1270 C   0  0  1  0  0  3  0  0  0  0  0  0
  159.3130  212.4030  142.7140 O   0  0  0  0  0  0  0  0  0  0  0  0
  160.1240  212.7580  143.6120 C   0  0  0  0  0  0  0  0  0  0  0  0
  159.6260  212.9770  144.9360 N   0  0  0  0  0  2  0  0  0  0  0  0
  161.5550  212.9590  143.3030 C   0  0  0  0  0  3  0  0  0  0  0  0
  162.2480  212.3690  142.3220 C   0  0  0  0  0  3  0  0  0  0  0  0
  161.6640  211.3790  141.3670 C   0  0  0  0  0  2  0  0  0  0  0  0
  161.5000  209.5560  139.4600 O   0  0  0  0  0  0  0  0  0  0  0  0
  160.7060  212.2010  139.1670 C   0  0  0  0  0  2  0  0  0  0  0  0
  161.9610  211.7750  139.9170 C   0  0  2  0  0  0  0  0  0  0  0  0
  159.6530  211.1590  139.3030 N   0  0  0  0  0  2  0  0  0  0  0  0
  162.1910  210.6280  138.9110 C   0  0  1  0  0  3  0  0  0  0  0  0
  160.1520  209.7730  139.0310 C   0  0  0  0  0  2  0  0  0  0  0  0
  163.3490  211.2490  139.5750 C   0  0  0  0  0  2  0  0  0  0  0  0
  1 35  1  6  0  0  0
  1  2  1  0  0  0  0
  2 10  1  1  0  0  0
  3  6  1  1  0  0  0
  3  4  1  0  0  0  0
  3  5  1  0  0  0  0
  4  1  1  0  0  0  0
  5  2  1  0  0  0  0
  6  8  2  0  0  0  0
  6  9  2  0  0  0  0
  7  6  1  0  0  0  0
 10 22  1  6  0  0  0
 10 11  1  0  0  0  0
 11 14  1  0  0  0  0
 12 19  1  0  0  0  0
 12 16  1  0  0  0  0
 13 18  2  0  0  0  0
 13 21  1  0  0  0  0
 14 21  1  0  0  0  0
 14 20  2  0  0  0  0
 17 15  1  0  0  0  0
 17 16  2  0  0  0  0
 18 17  1  0  0  0  0
 20 19  1  0  0  0  0
 21 12  2  0  0  0  0
 23 22  1  0  0  0  0
 25 23  1  0  0  0  0
 25 24  2  0  0  0  0
 26 29  1  0  0  0  0
 27 26  1  0  0  0  0
 27 29  1  0  0  0  0
 28 26  2  0  0  0  0
 29 25  1  1  0  0  0
 30 32  1  0  0  0  0
 31 30  1  0  0  0  0
 31 33  1  0  0  0  0
 32 34  1  0  0  0  0
 33 34  1  0  0  0  0
 34 27  1  0  0  0  0
 36 35  1  0  0  0  0
 37 36  1  0  0  0  0
 38 40  1  0  0  0  0
 38 37  1  0  0  0  0
 40 39  1  6  0  0  0
 42 41  1  6  0  0  0
 42 45  1  0  0  0  0
 42 44  1  0  0  0  0
 44 40  1  1  0  0  0
 45 43  1  6  0  0  0
 45 44  1  0  0  0  0
 46 47  2  0  0  0  0
 47 48  1  0  0  0  0
 48 42  1  0  0  0  0
 49 47  1  0  0  0  0
 50 49  2  0  0  0  0
 51 50  1  0  0  0  0
 53 55  1  0  0  0  0
 53 54  1  0  0  0  0
 54 51  1  1  0  0  0
 56 52  1  0  0  0  0
 56 58  1  1  0  0  0
 56 54  1  0  0  0  0
 57 55  1  0  0  0  0
 57 52  1  0  0  0  0
 58 54  1  0  0  0  0
M  END
>  <MODEL>
8

>  <REMARK>
 VINA RESULT:      -4.1      2.683      7.010
  Name = 
  19 active torsions:
  status: ('A' for Active; 'I' for Inactive)
    1  A    between atoms: C_3  and  C_18
    2  A    between atoms: C_4  and  C_47
    3  A    between atoms: N_5  and  C_46
    4  A    between atoms: C_7  and  N_28
    5  A    between atoms: C_12  and  C_25
    6  A    between atoms: O_13  and  C_39
    7  A    between atoms: O_13  and  C_41
    8  A    between atoms: C_15  and  C_42
    9  A    between atoms: C_17  and  S_19
   10  A    between atoms: C_18  and  C_35
   11  A    between atoms: C_22  and  C_34
   12  A    between atoms: C_22  and  C_35
   13  A    between atoms: C_23  and  C_26
   14  A    between atoms: C_26  and  C_53
   15  A    between atoms: C_34  and  C_58
   16  A    between atoms: C_39  and  C_47
   17  A    between atoms: C_41  and  CA_55
   18  A    between atoms: C_42  and  C_47
   19  A    between atoms: C_45  and  C_58
                            x       y       z     vdW  Elec       q    Type
                         _______ _______ _______ _____ _____    ______ ____

>  <TORSDO>
F 19

$$$$
=
 OpenBabel11072415173D

 58 65  0  0  1  0  0  0  0  0999 V2000
  161.2210  208.9350  148.9020 C   0  0  2  0  0  3  0  0  0  0  0  0
  162.5360  208.4300  149.4830 C   0  0  2  0  0  3  0  0  0  0  0  0
  162.1780  207.3820  147.3190 C   0  0  1  0  0  3  0  0  0  0  0  0
  160.8650  207.9750  147.7820 C   0  0  0  0  0  2  0  0  0  0  0  0
  163.0730  207.3630  148.5420 C   0  0  0  0  0  2  0  0  0  0  0  0
  161.9360  205.7270  146.6990 S   0  0  0  0  0  0  0  0  0  0  0  0
  161.7490  205.7790  144.9310 C   0  0  0  0  0  1  0  0  0  0  0  0
  160.7140  205.1090  147.3060 O   0  0  0  0  0  0  0  0  0  0  0  0
  163.1290  204.8770  147.0430 O   0  0  0  0  0  0  0  0  0  0  0  0
  162.3940  207.8950  150.9230 C   0  0  2  0  0  3  0  0  0  0  0  0
  162.9960  206.5030  151.0710 C   0  0  0  0  0  2  0  0  0  0  0  0
  160.8300  203.7370  152.0130 C   0  0  0  0  0  0  0  0  0  0  0  0
  161.6240  203.9300  149.7430 C   0  0  0  0  0  3  0  0  0  0  0  0
  162.0150  205.5430  151.6540 C   0  0  0  0  0  0  0  0  0  0  0  0
  159.6470  200.6980  150.1290 C   0  0  0  0  0  1  0  0  0  0  0  0
  160.2060  202.5200  151.7550 C   0  0  0  0  0  3  0  0  0  0  0  0
  160.2920  201.9980  150.4490 C   0  0  0  0  0  0  0  0  0  0  0  0
  160.9920  202.7050  149.4490 C   0  0  0  0  0  3  0  0  0  0  0  0
  160.8830  204.3860  153.1510 O   0  0  0  0  0  0  0  0  0  0  0  0
  161.6070  205.4780  152.9810 C   0  0  0  0  0  3  0  0  0  0  0  0
  161.5160  204.4120  151.0460 C   0  0  0  0  0  0  0  0  0  0  0  0
  160.9230  207.8320  151.3140 C   0  0  0  0  0  2  0  0  0  0  0  0
  160.5060  209.0650  151.8840 O   0  0  0  0  0  0  0  0  0  0  0  0
  160.6710  208.3980  154.0700 O   0  0  0  0  0  0  0  0  0  0  0  0
  160.7080  209.3480  153.2360 C   0  0  0  0  0  0  0  0  0  0  0  0
  160.1640  211.6660  152.9400 C   0  0  0  0  0  0  0  0  0  0  0  0
  159.7980  211.2530  154.3690 N   0  0  0  0  0  0  0  0  0  0  0  0
  159.9350  212.3190  151.8860 O   0  0  0  0  0  0  0  0  0  0  0  0
  160.9150  210.7680  153.6890 C   0  0  1  0  0  3  0  0  0  0  0  0
  157.4720  212.8380  156.6720 C   0  0  0  0  0  2  0  0  0  0  0  0
  156.5970  211.8010  155.9850 C   0  0  0  0  0  2  0  0  0  0  0  0
  158.8190  212.7640  155.9930 C   0  0  0  0  0  2  0  0  0  0  0  0
  157.5220  210.9180  155.1620 C   0  0  0  0  0  2  0  0  0  0  0  0
  158.9270  211.3320  155.5300 C   0  0  0  0  0  3  0  0  0  0  0  0
  161.4280  210.3340  148.3400 C   0  0  0  0  0  2  0  0  0  0  0  0
  162.1570  211.2210  149.3320 C   0  0  0  0  0  2  0  0  0  0  0  0
  162.7320  212.4430  148.6340 C   0  0  0  0  0  2  0  0  0  0  0  0
  162.6080  212.2500  147.1380 C   0  0  0  0  0  2  0  0  0  0  0  0
  162.4490  214.1820  145.5410 C   0  0  0  0  0  1  0  0  0  0  0  0
  161.6790  213.2960  146.5130 C   0  0  1  0  0  3  0  0  0  0  0  0
  160.9130  214.4130  144.1070 O   0  0  0  0  0  1  0  0  0  0  0  0
  160.1690  213.2970  144.4800 C   0  0  1  0  0  0  0  0  0  0  0  0
  158.2080  212.5900  145.6680 O   0  0  0  0  0  1  0  0  0  0  0  0
  160.5920  212.5660  145.7380 C   0  0  2  0  0  3  0  0  0  0  0  0
  159.3220  213.4230  145.7300 C   0  0  1  0  0  3  0  0  0  0  0  0
  160.0060  211.2100  141.4620 O   0  0  0  0  0  0  0  0  0  0  0  0
  160.5320  211.8960  142.3820 C   0  0  0  0  0  0  0  0  0  0  0  0
  159.6890  212.4180  143.4120 N   0  0  0  0  0  2  0  0  0  0  0  0
  161.9840  212.1660  142.3860 C   0  0  0  0  0  3  0  0  0  0  0  0
  162.6800  212.7950  141.4310 C   0  0  0  0  0  3  0  0  0  0  0  0
  162.0760  213.3280  140.1730 C   0  0  0  0  0  2  0  0  0  0  0  0
  161.3410  211.4090  138.5090 O   0  0  0  0  0  0  0  0  0  0  0  0
  162.5440  213.7860  137.7230 C   0  0  0  0  0  2  0  0  0  0  0  0
  162.9550  213.0020  138.9610 C   0  0  2  0  0  0  0  0  0  0  0  0
  161.0880  213.6160  137.4720 N   0  0  0  0  0  2  0  0  0  0  0  0
  162.6760  211.6720  138.2310 C   0  0  1  0  0  3  0  0  0  0  0  0
  160.6390  212.1880  137.5350 C   0  0  0  0  0  2  0  0  0  0  0  0
  163.7100  211.7170  139.2780 C   0  0  0  0  0  2  0  0  0  0  0  0
  1 35  1  6  0  0  0
  1  2  1  0  0  0  0
  2 10  1  1  0  0  0
  3  6  1  1  0  0  0
  3  4  1  0  0  0  0
  3  5  1  0  0  0  0
  4  1  1  0  0  0  0
  5  2  1  0  0  0  0
  6  9  2  0  0  0  0
  6  8  2  0  0  0  0
  7  6  1  0  0  0  0
 10 11  1  6  0  0  0
 10 22  1  0  0  0  0
 11 14  1  0  0  0  0
 12 19  1  0  0  0  0
 13 21  1  0  0  0  0
 14 20  2  0  0  0  0
 15 17  1  0  0  0  0
 16 12  1  0  0  0  0
 17 16  2  0  0  0  0
 18 13  2  0  0  0  0
 18 17  1  0  0  0  0
 20 19  1  0  0  0  0
 21 14  1  0  0  0  0
 21 12  2  0  0  0  0
 22 23  1  0  0  0  0
 23 25  1  0  0  0  0
 25 24  2  0  0  0  0
 26 29  1  0  0  0  0
 26 27  1  0  0  0  0
 27 34  1  0  0  0  0
 28 26  2  0  0  0  0
 29 25  1  6  0  0  0
 29 27  1  0  0  0  0
 31 30  1  0  0  0  0
 32 30  1  0  0  0  0
 33 34  1  0  0  0  0
 33 31  1  0  0  0  0
 34 32  1  0  0  0  0
 35 36  1  0  0  0  0
 37 36  1  0  0  0  0
 38 37  1  0  0  0  0
 40 39  1  6  0  0  0
 40 38  1  0  0  0  0
 42 41  1  6  0  0  0
 42 45  1  0  0  0  0
 42 44  1  0  0  0  0
 44 40  1  1  0  0  0
 45 43  1  6  0  0  0
 45 44  1  0  0  0  0
 46 47  2  0  0  0  0
 47 49  1  0  0  0  0
 47 48  1  0  0  0  0
 48 42  1  0  0  0  0
 50 49  2  0  0  0  0
 51 50  1  0  0  0  0
 53 54  1  0  0  0  0
 54 58  1  0  0  0  0
 54 51  1  1  0  0  0
 55 57  1  0  0  0  0
 55 53  1  0  0  0  0
 56 52  1  0  0  0  0
 56 54  1  0  0  0  0
 56 58  1  1  0  0  0
 57 52  1  0  0  0  0
M  END
>  <MODEL>
9

>  <REMARK>
 VINA RESULT:      -4.0      1.515      2.103
  Name = 
  19 active torsions:
  status: ('A' for Active; 'I' for Inactive)
    1  A    between atoms: C_3  and  C_18
    2  A    between atoms: C_4  and  C_47
    3  A    between atoms: N_5  and  C_46
    4  A    between atoms: C_7  and  N_28
    5  A    between atoms: C_12  and  C_25
    6  A    between atoms: O_13  and  C_39
    7  A    between atoms: O_13  and  C_41
    8  A    between atoms: C_15  and  C_42
    9  A    between atoms: C_17  and  S_19
   10  A    between atoms: C_18  and  C_35
   11  A    between atoms: C_22  and  C_34
   12  A    between atoms: C_22  and  C_35
   13  A    between atoms: C_23  and  C_26
   14  A    between atoms: C_26  and  C_53
   15  A    between atoms: C_34  and  C_58
   16  A    between atoms: C_39  and  C_47
   17  A    between atoms: C_41  and  CA_55
   18  A    between atoms: C_42  and  C_47
   19  A    between atoms: C_45  and  C_58
                            x       y       z     vdW  Elec       q    Type
                         _______ _______ _______ _____ _____    ______ ____

>  <TORSDO>
F 19

$$$$
