=
 OpenBabel11072413223D

 44 50  0  0  1  0  0  0  0  0999 V2000
  162.5730  212.4380  148.2740 C   0  0  0  0  0  0  0  0  0  0  0  0
  160.7520  212.0230  150.0150 C   0  0  2  0  0  3  0  0  0  0  0  0
  161.8040  210.1840  148.9760 C   0  0  0  0  0  2  0  0  0  0  0  0
  161.5570  210.8240  150.2580 N   0  0  0  0  0  2  0  0  0  0  0  0
  163.5130  213.1960  147.7240 C   0  0  0  0  0  2  0  0  0  0  0  0
  161.4580  213.0660  149.0930 C   0  0  2  0  0  3  0  0  0  0  0  0
  162.7140  211.0180  148.2120 N   0  0  0  0  0  2  0  0  0  0  0  0
  161.1700  214.0170  144.5620 C   0  0  2  0  0  3  0  0  0  0  0  0
  159.2780  213.2720  146.1910 C   0  0  1  0  0  3  0  0  0  0  0  0
  159.1220  212.1320  145.2150 C   0  0  0  0  0  3  0  0  0  0  0  0
  159.5720  212.2010  143.9570 C   0  0  0  0  0  3  0  0  0  0  0  0
  160.5080  213.7630  148.1970 N   0  0  1  0  0  0  0  0  0  0  0  0
  161.1940  214.4490  147.0970 C   0  0  0  0  0  2  0  0  0  0  0  0
  159.6750  212.7490  147.5490 C   0  0  0  0  0  2  0  0  0  0  0  0
  160.3500  214.3010  145.8440 C   0  0  1  0  0  3  0  0  0  0  0  0
  160.2680  213.4370  143.4580 C   0  0  2  0  0  3  0  0  0  0  0  0
  160.3160  212.3590  140.1900 C   0  0  1  0  0  3  0  0  0  0  0  0
  157.8700  212.8430  139.6610 N   0  0  0  0  0  0  0  0  0  0  0  0
  156.5090  212.4090  139.3820 C   0  0  0  0  0  1  0  0  0  0  0  0
  161.0320  213.1860  142.1450 C   0  0  2  0  0  3  0  0  0  0  0  0
  160.3830  213.7380  140.8660 C   0  0  2  0  0  3  0  0  0  0  0  0
  159.0180  214.4210  141.0880 C   0  0  0  0  0  2  0  0  0  0  0  0
  158.7380  210.6740  139.5610 O   0  0  0  0  0  0  0  0  0  0  0  0
  160.9450  211.4360  141.6260 S   0  0  0  0  0  0  0  0  0  0  0  0
  158.1330  214.2590  139.8660 C   0  0  0  0  0  2  0  0  0  0  0  0
  158.9360  211.8960  139.8030 C   0  0  0  0  0  0  0  0  0  0  0  0
  163.6970  213.9570  144.1100 C   0  0  0  0  0  1  0  0  0  0  0  0
  162.5070  213.2730  144.7640 C   0  0  0  0  0  2  0  0  0  0  0  0
  160.3630  212.8020  151.6130 S   0  0  0  0  0  0  0  0  0  0  0  0
  160.9680  211.4530  153.8860 C   0  0  1  0  0  3  0  0  0  0  0  0
  160.3860  211.2060  152.5080 C   0  0  1  0  0  3  0  0  0  0  0  0
  159.4910  211.1100  153.7550 C   0  0  2  0  0  3  0  0  0  0  0  0
  158.9030  213.2970  154.9060 C   0  0  0  0  0  3  0  0  0  0  0  0
  158.5870  212.2940  153.9740 C   0  0  0  0  0  0  0  0  0  0  0  0
  156.8430  214.4530  154.3760 C   0  0  0  0  0  3  0  0  0  0  0  0
  158.0370  214.3760  155.1000 C   0  0  0  0  0  3  0  0  0  0  0  0
  157.3810  212.3680  153.2650 C   0  0  0  0  0  3  0  0  0  0  0  0
  156.5130  213.4460  153.4620 C   0  0  0  0  0  3  0  0  0  0  0  0
  161.7480  210.2270  154.3380 C   0  0  2  0  0  3  0  0  0  0  0  0
  160.9870  207.8470  153.5890 C   0  0  0  0  0  1  0  0  0  0  0  0
  160.8400  209.0390  154.4760 C   0  0  0  0  0  0  0  0  0  0  0  0
  159.9530  209.0560  155.3100 O   0  0  0  0  0  0  0  0  0  0  0  0
  162.4580  210.5170  155.6530 C   0  0  0  0  0  2  0  0  0  0  0  0
  161.6260  211.2580  156.4880 O   0  0  0  0  0  1  0  0  0  0  0  0
  2  4  1  0  0  0  0
  2 29  1  1  0  0  0
  3  4  1  0  0  0  0
  5  1  2  0  0  0  0
  6  1  1  6  0  0  0
  6  2  1  0  0  0  0
  7  1  1  0  0  0  0
  7  3  1  0  0  0  0
  8 28  1  1  0  0  0
  8 15  1  0  0  0  0
  9 10  1  6  0  0  0
  9 14  1  0  0  0  0
 11 10  2  0  0  0  0
 12 13  1  6  0  0  0
 12  6  1  0  0  0  0
 14 12  1  0  0  0  0
 15  9  1  0  0  0  0
 15 13  1  1  0  0  0
 16 11  1  1  0  0  0
 16  8  1  0  0  0  0
 17 26  1  1  0  0  0
 17 21  1  0  0  0  0
 17 24  1  0  0  0  0
 18 26  1  0  0  0  0
 18 25  1  0  0  0  0
 19 18  1  0  0  0  0
 20 24  1  6  0  0  0
 20 16  1  0  0  0  0
 21 22  1  1  0  0  0
 21 20  1  0  0  0  0
 23 26  2  0  0  0  0
 25 22  1  0  0  0  0
 27 28  1  0  0  0  0
 30 39  1  1  0  0  0
 31 29  1  6  0  0  0
 31 32  1  0  0  0  0
 31 30  1  0  0  0  0
 32 30  1  0  0  0  0
 32 34  1  6  0  0  0
 33 36  1  0  0  0  0
 34 33  2  0  0  0  0
 35 36  2  0  0  0  0
 37 38  2  0  0  0  0
 37 34  1  0  0  0  0
 38 35  1  0  0  0  0
 39 41  1  0  0  0  0
 39 43  1  1  0  0  0
 40 41  1  0  0  0  0
 41 42  2  0  0  0  0
 43 44  1  0  0  0  0
M  END
>  <MODEL>
1

>  <REMARK>
 VINA RESULT:      -4.8      0.000      0.000
  Name = 
  9 active torsions:
  status: ('A' for Active; 'I' for Inactive)
    1  A    between atoms: C_5  and  S_26
    2  A    between atoms: C_7  and  C_40
    3  A    between atoms: C_10  and  C_44
    4  A    between atoms: C_12  and  C_42
    5  A    between atoms: C_14  and  C_40
    6  A    between atoms: C_15  and  C_39
    7  A    between atoms: C_20  and  C_40
    8  A    between atoms: S_26  and  C_38
    9  A    between atoms: N_27  and  C_32
                            x       y       z     vdW  Elec       q    Type
                         _______ _______ _______ _____ _____    ______ ____

>  <TORSDO>
F 9

$$$$
