=
 OpenBabel11072414443D

 45 47  0  0  1  0  0  0  0  0999 V2000
  159.9070  213.2070  149.1370 N   0  0  0  0  0  1  0  0  0  0  0  0
  159.1740  214.2910  144.5090 N   0  0  0  0  0  1  0  0  0  0  0  0
  160.0500  213.7920  145.5160 C   0  0  0  0  0  0  0  0  0  0  0  0
  161.3440  213.3620  145.1890 C   0  0  0  0  0  0  0  0  0  0  0  0
  160.4120  213.2570  147.8070 C   0  0  0  0  0  0  0  0  0  0  0  0
  161.7170  212.8310  147.5280 C   0  0  0  0  0  0  0  0  0  0  0  0
  159.6190  213.7250  146.8040 N   0  0  0  0  0  0  0  0  0  0  0  0
  162.1760  212.8880  146.2050 C   0  0  0  0  0  3  0  0  0  0  0  0
  161.8550  213.4140  143.7880 C   0  0  0  0  0  2  0  0  0  0  0  0
  160.9510  212.7000  142.9050 N   0  0  0  0  0  2  0  0  0  0  0  0
  161.3740  210.7630  140.6280 C   0  0  1  0  0  3  0  0  0  0  0  0
  159.2200  212.0480  140.4790 C   0  0  1  0  0  3  0  0  0  0  0  0
  162.1510  212.0610  140.8630 C   0  0  0  0  0  2  0  0  0  0  0  0
  160.1190  211.0220  139.7950 C   0  0  0  0  0  2  0  0  0  0  0  0
  159.1820  214.2840  141.3840 O   0  0  0  0  0  1  0  0  0  0  0  0
  159.9920  213.3530  140.7300 C   0  0  1  0  0  3  0  0  0  0  0  0
  161.2690  213.1100  141.5430 C   0  0  1  0  0  3  0  0  0  0  0  0
  157.0950  212.5050  138.9180 C   0  0  0  0  0  3  0  0  0  0  0  0
  158.0550  212.2990  139.6220 C   0  0  0  0  0  0  0  0  0  0  0  0
  162.2640  209.6910  139.9990 C   0  0  0  0  0  2  0  0  0  0  0  0
  161.5020  208.4210  139.6380 C   0  0  2  0  0  3  0  0  0  0  0  0
  162.1800  207.2180  140.2660 C   0  0  0  0  0  1  0  0  0  0  0  0
  161.4710  208.2300  137.8320 P   0  0  0  0  0  0  0  0  0  0  0  0
  162.3910  206.8840  137.3840 O   0  0  0  0  0  1  0  0  0  0  0  0
  162.1170  209.6160  137.1090 O   0  0  0  0  0  0  0  0  0  0  0  0
  160.0440  208.0430  137.3640 O   0  0  0  0  0  1  0  0  0  0  0  0
  162.5300  212.3570  148.5630 O   0  0  0  0  0  0  0  0  0  0  0  0
  162.7600  210.9720  148.7830 C   0  0  0  0  0  2  0  0  0  0  0  0
  162.0120  210.5240  150.0240 C   0  0  0  0  0  2  0  0  0  0  0  0
  161.5380  208.3550  148.8360 C   0  0  0  0  0  0  0  0  0  0  0  0
  161.1450  206.0850  147.7460 C   0  0  0  0  0  0  0  0  0  0  0  0
  160.9850  206.5830  146.6020 O   0  0  0  0  0  0  0  0  0  0  0  0
  161.0410  204.6620  147.8970 N   0  0  0  0  0  2  0  0  0  0  0  0
  161.8830  209.0740  150.0300 N   0  0  0  0  0  0  0  0  0  0  0  0
  162.2110  208.3570  151.2520 C   0  0  0  0  0  1  0  0  0  0  0  0
  161.3170  208.9850  147.7640 O   0  0  0  0  0  0  0  0  0  0  0  0
  161.4400  206.9250  148.8680 N   0  0  0  0  0  2  0  0  0  0  0  0
  160.9990  202.5180  149.1480 C   0  0  0  0  0  3  0  0  0  0  0  0
  161.1890  202.5320  151.5600 C   0  0  0  0  0  3  0  0  0  0  0  0
  161.2190  204.6170  150.3280 C   0  0  0  0  0  3  0  0  0  0  0  0
  161.2730  203.9270  151.5430 C   0  0  0  0  0  0  0  0  0  0  0  0
  161.0520  201.8270  150.3620 C   0  0  0  0  0  0  0  0  0  0  0  0
  161.4070  204.6110  152.7040 F   0  0  0  0  0  0  0  0  0  0  0  0
  160.9760  200.4750  150.3750 F   0  0  0  0  0  0  0  0  0  0  0  0
  161.0780  203.9190  149.1240 C   0  0  0  0  0  0  0  0  0  0  0  0
  2  3  1  0  0  0  0
  3  7  1  0  0  0  0
  4  3  2  0  0  0  0
  4  8  1  0  0  0  0
  5  1  1  0  0  0  0
  6  5  1  0  0  0  0
  6 27  1  0  0  0  0
  7  5  2  0  0  0  0
  8  6  2  0  0  0  0
  9  4  1  0  0  0  0
 10  9  1  0  0  0  0
 11 20  1  6  0  0  0
 11 13  1  0  0  0  0
 12 19  1  6  0  0  0
 12 16  1  0  0  0  0
 13 17  1  0  0  0  0
 14 12  1  0  0  0  0
 14 11  1  0  0  0  0
 16 15  1  1  0  0  0
 16 17  1  0  0  0  0
 17 10  1  1  0  0  0
 18 19  3  0  0  0  0
 21 20  1  0  0  0  0
 21 22  1  1  0  0  0
 23 21  1  0  0  0  0
 24 23  1  0  0  0  0
 25 23  2  0  0  0  0
 26 23  1  0  0  0  0
 27 28  1  0  0  0  0
 28 29  1  0  0  0  0
 29 34  1  0  0  0  0
 30 37  1  0  0  0  0
 30 34  1  0  0  0  0
 31 33  1  0  0  0  0
 31 37  1  0  0  0  0
 32 31  2  0  0  0  0
 33 45  1  0  0  0  0
 34 35  1  0  0  0  0
 36 30  2  0  0  0  0
 38 42  1  0  0  0  0
 40 41  2  0  0  0  0
 41 39  1  0  0  0  0
 41 43  1  0  0  0  0
 42 44  1  0  0  0  0
 42 39  2  0  0  0  0
 45 38  2  0  0  0  0
 45 40  1  0  0  0  0
M  END
>  <MODEL>
1

>  <REMARK>
 VINA RESULT:      -8.0      0.000      0.000
  Name = 
  12 active torsions:
  status: ('A' for Active; 'I' for Inactive)
    1  A    between atoms: C_5  and  C_18
    2  A    between atoms: C_6  and  C_12
    3  A    between atoms: C_6  and  C_21
    4  A    between atoms: P_9  and  C_21
    5  A    between atoms: C_13  and  C_40
    6  A    between atoms: N_14  and  C_43
    7  A    between atoms: C_17  and  O_22
    8  A    between atoms: C_18  and  N_27
    9  A    between atoms: N_19  and  C_42
   10  A    between atoms: O_22  and  C_37
   11  A    between atoms: N_27  and  C_36
   12  A    between atoms: C_37  and  C_42
                            x       y       z     vdW  Elec       q    Type
                         _______ _______ _______ _____ _____    ______ ____

>  <TORSDO>
F 12

$$$$
=
 OpenBabel11072414443D

 45 47  0  0  1  0  0  0  0  0999 V2000
  159.5250  213.3310  149.1120 N   0  0  0  0  0  1  0  0  0  0  0  0
  158.7830  214.4530  144.4940 N   0  0  0  0  0  1  0  0  0  0  0  0
  159.6550  213.9310  145.4930 C   0  0  0  0  0  0  0  0  0  0  0  0
  160.9380  213.4750  145.1550 C   0  0  0  0  0  0  0  0  0  0  0  0
  160.0210  213.3770  147.7780 C   0  0  0  0  0  0  0  0  0  0  0  0
  161.3150  212.9250  147.4890 C   0  0  0  0  0  0  0  0  0  0  0  0
  159.2320  213.8670  146.7840 N   0  0  0  0  0  0  0  0  0  0  0  0
  161.7670  212.9800  146.1630 C   0  0  0  0  0  3  0  0  0  0  0  0
  161.4400  213.5240  143.7510 C   0  0  0  0  0  2  0  0  0  0  0  0
  160.5360  212.7980  142.8770 N   0  0  0  0  0  2  0  0  0  0  0  0
  161.3420  210.9890  140.5980 C   0  0  1  0  0  3  0  0  0  0  0  0
  158.9830  211.8410  140.4320 C   0  0  1  0  0  3  0  0  0  0  0  0
  161.8550  212.4100  140.8450 C   0  0  0  0  0  2  0  0  0  0  0  0
  160.0680  211.0080  139.7530 C   0  0  0  0  0  2  0  0  0  0  0  0
  158.5120  214.0240  141.3430 O   0  0  0  0  0  1  0  0  0  0  0  0
  159.4910  213.2680  140.6940 C   0  0  1  0  0  3  0  0  0  0  0  0
  160.7830  213.2690  141.5200 C   0  0  1  0  0  3  0  0  0  0  0  0
  156.8250  211.8930  138.8520 C   0  0  0  0  0  3  0  0  0  0  0  0
  157.8000  211.8700  139.5640 C   0  0  0  0  0  0  0  0  0  0  0  0
  162.4250  210.1100  139.9750 C   0  0  0  0  0  2  0  0  0  0  0  0
  162.2070  209.8590  138.4870 C   0  0  2  0  0  3  0  0  0  0  0  0
  161.3400  210.9570  137.9010 C   0  0  0  0  0  1  0  0  0  0  0  0
  161.3920  208.2510  138.2600 P   0  0  0  0  0  0  0  0  0  0  0  0
  159.7980  208.4870  137.7470 O   0  0  0  0  0  1  0  0  0  0  0  0
  161.3910  207.4100  139.7270 O   0  0  0  0  0  1  0  0  0  0  0  0
  162.1400  207.4430  137.2230 O   0  0  0  0  0  0  0  0  0  0  0  0
  162.1250  212.4300  148.5150 O   0  0  0  0  0  0  0  0  0  0  0  0
  162.5030  211.0630  148.6000 C   0  0  0  0  0  2  0  0  0  0  0  0
  162.0690  210.4990  149.9390 C   0  0  0  0  0  2  0  0  0  0  0  0
  161.6840  208.2400  150.9830 C   0  0  0  0  0  0  0  0  0  0  0  0
  161.2210  205.9080  151.9050 C   0  0  0  0  0  0  0  0  0  0  0  0
  161.2320  206.3030  153.1000 O   0  0  0  0  0  0  0  0  0  0  0  0
  160.9910  204.5180  151.6410 N   0  0  0  0  0  2  0  0  0  0  0  0
  161.8210  209.0690  149.8190 N   0  0  0  0  0  0  0  0  0  0  0  0
  161.6150  208.5130  148.4910 C   0  0  0  0  0  1  0  0  0  0  0  0
  161.8030  208.7460  152.1330 O   0  0  0  0  0  0  0  0  0  0  0  0
  161.4190  206.8390  150.8330 N   0  0  0  0  0  2  0  0  0  0  0  0
  161.3210  204.5540  149.1800 C   0  0  0  0  0  3  0  0  0  0  0  0
  161.1850  202.4920  147.9220 C   0  0  0  0  0  3  0  0  0  0  0  0
  160.8570  202.4740  150.3210 C   0  0  0  0  0  3  0  0  0  0  0  0
  160.9210  201.7920  149.1010 C   0  0  0  0  0  0  0  0  0  0  0  0
  161.3850  203.8740  147.9610 C   0  0  0  0  0  0  0  0  0  0  0  0
  160.7280  200.4520  149.0650 F   0  0  0  0  0  0  0  0  0  0  0  0
  161.6460  204.5550  146.8190 F   0  0  0  0  0  0  0  0  0  0  0  0
  161.0510  203.8580  150.3690 C   0  0  0  0  0  0  0  0  0  0  0  0
  2  3  1  0  0  0  0
  3  7  1  0  0  0  0
  4  3  2  0  0  0  0
  4  8  1  0  0  0  0
  5  1  1  0  0  0  0
  6  5  1  0  0  0  0
  6 27  1  0  0  0  0
  7  5  2  0  0  0  0
  8  6  2  0  0  0  0
  9  4  1  0  0  0  0
 10  9  1  0  0  0  0
 11 20  1  6  0  0  0
 11 13  1  0  0  0  0
 12 19  1  6  0  0  0
 12 16  1  0  0  0  0
 13 17  1  0  0  0  0
 14 12  1  0  0  0  0
 14 11  1  0  0  0  0
 16 15  1  1  0  0  0
 16 17  1  0  0  0  0
 17 10  1  1  0  0  0
 18 19  3  0  0  0  0
 21 22  1  1  0  0  0
 21 20  1  0  0  0  0
 23 21  1  0  0  0  0
 23 25  1  0  0  0  0
 24 23  1  0  0  0  0
 26 23  2  0  0  0  0
 27 28  1  0  0  0  0
 28 29  1  0  0  0  0
 30 36  2  0  0  0  0
 31 32  2  0  0  0  0
 33 31  1  0  0  0  0
 34 29  1  0  0  0  0
 34 30  1  0  0  0  0
 35 34  1  0  0  0  0
 37 30  1  0  0  0  0
 37 31  1  0  0  0  0
 38 45  1  0  0  0  0
 39 42  1  0  0  0  0
 39 41  2  0  0  0  0
 40 45  2  0  0  0  0
 41 40  1  0  0  0  0
 42 38  2  0  0  0  0
 43 41  1  0  0  0  0
 44 42  1  0  0  0  0
 45 33  1  0  0  0  0
M  END
>  <MODEL>
2

>  <REMARK>
 VINA RESULT:      -7.2      1.721      2.450
  Name = 
  12 active torsions:
  status: ('A' for Active; 'I' for Inactive)
    1  A    between atoms: C_5  and  C_18
    2  A    between atoms: C_6  and  C_12
    3  A    between atoms: C_6  and  C_21
    4  A    between atoms: P_9  and  C_21
    5  A    between atoms: C_13  and  C_40
    6  A    between atoms: N_14  and  C_43
    7  A    between atoms: C_17  and  O_22
    8  A    between atoms: C_18  and  N_27
    9  A    between atoms: N_19  and  C_42
   10  A    between atoms: O_22  and  C_37
   11  A    between atoms: N_27  and  C_36
   12  A    between atoms: C_37  and  C_42
                            x       y       z     vdW  Elec       q    Type
                         _______ _______ _______ _____ _____    ______ ____

>  <TORSDO>
F 12

$$$$
=
 OpenBabel11072414443D

 45 47  0  0  1  0  0  0  0  0999 V2000
  161.2310  205.3340  153.7260 N   0  0  0  0  0  1  0  0  0  0  0  0
  159.5460  208.8500  156.5430 N   0  0  0  0  0  1  0  0  0  0  0  0
  160.2470  208.4700  155.3620 C   0  0  0  0  0  0  0  0  0  0  0  0
  160.7500  209.4410  154.4840 C   0  0  0  0  0  0  0  0  0  0  0  0
  161.0820  206.7290  153.9700 C   0  0  0  0  0  0  0  0  0  0  0  0
  161.6130  207.6650  153.0730 C   0  0  0  0  0  0  0  0  0  0  0  0
  160.4210  207.1500  155.0820 N   0  0  0  0  0  0  0  0  0  0  0  0
  161.4400  209.0290  153.3430 C   0  0  0  0  0  3  0  0  0  0  0  0
  160.5780  210.8990  154.7510 C   0  0  0  0  0  2  0  0  0  0  0  0
  160.7740  211.6530  153.5260 N   0  0  0  0  0  2  0  0  0  0  0  0
  158.1730  213.1560  153.2230 C   0  0  1  0  0  3  0  0  0  0  0  0
  159.7300  213.4200  151.2680 C   0  0  1  0  0  3  0  0  0  0  0  0
  158.3460  211.6360  153.1770 C   0  0  0  0  0  2  0  0  0  0  0  0
  158.3560  213.7690  151.8350 C   0  0  0  0  0  2  0  0  0  0  0  0
  161.1880  211.5730  150.7380 O   0  0  0  0  0  1  0  0  0  0  0  0
  159.9190  211.8950  151.2260 C   0  0  1  0  0  3  0  0  0  0  0  0
  159.7140  211.2590  152.6060 C   0  0  1  0  0  3  0  0  0  0  0  0
  159.9340  214.4530  148.8090 C   0  0  0  0  0  3  0  0  0  0  0  0
  159.8420  213.9870  149.9190 C   0  0  0  0  0  0  0  0  0  0  0  0
  156.8310  213.5420  153.8430 C   0  0  0  0  0  2  0  0  0  0  0  0
  156.9140  213.7750  155.3480 C   0  0  2  0  0  3  0  0  0  0  0  0
  158.3540  214.0250  155.7520 C   0  0  0  0  0  1  0  0  0  0  0  0
  156.2810  212.3120  156.2200 P   0  0  0  0  0  0  0  0  0  0  0  0
  155.6930  211.1910  155.1000 O   0  0  0  0  0  0  0  0  0  0  0  0
  155.0300  212.7760  157.2600 O   0  0  0  0  0  1  0  0  0  0  0  0
  157.3930  211.6810  157.0290 O   0  0  0  0  0  1  0  0  0  0  0  0
  162.2970  207.2280  151.9350 O   0  0  0  0  0  0  0  0  0  0  0  0
  162.4340  208.0290  150.7690 C   0  0  0  0  0  2  0  0  0  0  0  0
  161.2120  207.8570  149.8880 C   0  0  0  0  0  2  0  0  0  0  0  0
  161.0800  206.4170  147.8270 C   0  0  0  0  0  0  0  0  0  0  0  0
  161.0300  204.8480  145.8180 C   0  0  0  0  0  0  0  0  0  0  0  0
  160.9160  205.7930  144.9950 O   0  0  0  0  0  0  0  0  0  0  0  0
  161.0690  203.5040  145.3220 N   0  0  0  0  0  2  0  0  0  0  0  0
  161.2410  206.5500  149.2470 N   0  0  0  0  0  0  0  0  0  0  0  0
  161.5390  205.3860  150.0660 C   0  0  0  0  0  1  0  0  0  0  0  0
  160.8850  207.4430  147.1170 O   0  0  0  0  0  0  0  0  0  0  0  0
  161.1350  205.1190  147.2210 N   0  0  0  0  0  2  0  0  0  0  0  0
  161.1510  202.3110  147.4980 C   0  0  0  0  0  3  0  0  0  0  0  0
  161.0690  199.8930  147.5440 C   0  0  0  0  0  3  0  0  0  0  0  0
  160.9990  201.0700  145.4290 C   0  0  0  0  0  3  0  0  0  0  0  0
  160.9950  199.8710  146.1490 C   0  0  0  0  0  0  0  0  0  0  0  0
  161.1470  201.1140  148.2190 C   0  0  0  0  0  0  0  0  0  0  0  0
  160.9180  198.6880  145.4940 F   0  0  0  0  0  0  0  0  0  0  0  0
  161.2150  201.1390  149.5720 F   0  0  0  0  0  0  0  0  0  0  0  0
  161.0810  202.2960  146.0960 C   0  0  0  0  0  0  0  0  0  0  0  0
  1  5  1  0  0  0  0
  3  2  1  0  0  0  0
  4  9  1  0  0  0  0
  4  3  2  0  0  0  0
  5  7  2  0  0  0  0
  6  8  2  0  0  0  0
  6  5  1  0  0  0  0
  7  3  1  0  0  0  0
  8  4  1  0  0  0  0
 10  9  1  0  0  0  0
 11 20  1  6  0  0  0
 12 19  1  6  0  0  0
 12 14  1  0  0  0  0
 13 11  1  0  0  0  0
 14 11  1  0  0  0  0
 16 15  1  1  0  0  0
 16 12  1  0  0  0  0
 16 17  1  0  0  0  0
 17 13  1  0  0  0  0
 17 10  1  1  0  0  0
 18 19  3  0  0  0  0
 20 21  1  0  0  0  0
 21 22  1  1  0  0  0
 21 23  1  0  0  0  0
 23 26  1  0  0  0  0
 23 25  1  0  0  0  0
 24 23  2  0  0  0  0
 27  6  1  0  0  0  0
 28 27  1  0  0  0  0
 29 28  1  0  0  0  0
 30 34  1  0  0  0  0
 31 37  1  0  0  0  0
 32 31  2  0  0  0  0
 33 31  1  0  0  0  0
 33 45  1  0  0  0  0
 34 29  1  0  0  0  0
 34 35  1  0  0  0  0
 36 30  2  0  0  0  0
 37 30  1  0  0  0  0
 38 42  1  0  0  0  0
 39 42  2  0  0  0  0
 40 45  1  0  0  0  0
 40 41  2  0  0  0  0
 41 39  1  0  0  0  0
 42 44  1  0  0  0  0
 43 41  1  0  0  0  0
 45 38  2  0  0  0  0
M  END
>  <MODEL>
3

>  <REMARK>
 VINA RESULT:      -6.8      6.388     10.550
  Name = 
  12 active torsions:
  status: ('A' for Active; 'I' for Inactive)
    1  A    between atoms: C_5  and  C_18
    2  A    between atoms: C_6  and  C_12
    3  A    between atoms: C_6  and  C_21
    4  A    between atoms: P_9  and  C_21
    5  A    between atoms: C_13  and  C_40
    6  A    between atoms: N_14  and  C_43
    7  A    between atoms: C_17  and  O_22
    8  A    between atoms: C_18  and  N_27
    9  A    between atoms: N_19  and  C_42
   10  A    between atoms: O_22  and  C_37
   11  A    between atoms: N_27  and  C_36
   12  A    between atoms: C_37  and  C_42
                            x       y       z     vdW  Elec       q    Type
                         _______ _______ _______ _____ _____    ______ ____

>  <TORSDO>
F 12

$$$$
=
 OpenBabel11072414443D

 45 47  0  0  1  0  0  0  0  0999 V2000
  159.2520  212.9720  148.6610 N   0  0  0  0  0  1  0  0  0  0  0  0
  157.2180  214.4430  144.5590 N   0  0  0  0  0  1  0  0  0  0  0  0
  158.3990  214.0710  145.2650 C   0  0  0  0  0  0  0  0  0  0  0  0
  159.6460  214.0660  144.6220 C   0  0  0  0  0  0  0  0  0  0  0  0
  159.4040  213.3440  147.2960 C   0  0  0  0  0  0  0  0  0  0  0  0
  160.6710  213.3400  146.6980 C   0  0  0  0  0  0  0  0  0  0  0  0
  158.3110  213.7090  146.5730 N   0  0  0  0  0  0  0  0  0  0  0  0
  160.7810  213.7060  145.3500 C   0  0  0  0  0  3  0  0  0  0  0  0
  159.7860  214.4530  143.1880 C   0  0  0  0  0  2  0  0  0  0  0  0
  159.0050  213.5560  142.3540 N   0  0  0  0  0  2  0  0  0  0  0  0
  159.4300  212.3310  139.6280 C   0  0  1  0  0  3  0  0  0  0  0  0
  157.0110  212.5980  140.2550 C   0  0  1  0  0  3  0  0  0  0  0  0
  159.7070  213.7860  140.0150 C   0  0  0  0  0  2  0  0  0  0  0  0
  157.9840  212.1560  139.1650 C   0  0  0  0  0  2  0  0  0  0  0  0
  156.4180  214.4520  141.6790 O   0  0  0  0  0  1  0  0  0  0  0  0
  157.2860  214.0540  140.6590 C   0  0  1  0  0  3  0  0  0  0  0  0
  158.7400  214.2560  141.1040 C   0  0  1  0  0  3  0  0  0  0  0  0
  154.5130  212.3410  139.3310 C   0  0  0  0  0  3  0  0  0  0  0  0
  155.6400  212.4570  139.7490 C   0  0  0  0  0  0  0  0  0  0  0  0
  160.4270  211.8370  138.5810 C   0  0  0  0  0  2  0  0  0  0  0  0
  161.8110  212.4600  138.7340 C   0  0  2  0  0  3  0  0  0  0  0  0
  162.1560  213.2600  137.4920 C   0  0  0  0  0  1  0  0  0  0  0  0
  163.0410  211.1450  138.9740 P   0  0  0  0  0  0  0  0  0  0  0  0
  162.9440  210.5560  140.5560 O   0  0  0  0  0  1  0  0  0  0  0  0
  164.5890  211.7680  138.7010 O   0  0  0  0  0  1  0  0  0  0  0  0
  162.7780  210.0180  138.0000 O   0  0  0  0  0  0  0  0  0  0  0  0
  161.7930  212.9710  147.4470 O   0  0  0  0  0  0  0  0  0  0  0  0
  162.1770  211.6160  147.6340 C   0  0  0  0  0  2  0  0  0  0  0  0
  162.2180  211.2990  149.1160 C   0  0  0  0  0  2  0  0  0  0  0  0
  161.8590  209.3390  150.6550 C   0  0  0  0  0  0  0  0  0  0  0  0
  161.4100  207.2840  152.0960 C   0  0  0  0  0  0  0  0  0  0  0  0
  161.5130  207.9290  153.1710 O   0  0  0  0  0  0  0  0  0  0  0  0
  161.1320  205.8790  152.1610 N   0  0  0  0  0  2  0  0  0  0  0  0
  161.9320  209.8880  149.3300 N   0  0  0  0  0  0  0  0  0  0  0  0
  161.6220  209.0630  148.1740 C   0  0  0  0  0  1  0  0  0  0  0  0
  162.0680  210.0800  151.6550 O   0  0  0  0  0  0  0  0  0  0  0  0
  161.5540  207.9490  150.8350 N   0  0  0  0  0  2  0  0  0  0  0  0
  161.1400  205.3810  149.7280 C   0  0  0  0  0  3  0  0  0  0  0  0
  161.0330  203.0840  148.9740 C   0  0  0  0  0  3  0  0  0  0  0  0
  161.0170  203.5860  151.3430 C   0  0  0  0  0  3  0  0  0  0  0  0
  160.9860  202.6520  150.3010 C   0  0  0  0  0  0  0  0  0  0  0  0
  161.1100  204.4500  148.6860 C   0  0  0  0  0  0  0  0  0  0  0  0
  160.9120  201.3290  150.5810 F   0  0  0  0  0  0  0  0  0  0  0  0
  161.1600  204.8710  147.4000 F   0  0  0  0  0  0  0  0  0  0  0  0
  161.0900  204.9550  151.0640 C   0  0  0  0  0  0  0  0  0  0  0  0
  2  3  1  0  0  0  0
  3  7  1  0  0  0  0
  4  3  2  0  0  0  0
  4  8  1  0  0  0  0
  5  1  1  0  0  0  0
  6  5  1  0  0  0  0
  6 27  1  0  0  0  0
  7  5  2  0  0  0  0
  8  6  2  0  0  0  0
  9  4  1  0  0  0  0
 10  9  1  0  0  0  0
 11 20  1  6  0  0  0
 11 13  1  0  0  0  0
 12 19  1  6  0  0  0
 12 16  1  0  0  0  0
 13 17  1  0  0  0  0
 14 11  1  0  0  0  0
 14 12  1  0  0  0  0
 16 17  1  0  0  0  0
 16 15  1  1  0  0  0
 17 10  1  1  0  0  0
 18 19  3  0  0  0  0
 20 21  1  0  0  0  0
 21 22  1  6  0  0  0
 21 23  1  0  0  0  0
 23 24  1  0  0  0  0
 25 23  1  0  0  0  0
 26 23  2  0  0  0  0
 27 28  1  0  0  0  0
 28 29  1  0  0  0  0
 29 34  1  0  0  0  0
 30 37  1  0  0  0  0
 30 36  2  0  0  0  0
 31 33  1  0  0  0  0
 31 32  2  0  0  0  0
 34 30  1  0  0  0  0
 35 34  1  0  0  0  0
 37 31  1  0  0  0  0
 38 45  1  0  0  0  0
 39 41  2  0  0  0  0
 41 43  1  0  0  0  0
 41 40  1  0  0  0  0
 42 39  1  0  0  0  0
 42 38  2  0  0  0  0
 44 42  1  0  0  0  0
 45 40  2  0  0  0  0
 45 33  1  0  0  0  0
M  END
>  <MODEL>
4

>  <REMARK>
 VINA RESULT:      -6.5      2.348      3.110
  Name = 
  12 active torsions:
  status: ('A' for Active; 'I' for Inactive)
    1  A    between atoms: C_5  and  C_18
    2  A    between atoms: C_6  and  C_12
    3  A    between atoms: C_6  and  C_21
    4  A    between atoms: P_9  and  C_21
    5  A    between atoms: C_13  and  C_40
    6  A    between atoms: N_14  and  C_43
    7  A    between atoms: C_17  and  O_22
    8  A    between atoms: C_18  and  N_27
    9  A    between atoms: N_19  and  C_42
   10  A    between atoms: O_22  and  C_37
   11  A    between atoms: N_27  and  C_36
   12  A    between atoms: C_37  and  C_42
                            x       y       z     vdW  Elec       q    Type
                         _______ _______ _______ _____ _____    ______ ____

>  <TORSDO>
F 12

$$$$
=
 OpenBabel11072414443D

 45 47  0  0  1  0  0  0  0  0999 V2000
  161.7920  204.7790  151.7560 N   0  0  0  0  0  1  0  0  0  0  0  0
  160.6360  207.7500  155.3570 N   0  0  0  0  0  1  0  0  0  0  0  0
  160.8750  207.5640  153.9650 C   0  0  0  0  0  0  0  0  0  0  0  0
  160.7590  208.6370  153.0690 C   0  0  0  0  0  0  0  0  0  0  0  0
  161.4480  206.0930  152.1840 C   0  0  0  0  0  0  0  0  0  0  0  0
  161.3590  207.1390  151.2560 C   0  0  0  0  0  0  0  0  0  0  0  0
  161.2090  206.3290  153.5020 N   0  0  0  0  0  0  0  0  0  0  0  0
  161.0120  208.4170  151.7140 C   0  0  0  0  0  3  0  0  0  0  0  0
  160.3910  210.0060  153.5340 C   0  0  0  0  0  2  0  0  0  0  0  0
  159.8240  210.7660  152.4350 N   0  0  0  0  0  2  0  0  0  0  0  0
  159.9620  212.9060  150.3090 C   0  0  1  0  0  3  0  0  0  0  0  0
  157.8800  213.0040  151.7140 C   0  0  1  0  0  3  0  0  0  0  0  0
  160.8280  212.8300  151.5690 C   0  0  0  0  0  2  0  0  0  0  0  0
  158.6650  213.6660  150.5830 C   0  0  0  0  0  2  0  0  0  0  0  0
  158.0400  212.2800  154.0090 O   0  0  0  0  0  1  0  0  0  0  0  0
  158.7440  212.9130  152.9820 C   0  0  1  0  0  3  0  0  0  0  0  0
  160.0630  212.1750  152.7200 C   0  0  1  0  0  3  0  0  0  0  0  0
  155.6760  214.4450  152.1860 C   0  0  0  0  0  3  0  0  0  0  0  0
  156.6710  213.7940  151.9730 C   0  0  0  0  0  0  0  0  0  0  0  0
  160.7380  213.5080  149.1390 C   0  0  0  0  0  2  0  0  0  0  0  0
  160.9610  212.5190  147.9990 C   0  0  2  0  0  3  0  0  0  0  0  0
  162.4380  212.1950  147.8810 C   0  0  0  0  0  1  0  0  0  0  0  0
  160.3700  213.2480  146.4440 P   0  0  0  0  0  0  0  0  0  0  0  0
  158.9520  214.1250  146.7280 O   0  0  0  0  0  1  0  0  0  0  0  0
  160.0530  212.0140  145.3310 O   0  0  0  0  0  0  0  0  0  0  0  0
  161.4280  214.1690  145.8780 O   0  0  0  0  0  1  0  0  0  0  0  0
  161.6130  206.8930  149.9030 O   0  0  0  0  0  0  0  0  0  0  0  0
  161.3100  207.8360  148.8840 C   0  0  0  0  0  2  0  0  0  0  0  0
  162.0920  207.4970  147.6300 C   0  0  0  0  0  2  0  0  0  0  0  0
  160.9930  205.7010  146.2480 C   0  0  0  0  0  0  0  0  0  0  0  0
  160.0060  203.7890  144.8820 C   0  0  0  0  0  0  0  0  0  0  0  0
  159.3520  204.5650  144.1380 O   0  0  0  0  0  0  0  0  0  0  0  0
  159.9070  202.3760  144.6590 N   0  0  0  0  0  2  0  0  0  0  0  0
  161.9010  206.0940  147.2890 N   0  0  0  0  0  0  0  0  0  0  0  0
  162.7270  205.1020  147.9580 C   0  0  0  0  0  1  0  0  0  0  0  0
  160.3270  206.5780  145.6300 O   0  0  0  0  0  0  0  0  0  0  0  0
  160.8420  204.3140  145.9200 N   0  0  0  0  0  2  0  0  0  0  0  0
  160.8320  201.5330  146.8030 C   0  0  0  0  0  3  0  0  0  0  0  0
  161.5610  199.2320  146.9730 C   0  0  0  0  0  3  0  0  0  0  0  0
  160.6650  200.0700  144.8860 C   0  0  0  0  0  3  0  0  0  0  0  0
  161.2060  199.0230  145.6380 C   0  0  0  0  0  0  0  0  0  0  0  0
  161.3740  200.4880  147.5570 C   0  0  0  0  0  0  0  0  0  0  0  0
  161.3860  197.8060  145.0720 F   0  0  0  0  0  0  0  0  0  0  0  0
  161.7120  200.6920  148.8520 F   0  0  0  0  0  0  0  0  0  0  0  0
  160.4780  201.3320  145.4600 C   0  0  0  0  0  0  0  0  0  0  0  0
  1  5  1  0  0  0  0
  3  2  1  0  0  0  0
  4  9  1  0  0  0  0
  4  3  2  0  0  0  0
  5  7  2  0  0  0  0
  6  8  2  0  0  0  0
  6  5  1  0  0  0  0
  7  3  1  0  0  0  0
  8  4  1  0  0  0  0
 10  9  1  0  0  0  0
 11 20  1  6  0  0  0
 11 14  1  0  0  0  0
 11 13  1  0  0  0  0
 12 19  1  1  0  0  0
 12 16  1  0  0  0  0
 13 17  1  0  0  0  0
 14 12  1  0  0  0  0
 16 15  1  1  0  0  0
 17 10  1  6  0  0  0
 17 16  1  0  0  0  0
 19 18  3  0  0  0  0
 21 22  1  6  0  0  0
 21 20  1  0  0  0  0
 23 24  1  0  0  0  0
 23 21  1  0  0  0  0
 25 23  2  0  0  0  0
 26 23  1  0  0  0  0
 27  6  1  0  0  0  0
 28 27  1  0  0  0  0
 29 28  1  0  0  0  0
 30 34  1  0  0  0  0
 31 37  1  0  0  0  0
 32 31  2  0  0  0  0
 33 31  1  0  0  0  0
 33 45  1  0  0  0  0
 34 29  1  0  0  0  0
 34 35  1  0  0  0  0
 36 30  2  0  0  0  0
 37 30  1  0  0  0  0
 38 42  1  0  0  0  0
 39 42  2  0  0  0  0
 40 45  1  0  0  0  0
 40 41  2  0  0  0  0
 41 39  1  0  0  0  0
 42 44  1  0  0  0  0
 43 41  1  0  0  0  0
 45 38  2  0  0  0  0
M  END
>  <MODEL>
5

>  <REMARK>
 VINA RESULT:      -6.3      5.466      8.629
  Name = 
  12 active torsions:
  status: ('A' for Active; 'I' for Inactive)
    1  A    between atoms: C_5  and  C_18
    2  A    between atoms: C_6  and  C_12
    3  A    between atoms: C_6  and  C_21
    4  A    between atoms: P_9  and  C_21
    5  A    between atoms: C_13  and  C_40
    6  A    between atoms: N_14  and  C_43
    7  A    between atoms: C_17  and  O_22
    8  A    between atoms: C_18  and  N_27
    9  A    between atoms: N_19  and  C_42
   10  A    between atoms: O_22  and  C_37
   11  A    between atoms: N_27  and  C_36
   12  A    between atoms: C_37  and  C_42
                            x       y       z     vdW  Elec       q    Type
                         _______ _______ _______ _____ _____    ______ ____

>  <TORSDO>
F 12

$$$$
=
 OpenBabel11072414443D

 45 47  0  0  1  0  0  0  0  0999 V2000
  161.8040  204.7740  151.7390 N   0  0  0  0  0  1  0  0  0  0  0  0
  160.5250  207.7170  155.3220 N   0  0  0  0  0  1  0  0  0  0  0  0
  160.7950  207.5380  153.9340 C   0  0  0  0  0  0  0  0  0  0  0  0
  160.6810  208.6120  153.0380 C   0  0  0  0  0  0  0  0  0  0  0  0
  161.4300  206.0810  152.1630 C   0  0  0  0  0  0  0  0  0  0  0  0
  161.3430  207.1280  151.2350 C   0  0  0  0  0  0  0  0  0  0  0  0
  161.1600  206.3100  153.4760 N   0  0  0  0  0  0  0  0  0  0  0  0
  160.9650  208.3990  151.6880 C   0  0  0  0  0  3  0  0  0  0  0  0
  160.2810  209.9730  153.4980 C   0  0  0  0  0  2  0  0  0  0  0  0
  159.7710  210.7440  152.3770 N   0  0  0  0  0  2  0  0  0  0  0  0
  160.0830  212.9130  150.3010 C   0  0  1  0  0  3  0  0  0  0  0  0
  157.8770  212.9700  151.5040 C   0  0  1  0  0  3  0  0  0  0  0  0
  160.8270  212.8290  151.6360 C   0  0  0  0  0  2  0  0  0  0  0  0
  158.7570  213.6560  150.4610 C   0  0  0  0  0  2  0  0  0  0  0  0
  157.8290  212.2160  153.7950 O   0  0  0  0  0  1  0  0  0  0  0  0
  158.6180  212.8720  152.8470 C   0  0  1  0  0  3  0  0  0  0  0  0
  159.9640  212.1510  152.7020 C   0  0  1  0  0  3  0  0  0  0  0  0
  155.6200  214.3780  151.7860 C   0  0  0  0  0  3  0  0  0  0  0  0
  156.6390  213.7430  151.6580 C   0  0  0  0  0  0  0  0  0  0  0  0
  160.9590  213.5390  149.2170 C   0  0  0  0  0  2  0  0  0  0  0  0
  161.3070  212.5670  148.0950 C   0  0  2  0  0  3  0  0  0  0  0  0
  162.8040  212.5760  147.8520 C   0  0  0  0  0  1  0  0  0  0  0  0
  160.4390  213.0610  146.5780 P   0  0  0  0  0  0  0  0  0  0  0  0
  161.5420  213.7210  145.4790 O   0  0  0  0  0  0  0  0  0  0  0  0
  159.2620  214.2160  146.9550 O   0  0  0  0  0  1  0  0  0  0  0  0
  159.7710  211.8530  145.9570 O   0  0  0  0  0  1  0  0  0  0  0  0
  161.6290  206.8890  149.8880 O   0  0  0  0  0  0  0  0  0  0  0  0
  161.3490  207.8360  148.8660 C   0  0  0  0  0  2  0  0  0  0  0  0
  162.1420  207.4900  147.6210 C   0  0  0  0  0  2  0  0  0  0  0  0
  161.0240  205.7150  146.2270 C   0  0  0  0  0  0  0  0  0  0  0  0
  160.0170  203.8220  144.8490 C   0  0  0  0  0  0  0  0  0  0  0  0
  159.3750  204.6100  144.1070 O   0  0  0  0  0  0  0  0  0  0  0  0
  159.9010  202.4110  144.6180 N   0  0  0  0  0  2  0  0  0  0  0  0
  161.9340  206.0910  147.2720 N   0  0  0  0  0  0  0  0  0  0  0  0
  162.7450  205.0860  147.9390 C   0  0  0  0  0  1  0  0  0  0  0  0
  160.3710  206.6030  145.6120 O   0  0  0  0  0  0  0  0  0  0  0  0
  160.8570  204.3310  145.8920 N   0  0  0  0  0  2  0  0  0  0  0  0
  160.6530  200.0630  144.9090 C   0  0  0  0  0  3  0  0  0  0  0  0
  161.5770  199.3530  147.0290 C   0  0  0  0  0  3  0  0  0  0  0  0
  160.8310  201.6380  146.7340 C   0  0  0  0  0  3  0  0  0  0  0  0
  161.3880  200.6400  147.5400 C   0  0  0  0  0  0  0  0  0  0  0  0
  161.2090  199.0640  145.7120 C   0  0  0  0  0  0  0  0  0  0  0  0
  161.7450  200.9210  148.8160 F   0  0  0  0  0  0  0  0  0  0  0  0
  161.3950  197.8190  145.2130 F   0  0  0  0  0  0  0  0  0  0  0  0
  160.4560  201.3560  145.4160 C   0  0  0  0  0  0  0  0  0  0  0  0
  1  5  1  0  0  0  0
  3  2  1  0  0  0  0
  4  9  1  0  0  0  0
  4  3  2  0  0  0  0
  5  7  2  0  0  0  0
  6  8  2  0  0  0  0
  6  5  1  0  0  0  0
  7  3  1  0  0  0  0
  8  4  1  0  0  0  0
 10  9  1  0  0  0  0
 11 20  1  6  0  0  0
 11 14  1  0  0  0  0
 11 13  1  0  0  0  0
 12 19  1  1  0  0  0
 12 16  1  0  0  0  0
 13 17  1  0  0  0  0
 14 12  1  0  0  0  0
 16 15  1  1  0  0  0
 17 10  1  6  0  0  0
 17 16  1  0  0  0  0
 19 18  3  0  0  0  0
 21 22  1  6  0  0  0
 21 20  1  0  0  0  0
 23 25  1  0  0  0  0
 23 21  1  0  0  0  0
 24 23  2  0  0  0  0
 26 23  1  0  0  0  0
 27  6  1  0  0  0  0
 28 27  1  0  0  0  0
 29 28  1  0  0  0  0
 30 34  1  0  0  0  0
 31 37  1  0  0  0  0
 32 31  2  0  0  0  0
 33 31  1  0  0  0  0
 33 45  1  0  0  0  0
 34 29  1  0  0  0  0
 34 35  1  0  0  0  0
 36 30  2  0  0  0  0
 37 30  1  0  0  0  0
 38 45  2  0  0  0  0
 38 42  1  0  0  0  0
 39 41  1  0  0  0  0
 40 41  2  0  0  0  0
 41 43  1  0  0  0  0
 42 39  2  0  0  0  0
 44 42  1  0  0  0  0
 45 40  1  0  0  0  0
M  END
>  <MODEL>
6

>  <REMARK>
 VINA RESULT:      -6.3      5.501      8.486
  Name = 
  12 active torsions:
  status: ('A' for Active; 'I' for Inactive)
    1  A    between atoms: C_5  and  C_18
    2  A    between atoms: C_6  and  C_12
    3  A    between atoms: C_6  and  C_21
    4  A    between atoms: P_9  and  C_21
    5  A    between atoms: C_13  and  C_40
    6  A    between atoms: N_14  and  C_43
    7  A    between atoms: C_17  and  O_22
    8  A    between atoms: C_18  and  N_27
    9  A    between atoms: N_19  and  C_42
   10  A    between atoms: O_22  and  C_37
   11  A    between atoms: N_27  and  C_36
   12  A    between atoms: C_37  and  C_42
                            x       y       z     vdW  Elec       q    Type
                         _______ _______ _______ _____ _____    ______ ____

>  <TORSDO>
F 12

$$$$
=
 OpenBabel11072414443D

 45 47  0  0  1  0  0  0  0  0999 V2000
  163.2360  205.0120  139.4160 N   0  0  0  0  0  1  0  0  0  0  0  0
  161.2660  208.7300  137.0870 N   0  0  0  0  0  1  0  0  0  0  0  0
  161.5670  208.0950  138.3260 C   0  0  0  0  0  0  0  0  0  0  0  0
  161.1990  208.6870  139.5430 C   0  0  0  0  0  0  0  0  0  0  0  0
  162.5410  206.2530  139.4770 C   0  0  0  0  0  0  0  0  0  0  0  0
  162.1800  206.8010  140.7150 C   0  0  0  0  0  0  0  0  0  0  0  0
  162.2270  206.9050  138.3250 N   0  0  0  0  0  0  0  0  0  0  0  0
  161.5030  208.0280  140.7360 C   0  0  0  0  0  3  0  0  0  0  0  0
  160.4780  209.9920  139.5900 C   0  0  0  0  0  2  0  0  0  0  0  0
  161.2490  210.9570  140.3540 N   0  0  0  0  0  2  0  0  0  0  0  0
  161.5630  213.5360  141.8900 C   0  0  1  0  0  3  0  0  0  0  0  0
  163.3150  213.1890  140.1220 C   0  0  1  0  0  3  0  0  0  0  0  0
  160.4580  213.2180  140.8810 C   0  0  0  0  0  2  0  0  0  0  0  0
  162.7830  214.1380  141.1920 C   0  0  0  0  0  2  0  0  0  0  0  0
  162.6850  211.9600  138.1440 O   0  0  0  0  0  1  0  0  0  0  0  0
  162.2100  212.8540  139.1070 C   0  0  1  0  0  3  0  0  0  0  0  0
  160.9670  212.2720  139.7920 C   0  0  1  0  0  3  0  0  0  0  0  0
  165.3860  214.3540  138.8930 C   0  0  0  0  0  3  0  0  0  0  0  0
  164.4520  213.8270  139.4480 C   0  0  0  0  0  0  0  0  0  0  0  0
  161.0470  214.4370  143.0110 C   0  0  0  0  0  2  0  0  0  0  0  0
  161.5940  214.0550  144.3830 C   0  0  2  0  0  3  0  0  0  0  0  0
  162.7720  213.1140  144.2230 C   0  0  0  0  0  1  0  0  0  0  0  0
  160.2880  213.2410  145.3480 P   0  0  0  0  0  0  0  0  0  0  0  0
  160.9780  212.3790  146.6280 O   0  0  0  0  0  1  0  0  0  0  0  0
  159.4340  212.1760  144.3490 O   0  0  0  0  0  0  0  0  0  0  0  0
  159.3370  214.2810  145.8960 O   0  0  0  0  0  1  0  0  0  0  0  0
  162.4990  206.1240  141.8960 O   0  0  0  0  0  0  0  0  0  0  0  0
  161.6200  206.0760  143.0110 C   0  0  0  0  0  2  0  0  0  0  0  0
  161.6790  204.7000  143.6460 C   0  0  0  0  0  2  0  0  0  0  0  0
  161.2370  203.7010  145.9150 C   0  0  0  0  0  0  0  0  0  0  0  0
  160.8860  202.8020  148.2740 C   0  0  0  0  0  0  0  0  0  0  0  0
  160.6410  201.6370  147.8690 O   0  0  0  0  0  0  0  0  0  0  0  0
  160.8540  203.0620  149.6840 N   0  0  0  0  0  2  0  0  0  0  0  0
  161.6150  204.8180  145.0960 N   0  0  0  0  0  0  0  0  0  0  0  0
  162.0420  206.0670  145.7060 C   0  0  0  0  0  1  0  0  0  0  0  0
  160.9300  202.6020  145.3760 O   0  0  0  0  0  0  0  0  0  0  0  0
  161.2050  203.8420  147.3410 N   0  0  0  0  0  2  0  0  0  0  0  0
  161.0810  205.5330  149.6090 C   0  0  0  0  0  3  0  0  0  0  0  0
  161.2280  206.7870  151.6730 C   0  0  0  0  0  3  0  0  0  0  0  0
  161.0150  204.3750  151.7310 C   0  0  0  0  0  3  0  0  0  0  0  0
  161.1350  205.5980  152.4000 C   0  0  0  0  0  0  0  0  0  0  0  0
  161.2010  206.7550  150.2760 C   0  0  0  0  0  0  0  0  0  0  0  0
  161.1610  205.6270  153.7540 F   0  0  0  0  0  0  0  0  0  0  0  0
  161.2860  207.9070  149.5690 F   0  0  0  0  0  0  0  0  0  0  0  0
  160.9910  204.3340  150.3330 C   0  0  0  0  0  0  0  0  0  0  0  0
  1  5  1  0  0  0  0
  2  3  1  0  0  0  0
  3  4  1  0  0  0  0
  4  9  1  0  0  0  0
  4  8  2  0  0  0  0
  5  6  2  0  0  0  0
  6  8  1  0  0  0  0
  6 27  1  0  0  0  0
  7  3  2  0  0  0  0
  7  5  1  0  0  0  0
  9 10  1  0  0  0  0
 11 20  1  1  0  0  0
 12 19  1  6  0  0  0
 12 14  1  0  0  0  0
 13 11  1  0  0  0  0
 14 11  1  0  0  0  0
 16 15  1  6  0  0  0
 16 17  1  0  0  0  0
 16 12  1  0  0  0  0
 17 10  1  1  0  0  0
 17 13  1  0  0  0  0
 18 19  3  0  0  0  0
 20 21  1  0  0  0  0
 21 22  1  6  0  0  0
 21 23  1  0  0  0  0
 23 26  1  0  0  0  0
 23 24  1  0  0  0  0
 25 23  2  0  0  0  0
 27 28  1  0  0  0  0
 28 29  1  0  0  0  0
 29 34  1  0  0  0  0
 30 37  1  0  0  0  0
 31 33  1  0  0  0  0
 32 31  2  0  0  0  0
 33 45  1  0  0  0  0
 34 35  1  0  0  0  0
 34 30  1  0  0  0  0
 36 30  2  0  0  0  0
 37 31  1  0  0  0  0
 38 42  2  0  0  0  0
 38 45  1  0  0  0  0
 39 41  2  0  0  0  0
 40 41  1  0  0  0  0
 41 43  1  0  0  0  0
 42 39  1  0  0  0  0
 44 42  1  0  0  0  0
 45 40  2  0  0  0  0
M  END
>  <MODEL>
7

>  <REMARK>
 VINA RESULT:      -6.1      3.600      6.826
  Name = 
  12 active torsions:
  status: ('A' for Active; 'I' for Inactive)
    1  A    between atoms: C_5  and  C_18
    2  A    between atoms: C_6  and  C_12
    3  A    between atoms: C_6  and  C_21
    4  A    between atoms: P_9  and  C_21
    5  A    between atoms: C_13  and  C_40
    6  A    between atoms: N_14  and  C_43
    7  A    between atoms: C_17  and  O_22
    8  A    between atoms: C_18  and  N_27
    9  A    between atoms: N_19  and  C_42
   10  A    between atoms: O_22  and  C_37
   11  A    between atoms: N_27  and  C_36
   12  A    between atoms: C_37  and  C_42
                            x       y       z     vdW  Elec       q    Type
                         _______ _______ _______ _____ _____    ______ ____

>  <TORSDO>
F 12

$$$$
=
 OpenBabel11072414443D

 45 47  0  0  1  0  0  0  0  0999 V2000
  161.1600  204.5690  150.9050 N   0  0  0  0  0  1  0  0  0  0  0  0
  161.0450  207.3300  154.8420 N   0  0  0  0  0  1  0  0  0  0  0  0
  161.1520  207.2400  153.4240 C   0  0  0  0  0  0  0  0  0  0  0  0
  161.2880  208.3960  152.6420 C   0  0  0  0  0  0  0  0  0  0  0  0
  161.2100  205.8720  151.4770 C   0  0  0  0  0  0  0  0  0  0  0  0
  161.3620  206.9990  150.6580 C   0  0  0  0  0  0  0  0  0  0  0  0
  161.1130  206.0180  152.8260 N   0  0  0  0  0  0  0  0  0  0  0  0
  161.4000  208.2660  151.2560 C   0  0  0  0  0  3  0  0  0  0  0  0
  161.3310  209.7540  153.2560 C   0  0  0  0  0  2  0  0  0  0  0  0
  159.9870  210.2910  153.3670 N   0  0  0  0  0  2  0  0  0  0  0  0
  159.0300  213.0220  152.5070 C   0  0  1  0  0  3  0  0  0  0  0  0
  157.5660  211.9320  154.2350 C   0  0  1  0  0  3  0  0  0  0  0  0
  160.2730  212.7270  153.3500 C   0  0  0  0  0  2  0  0  0  0  0  0
  157.7950  213.1850  153.3930 C   0  0  0  0  0  2  0  0  0  0  0  0
  158.6180  210.4560  155.8270 O   0  0  0  0  0  1  0  0  0  0  0  0
  158.8120  211.6200  155.0790 C   0  0  1  0  0  3  0  0  0  0  0  0
  160.0670  211.4780  154.2090 C   0  0  1  0  0  3  0  0  0  0  0  0
  155.4460  212.3360  155.8150 C   0  0  0  0  0  3  0  0  0  0  0  0
  156.4020  212.1530  155.1020 C   0  0  0  0  0  0  0  0  0  0  0  0
  159.2480  214.2370  151.6050 C   0  0  0  0  0  2  0  0  0  0  0  0
  158.8490  213.9830  150.1560 C   0  0  2  0  0  3  0  0  0  0  0  0
  157.7470  212.9420  150.1000 C   0  0  0  0  0  1  0  0  0  0  0  0
  160.2940  213.3920  149.2270 P   0  0  0  0  0  0  0  0  0  0  0  0
  159.8480  213.0560  147.6310 O   0  0  0  0  0  0  0  0  0  0  0  0
  160.8900  211.9850  149.9510 O   0  0  0  0  0  1  0  0  0  0  0  0
  161.3730  214.4520  149.2360 O   0  0  0  0  0  1  0  0  0  0  0  0
  161.4690  206.8430  149.2730 O   0  0  0  0  0  0  0  0  0  0  0  0
  162.3670  207.6110  148.4830 C   0  0  0  0  0  2  0  0  0  0  0  0
  162.0820  207.3730  147.0130 C   0  0  0  0  0  2  0  0  0  0  0  0
  160.8760  205.4880  145.8590 C   0  0  0  0  0  0  0  0  0  0  0  0
  159.7860  203.4880  144.7130 C   0  0  0  0  0  0  0  0  0  0  0  0
  159.0370  204.2120  144.0080 O   0  0  0  0  0  0  0  0  0  0  0  0
  159.6940  202.0640  144.5760 N   0  0  0  0  0  2  0  0  0  0  0  0
  161.8850  205.9510  146.7690 N   0  0  0  0  0  0  0  0  0  0  0  0
  162.8020  205.0100  147.3930 C   0  0  0  0  0  1  0  0  0  0  0  0
  160.1270  206.3190  145.2740 O   0  0  0  0  0  0  0  0  0  0  0  0
  160.7210  204.0820  145.6220 N   0  0  0  0  0  2  0  0  0  0  0  0
  160.8100  201.3330  146.6710 C   0  0  0  0  0  3  0  0  0  0  0  0
  161.6670  199.0770  146.8490 C   0  0  0  0  0  3  0  0  0  0  0  0
  160.5840  199.8070  144.8090 C   0  0  0  0  0  3  0  0  0  0  0  0
  161.2310  198.8110  145.5490 C   0  0  0  0  0  0  0  0  0  0  0  0
  161.4560  200.3390  147.4110 C   0  0  0  0  0  0  0  0  0  0  0  0
  161.4340  197.5880  145.0030 F   0  0  0  0  0  0  0  0  0  0  0  0
  161.8740  200.5990  148.6730 F   0  0  0  0  0  0  0  0  0  0  0  0
  160.3730  201.0740  145.3620 C   0  0  0  0  0  0  0  0  0  0  0  0
  1  5  1  0  0  0  0
  3  2  1  0  0  0  0
  4  9  1  0  0  0  0
  4  3  2  0  0  0  0
  5  7  2  0  0  0  0
  6  8  2  0  0  0  0
  6  5  1  0  0  0  0
  7  3  1  0  0  0  0
  8  4  1  0  0  0  0
  9 10  1  0  0  0  0
 11 20  1  1  0  0  0
 11 13  1  0  0  0  0
 11 14  1  0  0  0  0
 12 16  1  0  0  0  0
 12 19  1  1  0  0  0
 13 17  1  0  0  0  0
 14 12  1  0  0  0  0
 16 15  1  6  0  0  0
 17 10  1  6  0  0  0
 17 16  1  0  0  0  0
 19 18  3  0  0  0  0
 21 22  1  1  0  0  0
 21 20  1  0  0  0  0
 23 26  1  0  0  0  0
 23 25  1  0  0  0  0
 23 21  1  0  0  0  0
 24 23  2  0  0  0  0
 27  6  1  0  0  0  0
 28 27  1  0  0  0  0
 29 28  1  0  0  0  0
 30 34  1  0  0  0  0
 31 37  1  0  0  0  0
 32 31  2  0  0  0  0
 33 31  1  0  0  0  0
 33 45  1  0  0  0  0
 34 29  1  0  0  0  0
 34 35  1  0  0  0  0
 36 30  2  0  0  0  0
 37 30  1  0  0  0  0
 38 42  1  0  0  0  0
 39 42  2  0  0  0  0
 40 45  1  0  0  0  0
 40 41  2  0  0  0  0
 41 39  1  0  0  0  0
 42 44  1  0  0  0  0
 43 41  1  0  0  0  0
 45 38  2  0  0  0  0
M  END
>  <MODEL>
8

>  <REMARK>
 VINA RESULT:      -5.9      6.080      9.859
  Name = 
  12 active torsions:
  status: ('A' for Active; 'I' for Inactive)
    1  A    between atoms: C_5  and  C_18
    2  A    between atoms: C_6  and  C_12
    3  A    between atoms: C_6  and  C_21
    4  A    between atoms: P_9  and  C_21
    5  A    between atoms: C_13  and  C_40
    6  A    between atoms: N_14  and  C_43
    7  A    between atoms: C_17  and  O_22
    8  A    between atoms: C_18  and  N_27
    9  A    between atoms: N_19  and  C_42
   10  A    between atoms: O_22  and  C_37
   11  A    between atoms: N_27  and  C_36
   12  A    between atoms: C_37  and  C_42
                            x       y       z     vdW  Elec       q    Type
                         _______ _______ _______ _____ _____    ______ ____

>  <TORSDO>
F 12

$$$$
=
 OpenBabel11072414443D

 45 47  0  0  1  0  0  0  0  0999 V2000
  161.4260  205.5220  153.5190 N   0  0  0  0  0  1  0  0  0  0  0  0
  159.5730  209.0140  156.2580 N   0  0  0  0  0  1  0  0  0  0  0  0
  160.3420  208.6430  155.1180 C   0  0  0  0  0  0  0  0  0  0  0  0
  160.8940  209.6220  154.2780 C   0  0  0  0  0  0  0  0  0  0  0  0
  161.2600  206.9150  153.7640 C   0  0  0  0  0  0  0  0  0  0  0  0
  161.8420  207.8580  152.9070 C   0  0  0  0  0  0  0  0  0  0  0  0
  160.5350  207.3260  154.8390 N   0  0  0  0  0  0  0  0  0  0  0  0
  161.6520  209.2200  153.1770 C   0  0  0  0  0  3  0  0  0  0  0  0
  160.7050  211.0780  154.5460 C   0  0  0  0  0  2  0  0  0  0  0  0
  160.8360  211.8290  153.3100 N   0  0  0  0  0  2  0  0  0  0  0  0
  158.1960  213.2600  153.0000 C   0  0  1  0  0  3  0  0  0  0  0  0
  159.7180  213.4960  151.0130 C   0  0  1  0  0  3  0  0  0  0  0  0
  158.4050  211.7440  153.0000 C   0  0  0  0  0  2  0  0  0  0  0  0
  158.3440  213.8310  151.5900 C   0  0  0  0  0  2  0  0  0  0  0  0
  161.2110  211.6670  150.5200 O   0  0  0  0  0  1  0  0  0  0  0  0
  159.9430  211.9760  151.0180 C   0  0  1  0  0  3  0  0  0  0  0  0
  159.7730  211.3800  152.4210 C   0  0  1  0  0  3  0  0  0  0  0  0
  159.8600  214.4520  148.5190 C   0  0  0  0  0  3  0  0  0  0  0  0
  159.7960  214.0210  149.6450 C   0  0  0  0  0  0  0  0  0  0  0  0
  156.8540  213.6340  153.6270 C   0  0  0  0  0  2  0  0  0  0  0  0
  156.9690  214.0090  155.1010 C   0  0  2  0  0  3  0  0  0  0  0  0
  158.4280  214.1940  155.4730 C   0  0  0  0  0  1  0  0  0  0  0  0
  156.2420  212.6920  156.1180 P   0  0  0  0  0  0  0  0  0  0  0  0
  155.6840  211.4450  155.1210 O   0  0  0  0  0  0  0  0  0  0  0  0
  154.9480  213.3190  157.0090 O   0  0  0  0  0  1  0  0  0  0  0  0
  157.2850  212.1480  157.0690 O   0  0  0  0  0  1  0  0  0  0  0  0
  162.5930  207.4300  151.8080 O   0  0  0  0  0  0  0  0  0  0  0  0
  162.2250  207.7260  150.4680 C   0  0  0  0  0  2  0  0  0  0  0  0
  160.7980  207.2780  150.2220 C   0  0  0  0  0  2  0  0  0  0  0  0
  160.9560  204.7660  150.2960 C   0  0  0  0  0  0  0  0  0  0  0  0
  161.0330  202.2190  150.2340 C   0  0  0  0  0  0  0  0  0  0  0  0
  161.1320  202.1220  151.4850 O   0  0  0  0  0  0  0  0  0  0  0  0
  161.0170  201.0190  149.4500 N   0  0  0  0  0  2  0  0  0  0  0  0
  160.7910  205.9840  149.5550 N   0  0  0  0  0  0  0  0  0  0  0  0
  160.5120  205.9450  148.1280 C   0  0  0  0  0  1  0  0  0  0  0  0
  161.1340  204.8100  151.5450 O   0  0  0  0  0  0  0  0  0  0  0  0
  160.9220  203.5060  149.6140 N   0  0  0  0  0  2  0  0  0  0  0  0
  161.2330  199.7020  147.3550 C   0  0  0  0  0  3  0  0  0  0  0  0
  160.9930  200.8050  145.2150 C   0  0  0  0  0  3  0  0  0  0  0  0
  160.7940  202.0780  147.2660 C   0  0  0  0  0  3  0  0  0  0  0  0
  160.7800  202.0220  145.8680 C   0  0  0  0  0  0  0  0  0  0  0  0
  161.2200  199.6440  145.9590 C   0  0  0  0  0  0  0  0  0  0  0  0
  160.5590  203.1470  145.1480 F   0  0  0  0  0  0  0  0  0  0  0  0
  161.4220  198.4630  145.3290 F   0  0  0  0  0  0  0  0  0  0  0  0
  161.0240  200.9210  148.0180 C   0  0  0  0  0  0  0  0  0  0  0  0
  1  5  1  0  0  0  0
  3  2  1  0  0  0  0
  4  9  1  0  0  0  0
  4  3  2  0  0  0  0
  5  7  2  0  0  0  0
  6  8  2  0  0  0  0
  6  5  1  0  0  0  0
  7  3  1  0  0  0  0
  8  4  1  0  0  0  0
 10  9  1  0  0  0  0
 11 20  1  6  0  0  0
 12 19  1  6  0  0  0
 12 16  1  0  0  0  0
 12 14  1  0  0  0  0
 13 11  1  0  0  0  0
 14 11  1  0  0  0  0
 16 15  1  1  0  0  0
 16 17  1  0  0  0  0
 17 13  1  0  0  0  0
 17 10  1  1  0  0  0
 18 19  3  0  0  0  0
 20 21  1  0  0  0  0
 21 22  1  1  0  0  0
 21 23  1  0  0  0  0
 23 25  1  0  0  0  0
 23 26  1  0  0  0  0
 24 23  2  0  0  0  0
 27  6  1  0  0  0  0
 28 27  1  0  0  0  0
 29 28  1  0  0  0  0
 30 36  2  0  0  0  0
 31 32  2  0  0  0  0
 33 31  1  0  0  0  0
 34 29  1  0  0  0  0
 34 30  1  0  0  0  0
 35 34  1  0  0  0  0
 37 31  1  0  0  0  0
 37 30  1  0  0  0  0
 38 45  1  0  0  0  0
 39 41  2  0  0  0  0
 39 42  1  0  0  0  0
 40 45  2  0  0  0  0
 41 40  1  0  0  0  0
 42 38  2  0  0  0  0
 43 41  1  0  0  0  0
 44 42  1  0  0  0  0
 45 33  1  0  0  0  0
M  END
>  <MODEL>
9

>  <REMARK>
 VINA RESULT:      -5.9      7.281     10.577
  Name = 
  12 active torsions:
  status: ('A' for Active; 'I' for Inactive)
    1  A    between atoms: C_5  and  C_18
    2  A    between atoms: C_6  and  C_12
    3  A    between atoms: C_6  and  C_21
    4  A    between atoms: P_9  and  C_21
    5  A    between atoms: C_13  and  C_40
    6  A    between atoms: N_14  and  C_43
    7  A    between atoms: C_17  and  O_22
    8  A    between atoms: C_18  and  N_27
    9  A    between atoms: N_19  and  C_42
   10  A    between atoms: O_22  and  C_37
   11  A    between atoms: N_27  and  C_36
   12  A    between atoms: C_37  and  C_42
                            x       y       z     vdW  Elec       q    Type
                         _______ _______ _______ _____ _____    ______ ____

>  <TORSDO>
F 12

$$$$
