=
 OpenBabel11072413333D

 36 41  0  0  1  0  0  0  0  0999 V2000
  159.4970  212.5350  152.4290 C   0  0  0  0  0  0  0  0  0  0  0  0
  161.1640  207.0910  151.3530 C   0  0  0  0  0  3  0  0  0  0  0  0
  161.4990  212.9820  148.1020 C   0  0  0  0  0  3  0  0  0  0  0  0
  161.6780  211.8600  150.7050 C   0  0  2  0  0  3  0  0  0  0  0  0
  160.9100  213.6140  149.0830 N   0  0  0  0  0  0  0  0  0  0  0  0
  161.0820  210.9090  151.6270 N   0  0  0  0  0  0  0  0  0  0  0  0
  161.5170  206.5540  150.1780 C   0  0  0  0  0  0  0  0  0  0  0  0
  160.7340  212.9650  150.3500 C   0  0  0  0  0  0  0  0  0  0  0  0
  161.8730  209.6480  149.7770 N   0  0  0  0  0  0  0  0  0  0  0  0
  161.9280  211.5690  148.2610 C   0  0  0  0  0  2  0  0  0  0  0  0
  160.9870  208.4900  151.7520 C   0  0  0  0  0  3  0  0  0  0  0  0
  161.9340  208.6380  148.7670 C   0  0  0  0  0  3  0  0  0  0  0  0
  160.0970  211.3240  152.5980 C   0  0  0  0  0  0  0  0  0  0  0  0
  159.7580  213.3130  151.1920 C   0  0  0  0  0  3  0  0  0  0  0  0
  161.9690  211.0430  149.4940 C   0  0  1  0  0  3  0  0  0  0  0  0
  161.7840  207.3300  148.9490 C   0  0  0  0  0  3  0  0  0  0  0  0
  161.2840  209.5960  151.0770 C   0  0  0  0  0  0  0  0  0  0  0  0
  160.7500  203.3140  148.6670 C   0  0  0  0  0  2  0  0  0  0  0  0
  161.6190  204.2830  151.2910 C   0  0  0  0  0  2  0  0  0  0  0  0
  161.7780  204.4330  148.8020 C   0  0  0  0  0  2  0  0  0  0  0  0
  160.5900  203.1650  151.1610 C   0  0  0  0  0  2  0  0  0  0  0  0
  159.7830  201.2950  149.7410 C   0  0  0  0  0  1  0  0  0  0  0  0
  160.8280  202.3810  149.8730 C   0  0  1  0  0  3  0  0  0  0  0  0
  161.6020  205.1150  150.0880 N   0  0  0  0  0  0  0  0  0  0  0  0
  158.5670  213.0950  153.3670 N   0  0  0  0  0  2  0  0  0  0  0  0
  157.2560  213.2930  153.0950 O   0  0  0  0  0  1  0  0  0  0  0  0
  158.6040  209.9470  153.7840 O   0  0  0  0  0  0  0  0  0  0  0  0
  159.7690  210.4230  153.7220 C   0  0  0  0  0  0  0  0  0  0  0  0
  161.7540  208.6460  156.4450 C   0  0  0  0  0  0  0  0  0  0  0  0
  160.8190  208.8760  155.4260 C   0  0  0  0  0  0  0  0  0  0  0  0
  161.6350  211.1480  155.2150 C   0  0  0  0  0  3  0  0  0  0  0  0
  162.5630  210.9140  156.2310 C   0  0  0  0  0  3  0  0  0  0  0  0
  159.9950  207.8640  155.0540 F   0  0  0  0  0  0  0  0  0  0  0  0
  161.8190  207.4330  157.0480 F   0  0  0  0  0  0  0  0  0  0  0  0
  162.6220  209.6630  156.8460 C   0  0  0  0  0  3  0  0  0  0  0  0
  160.7540  210.1370  154.7960 C   0  0  0  0  0  0  0  0  0  0  0  0
  1 13  2  0  0  0  0
  1 25  1  0  0  0  0
  2 11  1  0  0  0  0
  3 10  1  0  0  0  0
  3  5  2  0  0  0  0
  4  8  1  6  0  0  0
  4  6  1  0  0  0  0
  5  8  1  0  0  0  0
  6 13  1  0  0  0  0
  7  2  2  0  0  0  0
  8 14  2  0  0  0  0
  9 17  1  0  0  0  0
 12 16  2  0  0  0  0
 12  9  1  0  0  0  0
 13 28  1  0  0  0  0
 14  1  1  0  0  0  0
 15 10  1  6  0  0  0
 15  9  1  0  0  0  0
 15  4  1  0  0  0  0
 16  7  1  0  0  0  0
 17  6  1  0  0  0  0
 17 11  2  0  0  0  0
 18 20  1  0  0  0  0
 18 23  1  0  0  0  0
 20 24  1  0  0  0  0
 21 19  1  0  0  0  0
 23 22  1  6  0  0  0
 23 21  1  0  0  0  0
 24  7  1  0  0  0  0
 24 19  1  0  0  0  0
 26 25  1  0  0  0  0
 28 27  2  0  0  0  0
 28 36  1  0  0  0  0
 29 35  1  0  0  0  0
 29 34  1  0  0  0  0
 30 29  2  0  0  0  0
 31 32  1  0  0  0  0
 32 35  2  0  0  0  0
 33 30  1  0  0  0  0
 36 31  2  0  0  0  0
 36 30  1  0  0  0  0
M  END
>  <MODEL>
1

>  <REMARK>
 VINA RESULT:      -7.0      0.000      0.000
  Name = 
  4 active torsions:
  status: ('A' for Active; 'I' for Inactive)
    1  A    between atoms: C_2  and  N_16
    2  A    between atoms: C_12  and  N_35
    3  A    between atoms: C_26  and  C_29
    4  A    between atoms: C_29  and  C_31
                            x       y       z     vdW  Elec       q    Type
                         _______ _______ _______ _____ _____    ______ ____

>  <TORSDO>
F 4

$$$$
=
 OpenBabel11072413333D

 36 41  0  0  1  0  0  0  0  0999 V2000
  160.2420  210.0060  153.2280 C   0  0  0  0  0  0  0  0  0  0  0  0
  161.2670  212.3840  148.0450 C   0  0  0  0  0  3  0  0  0  0  0  0
  157.1300  213.6450  153.2110 C   0  0  0  0  0  3  0  0  0  0  0  0
  159.7670  212.7630  152.6310 C   0  0  2  0  0  3  0  0  0  0  0  0
  157.6060  212.6430  153.9020 N   0  0  0  0  0  0  0  0  0  0  0  0
  160.5650  211.9000  151.7770 N   0  0  0  0  0  0  0  0  0  0  0  0
  160.5010  213.2510  147.3700 C   0  0  0  0  0  0  0  0  0  0  0  0
  158.8070  211.9850  153.4750 C   0  0  0  0  0  0  0  0  0  0  0  0
  159.5550  213.5090  150.3530 N   0  0  0  0  0  0  0  0  0  0  0  0
  157.7810  214.0690  151.9450 C   0  0  0  0  0  2  0  0  0  0  0  0
  161.2140  211.9450  149.4430 C   0  0  0  0  0  3  0  0  0  0  0  0
  158.9290  214.0790  149.2010 C   0  0  0  0  0  3  0  0  0  0  0  0
  160.9230  210.5640  152.1890 C   0  0  0  0  0  0  0  0  0  0  0  0
  159.0710  210.7170  153.7990 C   0  0  0  0  0  3  0  0  0  0  0  0
  159.0120  213.6120  151.6680 C   0  0  1  0  0  3  0  0  0  0  0  0
  159.3410  213.9650  147.9420 C   0  0  0  0  0  3  0  0  0  0  0  0
  160.4750  212.4210  150.4410 C   0  0  0  0  0  0  0  0  0  0  0  0
  160.3400  212.4310  143.8110 C   0  0  0  0  0  2  0  0  0  0  0  0
  162.1040  213.9880  145.5550 C   0  0  0  0  0  2  0  0  0  0  0  0
  159.7840  213.3020  144.9320 C   0  0  0  0  0  2  0  0  0  0  0  0
  162.6660  213.1170  144.4360 C   0  0  0  0  0  2  0  0  0  0  0  0
  162.2100  212.1230  142.2070 C   0  0  0  0  0  1  0  0  0  0  0  0
  161.6540  213.0130  143.2970 C   0  0  1  0  0  3  0  0  0  0  0  0
  160.7990  213.4770  145.9750 N   0  0  0  0  0  0  0  0  0  0  0  0
  160.5580  208.7210  153.7840 N   0  0  0  0  0  2  0  0  0  0  0  0
  161.3290  208.5490  154.8820 O   0  0  0  0  0  1  0  0  0  0  0  0
  163.1480  210.3630  151.4540 O   0  0  0  0  0  0  0  0  0  0  0  0
  161.9970  209.8510  151.4670 C   0  0  0  0  0  0  0  0  0  0  0  0
  161.7130  207.3060  148.6460 C   0  0  0  0  0  0  0  0  0  0  0  0
  161.9950  208.4960  149.3300 C   0  0  0  0  0  0  0  0  0  0  0  0
  161.1620  207.4990  151.3760 C   0  0  0  0  0  3  0  0  0  0  0  0
  160.8810  206.3170  150.6900 C   0  0  0  0  0  3  0  0  0  0  0  0
  162.5430  209.5300  148.6430 F   0  0  0  0  0  0  0  0  0  0  0  0
  161.9770  207.2020  147.3210 F   0  0  0  0  0  0  0  0  0  0  0  0
  161.1560  206.2200  149.3260 C   0  0  0  0  0  3  0  0  0  0  0  0
  161.7230  208.6020  150.7110 C   0  0  0  0  0  0  0  0  0  0  0  0
  1 25  1  0  0  0  0
  1 14  1  0  0  0  0
  2 11  1  0  0  0  0
  3  5  2  0  0  0  0
  4  8  1  6  0  0  0
  6 13  1  0  0  0  0
  6  4  1  0  0  0  0
  7 16  1  0  0  0  0
  7  2  2  0  0  0  0
  8 14  2  0  0  0  0
  8  5  1  0  0  0  0
  9 17  1  0  0  0  0
  9 15  1  0  0  0  0
 10  3  1  0  0  0  0
 11 17  2  0  0  0  0
 12  9  1  0  0  0  0
 13  1  2  0  0  0  0
 15 10  1  6  0  0  0
 15  4  1  0  0  0  0
 16 12  2  0  0  0  0
 17  6  1  0  0  0  0
 18 20  1  0  0  0  0
 19 24  1  0  0  0  0
 20 24  1  0  0  0  0
 21 19  1  0  0  0  0
 23 22  1  6  0  0  0
 23 18  1  0  0  0  0
 23 21  1  0  0  0  0
 24  7  1  0  0  0  0
 25 26  1  0  0  0  0
 27 28  2  0  0  0  0
 28 13  1  0  0  0  0
 29 35  2  0  0  0  0
 29 30  1  0  0  0  0
 30 36  2  0  0  0  0
 32 31  2  0  0  0  0
 33 30  1  0  0  0  0
 34 29  1  0  0  0  0
 35 32  1  0  0  0  0
 36 31  1  0  0  0  0
 36 28  1  0  0  0  0
M  END
>  <MODEL>
2

>  <REMARK>
 VINA RESULT:      -6.4      3.204      7.151
  Name = 
  4 active torsions:
  status: ('A' for Active; 'I' for Inactive)
    1  A    between atoms: C_2  and  N_16
    2  A    between atoms: C_12  and  N_35
    3  A    between atoms: C_26  and  C_29
    4  A    between atoms: C_29  and  C_31
                            x       y       z     vdW  Elec       q    Type
                         _______ _______ _______ _____ _____    ______ ____

>  <TORSDO>
F 4

$$$$
=
 OpenBabel11072413333D

 36 41  0  0  1  0  0  0  0  0999 V2000
  159.7830  209.7990  155.2820 C   0  0  0  0  0  0  0  0  0  0  0  0
  160.4270  212.7000  150.3080 C   0  0  0  0  0  3  0  0  0  0  0  0
  155.9910  212.7210  155.3770 C   0  0  0  0  0  3  0  0  0  0  0  0
  158.7660  212.4370  154.8460 C   0  0  2  0  0  3  0  0  0  0  0  0
  156.6450  211.7900  156.0200 N   0  0  0  0  0  0  0  0  0  0  0  0
  159.7460  211.8190  153.9700 N   0  0  0  0  0  0  0  0  0  0  0  0
  159.5170  213.4400  149.6600 C   0  0  0  0  0  0  0  0  0  0  0  0
  157.9660  211.4220  155.6000 C   0  0  0  0  0  0  0  0  0  0  0  0
  158.4630  213.2860  152.6140 N   0  0  0  0  0  0  0  0  0  0  0  0
  156.5730  213.3580  154.1680 C   0  0  0  0  0  2  0  0  0  0  0  0
  160.4310  212.1610  151.6710 C   0  0  0  0  0  3  0  0  0  0  0  0
  157.7630  213.7970  151.4780 C   0  0  0  0  0  3  0  0  0  0  0  0
  160.3610  210.5570  154.3090 C   0  0  0  0  0  0  0  0  0  0  0  0
  158.4770  210.2150  155.8510 C   0  0  0  0  0  3  0  0  0  0  0  0
  157.8770  213.1820  153.9110 C   0  0  1  0  0  3  0  0  0  0  0  0
  158.2210  213.8590  150.2310 C   0  0  0  0  0  3  0  0  0  0  0  0
  159.5850  212.4040  152.6680 C   0  0  0  0  0  0  0  0  0  0  0  0
  158.9930  213.2960  146.0450 C   0  0  0  0  0  2  0  0  0  0  0  0
  161.1690  214.0690  147.8480 C   0  0  0  0  0  2  0  0  0  0  0  0
  158.7250  214.0720  147.3300 C   0  0  0  0  0  2  0  0  0  0  0  0
  161.4430  213.2910  146.5650 C   0  0  0  0  0  2  0  0  0  0  0  0
  160.6510  212.8260  144.2580 C   0  0  0  0  0  1  0  0  0  0  0  0
  160.3860  213.6260  145.5150 C   0  0  1  0  0  3  0  0  0  0  0  0
  159.7980  213.8200  148.2960 N   0  0  0  0  0  0  0  0  0  0  0  0
  160.3430  208.5700  155.7650 N   0  0  0  0  0  2  0  0  0  0  0  0
  159.6000  207.4920  156.1080 O   0  0  0  0  0  1  0  0  0  0  0  0
  162.6590  210.7240  153.8370 O   0  0  0  0  0  0  0  0  0  0  0  0
  161.5760  210.1310  153.5850 C   0  0  0  0  0  0  0  0  0  0  0  0
  162.0000  208.2810  150.2810 C   0  0  0  0  0  0  0  0  0  0  0  0
  162.0800  209.2880  151.2530 C   0  0  0  0  0  0  0  0  0  0  0  0
  160.8860  207.8600  152.8060 C   0  0  0  0  0  3  0  0  0  0  0  0
  160.8080  206.8620  151.8340 C   0  0  0  0  0  3  0  0  0  0  0  0
  162.7110  210.4480  150.9420 F   0  0  0  0  0  0  0  0  0  0  0  0
  162.5390  208.4760  149.0530 F   0  0  0  0  0  0  0  0  0  0  0  0
  161.3650  207.0720  150.5720 C   0  0  0  0  0  3  0  0  0  0  0  0
  161.5230  209.0830  152.5330 C   0  0  0  0  0  0  0  0  0  0  0  0
  1 25  1  0  0  0  0
  1 14  1  0  0  0  0
  2 11  1  0  0  0  0
  3  5  2  0  0  0  0
  4  8  1  6  0  0  0
  6 13  1  0  0  0  0
  6  4  1  0  0  0  0
  7 16  1  0  0  0  0
  7  2  2  0  0  0  0
  8 14  2  0  0  0  0
  8  5  1  0  0  0  0
  9 17  1  0  0  0  0
  9 15  1  0  0  0  0
 10  3  1  0  0  0  0
 11 17  2  0  0  0  0
 12  9  1  0  0  0  0
 13  1  2  0  0  0  0
 15 10  1  6  0  0  0
 15  4  1  0  0  0  0
 16 12  2  0  0  0  0
 17  6  1  0  0  0  0
 18 20  1  0  0  0  0
 19 24  1  0  0  0  0
 20 24  1  0  0  0  0
 21 19  1  0  0  0  0
 23 22  1  6  0  0  0
 23 18  1  0  0  0  0
 23 21  1  0  0  0  0
 24  7  1  0  0  0  0
 25 26  1  0  0  0  0
 28 27  2  0  0  0  0
 28 13  1  0  0  0  0
 29 35  2  0  0  0  0
 29 30  1  0  0  0  0
 30 36  2  0  0  0  0
 32 31  2  0  0  0  0
 33 30  1  0  0  0  0
 34 29  1  0  0  0  0
 35 32  1  0  0  0  0
 36 31  1  0  0  0  0
 36 28  1  0  0  0  0
M  END
>  <MODEL>
3

>  <REMARK>
 VINA RESULT:      -6.3      3.228      7.145
  Name = 
  4 active torsions:
  status: ('A' for Active; 'I' for Inactive)
    1  A    between atoms: C_2  and  N_16
    2  A    between atoms: C_12  and  N_35
    3  A    between atoms: C_26  and  C_29
    4  A    between atoms: C_29  and  C_31
                            x       y       z     vdW  Elec       q    Type
                         _______ _______ _______ _____ _____    ______ ____

>  <TORSDO>
F 4

$$$$
=
 OpenBabel11072413333D

 36 41  0  0  1  0  0  0  0  0999 V2000
  161.1960  206.4090  153.4210 C   0  0  0  0  0  0  0  0  0  0  0  0
  161.8730  210.6830  149.5690 C   0  0  0  0  0  3  0  0  0  0  0  0
  159.2350  210.1100  155.7410 C   0  0  0  0  0  3  0  0  0  0  0  0
  161.3850  209.1710  154.1400 C   0  0  2  0  0  3  0  0  0  0  0  0
  159.5380  208.8400  155.8070 N   0  0  0  0  0  0  0  0  0  0  0  0
  161.7530  208.6750  152.8250 N   0  0  0  0  0  0  0  0  0  0  0  0
  161.2620  211.8750  149.5430 C   0  0  0  0  0  0  0  0  0  0  0  0
  160.4190  208.2620  154.8340 C   0  0  0  0  0  0  0  0  0  0  0  0
  160.9750  210.8960  152.5130 N   0  0  0  0  0  0  0  0  0  0  0  0
  159.7370  210.9510  154.6240 C   0  0  0  0  0  2  0  0  0  0  0  0
  161.9570  209.6710  150.6260 C   0  0  0  0  0  3  0  0  0  0  0  0
  160.3300  212.0220  151.9130 C   0  0  0  0  0  3  0  0  0  0  0  0
  161.8040  207.2590  152.5480 C   0  0  0  0  0  0  0  0  0  0  0  0
  160.3850  206.9620  154.5330 C   0  0  0  0  0  3  0  0  0  0  0  0
  160.7270  210.4760  153.8540 C   0  0  1  0  0  3  0  0  0  0  0  0
  160.4600  212.4280  150.6540 C   0  0  0  0  0  3  0  0  0  0  0  0
  161.5670  209.7540  151.8940 C   0  0  0  0  0  0  0  0  0  0  0  0
  160.4680  212.6180  146.0530 C   0  0  0  0  0  2  0  0  0  0  0  0
  162.6140  213.2840  147.9320 C   0  0  0  0  0  2  0  0  0  0  0  0
  160.1740  212.9480  147.5120 C   0  0  0  0  0  2  0  0  0  0  0  0
  162.9130  212.9530  146.4740 C   0  0  0  0  0  2  0  0  0  0  0  0
  162.0260  212.9860  144.1550 C   0  0  0  0  0  1  0  0  0  0  0  0
  161.7280  213.3460  145.5940 C   0  0  1  0  0  3  0  0  0  0  0  0
  161.3530  212.6590  148.3340 N   0  0  0  0  0  0  0  0  0  0  0  0
  161.2480  204.9800  153.3010 N   0  0  0  0  0  2  0  0  0  0  0  0
  160.2370  204.2320  152.8000 O   0  0  0  0  0  1  0  0  0  0  0  0
  163.7460  206.9350  151.2610 O   0  0  0  0  0  0  0  0  0  0  0  0
  162.4960  206.7890  151.3300 C   0  0  0  0  0  0  0  0  0  0  0  0
  160.9030  204.3370  148.8870 C   0  0  0  0  0  0  0  0  0  0  0  0
  161.6110  204.8330  149.9910 C   0  0  0  0  0  0  0  0  0  0  0  0
  161.1580  207.0940  149.2440 C   0  0  0  0  0  3  0  0  0  0  0  0
  160.4560  206.5940  148.1460 C   0  0  0  0  0  3  0  0  0  0  0  0
  162.1510  203.9520  150.8710 F   0  0  0  0  0  0  0  0  0  0  0  0
  160.7730  203.0000  148.7060 F   0  0  0  0  0  0  0  0  0  0  0  0
  160.3280  205.2170  147.9680 C   0  0  0  0  0  3  0  0  0  0  0  0
  161.7420  206.2250  150.1810 C   0  0  0  0  0  0  0  0  0  0  0  0
  1 14  1  0  0  0  0
  2 11  1  0  0  0  0
  3  5  2  0  0  0  0
  4  8  1  6  0  0  0
  6  4  1  0  0  0  0
  7  2  2  0  0  0  0
  7 16  1  0  0  0  0
  8  5  1  0  0  0  0
  9 15  1  0  0  0  0
 10  3  1  0  0  0  0
 11 17  2  0  0  0  0
 12  9  1  0  0  0  0
 13  6  1  0  0  0  0
 13  1  2  0  0  0  0
 14  8  2  0  0  0  0
 15  4  1  0  0  0  0
 15 10  1  6  0  0  0
 16 12  2  0  0  0  0
 17  9  1  0  0  0  0
 17  6  1  0  0  0  0
 18 20  1  0  0  0  0
 19 24  1  0  0  0  0
 20 24  1  0  0  0  0
 21 19  1  0  0  0  0
 23 22  1  6  0  0  0
 23 18  1  0  0  0  0
 23 21  1  0  0  0  0
 24  7  1  0  0  0  0
 25  1  1  0  0  0  0
 26 25  1  0  0  0  0
 27 28  2  0  0  0  0
 28 13  1  0  0  0  0
 29 30  1  0  0  0  0
 30 36  2  0  0  0  0
 30 33  1  0  0  0  0
 31 36  1  0  0  0  0
 32 31  2  0  0  0  0
 34 29  1  0  0  0  0
 35 32  1  0  0  0  0
 35 29  2  0  0  0  0
 36 28  1  0  0  0  0
M  END
>  <MODEL>
4

>  <REMARK>
 VINA RESULT:      -5.4      2.961      7.505
  Name = 
  4 active torsions:
  status: ('A' for Active; 'I' for Inactive)
    1  A    between atoms: C_2  and  N_16
    2  A    between atoms: C_12  and  N_35
    3  A    between atoms: C_26  and  C_29
    4  A    between atoms: C_29  and  C_31
                            x       y       z     vdW  Elec       q    Type
                         _______ _______ _______ _____ _____    ______ ____

>  <TORSDO>
F 4

$$$$
=
 OpenBabel11072413333D

 36 41  0  0  1  0  0  0  0  0999 V2000
  160.1600  210.6100  152.6040 C   0  0  0  0  0  0  0  0  0  0  0  0
  161.6500  206.0370  149.3720 C   0  0  0  0  0  3  0  0  0  0  0  0
  161.2120  212.6920  148.4220 C   0  0  0  0  0  3  0  0  0  0  0  0
  161.9450  210.7630  150.3730 C   0  0  2  0  0  3  0  0  0  0  0  0
  160.8300  212.8940  149.6560 N   0  0  0  0  0  0  0  0  0  0  0  0
  161.5680  209.5040  150.9930 N   0  0  0  0  0  0  0  0  0  0  0  0
  161.7580  205.9690  148.0390 C   0  0  0  0  0  0  0  0  0  0  0  0
  160.9310  211.8350  150.6190 C   0  0  0  0  0  0  0  0  0  0  0  0
  161.9770  209.0310  148.7030 N   0  0  0  0  0  0  0  0  0  0  0  0
  161.6860  211.3530  147.9850 C   0  0  0  0  0  2  0  0  0  0  0  0
  161.5380  207.1920  150.2680 C   0  0  0  0  0  3  0  0  0  0  0  0
  161.8420  208.4400  147.4080 C   0  0  0  0  0  3  0  0  0  0  0  0
  160.8010  209.4720  152.2160 C   0  0  0  0  0  0  0  0  0  0  0  0
  160.1470  211.7850  151.6980 C   0  0  0  0  0  3  0  0  0  0  0  0
  161.9910  210.4410  148.9200 C   0  0  1  0  0  3  0  0  0  0  0  0
  161.7520  207.1410  147.1390 C   0  0  0  0  0  3  0  0  0  0  0  0
  161.6720  208.4840  149.9860 C   0  0  0  0  0  0  0  0  0  0  0  0
  161.3460  203.6060  145.2800 C   0  0  0  0  0  2  0  0  0  0  0  0
  161.5550  203.4510  148.1980 C   0  0  0  0  0  2  0  0  0  0  0  0
  162.3230  204.4840  146.0560 C   0  0  0  0  0  2  0  0  0  0  0  0
  160.5750  202.5730  147.4260 C   0  0  0  0  0  2  0  0  0  0  0  0
  160.1190  201.4480  145.2610 C   0  0  0  0  0  1  0  0  0  0  0  0
  161.1130  202.2950  146.0250 C   0  0  1  0  0  3  0  0  0  0  0  0
  161.8450  204.6630  147.4300 N   0  0  0  0  0  0  0  0  0  0  0  0
  159.4370  210.7290  153.8370 N   0  0  0  0  0  2  0  0  0  0  0  0
  159.3730  211.8700  154.5610 O   0  0  0  0  0  1  0  0  0  0  0  0
  160.4590  207.1500  152.3680 O   0  0  0  0  0  0  0  0  0  0  0  0
  160.7280  208.2140  152.9870 C   0  0  0  0  0  0  0  0  0  0  0  0
  161.9360  209.0140  156.5110 C   0  0  0  0  0  0  0  0  0  0  0  0
  161.7990  209.0630  155.1170 C   0  0  0  0  0  0  0  0  0  0  0  0
  160.1400  207.3000  155.2350 C   0  0  0  0  0  3  0  0  0  0  0  0
  160.2820  207.2550  156.6230 C   0  0  0  0  0  3  0  0  0  0  0  0
  162.5430  209.9570  154.4180 F   0  0  0  0  0  0  0  0  0  0  0  0
  162.8050  209.8440  157.1390 F   0  0  0  0  0  0  0  0  0  0  0  0
  161.1790  208.1120  157.2600 C   0  0  0  0  0  3  0  0  0  0  0  0
  160.8920  208.2020  154.4640 C   0  0  0  0  0  0  0  0  0  0  0  0
  1 25  1  0  0  0  0
  2 11  1  0  0  0  0
  3  5  2  0  0  0  0
  4  8  1  6  0  0  0
  4  6  1  0  0  0  0
  5  8  1  0  0  0  0
  6 13  1  0  0  0  0
  7  2  2  0  0  0  0
  8 14  2  0  0  0  0
  9 15  1  0  0  0  0
  9 17  1  0  0  0  0
 10  3  1  0  0  0  0
 12  9  1  0  0  0  0
 13  1  2  0  0  0  0
 13 28  1  0  0  0  0
 14  1  1  0  0  0  0
 15 10  1  6  0  0  0
 15  4  1  0  0  0  0
 16 12  2  0  0  0  0
 16  7  1  0  0  0  0
 17 11  2  0  0  0  0
 17  6  1  0  0  0  0
 18 23  1  0  0  0  0
 18 20  1  0  0  0  0
 20 24  1  0  0  0  0
 21 19  1  0  0  0  0
 23 22  1  6  0  0  0
 23 21  1  0  0  0  0
 24  7  1  0  0  0  0
 24 19  1  0  0  0  0
 25 26  1  0  0  0  0
 27 28  2  0  0  0  0
 28 36  1  0  0  0  0
 29 34  1  0  0  0  0
 29 35  1  0  0  0  0
 30 29  2  0  0  0  0
 31 32  1  0  0  0  0
 32 35  2  0  0  0  0
 33 30  1  0  0  0  0
 36 30  1  0  0  0  0
 36 31  2  0  0  0  0
M  END
>  <MODEL>
5

>  <REMARK>
 VINA RESULT:      -5.1      1.896      2.513
  Name = 
  4 active torsions:
  status: ('A' for Active; 'I' for Inactive)
    1  A    between atoms: C_2  and  N_16
    2  A    between atoms: C_12  and  N_35
    3  A    between atoms: C_26  and  C_29
    4  A    between atoms: C_29  and  C_31
                            x       y       z     vdW  Elec       q    Type
                         _______ _______ _______ _____ _____    ______ ____

>  <TORSDO>
F 4

$$$$
=
 OpenBabel11072413333D

 36 41  0  0  1  0  0  0  0  0999 V2000
  159.6370  212.6400  151.9650 C   0  0  0  0  0  0  0  0  0  0  0  0
  161.2330  207.1450  151.0560 C   0  0  0  0  0  3  0  0  0  0  0  0
  161.5770  212.9140  147.5960 C   0  0  0  0  0  3  0  0  0  0  0  0
  161.7840  211.8820  150.2330 C   0  0  2  0  0  3  0  0  0  0  0  0
  161.0090  213.5870  148.5620 N   0  0  0  0  0  0  0  0  0  0  0  0
  161.1930  210.9700  151.1970 N   0  0  0  0  0  0  0  0  0  0  0  0
  161.5630  206.5630  149.8960 C   0  0  0  0  0  0  0  0  0  0  0  0
  160.8460  212.9840  149.8540 C   0  0  0  0  0  0  0  0  0  0  0  0
  161.9440  209.6370  149.3820 N   0  0  0  0  0  0  0  0  0  0  0  0
  161.9940  211.5030  147.7980 C   0  0  0  0  0  2  0  0  0  0  0  0
  161.0760  208.5590  151.4090 C   0  0  0  0  0  3  0  0  0  0  0  0
  161.9800  208.5920  148.4070 C   0  0  0  0  0  3  0  0  0  0  0  0
  160.2270  211.4300  152.1670 C   0  0  0  0  0  0  0  0  0  0  0  0
  159.8870  213.3710  150.6980 C   0  0  0  0  0  3  0  0  0  0  0  0
  162.0490  211.0200  149.0480 C   0  0  1  0  0  3  0  0  0  0  0  0
  161.8190  207.2920  148.6370 C   0  0  0  0  0  3  0  0  0  0  0  0
  161.3740  209.6380  150.6910 C   0  0  0  0  0  0  0  0  0  0  0  0
  160.8250  203.2860  148.4520 C   0  0  0  0  0  2  0  0  0  0  0  0
  161.5800  204.3280  151.0840 C   0  0  0  0  0  2  0  0  0  0  0  0
  161.8600  204.3960  148.6020 C   0  0  0  0  0  2  0  0  0  0  0  0
  160.5430  203.2190  150.9400 C   0  0  0  0  0  2  0  0  0  0  0  0
  159.7800  201.3150  149.5410 C   0  0  0  0  0  1  0  0  0  0  0  0
  160.8320  202.3920  149.6890 C   0  0  1  0  0  3  0  0  0  0  0  0
  161.6330  205.1210  149.8550 N   0  0  0  0  0  0  0  0  0  0  0  0
  158.7260  213.2420  152.8960 N   0  0  0  0  0  2  0  0  0  0  0  0
  157.4810  213.6570  152.5660 O   0  0  0  0  0  1  0  0  0  0  0  0
  159.7110  209.3440  153.1240 O   0  0  0  0  0  0  0  0  0  0  0  0
  159.9080  210.5720  153.3270 C   0  0  0  0  0  0  0  0  0  0  0  0
  158.3650  211.8200  156.5790 C   0  0  0  0  0  0  0  0  0  0  0  0
  158.4800  211.2670  155.2970 C   0  0  0  0  0  0  0  0  0  0  0  0
  160.8800  211.5880  155.3910 C   0  0  0  0  0  3  0  0  0  0  0  0
  160.7600  212.1400  156.6670 C   0  0  0  0  0  3  0  0  0  0  0  0
  157.3560  210.8450  154.6640 F   0  0  0  0  0  0  0  0  0  0  0  0
  157.1480  211.9370  157.1640 F   0  0  0  0  0  0  0  0  0  0  0  0
  159.5030  212.2560  157.2610 C   0  0  0  0  0  3  0  0  0  0  0  0
  159.7470  211.1420  154.6900 C   0  0  0  0  0  0  0  0  0  0  0  0
  1 13  2  0  0  0  0
  1 25  1  0  0  0  0
  2 11  1  0  0  0  0
  3 10  1  0  0  0  0
  3  5  2  0  0  0  0
  4  8  1  6  0  0  0
  4  6  1  0  0  0  0
  5  8  1  0  0  0  0
  6 13  1  0  0  0  0
  7  2  2  0  0  0  0
  8 14  2  0  0  0  0
  9 17  1  0  0  0  0
 12 16  2  0  0  0  0
 12  9  1  0  0  0  0
 13 28  1  0  0  0  0
 14  1  1  0  0  0  0
 15 10  1  6  0  0  0
 15  9  1  0  0  0  0
 15  4  1  0  0  0  0
 16  7  1  0  0  0  0
 17  6  1  0  0  0  0
 17 11  2  0  0  0  0
 18 20  1  0  0  0  0
 18 23  1  0  0  0  0
 20 24  1  0  0  0  0
 21 19  1  0  0  0  0
 23 22  1  6  0  0  0
 23 21  1  0  0  0  0
 24  7  1  0  0  0  0
 24 19  1  0  0  0  0
 26 25  1  0  0  0  0
 27 28  2  0  0  0  0
 28 36  1  0  0  0  0
 29 34  1  0  0  0  0
 29 35  1  0  0  0  0
 30 29  2  0  0  0  0
 31 32  1  0  0  0  0
 32 35  2  0  0  0  0
 33 30  1  0  0  0  0
 36 30  1  0  0  0  0
 36 31  2  0  0  0  0
M  END
>  <MODEL>
6

>  <REMARK>
 VINA RESULT:      -4.9      1.606      1.840
  Name = 
  4 active torsions:
  status: ('A' for Active; 'I' for Inactive)
    1  A    between atoms: C_2  and  N_16
    2  A    between atoms: C_12  and  N_35
    3  A    between atoms: C_26  and  C_29
    4  A    between atoms: C_29  and  C_31
                            x       y       z     vdW  Elec       q    Type
                         _______ _______ _______ _____ _____    ______ ____

>  <TORSDO>
F 4

$$$$
=
 OpenBabel11072413333D

 36 41  0  0  1  0  0  0  0  0999 V2000
  161.3880  204.2400  149.8010 C   0  0  0  0  0  0  0  0  0  0  0  0
  162.3020  209.7530  148.2720 C   0  0  0  0  0  3  0  0  0  0  0  0
  160.7020  206.5150  153.9580 C   0  0  0  0  0  3  0  0  0  0  0  0
  162.2900  206.2570  151.6180 C   0  0  2  0  0  3  0  0  0  0  0  0
  160.7300  205.3510  153.3630 N   0  0  0  0  0  0  0  0  0  0  0  0
  162.3110  206.4330  150.1760 N   0  0  0  0  0  0  0  0  0  0  0  0
  161.9670  210.8620  148.9450 C   0  0  0  0  0  0  0  0  0  0  0  0
  161.2850  205.2340  152.0450 C   0  0  0  0  0  0  0  0  0  0  0  0
  161.9900  208.5910  151.1120 N   0  0  0  0  0  0  0  0  0  0  0  0
  161.1740  207.7360  153.2570 C   0  0  0  0  0  2  0  0  0  0  0  0
  162.3450  208.3510  148.6960 C   0  0  0  0  0  3  0  0  0  0  0  0
  161.5110  209.9280  151.2740 C   0  0  0  0  0  3  0  0  0  0  0  0
  162.0060  205.3380  149.2850 C   0  0  0  0  0  0  0  0  0  0  0  0
  160.9190  204.2610  151.2090 C   0  0  0  0  0  3  0  0  0  0  0  0
  161.8910  207.5970  152.1310 C   0  0  1  0  0  3  0  0  0  0  0  0
  161.5080  210.8820  150.3480 C   0  0  0  0  0  3  0  0  0  0  0  0
  162.2050  207.8420  149.9160 C   0  0  0  0  0  0  0  0  0  0  0  0
  160.5590  213.4950  146.8350 C   0  0  0  0  0  2  0  0  0  0  0  0
  163.2390  212.5640  147.5680 C   0  0  0  0  0  2  0  0  0  0  0  0
  160.8890  213.0590  148.2590 C   0  0  0  0  0  2  0  0  0  0  0  0
  162.9140  212.9990  146.1420 C   0  0  0  0  0  2  0  0  0  0  0  0
  161.4750  214.4510  144.7350 C   0  0  0  0  0  1  0  0  0  0  0  0
  161.8080  214.0510  146.1550 C   0  0  1  0  0  3  0  0  0  0  0  0
  162.0170  212.1230  148.2430 N   0  0  0  0  0  0  0  0  0  0  0  0
  161.1080  203.0570  149.0380 N   0  0  0  0  0  2  0  0  0  0  0  0
  160.6600  201.9020  149.5830 O   0  0  0  0  0  1  0  0  0  0  0  0
  163.5160  205.8610  147.5590 O   0  0  0  0  0  0  0  0  0  0  0  0
  162.3600  205.4540  147.8550 C   0  0  0  0  0  0  0  0  0  0  0  0
  160.3640  203.6920  145.1310 C   0  0  0  0  0  0  0  0  0  0  0  0
  161.3060  203.9180  146.1430 C   0  0  0  0  0  0  0  0  0  0  0  0
  160.4760  206.1820  146.3870 C   0  0  0  0  0  3  0  0  0  0  0  0
  159.5410  205.9520  145.3770 C   0  0  0  0  0  3  0  0  0  0  0  0
  162.1400  202.9080  146.4970 F   0  0  0  0  0  0  0  0  0  0  0  0
  160.3010  202.4860  144.5150 F   0  0  0  0  0  0  0  0  0  0  0  0
  159.4850  204.7080  144.7490 C   0  0  0  0  0  3  0  0  0  0  0  0
  161.3670  205.1720  146.7870 C   0  0  0  0  0  0  0  0  0  0  0  0
  1 14  1  0  0  0  0
  2 11  1  0  0  0  0
  2  7  2  0  0  0  0
  4  8  1  6  0  0  0
  4 15  1  0  0  0  0
  5  3  2  0  0  0  0
  6  4  1  0  0  0  0
  7 16  1  0  0  0  0
  8  5  1  0  0  0  0
  9 12  1  0  0  0  0
  9 15  1  0  0  0  0
 10  3  1  0  0  0  0
 11 17  2  0  0  0  0
 13  1  2  0  0  0  0
 13  6  1  0  0  0  0
 14  8  2  0  0  0  0
 15 10  1  6  0  0  0
 16 12  2  0  0  0  0
 17  6  1  0  0  0  0
 17  9  1  0  0  0  0
 18 20  1  0  0  0  0
 19 24  1  0  0  0  0
 21 23  1  0  0  0  0
 21 19  1  0  0  0  0
 23 22  1  6  0  0  0
 23 18  1  0  0  0  0
 24 20  1  0  0  0  0
 24  7  1  0  0  0  0
 25 26  1  0  0  0  0
 25  1  1  0  0  0  0
 27 28  2  0  0  0  0
 28 13  1  0  0  0  0
 29 30  1  0  0  0  0
 30 33  1  0  0  0  0
 30 36  2  0  0  0  0
 31 36  1  0  0  0  0
 32 31  2  0  0  0  0
 34 29  1  0  0  0  0
 35 29  2  0  0  0  0
 35 32  1  0  0  0  0
 36 28  1  0  0  0  0
M  END
>  <MODEL>
7

>  <REMARK>
 VINA RESULT:      -4.9      4.228      9.032
  Name = 
  4 active torsions:
  status: ('A' for Active; 'I' for Inactive)
    1  A    between atoms: C_2  and  N_16
    2  A    between atoms: C_12  and  N_35
    3  A    between atoms: C_26  and  C_29
    4  A    between atoms: C_29  and  C_31
                            x       y       z     vdW  Elec       q    Type
                         _______ _______ _______ _____ _____    ______ ____

>  <TORSDO>
F 4

$$$$
=
 OpenBabel11072413333D

 36 41  0  0  1  0  0  0  0  0999 V2000
  161.3030  211.4070  148.5530 C   0  0  0  0  0  0  0  0  0  0  0  0
  158.9940  212.8530  153.6670 C   0  0  0  0  0  3  0  0  0  0  0  0
  162.2230  207.4980  151.1620 C   0  0  0  0  0  3  0  0  0  0  0  0
  162.1950  210.3360  151.0520 C   0  0  2  0  0  3  0  0  0  0  0  0
  162.3640  208.0670  149.9930 N   0  0  0  0  0  0  0  0  0  0  0  0
  161.3420  211.5080  150.9590 N   0  0  0  0  0  0  0  0  0  0  0  0
  158.6920  212.0470  154.6930 C   0  0  0  0  0  0  0  0  0  0  0  0
  162.0870  209.4660  149.8390 C   0  0  0  0  0  0  0  0  0  0  0  0
  160.7900  210.4340  153.0040 N   0  0  0  0  0  0  0  0  0  0  0  0
  161.7100  208.2700  152.3220 C   0  0  0  0  0  2  0  0  0  0  0  0
  159.8030  212.6170  152.4680 C   0  0  0  0  0  3  0  0  0  0  0  0
  160.0090  209.9460  154.0960 C   0  0  0  0  0  3  0  0  0  0  0  0
  161.0460  212.1200  149.6850 C   0  0  0  0  0  0  0  0  0  0  0  0
  161.7300  209.9900  148.6650 C   0  0  0  0  0  3  0  0  0  0  0  0
  161.6670  209.6080  152.2390 C   0  0  1  0  0  3  0  0  0  0  0  0
  159.1240  210.6390  154.8060 C   0  0  0  0  0  3  0  0  0  0  0  0
  160.5750  211.5750  152.1720 C   0  0  0  0  0  0  0  0  0  0  0  0
  155.7880  211.9660  156.9140 C   0  0  0  0  0  2  0  0  0  0  0  0
  157.6120  214.0090  155.8720 C   0  0  0  0  0  2  0  0  0  0  0  0
  157.2850  211.7050  156.7820 C   0  0  0  0  0  2  0  0  0  0  0  0
  156.1150  214.2750  156.0010 C   0  0  0  0  0  2  0  0  0  0  0  0
  154.0450  213.7030  157.2460 C   0  0  0  0  0  1  0  0  0  0  0  0
  155.5340  213.4530  157.1490 C   0  0  1  0  0  3  0  0  0  0  0  0
  157.8510  212.5710  155.7440 N   0  0  0  0  0  0  0  0  0  0  0  0
  161.1310  211.9340  147.2300 N   0  0  0  0  0  2  0  0  0  0  0  0
  162.0830  212.6390  146.5750 O   0  0  0  0  0  1  0  0  0  0  0  0
  161.2180  214.4510  149.9490 O   0  0  0  0  0  0  0  0  0  0  0  0
  160.4690  213.4790  149.6560 C   0  0  0  0  0  0  0  0  0  0  0  0
  157.2090  214.1920  147.8180 C   0  0  0  0  0  0  0  0  0  0  0  0
  158.5730  213.9740  148.0550 C   0  0  0  0  0  0  0  0  0  0  0  0
  158.0970  213.6650  150.4110 C   0  0  0  0  0  3  0  0  0  0  0  0
  156.7400  213.8850  150.1690 C   0  0  0  0  0  3  0  0  0  0  0  0
  159.4340  214.0150  147.0070 F   0  0  0  0  0  0  0  0  0  0  0  0
  156.7690  214.4480  146.5620 F   0  0  0  0  0  0  0  0  0  0  0  0
  156.2960  214.1480  148.8730 C   0  0  0  0  0  3  0  0  0  0  0  0
  159.0300  213.7030  149.3620 C   0  0  0  0  0  0  0  0  0  0  0  0
  1 14  1  0  0  0  0
  1 13  2  0  0  0  0
  2  7  2  0  0  0  0
  3 10  1  0  0  0  0
  4  8  1  6  0  0  0
  4 15  1  0  0  0  0
  5  3  2  0  0  0  0
  6  4  1  0  0  0  0
  6 17  1  0  0  0  0
  7 16  1  0  0  0  0
  7 24  1  0  0  0  0
  8  5  1  0  0  0  0
  9 12  1  0  0  0  0
 11  2  1  0  0  0  0
 12 16  2  0  0  0  0
 13  6  1  0  0  0  0
 14  8  2  0  0  0  0
 15 10  1  6  0  0  0
 15  9  1  0  0  0  0
 17 11  2  0  0  0  0
 17  9  1  0  0  0  0
 18 23  1  0  0  0  0
 19 21  1  0  0  0  0
 20 18  1  0  0  0  0
 21 23  1  0  0  0  0
 23 22  1  6  0  0  0
 24 19  1  0  0  0  0
 24 20  1  0  0  0  0
 25  1  1  0  0  0  0
 26 25  1  0  0  0  0
 28 13  1  0  0  0  0
 28 27  2  0  0  0  0
 29 30  2  0  0  0  0
 29 35  1  0  0  0  0
 30 36  1  0  0  0  0
 32 31  1  0  0  0  0
 33 30  1  0  0  0  0
 34 29  1  0  0  0  0
 35 32  2  0  0  0  0
 36 28  1  0  0  0  0
 36 31  2  0  0  0  0
M  END
>  <MODEL>
8

>  <REMARK>
 VINA RESULT:      -4.3      4.113      8.374
  Name = 
  4 active torsions:
  status: ('A' for Active; 'I' for Inactive)
    1  A    between atoms: C_2  and  N_16
    2  A    between atoms: C_12  and  N_35
    3  A    between atoms: C_26  and  C_29
    4  A    between atoms: C_29  and  C_31
                            x       y       z     vdW  Elec       q    Type
                         _______ _______ _______ _____ _____    ______ ____

>  <TORSDO>
F 4

$$$$
=
 OpenBabel11072413333D

 36 41  0  0  1  0  0  0  0  0999 V2000
  160.7080  211.1800  155.0680 C   0  0  0  0  0  0  0  0  0  0  0  0
  161.2150  207.8390  150.3610 C   0  0  0  0  0  3  0  0  0  0  0  0
  161.0540  206.8210  157.0180 C   0  0  0  0  0  3  0  0  0  0  0  0
  159.9070  208.4350  154.9830 C   0  0  2  0  0  3  0  0  0  0  0  0
  160.9040  208.0970  157.2610 N   0  0  0  0  0  0  0  0  0  0  0  0
  160.1890  209.2080  153.7860 N   0  0  0  0  0  0  0  0  0  0  0  0
  161.6340  206.5680  150.2930 C   0  0  0  0  0  0  0  0  0  0  0  0
  160.5910  208.9970  156.1890 C   0  0  0  0  0  0  0  0  0  0  0  0
  160.7560  206.9580  153.2820 N   0  0  0  0  0  0  0  0  0  0  0  0
  160.9740  206.2990  155.6300 C   0  0  0  0  0  2  0  0  0  0  0  0
  160.8140  208.6560  151.5100 C   0  0  0  0  0  3  0  0  0  0  0  0
  161.4550  205.8400  152.7310 C   0  0  0  0  0  3  0  0  0  0  0  0
  160.4290  210.6300  153.8530 C   0  0  0  0  0  0  0  0  0  0  0  0
  160.9030  210.2940  156.2420 C   0  0  0  0  0  3  0  0  0  0  0  0
  160.4650  207.0890  154.6730 C   0  0  1  0  0  3  0  0  0  0  0  0
  161.8200  205.6850  151.4620 C   0  0  0  0  0  3  0  0  0  0  0  0
  160.6210  208.2850  152.7720 C   0  0  0  0  0  0  0  0  0  0  0  0
  161.5720  206.5600  146.6370 C   0  0  0  0  0  2  0  0  0  0  0  0
  162.0080  204.5890  148.7600 C   0  0  0  0  0  2  0  0  0  0  0  0
  162.3790  206.8990  147.8860 C   0  0  0  0  0  2  0  0  0  0  0  0
  161.1990  204.2440  147.5140 C   0  0  0  0  0  2  0  0  0  0  0  0
  160.8590  204.7410  145.1050 C   0  0  0  0  0  1  0  0  0  0  0  0
  161.6890  205.0700  146.3270 C   0  0  1  0  0  3  0  0  0  0  0  0
  161.9680  206.0330  148.9940 N   0  0  0  0  0  0  0  0  0  0  0  0
  160.8810  212.5880  155.2780 N   0  0  0  0  0  2  0  0  0  0  0  0
  160.0750  213.3330  156.0700 O   0  0  0  0  0  1  0  0  0  0  0  0
  161.2970  211.2780  151.7650 O   0  0  0  0  0  0  0  0  0  0  0  0
  160.3750  211.4290  152.6110 C   0  0  0  0  0  0  0  0  0  0  0  0
  157.1040  213.3670  152.8500 C   0  0  0  0  0  0  0  0  0  0  0  0
  158.0910  212.4040  153.0970 C   0  0  0  0  0  0  0  0  0  0  0  0
  159.5060  213.4500  151.4300 C   0  0  0  0  0  3  0  0  0  0  0  0
  158.5180  214.4060  151.1870 C   0  0  0  0  0  3  0  0  0  0  0  0
  157.8560  211.4520  154.0360 F   0  0  0  0  0  0  0  0  0  0  0  0
  155.9340  213.3350  153.5350 F   0  0  0  0  0  0  0  0  0  0  0  0
  157.3180  214.3650  151.8970 C   0  0  0  0  0  3  0  0  0  0  0  0
  159.3100  212.4400  152.3870 C   0  0  0  0  0  0  0  0  0  0  0  0
  1 25  1  0  0  0  0
  1 14  1  0  0  0  0
  2 11  1  0  0  0  0
  3  5  2  0  0  0  0
  4  8  1  1  0  0  0
  6 13  1  0  0  0  0
  6  4  1  0  0  0  0
  7  2  2  0  0  0  0
  7 16  1  0  0  0  0
  8 14  2  0  0  0  0
  8  5  1  0  0  0  0
  9 15  1  0  0  0  0
 10  3  1  0  0  0  0
 11 17  2  0  0  0  0
 12  9  1  0  0  0  0
 13  1  2  0  0  0  0
 15  4  1  0  0  0  0
 15 10  1  1  0  0  0
 16 12  2  0  0  0  0
 17  9  1  0  0  0  0
 17  6  1  0  0  0  0
 18 20  1  0  0  0  0
 19 24  1  0  0  0  0
 20 24  1  0  0  0  0
 21 19  1  0  0  0  0
 23 22  1  6  0  0  0
 23 18  1  0  0  0  0
 23 21  1  0  0  0  0
 24  7  1  0  0  0  0
 25 26  1  0  0  0  0
 27 28  2  0  0  0  0
 28 13  1  0  0  0  0
 29 30  1  0  0  0  0
 29 34  1  0  0  0  0
 30 33  1  0  0  0  0
 31 36  1  0  0  0  0
 32 31  2  0  0  0  0
 32 35  1  0  0  0  0
 35 29  2  0  0  0  0
 36 28  1  0  0  0  0
 36 30  2  0  0  0  0
M  END
>  <MODEL>
9

>  <REMARK>
 VINA RESULT:      -4.3      2.747      5.360
  Name = 
  4 active torsions:
  status: ('A' for Active; 'I' for Inactive)
    1  A    between atoms: C_2  and  N_16
    2  A    between atoms: C_12  and  N_35
    3  A    between atoms: C_26  and  C_29
    4  A    between atoms: C_29  and  C_31
                            x       y       z     vdW  Elec       q    Type
                         _______ _______ _______ _____ _____    ______ ____

>  <TORSDO>
F 4

$$$$
