=
 OpenBabel11072414293D

 69 71  0  0  1  0  0  0  0  0999 V2000
  160.3410  207.9360  147.4690 C   0  0  0  0  0  2  0  0  0  0  0  0
  161.0870  207.0090  148.4350 C   0  0  2  0  0  3  0  0  0  0  0  0
  163.4200  207.1150  149.1030 O   0  0  0  0  0  0  0  0  0  0  0  0
  162.6120  208.6960  147.5910 N   0  0  0  0  0  2  0  0  0  0  0  0
  161.3350  208.9890  146.9680 C   0  0  2  0  0  3  0  0  0  0  0  0
  162.4660  207.5550  148.4080 C   0  0  0  0  0  0  0  0  0  0  0  0
  160.8800  210.4220  147.2680 C   0  0  0  0  0  2  0  0  0  0  0  0
  162.8040  211.8350  146.2600 C   0  0  0  0  0  2  0  0  0  0  0  0
  161.7590  212.8150  146.7740 C   0  0  0  0  0  2  0  0  0  0  0  0
  161.3330  211.4670  146.2330 C   0  0  0  0  0  0  0  0  0  0  0  0
  160.6970  211.5460  144.9770 O   0  0  0  0  0  0  0  0  0  0  0  0
  160.6960  214.4530  142.5260 C   0  0  0  0  0  2  0  0  0  0  0  0
  160.3690  213.0490  141.9880 C   0  0  2  0  0  3  0  0  0  0  0  0
  161.5770  212.2130  144.1110 C   0  0  1  0  0  3  0  0  0  0  0  0
  161.8810  214.4530  143.2820 O   0  0  0  0  0  0  0  0  0  0  0  0
  161.2020  211.9330  142.6510 C   0  0  0  0  0  2  0  0  0  0  0  0
  161.5840  213.7140  144.4330 C   0  0  0  0  0  2  0  0  0  0  0  0
  160.5250  213.0120  140.5000 C   0  0  0  0  0  0  0  0  0  0  0  0
  160.5150  211.7540  139.8050 N   0  0  0  0  0  0  0  0  0  0  0  0
  160.6380  214.0890  139.8540 O   0  0  0  0  0  0  0  0  0  0  0  0
  159.6150  209.7410  140.6020 O   0  0  0  0  0  0  0  0  0  0  0  0
  159.4120  210.8660  140.0670 C   0  0  0  0  0  0  0  0  0  0  0  0
  161.6820  211.2770  139.0170 C   0  0  2  0  0  0  0  0  0  0  0  0
  162.0560  209.8710  139.4840 C   0  0  0  0  0  1  0  0  0  0  0  0
  163.2980  212.8620  138.2550 O   0  0  0  0  0  0  0  0  0  0  0  0
  163.5150  212.3720  140.5300 C   0  0  0  0  0  1  0  0  0  0  0  0
  162.8390  212.2440  139.2030 C   0  0  0  0  0  0  0  0  0  0  0  0
  161.3360  211.1600  137.5180 C   0  0  0  0  0  2  0  0  0  0  0  0
  160.1240  211.7870  137.2120 O   0  0  0  0  0  1  0  0  0  0  0  0
  158.0190  211.3060  139.7320 C   0  0  0  0  0  2  0  0  0  0  0  0
  157.3470  210.3160  138.7870 C   0  0  0  0  0  2  0  0  0  0  0  0
  155.5990  212.5350  139.0000 O   0  0  0  0  0  0  0  0  0  0  0  0
  156.2910  208.5360  139.9390 O   0  0  0  0  0  0  0  0  0  0  0  0
  154.9020  210.3620  139.5530 N   0  0  0  0  0  2  0  0  0  0  0  0
  156.1690  209.6950  139.4590 C   0  0  0  0  0  0  0  0  0  0  0  0
  154.6560  211.7520  139.2900 C   0  0  0  0  0  0  0  0  0  0  0  0
  153.3200  212.2480  139.4050 N   0  0  0  0  0  2  0  0  0  0  0  0
  154.0160  214.3750  138.4240 C   0  0  0  0  0  1  0  0  0  0  0  0
  152.9950  213.6660  139.2910 C   0  0  0  0  0  2  0  0  0  0  0  0
  161.0080  205.5320  147.9870 C   0  0  1  0  0  3  0  0  0  0  0  0
  162.0130  205.1740  146.8810 C   0  0  1  0  0  3  0  0  0  0  0  0
  163.0370  204.3650  147.3680 O   0  0  0  0  0  1  0  0  0  0  0  0
  161.3810  204.5550  145.6460 C   0  0  0  0  0  1  0  0  0  0  0  0
  161.2230  204.6040  149.1840 C   0  0  0  0  0  2  0  0  0  0  0  0
  161.5910  205.3420  150.4590 C   0  0  2  0  0  3  0  0  0  0  0  0
  161.7400  204.3300  151.5470 C   0  0  0  0  0  3  0  0  0  0  0  0
  160.8440  204.1390  152.3570 O   0  0  0  0  0  0  0  0  0  0  0  0
  160.5340  206.2200  150.7710 O   0  0  0  0  0  0  0  0  0  0  0  0
  160.7950  207.0380  151.9100 C   0  0  1  0  0  0  0  0  0  0  0  0
  160.2900  206.3580  153.0260 O   0  0  0  0  0  1  0  0  0  0  0  0
  162.9890  206.2930  152.7810 C   0  0  0  0  0  2  0  0  0  0  0  0
  162.2970  207.1680  152.0610 C   0  0  0  0  0  0  0  0  0  0  0  0
  162.9920  208.1680  151.3900 O   0  0  0  0  0  1  0  0  0  0  0  0
  160.1240  208.4390  151.8850 C   0  0  0  0  0  2  0  0  0  0  0  0
  160.3130  209.1330  153.1510 N   0  0  0  0  0  2  0  0  0  0  0  0
  161.1950  210.2610  152.8830 C   0  0  0  0  0  2  0  0  0  0  0  0
  160.5260  211.5230  153.3200 C   0  0  0  0  0  0  0  0  0  0  0  0
  160.1780  211.7600  154.5900 C   0  0  0  0  0  3  0  0  0  0  0  0
  160.2550  210.7930  155.7120 C   0  0  0  0  0  0  0  0  0  0  0  0
  159.2430  210.1200  156.0450 O   0  0  0  0  0  0  0  0  0  0  0  0
  161.4910  210.6900  156.5100 C   0  0  0  0  0  0  0  0  0  0  0  0
  161.8710  209.5220  157.0210 C   0  0  0  0  0  2  0  0  0  0  0  0
  162.1690  211.9270  156.9870 C   0  0  0  0  0  1  0  0  0  0  0  0
  160.2490  212.5600  152.2860 C   0  0  0  0  0  2  0  0  0  0  0  0
  158.8280  212.5840  151.9480 N   0  0  0  0  0  2  0  0  0  0  0  0
  158.6160  213.7820  151.1610 C   0  0  0  0  0  2  0  0  0  0  0  0
  158.8070  213.4790  149.7130 C   0  0  0  0  0  0  0  0  0  0  0  0
  159.8340  214.0860  148.9980 O   0  0  0  0  0  0  0  0  0  0  0  0
  158.0240  212.6830  149.1310 O   0  0  0  0  0  1  0  0  0  0  0  0
  1  2  1  0  0  0  0
  2 40  1  6  0  0  0
  4  6  1  0  0  0  0
  5  7  1  1  0  0  0
  5  1  1  0  0  0  0
  5  4  1  0  0  0  0
  6  2  1  0  0  0  0
  6  3  2  0  0  0  0
  8  9  1  0  0  0  0
 10  8  1  0  0  0  0
 10  9  1  0  0  0  0
 10  7  1  0  0  0  0
 11 10  1  0  0  0  0
 12 15  1  0  0  0  0
 13 18  1  6  0  0  0
 13 12  1  0  0  0  0
 13 16  1  0  0  0  0
 14 17  1  0  0  0  0
 14 11  1  1  0  0  0
 15 17  1  0  0  0  0
 16 14  1  0  0  0  0
 19 22  1  0  0  0  0
 19 18  1  0  0  0  0
 20 18  2  0  0  0  0
 22 21  2  0  0  0  0
 23 27  1  0  0  0  0
 23 24  1  1  0  0  0
 23 19  1  0  0  0  0
 25 27  2  0  0  0  0
 27 26  1  0  0  0  0
 28 23  1  0  0  0  0
 29 28  1  0  0  0  0
 30 22  1  0  0  0  0
 31 35  1  0  0  0  0
 31 30  1  0  0  0  0
 32 36  2  0  0  0  0
 35 34  1  0  0  0  0
 35 33  2  0  0  0  0
 36 37  1  0  0  0  0
 36 34  1  0  0  0  0
 38 39  1  0  0  0  0
 39 37  1  0  0  0  0
 40 44  1  1  0  0  0
 41 43  1  6  0  0  0
 41 42  1  0  0  0  0
 41 40  1  0  0  0  0
 45 44  1  6  0  0  0
 45 48  1  0  0  0  0
 45 46  1  0  0  0  0
 46 47  2  0  0  0  0
 48 49  1  0  0  0  0
 49 52  1  0  0  0  0
 49 50  1  1  0  0  0
 52 51  2  0  0  0  0
 53 52  1  0  0  0  0
 54 49  1  0  0  0  0
 54 55  1  0  0  0  0
 56 55  1  0  0  0  0
 56 57  1  0  0  0  0
 57 58  2  0  0  0  0
 58 59  1  0  0  0  0
 59 60  2  0  0  0  0
 59 61  1  0  0  0  0
 61 63  1  0  0  0  0
 61 62  2  0  0  0  0
 64 57  1  0  0  0  0
 65 64  1  0  0  0  0
 66 65  1  0  0  0  0
 67 66  1  0  0  0  0
 68 67  2  0  0  0  0
 69 67  1  0  0  0  0
M  END
>  <MODEL>
1

>  <REMARK>
 VINA RESULT:       3.1      0.000      0.000
  Name = 
  30 active torsions:
  status: ('A' for Active; 'I' for Inactive)
    1  A    between atoms: C_1  and  C_16
    2  A    between atoms: C_1  and  C_35
    3  A    between atoms: O_3  and  C_19
    4  A    between atoms: O_3  and  C_48
    5  A    between atoms: N_4  and  C_23
    6  A    between atoms: N_4  and  C_35
    7  A    between atoms: C_5  and  C_34
    8  A    between atoms: C_8  and  C_25
    9  A    between atoms: C_9  and  C_64
   10  A    between atoms: C_9  and  C_69
   11  A    between atoms: C_10  and  C_25
   12  A    between atoms: C_11  and  C_27
   13  A    between atoms: C_13  and  C_34
   14  A    between atoms: C_14  and  C_41
   15  A    between atoms: C_15  and  C_23
   16  A    between atoms: C_16  and  N_26
   17  A    between atoms: C_25  and  C_36
   18  A    between atoms: N_26  and  C_38
   19  A    between atoms: C_27  and  N_43
   20  A    between atoms: C_27  and  C_59
   21  A    between atoms: C_31  and  C_48
   22  A    between atoms: C_31  and  C_53
   23  A    between atoms: C_33  and  N_65
   24  A    between atoms: C_36  and  C_39
   25  A    between atoms: C_38  and  C_46
   26  A    between atoms: C_39  and  C_40
   27  A    between atoms: C_39  and  O_42
   28  A    between atoms: O_42  and  C_46
   29  A    between atoms: C_46  and  C_50
   30  A    between atoms: C_52  and  C_69
                            x       y       z     vdW  Elec       q    Type
                         _______ _______ _______ _____ _____    ______ ____

>  <TORSDO>
F 30

$$$$
=
 OpenBabel11072414293D

 69 71  0  0  1  0  0  0  0  0999 V2000
  160.6800  207.9000  147.4970 C   0  0  0  0  0  2  0  0  0  0  0  0
  161.4560  207.0080  148.4720 C   0  0  2  0  0  3  0  0  0  0  0  0
  163.7920  207.1760  149.1150 O   0  0  0  0  0  0  0  0  0  0  0  0
  162.9350  208.7120  147.5830 N   0  0  0  0  0  2  0  0  0  0  0  0
  161.6460  208.9660  146.9680 C   0  0  2  0  0  3  0  0  0  0  0  0
  162.8220  207.5830  148.4220 C   0  0  0  0  0  0  0  0  0  0  0  0
  161.1630  210.3940  147.2460 C   0  0  0  0  0  2  0  0  0  0  0  0
  163.1060  211.7450  146.1910 C   0  0  0  0  0  2  0  0  0  0  0  0
  162.1220  212.7570  146.7590 C   0  0  0  0  0  2  0  0  0  0  0  0
  161.6200  211.4380  146.2130 C   0  0  0  0  0  0  0  0  0  0  0  0
  160.9430  211.5650  144.9830 O   0  0  0  0  0  0  0  0  0  0  0  0
  161.0590  214.2380  142.2800 C   0  0  0  0  0  2  0  0  0  0  0  0
  160.6840  212.8030  141.8680 C   0  0  2  0  0  3  0  0  0  0  0  0
  161.8500  212.1200  144.0680 C   0  0  1  0  0  3  0  0  0  0  0  0
  162.2390  214.2630  143.0430 O   0  0  0  0  0  0  0  0  0  0  0  0
  161.4730  211.7230  142.6350 C   0  0  0  0  0  2  0  0  0  0  0  0
  161.9090  213.6430  144.2540 C   0  0  0  0  0  2  0  0  0  0  0  0
  160.8470  212.6260  140.3910 C   0  0  0  0  0  0  0  0  0  0  0  0
  160.6870  211.3280  139.7970 N   0  0  0  0  0  0  0  0  0  0  0  0
  161.0980  213.6260  139.6630 O   0  0  0  0  0  0  0  0  0  0  0  0
  159.5360  209.5110  140.7350 O   0  0  0  0  0  0  0  0  0  0  0  0
  159.4800  210.6060  140.1090 C   0  0  0  0  0  0  0  0  0  0  0  0
  161.7910  210.6480  139.0710 C   0  0  2  0  0  0  0  0  0  0  0  0
  162.1390  209.3490  139.7980 C   0  0  0  0  0  1  0  0  0  0  0  0
  162.9200  212.6530  138.4300 O   0  0  0  0  0  0  0  0  0  0  0  0
  164.3170  211.1450  139.5420 C   0  0  0  0  0  1  0  0  0  0  0  0
  162.9910  211.5780  139.0040 C   0  0  0  0  0  0  0  0  0  0  0  0
  161.3620  210.2470  137.6450 C   0  0  0  0  0  2  0  0  0  0  0  0
  161.8810  209.0030  137.2750 O   0  0  0  0  0  1  0  0  0  0  0  0
  158.1540  211.1860  139.7150 C   0  0  0  0  0  2  0  0  0  0  0  0
  157.7660  212.3340  140.6390 C   0  0  0  0  0  2  0  0  0  0  0  0
  155.3770  211.0280  139.8560 O   0  0  0  0  0  0  0  0  0  0  0  0
  157.7520  214.4370  139.5490 O   0  0  0  0  0  0  0  0  0  0  0  0
  155.7140  213.3190  139.4610 N   0  0  0  0  0  2  0  0  0  0  0  0
  157.0910  213.4080  139.8550 C   0  0  0  0  0  0  0  0  0  0  0  0
  154.8970  212.1390  139.5050 C   0  0  0  0  0  0  0  0  0  0  0  0
  153.5290  212.2340  139.1000 N   0  0  0  0  0  2  0  0  0  0  0  0
  153.4560  209.7930  139.1840 C   0  0  0  0  0  1  0  0  0  0  0  0
  152.6600  211.0670  138.9810 C   0  0  0  0  0  2  0  0  0  0  0  0
  161.4040  205.5210  148.0510 C   0  0  1  0  0  3  0  0  0  0  0  0
  162.4240  205.1600  146.9590 C   0  0  1  0  0  3  0  0  0  0  0  0
  162.4720  203.7850  146.7440 O   0  0  0  0  0  1  0  0  0  0  0  0
  162.2180  205.9020  145.6500 C   0  0  0  0  0  1  0  0  0  0  0  0
  161.6260  204.6200  149.2670 C   0  0  0  0  0  2  0  0  0  0  0  0
  161.8930  205.3910  150.5470 C   0  0  2  0  0  3  0  0  0  0  0  0
  162.1100  204.3980  151.6420 C   0  0  0  0  0  3  0  0  0  0  0  0
  161.3620  203.4410  151.7810 O   0  0  0  0  0  0  0  0  0  0  0  0
  160.7530  206.1670  150.8300 O   0  0  0  0  0  0  0  0  0  0  0  0
  160.8210  206.8330  152.0900 C   0  0  1  0  0  0  0  0  0  0  0  0
  160.0930  206.0570  153.0020 O   0  0  0  0  0  1  0  0  0  0  0  0
  162.8650  205.7740  152.9990 C   0  0  0  0  0  2  0  0  0  0  0  0
  162.2710  206.8650  152.5280 C   0  0  0  0  0  0  0  0  0  0  0  0
  163.0300  208.0200  152.3810 O   0  0  0  0  0  1  0  0  0  0  0  0
  160.2100  208.2610  152.1150 C   0  0  0  0  0  2  0  0  0  0  0  0
  160.4360  208.9050  153.4030 N   0  0  0  0  0  2  0  0  0  0  0  0
  159.8850  210.2490  153.3020 C   0  0  0  0  0  2  0  0  0  0  0  0
  158.7810  210.4040  154.2960 C   0  0  0  0  0  0  0  0  0  0  0  0
  158.9270  210.1210  155.5960 C   0  0  0  0  0  3  0  0  0  0  0  0
  160.1130  209.4890  156.2240 C   0  0  0  0  0  0  0  0  0  0  0  0
  161.0030  210.1990  156.7640 O   0  0  0  0  0  0  0  0  0  0  0  0
  160.3050  208.0300  156.1290 C   0  0  0  0  0  0  0  0  0  0  0  0
  159.2620  207.2050  156.1690 C   0  0  0  0  0  2  0  0  0  0  0  0
  161.6700  207.4520  156.2720 C   0  0  0  0  0  1  0  0  0  0  0  0
  157.4670  210.9080  153.8070 C   0  0  0  0  0  2  0  0  0  0  0  0
  157.3540  212.3480  154.0260 N   0  0  0  0  0  2  0  0  0  0  0  0
  155.9710  212.6010  154.3770 C   0  0  0  0  0  2  0  0  0  0  0  0
  155.6850  212.0590  155.7370 C   0  0  0  0  0  0  0  0  0  0  0  0
  154.8240  210.9790  155.8950 O   0  0  0  0  0  0  0  0  0  0  0  0
  156.2130  212.5940  156.7480 O   0  0  0  0  0  1  0  0  0  0  0  0
  1  2  1  0  0  0  0
  2 40  1  6  0  0  0
  4  6  1  0  0  0  0
  5  7  1  1  0  0  0
  5  1  1  0  0  0  0
  5  4  1  0  0  0  0
  6  2  1  0  0  0  0
  6  3  2  0  0  0  0
  8 10  1  0  0  0  0
  8  9  1  0  0  0  0
 10  9  1  0  0  0  0
 10  7  1  0  0  0  0
 11 10  1  0  0  0  0
 12 15  1  0  0  0  0
 13 18  1  6  0  0  0
 13 12  1  0  0  0  0
 13 16  1  0  0  0  0
 14 17  1  0  0  0  0
 14 11  1  1  0  0  0
 15 17  1  0  0  0  0
 16 14  1  0  0  0  0
 19 22  1  0  0  0  0
 19 18  1  0  0  0  0
 20 18  2  0  0  0  0
 22 21  2  0  0  0  0
 23 19  1  0  0  0  0
 23 24  1  1  0  0  0
 25 27  2  0  0  0  0
 27 23  1  0  0  0  0
 27 26  1  0  0  0  0
 28 23  1  0  0  0  0
 29 28  1  0  0  0  0
 30 22  1  0  0  0  0
 30 31  1  0  0  0  0
 33 35  2  0  0  0  0
 34 36  1  0  0  0  0
 34 35  1  0  0  0  0
 35 31  1  0  0  0  0
 36 32  2  0  0  0  0
 37 36  1  0  0  0  0
 39 37  1  0  0  0  0
 39 38  1  0  0  0  0
 40 44  1  1  0  0  0
 41 43  1  6  0  0  0
 41 40  1  0  0  0  0
 42 41  1  0  0  0  0
 45 44  1  6  0  0  0
 45 48  1  0  0  0  0
 45 46  1  0  0  0  0
 46 47  2  0  0  0  0
 48 49  1  0  0  0  0
 49 54  1  0  0  0  0
 49 52  1  0  0  0  0
 49 50  1  1  0  0  0
 52 51  2  0  0  0  0
 53 52  1  0  0  0  0
 54 55  1  0  0  0  0
 56 55  1  0  0  0  0
 56 57  1  0  0  0  0
 57 58  2  0  0  0  0
 58 59  1  0  0  0  0
 59 60  2  0  0  0  0
 61 62  2  0  0  0  0
 61 59  1  0  0  0  0
 61 63  1  0  0  0  0
 64 65  1  0  0  0  0
 64 57  1  0  0  0  0
 65 66  1  0  0  0  0
 66 67  1  0  0  0  0
 67 68  2  0  0  0  0
 67 69  1  0  0  0  0
M  END
>  <MODEL>
2

>  <REMARK>
 VINA RESULT:       6.1      1.684      2.463
  Name = 
  30 active torsions:
  status: ('A' for Active; 'I' for Inactive)
    1  A    between atoms: C_1  and  C_16
    2  A    between atoms: C_1  and  C_35
    3  A    between atoms: O_3  and  C_19
    4  A    between atoms: O_3  and  C_48
    5  A    between atoms: N_4  and  C_23
    6  A    between atoms: N_4  and  C_35
    7  A    between atoms: C_5  and  C_34
    8  A    between atoms: C_8  and  C_25
    9  A    between atoms: C_9  and  C_64
   10  A    between atoms: C_9  and  C_69
   11  A    between atoms: C_10  and  C_25
   12  A    between atoms: C_11  and  C_27
   13  A    between atoms: C_13  and  C_34
   14  A    between atoms: C_14  and  C_41
   15  A    between atoms: C_15  and  C_23
   16  A    between atoms: C_16  and  N_26
   17  A    between atoms: C_25  and  C_36
   18  A    between atoms: N_26  and  C_38
   19  A    between atoms: C_27  and  N_43
   20  A    between atoms: C_27  and  C_59
   21  A    between atoms: C_31  and  C_48
   22  A    between atoms: C_31  and  C_53
   23  A    between atoms: C_33  and  N_65
   24  A    between atoms: C_36  and  C_39
   25  A    between atoms: C_38  and  C_46
   26  A    between atoms: C_39  and  C_40
   27  A    between atoms: C_39  and  O_42
   28  A    between atoms: O_42  and  C_46
   29  A    between atoms: C_46  and  C_50
   30  A    between atoms: C_52  and  C_69
                            x       y       z     vdW  Elec       q    Type
                         _______ _______ _______ _____ _____    ______ ____

>  <TORSDO>
F 30

$$$$
