=
 OpenBabel11072411563D

 32 35  0  0  1  0  0  0  0  0999 V2000
  160.6330  208.8090  157.1000 C   0  0  0  0  0  1  0  0  0  0  0  0
  162.6520  210.6840  154.8120 O   0  0  0  0  0  0  0  0  0  0  0  0
  161.2730  212.4800  157.2610 C   0  0  0  0  0  2  0  0  0  0  0  0
  160.9080  209.5180  155.8610 N   0  0  0  0  0  0  0  0  0  0  0  0
  160.0290  209.2550  154.7210 C   0  0  1  0  0  3  0  0  0  0  0  0
  161.9460  210.5140  155.8410 C   0  0  0  0  0  0  0  0  0  0  0  0
  158.6060  210.4230  154.6230 S   0  0  0  0  0  0  0  0  0  0  0  0
  162.1520  211.3510  156.9800 N   0  0  0  0  0  2  0  0  0  0  0  0
  159.5240  211.9850  154.8880 C   0  0  2  0  0  3  0  0  0  0  0  0
  159.8110  212.0430  157.2610 C   0  0  0  0  0  2  0  0  0  0  0  0
  159.0950  212.6250  156.1300 N   0  0  0  0  0  2  0  0  0  0  0  0
  162.0440  205.5020  153.1160 C   0  0  0  0  0  2  0  0  0  0  0  0
  161.6860  207.3130  151.9050 C   0  0  2  0  0  3  0  0  0  0  0  0
  161.9010  205.9390  151.7790 O   0  0  0  0  0  0  0  0  0  0  0  0
  160.7750  209.0020  153.4010 C   0  0  1  0  0  3  0  0  0  0  0  0
  160.8320  207.4980  153.1060 C   0  0  2  0  0  3  0  0  0  0  0  0
  160.0880  209.6440  152.3340 O   0  0  0  0  0  0  0  0  0  0  0  0
  161.5430  206.5960  154.0570 C   0  0  0  0  0  2  0  0  0  0  0  0
  160.7660  209.4640  151.0930 C   0  0  2  0  0  3  0  0  0  0  0  0
  161.0040  207.9720  150.7270 C   0  0  1  0  0  3  0  0  0  0  0  0
  161.7850  207.8460  149.5770 O   0  0  0  0  0  1  0  0  0  0  0  0
  161.9410  210.4450  150.9210 C   0  0  1  0  0  3  0  0  0  0  0  0
  163.1810  210.0570  151.7150 C   0  0  0  0  0  1  0  0  0  0  0  0
  162.2730  210.6480  149.4530 C   0  0  0  0  0  2  0  0  0  0  0  0
  161.5870  212.2240  148.8660 S   0  0  0  0  0  1  0  0  0  0  0  0
  157.1360  213.9240  150.4350 N   0  0  0  0  0  1  0  0  0  0  0  0
  157.9350  214.4310  152.6880 C   0  0  0  0  0  2  0  0  0  0  0  0
  158.0190  213.5000  153.7440 O   0  0  0  0  0  0  0  0  0  0  0  0
  159.6390  212.2930  152.3830 C   0  0  0  0  0  2  0  0  0  0  0  0
  159.3230  212.9600  153.7320 C   0  0  2  0  0  3  0  0  0  0  0  0
  158.2610  213.7670  151.3370 C   0  0  1  0  0  3  0  0  0  0  0  0
  158.5400  212.3960  151.5060 O   0  0  0  0  0  0  0  0  0  0  0  0
  2  6  2  0  0  0  0
  4  1  1  0  0  0  0
  5  7  1  6  0  0  0
  5  4  1  0  0  0  0
  6  4  1  0  0  0  0
  6  8  1  0  0  0  0
  8  3  1  0  0  0  0
  9  7  1  6  0  0  0
  9 11  1  0  0  0  0
 10  3  1  0  0  0  0
 11 10  1  0  0  0  0
 12 18  1  0  0  0  0
 13 14  1  6  0  0  0
 13 16  1  0  0  0  0
 14 12  1  0  0  0  0
 15 17  1  6  0  0  0
 15  5  1  0  0  0  0
 16 15  1  0  0  0  0
 16 18  1  1  0  0  0
 19 22  1  1  0  0  0
 19 17  1  0  0  0  0
 20 21  1  6  0  0  0
 20 19  1  0  0  0  0
 20 13  1  0  0  0  0
 22 23  1  1  0  0  0
 24 22  1  0  0  0  0
 25 24  1  0  0  0  0
 27 28  1  0  0  0  0
 30 29  1  6  0  0  0
 30 28  1  0  0  0  0
 30  9  1  0  0  0  0
 31 26  1  6  0  0  0
 31 32  1  0  0  0  0
 31 27  1  0  0  0  0
 32 29  1  0  0  0  0
M  END
>  <MODEL>
1

>  <REMARK>
 VINA RESULT:      -3.9      0.000      0.000
  Name = 
  4 active torsions:
  status: ('A' for Active; 'I' for Inactive)
    1  A    between atoms: C_8  and  C_23
    2  A    between atoms: C_11  and  C_13
    3  A    between atoms: C_13  and  C_28
    4  A    between atoms: C_16  and  C_17
                            x       y       z     vdW  Elec       q    Type
                         _______ _______ _______ _____ _____    ______ ____

>  <TORSDO>
F 4

$$$$
=
 OpenBabel11072411563D

 32 35  0  0  1  0  0  0  0  0999 V2000
  156.4890  213.7850  140.4670 C   0  0  0  0  0  1  0  0  0  0  0  0
  159.7120  214.4490  139.0550 O   0  0  0  0  0  0  0  0  0  0  0  0
  157.5790  212.9000  137.0110 C   0  0  0  0  0  2  0  0  0  0  0  0
  157.9010  213.5340  140.2300 N   0  0  0  0  0  0  0  0  0  0  0  0
  158.5990  212.6560  141.1710 C   0  0  1  0  0  3  0  0  0  0  0  0
  158.5150  214.0590  139.0400 C   0  0  0  0  0  0  0  0  0  0  0  0
  158.5920  210.8880  140.6480 S   0  0  0  0  0  0  0  0  0  0  0  0
  157.7780  214.1000  137.8170 N   0  0  0  0  0  2  0  0  0  0  0  0
  159.0720  211.1250  138.8970 C   0  0  2  0  0  3  0  0  0  0  0  0
  157.0150  211.7640  137.8590 C   0  0  0  0  0  2  0  0  0  0  0  0
  157.9940  210.6920  138.0090 N   0  0  0  0  0  2  0  0  0  0  0  0
  159.8430  214.4230  145.1770 C   0  0  0  0  0  2  0  0  0  0  0  0
  161.2690  213.8910  143.5770 C   0  0  2  0  0  3  0  0  0  0  0  0
  161.1990  214.0880  144.9580 O   0  0  0  0  0  0  0  0  0  0  0  0
  159.9530  213.2040  141.6500 C   0  0  1  0  0  3  0  0  0  0  0  0
  160.0050  213.2190  143.1820 C   0  0  2  0  0  3  0  0  0  0  0  0
  161.0010  212.3680  141.1730 O   0  0  0  0  0  0  0  0  0  0  0  0
  159.0310  214.0620  143.9350 C   0  0  0  0  0  2  0  0  0  0  0  0
  162.2800  212.8600  141.5660 C   0  0  2  0  0  3  0  0  0  0  0  0
  162.4280  213.0440  143.1020 C   0  0  1  0  0  3  0  0  0  0  0  0
  163.6420  213.6510  143.4290 O   0  0  0  0  0  1  0  0  0  0  0  0
  162.7750  213.9960  140.6520 C   0  0  1  0  0  3  0  0  0  0  0  0
  164.2060  214.4300  140.9380 C   0  0  0  0  0  1  0  0  0  0  0  0
  162.5970  213.6350  139.1870 C   0  0  0  0  0  2  0  0  0  0  0  0
  163.8070  212.3710  138.6990 S   0  0  0  0  0  1  0  0  0  0  0  0
  162.2340  206.7470  138.5450 N   0  0  0  0  0  1  0  0  0  0  0  0
  161.2840  208.6600  137.3560 C   0  0  0  0  0  2  0  0  0  0  0  0
  160.0590  209.2810  137.6750 O   0  0  0  0  0  0  0  0  0  0  0  0
  161.0560  209.8630  139.8200 C   0  0  0  0  0  2  0  0  0  0  0  0
  160.3400  210.3530  138.5500 C   0  0  2  0  0  3  0  0  0  0  0  0
  162.0080  208.1780  138.6290 C   0  0  1  0  0  3  0  0  0  0  0  0
  161.2450  208.4660  139.7780 O   0  0  0  0  0  0  0  0  0  0  0  0
  3  8  1  0  0  0  0
  3 10  1  0  0  0  0
  4  1  1  0  0  0  0
  4  5  1  0  0  0  0
  5  7  1  6  0  0  0
  5 15  1  0  0  0  0
  6  2  2  0  0  0  0
  6  4  1  0  0  0  0
  8  6  1  0  0  0  0
  9 11  1  6  0  0  0
  9  7  1  0  0  0  0
 10 11  1  0  0  0  0
 13 14  1  1  0  0  0
 14 12  1  0  0  0  0
 15 17  1  6  0  0  0
 15 16  1  0  0  0  0
 16 13  1  0  0  0  0
 16 18  1  1  0  0  0
 17 19  1  0  0  0  0
 18 12  1  0  0  0  0
 19 22  1  6  0  0  0
 19 20  1  0  0  0  0
 20 21  1  6  0  0  0
 20 13  1  0  0  0  0
 22 23  1  6  0  0  0
 24 22  1  0  0  0  0
 25 24  1  0  0  0  0
 27 28  1  0  0  0  0
 27 31  1  0  0  0  0
 28 30  1  0  0  0  0
 30  9  1  0  0  0  0
 30 29  1  1  0  0  0
 31 26  1  6  0  0  0
 31 32  1  0  0  0  0
 32 29  1  0  0  0  0
M  END
>  <MODEL>
2

>  <REMARK>
 VINA RESULT:      -2.8     10.706     14.365
  Name = 
  4 active torsions:
  status: ('A' for Active; 'I' for Inactive)
    1  A    between atoms: C_8  and  C_23
    2  A    between atoms: C_11  and  C_13
    3  A    between atoms: C_13  and  C_28
    4  A    between atoms: C_16  and  C_17
                            x       y       z     vdW  Elec       q    Type
                         _______ _______ _______ _____ _____    ______ ____

>  <TORSDO>
F 4

$$$$
=
 OpenBabel11072411563D

 32 35  0  0  1  0  0  0  0  0999 V2000
  163.0770  206.5220  151.5810 C   0  0  0  0  0  1  0  0  0  0  0  0
  159.7220  207.6630  151.0630 O   0  0  0  0  0  0  0  0  0  0  0  0
  161.4130  206.9710  148.2730 C   0  0  0  0  0  2  0  0  0  0  0  0
  162.0280  207.5220  151.4630 N   0  0  0  0  0  0  0  0  0  0  0  0
  162.2900  208.8460  152.0300 C   0  0  1  0  0  3  0  0  0  0  0  0
  160.8430  207.2080  150.7120 C   0  0  0  0  0  0  0  0  0  0  0  0
  163.0150  210.0220  150.8090 S   0  0  0  0  0  0  0  0  0  0  0  0
  160.9380  206.4090  149.5320 N   0  0  0  0  0  2  0  0  0  0  0  0
  161.8740  209.6950  149.4140 C   0  0  2  0  0  3  0  0  0  0  0  0
  162.7490  207.6820  148.4650 C   0  0  0  0  0  2  0  0  0  0  0  0
  162.6020  209.1230  148.2820 N   0  0  0  0  0  2  0  0  0  0  0  0
  160.3260  207.2060  155.7940 C   0  0  0  0  0  2  0  0  0  0  0  0
  159.9580  209.2350  155.0050 C   0  0  2  0  0  3  0  0  0  0  0  0
  159.8920  208.4930  156.1870 O   0  0  0  0  0  0  0  0  0  0  0  0
  161.1390  209.4000  152.8850 C   0  0  1  0  0  3  0  0  0  0  0  0
  161.1720  208.7740  154.2840 C   0  0  2  0  0  3  0  0  0  0  0  0
  161.2800  210.8090  153.0190 O   0  0  0  0  0  0  0  0  0  0  0  0
  160.9990  207.2990  154.4260 C   0  0  0  0  0  2  0  0  0  0  0  0
  160.2110  211.3700  153.7770 C   0  0  2  0  0  3  0  0  0  0  0  0
  160.0500  210.7340  155.1860 C   0  0  1  0  0  3  0  0  0  0  0  0
  158.9140  211.2170  155.8380 O   0  0  0  0  0  1  0  0  0  0  0  0
  158.9420  211.5820  152.9310 C   0  0  1  0  0  3  0  0  0  0  0  0
  157.7150  211.9500  153.7540 C   0  0  0  0  0  1  0  0  0  0  0  0
  159.1840  212.5960  151.8260 C   0  0  0  0  0  2  0  0  0  0  0  0
  157.8000  213.7690  151.7360 S   0  0  0  0  0  1  0  0  0  0  0  0
  161.4090  214.4060  146.7900 N   0  0  0  0  0  1  0  0  0  0  0  0
  160.4140  212.2130  147.2070 C   0  0  0  0  0  2  0  0  0  0  0  0
  161.1350  211.0500  147.5470 O   0  0  0  0  0  0  0  0  0  0  0  0
  161.8120  212.2150  149.5760 C   0  0  0  0  0  2  0  0  0  0  0  0
  161.1650  210.9650  148.9560 C   0  0  2  0  0  3  0  0  0  0  0  0
  161.0540  213.4660  147.8360 C   0  0  1  0  0  3  0  0  0  0  0  0
  162.2060  213.1230  148.5720 O   0  0  0  0  0  0  0  0  0  0  0  0
  3 10  1  0  0  0  0
  3  8  1  0  0  0  0
  4  1  1  0  0  0  0
  4  5  1  0  0  0  0
  5  7  1  6  0  0  0
  5 15  1  0  0  0  0
  6  2  2  0  0  0  0
  6  4  1  0  0  0  0
  8  6  1  0  0  0  0
  9 11  1  6  0  0  0
  9  7  1  0  0  0  0
 11 10  1  0  0  0  0
 12 14  1  0  0  0  0
 13 20  1  0  0  0  0
 13 14  1  1  0  0  0
 15 17  1  1  0  0  0
 15 16  1  0  0  0  0
 16 18  1  6  0  0  0
 16 13  1  0  0  0  0
 17 19  1  0  0  0  0
 18 12  1  0  0  0  0
 19 22  1  6  0  0  0
 19 20  1  0  0  0  0
 20 21  1  6  0  0  0
 22 23  1  1  0  0  0
 24 22  1  0  0  0  0
 25 24  1  0  0  0  0
 27 28  1  0  0  0  0
 27 31  1  0  0  0  0
 28 30  1  0  0  0  0
 30  9  1  0  0  0  0
 30 29  1  1  0  0  0
 31 26  1  6  0  0  0
 31 32  1  0  0  0  0
 32 29  1  0  0  0  0
M  END
>  <MODEL>
3

>  <REMARK>
 VINA RESULT:      -2.2      3.218      5.813
  Name = 
  4 active torsions:
  status: ('A' for Active; 'I' for Inactive)
    1  A    between atoms: C_8  and  C_23
    2  A    between atoms: C_11  and  C_13
    3  A    between atoms: C_13  and  C_28
    4  A    between atoms: C_16  and  C_17
                            x       y       z     vdW  Elec       q    Type
                         _______ _______ _______ _____ _____    ______ ____

>  <TORSDO>
F 4

$$$$
=
 OpenBabel11072411563D

 32 35  0  0  1  0  0  0  0  0999 V2000
  161.1230  209.8680  157.0390 C   0  0  0  0  0  1  0  0  0  0  0  0
  158.3210  209.0930  154.9480 O   0  0  0  0  0  0  0  0  0  0  0  0
  160.5050  206.6040  155.3440 C   0  0  0  0  0  2  0  0  0  0  0  0
  160.3660  209.8650  155.7980 N   0  0  0  0  0  0  0  0  0  0  0  0
  160.7330  210.8500  154.7790 C   0  0  1  0  0  3  0  0  0  0  0  0
  159.3790  208.8410  155.5830 C   0  0  0  0  0  0  0  0  0  0  0  0
  161.9730  210.2110  153.5730 S   0  0  0  0  0  0  0  0  0  0  0  0
  159.6150  207.5140  156.0550 N   0  0  0  0  0  2  0  0  0  0  0  0
  161.1930  208.5920  153.2210 C   0  0  2  0  0  3  0  0  0  0  0  0
  161.8600  207.2580  155.0890 C   0  0  0  0  0  2  0  0  0  0  0  0
  162.0590  207.5010  153.6640 N   0  0  0  0  0  2  0  0  0  0  0  0
  156.6680  211.8890  156.5440 C   0  0  0  0  0  2  0  0  0  0  0  0
  157.4160  212.6990  154.6310 C   0  0  2  0  0  3  0  0  0  0  0  0
  156.5050  212.9750  155.6530 O   0  0  0  0  0  0  0  0  0  0  0  0
  159.5340  211.5960  154.1700 C   0  0  1  0  0  3  0  0  0  0  0  0
  158.6190  212.1220  155.2810 C   0  0  2  0  0  3  0  0  0  0  0  0
  160.0000  212.7040  153.4080 O   0  0  0  0  0  0  0  0  0  0  0  0
  157.9600  211.1510  156.2030 C   0  0  0  0  0  2  0  0  0  0  0  0
  158.9210  213.4050  152.7950 C   0  0  2  0  0  3  0  0  0  0  0  0
  157.8440  213.8920  153.8060 C   0  0  1  0  0  3  0  0  0  0  0  0
  156.7460  214.4530  153.1520 O   0  0  0  0  0  1  0  0  0  0  0  0
  158.4400  212.7230  151.5020 C   0  0  1  0  0  3  0  0  0  0  0  0
  157.4480  213.5590  150.7030 C   0  0  0  0  0  1  0  0  0  0  0  0
  159.6150  212.2980  150.6390 C   0  0  0  0  0  2  0  0  0  0  0  0
  160.1400  213.6710  149.5710 S   0  0  0  0  0  1  0  0  0  0  0  0
  162.3460  207.3390  148.0830 N   0  0  0  0  0  1  0  0  0  0  0  0
  160.8080  207.0050  149.9530 C   0  0  0  0  0  2  0  0  0  0  0  0
  161.1610  207.0970  151.3150 O   0  0  0  0  0  0  0  0  0  0  0  0
  161.6870  209.4370  150.8920 C   0  0  0  0  0  2  0  0  0  0  0  0
  160.8990  208.4190  151.7340 C   0  0  2  0  0  3  0  0  0  0  0  0
  161.5880  208.0310  149.1090 C   0  0  1  0  0  3  0  0  0  0  0  0
  162.4660  208.7810  149.9170 O   0  0  0  0  0  0  0  0  0  0  0  0
  2  6  2  0  0  0  0
  3  8  1  0  0  0  0
  4  1  1  0  0  0  0
  5  7  1  6  0  0  0
  5  4  1  0  0  0  0
  6  4  1  0  0  0  0
  6  8  1  0  0  0  0
  9  7  1  6  0  0  0
  9 11  1  0  0  0  0
 10  3  1  0  0  0  0
 11 10  1  0  0  0  0
 13 16  1  0  0  0  0
 13 14  1  1  0  0  0
 14 12  1  0  0  0  0
 15 17  1  1  0  0  0
 15  5  1  0  0  0  0
 15 16  1  0  0  0  0
 16 18  1  1  0  0  0
 18 12  1  0  0  0  0
 19 22  1  6  0  0  0
 19 17  1  0  0  0  0
 19 20  1  0  0  0  0
 20 21  1  6  0  0  0
 20 13  1  0  0  0  0
 22 23  1  6  0  0  0
 24 22  1  0  0  0  0
 25 24  1  0  0  0  0
 27 28  1  0  0  0  0
 28 30  1  0  0  0  0
 30 29  1  6  0  0  0
 30  9  1  0  0  0  0
 31 26  1  6  0  0  0
 31 32  1  0  0  0  0
 31 27  1  0  0  0  0
 32 29  1  0  0  0  0
M  END
>  <MODEL>
4

>  <REMARK>
 VINA RESULT:      -1.4      2.337      5.811
  Name = 
  4 active torsions:
  status: ('A' for Active; 'I' for Inactive)
    1  A    between atoms: C_8  and  C_23
    2  A    between atoms: C_11  and  C_13
    3  A    between atoms: C_13  and  C_28
    4  A    between atoms: C_16  and  C_17
                            x       y       z     vdW  Elec       q    Type
                         _______ _______ _______ _____ _____    ______ ____

>  <TORSDO>
F 4

$$$$
