=
 OpenBabel11072411353D

 25 25  0  0  1  0  0  0  0  0999 V2000
  162.1070  208.6260  149.1310 C   0  0  0  0  0  0  0  0  0  0  0  0
  162.1490  207.9590  147.8660 N   0  0  0  0  0  2  0  0  0  0  0  0
  161.9330  209.8730  149.1630 O   0  0  0  0  0  0  0  0  0  0  0  0
  161.2190  206.8510  150.4530 O   0  0  0  0  0  0  0  0  0  0  0  0
  162.0520  208.7390  151.6170 C   0  0  0  0  0  2  0  0  0  0  0  0
  160.8790  206.6910  151.8120 C   0  0  2  0  0  3  0  0  0  0  0  0
  162.2040  207.8510  150.4080 C   0  0  2  0  0  3  0  0  0  0  0  0
  161.4970  207.8010  152.6400 C   0  0  0  0  0  2  0  0  0  0  0  0
  161.3100  205.3170  152.3180 C   0  0  0  0  0  2  0  0  0  0  0  0
  161.8830  204.5280  151.2390 N   0  0  0  0  0  2  0  0  0  0  0  0
  161.3920  203.1680  151.3870 C   0  0  1  0  0  3  0  0  0  0  0  0
  160.6340  203.0800  152.5560 O   0  0  0  0  0  1  0  0  0  0  0  0
  160.7140  203.7350  149.1640 O   0  0  0  0  0  1  0  0  0  0  0  0
  160.9210  201.4250  149.6650 C   0  0  0  0  0  1  0  0  0  0  0  0
  160.5350  202.7970  150.1840 C   0  0  1  0  0  3  0  0  0  0  0  0
  162.3170  206.5190  147.7250 C   0  0  0  0  0  2  0  0  0  0  0  0
  161.4270  205.9810  146.6420 C   0  0  0  0  0  0  0  0  0  0  0  0
  160.2300  206.2250  146.6830 O   0  0  0  0  0  0  0  0  0  0  0  0
  161.9770  205.1050  145.5390 C   0  0  0  0  0  0  0  0  0  0  0  0
  163.2790  204.7200  145.8670 O   0  0  0  0  0  1  0  0  0  0  0  0
  162.0130  205.8160  144.3350 O   0  0  0  0  0  1  0  0  0  0  0  0
  161.1300  203.8720  145.3790 C   0  0  0  0  0  0  0  0  0  0  0  0
  160.2620  203.8100  144.4680 O   0  0  0  0  0  0  0  0  0  0  0  0
  160.7440  201.6010  145.9670 O   0  0  0  0  0  1  0  0  0  0  0  0
  161.3290  202.7800  146.2210 O   0  0  0  0  0  0  0  0  0  0  0  0
  1  3  2  0  0  0  0
  2  1  1  0  0  0  0
  4  6  1  0  0  0  0
  5  8  1  0  0  0  0
  6  9  1  1  0  0  0
  6  8  1  0  0  0  0
  7  1  1  6  0  0  0
  7  4  1  0  0  0  0
  7  5  1  0  0  0  0
 10 11  1  0  0  0  0
 10  9  1  0  0  0  0
 11 12  1  1  0  0  0
 13 15  1  0  0  0  0
 15 14  1  6  0  0  0
 15 11  1  0  0  0  0
 16  2  1  0  0  0  0
 17 18  2  0  0  0  0
 17 16  1  0  0  0  0
 19 20  1  0  0  0  0
 19 17  1  0  0  0  0
 21 19  1  0  0  0  0
 22 19  1  0  0  0  0
 22 25  1  0  0  0  0
 23 22  2  0  0  0  0
 24 25  1  0  0  0  0
M  END
>  <MODEL>
1

>  <REMARK>
 VINA RESULT:      -6.8      0.000      0.000
  Name = 
  10 active torsions:
  status: ('A' for Active; 'I' for Inactive)
    1  A    between atoms: C_3  and  O_9
    2  A    between atoms: C_3  and  C_14
    3  A    between atoms: C_4  and  C_11
    4  A    between atoms: C_4  and  N_17
    5  A    between atoms: C_7  and  C_23
    6  A    between atoms: C_8  and  C_18
    7  A    between atoms: C_8  and  N_20
    8  A    between atoms: C_13  and  N_17
    9  A    between atoms: C_13  and  C_19
   10  A    between atoms: C_14  and  C_18
                            x       y       z     vdW  Elec       q    Type
                         _______ _______ _______ _____ _____    ______ ____

>  <TORSDO>
F 10

$$$$
=
 OpenBabel11072411353D

 25 25  0  0  1  0  0  0  0  0999 V2000
  161.1800  203.7420  150.9650 C   0  0  0  0  0  0  0  0  0  0  0  0
  161.1600  203.5600  149.5460 N   0  0  0  0  0  2  0  0  0  0  0  0
  161.4200  202.7540  151.7080 O   0  0  0  0  0  0  0  0  0  0  0  0
  161.8930  206.0170  151.0200 O   0  0  0  0  0  0  0  0  0  0  0  0
  161.1480  205.0800  153.0640 C   0  0  0  0  0  2  0  0  0  0  0  0
  162.1700  206.9530  152.0370 C   0  0  2  0  0  3  0  0  0  0  0  0
  160.9810  205.0990  151.5650 C   0  0  2  0  0  3  0  0  0  0  0  0
  161.5980  206.4740  153.3570 C   0  0  0  0  0  2  0  0  0  0  0  0
  161.6280  208.3300  151.6650 C   0  0  0  0  0  2  0  0  0  0  0  0
  160.6300  208.7670  152.6290 N   0  0  0  0  0  2  0  0  0  0  0  0
  160.7110  210.2160  152.7100 C   0  0  1  0  0  3  0  0  0  0  0  0
  159.4480  210.7600  152.4690 O   0  0  0  0  0  1  0  0  0  0  0  0
  160.5950  211.8280  154.4740 O   0  0  0  0  0  1  0  0  0  0  0  0
  160.8520  209.5570  155.1140 C   0  0  0  0  0  1  0  0  0  0  0  0
  161.1970  210.6270  154.0940 C   0  0  1  0  0  3  0  0  0  0  0  0
  160.9190  204.6440  148.6030 C   0  0  0  0  0  2  0  0  0  0  0  0
  161.4380  204.2900  147.2400 C   0  0  0  0  0  0  0  0  0  0  0  0
  161.4120  203.1220  146.8800 O   0  0  0  0  0  0  0  0  0  0  0  0
  162.0380  205.3410  146.3330 C   0  0  0  0  0  0  0  0  0  0  0  0
  163.2530  204.8710  145.8290 O   0  0  0  0  0  1  0  0  0  0  0  0
  162.2800  206.5150  147.0530 O   0  0  0  0  0  1  0  0  0  0  0  0
  161.1120  205.6290  145.1830 C   0  0  0  0  0  0  0  0  0  0  0  0
  160.1180  206.3880  145.3400 O   0  0  0  0  0  0  0  0  0  0  0  0
  161.5780  205.8690  142.8640 O   0  0  0  0  0  1  0  0  0  0  0  0
  161.3720  205.0820  143.9280 O   0  0  0  0  0  0  0  0  0  0  0  0
  1  3  2  0  0  0  0
  2  1  1  0  0  0  0
  4  7  1  0  0  0  0
  4  6  1  0  0  0  0
  5  8  1  0  0  0  0
  6  9  1  6  0  0  0
  6  8  1  0  0  0  0
  7  1  1  6  0  0  0
  7  5  1  0  0  0  0
  9 10  1  0  0  0  0
 10 11  1  0  0  0  0
 11 12  1  1  0  0  0
 11 15  1  0  0  0  0
 15 13  1  0  0  0  0
 15 14  1  1  0  0  0
 16  2  1  0  0  0  0
 17 16  1  0  0  0  0
 18 17  2  0  0  0  0
 19 21  1  0  0  0  0
 19 17  1  0  0  0  0
 20 19  1  0  0  0  0
 22 23  2  0  0  0  0
 22 19  1  0  0  0  0
 24 25  1  0  0  0  0
 25 22  1  0  0  0  0
M  END
>  <MODEL>
2

>  <REMARK>
 VINA RESULT:      -6.5      2.305      5.019
  Name = 
  10 active torsions:
  status: ('A' for Active; 'I' for Inactive)
    1  A    between atoms: C_3  and  O_9
    2  A    between atoms: C_3  and  C_14
    3  A    between atoms: C_4  and  C_11
    4  A    between atoms: C_4  and  N_17
    5  A    between atoms: C_7  and  C_23
    6  A    between atoms: C_8  and  C_18
    7  A    between atoms: C_8  and  N_20
    8  A    between atoms: C_13  and  N_17
    9  A    between atoms: C_13  and  C_19
   10  A    between atoms: C_14  and  C_18
                            x       y       z     vdW  Elec       q    Type
                         _______ _______ _______ _____ _____    ______ ____

>  <TORSDO>
F 10

$$$$
=
 OpenBabel11072411353D

 25 25  0  0  1  0  0  0  0  0999 V2000
  161.4930  206.4990  151.3000 C   0  0  0  0  0  0  0  0  0  0  0  0
  161.1990  205.3930  150.4410 N   0  0  0  0  0  2  0  0  0  0  0  0
  162.0440  206.2830  152.4120 O   0  0  0  0  0  0  0  0  0  0  0  0
  162.3190  208.4420  150.1920 O   0  0  0  0  0  0  0  0  0  0  0  0
  160.8670  208.7950  152.0310 C   0  0  0  0  0  2  0  0  0  0  0  0
  162.3130  209.8260  150.4640 C   0  0  2  0  0  3  0  0  0  0  0  0
  161.2100  207.9030  150.8640 C   0  0  2  0  0  3  0  0  0  0  0  0
  161.2990  210.1410  151.5470 C   0  0  0  0  0  2  0  0  0  0  0  0
  162.0310  210.6230  149.1940 C   0  0  0  0  0  2  0  0  0  0  0  0
  161.5210  211.9460  149.5190 N   0  0  0  0  0  2  0  0  0  0  0  0
  161.7870  212.8070  148.3780 C   0  0  1  0  0  3  0  0  0  0  0  0
  163.1320  212.6910  148.0210 O   0  0  0  0  0  1  0  0  0  0  0  0
  159.5840  212.7930  147.4460 O   0  0  0  0  0  1  0  0  0  0  0  0
  161.3890  213.0460  145.9260 C   0  0  0  0  0  1  0  0  0  0  0  0
  160.9020  212.3970  147.2080 C   0  0  1  0  0  3  0  0  0  0  0  0
  160.5900  205.5410  149.1260 C   0  0  0  0  0  2  0  0  0  0  0  0
  161.3640  204.7780  148.0900 C   0  0  0  0  0  0  0  0  0  0  0  0
  161.5200  203.5740  148.2350 O   0  0  0  0  0  0  0  0  0  0  0  0
  161.9930  205.4790  146.9080 C   0  0  0  0  0  0  0  0  0  0  0  0
  163.1830  204.8310  146.5720 O   0  0  0  0  0  1  0  0  0  0  0  0
  162.2870  206.8060  147.2380 O   0  0  0  0  0  1  0  0  0  0  0  0
  161.0660  205.4420  145.7240 C   0  0  0  0  0  0  0  0  0  0  0  0
  160.1840  206.3290  145.5770 O   0  0  0  0  0  0  0  0  0  0  0  0
  160.7300  203.2060  144.9880 O   0  0  0  0  0  1  0  0  0  0  0  0
  161.2050  204.4390  144.7660 O   0  0  0  0  0  0  0  0  0  0  0  0
  1  3  2  0  0  0  0
  2  1  1  0  0  0  0
  4  6  1  0  0  0  0
  4  7  1  0  0  0  0
  6  9  1  6  0  0  0
  6  8  1  0  0  0  0
  7  1  1  1  0  0  0
  7  5  1  0  0  0  0
  8  5  1  0  0  0  0
  9 10  1  0  0  0  0
 11 12  1  6  0  0  0
 11 10  1  0  0  0  0
 15 14  1  6  0  0  0
 15 13  1  0  0  0  0
 15 11  1  0  0  0  0
 16  2  1  0  0  0  0
 17 18  2  0  0  0  0
 17 16  1  0  0  0  0
 19 21  1  0  0  0  0
 19 17  1  0  0  0  0
 20 19  1  0  0  0  0
 22 19  1  0  0  0  0
 23 22  2  0  0  0  0
 25 24  1  0  0  0  0
 25 22  1  0  0  0  0
M  END
>  <MODEL>
3

>  <REMARK>
 VINA RESULT:      -6.4      2.518      5.585
  Name = 
  10 active torsions:
  status: ('A' for Active; 'I' for Inactive)
    1  A    between atoms: C_3  and  O_9
    2  A    between atoms: C_3  and  C_14
    3  A    between atoms: C_4  and  C_11
    4  A    between atoms: C_4  and  N_17
    5  A    between atoms: C_7  and  C_23
    6  A    between atoms: C_8  and  C_18
    7  A    between atoms: C_8  and  N_20
    8  A    between atoms: C_13  and  N_17
    9  A    between atoms: C_13  and  C_19
   10  A    between atoms: C_14  and  C_18
                            x       y       z     vdW  Elec       q    Type
                         _______ _______ _______ _____ _____    ______ ____

>  <TORSDO>
F 10

$$$$
=
 OpenBabel11072411353D

 25 25  0  0  1  0  0  0  0  0999 V2000
  161.1830  203.4440  150.9450 C   0  0  0  0  0  0  0  0  0  0  0  0
  161.1390  203.1870  149.5380 N   0  0  0  0  0  2  0  0  0  0  0  0
  161.3930  202.4890  151.7380 O   0  0  0  0  0  0  0  0  0  0  0  0
  162.0970  205.6460  151.0070 O   0  0  0  0  0  0  0  0  0  0  0  0
  161.0390  204.8700  152.9800 C   0  0  0  0  0  2  0  0  0  0  0  0
  162.3440  206.5970  152.0180 C   0  0  2  0  0  3  0  0  0  0  0  0
  161.0470  204.8390  151.4720 C   0  0  2  0  0  3  0  0  0  0  0  0
  161.5830  206.2300  153.2780 C   0  0  0  0  0  2  0  0  0  0  0  0
  161.9790  207.9990  151.5400 C   0  0  0  0  0  2  0  0  0  0  0  0
  161.0430  208.6290  152.4580 N   0  0  0  0  0  2  0  0  0  0  0  0
  161.5490  209.9610  152.7480 C   0  0  1  0  0  3  0  0  0  0  0  0
  160.8400  210.8950  151.9900 O   0  0  0  0  0  1  0  0  0  0  0  0
  160.8690  211.5490  154.4020 O   0  0  0  0  0  1  0  0  0  0  0  0
  160.4360  209.2630  154.8700 C   0  0  0  0  0  1  0  0  0  0  0  0
  161.3830  210.2620  154.2320 C   0  0  1  0  0  3  0  0  0  0  0  0
  160.9300  204.2270  148.5400 C   0  0  0  0  0  2  0  0  0  0  0  0
  161.3840  203.7660  147.1850 C   0  0  0  0  0  0  0  0  0  0  0  0
  161.2700  202.5840  146.8930 O   0  0  0  0  0  0  0  0  0  0  0  0
  162.0230  204.7230  146.2050 C   0  0  0  0  0  0  0  0  0  0  0  0
  161.7120  204.3210  144.9040 O   0  0  0  0  0  1  0  0  0  0  0  0
  163.4130  204.7060  146.3560 O   0  0  0  0  0  1  0  0  0  0  0  0
  161.5030  206.1180  146.4210 C   0  0  0  0  0  0  0  0  0  0  0  0
  160.4420  206.4970  145.8560 O   0  0  0  0  0  0  0  0  0  0  0  0
  161.5090  207.7450  148.1550 O   0  0  0  0  0  1  0  0  0  0  0  0
  162.1790  206.9850  147.2770 O   0  0  0  0  0  0  0  0  0  0  0  0
  1  3  2  0  0  0  0
  2  1  1  0  0  0  0
  4  7  1  0  0  0  0
  4  6  1  0  0  0  0
  5  8  1  0  0  0  0
  6  9  1  6  0  0  0
  6  8  1  0  0  0  0
  7  1  1  1  0  0  0
  7  5  1  0  0  0  0
  9 10  1  0  0  0  0
 10 11  1  0  0  0  0
 11 12  1  6  0  0  0
 11 15  1  0  0  0  0
 15 13  1  0  0  0  0
 15 14  1  6  0  0  0
 16  2  1  0  0  0  0
 17 16  1  0  0  0  0
 18 17  2  0  0  0  0
 19 21  1  0  0  0  0
 19 22  1  0  0  0  0
 19 17  1  0  0  0  0
 20 19  1  0  0  0  0
 22 25  1  0  0  0  0
 23 22  2  0  0  0  0
 25 24  1  0  0  0  0
M  END
>  <MODEL>
4

>  <REMARK>
 VINA RESULT:      -6.4      2.191      5.137
  Name = 
  10 active torsions:
  status: ('A' for Active; 'I' for Inactive)
    1  A    between atoms: C_3  and  O_9
    2  A    between atoms: C_3  and  C_14
    3  A    between atoms: C_4  and  C_11
    4  A    between atoms: C_4  and  N_17
    5  A    between atoms: C_7  and  C_23
    6  A    between atoms: C_8  and  C_18
    7  A    between atoms: C_8  and  N_20
    8  A    between atoms: C_13  and  N_17
    9  A    between atoms: C_13  and  C_19
   10  A    between atoms: C_14  and  C_18
                            x       y       z     vdW  Elec       q    Type
                         _______ _______ _______ _____ _____    ______ ____

>  <TORSDO>
F 10

$$$$
=
 OpenBabel11072411353D

 25 25  0  0  1  0  0  0  0  0999 V2000
  160.9780  203.4860  149.9470 C   0  0  0  0  0  0  0  0  0  0  0  0
  161.1600  203.7540  148.5540 N   0  0  0  0  0  2  0  0  0  0  0  0
  161.0440  202.2970  150.3580 O   0  0  0  0  0  0  0  0  0  0  0  0
  161.7530  205.5950  150.7450 O   0  0  0  0  0  0  0  0  0  0  0  0
  160.8240  204.1200  152.3500 C   0  0  0  0  0  2  0  0  0  0  0  0
  161.9780  206.1620  152.0160 C   0  0  2  0  0  3  0  0  0  0  0  0
  160.7740  204.6040  150.9220 C   0  0  2  0  0  3  0  0  0  0  0  0
  161.2920  205.3330  153.0860 C   0  0  0  0  0  2  0  0  0  0  0  0
  161.5070  207.6120  152.0520 C   0  0  0  0  0  2  0  0  0  0  0  0
  162.1140  208.3770  150.9740 N   0  0  0  0  0  2  0  0  0  0  0  0
  162.3150  209.7320  151.4630 C   0  0  1  0  0  3  0  0  0  0  0  0
  162.0300  210.6360  150.4380 O   0  0  0  0  0  1  0  0  0  0  0  0
  162.1450  210.4670  153.7330 O   0  0  0  0  0  1  0  0  0  0  0  0
  160.3420  211.0150  152.2920 C   0  0  0  0  0  1  0  0  0  0  0  0
  161.4000  209.9900  152.6530 C   0  0  1  0  0  3  0  0  0  0  0  0
  161.1290  205.0960  147.9870 C   0  0  0  0  0  2  0  0  0  0  0  0
  161.8740  205.1410  146.6840 C   0  0  0  0  0  0  0  0  0  0  0  0
  163.0960  205.1430  146.6990 O   0  0  0  0  0  0  0  0  0  0  0  0
  161.1400  205.2370  145.3650 C   0  0  0  0  0  0  0  0  0  0  0  0
  162.0210  205.6960  144.3840 O   0  0  0  0  0  1  0  0  0  0  0  0
  160.0800  206.1430  145.4710 O   0  0  0  0  0  1  0  0  0  0  0  0
  160.6180  203.8860  144.9580 C   0  0  0  0  0  0  0  0  0  0  0  0
  159.6450  203.7920  144.1620 O   0  0  0  0  0  0  0  0  0  0  0  0
  160.5220  201.6200  145.6730 O   0  0  0  0  0  1  0  0  0  0  0  0
  161.2340  202.7310  145.4360 O   0  0  0  0  0  0  0  0  0  0  0  0
  1  3  2  0  0  0  0
  2  1  1  0  0  0  0
  4  7  1  0  0  0  0
  4  6  1  0  0  0  0
  5  8  1  0  0  0  0
  6  9  1  6  0  0  0
  6  8  1  0  0  0  0
  7  1  1  6  0  0  0
  7  5  1  0  0  0  0
 10 11  1  0  0  0  0
 10  9  1  0  0  0  0
 11 12  1  6  0  0  0
 11 15  1  0  0  0  0
 15 14  1  6  0  0  0
 15 13  1  0  0  0  0
 16  2  1  0  0  0  0
 17 18  2  0  0  0  0
 17 16  1  0  0  0  0
 19 21  1  0  0  0  0
 19 17  1  0  0  0  0
 20 19  1  0  0  0  0
 22 19  1  0  0  0  0
 22 25  1  0  0  0  0
 23 22  2  0  0  0  0
 25 24  1  0  0  0  0
M  END
>  <MODEL>
5

>  <REMARK>
 VINA RESULT:      -6.4      1.739      4.618
  Name = 
  10 active torsions:
  status: ('A' for Active; 'I' for Inactive)
    1  A    between atoms: C_3  and  O_9
    2  A    between atoms: C_3  and  C_14
    3  A    between atoms: C_4  and  C_11
    4  A    between atoms: C_4  and  N_17
    5  A    between atoms: C_7  and  C_23
    6  A    between atoms: C_8  and  C_18
    7  A    between atoms: C_8  and  N_20
    8  A    between atoms: C_13  and  N_17
    9  A    between atoms: C_13  and  C_19
   10  A    between atoms: C_14  and  C_18
                            x       y       z     vdW  Elec       q    Type
                         _______ _______ _______ _____ _____    ______ ____

>  <TORSDO>
F 10

$$$$
=
 OpenBabel11072411353D

 25 25  0  0  1  0  0  0  0  0999 V2000
  161.2350  205.9880  147.2530 C   0  0  0  0  0  0  0  0  0  0  0  0
  161.2860  204.5780  147.0160 N   0  0  0  0  0  2  0  0  0  0  0  0
  160.6270  206.7260  146.4330 O   0  0  0  0  0  0  0  0  0  0  0  0
  160.8930  206.6230  149.5250 O   0  0  0  0  0  0  0  0  0  0  0  0
  162.3610  207.9730  148.2470 C   0  0  0  0  0  2  0  0  0  0  0  0
  161.2130  207.7530  150.3060 C   0  0  2  0  0  3  0  0  0  0  0  0
  161.8390  206.5790  148.4880 C   0  0  2  0  0  3  0  0  0  0  0  0
  162.2560  208.5980  149.6000 C   0  0  0  0  0  2  0  0  0  0  0  0
  161.6880  207.3320  151.6940 C   0  0  0  0  0  2  0  0  0  0  0  0
  160.8660  207.9430  152.7260 N   0  0  0  0  0  2  0  0  0  0  0  0
  160.8260  207.0230  153.8510 C   0  0  1  0  0  3  0  0  0  0  0  0
  161.7250  205.9790  153.6210 O   0  0  0  0  0  1  0  0  0  0  0  0
  161.0080  209.1310  154.9660 O   0  0  0  0  0  1  0  0  0  0  0  0
  160.3450  207.2750  156.2870 C   0  0  0  0  0  1  0  0  0  0  0  0
  161.2010  207.7580  155.1310 C   0  0  1  0  0  3  0  0  0  0  0  0
  161.9400  203.6390  147.9180 C   0  0  0  0  0  2  0  0  0  0  0  0
  160.9400  202.9920  148.8310 C   0  0  0  0  0  0  0  0  0  0  0  0
  160.4230  203.6620  149.7140 O   0  0  0  0  0  0  0  0  0  0  0  0
  160.6040  201.5230  148.7110 C   0  0  0  0  0  0  0  0  0  0  0  0
  159.2510  201.3370  149.0030 O   0  0  0  0  0  1  0  0  0  0  0  0
  161.3620  200.7810  149.6230 O   0  0  0  0  0  1  0  0  0  0  0  0
  160.8720  201.0380  147.3120 C   0  0  0  0  0  0  0  0  0  0  0  0
  161.5830  200.0160  147.1180 O   0  0  0  0  0  0  0  0  0  0  0  0
  160.0730  201.0600  145.0730 O   0  0  0  0  0  1  0  0  0  0  0  0
  160.3030  201.7010  146.2270 O   0  0  0  0  0  0  0  0  0  0  0  0
  2  1  1  0  0  0  0
  2 16  1  0  0  0  0
  3  1  2  0  0  0  0
  4  6  1  0  0  0  0
  5  7  1  0  0  0  0
  5  8  1  0  0  0  0
  6  9  1  1  0  0  0
  7  1  1  6  0  0  0
  7  4  1  0  0  0  0
  8  6  1  0  0  0  0
  9 10  1  0  0  0  0
 10 11  1  0  0  0  0
 11 12  1  6  0  0  0
 11 15  1  0  0  0  0
 13 15  1  0  0  0  0
 15 14  1  1  0  0  0
 16 17  1  0  0  0  0
 17 18  2  0  0  0  0
 19 17  1  0  0  0  0
 19 20  1  0  0  0  0
 19 21  1  0  0  0  0
 22 19  1  0  0  0  0
 23 22  2  0  0  0  0
 24 25  1  0  0  0  0
 25 22  1  0  0  0  0
M  END
>  <MODEL>
6

>  <REMARK>
 VINA RESULT:      -6.1      2.316      4.521
  Name = 
  10 active torsions:
  status: ('A' for Active; 'I' for Inactive)
    1  A    between atoms: C_3  and  O_9
    2  A    between atoms: C_3  and  C_14
    3  A    between atoms: C_4  and  C_11
    4  A    between atoms: C_4  and  N_17
    5  A    between atoms: C_7  and  C_23
    6  A    between atoms: C_8  and  C_18
    7  A    between atoms: C_8  and  N_20
    8  A    between atoms: C_13  and  N_17
    9  A    between atoms: C_13  and  C_19
   10  A    between atoms: C_14  and  C_18
                            x       y       z     vdW  Elec       q    Type
                         _______ _______ _______ _____ _____    ______ ____

>  <TORSDO>
F 10

$$$$
=
 OpenBabel11072411353D

 25 25  0  0  1  0  0  0  0  0999 V2000
  161.9590  208.3580  149.0810 C   0  0  0  0  0  0  0  0  0  0  0  0
  162.3270  207.7000  147.8660 N   0  0  0  0  0  2  0  0  0  0  0  0
  162.0120  209.6150  149.1400 O   0  0  0  0  0  0  0  0  0  0  0  0
  162.5250  207.1370  151.0500 O   0  0  0  0  0  0  0  0  0  0  0  0
  160.6480  206.3750  149.8220 C   0  0  0  0  0  2  0  0  0  0  0  0
  162.1240  205.9090  151.6150 C   0  0  2  0  0  3  0  0  0  0  0  0
  161.4550  207.5740  150.2530 C   0  0  2  0  0  3  0  0  0  0  0  0
  160.8430  205.4280  150.9610 C   0  0  0  0  0  2  0  0  0  0  0  0
  161.9590  206.0390  153.1260 C   0  0  0  0  0  2  0  0  0  0  0  0
  160.7790  206.8260  153.4490 N   0  0  0  0  0  2  0  0  0  0  0  0
  161.2390  208.0990  153.9810 C   0  0  1  0  0  3  0  0  0  0  0  0
  160.5320  209.1340  153.3670 O   0  0  0  0  0  1  0  0  0  0  0  0
  160.8400  209.4580  155.9090 O   0  0  0  0  0  1  0  0  0  0  0  0
  159.7830  207.3340  155.8580 C   0  0  0  0  0  1  0  0  0  0  0  0
  161.0150  208.1380  155.4870 C   0  0  1  0  0  3  0  0  0  0  0  0
  162.2720  206.2550  147.6890 C   0  0  0  0  0  2  0  0  0  0  0  0
  161.4560  205.8950  146.4820 C   0  0  0  0  0  0  0  0  0  0  0  0
  160.3960  206.4730  146.2900 O   0  0  0  0  0  0  0  0  0  0  0  0
  161.8950  204.8000  145.5370 C   0  0  0  0  0  0  0  0  0  0  0  0
  163.2730  204.6120  145.6640 O   0  0  0  0  0  1  0  0  0  0  0  0
  161.6170  205.1660  144.2160 O   0  0  0  0  0  1  0  0  0  0  0  0
  161.1950  203.5110  145.8670 C   0  0  0  0  0  0  0  0  0  0  0  0
  161.2380  203.0440  147.0370 O   0  0  0  0  0  0  0  0  0  0  0  0
  160.0970  201.5670  145.0490 O   0  0  0  0  0  1  0  0  0  0  0  0
  160.4660  202.8450  144.8840 O   0  0  0  0  0  0  0  0  0  0  0  0
  1  3  2  0  0  0  0
  2  1  1  0  0  0  0
  4  6  1  0  0  0  0
  5  7  1  0  0  0  0
  5  8  1  0  0  0  0
  6  9  1  1  0  0  0
  7  1  1  6  0  0  0
  7  4  1  0  0  0  0
  8  6  1  0  0  0  0
  9 10  1  0  0  0  0
 10 11  1  0  0  0  0
 11 12  1  6  0  0  0
 11 15  1  0  0  0  0
 15 14  1  6  0  0  0
 15 13  1  0  0  0  0
 16  2  1  0  0  0  0
 17 16  1  0  0  0  0
 18 17  2  0  0  0  0
 19 20  1  0  0  0  0
 19 22  1  0  0  0  0
 19 17  1  0  0  0  0
 21 19  1  0  0  0  0
 22 23  2  0  0  0  0
 25 24  1  0  0  0  0
 25 22  1  0  0  0  0
M  END
>  <MODEL>
7

>  <REMARK>
 VINA RESULT:      -6.1      2.031      3.630
  Name = 
  10 active torsions:
  status: ('A' for Active; 'I' for Inactive)
    1  A    between atoms: C_3  and  O_9
    2  A    between atoms: C_3  and  C_14
    3  A    between atoms: C_4  and  C_11
    4  A    between atoms: C_4  and  N_17
    5  A    between atoms: C_7  and  C_23
    6  A    between atoms: C_8  and  C_18
    7  A    between atoms: C_8  and  N_20
    8  A    between atoms: C_13  and  N_17
    9  A    between atoms: C_13  and  C_19
   10  A    between atoms: C_14  and  C_18
                            x       y       z     vdW  Elec       q    Type
                         _______ _______ _______ _____ _____    ______ ____

>  <TORSDO>
F 10

$$$$
=
 OpenBabel11072411353D

 25 25  0  0  1  0  0  0  0  0999 V2000
  160.6550  202.2730  149.5450 C   0  0  0  0  0  0  0  0  0  0  0  0
  161.2420  202.3150  148.2410 N   0  0  0  0  0  2  0  0  0  0  0  0
  160.1820  201.1860  149.9700 O   0  0  0  0  0  0  0  0  0  0  0  0
  161.9500  204.0150  150.5300 O   0  0  0  0  0  0  0  0  0  0  0  0
  160.1410  203.1750  151.8070 C   0  0  0  0  0  2  0  0  0  0  0  0
  162.0390  204.5910  151.8140 C   0  0  2  0  0  3  0  0  0  0  0  0
  160.6550  203.4850  150.4240 C   0  0  2  0  0  3  0  0  0  0  0  0
  160.8330  204.1980  152.6470 C   0  0  0  0  0  2  0  0  0  0  0  0
  162.1750  206.1070  151.7180 C   0  0  0  0  0  2  0  0  0  0  0  0
  160.8830  206.7250  151.4630 N   0  0  0  0  0  2  0  0  0  0  0  0
  160.9500  208.0910  151.9560 C   0  0  1  0  0  3  0  0  0  0  0  0
  161.1000  208.0700  153.3440 O   0  0  0  0  0  1  0  0  0  0  0  0
  161.9360  208.9150  149.9380 O   0  0  0  0  0  1  0  0  0  0  0  0
  162.2790  210.2030  151.9010 C   0  0  0  0  0  1  0  0  0  0  0  0
  162.1310  208.8110  151.3170 C   0  0  1  0  0  3  0  0  0  0  0  0
  161.8400  203.5150  147.6710 C   0  0  0  0  0  2  0  0  0  0  0  0
  161.5040  203.6370  146.2120 C   0  0  0  0  0  0  0  0  0  0  0  0
  161.0570  202.6630  145.6240 O   0  0  0  0  0  0  0  0  0  0  0  0
  161.7570  204.9210  145.4550 C   0  0  0  0  0  0  0  0  0  0  0  0
  161.5590  204.6940  144.0910 O   0  0  0  0  0  1  0  0  0  0  0  0
  163.0770  205.3400  145.6490 O   0  0  0  0  0  1  0  0  0  0  0  0
  160.8080  205.9950  145.9130 C   0  0  0  0  0  0  0  0  0  0  0  0
  159.7330  206.2040  145.2880 O   0  0  0  0  0  0  0  0  0  0  0  0
  160.4330  206.5390  148.1970 O   0  0  0  0  0  1  0  0  0  0  0  0
  161.1020  206.7400  147.0530 O   0  0  0  0  0  0  0  0  0  0  0  0
  1  3  2  0  0  0  0
  2  1  1  0  0  0  0
  4  6  1  0  0  0  0
  5  8  1  0  0  0  0
  6  9  1  6  0  0  0
  6  8  1  0  0  0  0
  7  1  1  6  0  0  0
  7  4  1  0  0  0  0
  7  5  1  0  0  0  0
 10  9  1  0  0  0  0
 10 11  1  0  0  0  0
 11 12  1  1  0  0  0
 13 15  1  0  0  0  0
 15 14  1  1  0  0  0
 15 11  1  0  0  0  0
 16  2  1  0  0  0  0
 17 16  1  0  0  0  0
 18 17  2  0  0  0  0
 19 21  1  0  0  0  0
 19 22  1  0  0  0  0
 19 17  1  0  0  0  0
 20 19  1  0  0  0  0
 22 25  1  0  0  0  0
 23 22  2  0  0  0  0
 25 24  1  0  0  0  0
M  END
>  <MODEL>
8

>  <REMARK>
 VINA RESULT:      -6.0      1.665      4.672
  Name = 
  10 active torsions:
  status: ('A' for Active; 'I' for Inactive)
    1  A    between atoms: C_3  and  O_9
    2  A    between atoms: C_3  and  C_14
    3  A    between atoms: C_4  and  C_11
    4  A    between atoms: C_4  and  N_17
    5  A    between atoms: C_7  and  C_23
    6  A    between atoms: C_8  and  C_18
    7  A    between atoms: C_8  and  N_20
    8  A    between atoms: C_13  and  N_17
    9  A    between atoms: C_13  and  C_19
   10  A    between atoms: C_14  and  C_18
                            x       y       z     vdW  Elec       q    Type
                         _______ _______ _______ _____ _____    ______ ____

>  <TORSDO>
F 10

$$$$
=
 OpenBabel11072411353D

 25 25  0  0  1  0  0  0  0  0999 V2000
  161.2070  205.9570  147.1310 C   0  0  0  0  0  0  0  0  0  0  0  0
  161.2470  204.5540  146.8560 N   0  0  0  0  0  2  0  0  0  0  0  0
  160.6330  206.7270  146.3160 O   0  0  0  0  0  0  0  0  0  0  0  0
  160.8050  206.5480  149.4050 O   0  0  0  0  0  0  0  0  0  0  0  0
  162.3450  207.8920  148.2080 C   0  0  0  0  0  2  0  0  0  0  0  0
  161.1250  207.6520  150.2230 C   0  0  2  0  0  3  0  0  0  0  0  0
  161.7830  206.5050  148.3990 C   0  0  2  0  0  3  0  0  0  0  0  0
  162.2100  208.4870  149.5710 C   0  0  0  0  0  2  0  0  0  0  0  0
  161.5440  207.1880  151.6150 C   0  0  0  0  0  2  0  0  0  0  0  0
  160.9210  208.0100  152.6400 N   0  0  0  0  0  2  0  0  0  0  0  0
  160.7550  207.1790  153.8210 C   0  0  1  0  0  3  0  0  0  0  0  0
  161.7620  206.2140  153.8480 O   0  0  0  0  0  1  0  0  0  0  0  0
  160.3610  209.3290  154.7940 O   0  0  0  0  0  1  0  0  0  0  0  0
  159.9880  207.4410  156.1820 C   0  0  0  0  0  1  0  0  0  0  0  0
  160.8300  208.0440  155.0730 C   0  0  1  0  0  3  0  0  0  0  0  0
  161.8620  203.5810  147.7490 C   0  0  0  0  0  2  0  0  0  0  0  0
  161.0260  202.3370  147.8390 C   0  0  0  0  0  0  0  0  0  0  0  0
  160.6880  201.7740  146.8070 O   0  0  0  0  0  0  0  0  0  0  0  0
  160.5550  201.8040  149.1730 C   0  0  0  0  0  0  0  0  0  0  0  0
  161.3430  200.7090  149.5330 O   0  0  0  0  0  1  0  0  0  0  0  0
  159.2240  201.3830  149.0790 O   0  0  0  0  0  1  0  0  0  0  0  0
  160.6810  202.8640  150.2330 C   0  0  0  0  0  0  0  0  0  0  0  0
  159.8440  203.8050  150.2960 O   0  0  0  0  0  0  0  0  0  0  0  0
  162.1360  203.8850  151.8120 O   0  0  0  0  0  1  0  0  0  0  0  0
  161.7080  202.7880  151.1710 O   0  0  0  0  0  0  0  0  0  0  0  0
  2  1  1  0  0  0  0
  2 16  1  0  0  0  0
  3  1  2  0  0  0  0
  4  6  1  0  0  0  0
  5  7  1  0  0  0  0
  5  8  1  0  0  0  0
  6  9  1  1  0  0  0
  7  1  1  6  0  0  0
  7  4  1  0  0  0  0
  8  6  1  0  0  0  0
  9 10  1  0  0  0  0
 10 11  1  0  0  0  0
 11 12  1  1  0  0  0
 11 15  1  0  0  0  0
 13 15  1  0  0  0  0
 15 14  1  1  0  0  0
 16 17  1  0  0  0  0
 17 19  1  0  0  0  0
 18 17  2  0  0  0  0
 19 20  1  0  0  0  0
 19 22  1  0  0  0  0
 21 19  1  0  0  0  0
 22 23  2  0  0  0  0
 22 25  1  0  0  0  0
 25 24  1  0  0  0  0
M  END
>  <MODEL>
9

>  <REMARK>
 VINA RESULT:      -6.0      2.319      4.920
  Name = 
  10 active torsions:
  status: ('A' for Active; 'I' for Inactive)
    1  A    between atoms: C_3  and  O_9
    2  A    between atoms: C_3  and  C_14
    3  A    between atoms: C_4  and  C_11
    4  A    between atoms: C_4  and  N_17
    5  A    between atoms: C_7  and  C_23
    6  A    between atoms: C_8  and  C_18
    7  A    between atoms: C_8  and  N_20
    8  A    between atoms: C_13  and  N_17
    9  A    between atoms: C_13  and  C_19
   10  A    between atoms: C_14  and  C_18
                            x       y       z     vdW  Elec       q    Type
                         _______ _______ _______ _____ _____    ______ ____

>  <TORSDO>
F 10

$$$$
