=
 OpenBabel11072410023D

 55 62  0  0  1  0  0  0  0  0999 V2000
  161.2040  208.6870  149.3800 C   0  0  2  0  0  3  0  0  0  0  0  0
  162.1880  205.5210  153.2560 C   0  0  2  0  0  3  0  0  0  0  0  0
  160.0800  207.6560  149.6040 C   0  0  0  0  0  2  0  0  0  0  0  0
  162.1510  208.2120  148.2840 C   0  0  0  0  0  2  0  0  0  0  0  0
  161.4430  205.3400  150.3530 C   0  0  1  0  0  3  0  0  0  0  0  0
  162.8950  204.5550  152.2940 C   0  0  0  0  0  2  0  0  0  0  0  0
  160.8570  205.0500  153.8630 C   0  0  0  0  0  2  0  0  0  0  0  0
  160.5280  204.3130  150.6160 O   0  0  0  0  0  0  0  0  0  0  0  0
  162.7410  210.3570  150.3900 C   0  0  0  0  0  1  0  0  0  0  0  0
  162.3190  207.0210  152.9560 C   0  0  0  0  0  2  0  0  0  0  0  0
  161.1820  209.0650  151.9460 C   0  0  1  0  0  3  0  0  0  0  0  0
  162.0150  209.0380  150.6450 C   0  0  1  0  0  3  0  0  0  0  0  0
  162.8500  204.9630  150.8200 C   0  0  0  0  0  2  0  0  0  0  0  0
  160.1430  206.5590  148.7040 O   0  0  0  0  0  0  0  0  0  0  0  0
  160.4270  202.8930  152.8550 O   0  0  0  0  0  1  0  0  0  0  0  0
  161.3560  205.8350  148.8770 C   0  0  1  0  0  0  0  0  0  0  0  0
  161.3980  205.0150  146.4350 C   0  0  1  0  0  3  0  0  0  0  0  0
  159.9500  204.2010  152.9640 C   0  0  2  0  0  3  0  0  0  0  0  0
  159.6630  204.8200  151.5960 C   0  0  0  0  0  2  0  0  0  0  0  0
  160.9990  207.6560  152.5100 C   0  0  0  0  0  2  0  0  0  0  0  0
  162.5770  206.7640  148.5310 C   0  0  1  0  0  3  0  0  0  0  0  0
  163.4160  206.2800  147.3480 C   0  0  0  0  0  2  0  0  0  0  0  0
  162.5270  206.0140  146.1360 C   0  0  0  0  0  2  0  0  0  0  0  0
  161.2980  204.6100  147.9150 C   0  0  1  0  0  3  0  0  0  0  0  0
  161.7470  209.9950  153.0350 C   0  0  0  0  0  2  0  0  0  0  0  0
  159.2890  211.6490  155.2700 C   0  0  0  0  0  0  0  0  0  0  0  0
  159.5920  210.8280  154.0310 C   0  0  1  0  0  3  0  0  0  0  0  0
  159.9600  211.5910  152.2420 C   0  0  0  0  0  2  0  0  0  0  0  0
  158.7050  211.2710  152.9450 N   0  0  0  0  0  0  0  0  0  0  0  0
  160.8690  211.2130  153.3650 C   0  0  2  0  0  3  0  0  0  0  0  0
  158.1340  212.3390  155.3730 C   0  0  0  0  0  3  0  0  0  0  0  0
  157.1570  212.4390  154.2570 C   0  0  0  0  0  3  0  0  0  0  0  0
  157.4510  211.9290  153.0610 C   0  0  0  0  0  3  0  0  0  0  0  0
  160.2130  211.5920  156.4420 C   0  0  0  0  0  2  0  0  0  0  0  0
  162.2060  208.4470  156.8990 N   0  0  0  0  0  0  0  0  0  0  0  0
  162.0290  209.7790  156.6920 C   0  0  0  0  0  0  0  0  0  0  0  0
  160.9240  206.5810  157.2600 O   0  0  0  0  0  0  0  0  0  0  0  0
  163.1870  210.6980  156.5050 C   0  0  0  0  0  1  0  0  0  0  0  0
  159.7070  208.8590  156.9180 S   0  0  0  0  0  0  0  0  0  0  0  0
  160.7000  210.1990  156.6710 C   0  0  2  0  0  3  0  0  0  0  0  0
  161.0200  207.8150  157.0420 C   0  0  0  0  0  0  0  0  0  0  0  0
  162.3090  203.6770  148.1970 O   0  0  0  0  0  0  0  0  0  0  0  0
  162.0810  202.6010  147.3340 C   0  0  1  0  0  3  0  0  0  0  0  0
  162.0280  201.2990  148.1300 C   0  0  0  0  0  2  0  0  0  0  0  0
  160.8570  200.2980  146.1590 C   0  0  0  0  0  0  0  0  0  0  0  0
  160.5170  201.6670  145.6250 C   0  0  0  0  0  2  0  0  0  0  0  0
  161.5960  200.1450  147.2700 C   0  0  0  0  0  3  0  0  0  0  0  0
  160.7400  202.7890  146.6400 C   0  0  0  0  0  2  0  0  0  0  0  0
  161.2140  198.0170  145.2470 C   0  0  0  0  0  1  0  0  0  0  0  0
  160.4270  199.1880  145.4210 O   0  0  0  0  0  0  0  0  0  0  0  0
  160.1800  205.5300  145.9890 O   0  0  0  0  0  0  0  0  0  0  0  0
  160.5040  206.2930  144.8650 C   0  0  0  0  0  2  0  0  0  0  0  0
  160.7970  205.3970  143.7130 C   0  0  0  0  0  0  0  0  0  0  0  0
  160.3020  204.2400  143.6750 O   0  0  0  0  0  0  0  0  0  0  0  0
  161.6500  205.8420  142.6640 N   0  0  0  0  0  1  0  0  0  0  0  0
  1  4  1  6  0  0  0
  1  3  1  0  0  0  0
  1 12  1  0  0  0  0
  2  6  1  6  0  0  0
  2  7  1  0  0  0  0
  4 21  1  0  0  0  0
  5  8  1  0  0  0  0
  5 13  1  6  0  0  0
  8 19  1  0  0  0  0
 10  2  1  0  0  0  0
 11 20  1  0  0  0  0
 11 25  1  1  0  0  0
 12  9  1  6  0  0  0
 12 11  1  0  0  0  0
 13  6  1  0  0  0  0
 14  3  1  0  0  0  0
 16 14  1  6  0  0  0
 16  5  1  0  0  0  0
 17 51  1  1  0  0  0
 17 24  1  0  0  0  0
 18 15  1  6  0  0  0
 18  7  1  0  0  0  0
 19 18  1  0  0  0  0
 20 10  1  0  0  0  0
 21 22  1  6  0  0  0
 21 16  1  0  0  0  0
 23 17  1  0  0  0  0
 23 22  1  0  0  0  0
 24 42  1  1  0  0  0
 24 16  1  0  0  0  0
 26 31  2  0  0  0  0
 26 34  1  0  0  0  0
 27 26  1  1  0  0  0
 28 29  1  0  0  0  0
 28 30  1  0  0  0  0
 29 33  1  0  0  0  0
 29 27  1  0  0  0  0
 30 25  1  6  0  0  0
 30 27  1  0  0  0  0
 32 31  1  0  0  0  0
 33 32  2  0  0  0  0
 35 41  1  0  0  0  0
 36 35  2  0  0  0  0
 38 36  1  0  0  0  0
 39 41  1  0  0  0  0
 40 34  1  6  0  0  0
 40 36  1  0  0  0  0
 40 39  1  0  0  0  0
 41 37  2  0  0  0  0
 43 44  1  0  0  0  0
 43 42  1  1  0  0  0
 45 47  2  0  0  0  0
 46 45  1  0  0  0  0
 46 48  1  0  0  0  0
 47 44  1  0  0  0  0
 48 43  1  0  0  0  0
 49 50  1  0  0  0  0
 50 45  1  0  0  0  0
 52 51  1  0  0  0  0
 53 52  1  0  0  0  0
 54 53  2  0  0  0  0
 55 53  1  0  0  0  0
M  END
>  <MODEL>
1

>  <REMARK>
 VINA RESULT:       2.7      0.000      0.000
  Name = 
  10 active torsions:
  status: ('A' for Active; 'I' for Inactive)
    1  A    between atoms: C_3  and  C_27
    2  A    between atoms: C_4  and  C_20
    3  A    between atoms: C_4  and  C_33
    4  A    between atoms: C_5  and  C_46
    5  A    between atoms: C_12  and  O_24
    6  A    between atoms: C_19  and  O_29
    7  A    between atoms: O_24  and  C_53
    8  A    between atoms: C_27  and  O_55
    9  A    between atoms: C_35  and  O_55
   10  A    between atoms: C_40  and  C_46
                            x       y       z     vdW  Elec       q    Type
                         _______ _______ _______ _____ _____    ______ ____

>  <TORSDO>
F 10

$$$$
=
 OpenBabel11072410023D

 55 62  0  0  1  0  0  0  0  0999 V2000
  161.2830  208.2930  148.9200 C   0  0  2  0  0  3  0  0  0  0  0  0
  162.0040  205.3130  152.9960 C   0  0  2  0  0  3  0  0  0  0  0  0
  160.1310  207.2900  149.1330 C   0  0  0  0  0  2  0  0  0  0  0  0
  162.2790  207.7500  147.9010 C   0  0  0  0  0  2  0  0  0  0  0  0
  161.4120  204.9960  150.0700 C   0  0  1  0  0  3  0  0  0  0  0  0
  162.7440  204.2890  152.1230 C   0  0  0  0  0  2  0  0  0  0  0  0
  160.6340  204.8920  153.5530 C   0  0  0  0  0  2  0  0  0  0  0  0
  160.4660  203.9970  150.3320 O   0  0  0  0  0  0  0  0  0  0  0  0
  162.7920  209.9890  149.9280 C   0  0  0  0  0  1  0  0  0  0  0  0
  162.1760  206.7930  152.6290 C   0  0  0  0  0  2  0  0  0  0  0  0
  161.1300  208.8000  151.4590 C   0  0  1  0  0  3  0  0  0  0  0  0
  162.0310  208.6960  150.2080 C   0  0  1  0  0  3  0  0  0  0  0  0
  162.7850  204.6220  150.6300 C   0  0  0  0  0  2  0  0  0  0  0  0
  160.2230  206.1490  148.2940 O   0  0  0  0  0  0  0  0  0  0  0  0
  160.2220  202.6930  152.6300 O   0  0  0  0  0  1  0  0  0  0  0  0
  161.4130  205.4170  148.5680 C   0  0  1  0  0  0  0  0  0  0  0  0
  161.5710  204.4750  146.1750 C   0  0  1  0  0  3  0  0  0  0  0  0
  159.7620  204.0120  152.6490 C   0  0  2  0  0  3  0  0  0  0  0  0
  159.5590  204.5650  151.2380 C   0  0  0  0  0  2  0  0  0  0  0  0
  160.8930  207.4240  152.0820 C   0  0  0  0  0  2  0  0  0  0  0  0
  162.6660  206.3100  148.2430 C   0  0  1  0  0  3  0  0  0  0  0  0
  163.5590  205.7540  147.1330 C   0  0  0  0  0  2  0  0  0  0  0  0
  162.7310  205.4400  145.8890 C   0  0  0  0  0  2  0  0  0  0  0  0
  161.3850  204.1460  147.6660 C   0  0  1  0  0  3  0  0  0  0  0  0
  161.6520  209.7760  152.5300 C   0  0  0  0  0  2  0  0  0  0  0  0
  159.1230  212.0390  154.0310 C   0  0  0  0  0  0  0  0  0  0  0  0
  160.5540  211.5450  153.9410 C   0  0  1  0  0  3  0  0  0  0  0  0
  161.2960  210.0550  155.0130 C   0  0  0  0  0  2  0  0  0  0  0  0
  161.1180  211.4900  155.2980 N   0  0  0  0  0  0  0  0  0  0  0  0
  160.6600  210.0840  153.6620 C   0  0  2  0  0  3  0  0  0  0  0  0
  158.6800  212.6710  155.1380 C   0  0  0  0  0  3  0  0  0  0  0  0
  159.5080  212.8150  156.3640 C   0  0  0  0  0  3  0  0  0  0  0  0
  160.6980  212.2170  156.4440 C   0  0  0  0  0  3  0  0  0  0  0  0
  158.2290  211.9440  152.8380 C   0  0  0  0  0  2  0  0  0  0  0  0
  158.6980  214.2190  149.8930 N   0  0  0  0  0  0  0  0  0  0  0  0
  157.9850  213.5670  150.8490 C   0  0  0  0  0  0  0  0  0  0  0  0
  160.8820  214.4530  149.2390 O   0  0  0  0  0  0  0  0  0  0  0  0
  156.5040  213.6990  150.9430 C   0  0  0  0  0  1  0  0  0  0  0  0
  160.3670  212.9050  151.2700 S   0  0  0  0  0  0  0  0  0  0  0  0
  158.7460  212.7830  151.7160 C   0  0  2  0  0  3  0  0  0  0  0  0
  160.0170  213.9520  150.0020 C   0  0  0  0  0  0  0  0  0  0  0  0
  162.3630  203.2140  148.0490 O   0  0  0  0  0  0  0  0  0  0  0  0
  162.1560  202.0940  147.2370 C   0  0  1  0  0  3  0  0  0  0  0  0
  162.0750  200.8360  148.0970 C   0  0  0  0  0  2  0  0  0  0  0  0
  160.9580  199.7360  146.1480 C   0  0  0  0  0  0  0  0  0  0  0  0
  160.6390  201.0770  145.5340 C   0  0  0  0  0  2  0  0  0  0  0  0
  161.6640  199.6400  147.2860 C   0  0  0  0  0  3  0  0  0  0  0  0
  160.8370  202.2490  146.4950 C   0  0  0  0  0  2  0  0  0  0  0  0
  161.3800  197.8890  144.5430 C   0  0  0  0  0  1  0  0  0  0  0  0
  160.5460  198.5900  145.4560 O   0  0  0  0  0  0  0  0  0  0  0  0
  160.3870  204.9840  145.6390 O   0  0  0  0  0  0  0  0  0  0  0  0
  160.7980  205.9790  144.7490 C   0  0  0  0  0  2  0  0  0  0  0  0
  160.9100  205.4150  143.3760 C   0  0  0  0  0  0  0  0  0  0  0  0
  160.3060  204.3490  143.0830 O   0  0  0  0  0  0  0  0  0  0  0  0
  161.7120  206.0700  142.4010 N   0  0  0  0  0  1  0  0  0  0  0  0
  1  4  1  6  0  0  0
  1  3  1  0  0  0  0
  1 12  1  0  0  0  0
  2  6  1  6  0  0  0
  2  7  1  0  0  0  0
  4 21  1  0  0  0  0
  5  8  1  0  0  0  0
  5 13  1  6  0  0  0
  8 19  1  0  0  0  0
 10  2  1  0  0  0  0
 11 20  1  0  0  0  0
 11 25  1  1  0  0  0
 12  9  1  6  0  0  0
 12 11  1  0  0  0  0
 13  6  1  0  0  0  0
 14  3  1  0  0  0  0
 16 14  1  6  0  0  0
 16  5  1  0  0  0  0
 17 51  1  1  0  0  0
 17 24  1  0  0  0  0
 18 15  1  6  0  0  0
 18  7  1  0  0  0  0
 19 18  1  0  0  0  0
 20 10  1  0  0  0  0
 21 22  1  6  0  0  0
 21 16  1  0  0  0  0
 23 17  1  0  0  0  0
 23 22  1  0  0  0  0
 24 42  1  1  0  0  0
 24 16  1  0  0  0  0
 26 31  2  0  0  0  0
 27 26  1  1  0  0  0
 27 29  1  0  0  0  0
 28 29  1  0  0  0  0
 29 33  1  0  0  0  0
 30 25  1  6  0  0  0
 30 27  1  0  0  0  0
 30 28  1  0  0  0  0
 31 32  1  0  0  0  0
 32 33  2  0  0  0  0
 34 26  1  0  0  0  0
 35 41  1  0  0  0  0
 35 36  2  0  0  0  0
 36 38  1  0  0  0  0
 36 40  1  0  0  0  0
 37 41  2  0  0  0  0
 39 40  1  0  0  0  0
 40 34  1  6  0  0  0
 41 39  1  0  0  0  0
 43 42  1  1  0  0  0
 43 44  1  0  0  0  0
 45 47  2  0  0  0  0
 46 45  1  0  0  0  0
 46 48  1  0  0  0  0
 47 44  1  0  0  0  0
 48 43  1  0  0  0  0
 49 50  1  0  0  0  0
 50 45  1  0  0  0  0
 52 51  1  0  0  0  0
 53 52  1  0  0  0  0
 54 53  2  0  0  0  0
 55 53  1  0  0  0  0
M  END
>  <MODEL>
2

>  <REMARK>
 VINA RESULT:       3.8      1.872      3.387
  Name = 
  10 active torsions:
  status: ('A' for Active; 'I' for Inactive)
    1  A    between atoms: C_3  and  C_27
    2  A    between atoms: C_4  and  C_20
    3  A    between atoms: C_4  and  C_33
    4  A    between atoms: C_5  and  C_46
    5  A    between atoms: C_12  and  O_24
    6  A    between atoms: C_19  and  O_29
    7  A    between atoms: O_24  and  C_53
    8  A    between atoms: C_27  and  O_55
    9  A    between atoms: C_35  and  O_55
   10  A    between atoms: C_40  and  C_46
                            x       y       z     vdW  Elec       q    Type
                         _______ _______ _______ _____ _____    ______ ____

>  <TORSDO>
F 10

$$$$
=
 OpenBabel11072410023D

 55 62  0  0  1  0  0  0  0  0999 V2000
  161.9000  211.1950  151.9040 C   0  0  2  0  0  3  0  0  0  0  0  0
  161.2680  208.2480  147.7900 C   0  0  2  0  0  3  0  0  0  0  0  0
  162.9630  210.0840  151.8020 C   0  0  0  0  0  2  0  0  0  0  0  0
  160.7670  210.7630  152.8290 C   0  0  0  0  0  2  0  0  0  0  0  0
  161.5570  207.9120  150.7590 C   0  0  1  0  0  3  0  0  0  0  0  0
  160.3550  207.3110  148.5950 C   0  0  0  0  0  2  0  0  0  0  0  0
  162.6360  207.6910  147.3630 C   0  0  0  0  0  2  0  0  0  0  0  0
  162.4220  206.8240  150.5880 O   0  0  0  0  0  0  0  0  0  0  0  0
  160.6600  213.0170  150.7560 C   0  0  0  0  0  1  0  0  0  0  0  0
  161.2080  209.7420  148.1340 C   0  0  0  0  0  2  0  0  0  0  0  0
  162.3320  211.6540  149.3890 C   0  0  1  0  0  3  0  0  0  0  0  0
  161.3150  211.6520  150.5520 C   0  0  1  0  0  3  0  0  0  0  0  0
  160.2110  207.6650  150.0760 C   0  0  0  0  0  2  0  0  0  0  0  0
  162.6850  208.9670  152.6330 O   0  0  0  0  0  0  0  0  0  0  0  0
  162.7470  205.4740  148.3270 O   0  0  0  0  0  1  0  0  0  0  0  0
  161.4600  208.3500  152.2530 C   0  0  1  0  0  0  0  0  0  0  0  0
  160.9940  207.4570  154.6240 C   0  0  1  0  0  3  0  0  0  0  0  0
  163.3320  206.7420  148.3470 C   0  0  2  0  0  3  0  0  0  0  0  0
  163.4580  207.2910  149.7680 C   0  0  0  0  0  2  0  0  0  0  0  0
  162.4900  210.2540  148.7950 C   0  0  0  0  0  2  0  0  0  0  0  0
  160.2750  209.3630  152.4580 C   0  0  1  0  0  3  0  0  0  0  0  0
  159.2350  208.9100  153.4840 C   0  0  0  0  0  2  0  0  0  0  0  0
  159.9110  208.5330  154.8000 C   0  0  0  0  0  2  0  0  0  0  0  0
  161.2820  207.0930  153.1580 C   0  0  1  0  0  3  0  0  0  0  0  0
  162.0070  212.6620  148.2710 C   0  0  0  0  0  2  0  0  0  0  0  0
  160.4360  212.8410  144.9140 C   0  0  0  0  0  0  0  0  0  0  0  0
  160.5070  213.3040  146.3570 C   0  0  1  0  0  3  0  0  0  0  0  0
  159.5260  212.4590  147.8540 C   0  0  0  0  0  2  0  0  0  0  0  0
  159.1370  213.4760  146.8620 N   0  0  0  0  0  0  0  0  0  0  0  0
  160.8950  212.2220  147.3060 C   0  0  2  0  0  3  0  0  0  0  0  0
  159.3020  212.9880  144.1980 C   0  0  0  0  0  3  0  0  0  0  0  0
  158.0350  213.4880  144.7960 C   0  0  0  0  0  3  0  0  0  0  0  0
  157.9550  213.7090  146.1090 C   0  0  0  0  0  3  0  0  0  0  0  0
  161.6680  212.3390  144.2340 C   0  0  0  0  0  2  0  0  0  0  0  0
  161.8970  213.3320  140.6240 N   0  0  0  0  0  0  0  0  0  0  0  0
  162.1910  213.4130  141.9490 C   0  0  0  0  0  0  0  0  0  0  0  0
  160.6180  212.0440  139.2240 O   0  0  0  0  0  0  0  0  0  0  0  0
  163.1300  214.4410  142.4780 C   0  0  0  0  0  1  0  0  0  0  0  0
  160.5800  211.4990  141.7720 S   0  0  0  0  0  0  0  0  0  0  0  0
  161.5510  212.4690  142.7510 C   0  0  2  0  0  3  0  0  0  0  0  0
  161.0280  212.3280  140.3790 C   0  0  0  0  0  0  0  0  0  0  0  0
  160.2580  206.2550  152.6900 O   0  0  0  0  0  0  0  0  0  0  0  0
  160.9030  205.1780  152.0750 C   0  0  1  0  0  3  0  0  0  0  0  0
  160.9310  203.9800  153.0210 C   0  0  0  0  0  2  0  0  0  0  0  0
  161.3690  202.5670  151.0040 C   0  0  0  0  0  0  0  0  0  0  0  0
  160.8750  203.6620  150.0910 C   0  0  0  0  0  2  0  0  0  0  0  0
  161.4440  202.7470  152.3330 C   0  0  0  0  0  3  0  0  0  0  0  0
  160.1330  204.7790  150.8250 C   0  0  0  0  0  2  0  0  0  0  0  0
  161.3090  200.8960  149.1680 C   0  0  0  0  0  1  0  0  0  0  0  0
  161.8050  201.3750  150.4120 O   0  0  0  0  0  0  0  0  0  0  0  0
  162.1670  207.8570  155.2660 O   0  0  0  0  0  0  0  0  0  0  0  0
  161.7700  208.1890  156.5620 C   0  0  0  0  0  2  0  0  0  0  0  0
  161.9390  209.6510  156.7840 C   0  0  0  0  0  0  0  0  0  0  0  0
  160.9900  210.3290  157.2600 O   0  0  0  0  0  0  0  0  0  0  0  0
  163.1660  210.2860  156.4440 N   0  0  0  0  0  1  0  0  0  0  0  0
  1  3  1  6  0  0  0
  1  4  1  0  0  0  0
  2  7  1  1  0  0  0
  2 10  1  0  0  0  0
  2  6  1  0  0  0  0
  3 14  1  0  0  0  0
  5 13  1  1  0  0  0
  5 16  1  0  0  0  0
  6 13  1  0  0  0  0
  7 18  1  0  0  0  0
  8  5  1  0  0  0  0
 10 20  1  0  0  0  0
 11 25  1  6  0  0  0
 11 12  1  0  0  0  0
 12  9  1  1  0  0  0
 12  1  1  0  0  0  0
 16 21  1  0  0  0  0
 16 14  1  1  0  0  0
 16 24  1  0  0  0  0
 17 23  1  0  0  0  0
 17 51  1  6  0  0  0
 18 15  1  1  0  0  0
 18 19  1  0  0  0  0
 19  8  1  0  0  0  0
 20 11  1  0  0  0  0
 21  4  1  1  0  0  0
 21 22  1  0  0  0  0
 22 23  1  0  0  0  0
 24 42  1  6  0  0  0
 24 17  1  0  0  0  0
 27 26  1  6  0  0  0
 27 29  1  0  0  0  0
 27 30  1  0  0  0  0
 29 28  1  0  0  0  0
 30 28  1  0  0  0  0
 30 25  1  1  0  0  0
 31 32  1  0  0  0  0
 31 26  2  0  0  0  0
 32 33  2  0  0  0  0
 33 29  1  0  0  0  0
 34 26  1  0  0  0  0
 35 36  2  0  0  0  0
 36 38  1  0  0  0  0
 36 40  1  0  0  0  0
 37 41  2  0  0  0  0
 39 40  1  0  0  0  0
 40 34  1  1  0  0  0
 41 35  1  0  0  0  0
 41 39  1  0  0  0  0
 43 42  1  1  0  0  0
 43 44  1  0  0  0  0
 45 47  2  0  0  0  0
 46 48  1  0  0  0  0
 46 45  1  0  0  0  0
 47 44  1  0  0  0  0
 48 43  1  0  0  0  0
 49 50  1  0  0  0  0
 50 45  1  0  0  0  0
 51 52  1  0  0  0  0
 52 53  1  0  0  0  0
 53 54  2  0  0  0  0
 55 53  1  0  0  0  0
M  END
>  <MODEL>
3

>  <REMARK>
 VINA RESULT:       5.1      4.478      8.934
  Name = 
  10 active torsions:
  status: ('A' for Active; 'I' for Inactive)
    1  A    between atoms: C_3  and  C_27
    2  A    between atoms: C_4  and  C_20
    3  A    between atoms: C_4  and  C_33
    4  A    between atoms: C_5  and  C_46
    5  A    between atoms: C_12  and  O_24
    6  A    between atoms: C_19  and  O_29
    7  A    between atoms: O_24  and  C_53
    8  A    between atoms: C_27  and  O_55
    9  A    between atoms: C_35  and  O_55
   10  A    between atoms: C_40  and  C_46
                            x       y       z     vdW  Elec       q    Type
                         _______ _______ _______ _____ _____    ______ ____

>  <TORSDO>
F 10

$$$$
=
 OpenBabel11072410023D

 55 62  0  0  1  0  0  0  0  0999 V2000
  161.1680  208.2630  148.6930 C   0  0  2  0  0  3  0  0  0  0  0  0
  162.1140  205.3390  152.7630 C   0  0  2  0  0  3  0  0  0  0  0  0
  160.0350  207.2560  148.9760 C   0  0  0  0  0  2  0  0  0  0  0  0
  162.1140  207.7130  147.6320 C   0  0  0  0  0  2  0  0  0  0  0  0
  161.3770  204.9820  149.8750 C   0  0  1  0  0  3  0  0  0  0  0  0
  162.8170  204.3090  151.8670 C   0  0  0  0  0  2  0  0  0  0  0  0
  160.7770  204.9170  153.3940 C   0  0  0  0  0  2  0  0  0  0  0  0
  160.4530  203.9800  150.1970 O   0  0  0  0  0  0  0  0  0  0  0  0
  162.7140  209.9820  149.6020 C   0  0  0  0  0  1  0  0  0  0  0  0
  162.2570  206.8160  152.3700 C   0  0  0  0  0  2  0  0  0  0  0  0
  161.1390  208.8010  151.2300 C   0  0  1  0  0  3  0  0  0  0  0  0
  161.9770  208.6870  149.9360 C   0  0  1  0  0  3  0  0  0  0  0  0
  162.7800  204.6240  150.3700 C   0  0  0  0  0  2  0  0  0  0  0  0
  160.0920  206.1050  148.1470 O   0  0  0  0  0  0  0  0  0  0  0  0
  160.3340  202.7040  152.5210 O   0  0  0  0  0  1  0  0  0  0  0  0
  161.2990  205.3840  148.3700 C   0  0  1  0  0  0  0  0  0  0  0  0
  161.3430  204.4130  145.9840 C   0  0  1  0  0  3  0  0  0  0  0  0
  159.8660  204.0200  152.5460 C   0  0  2  0  0  3  0  0  0  0  0  0
  159.5890  204.5540  151.1400 C   0  0  0  0  0  2  0  0  0  0  0  0
  160.9440  207.4320  151.8810 C   0  0  0  0  0  2  0  0  0  0  0  0
  162.5280  206.2800  147.9710 C   0  0  1  0  0  3  0  0  0  0  0  0
  163.3680  205.7170  146.8240 C   0  0  0  0  0  2  0  0  0  0  0  0
  162.4810  205.3820  145.6270 C   0  0  0  0  0  2  0  0  0  0  0  0
  161.2350  204.1010  147.4860 C   0  0  1  0  0  3  0  0  0  0  0  0
  161.7080  209.7930  152.2610 C   0  0  0  0  0  2  0  0  0  0  0  0
  159.6270  211.2260  154.9790 C   0  0  0  0  0  0  0  0  0  0  0  0
  160.9870  210.9970  154.3490 C   0  0  1  0  0  3  0  0  0  0  0  0
  162.1460  209.4350  154.7210 C   0  0  0  0  0  2  0  0  0  0  0  0
  161.9590  210.7190  155.4180 N   0  0  0  0  0  0  0  0  0  0  0  0
  161.1100  209.6740  153.6710 C   0  0  2  0  0  3  0  0  0  0  0  0
  159.5150  211.5090  156.2930 C   0  0  0  0  0  3  0  0  0  0  0  0
  160.6780  211.4940  157.2190 C   0  0  0  0  0  3  0  0  0  0  0  0
  161.8730  211.0870  156.7880 C   0  0  0  0  0  3  0  0  0  0  0  0
  158.4080  211.2700  154.1160 C   0  0  0  0  0  2  0  0  0  0  0  0
  156.2670  214.1950  155.0820 N   0  0  0  0  0  0  0  0  0  0  0  0
  157.2740  213.5660  154.4190 C   0  0  0  0  0  0  0  0  0  0  0  0
  154.5980  213.6740  156.5650 O   0  0  0  0  0  0  0  0  0  0  0  0
  158.1730  214.3020  153.4870 C   0  0  0  0  0  1  0  0  0  0  0  0
  156.1880  211.7630  155.7840 S   0  0  0  0  0  0  0  0  0  0  0  0
  157.3860  212.2010  154.6820 C   0  0  2  0  0  3  0  0  0  0  0  0
  155.5860  213.3320  155.8660 C   0  0  0  0  0  0  0  0  0  0  0  0
  162.2370  203.1800  147.8310 O   0  0  0  0  0  0  0  0  0  0  0  0
  162.0180  202.0630  147.0190 C   0  0  1  0  0  3  0  0  0  0  0  0
  162.0970  200.7890  147.8560 C   0  0  0  0  0  2  0  0  0  0  0  0
  160.8620  199.6530  146.0010 C   0  0  0  0  0  0  0  0  0  0  0  0
  160.4050  200.9810  145.4500 C   0  0  0  0  0  2  0  0  0  0  0  0
  161.6810  199.5820  147.0630 C   0  0  0  0  0  3  0  0  0  0  0  0
  160.6260  202.1480  146.4120 C   0  0  0  0  0  2  0  0  0  0  0  0
  161.3310  197.4190  145.0240 C   0  0  0  0  0  1  0  0  0  0  0  0
  160.4520  198.4950  145.3280 O   0  0  0  0  0  0  0  0  0  0  0  0
  160.1300  204.9080  145.5020 O   0  0  0  0  0  0  0  0  0  0  0  0
  160.0790  204.4920  144.1700 C   0  0  0  0  0  2  0  0  0  0  0  0
  158.7910  203.7950  143.9080 C   0  0  0  0  0  0  0  0  0  0  0  0
  157.7150  204.4500  143.8760 O   0  0  0  0  0  0  0  0  0  0  0  0
  158.7710  202.3860  143.7090 N   0  0  0  0  0  1  0  0  0  0  0  0
  1  4  1  6  0  0  0
  1  3  1  0  0  0  0
  1 12  1  0  0  0  0
  2  6  1  6  0  0  0
  2  7  1  0  0  0  0
  4 21  1  0  0  0  0
  5  8  1  0  0  0  0
  5 13  1  6  0  0  0
  8 19  1  0  0  0  0
 10  2  1  0  0  0  0
 11 20  1  0  0  0  0
 11 25  1  1  0  0  0
 12  9  1  6  0  0  0
 12 11  1  0  0  0  0
 13  6  1  0  0  0  0
 14  3  1  0  0  0  0
 16 14  1  6  0  0  0
 16  5  1  0  0  0  0
 17 51  1  1  0  0  0
 17 24  1  0  0  0  0
 18 15  1  6  0  0  0
 18  7  1  0  0  0  0
 19 18  1  0  0  0  0
 20 10  1  0  0  0  0
 21 22  1  6  0  0  0
 21 16  1  0  0  0  0
 23 17  1  0  0  0  0
 23 22  1  0  0  0  0
 24 42  1  1  0  0  0
 24 16  1  0  0  0  0
 26 31  2  0  0  0  0
 27 26  1  1  0  0  0
 27 29  1  0  0  0  0
 28 29  1  0  0  0  0
 29 33  1  0  0  0  0
 30 25  1  6  0  0  0
 30 27  1  0  0  0  0
 30 28  1  0  0  0  0
 31 32  1  0  0  0  0
 33 32  2  0  0  0  0
 34 26  1  0  0  0  0
 35 41  1  0  0  0  0
 36 40  1  0  0  0  0
 36 35  2  0  0  0  0
 38 36  1  0  0  0  0
 39 41  1  0  0  0  0
 40 34  1  1  0  0  0
 40 39  1  0  0  0  0
 41 37  2  0  0  0  0
 43 42  1  1  0  0  0
 43 44  1  0  0  0  0
 45 47  2  0  0  0  0
 46 45  1  0  0  0  0
 46 48  1  0  0  0  0
 47 44  1  0  0  0  0
 48 43  1  0  0  0  0
 49 50  1  0  0  0  0
 50 45  1  0  0  0  0
 52 51  1  0  0  0  0
 53 52  1  0  0  0  0
 54 53  2  0  0  0  0
 55 53  1  0  0  0  0
M  END
>  <MODEL>
4

>  <REMARK>
 VINA RESULT:       5.6      1.975      3.059
  Name = 
  10 active torsions:
  status: ('A' for Active; 'I' for Inactive)
    1  A    between atoms: C_3  and  C_27
    2  A    between atoms: C_4  and  C_20
    3  A    between atoms: C_4  and  C_33
    4  A    between atoms: C_5  and  C_46
    5  A    between atoms: C_12  and  O_24
    6  A    between atoms: C_19  and  O_29
    7  A    between atoms: O_24  and  C_53
    8  A    between atoms: C_27  and  O_55
    9  A    between atoms: C_35  and  O_55
   10  A    between atoms: C_40  and  C_46
                            x       y       z     vdW  Elec       q    Type
                         _______ _______ _______ _____ _____    ______ ____

>  <TORSDO>
F 10

$$$$
