=
 OpenBabel11072414103D

 28 29  0  0  1  0  0  0  0  0999 V2000
  161.3330  204.0170  150.8900 C   0  0  0  0  0  0  0  0  0  0  0  0
  161.2700  202.7480  148.0900 C   0  0  0  0  0  3  0  0  0  0  0  0
  160.8380  201.6380  148.9600 C   0  0  0  0  0  3  0  0  0  0  0  0
  160.8750  201.6240  150.2990 C   0  0  0  0  0  3  0  0  0  0  0  0
  161.3630  202.7100  151.1710 C   0  0  0  0  0  3  0  0  0  0  0  0
  161.2070  204.0390  148.4130 C   0  0  0  0  0  3  0  0  0  0  0  0
  160.5910  204.5320  149.6820 C   0  0  2  0  0  3  0  0  0  0  0  0
  161.9160  204.9590  151.8980 C   0  0  0  0  0  2  0  0  0  0  0  0
  160.9550  205.1480  153.0610 C   0  0  0  0  0  2  0  0  0  0  0  0
  161.5370  206.1120  154.0780 C   0  0  0  0  0  2  0  0  0  0  0  0
  160.8160  207.4470  154.0130 C   0  0  0  0  0  2  0  0  0  0  0  0
  159.7200  207.1030  156.4360 O   0  0  0  0  0  0  0  0  0  0  0  0
  161.8780  208.2670  156.3390 O   0  0  0  0  0  0  0  0  0  0  0  0
  160.5520  208.0820  155.6550 S   0  0  0  0  0  0  0  0  0  0  0  0
  159.6940  209.6500  155.5590 C   0  0  2  0  0  3  0  0  0  0  0  0
  161.4320  210.9580  154.5920 O   0  0  0  0  0  1  0  0  0  0  0  0
  160.2670  210.4980  154.4720 C   0  0  0  0  0  0  0  0  0  0  0  0
  159.5200  210.7940  153.3360 O   0  0  0  0  0  0  0  0  0  0  0  0
  158.8610  211.4580  156.8820 O   0  0  0  0  0  1  0  0  0  0  0  0
  159.7570  210.3900  156.8870 C   0  0  0  0  0  2  0  0  0  0  0  0
  160.4840  206.0560  149.6500 C   0  0  0  0  0  2  0  0  0  0  0  0
  161.6950  206.6860  148.9710 C   0  0  0  0  0  2  0  0  0  0  0  0
  162.1120  209.7970  151.0760 C   0  0  0  0  0  3  0  0  0  0  0  0
  161.8700  208.1130  149.3680 C   0  0  0  0  0  0  0  0  0  0  0  0
  161.9570  208.4560  150.7200 C   0  0  0  0  0  3  0  0  0  0  0  0
  162.0940  210.4440  148.7900 C   0  0  0  0  0  3  0  0  0  0  0  0
  162.1750  210.7560  150.1120 N   0  0  0  0  0  0  0  0  0  0  0  0
  161.9390  209.1140  148.3930 C   0  0  0  0  0  3  0  0  0  0  0  0
  1  5  2  0  0  0  0
  1  8  1  0  0  0  0
  2  6  2  0  0  0  0
  2  3  1  0  0  0  0
  3  4  2  0  0  0  0
  4  5  1  0  0  0  0
  6  7  1  0  0  0  0
  7 21  1  6  0  0  0
  7  1  1  0  0  0  0
  8  9  1  0  0  0  0
  9 10  1  0  0  0  0
 11 10  1  0  0  0  0
 11 14  1  0  0  0  0
 14 13  2  0  0  0  0
 14 12  2  0  0  0  0
 15 14  1  0  0  0  0
 15 20  1  1  0  0  0
 17 16  1  0  0  0  0
 17 15  1  0  0  0  0
 18 17  2  0  0  0  0
 19 20  1  0  0  0  0
 22 24  1  0  0  0  0
 22 21  1  0  0  0  0
 24 25  2  0  0  0  0
 25 23  1  0  0  0  0
 26 27  1  0  0  0  0
 27 23  2  0  0  0  0
 28 26  2  0  0  0  0
 28 24  1  0  0  0  0
M  END
>  <MODEL>
1

>  <REMARK>
 VINA RESULT:      -7.6      0.000      0.000
  Name = 
  11 active torsions:
  status: ('A' for Active; 'I' for Inactive)
    1  A    between atoms: C_2  and  C_22
    2  A    between atoms: C_3  and  C_4
    3  A    between atoms: C_3  and  C_7
    4  A    between atoms: C_4  and  C_12
    5  A    between atoms: C_10  and  C_24
    6  A    between atoms: C_12  and  C_20
    7  A    between atoms: C_20  and  S_27
    8  A    between atoms: C_22  and  C_26
    9  A    between atoms: C_24  and  C_25
   10  A    between atoms: C_24  and  S_27
   11  A    between atoms: C_26  and  C_28
                            x       y       z     vdW  Elec       q    Type
                         _______ _______ _______ _____ _____    ______ ____

>  <TORSDO>
F 11

$$$$
=
 OpenBabel11072414103D

 28 29  0  0  1  0  0  0  0  0999 V2000
  161.3600  204.8130  151.1660 C   0  0  0  0  0  0  0  0  0  0  0  0
  161.1930  202.5410  149.1010 C   0  0  0  0  0  3  0  0  0  0  0  0
  160.7560  201.8810  150.3460 C   0  0  0  0  0  3  0  0  0  0  0  0
  160.8260  202.3980  151.5790 C   0  0  0  0  0  3  0  0  0  0  0  0
  161.3640  203.7240  151.9420 C   0  0  0  0  0  3  0  0  0  0  0  0
  161.1710  203.8560  148.8850 C   0  0  0  0  0  3  0  0  0  0  0  0
  160.6010  204.8320  149.8630 C   0  0  2  0  0  3  0  0  0  0  0  0
  161.9920  206.0570  151.7090 C   0  0  0  0  0  2  0  0  0  0  0  0
  161.8260  206.1170  153.2190 C   0  0  0  0  0  2  0  0  0  0  0  0
  160.9760  207.3110  153.6120 C   0  0  0  0  0  2  0  0  0  0  0  0
  160.8020  208.2470  152.4300 C   0  0  0  0  0  2  0  0  0  0  0  0
  162.6170  210.2210  152.4300 O   0  0  0  0  0  0  0  0  0  0  0  0
  160.2580  210.8720  152.2620 O   0  0  0  0  0  0  0  0  0  0  0  0
  161.2240  209.9120  152.9000 S   0  0  0  0  0  0  0  0  0  0  0  0
  161.1470  210.0680  154.6810 C   0  0  2  0  0  3  0  0  0  0  0  0
  160.2840  212.2090  155.2640 O   0  0  0  0  0  0  0  0  0  0  0  0
  160.0420  210.9880  155.0830 C   0  0  0  0  0  0  0  0  0  0  0  0
  158.7510  210.5040  155.2710 O   0  0  0  0  0  1  0  0  0  0  0  0
  162.7350  209.9480  156.4650 O   0  0  0  0  0  1  0  0  0  0  0  0
  162.4700  210.5660  155.2430 C   0  0  0  0  0  2  0  0  0  0  0  0
  160.5310  206.2210  149.2290 C   0  0  0  0  0  2  0  0  0  0  0  0
  161.7820  206.5240  148.4120 C   0  0  0  0  0  2  0  0  0  0  0  0
  162.5330  204.9170  145.0750 C   0  0  0  0  0  3  0  0  0  0  0  0
  161.6440  206.0640  147.0000 C   0  0  0  0  0  0  0  0  0  0  0  0
  162.6730  205.3330  146.4010 C   0  0  0  0  0  3  0  0  0  0  0  0
  160.3910  205.9370  144.9440 C   0  0  0  0  0  3  0  0  0  0  0  0
  161.4040  205.2270  144.3780 N   0  0  0  0  0  0  0  0  0  0  0  0
  160.4930  206.3710  146.2670 C   0  0  0  0  0  3  0  0  0  0  0  0
  1  8  1  0  0  0  0
  1  5  2  0  0  0  0
  2  3  1  0  0  0  0
  3  4  2  0  0  0  0
  4  5  1  0  0  0  0
  6  2  2  0  0  0  0
  6  7  1  0  0  0  0
  7 21  1  6  0  0  0
  7  1  1  0  0  0  0
  8  9  1  0  0  0  0
  9 10  1  0  0  0  0
 11 14  1  0  0  0  0
 11 10  1  0  0  0  0
 12 14  2  0  0  0  0
 13 14  2  0  0  0  0
 14 15  1  0  0  0  0
 15 17  1  0  0  0  0
 15 20  1  6  0  0  0
 17 16  2  0  0  0  0
 17 18  1  0  0  0  0
 20 19  1  0  0  0  0
 22 21  1  0  0  0  0
 23 25  1  0  0  0  0
 24 22  1  0  0  0  0
 25 24  2  0  0  0  0
 26 28  2  0  0  0  0
 27 26  1  0  0  0  0
 27 23  2  0  0  0  0
 28 24  1  0  0  0  0
M  END
>  <MODEL>
2

>  <REMARK>
 VINA RESULT:      -7.5      2.406      3.496
  Name = 
  11 active torsions:
  status: ('A' for Active; 'I' for Inactive)
    1  A    between atoms: C_2  and  C_22
    2  A    between atoms: C_3  and  C_4
    3  A    between atoms: C_3  and  C_7
    4  A    between atoms: C_4  and  C_12
    5  A    between atoms: C_10  and  C_24
    6  A    between atoms: C_12  and  C_20
    7  A    between atoms: C_20  and  S_27
    8  A    between atoms: C_22  and  C_26
    9  A    between atoms: C_24  and  C_25
   10  A    between atoms: C_24  and  S_27
   11  A    between atoms: C_26  and  C_28
                            x       y       z     vdW  Elec       q    Type
                         _______ _______ _______ _____ _____    ______ ____

>  <TORSDO>
F 11

$$$$
=
 OpenBabel11072414103D

 28 29  0  0  1  0  0  0  0  0999 V2000
  161.3990  205.3100  151.2120 C   0  0  0  0  0  0  0  0  0  0  0  0
  161.1210  202.7720  149.4980 C   0  0  0  0  0  3  0  0  0  0  0  0
  160.7070  202.3080  150.8350 C   0  0  0  0  0  3  0  0  0  0  0  0
  160.8260  202.9930  151.9800 C   0  0  0  0  0  3  0  0  0  0  0  0
  161.4030  204.3430  152.1350 C   0  0  0  0  0  3  0  0  0  0  0  0
  161.1210  204.0430  149.0970 C   0  0  0  0  0  3  0  0  0  0  0  0
  160.6010  205.1630  149.9400 C   0  0  2  0  0  3  0  0  0  0  0  0
  162.0740  206.6010  151.5540 C   0  0  0  0  0  2  0  0  0  0  0  0
  161.5160  207.1600  152.8540 C   0  0  0  0  0  2  0  0  0  0  0  0
  160.7380  208.4370  152.5910 C   0  0  0  0  0  2  0  0  0  0  0  0
  161.6370  209.6480  152.7640 C   0  0  0  0  0  2  0  0  0  0  0  0
  162.4310  210.7200  155.0910 O   0  0  0  0  0  0  0  0  0  0  0  0
  160.6280  211.8700  153.8870 O   0  0  0  0  0  0  0  0  0  0  0  0
  161.2000  210.5270  154.2500 S   0  0  0  0  0  0  0  0  0  0  0  0
  159.9920  209.5810  155.1710 C   0  0  2  0  0  3  0  0  0  0  0  0
  159.3040  210.9850  156.9660 O   0  0  0  0  0  1  0  0  0  0  0  0
  159.0170  210.4870  155.8470 C   0  0  0  0  0  0  0  0  0  0  0  0
  157.7900  210.7740  155.2570 O   0  0  0  0  0  0  0  0  0  0  0  0
  160.1320  207.3980  156.1360 O   0  0  0  0  0  1  0  0  0  0  0  0
  160.6680  208.6830  156.1970 C   0  0  0  0  0  2  0  0  0  0  0  0
  160.5430  206.4490  149.1170 C   0  0  0  0  0  2  0  0  0  0  0  0
  161.8110  206.6420  148.2940 C   0  0  0  0  0  2  0  0  0  0  0  0
  162.5390  204.7720  145.0910 C   0  0  0  0  0  3  0  0  0  0  0  0
  161.6690  206.0800  146.9190 C   0  0  0  0  0  0  0  0  0  0  0  0
  162.6830  205.2830  146.3830 C   0  0  0  0  0  3  0  0  0  0  0  0
  160.4220  205.8270  144.8710 C   0  0  0  0  0  3  0  0  0  0  0  0
  161.4210  205.0530  144.3670 N   0  0  0  0  0  0  0  0  0  0  0  0
  160.5280  206.3570  146.1590 C   0  0  0  0  0  3  0  0  0  0  0  0
  1  8  1  0  0  0  0
  1  5  2  0  0  0  0
  2  3  1  0  0  0  0
  3  4  2  0  0  0  0
  4  5  1  0  0  0  0
  6  2  2  0  0  0  0
  6  7  1  0  0  0  0
  7 21  1  6  0  0  0
  7  1  1  0  0  0  0
  8  9  1  0  0  0  0
 10 11  1  0  0  0  0
 10  9  1  0  0  0  0
 11 14  1  0  0  0  0
 13 14  2  0  0  0  0
 14 12  2  0  0  0  0
 14 15  1  0  0  0  0
 15 17  1  0  0  0  0
 15 20  1  1  0  0  0
 17 16  1  0  0  0  0
 18 17  2  0  0  0  0
 19 20  1  0  0  0  0
 22 21  1  0  0  0  0
 23 25  1  0  0  0  0
 24 22  1  0  0  0  0
 25 24  2  0  0  0  0
 26 28  2  0  0  0  0
 27 26  1  0  0  0  0
 27 23  2  0  0  0  0
 28 24  1  0  0  0  0
M  END
>  <MODEL>
3

>  <REMARK>
 VINA RESULT:      -7.5      2.358      3.566
  Name = 
  11 active torsions:
  status: ('A' for Active; 'I' for Inactive)
    1  A    between atoms: C_2  and  C_22
    2  A    between atoms: C_3  and  C_4
    3  A    between atoms: C_3  and  C_7
    4  A    between atoms: C_4  and  C_12
    5  A    between atoms: C_10  and  C_24
    6  A    between atoms: C_12  and  C_20
    7  A    between atoms: C_20  and  S_27
    8  A    between atoms: C_22  and  C_26
    9  A    between atoms: C_24  and  C_25
   10  A    between atoms: C_24  and  S_27
   11  A    between atoms: C_26  and  C_28
                            x       y       z     vdW  Elec       q    Type
                         _______ _______ _______ _____ _____    ______ ____

>  <TORSDO>
F 11

$$$$
=
 OpenBabel11072414103D

 28 29  0  0  1  0  0  0  0  0999 V2000
  161.4880  205.2680  151.1860 C   0  0  0  0  0  0  0  0  0  0  0  0
  161.0710  202.7810  149.4260 C   0  0  0  0  0  3  0  0  0  0  0  0
  160.6700  202.3040  150.7630 C   0  0  0  0  0  3  0  0  0  0  0  0
  160.8420  202.9580  151.9190 C   0  0  0  0  0  3  0  0  0  0  0  0
  161.4750  204.2810  152.0880 C   0  0  0  0  0  3  0  0  0  0  0  0
  161.1120  204.0590  149.0520 C   0  0  0  0  0  3  0  0  0  0  0  0
  160.6560  205.1800  149.9310 C   0  0  2  0  0  3  0  0  0  0  0  0
  162.2210  206.5240  151.5390 C   0  0  0  0  0  2  0  0  0  0  0  0
  161.5890  207.1780  152.7580 C   0  0  0  0  0  2  0  0  0  0  0  0
  160.7810  208.3960  152.3480 C   0  0  0  0  0  2  0  0  0  0  0  0
  161.5660  209.6670  152.6180 C   0  0  0  0  0  2  0  0  0  0  0  0
  160.1250  209.4630  154.8700 O   0  0  0  0  0  0  0  0  0  0  0  0
  162.1800  210.8000  154.9740 O   0  0  0  0  0  0  0  0  0  0  0  0
  160.9970  210.4310  154.1220 S   0  0  0  0  0  0  0  0  0  0  0  0
  160.0530  211.8990  153.7250 C   0  0  2  0  0  3  0  0  0  0  0  0
  158.1470  212.1490  155.1300 O   0  0  0  0  0  0  0  0  0  0  0  0
  159.3600  212.4240  154.9390 C   0  0  0  0  0  0  0  0  0  0  0  0
  160.0400  213.2240  155.8530 O   0  0  0  0  0  1  0  0  0  0  0  0
  158.8150  212.7670  151.8730 O   0  0  0  0  0  1  0  0  0  0  0  0
  159.0380  211.6160  152.6270 C   0  0  0  0  0  2  0  0  0  0  0  0
  160.6300  206.4840  149.1360 C   0  0  0  0  0  2  0  0  0  0  0  0
  161.8870  206.6480  148.2890 C   0  0  0  0  0  2  0  0  0  0  0  0
  160.3800  205.8290  144.9220 C   0  0  0  0  0  3  0  0  0  0  0  0
  161.7060  206.0900  146.9180 C   0  0  0  0  0  0  0  0  0  0  0  0
  160.5390  206.3660  146.2010 C   0  0  0  0  0  3  0  0  0  0  0  0
  162.4990  204.7650  145.0660 C   0  0  0  0  0  3  0  0  0  0  0  0
  161.3550  205.0440  144.3850 N   0  0  0  0  0  0  0  0  0  0  0  0
  162.6960  205.2830  146.3480 C   0  0  0  0  0  3  0  0  0  0  0  0
  1  8  1  0  0  0  0
  1  5  2  0  0  0  0
  2  3  1  0  0  0  0
  3  4  2  0  0  0  0
  4  5  1  0  0  0  0
  6  2  2  0  0  0  0
  6  7  1  0  0  0  0
  7 21  1  6  0  0  0
  7  1  1  0  0  0  0
  8  9  1  0  0  0  0
 10 11  1  0  0  0  0
 10  9  1  0  0  0  0
 11 14  1  0  0  0  0
 14 12  2  0  0  0  0
 14 13  2  0  0  0  0
 15 20  1  6  0  0  0
 15 14  1  0  0  0  0
 15 17  1  0  0  0  0
 17 16  2  0  0  0  0
 17 18  1  0  0  0  0
 19 20  1  0  0  0  0
 22 21  1  0  0  0  0
 23 25  1  0  0  0  0
 24 22  1  0  0  0  0
 25 24  2  0  0  0  0
 26 28  2  0  0  0  0
 27 23  2  0  0  0  0
 27 26  1  0  0  0  0
 28 24  1  0  0  0  0
M  END
>  <MODEL>
4

>  <REMARK>
 VINA RESULT:      -7.4      2.518      3.663
  Name = 
  11 active torsions:
  status: ('A' for Active; 'I' for Inactive)
    1  A    between atoms: C_2  and  C_22
    2  A    between atoms: C_3  and  C_4
    3  A    between atoms: C_3  and  C_7
    4  A    between atoms: C_4  and  C_12
    5  A    between atoms: C_10  and  C_24
    6  A    between atoms: C_12  and  C_20
    7  A    between atoms: C_20  and  S_27
    8  A    between atoms: C_22  and  C_26
    9  A    between atoms: C_24  and  C_25
   10  A    between atoms: C_24  and  S_27
   11  A    between atoms: C_26  and  C_28
                            x       y       z     vdW  Elec       q    Type
                         _______ _______ _______ _____ _____    ______ ____

>  <TORSDO>
F 11

$$$$
=
 OpenBabel11072414103D

 28 29  0  0  1  0  0  0  0  0999 V2000
  161.4320  205.0190  151.1790 C   0  0  0  0  0  0  0  0  0  0  0  0
  161.1360  202.6530  149.2380 C   0  0  0  0  0  3  0  0  0  0  0  0
  160.7210  202.0690  150.5270 C   0  0  0  0  0  3  0  0  0  0  0  0
  160.8460  202.6440  151.7300 C   0  0  0  0  0  3  0  0  0  0  0  0
  161.4310  203.9700  152.0090 C   0  0  0  0  0  3  0  0  0  0  0  0
  161.1440  203.9550  148.9570 C   0  0  0  0  0  3  0  0  0  0  0  0
  160.6320  204.9950  149.9010 C   0  0  2  0  0  3  0  0  0  0  0  0
  162.1160  206.2690  151.6390 C   0  0  0  0  0  2  0  0  0  0  0  0
  161.6220  206.6620  153.0220 C   0  0  0  0  0  2  0  0  0  0  0  0
  160.7970  207.9340  152.9490 C   0  0  0  0  0  2  0  0  0  0  0  0
  160.8670  208.6860  154.2660 C   0  0  0  0  0  2  0  0  0  0  0  0
  162.5290  210.6050  155.1300 O   0  0  0  0  0  0  0  0  0  0  0  0
  162.3090  210.3260  152.7020 O   0  0  0  0  0  0  0  0  0  0  0  0
  161.5710  210.3020  154.0120 S   0  0  0  0  0  0  0  0  0  0  0  0
  160.2650  211.5260  153.9980 C   0  0  2  0  0  3  0  0  0  0  0  0
  158.0700  211.0340  154.7770 O   0  0  0  0  0  0  0  0  0  0  0  0
  159.2720  211.2510  155.0780 C   0  0  0  0  0  0  0  0  0  0  0  0
  159.6620  211.2440  156.4130 O   0  0  0  0  0  1  0  0  0  0  0  0
  160.0210  212.6570  151.9050 O   0  0  0  0  0  1  0  0  0  0  0  0
  159.5680  211.5650  152.6460 C   0  0  0  0  0  2  0  0  0  0  0  0
  160.5810  206.3520  149.2000 C   0  0  0  0  0  2  0  0  0  0  0  0
  161.8330  206.5950  148.3640 C   0  0  0  0  0  2  0  0  0  0  0  0
  162.5230  204.8670  145.0740 C   0  0  0  0  0  3  0  0  0  0  0  0
  161.6720  206.0900  146.9690 C   0  0  0  0  0  0  0  0  0  0  0  0
  162.6840  205.3250  146.3840 C   0  0  0  0  0  3  0  0  0  0  0  0
  160.3930  205.9100  144.9330 C   0  0  0  0  0  3  0  0  0  0  0  0
  161.3900  205.1670  144.3810 N   0  0  0  0  0  0  0  0  0  0  0  0
  160.5160  206.3870  146.2400 C   0  0  0  0  0  3  0  0  0  0  0  0
  1  8  1  0  0  0  0
  1  5  2  0  0  0  0
  2  3  1  0  0  0  0
  3  4  2  0  0  0  0
  4  5  1  0  0  0  0
  6  2  2  0  0  0  0
  6  7  1  0  0  0  0
  7 21  1  6  0  0  0
  7  1  1  0  0  0  0
  8  9  1  0  0  0  0
 10  9  1  0  0  0  0
 10 11  1  0  0  0  0
 13 14  2  0  0  0  0
 14 11  1  0  0  0  0
 14 12  2  0  0  0  0
 15 20  1  6  0  0  0
 15 14  1  0  0  0  0
 15 17  1  0  0  0  0
 16 17  2  0  0  0  0
 17 18  1  0  0  0  0
 19 20  1  0  0  0  0
 22 21  1  0  0  0  0
 23 25  1  0  0  0  0
 24 22  1  0  0  0  0
 25 24  2  0  0  0  0
 26 28  2  0  0  0  0
 27 26  1  0  0  0  0
 27 23  2  0  0  0  0
 28 24  1  0  0  0  0
M  END
>  <MODEL>
5

>  <REMARK>
 VINA RESULT:      -7.4      2.422      3.606
  Name = 
  11 active torsions:
  status: ('A' for Active; 'I' for Inactive)
    1  A    between atoms: C_2  and  C_22
    2  A    between atoms: C_3  and  C_4
    3  A    between atoms: C_3  and  C_7
    4  A    between atoms: C_4  and  C_12
    5  A    between atoms: C_10  and  C_24
    6  A    between atoms: C_12  and  C_20
    7  A    between atoms: C_20  and  S_27
    8  A    between atoms: C_22  and  C_26
    9  A    between atoms: C_24  and  C_25
   10  A    between atoms: C_24  and  S_27
   11  A    between atoms: C_26  and  C_28
                            x       y       z     vdW  Elec       q    Type
                         _______ _______ _______ _____ _____    ______ ____

>  <TORSDO>
F 11

$$$$
=
 OpenBabel11072414103D

 28 29  0  0  1  0  0  0  0  0999 V2000
  161.2900  204.8490  151.1330 C   0  0  0  0  0  0  0  0  0  0  0  0
  161.2570  202.5620  149.0780 C   0  0  0  0  0  3  0  0  0  0  0  0
  160.8110  201.8940  150.3140 C   0  0  0  0  0  3  0  0  0  0  0  0
  160.8310  202.4190  151.5460 C   0  0  0  0  0  3  0  0  0  0  0  0
  161.3120  203.7650  151.9150 C   0  0  0  0  0  3  0  0  0  0  0  0
  161.1950  203.8740  148.8540 C   0  0  0  0  0  3  0  0  0  0  0  0
  160.5650  204.8350  149.8100 C   0  0  2  0  0  3  0  0  0  0  0  0
  161.8630  206.1170  151.6840 C   0  0  0  0  0  2  0  0  0  0  0  0
  162.0770  205.9910  153.1850 C   0  0  0  0  0  2  0  0  0  0  0  0
  160.8960  206.5740  153.9390 C   0  0  0  0  0  2  0  0  0  0  0  0
  160.8160  208.0730  153.7180 C   0  0  0  0  0  2  0  0  0  0  0  0
  159.3820  209.0610  155.7580 O   0  0  0  0  0  0  0  0  0  0  0  0
  161.5910  208.1340  156.2890 O   0  0  0  0  0  0  0  0  0  0  0  0
  160.8010  208.9240  155.2820 S   0  0  0  0  0  0  0  0  0  0  0  0
  161.5230  210.5500  155.0840 C   0  0  2  0  0  3  0  0  0  0  0  0
  161.4730  211.6040  157.2190 O   0  0  0  0  0  1  0  0  0  0  0  0
  162.1620  211.0010  156.3560 C   0  0  0  0  0  0  0  0  0  0  0  0
  163.5140  210.7710  156.5900 O   0  0  0  0  0  0  0  0  0  0  0  0
  160.5160  211.7130  153.2540 O   0  0  0  0  0  1  0  0  0  0  0  0
  160.4770  211.5620  154.6400 C   0  0  0  0  0  2  0  0  0  0  0  0
  160.4630  206.2170  149.1670 C   0  0  0  0  0  2  0  0  0  0  0  0
  161.7180  206.5550  148.3690 C   0  0  0  0  0  2  0  0  0  0  0  0
  162.6170  204.8950  145.0950 C   0  0  0  0  0  3  0  0  0  0  0  0
  161.6340  206.0520  146.9670 C   0  0  0  0  0  0  0  0  0  0  0  0
  162.7070  205.3510  146.4120 C   0  0  0  0  0  3  0  0  0  0  0  0
  160.4370  205.8150  144.8880 C   0  0  0  0  0  3  0  0  0  0  0  0
  161.4930  205.1350  144.3650 N   0  0  0  0  0  0  0  0  0  0  0  0
  160.4880  206.2870  146.2010 C   0  0  0  0  0  3  0  0  0  0  0  0
  1  8  1  0  0  0  0
  1  5  2  0  0  0  0
  2  3  1  0  0  0  0
  3  4  2  0  0  0  0
  4  5  1  0  0  0  0
  6  2  2  0  0  0  0
  6  7  1  0  0  0  0
  7 21  1  6  0  0  0
  7  1  1  0  0  0  0
  8  9  1  0  0  0  0
  9 10  1  0  0  0  0
 11 10  1  0  0  0  0
 11 14  1  0  0  0  0
 14 12  2  0  0  0  0
 14 13  2  0  0  0  0
 15 20  1  1  0  0  0
 15 14  1  0  0  0  0
 15 17  1  0  0  0  0
 17 18  2  0  0  0  0
 17 16  1  0  0  0  0
 19 20  1  0  0  0  0
 22 21  1  0  0  0  0
 23 25  1  0  0  0  0
 24 22  1  0  0  0  0
 25 24  2  0  0  0  0
 26 28  2  0  0  0  0
 27 26  1  0  0  0  0
 27 23  2  0  0  0  0
 28 24  1  0  0  0  0
M  END
>  <MODEL>
6

>  <REMARK>
 VINA RESULT:      -7.3      2.367      3.302
  Name = 
  11 active torsions:
  status: ('A' for Active; 'I' for Inactive)
    1  A    between atoms: C_2  and  C_22
    2  A    between atoms: C_3  and  C_4
    3  A    between atoms: C_3  and  C_7
    4  A    between atoms: C_4  and  C_12
    5  A    between atoms: C_10  and  C_24
    6  A    between atoms: C_12  and  C_20
    7  A    between atoms: C_20  and  S_27
    8  A    between atoms: C_22  and  C_26
    9  A    between atoms: C_24  and  C_25
   10  A    between atoms: C_24  and  S_27
   11  A    between atoms: C_26  and  C_28
                            x       y       z     vdW  Elec       q    Type
                         _______ _______ _______ _____ _____    ______ ____

>  <TORSDO>
F 11

$$$$
=
 OpenBabel11072414103D

 28 29  0  0  1  0  0  0  0  0999 V2000
  161.5360  205.7170  151.2760 C   0  0  0  0  0  0  0  0  0  0  0  0
  161.1230  202.9800  149.9370 C   0  0  0  0  0  3  0  0  0  0  0  0
  160.6990  202.7280  151.3270 C   0  0  0  0  0  3  0  0  0  0  0  0
  160.8590  203.5610  152.3640 C   0  0  0  0  0  3  0  0  0  0  0  0
  161.5010  204.8900  152.3260 C   0  0  0  0  0  3  0  0  0  0  0  0
  161.1810  204.1800  149.3610 C   0  0  0  0  0  3  0  0  0  0  0  0
  160.7210  205.4310  150.0390 C   0  0  2  0  0  3  0  0  0  0  0  0
  162.2740  207.0100  151.4320 C   0  0  0  0  0  2  0  0  0  0  0  0
  161.6320  207.8560  152.5200 C   0  0  0  0  0  2  0  0  0  0  0  0
  160.8250  208.9850  151.9050 C   0  0  0  0  0  2  0  0  0  0  0  0
  161.3860  210.3290  152.3330 C   0  0  0  0  0  2  0  0  0  0  0  0
  160.1570  212.7080  152.4840 O   0  0  0  0  0  0  0  0  0  0  0  0
  158.7640  210.7090  152.7730 O   0  0  0  0  0  0  0  0  0  0  0  0
  160.1040  211.3240  153.0670 S   0  0  0  0  0  0  0  0  0  0  0  0
  160.3570  211.4120  154.8370 C   0  0  2  0  0  3  0  0  0  0  0  0
  160.9760  209.2700  155.6710 O   0  0  0  0  0  1  0  0  0  0  0  0
  161.3630  210.4000  155.2770 C   0  0  0  0  0  0  0  0  0  0  0  0
  162.7210  210.7000  155.2660 O   0  0  0  0  0  0  0  0  0  0  0  0
  158.2460  212.3420  155.4670 O   0  0  0  0  0  1  0  0  0  0  0  0
  159.0490  211.2080  155.5870 C   0  0  0  0  0  2  0  0  0  0  0  0
  160.7180  206.5890  149.0420 C   0  0  0  0  0  2  0  0  0  0  0  0
  161.9830  206.5980  148.1920 C   0  0  0  0  0  2  0  0  0  0  0  0
  162.5100  204.4180  145.1500 C   0  0  0  0  0  3  0  0  0  0  0  0
  161.7690  205.9290  146.8760 C   0  0  0  0  0  0  0  0  0  0  0  0
  162.7200  205.0290  146.3880 C   0  0  0  0  0  3  0  0  0  0  0  0
  160.4510  205.5750  144.8880 C   0  0  0  0  0  3  0  0  0  0  0  0
  161.3890  204.7020  144.4300 N   0  0  0  0  0  0  0  0  0  0  0  0
  160.6240  206.2060  146.1220 C   0  0  0  0  0  3  0  0  0  0  0  0
  1  8  1  0  0  0  0
  1  5  2  0  0  0  0
  2  3  1  0  0  0  0
  3  4  2  0  0  0  0
  5  4  1  0  0  0  0
  6  2  2  0  0  0  0
  6  7  1  0  0  0  0
  7 21  1  6  0  0  0
  7  1  1  0  0  0  0
  8  9  1  0  0  0  0
 10 11  1  0  0  0  0
 10  9  1  0  0  0  0
 11 14  1  0  0  0  0
 12 14  2  0  0  0  0
 13 14  2  0  0  0  0
 14 15  1  0  0  0  0
 15 17  1  0  0  0  0
 15 20  1  1  0  0  0
 17 16  1  0  0  0  0
 18 17  2  0  0  0  0
 19 20  1  0  0  0  0
 22 21  1  0  0  0  0
 23 25  1  0  0  0  0
 24 22  1  0  0  0  0
 25 24  2  0  0  0  0
 26 28  2  0  0  0  0
 27 26  1  0  0  0  0
 27 23  2  0  0  0  0
 28 24  1  0  0  0  0
M  END
>  <MODEL>
7

>  <REMARK>
 VINA RESULT:      -7.2      2.502      3.893
  Name = 
  11 active torsions:
  status: ('A' for Active; 'I' for Inactive)
    1  A    between atoms: C_2  and  C_22
    2  A    between atoms: C_3  and  C_4
    3  A    between atoms: C_3  and  C_7
    4  A    between atoms: C_4  and  C_12
    5  A    between atoms: C_10  and  C_24
    6  A    between atoms: C_12  and  C_20
    7  A    between atoms: C_20  and  S_27
    8  A    between atoms: C_22  and  C_26
    9  A    between atoms: C_24  and  C_25
   10  A    between atoms: C_24  and  S_27
   11  A    between atoms: C_26  and  C_28
                            x       y       z     vdW  Elec       q    Type
                         _______ _______ _______ _____ _____    ______ ____

>  <TORSDO>
F 11

$$$$
=
 OpenBabel11072414103D

 28 29  0  0  1  0  0  0  0  0999 V2000
  161.3250  205.8500  151.3920 C   0  0  0  0  0  0  0  0  0  0  0  0
  161.2760  203.0730  150.0720 C   0  0  0  0  0  3  0  0  0  0  0  0
  160.7900  202.7930  151.4360 C   0  0  0  0  0  3  0  0  0  0  0  0
  160.8000  203.6470  152.4680 C   0  0  0  0  0  3  0  0  0  0  0  0
  161.3060  205.0330  152.4500 C   0  0  0  0  0  3  0  0  0  0  0  0
  161.2500  204.2680  149.4820 C   0  0  0  0  0  3  0  0  0  0  0  0
  160.6250  205.4720  150.1100 C   0  0  2  0  0  3  0  0  0  0  0  0
  161.9190  207.2120  151.5740 C   0  0  0  0  0  2  0  0  0  0  0  0
  161.3210  207.8880  152.7980 C   0  0  0  0  0  2  0  0  0  0  0  0
  160.6080  209.1680  152.4000 C   0  0  0  0  0  2  0  0  0  0  0  0
  161.1750  210.3490  153.1670 C   0  0  0  0  0  2  0  0  0  0  0  0
  159.8130  209.5860  155.3480 O   0  0  0  0  0  0  0  0  0  0  0  0
  160.7280  211.8620  155.3410 O   0  0  0  0  0  0  0  0  0  0  0  0
  160.0810  210.7970  154.4990 S   0  0  0  0  0  0  0  0  0  0  0  0
  158.5390  211.4060  153.8270 C   0  0  2  0  0  3  0  0  0  0  0  0
  158.8730  212.3830  151.6820 O   0  0  0  0  0  0  0  0  0  0  0  0
  158.7810  212.5690  152.9220 C   0  0  0  0  0  0  0  0  0  0  0  0
  158.9180  213.8530  153.4400 O   0  0  0  0  0  1  0  0  0  0  0  0
  156.7650  210.7180  155.2750 O   0  0  0  0  0  1  0  0  0  0  0  0
  157.5760  211.8010  154.9370 C   0  0  0  0  0  2  0  0  0  0  0  0
  160.5690  206.6150  149.0980 C   0  0  0  0  0  2  0  0  0  0  0  0
  161.8500  206.6940  148.2750 C   0  0  0  0  0  2  0  0  0  0  0  0
  162.4920  204.6000  145.1950 C   0  0  0  0  0  3  0  0  0  0  0  0
  161.6850  206.0610  146.9340 C   0  0  0  0  0  0  0  0  0  0  0  0
  162.6550  205.1770  146.4560 C   0  0  0  0  0  3  0  0  0  0  0  0
  160.4400  205.7590  144.8910 C   0  0  0  0  0  3  0  0  0  0  0  0
  161.3970  204.9010  144.4430 N   0  0  0  0  0  0  0  0  0  0  0  0
  160.5670  206.3570  146.1470 C   0  0  0  0  0  3  0  0  0  0  0  0
  1  8  1  0  0  0  0
  1  5  2  0  0  0  0
  2  3  1  0  0  0  0
  3  4  2  0  0  0  0
  5  4  1  0  0  0  0
  6  2  2  0  0  0  0
  6  7  1  0  0  0  0
  7 21  1  6  0  0  0
  7  1  1  0  0  0  0
  8  9  1  0  0  0  0
 10  9  1  0  0  0  0
 10 11  1  0  0  0  0
 11 14  1  0  0  0  0
 14 13  2  0  0  0  0
 14 12  2  0  0  0  0
 15 14  1  0  0  0  0
 15 20  1  1  0  0  0
 16 17  2  0  0  0  0
 17 18  1  0  0  0  0
 17 15  1  0  0  0  0
 20 19  1  0  0  0  0
 22 21  1  0  0  0  0
 23 25  1  0  0  0  0
 24 22  1  0  0  0  0
 25 24  2  0  0  0  0
 26 28  2  0  0  0  0
 27 26  1  0  0  0  0
 27 23  2  0  0  0  0
 28 24  1  0  0  0  0
M  END
>  <MODEL>
8

>  <REMARK>
 VINA RESULT:      -7.2      2.654      3.708
  Name = 
  11 active torsions:
  status: ('A' for Active; 'I' for Inactive)
    1  A    between atoms: C_2  and  C_22
    2  A    between atoms: C_3  and  C_4
    3  A    between atoms: C_3  and  C_7
    4  A    between atoms: C_4  and  C_12
    5  A    between atoms: C_10  and  C_24
    6  A    between atoms: C_12  and  C_20
    7  A    between atoms: C_20  and  S_27
    8  A    between atoms: C_22  and  C_26
    9  A    between atoms: C_24  and  C_25
   10  A    between atoms: C_24  and  S_27
   11  A    between atoms: C_26  and  C_28
                            x       y       z     vdW  Elec       q    Type
                         _______ _______ _______ _____ _____    ______ ____

>  <TORSDO>
F 11

$$$$
=
 OpenBabel11072414103D

 28 29  0  0  1  0  0  0  0  0999 V2000
  161.4470  207.5680  151.0020 C   0  0  0  0  0  0  0  0  0  0  0  0
  161.5150  205.4280  153.2100 C   0  0  0  0  0  3  0  0  0  0  0  0
  160.9550  206.5990  153.9100 C   0  0  0  0  0  3  0  0  0  0  0  0
  160.8920  207.8490  153.4320 C   0  0  0  0  0  3  0  0  0  0  0  0
  161.3780  208.3070  152.1150 C   0  0  0  0  0  3  0  0  0  0  0  0
  161.5060  205.2520  151.8890 C   0  0  0  0  0  3  0  0  0  0  0  0
  160.8280  206.1930  150.9460 C   0  0  2  0  0  3  0  0  0  0  0  0
  162.0080  208.2120  149.7730 C   0  0  0  0  0  2  0  0  0  0  0  0
  162.2080  209.7020  150.0030 C   0  0  0  0  0  2  0  0  0  0  0  0
  161.9500  210.4740  148.7220 C   0  0  0  0  0  2  0  0  0  0  0  0
  161.6350  211.9260  149.0350 C   0  0  0  0  0  2  0  0  0  0  0  0
  162.3250  214.3950  148.2440 O   0  0  0  0  0  0  0  0  0  0  0  0
  163.6310  212.5250  147.3400 O   0  0  0  0  0  0  0  0  0  0  0  0
  162.2550  212.9800  147.7400 S   0  0  0  0  0  0  0  0  0  0  0  0
  161.1560  212.9040  146.3300 C   0  0  2  0  0  3  0  0  0  0  0  0
  161.0440  214.4480  144.5210 O   0  0  0  0  0  0  0  0  0  0  0  0
  161.7450  213.6240  145.1620 C   0  0  0  0  0  0  0  0  0  0  0  0
  163.0590  213.3830  144.7710 O   0  0  0  0  0  1  0  0  0  0  0  0
  158.8150  212.4970  146.5960 O   0  0  0  0  0  1  0  0  0  0  0  0
  159.7920  213.4890  146.6680 C   0  0  0  0  0  2  0  0  0  0  0  0
  160.8140  205.5990  149.5390 C   0  0  0  0  0  2  0  0  0  0  0  0
  161.2110  204.1270  149.5510 C   0  0  0  0  0  2  0  0  0  0  0  0
  160.8330  201.6730  146.7010 C   0  0  0  0  0  3  0  0  0  0  0  0
  161.2040  203.5410  148.1790 C   0  0  0  0  0  0  0  0  0  0  0  0
  160.8250  202.2100  147.9900 C   0  0  0  0  0  3  0  0  0  0  0  0
  161.5820  203.7430  145.8070 C   0  0  0  0  0  3  0  0  0  0  0  0
  161.2090  202.4440  145.6440 N   0  0  0  0  0  0  0  0  0  0  0  0
  161.5870  204.3160  147.0800 C   0  0  0  0  0  3  0  0  0  0  0  0
  1  5  2  0  0  0  0
  2  3  1  0  0  0  0
  4  3  2  0  0  0  0
  5  4  1  0  0  0  0
  6  2  2  0  0  0  0
  7 21  1  6  0  0  0
  7  1  1  0  0  0  0
  7  6  1  0  0  0  0
  8  9  1  0  0  0  0
  8  1  1  0  0  0  0
 10 11  1  0  0  0  0
 10  9  1  0  0  0  0
 13 14  2  0  0  0  0
 14 12  2  0  0  0  0
 14 11  1  0  0  0  0
 15 20  1  1  0  0  0
 15 14  1  0  0  0  0
 16 17  2  0  0  0  0
 17 15  1  0  0  0  0
 18 17  1  0  0  0  0
 19 20  1  0  0  0  0
 21 22  1  0  0  0  0
 23 25  1  0  0  0  0
 24 22  1  0  0  0  0
 25 24  2  0  0  0  0
 26 28  2  0  0  0  0
 27 26  1  0  0  0  0
 27 23  2  0  0  0  0
 28 24  1  0  0  0  0
M  END
>  <MODEL>
9

>  <REMARK>
 VINA RESULT:      -7.1      4.871      7.584
  Name = 
  11 active torsions:
  status: ('A' for Active; 'I' for Inactive)
    1  A    between atoms: C_2  and  C_22
    2  A    between atoms: C_3  and  C_4
    3  A    between atoms: C_3  and  C_7
    4  A    between atoms: C_4  and  C_12
    5  A    between atoms: C_10  and  C_24
    6  A    between atoms: C_12  and  C_20
    7  A    between atoms: C_20  and  S_27
    8  A    between atoms: C_22  and  C_26
    9  A    between atoms: C_24  and  C_25
   10  A    between atoms: C_24  and  S_27
   11  A    between atoms: C_26  and  C_28
                            x       y       z     vdW  Elec       q    Type
                         _______ _______ _______ _____ _____    ______ ____

>  <TORSDO>
F 11

$$$$
