=
 OpenBabel11072412203D

 68 72  0  0  1  0  0  0  0  0999 V2000
  161.5480  208.0290  147.2300 C   0  0  0  0  0  2  0  0  0  0  0  0
  161.8620  206.5270  147.4790 C   0  0  2  0  0  0  0  0  0  0  0  0
  162.4030  206.2520  145.0320 O   0  0  0  0  0  1  0  0  0  0  0  0
  162.6580  205.8780  146.3460 C   0  0  0  0  0  0  0  0  0  0  0  0
  163.5500  204.9170  146.5630 C   0  0  0  0  0  2  0  0  0  0  0  0
  159.5990  206.2230  146.6530 O   0  0  0  0  0  1  0  0  0  0  0  0
  160.5220  205.7910  147.6120 C   0  0  0  0  0  2  0  0  0  0  0  0
  162.5360  206.3720  148.7180 O   0  0  0  0  0  0  0  0  0  0  0  0
  160.4300  203.4810  149.0720 C   0  0  0  0  0  0  0  0  0  0  0  0
  160.7790  202.3020  151.3260 C   0  0  1  0  0  3  0  0  0  0  0  0
  161.0530  205.7940  150.5190 C   0  0  1  0  0  3  0  0  0  0  0  0
  159.8660  202.6620  148.2980 O   0  0  0  0  0  0  0  0  0  0  0  0
  160.3840  204.7160  151.2740 N   0  0  1  0  0  0  0  0  0  0  0  0
  162.0190  205.2820  149.4470 C   0  0  1  0  0  3  0  0  0  0  0  0
  161.0360  202.8870  152.6950 C   0  0  0  0  0  2  0  0  0  0  0  0
  161.3290  204.4090  148.5650 O   0  0  0  0  0  0  0  0  0  0  0  0
  160.1360  203.4490  150.5490 C   0  0  1  0  0  3  0  0  0  0  0  0
  161.1710  204.3860  152.4640 C   0  0  2  0  0  3  0  0  0  0  0  0
  160.0880  206.6260  149.9470 O   0  0  0  0  0  1  0  0  0  0  0  0
  162.0470  201.6980  150.6850 C   0  0  1  0  0  3  0  0  0  0  0  0
  163.1890  201.4490  151.6640 C   0  0  0  0  0  1  0  0  0  0  0  0
  161.7280  200.4560  149.9120 C   0  0  0  0  0  3  0  0  0  0  0  0
  161.0000  200.4920  148.9310 O   0  0  0  0  0  0  0  0  0  0  0  0
  160.6810  205.2140  153.6640 C   0  0  2  0  0  3  0  0  0  0  0  0
  159.2850  205.2230  153.6940 O   0  0  0  0  0  1  0  0  0  0  0  0
  162.4710  206.7620  153.1560 O   0  0  0  0  0  1  0  0  0  0  0  0
  161.1900  206.6650  153.7110 C   0  0  2  0  0  3  0  0  0  0  0  0
  161.4760  209.3920  156.0340 N   0  0  0  0  0  0  0  0  0  0  0  0
  160.0670  209.1150  156.2220 C   0  0  0  0  0  2  0  0  0  0  0  0
  161.3490  211.6180  157.2590 C   0  0  0  0  0  1  0  0  0  0  0  0
  162.1740  208.3530  155.3060 C   0  0  0  0  0  2  0  0  0  0  0  0
  163.3680  210.7100  156.4020 O   0  0  0  0  0  0  0  0  0  0  0  0
  161.1640  207.2300  155.1330 C   0  0  1  0  0  3  0  0  0  0  0  0
  159.7980  207.8330  155.4580 C   0  0  0  0  0  2  0  0  0  0  0  0
  162.1260  210.5640  156.5450 C   0  0  0  0  0  0  0  0  0  0  0  0
  161.5360  208.8820  148.4960 C   0  0  0  0  0  2  0  0  0  0  0  0
  162.5360  210.0190  148.3730 C   0  0  0  0  0  2  0  0  0  0  0  0
  161.9120  211.3710  150.3640 C   0  0  0  0  0  3  0  0  0  0  0  0
  162.0090  211.2590  149.0290 C   0  0  0  0  0  0  0  0  0  0  0  0
  162.3700  210.3050  151.3200 C   0  0  0  0  0  2  0  0  0  0  0  0
  160.0990  211.4330  153.2190 C   0  0  1  0  0  3  0  0  0  0  0  0
  161.5160  210.1680  152.5870 C   0  0  2  0  0  3  0  0  0  0  0  0
  160.0360  210.2250  152.3210 C   0  0  0  0  0  2  0  0  0  0  0  0
  161.4970  211.3470  153.3540 O   0  0  0  0  0  0  0  0  0  0  0  0
  159.7130  212.6880  152.4510 C   0  0  0  0  0  2  0  0  0  0  0  0
  158.2290  212.6830  152.1250 C   0  0  0  0  0  2  0  0  0  0  0  0
  155.2270  214.4530  153.1900 N   0  0  0  0  0  2  0  0  0  0  0  0
  156.3400  214.2760  152.2690 C   0  0  0  0  0  2  0  0  0  0  0  0
  157.4720  213.6370  153.0350 C   0  0  1  0  0  3  0  0  0  0  0  0
  156.7980  212.8890  154.1570 C   0  0  1  0  0  3  0  0  0  0  0  0
  157.5420  213.1300  155.4570 C   0  0  0  0  0  1  0  0  0  0  0  0
  155.3990  213.4660  154.2500 C   0  0  0  0  0  2  0  0  0  0  0  0
  161.5400  212.3660  148.1220 C   0  0  1  0  0  3  0  0  0  0  0  0
  160.9180  214.2450  149.4860 O   0  0  0  0  0  1  0  0  0  0  0  0
  159.1880  213.0920  148.5260 O   0  0  0  0  0  0  0  0  0  0  0  0
  160.5430  213.2920  148.7500 C   0  0  0  0  0  0  0  0  0  0  0  0
  162.6110  213.0800  147.2800 C   0  0  2  0  0  3  0  0  0  0  0  0
  163.0100  214.4300  147.8650 C   0  0  0  0  0  1  0  0  0  0  0  0
  162.6760  214.3800  145.2710 O   0  0  0  0  0  1  0  0  0  0  0  0
  162.3540  213.1140  145.7680 C   0  0  2  0  0  3  0  0  0  0  0  0
  160.9160  212.7640  145.3920 C   0  0  0  0  0  2  0  0  0  0  0  0
  160.6150  213.1830  143.9630 C   0  0  0  0  0  2  0  0  0  0  0  0
  160.6260  211.9710  143.0480 C   0  0  0  0  0  2  0  0  0  0  0  0
  159.9440  212.2790  141.7200 C   0  0  0  0  0  2  0  0  0  0  0  0
  160.1940  211.7080  139.2390 C   0  0  0  0  0  1  0  0  0  0  0  0
  160.8750  212.2140  140.5030 C   0  0  2  0  0  3  0  0  0  0  0  0
  162.8370  210.9140  139.5330 C   0  0  0  0  0  1  0  0  0  0  0  0
  162.2290  211.5480  140.7740 C   0  0  0  0  0  2  0  0  0  0  0  0
  1 36  1  0  0  0  0
  2  1  1  6  0  0  0
  2  7  1  0  0  0  0
  2  8  1  0  0  0  0
  3  4  1  0  0  0  0
  4  5  2  0  0  0  0
  4  2  1  0  0  0  0
  6  7  1  0  0  0  0
  8 14  1  0  0  0  0
  9 17  1  0  0  0  0
 10 20  1  6  0  0  0
 10 15  1  0  0  0  0
 11 19  1  6  0  0  0
 11 13  1  0  0  0  0
 12  9  2  0  0  0  0
 13 18  1  0  0  0  0
 14 11  1  0  0  0  0
 16  9  1  0  0  0  0
 16 14  1  0  0  0  0
 17 13  1  0  0  0  0
 17 10  1  0  0  0  0
 18 15  1  0  0  0  0
 18 24  1  0  0  0  0
 20 21  1  0  0  0  0
 22 20  1  0  0  0  0
 23 22  2  0  0  0  0
 24 25  1  0  0  0  0
 24 27  1  0  0  0  0
 26 27  1  0  0  0  0
 27 33  1  0  0  0  0
 28 29  1  0  0  0  0
 28 35  1  0  0  0  0
 31 28  1  0  0  0  0
 32 35  2  0  0  0  0
 33 31  1  0  0  0  0
 33 34  1  0  0  0  0
 34 29  1  0  0  0  0
 35 30  1  0  0  0  0
 37 36  1  0  0  0  0
 37 39  1  0  0  0  0
 38 40  1  0  0  0  0
 39 38  2  0  0  0  0
 40 42  1  0  0  0  0
 41 44  1  0  0  0  0
 42 44  1  0  0  0  0
 43 42  1  0  0  0  0
 43 41  1  0  0  0  0
 45 41  1  0  0  0  0
 46 45  1  0  0  0  0
 46 49  1  0  0  0  0
 47 52  1  0  0  0  0
 48 49  1  0  0  0  0
 48 47  1  0  0  0  0
 49 50  1  0  0  0  0
 50 52  1  0  0  0  0
 50 51  1  0  0  0  0
 53 56  1  0  0  0  0
 53 39  1  0  0  0  0
 55 56  2  0  0  0  0
 56 54  1  0  0  0  0
 57 58  1  0  0  0  0
 57 53  1  0  0  0  0
 59 60  1  0  0  0  0
 60 57  1  0  0  0  0
 61 60  1  0  0  0  0
 62 61  1  0  0  0  0
 63 62  1  0  0  0  0
 64 63  1  0  0  0  0
 65 66  1  0  0  0  0
 66 68  1  0  0  0  0
 66 64  1  0  0  0  0
 67 68  1  0  0  0  0
M  END
>  <MODEL>
1

>  <REMARK>
 VINA RESULT:      -0.7      0.000      0.000
  Name = 
  28 active torsions:
  status: ('A' for Active; 'I' for Inactive)
    1  A    between atoms: C_2  and  C_22
    2  A    between atoms: C_2  and  C_28
    3  A    between atoms: C_3  and  C_33
    4  A    between atoms: C_7  and  C_22
    5  A    between atoms: C_10  and  C_62
    6  A    between atoms: C_12  and  C_50
    7  A    between atoms: C_12  and  C_53
    8  A    between atoms: C_14  and  C_32
    9  A    between atoms: C_14  and  C_51
   10  A    between atoms: C_15  and  C_56
   11  A    between atoms: C_15  and  C_63
   12  A    between atoms: O_20  and  C_24
   13  A    between atoms: O_20  and  C_62
   14  A    between atoms: C_21  and  C_57
   15  A    between atoms: C_21  and  C_66
   16  A    between atoms: C_23  and  C_47
   17  A    between atoms: C_23  and  C_53
   18  A    between atoms: C_25  and  C_52
   19  A    between atoms: C_27  and  C_62
   20  A    between atoms: C_29  and  C_33
   21  A    between atoms: C_32  and  C_50
   22  A    between atoms: C_36  and  C_52
   23  A    between atoms: C_37  and  C_51
   24  A    between atoms: C_38  and  C_62
   25  A    between atoms: C_38  and  C_66
   26  A    between atoms: C_46  and  C_56
   27  A    between atoms: C_47  and  C_57
   28  A    between atoms: C_47  and  C_58
                            x       y       z     vdW  Elec       q    Type
                         _______ _______ _______ _____ _____    ______ ____

>  <TORSDO>
F 28

$$$$
