=
 OpenBabel11072413203D

 44 48  0  0  1  0  0  0  0  0999 V2000
  161.7310  207.8370  149.2610 C   0  0  1  0  0  3  0  0  0  0  0  0
  162.4430  209.7740  150.5000 O   0  0  0  0  0  0  0  0  0  0  0  0
  161.9640  209.3140  149.4280 C   0  0  0  0  0  0  0  0  0  0  0  0
  161.6600  210.1890  148.3370 N   0  0  0  0  0  2  0  0  0  0  0  0
  161.9320  211.6230  148.3760 C   0  0  2  0  0  3  0  0  0  0  0  0
  161.2400  212.2510  149.5740 C   0  0  0  0  0  1  0  0  0  0  0  0
  161.5160  212.3090  147.0750 C   0  0  0  0  0  2  0  0  0  0  0  0
  162.5560  213.2880  146.5660 C   0  0  0  0  0  2  0  0  0  0  0  0
  163.3310  213.8330  144.2880 C   0  0  0  0  0  2  0  0  0  0  0  0
  162.1410  213.8520  145.2250 C   0  0  1  0  0  3  0  0  0  0  0  0
  162.2650  212.7680  144.1750 C   0  0  1  0  0  3  0  0  0  0  0  0
  161.3400  213.1010  143.0210 C   0  0  0  0  0  2  0  0  0  0  0  0
  160.7580  212.3410  140.6780 C   0  0  2  0  0  0  0  0  0  0  0  0
  160.3240  214.0290  140.2950 Cl  0  0  0  0  0  0  0  0  0  0  0  0
  161.2760  211.9320  142.0550 C   0  0  1  0  0  3  0  0  0  0  0  0
  162.2440  212.1720  140.8990 C   0  0  1  0  0  3  0  0  0  0  0  0
  160.0910  211.0310  139.6060 S   0  0  0  0  0  0  0  0  0  0  0  0
  162.7100  210.8600  140.2740 C   0  0  0  0  0  2  0  0  0  0  0  0
  161.5370  209.9800  139.8890 C   0  0  0  0  0  2  0  0  0  0  0  0
  162.6080  207.3220  148.1240 C   0  0  0  0  0  2  0  0  0  0  0  0
  161.0040  206.2130  146.4830 C   0  0  2  0  0  3  0  0  0  0  0  0
  159.7740  206.2950  147.1290 O   0  0  0  0  0  1  0  0  0  0  0  0
  163.2050  205.2390  146.7850 C   0  0  0  0  0  2  0  0  0  0  0  0
  161.0700  204.9460  145.6520 C   0  0  2  0  0  3  0  0  0  0  0  0
  162.1140  206.0210  147.4930 C   0  0  1  0  0  3  0  0  0  0  0  0
  162.5190  204.4680  145.6660 C   0  0  0  0  0  2  0  0  0  0  0  0
  160.5010  205.0670  144.3690 O   0  0  0  0  0  0  0  0  0  0  0  0
  161.4610  205.5570  143.4700 C   0  0  0  0  0  1  0  0  0  0  0  0
  162.0510  207.1050  150.4810 N   0  0  0  0  0  2  0  0  0  0  0  0
  160.8990  205.8950  152.1900 C   0  0  1  0  0  3  0  0  0  0  0  0
  161.0050  206.1980  150.7330 N   0  0  0  0  0  0  0  0  0  0  0  0
  161.6120  204.9820  151.3000 C   0  0  2  0  0  3  0  0  0  0  0  0
  160.7940  203.7240  150.9690 C   0  0  2  0  0  3  0  0  0  0  0  0
  161.2050  202.6780  151.7950 O   0  0  0  0  0  1  0  0  0  0  0  0
  160.8300  203.2720  149.5060 C   0  0  0  0  0  2  0  0  0  0  0  0
  160.4130  201.8150  149.3690 C   0  0  0  0  0  2  0  0  0  0  0  0
  160.7480  201.8740  146.8940 O   0  0  0  0  0  0  0  0  0  0  0  0
  161.6290  200.1640  148.1460 O   0  0  0  0  0  1  0  0  0  0  0  0
  160.9530  201.2250  148.1080 C   0  0  0  0  0  0  0  0  0  0  0  0
  161.9030  206.6320  153.0750 C   0  0  0  0  0  2  0  0  0  0  0  0
  160.7730  208.3350  154.5390 C   0  0  0  0  0  0  0  0  0  0  0  0
  160.1840  208.6130  155.6170 O   0  0  0  0  0  0  0  0  0  0  0  0
  160.9340  209.3440  153.5450 N   0  0  0  0  0  1  0  0  0  0  0  0
  161.2650  207.0140  154.3230 N   0  0  0  0  0  2  0  0  0  0  0  0
  1 20  1  6  0  0  0
  1  3  1  0  0  0  0
  1 29  1  0  0  0  0
  3  2  2  0  0  0  0
  4  5  1  0  0  0  0
  4  3  1  0  0  0  0
  5  6  1  1  0  0  0
  7  5  1  0  0  0  0
  8  7  1  0  0  0  0
  9 10  1  0  0  0  0
 10  8  1  1  0  0  0
 11 12  1  6  0  0  0
 11  9  1  0  0  0  0
 11 10  1  0  0  0  0
 13 14  1  6  0  0  0
 13 16  1  0  0  0  0
 13 15  1  0  0  0  0
 15 12  1  1  0  0  0
 16 18  1  6  0  0  0
 16 15  1  0  0  0  0
 17 19  1  0  0  0  0
 17 13  1  0  0  0  0
 19 18  1  0  0  0  0
 21 22  1  1  0  0  0
 21 25  1  0  0  0  0
 23 25  1  0  0  0  0
 24 27  1  6  0  0  0
 24 26  1  0  0  0  0
 24 21  1  0  0  0  0
 25 20  1  6  0  0  0
 26 23  1  0  0  0  0
 28 27  1  0  0  0  0
 29 31  1  0  0  0  0
 30 40  1  1  0  0  0
 31 32  1  0  0  0  0
 31 30  1  0  0  0  0
 32 33  1  6  0  0  0
 32 30  1  0  0  0  0
 33 34  1  1  0  0  0
 35 33  1  0  0  0  0
 36 35  1  0  0  0  0
 37 39  2  0  0  0  0
 39 38  1  0  0  0  0
 39 36  1  0  0  0  0
 40 44  1  0  0  0  0
 41 42  2  0  0  0  0
 43 41  1  0  0  0  0
 44 41  1  0  0  0  0
M  END
>  <MODEL>
1

>  <REMARK>
 VINA RESULT:      -7.3      0.000      0.000
  Name = 
  18 active torsions:
  status: ('A' for Active; 'I' for Inactive)
    1  A    between atoms: C_1  and  C_4
    2  A    between atoms: C_1  and  N_20
    3  A    between atoms: C_1  and  C_34
    4  A    between atoms: C_3  and  C_16
    5  A    between atoms: C_4  and  C_43
    6  A    between atoms: C_6  and  C_15
    7  A    between atoms: C_6  and  N_40
    8  A    between atoms: C_7  and  C_8
    9  A    between atoms: C_7  and  C_12
   10  A    between atoms: C_8  and  C_35
   11  A    between atoms: C_11  and  C_15
   12  A    between atoms: C_11  and  C_32
   13  A    between atoms: C_12  and  C_28
   14  A    between atoms: C_16  and  N_27
   15  A    between atoms: N_19  and  N_20
   16  A    between atoms: O_22  and  C_37
   17  A    between atoms: C_24  and  C_36
   18  A    between atoms: C_36  and  C_38
                            x       y       z     vdW  Elec       q    Type
                         _______ _______ _______ _____ _____    ______ ____

>  <TORSDO>
F 18

$$$$
=
 OpenBabel11072413203D

 44 48  0  0  1  0  0  0  0  0999 V2000
  160.4520  210.6770  153.4620 C   0  0  1  0  0  3  0  0  0  0  0  0
  162.5950  210.1680  152.4910 O   0  0  0  0  0  0  0  0  0  0  0  0
  161.3880  209.8340  152.6390 C   0  0  0  0  0  0  0  0  0  0  0  0
  160.8940  208.6280  152.0480 N   0  0  0  0  0  2  0  0  0  0  0  0
  161.7480  207.7040  151.3060 C   0  0  2  0  0  3  0  0  0  0  0  0
  161.0680  207.2940  150.0120 C   0  0  0  0  0  1  0  0  0  0  0  0
  162.1190  206.4840  152.1480 C   0  0  0  0  0  2  0  0  0  0  0  0
  161.1130  205.3560  152.0240 C   0  0  0  0  0  2  0  0  0  0  0  0
  161.1900  202.9300  151.5830 C   0  0  0  0  0  2  0  0  0  0  0  0
  161.6250  204.2900  151.0800 C   0  0  1  0  0  3  0  0  0  0  0  0
  160.4440  203.5870  150.4450 C   0  0  1  0  0  3  0  0  0  0  0  0
  160.8910  202.9770  149.1310 C   0  0  0  0  0  2  0  0  0  0  0  0
  161.6580  203.6270  146.8080 C   0  0  2  0  0  0  0  0  0  0  0  0
  160.9680  202.0940  146.2080 Cl  0  0  0  0  0  0  0  0  0  0  0  0
  161.5800  204.0280  148.2800 C   0  0  1  0  0  3  0  0  0  0  0  0
  160.5880  204.5920  147.2650 C   0  0  1  0  0  3  0  0  0  0  0  0
  162.9060  204.4560  145.7750 S   0  0  0  0  0  0  0  0  0  0  0  0
  160.9610  206.0100  146.8430 C   0  0  0  0  0  2  0  0  0  0  0  0
  162.3990  206.0890  146.3700 C   0  0  0  0  0  2  0  0  0  0  0  0
  161.2560  211.4100  154.5310 C   0  0  0  0  0  2  0  0  0  0  0  0
  160.1460  209.6850  156.0450 C   0  0  2  0  0  3  0  0  0  0  0  0
  158.9200  210.2680  156.3530 O   0  0  0  0  0  1  0  0  0  0  0  0
  162.5220  210.0960  156.3080 C   0  0  0  0  0  2  0  0  0  0  0  0
  160.6340  208.8550  157.2160 C   0  0  2  0  0  3  0  0  0  0  0  0
  161.2120  210.7500  155.9090 C   0  0  1  0  0  3  0  0  0  0  0  0
  162.1570  208.9410  157.2310 C   0  0  0  0  0  2  0  0  0  0  0  0
  160.1160  207.5450  157.2490 O   0  0  0  0  0  0  0  0  0  0  0  0
  160.1130  207.0040  155.9550 C   0  0  0  0  0  1  0  0  0  0  0  0
  159.7500  211.6540  152.6380 N   0  0  0  0  0  2  0  0  0  0  0  0
  157.8790  213.1400  152.5880 C   0  0  1  0  0  3  0  0  0  0  0  0
  158.6250  212.1020  153.3560 N   0  0  0  0  0  0  0  0  0  0  0  0
  158.8270  213.5350  153.6260 C   0  0  2  0  0  3  0  0  0  0  0  0
  158.1290  213.9790  154.9220 C   0  0  2  0  0  3  0  0  0  0  0  0
  158.9390  213.6610  156.0120 O   0  0  0  0  0  1  0  0  0  0  0  0
  156.7210  213.4230  155.1440 C   0  0  0  0  0  2  0  0  0  0  0  0
  156.6290  212.6640  156.4610 C   0  0  0  0  0  2  0  0  0  0  0  0
  155.8020  210.6090  155.3060 O   0  0  0  0  0  0  0  0  0  0  0  0
  154.7800  211.3590  157.2200 O   0  0  0  0  0  1  0  0  0  0  0  0
  155.6740  211.5220  156.3490 C   0  0  0  0  0  0  0  0  0  0  0  0
  158.4620  213.4670  151.2140 C   0  0  0  0  0  2  0  0  0  0  0  0
  157.6780  213.4770  148.8260 C   0  0  0  0  0  0  0  0  0  0  0  0
  156.7270  213.4440  148.0000 O   0  0  0  0  0  0  0  0  0  0  0  0
  159.0220  213.5000  148.3500 N   0  0  0  0  0  1  0  0  0  0  0  0
  157.4000  213.4830  150.2240 N   0  0  0  0  0  2  0  0  0  0  0  0
  1 20  1  1  0  0  0
  2  3  2  0  0  0  0
  3  1  1  0  0  0  0
  4  3  1  0  0  0  0
  5  6  1  6  0  0  0
  5  4  1  0  0  0  0
  5  7  1  0  0  0  0
  8  7  1  0  0  0  0
 10  9  1  0  0  0  0
 10  8  1  1  0  0  0
 11 12  1  6  0  0  0
 11 10  1  0  0  0  0
 11  9  1  0  0  0  0
 13 14  1  6  0  0  0
 13 16  1  0  0  0  0
 13 15  1  0  0  0  0
 15 12  1  1  0  0  0
 16 18  1  6  0  0  0
 16 15  1  0  0  0  0
 17 19  1  0  0  0  0
 17 13  1  0  0  0  0
 19 18  1  0  0  0  0
 21 22  1  1  0  0  0
 21 24  1  0  0  0  0
 23 26  1  0  0  0  0
 24 26  1  0  0  0  0
 24 27  1  6  0  0  0
 25 20  1  6  0  0  0
 25 21  1  0  0  0  0
 25 23  1  0  0  0  0
 28 27  1  0  0  0  0
 29 31  1  0  0  0  0
 29  1  1  0  0  0  0
 30 40  1  6  0  0  0
 30 31  1  0  0  0  0
 30 32  1  0  0  0  0
 31 32  1  0  0  0  0
 32 33  1  1  0  0  0
 33 35  1  0  0  0  0
 33 34  1  1  0  0  0
 35 36  1  0  0  0  0
 37 39  2  0  0  0  0
 39 36  1  0  0  0  0
 39 38  1  0  0  0  0
 41 44  1  0  0  0  0
 42 41  2  0  0  0  0
 43 41  1  0  0  0  0
 44 40  1  0  0  0  0
M  END
>  <MODEL>
2

>  <REMARK>
 VINA RESULT:      -7.2      5.549     10.065
  Name = 
  18 active torsions:
  status: ('A' for Active; 'I' for Inactive)
    1  A    between atoms: C_1  and  C_4
    2  A    between atoms: C_1  and  N_20
    3  A    between atoms: C_1  and  C_34
    4  A    between atoms: C_3  and  C_16
    5  A    between atoms: C_4  and  C_43
    6  A    between atoms: C_6  and  C_15
    7  A    between atoms: C_6  and  N_40
    8  A    between atoms: C_7  and  C_8
    9  A    between atoms: C_7  and  C_12
   10  A    between atoms: C_8  and  C_35
   11  A    between atoms: C_11  and  C_15
   12  A    between atoms: C_11  and  C_32
   13  A    between atoms: C_12  and  C_28
   14  A    between atoms: C_16  and  N_27
   15  A    between atoms: N_19  and  N_20
   16  A    between atoms: O_22  and  C_37
   17  A    between atoms: C_24  and  C_36
   18  A    between atoms: C_36  and  C_38
                            x       y       z     vdW  Elec       q    Type
                         _______ _______ _______ _____ _____    ______ ____

>  <TORSDO>
F 18

$$$$
=
 OpenBabel11072413203D

 44 48  0  0  1  0  0  0  0  0999 V2000
  161.6620  207.8880  149.0890 C   0  0  1  0  0  3  0  0  0  0  0  0
  162.3540  209.8260  150.3370 O   0  0  0  0  0  0  0  0  0  0  0  0
  161.9060  209.3630  149.2530 C   0  0  0  0  0  0  0  0  0  0  0  0
  161.6490  210.2340  148.1460 N   0  0  0  0  0  2  0  0  0  0  0  0
  161.9360  211.6650  148.1840 C   0  0  2  0  0  3  0  0  0  0  0  0
  163.4310  211.8980  148.0550 C   0  0  0  0  0  1  0  0  0  0  0  0
  161.3820  212.3140  149.4520 C   0  0  0  0  0  2  0  0  0  0  0  0
  160.4220  213.4500  149.1610 C   0  0  0  0  0  2  0  0  0  0  0  0
  158.4000  214.0930  150.4210 C   0  0  0  0  0  2  0  0  0  0  0  0
  159.9140  214.0590  150.4500 C   0  0  1  0  0  3  0  0  0  0  0  0
  159.1150  213.0180  151.2050 C   0  0  1  0  0  3  0  0  0  0  0  0
  159.1120  213.3810  152.6770 C   0  0  0  0  0  2  0  0  0  0  0  0
  158.3480  212.5620  154.9470 C   0  0  2  0  0  0  0  0  0  0  0  0
  159.5390  213.6660  155.6880 Cl  0  0  0  0  0  0  0  0  0  0  0  0
  158.1640  212.4680  153.4340 C   0  0  1  0  0  3  0  0  0  0  0  0
  157.2150  213.3110  154.2820 C   0  0  1  0  0  3  0  0  0  0  0  0
  157.7310  211.1800  155.9570 S   0  0  0  0  0  0  0  0  0  0  0  0
  155.8980  212.5850  154.5410 C   0  0  0  0  0  2  0  0  0  0  0  0
  156.1300  211.2000  155.1130 C   0  0  0  0  0  2  0  0  0  0  0  0
  162.5080  207.3720  147.9290 C   0  0  0  0  0  2  0  0  0  0  0  0
  161.0810  206.0970  146.2450 C   0  0  2  0  0  3  0  0  0  0  0  0
  159.7870  206.2540  146.7340 O   0  0  0  0  0  1  0  0  0  0  0  0
  163.2170  205.1520  146.9000 C   0  0  0  0  0  2  0  0  0  0  0  0
  161.2190  204.7460  145.5690 C   0  0  2  0  0  3  0  0  0  0  0  0
  162.0660  206.0120  147.3900 C   0  0  1  0  0  3  0  0  0  0  0  0
  162.6490  204.2660  145.8000 C   0  0  0  0  0  2  0  0  0  0  0  0
  160.8010  204.7290  144.2240 O   0  0  0  0  0  0  0  0  0  0  0  0
  161.4740  205.7290  143.5060 C   0  0  0  0  0  1  0  0  0  0  0  0
  162.0100  207.1510  150.2990 N   0  0  0  0  0  2  0  0  0  0  0  0
  160.7600  206.0130  151.9870 C   0  0  1  0  0  3  0  0  0  0  0  0
  161.0080  206.1890  150.5270 N   0  0  0  0  0  0  0  0  0  0  0  0
  161.6310  205.0840  151.2730 C   0  0  2  0  0  3  0  0  0  0  0  0
  160.9480  203.7380  150.9840 C   0  0  2  0  0  3  0  0  0  0  0  0
  161.5830  202.7340  151.7140 O   0  0  0  0  0  1  0  0  0  0  0  0
  160.8690  203.3350  149.5090 C   0  0  0  0  0  2  0  0  0  0  0  0
  160.2700  201.9450  149.3490 C   0  0  0  0  0  2  0  0  0  0  0  0
  160.6260  201.6470  146.8940 O   0  0  0  0  0  0  0  0  0  0  0  0
  161.6870  200.2750  148.3990 O   0  0  0  0  0  1  0  0  0  0  0  0
  160.8910  201.2290  148.1950 C   0  0  0  0  0  0  0  0  0  0  0  0
  161.6010  206.9060  152.8960 C   0  0  0  0  0  2  0  0  0  0  0  0
  160.6480  207.9900  154.9540 C   0  0  0  0  0  0  0  0  0  0  0  0
  160.1740  207.8750  156.1160 O   0  0  0  0  0  0  0  0  0  0  0  0
  160.7200  209.2790  154.3490 N   0  0  0  0  0  1  0  0  0  0  0  0
  161.0980  206.8310  154.2570 N   0  0  0  0  0  2  0  0  0  0  0  0
  1 20  1  6  0  0  0
  1  3  1  0  0  0  0
  1 29  1  0  0  0  0
  3  2  2  0  0  0  0
  4  5  1  0  0  0  0
  4  3  1  0  0  0  0
  5  6  1  1  0  0  0
  5  7  1  0  0  0  0
  8  7  1  0  0  0  0
  9 10  1  0  0  0  0
  9 11  1  0  0  0  0
 10  8  1  6  0  0  0
 10 11  1  0  0  0  0
 11 12  1  1  0  0  0
 13 14  1  1  0  0  0
 13 17  1  0  0  0  0
 15 12  1  6  0  0  0
 15 16  1  0  0  0  0
 15 13  1  0  0  0  0
 16 18  1  1  0  0  0
 16 13  1  0  0  0  0
 18 19  1  0  0  0  0
 19 17  1  0  0  0  0
 21 22  1  1  0  0  0
 21 25  1  0  0  0  0
 23 25  1  0  0  0  0
 24 27  1  6  0  0  0
 24 26  1  0  0  0  0
 24 21  1  0  0  0  0
 25 20  1  6  0  0  0
 26 23  1  0  0  0  0
 28 27  1  0  0  0  0
 29 31  1  0  0  0  0
 30 40  1  1  0  0  0
 31 32  1  0  0  0  0
 31 30  1  0  0  0  0
 32 33  1  6  0  0  0
 32 30  1  0  0  0  0
 33 34  1  1  0  0  0
 35 33  1  0  0  0  0
 36 35  1  0  0  0  0
 37 39  2  0  0  0  0
 39 38  1  0  0  0  0
 39 36  1  0  0  0  0
 40 44  1  0  0  0  0
 41 42  2  0  0  0  0
 43 41  1  0  0  0  0
 44 41  1  0  0  0  0
M  END
>  <MODEL>
3

>  <REMARK>
 VINA RESULT:      -7.0      4.283      6.502
  Name = 
  18 active torsions:
  status: ('A' for Active; 'I' for Inactive)
    1  A    between atoms: C_1  and  C_4
    2  A    between atoms: C_1  and  N_20
    3  A    between atoms: C_1  and  C_34
    4  A    between atoms: C_3  and  C_16
    5  A    between atoms: C_4  and  C_43
    6  A    between atoms: C_6  and  C_15
    7  A    between atoms: C_6  and  N_40
    8  A    between atoms: C_7  and  C_8
    9  A    between atoms: C_7  and  C_12
   10  A    between atoms: C_8  and  C_35
   11  A    between atoms: C_11  and  C_15
   12  A    between atoms: C_11  and  C_32
   13  A    between atoms: C_12  and  C_28
   14  A    between atoms: C_16  and  N_27
   15  A    between atoms: N_19  and  N_20
   16  A    between atoms: O_22  and  C_37
   17  A    between atoms: C_24  and  C_36
   18  A    between atoms: C_36  and  C_38
                            x       y       z     vdW  Elec       q    Type
                         _______ _______ _______ _____ _____    ______ ____

>  <TORSDO>
F 18

$$$$
=
 OpenBabel11072413203D

 44 48  0  0  1  0  0  0  0  0999 V2000
  160.6530  211.4570  152.2670 C   0  0  1  0  0  3  0  0  0  0  0  0
  162.7170  210.2360  152.4680 O   0  0  0  0  0  0  0  0  0  0  0  0
  161.5020  210.2230  152.1300 C   0  0  0  0  0  0  0  0  0  0  0  0
  160.9020  209.0210  151.6360 N   0  0  0  0  0  2  0  0  0  0  0  0
  161.6240  207.7550  151.5490 C   0  0  2  0  0  3  0  0  0  0  0  0
  162.3110  207.6410  150.1990 C   0  0  0  0  0  1  0  0  0  0  0  0
  160.7010  206.5640  151.8030 C   0  0  0  0  0  2  0  0  0  0  0  0
  161.4240  205.3750  152.4030 C   0  0  0  0  0  2  0  0  0  0  0  0
  161.3930  202.9850  151.7910 C   0  0  0  0  0  2  0  0  0  0  0  0
  161.7820  204.3730  151.3270 C   0  0  1  0  0  3  0  0  0  0  0  0
  160.5120  203.7270  150.8140 C   0  0  1  0  0  3  0  0  0  0  0  0
  160.7630  203.2070  149.4130 C   0  0  0  0  0  2  0  0  0  0  0  0
  161.6550  203.8460  147.1310 C   0  0  2  0  0  0  0  0  0  0  0  0
  161.0130  202.3020  146.5060 Cl  0  0  0  0  0  0  0  0  0  0  0  0
  161.4900  204.2580  148.5920 C   0  0  1  0  0  3  0  0  0  0  0  0
  160.5520  204.8040  147.5190 C   0  0  1  0  0  3  0  0  0  0  0  0
  162.9510  204.6780  146.1630 S   0  0  0  0  0  0  0  0  0  0  0  0
  160.9350  206.2220  147.1060 C   0  0  0  0  0  2  0  0  0  0  0  0
  162.3980  206.3100  146.7140 C   0  0  0  0  0  2  0  0  0  0  0  0
  160.0420  211.7910  150.9090 C   0  0  0  0  0  2  0  0  0  0  0  0
  161.3510  212.0540  148.7380 C   0  0  2  0  0  3  0  0  0  0  0  0
  162.4820  211.2680  148.9460 O   0  0  0  0  0  1  0  0  0  0  0  0
  160.2440  214.0030  149.6640 C   0  0  0  0  0  2  0  0  0  0  0  0
  161.7020  213.2450  147.8670 C   0  0  2  0  0  3  0  0  0  0  0  0
  160.9140  212.6940  150.0370 C   0  0  1  0  0  3  0  0  0  0  0  0
  160.8250  214.4110  148.3170 C   0  0  0  0  0  2  0  0  0  0  0  0
  161.6650  212.9790  146.4840 O   0  0  0  0  0  0  0  0  0  0  0  0
  162.4480  213.9200  145.8000 C   0  0  0  0  0  1  0  0  0  0  0  0
  159.5820  211.2640  153.2380 N   0  0  0  0  0  2  0  0  0  0  0  0
  159.3110  210.9170  155.5860 C   0  0  1  0  0  3  0  0  0  0  0  0
  160.1300  210.6370  154.3730 N   0  0  0  0  0  0  0  0  0  0  0  0
  160.5120  211.7010  155.3150 C   0  0  2  0  0  3  0  0  0  0  0  0
  161.6980  211.2870  156.1990 C   0  0  2  0  0  3  0  0  0  0  0  0
  162.7500  210.8600  155.3880 O   0  0  0  0  0  1  0  0  0  0  0  0
  161.3990  210.2240  157.2600 C   0  0  0  0  0  2  0  0  0  0  0  0
  162.1080  208.9140  156.9430 C   0  0  0  0  0  2  0  0  0  0  0  0
  160.0180  207.5510  157.0520 O   0  0  0  0  0  1  0  0  0  0  0  0
  161.3670  207.4670  155.1960 O   0  0  0  0  0  0  0  0  0  0  0  0
  161.1590  207.9270  156.3490 C   0  0  0  0  0  0  0  0  0  0  0  0
  158.0730  211.7790  155.3430 C   0  0  0  0  0  2  0  0  0  0  0  0
  155.7860  210.7960  155.6960 C   0  0  0  0  0  0  0  0  0  0  0  0
  154.8330  210.0950  155.2650 O   0  0  0  0  0  0  0  0  0  0  0  0
  155.6660  211.4460  156.9590 N   0  0  0  0  0  1  0  0  0  0  0  0
  156.9690  210.9380  154.9130 N   0  0  0  0  0  2  0  0  0  0  0  0
  1 20  1  6  0  0  0
  1 29  1  0  0  0  0
  3  1  1  0  0  0  0
  3  2  2  0  0  0  0
  4  3  1  0  0  0  0
  5  6  1  6  0  0  0
  5  4  1  0  0  0  0
  5  7  1  0  0  0  0
  7  8  1  0  0  0  0
 10  9  1  0  0  0  0
 10  8  1  1  0  0  0
 11 12  1  6  0  0  0
 11 10  1  0  0  0  0
 11  9  1  0  0  0  0
 13 14  1  6  0  0  0
 13 16  1  0  0  0  0
 13 15  1  0  0  0  0
 15 12  1  1  0  0  0
 16 18  1  6  0  0  0
 16 15  1  0  0  0  0
 17 19  1  0  0  0  0
 17 13  1  0  0  0  0
 19 18  1  0  0  0  0
 21 22  1  1  0  0  0
 21 25  1  0  0  0  0
 23 25  1  0  0  0  0
 24 27  1  6  0  0  0
 24 26  1  0  0  0  0
 24 21  1  0  0  0  0
 25 20  1  6  0  0  0
 26 23  1  0  0  0  0
 28 27  1  0  0  0  0
 29 31  1  0  0  0  0
 30 40  1  6  0  0  0
 31 32  1  0  0  0  0
 31 30  1  0  0  0  0
 32 30  1  0  0  0  0
 32 33  1  1  0  0  0
 33 34  1  6  0  0  0
 33 35  1  0  0  0  0
 36 35  1  0  0  0  0
 38 39  2  0  0  0  0
 39 36  1  0  0  0  0
 39 37  1  0  0  0  0
 41 43  1  0  0  0  0
 42 41  2  0  0  0  0
 44 40  1  0  0  0  0
 44 41  1  0  0  0  0
M  END
>  <MODEL>
4

>  <REMARK>
 VINA RESULT:      -6.8      4.482      8.550
  Name = 
  18 active torsions:
  status: ('A' for Active; 'I' for Inactive)
    1  A    between atoms: C_1  and  C_4
    2  A    between atoms: C_1  and  N_20
    3  A    between atoms: C_1  and  C_34
    4  A    between atoms: C_3  and  C_16
    5  A    between atoms: C_4  and  C_43
    6  A    between atoms: C_6  and  C_15
    7  A    between atoms: C_6  and  N_40
    8  A    between atoms: C_7  and  C_8
    9  A    between atoms: C_7  and  C_12
   10  A    between atoms: C_8  and  C_35
   11  A    between atoms: C_11  and  C_15
   12  A    between atoms: C_11  and  C_32
   13  A    between atoms: C_12  and  C_28
   14  A    between atoms: C_16  and  N_27
   15  A    between atoms: N_19  and  N_20
   16  A    between atoms: O_22  and  C_37
   17  A    between atoms: C_24  and  C_36
   18  A    between atoms: C_36  and  C_38
                            x       y       z     vdW  Elec       q    Type
                         _______ _______ _______ _____ _____    ______ ____

>  <TORSDO>
F 18

$$$$
=
 OpenBabel11072413203D

 44 48  0  0  1  0  0  0  0  0999 V2000
  161.3660  206.3960  148.8950 C   0  0  1  0  0  3  0  0  0  0  0  0
  160.5240  207.6160  150.7920 O   0  0  0  0  0  0  0  0  0  0  0  0
  161.2020  207.6380  149.7280 C   0  0  0  0  0  0  0  0  0  0  0  0
  161.8510  208.8420  149.3090 N   0  0  0  0  0  2  0  0  0  0  0  0
  161.8190  210.0720  150.0960 C   0  0  2  0  0  3  0  0  0  0  0  0
  162.1270  211.2650  149.2080 C   0  0  0  0  0  1  0  0  0  0  0  0
  162.7790  210.0030  151.2830 C   0  0  0  0  0  2  0  0  0  0  0  0
  162.0660  210.0560  152.6210 C   0  0  0  0  0  2  0  0  0  0  0  0
  159.7340  210.0980  153.4240 C   0  0  0  0  0  2  0  0  0  0  0  0
  160.7260  210.7450  152.4810 C   0  0  1  0  0  3  0  0  0  0  0  0
  160.3780  211.4140  153.7940 C   0  0  1  0  0  3  0  0  0  0  0  0
  159.4060  212.5450  153.5200 C   0  0  0  0  0  2  0  0  0  0  0  0
  157.1720  213.4510  154.2920 C   0  0  2  0  0  0  0  0  0  0  0  0
  156.9040  214.0570  152.6340 Cl  0  0  0  0  0  0  0  0  0  0  0  0
  158.4360  212.6870  154.6790 C   0  0  1  0  0  3  0  0  0  0  0  0
  157.1440  211.9410  154.3570 C   0  0  1  0  0  3  0  0  0  0  0  0
  156.1940  214.1950  155.6330 S   0  0  0  0  0  0  0  0  0  0  0  0
  156.4220  211.4950  155.6250 C   0  0  0  0  0  2  0  0  0  0  0  0
  156.2130  212.6540  156.5820 C   0  0  0  0  0  2  0  0  0  0  0  0
  162.4740  206.6270  147.8730 C   0  0  0  0  0  2  0  0  0  0  0  0
  162.1850  204.7930  146.1270 C   0  0  2  0  0  3  0  0  0  0  0  0
  163.4940  204.4590  145.7910 O   0  0  0  0  0  1  0  0  0  0  0  0
  160.6760  206.6910  146.0710 C   0  0  0  0  0  2  0  0  0  0  0  0
  161.2840  204.6340  144.9180 C   0  0  2  0  0  3  0  0  0  0  0  0
  162.0870  206.2700  146.4390 C   0  0  1  0  0  3  0  0  0  0  0  0
  160.1960  205.7010  145.0180 C   0  0  0  0  0  2  0  0  0  0  0  0
  160.8070  203.3230  144.7230 O   0  0  0  0  0  0  0  0  0  0  0  0
  159.4610  203.3610  144.3310 C   0  0  0  0  0  1  0  0  0  0  0  0
  161.7080  205.2420  149.7190 N   0  0  0  0  0  2  0  0  0  0  0  0
  160.5350  203.5170  150.8840 C   0  0  1  0  0  3  0  0  0  0  0  0
  160.6550  204.3130  149.6290 N   0  0  0  0  0  0  0  0  0  0  0  0
  161.2510  202.9710  149.7340 C   0  0  2  0  0  3  0  0  0  0  0  0
  160.4300  201.9170  148.9760 C   0  0  2  0  0  3  0  0  0  0  0  0
  160.4240  200.7270  149.7040 O   0  0  0  0  0  1  0  0  0  0  0  0
  160.8700  201.6390  147.5360 C   0  0  0  0  0  2  0  0  0  0  0  0
  161.4250  200.2290  147.3910 C   0  0  0  0  0  2  0  0  0  0  0  0
  161.5100  198.3780  145.7160 O   0  0  0  0  0  1  0  0  0  0  0  0
  160.4210  200.3390  145.2280 O   0  0  0  0  0  0  0  0  0  0  0  0
  161.1010  199.6660  146.0470 C   0  0  0  0  0  0  0  0  0  0  0  0
  161.5350  203.8860  151.9780 C   0  0  0  0  0  2  0  0  0  0  0  0
  161.3410  205.9010  153.4690 C   0  0  0  0  0  0  0  0  0  0  0  0
  160.6990  206.5400  154.3450 O   0  0  0  0  0  0  0  0  0  0  0  0
  162.5370  206.4580  152.9290 N   0  0  0  0  0  1  0  0  0  0  0  0
  160.8600  204.6350  153.0240 N   0  0  0  0  0  2  0  0  0  0  0  0
  1 20  1  6  0  0  0
  1 29  1  0  0  0  0
  1  3  1  0  0  0  0
  3  2  2  0  0  0  0
  4  3  1  0  0  0  0
  4  5  1  0  0  0  0
  5  6  1  6  0  0  0
  5  7  1  0  0  0  0
  7  8  1  0  0  0  0
  9 11  1  0  0  0  0
 10  8  1  1  0  0  0
 10  9  1  0  0  0  0
 10 11  1  0  0  0  0
 11 12  1  6  0  0  0
 13 14  1  6  0  0  0
 13 16  1  0  0  0  0
 13 15  1  0  0  0  0
 13 17  1  0  0  0  0
 15 12  1  6  0  0  0
 16 15  1  0  0  0  0
 16 18  1  1  0  0  0
 17 19  1  0  0  0  0
 18 19  1  0  0  0  0
 21 22  1  6  0  0  0
 21 25  1  0  0  0  0
 23 25  1  0  0  0  0
 24 27  1  1  0  0  0
 24 26  1  0  0  0  0
 24 21  1  0  0  0  0
 25 20  1  1  0  0  0
 26 23  1  0  0  0  0
 28 27  1  0  0  0  0
 30 40  1  1  0  0  0
 31 29  1  0  0  0  0
 31 32  1  0  0  0  0
 31 30  1  0  0  0  0
 32 33  1  6  0  0  0
 32 30  1  0  0  0  0
 33 34  1  1  0  0  0
 35 33  1  0  0  0  0
 36 35  1  0  0  0  0
 37 39  1  0  0  0  0
 38 39  2  0  0  0  0
 39 36  1  0  0  0  0
 40 44  1  0  0  0  0
 41 42  2  0  0  0  0
 43 41  1  0  0  0  0
 44 41  1  0  0  0  0
M  END
>  <MODEL>
5

>  <REMARK>
 VINA RESULT:      -6.7      4.654      7.188
  Name = 
  18 active torsions:
  status: ('A' for Active; 'I' for Inactive)
    1  A    between atoms: C_1  and  C_4
    2  A    between atoms: C_1  and  N_20
    3  A    between atoms: C_1  and  C_34
    4  A    between atoms: C_3  and  C_16
    5  A    between atoms: C_4  and  C_43
    6  A    between atoms: C_6  and  C_15
    7  A    between atoms: C_6  and  N_40
    8  A    between atoms: C_7  and  C_8
    9  A    between atoms: C_7  and  C_12
   10  A    between atoms: C_8  and  C_35
   11  A    between atoms: C_11  and  C_15
   12  A    between atoms: C_11  and  C_32
   13  A    between atoms: C_12  and  C_28
   14  A    between atoms: C_16  and  N_27
   15  A    between atoms: N_19  and  N_20
   16  A    between atoms: O_22  and  C_37
   17  A    between atoms: C_24  and  C_36
   18  A    between atoms: C_36  and  C_38
                            x       y       z     vdW  Elec       q    Type
                         _______ _______ _______ _____ _____    ______ ____

>  <TORSDO>
F 18

$$$$
=
 OpenBabel11072413203D

 44 48  0  0  1  0  0  0  0  0999 V2000
  161.2660  206.2930  148.8580 C   0  0  1  0  0  3  0  0  0  0  0  0
  160.4560  207.3840  150.8450 O   0  0  0  0  0  0  0  0  0  0  0  0
  161.1080  207.4790  149.7690 C   0  0  0  0  0  0  0  0  0  0  0  0
  161.7320  208.7160  149.4090 N   0  0  0  0  0  2  0  0  0  0  0  0
  161.7040  209.8950  150.2710 C   0  0  2  0  0  3  0  0  0  0  0  0
  161.9590  211.1450  149.4480 C   0  0  0  0  0  1  0  0  0  0  0  0
  162.7060  209.7740  151.4190 C   0  0  0  0  0  2  0  0  0  0  0  0
  162.0960  210.0940  152.7690 C   0  0  0  0  0  2  0  0  0  0  0  0
  159.9530  209.9410  153.9820 C   0  0  0  0  0  2  0  0  0  0  0  0
  160.5960  210.2570  152.6480 C   0  0  1  0  0  3  0  0  0  0  0  0
  160.1480  211.3790  153.5610 C   0  0  1  0  0  3  0  0  0  0  0  0
  158.8370  211.9330  153.0410 C   0  0  0  0  0  2  0  0  0  0  0  0
  157.9660  213.4590  151.2190 C   0  0  2  0  0  0  0  0  0  0  0  0
  156.7270  214.0360  152.3660 Cl  0  0  0  0  0  0  0  0  0  0  0  0
  159.0080  212.4150  151.6110 C   0  0  1  0  0  3  0  0  0  0  0  0
  159.3560  213.9020  151.6130 C   0  0  1  0  0  3  0  0  0  0  0  0
  157.6620  213.7200  149.4440 S   0  0  0  0  0  0  0  0  0  0  0  0
  160.1430  214.2960  150.3660 C   0  0  0  0  0  2  0  0  0  0  0  0
  159.4330  213.8570  149.1000 C   0  0  0  0  0  2  0  0  0  0  0  0
  162.3380  206.6060  147.8190 C   0  0  0  0  0  2  0  0  0  0  0  0
  162.0960  204.7230  146.1170 C   0  0  2  0  0  3  0  0  0  0  0  0
  163.4130  204.4110  145.7920 O   0  0  0  0  0  1  0  0  0  0  0  0
  160.5430  206.5830  146.0120 C   0  0  0  0  0  2  0  0  0  0  0  0
  161.2010  204.5140  144.9110 C   0  0  2  0  0  3  0  0  0  0  0  0
  161.9620  206.2040  146.3930 C   0  0  1  0  0  3  0  0  0  0  0  0
  160.0900  205.5570  144.9830 C   0  0  0  0  0  2  0  0  0  0  0  0
  160.7560  203.1870  144.7470 O   0  0  0  0  0  0  0  0  0  0  0  0
  159.4430  203.1860  144.2510 C   0  0  0  0  0  1  0  0  0  0  0  0
  161.6540  205.0980  149.5990 N   0  0  0  0  0  2  0  0  0  0  0  0
  160.4820  203.3880  150.7880 C   0  0  1  0  0  3  0  0  0  0  0  0
  160.5930  204.1760  149.5270 N   0  0  0  0  0  0  0  0  0  0  0  0
  161.1810  202.8300  149.6340 C   0  0  2  0  0  3  0  0  0  0  0  0
  160.3430  201.7780  148.8910 C   0  0  2  0  0  3  0  0  0  0  0  0
  159.3260  201.3230  149.7310 O   0  0  0  0  0  1  0  0  0  0  0  0
  161.1200  200.5840  148.3280 C   0  0  0  0  0  2  0  0  0  0  0  0
  161.5900  200.8540  146.9050 C   0  0  0  0  0  2  0  0  0  0  0  0
  161.5690  198.5320  145.9830 O   0  0  0  0  0  1  0  0  0  0  0  0
  160.1070  200.1140  145.1870 O   0  0  0  0  0  0  0  0  0  0  0  0
  161.0530  199.8250  145.9660 C   0  0  0  0  0  0  0  0  0  0  0  0
  161.4970  203.7580  151.8690 C   0  0  0  0  0  2  0  0  0  0  0  0
  161.4020  205.7960  153.3370 C   0  0  0  0  0  0  0  0  0  0  0  0
  160.7840  206.4840  154.1930 O   0  0  0  0  0  0  0  0  0  0  0  0
  162.6420  206.2690  152.8170 N   0  0  0  0  0  1  0  0  0  0  0  0
  160.8490  204.5590  152.8930 N   0  0  0  0  0  2  0  0  0  0  0  0
  1 20  1  6  0  0  0
  1 29  1  0  0  0  0
  1  3  1  0  0  0  0
  3  2  2  0  0  0  0
  4  3  1  0  0  0  0
  4  5  1  0  0  0  0
  5  6  1  6  0  0  0
  5  7  1  0  0  0  0
  7  8  1  0  0  0  0
 10  8  1  1  0  0  0
 10 11  1  0  0  0  0
 10  9  1  0  0  0  0
 11 12  1  6  0  0  0
 11  9  1  0  0  0  0
 13 15  1  0  0  0  0
 13 16  1  0  0  0  0
 13 14  1  1  0  0  0
 15 16  1  0  0  0  0
 15 12  1  1  0  0  0
 16 18  1  6  0  0  0
 17 13  1  0  0  0  0
 19 17  1  0  0  0  0
 19 18  1  0  0  0  0
 21 22  1  6  0  0  0
 21 25  1  0  0  0  0
 23 25  1  0  0  0  0
 24 27  1  1  0  0  0
 24 26  1  0  0  0  0
 24 21  1  0  0  0  0
 25 20  1  1  0  0  0
 26 23  1  0  0  0  0
 28 27  1  0  0  0  0
 30 40  1  1  0  0  0
 31 29  1  0  0  0  0
 31 32  1  0  0  0  0
 31 30  1  0  0  0  0
 32 33  1  6  0  0  0
 32 30  1  0  0  0  0
 33 34  1  1  0  0  0
 35 33  1  0  0  0  0
 36 35  1  0  0  0  0
 38 39  2  0  0  0  0
 39 37  1  0  0  0  0
 39 36  1  0  0  0  0
 40 44  1  0  0  0  0
 41 42  2  0  0  0  0
 43 41  1  0  0  0  0
 44 41  1  0  0  0  0
M  END
>  <MODEL>
6

>  <REMARK>
 VINA RESULT:      -6.6      4.260      5.893
  Name = 
  18 active torsions:
  status: ('A' for Active; 'I' for Inactive)
    1  A    between atoms: C_1  and  C_4
    2  A    between atoms: C_1  and  N_20
    3  A    between atoms: C_1  and  C_34
    4  A    between atoms: C_3  and  C_16
    5  A    between atoms: C_4  and  C_43
    6  A    between atoms: C_6  and  C_15
    7  A    between atoms: C_6  and  N_40
    8  A    between atoms: C_7  and  C_8
    9  A    between atoms: C_7  and  C_12
   10  A    between atoms: C_8  and  C_35
   11  A    between atoms: C_11  and  C_15
   12  A    between atoms: C_11  and  C_32
   13  A    between atoms: C_12  and  C_28
   14  A    between atoms: C_16  and  N_27
   15  A    between atoms: N_19  and  N_20
   16  A    between atoms: O_22  and  C_37
   17  A    between atoms: C_24  and  C_36
   18  A    between atoms: C_36  and  C_38
                            x       y       z     vdW  Elec       q    Type
                         _______ _______ _______ _____ _____    ______ ____

>  <TORSDO>
F 18

$$$$
=
 OpenBabel11072413203D

 44 48  0  0  1  0  0  0  0  0999 V2000
  161.2340  206.8150  151.8830 C   0  0  1  0  0  3  0  0  0  0  0  0
  161.4730  205.4680  153.8630 O   0  0  0  0  0  0  0  0  0  0  0  0
  161.2410  206.6070  153.3730 C   0  0  0  0  0  0  0  0  0  0  0  0
  161.0080  207.7290  154.2290 N   0  0  0  0  0  2  0  0  0  0  0  0
  161.0800  207.6410  155.6850 C   0  0  2  0  0  3  0  0  0  0  0  0
  159.7070  207.3280  156.2540 C   0  0  0  0  0  1  0  0  0  0  0  0
  161.6550  208.9170  156.2970 C   0  0  0  0  0  2  0  0  0  0  0  0
  160.5980  209.7860  156.9490 C   0  0  0  0  0  2  0  0  0  0  0  0
  161.0780  211.1850  154.9750 C   0  0  0  0  0  2  0  0  0  0  0  0
  160.6900  211.2080  156.4380 C   0  0  1  0  0  3  0  0  0  0  0  0
  159.6380  211.4160  155.3700 C   0  0  1  0  0  3  0  0  0  0  0  0
  159.3220  212.8960  155.2820 C   0  0  0  0  0  2  0  0  0  0  0  0
  156.8780  213.4270  154.8890 C   0  0  2  0  0  0  0  0  0  0  0  0
  157.1980  213.3500  153.1350 Cl  0  0  0  0  0  0  0  0  0  0  0  0
  157.9750  213.1770  155.9220 C   0  0  1  0  0  3  0  0  0  0  0  0
  156.9910  212.0710  155.5480 C   0  0  1  0  0  3  0  0  0  0  0  0
  155.3880  214.3140  155.4400 S   0  0  0  0  0  0  0  0  0  0  0  0
  155.8940  211.9170  156.5970 C   0  0  0  0  0  2  0  0  0  0  0  0
  155.2120  213.2400  156.8860 C   0  0  0  0  0  2  0  0  0  0  0  0
  162.1460  207.9890  151.5420 C   0  0  0  0  0  2  0  0  0  0  0  0
  162.0060  210.3740  150.6520 C   0  0  2  0  0  3  0  0  0  0  0  0
  161.1780  211.0130  151.5710 O   0  0  0  0  0  1  0  0  0  0  0  0
  161.9580  208.5420  149.0630 C   0  0  0  0  0  2  0  0  0  0  0  0
  161.7970  210.9630  149.2700 C   0  0  2  0  0  3  0  0  0  0  0  0
  161.5810  208.9320  150.4810 C   0  0  1  0  0  3  0  0  0  0  0  0
  161.9970  209.8360  148.2610 C   0  0  0  0  0  2  0  0  0  0  0  0
  162.5550  212.1220  149.0170 O   0  0  0  0  0  0  0  0  0  0  0  0
  162.4840  212.4470  147.6540 C   0  0  0  0  0  1  0  0  0  0  0  0
  161.7000  205.6280  151.1760 N   0  0  0  0  0  2  0  0  0  0  0  0
  160.3350  204.1140  149.9290 C   0  0  1  0  0  3  0  0  0  0  0  0
  160.9240  205.4810  150.0100 N   0  0  0  0  0  0  0  0  0  0  0  0
  161.5580  204.4310  149.1970 C   0  0  2  0  0  3  0  0  0  0  0  0
  161.3080  204.6390  147.6950 C   0  0  2  0  0  3  0  0  0  0  0  0
  161.5780  203.4510  147.0150 O   0  0  0  0  0  1  0  0  0  0  0  0
  162.0780  205.7920  147.0450 C   0  0  0  0  0  2  0  0  0  0  0  0
  162.3880  205.4950  145.5850 C   0  0  0  0  0  2  0  0  0  0  0  0
  160.0820  206.3980  145.2610 O   0  0  0  0  0  1  0  0  0  0  0  0
  161.2180  205.4530  143.5050 O   0  0  0  0  0  0  0  0  0  0  0  0
  161.1980  205.7630  144.7250 C   0  0  0  0  0  0  0  0  0  0  0  0
  160.6670  203.1980  151.1060 C   0  0  0  0  0  2  0  0  0  0  0  0
  160.8820  201.1640  149.6450 C   0  0  0  0  0  0  0  0  0  0  0  0
  161.5810  200.2020  149.2270 O   0  0  0  0  0  0  0  0  0  0  0  0
  159.5720  201.3620  149.1190 N   0  0  0  0  0  1  0  0  0  0  0  0
  161.4130  202.0450  150.6320 N   0  0  0  0  0  2  0  0  0  0  0  0
  1 20  1  1  0  0  0
  1  3  1  0  0  0  0
  3  2  2  0  0  0  0
  3  4  1  0  0  0  0
  4  5  1  0  0  0  0
  5  6  1  1  0  0  0
  5  7  1  0  0  0  0
  7  8  1  0  0  0  0
  9 11  1  0  0  0  0
  9 10  1  0  0  0  0
 10  8  1  6  0  0  0
 11 12  1  1  0  0  0
 11 10  1  0  0  0  0
 13 14  1  6  0  0  0
 13 17  1  0  0  0  0
 13 16  1  0  0  0  0
 13 15  1  0  0  0  0
 15 12  1  6  0  0  0
 16 15  1  0  0  0  0
 16 18  1  1  0  0  0
 17 19  1  0  0  0  0
 18 19  1  0  0  0  0
 21 22  1  1  0  0  0
 23 25  1  0  0  0  0
 24 27  1  6  0  0  0
 24 21  1  0  0  0  0
 25 21  1  0  0  0  0
 25 20  1  1  0  0  0
 26 23  1  0  0  0  0
 26 24  1  0  0  0  0
 28 27  1  0  0  0  0
 29  1  1  0  0  0  0
 30 31  1  0  0  0  0
 30 40  1  1  0  0  0
 31 29  1  0  0  0  0
 32 33  1  6  0  0  0
 32 30  1  0  0  0  0
 32 31  1  0  0  0  0
 33 34  1  6  0  0  0
 35 33  1  0  0  0  0
 36 35  1  0  0  0  0
 38 39  2  0  0  0  0
 39 37  1  0  0  0  0
 39 36  1  0  0  0  0
 41 44  1  0  0  0  0
 42 41  2  0  0  0  0
 43 41  1  0  0  0  0
 44 40  1  0  0  0  0
M  END
>  <MODEL>
7

>  <REMARK>
 VINA RESULT:      -6.2      4.377      9.145
  Name = 
  18 active torsions:
  status: ('A' for Active; 'I' for Inactive)
    1  A    between atoms: C_1  and  C_4
    2  A    between atoms: C_1  and  N_20
    3  A    between atoms: C_1  and  C_34
    4  A    between atoms: C_3  and  C_16
    5  A    between atoms: C_4  and  C_43
    6  A    between atoms: C_6  and  C_15
    7  A    between atoms: C_6  and  N_40
    8  A    between atoms: C_7  and  C_8
    9  A    between atoms: C_7  and  C_12
   10  A    between atoms: C_8  and  C_35
   11  A    between atoms: C_11  and  C_15
   12  A    between atoms: C_11  and  C_32
   13  A    between atoms: C_12  and  C_28
   14  A    between atoms: C_16  and  N_27
   15  A    between atoms: N_19  and  N_20
   16  A    between atoms: O_22  and  C_37
   17  A    between atoms: C_24  and  C_36
   18  A    between atoms: C_36  and  C_38
                            x       y       z     vdW  Elec       q    Type
                         _______ _______ _______ _____ _____    ______ ____

>  <TORSDO>
F 18

$$$$
=
 OpenBabel11072413203D

 44 48  0  0  1  0  0  0  0  0999 V2000
  161.7730  206.3560  151.6160 C   0  0  1  0  0  3  0  0  0  0  0  0
  161.5680  205.7240  153.9290 O   0  0  0  0  0  0  0  0  0  0  0  0
  161.4690  206.6350  153.0620 C   0  0  0  0  0  0  0  0  0  0  0  0
  161.0910  207.9610  153.4470 N   0  0  0  0  0  2  0  0  0  0  0  0
  160.8590  208.3450  154.8370 C   0  0  2  0  0  3  0  0  0  0  0  0
  159.6920  207.5570  155.4050 C   0  0  0  0  0  1  0  0  0  0  0  0
  160.6300  209.8490  154.9720 C   0  0  0  0  0  2  0  0  0  0  0  0
  161.2220  210.6410  153.8230 C   0  0  0  0  0  2  0  0  0  0  0  0
  160.0130  211.7940  152.0070 C   0  0  0  0  0  2  0  0  0  0  0  0
  160.3420  211.8250  153.4850 C   0  0  1  0  0  3  0  0  0  0  0  0
  158.9940  211.3180  153.0170 C   0  0  1  0  0  3  0  0  0  0  0  0
  157.9620  212.4060  153.2420 C   0  0  0  0  0  2  0  0  0  0  0  0
  156.1010  213.0870  154.8160 C   0  0  2  0  0  0  0  0  0  0  0  0
  155.3500  213.9740  153.4610 Cl  0  0  0  0  0  0  0  0  0  0  0  0
  157.4020  212.3060  154.6500 C   0  0  1  0  0  3  0  0  0  0  0  0
  156.0540  211.5900  154.6120 C   0  0  1  0  0  3  0  0  0  0  0  0
  155.6050  213.5450  156.5060 S   0  0  0  0  0  0  0  0  0  0  0  0
  155.7470  210.9000  155.9380 C   0  0  0  0  0  2  0  0  0  0  0  0
  155.8750  211.8590  157.1060 C   0  0  0  0  0  2  0  0  0  0  0  0
  160.7800  205.3240  151.0910 C   0  0  0  0  0  2  0  0  0  0  0  0
  160.9230  202.8130  150.6760 C   0  0  2  0  0  3  0  0  0  0  0  0
  161.6190  202.3430  151.7870 O   0  0  0  0  0  1  0  0  0  0  0  0
  161.2180  204.3140  148.7940 C   0  0  0  0  0  2  0  0  0  0  0  0
  161.2600  201.9720  149.4600 C   0  0  2  0  0  3  0  0  0  0  0  0
  161.4210  204.1890  150.2930 C   0  0  1  0  0  3  0  0  0  0  0  0
  161.2170  202.8940  148.2440 C   0  0  0  0  0  2  0  0  0  0  0  0
  160.4880  200.8000  149.3390 O   0  0  0  0  0  0  0  0  0  0  0  0
  159.4390  201.0150  148.4330 C   0  0  0  0  0  1  0  0  0  0  0  0
  161.6790  207.5660  150.8070 N   0  0  0  0  0  2  0  0  0  0  0  0
  162.2340  208.5120  148.6840 C   0  0  1  0  0  3  0  0  0  0  0  0
  162.2850  207.3080  149.5630 N   0  0  0  0  0  0  0  0  0  0  0  0
  161.2410  207.4510  148.5350 C   0  0  2  0  0  3  0  0  0  0  0  0
  161.5130  206.5580  147.3140 C   0  0  2  0  0  3  0  0  0  0  0  0
  162.7500  206.8950  146.7640 O   0  0  0  0  0  1  0  0  0  0  0  0
  160.4400  206.5780  146.2220 C   0  0  0  0  0  2  0  0  0  0  0  0
  160.9970  206.0920  144.8920 C   0  0  0  0  0  2  0  0  0  0  0  0
  162.3470  204.0220  145.2560 O   0  0  0  0  0  1  0  0  0  0  0  0
  160.1540  203.8790  144.5900 O   0  0  0  0  0  0  0  0  0  0  0  0
  161.1380  204.6060  144.8870 C   0  0  0  0  0  0  0  0  0  0  0  0
  161.5770  209.7400  149.3120 C   0  0  0  0  0  2  0  0  0  0  0  0
  162.0360  211.9590  148.2230 C   0  0  0  0  0  0  0  0  0  0  0  0
  162.7740  212.9740  148.1060 O   0  0  0  0  0  0  0  0  0  0  0  0
  160.8230  211.8820  147.4780 N   0  0  0  0  0  1  0  0  0  0  0  0
  162.4200  210.9050  149.1030 N   0  0  0  0  0  2  0  0  0  0  0  0
  1 20  1  6  0  0  0
  1  3  1  0  0  0  0
  3  4  1  0  0  0  0
  3  2  2  0  0  0  0
  4  5  1  0  0  0  0
  5  7  1  0  0  0  0
  5  6  1  6  0  0  0
  8  7  1  0  0  0  0
  9 11  1  0  0  0  0
  9 10  1  0  0  0  0
 10  8  1  6  0  0  0
 11 12  1  1  0  0  0
 11 10  1  0  0  0  0
 13 14  1  6  0  0  0
 13 17  1  0  0  0  0
 15 12  1  6  0  0  0
 15 13  1  0  0  0  0
 16 15  1  0  0  0  0
 16 13  1  0  0  0  0
 16 18  1  1  0  0  0
 17 19  1  0  0  0  0
 18 19  1  0  0  0  0
 21 22  1  1  0  0  0
 23 25  1  0  0  0  0
 24 27  1  6  0  0  0
 24 21  1  0  0  0  0
 25 21  1  0  0  0  0
 25 20  1  1  0  0  0
 26 23  1  0  0  0  0
 26 24  1  0  0  0  0
 28 27  1  0  0  0  0
 29  1  1  0  0  0  0
 30 40  1  1  0  0  0
 30 31  1  0  0  0  0
 31 29  1  0  0  0  0
 32 33  1  6  0  0  0
 32 30  1  0  0  0  0
 32 31  1  0  0  0  0
 33 34  1  6  0  0  0
 35 33  1  0  0  0  0
 36 35  1  0  0  0  0
 38 39  2  0  0  0  0
 39 36  1  0  0  0  0
 39 37  1  0  0  0  0
 41 44  1  0  0  0  0
 42 41  2  0  0  0  0
 43 41  1  0  0  0  0
 44 40  1  0  0  0  0
M  END
>  <MODEL>
8

>  <REMARK>
 VINA RESULT:      -6.1      4.565      8.469
  Name = 
  18 active torsions:
  status: ('A' for Active; 'I' for Inactive)
    1  A    between atoms: C_1  and  C_4
    2  A    between atoms: C_1  and  N_20
    3  A    between atoms: C_1  and  C_34
    4  A    between atoms: C_3  and  C_16
    5  A    between atoms: C_4  and  C_43
    6  A    between atoms: C_6  and  C_15
    7  A    between atoms: C_6  and  N_40
    8  A    between atoms: C_7  and  C_8
    9  A    between atoms: C_7  and  C_12
   10  A    between atoms: C_8  and  C_35
   11  A    between atoms: C_11  and  C_15
   12  A    between atoms: C_11  and  C_32
   13  A    between atoms: C_12  and  C_28
   14  A    between atoms: C_16  and  N_27
   15  A    between atoms: N_19  and  N_20
   16  A    between atoms: O_22  and  C_37
   17  A    between atoms: C_24  and  C_36
   18  A    between atoms: C_36  and  C_38
                            x       y       z     vdW  Elec       q    Type
                         _______ _______ _______ _____ _____    ______ ____

>  <TORSDO>
F 18

$$$$
=
 OpenBabel11072413203D

 44 48  0  0  1  0  0  0  0  0999 V2000
  161.0180  210.2200  153.0540 C   0  0  1  0  0  3  0  0  0  0  0  0
  160.3730  208.4620  154.5670 O   0  0  0  0  0  0  0  0  0  0  0  0
  160.8130  208.7770  153.4270 C   0  0  0  0  0  0  0  0  0  0  0  0
  161.0980  207.7640  152.4580 N   0  0  0  0  0  2  0  0  0  0  0  0
  160.8500  206.3460  152.7000 C   0  0  2  0  0  3  0  0  0  0  0  0
  161.6650  205.8720  153.8910 C   0  0  0  0  0  1  0  0  0  0  0  0
  161.1430  205.5040  151.4590 C   0  0  0  0  0  2  0  0  0  0  0  0
  160.7340  204.0540  151.6190 C   0  0  0  0  0  2  0  0  0  0  0  0
  160.8920  201.7800  150.6750 C   0  0  0  0  0  2  0  0  0  0  0  0
  161.4560  203.1840  150.6130 C   0  0  1  0  0  3  0  0  0  0  0  0
  160.4650  202.7150  149.5680 C   0  0  1  0  0  3  0  0  0  0  0  0
  161.2220  202.3740  148.3000 C   0  0  0  0  0  2  0  0  0  0  0  0
  161.5760  203.7630  146.2130 C   0  0  2  0  0  0  0  0  0  0  0  0
  160.6120  202.5600  145.3130 Cl  0  0  0  0  0  0  0  0  0  0  0  0
  161.8400  203.6300  147.7110 C   0  0  1  0  0  3  0  0  0  0  0  0
  160.7350  204.5470  147.1930 C   0  0  1  0  0  3  0  0  0  0  0  0
  162.6760  204.8530  145.2570 S   0  0  0  0  0  0  0  0  0  0  0  0
  161.1720  206.0090  147.1910 C   0  0  0  0  0  2  0  0  0  0  0  0
  162.4860  206.1940  146.4570 C   0  0  0  0  0  2  0  0  0  0  0  0
  162.0880  210.3040  151.9700 C   0  0  0  0  0  2  0  0  0  0  0  0
  161.8990  211.7240  149.8620 C   0  0  2  0  0  3  0  0  0  0  0  0
  161.0140  212.7330  150.2310 O   0  0  0  0  0  1  0  0  0  0  0  0
  161.9790  209.3110  149.6270 C   0  0  0  0  0  2  0  0  0  0  0  0
  161.7250  211.3940  148.3920 C   0  0  2  0  0  3  0  0  0  0  0  0
  161.5330  210.4290  150.5520 C   0  0  1  0  0  3  0  0  0  0  0  0
  162.0030  209.9040  148.2240 C   0  0  0  0  0  2  0  0  0  0  0  0
  162.4520  212.2320  147.5230 O   0  0  0  0  0  0  0  0  0  0  0  0
  161.6290  212.6430  146.4630 C   0  0  0  0  0  1  0  0  0  0  0  0
  159.7870  210.8230  152.5580 N   0  0  0  0  0  2  0  0  0  0  0  0
  158.2690  212.4320  153.4620 C   0  0  1  0  0  3  0  0  0  0  0  0
  158.9760  211.1360  153.6650 N   0  0  0  0  0  0  0  0  0  0  0  0
  159.4990  212.3830  154.2470 C   0  0  2  0  0  3  0  0  0  0  0  0
  159.2360  212.4660  155.7590 C   0  0  2  0  0  3  0  0  0  0  0  0
  160.4550  212.5310  156.4340 O   0  0  0  0  0  1  0  0  0  0  0  0
  158.3770  211.3440  156.3480 C   0  0  0  0  0  2  0  0  0  0  0  0
  157.1110  211.8960  156.9860 C   0  0  0  0  0  2  0  0  0  0  0  0
  154.7400  211.1390  157.2020 O   0  0  0  0  0  1  0  0  0  0  0  0
  155.9130  210.7510  155.2670 O   0  0  0  0  0  0  0  0  0  0  0  0
  155.9000  211.2170  156.4370 C   0  0  0  0  0  0  0  0  0  0  0  0
  158.5460  213.1130  152.1220 C   0  0  0  0  0  2  0  0  0  0  0  0
  157.0670  213.7930  150.2060 C   0  0  0  0  0  0  0  0  0  0  0  0
  155.9690  214.2590  149.8000 O   0  0  0  0  0  0  0  0  0  0  0  0
  158.0420  213.3640  149.2580 N   0  0  0  0  0  1  0  0  0  0  0  0
  157.3180  213.6930  151.6060 N   0  0  0  0  0  2  0  0  0  0  0  0
  1 20  1  6  0  0  0
  1  3  1  0  0  0  0
  3  2  2  0  0  0  0
  4  5  1  0  0  0  0
  4  3  1  0  0  0  0
  5  6  1  1  0  0  0
  7  8  1  0  0  0  0
  7  5  1  0  0  0  0
 10  9  1  0  0  0  0
 10  8  1  1  0  0  0
 11 12  1  6  0  0  0
 11 10  1  0  0  0  0
 11  9  1  0  0  0  0
 13 14  1  6  0  0  0
 13 16  1  0  0  0  0
 13 15  1  0  0  0  0
 15 12  1  1  0  0  0
 16 18  1  6  0  0  0
 16 15  1  0  0  0  0
 17 13  1  0  0  0  0
 17 19  1  0  0  0  0
 19 18  1  0  0  0  0
 21 22  1  1  0  0  0
 21 25  1  0  0  0  0
 23 25  1  0  0  0  0
 24 27  1  6  0  0  0
 24 21  1  0  0  0  0
 25 20  1  1  0  0  0
 26 24  1  0  0  0  0
 26 23  1  0  0  0  0
 28 27  1  0  0  0  0
 29  1  1  0  0  0  0
 29 31  1  0  0  0  0
 30 40  1  6  0  0  0
 30 31  1  0  0  0  0
 30 32  1  0  0  0  0
 31 32  1  0  0  0  0
 32 33  1  1  0  0  0
 33 35  1  0  0  0  0
 33 34  1  1  0  0  0
 35 36  1  0  0  0  0
 38 39  2  0  0  0  0
 39 36  1  0  0  0  0
 39 37  1  0  0  0  0
 41 44  1  0  0  0  0
 42 41  2  0  0  0  0
 43 41  1  0  0  0  0
 44 40  1  0  0  0  0
M  END
>  <MODEL>
9

>  <REMARK>
 VINA RESULT:      -6.1      4.502      9.117
  Name = 
  18 active torsions:
  status: ('A' for Active; 'I' for Inactive)
    1  A    between atoms: C_1  and  C_4
    2  A    between atoms: C_1  and  N_20
    3  A    between atoms: C_1  and  C_34
    4  A    between atoms: C_3  and  C_16
    5  A    between atoms: C_4  and  C_43
    6  A    between atoms: C_6  and  C_15
    7  A    between atoms: C_6  and  N_40
    8  A    between atoms: C_7  and  C_8
    9  A    between atoms: C_7  and  C_12
   10  A    between atoms: C_8  and  C_35
   11  A    between atoms: C_11  and  C_15
   12  A    between atoms: C_11  and  C_32
   13  A    between atoms: C_12  and  C_28
   14  A    between atoms: C_16  and  N_27
   15  A    between atoms: N_19  and  N_20
   16  A    between atoms: O_22  and  C_37
   17  A    between atoms: C_24  and  C_36
   18  A    between atoms: C_36  and  C_38
                            x       y       z     vdW  Elec       q    Type
                         _______ _______ _______ _____ _____    ______ ____

>  <TORSDO>
F 18

$$$$
