=
 OpenBabel11072414403D

 26 28  0  0  1  0  0  0  0  0999 V2000
  160.3340  210.4360  152.6050 C   0  0  0  0  0  2  0  0  0  0  0  0
  161.3790  209.3230  152.8250 C   0  0  1  0  0  3  0  0  0  0  0  0
  161.4830  206.9200  153.1140 O   0  0  0  0  0  0  0  0  0  0  0  0
  161.1030  206.6560  151.7830 C   0  0  1  0  0  3  0  0  0  0  0  0
  160.7730  208.0710  153.4920 C   0  0  1  0  0  3  0  0  0  0  0  0
  159.6540  210.5120  154.7630 C   0  0  0  0  0  2  0  0  0  0  0  0
  159.6370  209.1700  155.4930 C   0  0  0  0  0  2  0  0  0  0  0  0
  159.2110  210.3230  153.4450 O   0  0  0  0  0  0  0  0  0  0  0  0
  162.1720  208.9560  151.5570 C   0  0  2  0  0  3  0  0  0  0  0  0
  160.7400  208.2160  155.0190 C   0  0  2  0  0  3  0  0  0  0  0  0
  162.3240  210.0430  150.6940 O   0  0  0  0  0  1  0  0  0  0  0  0
  161.5790  207.7560  150.8160 C   0  0  0  0  0  2  0  0  0  0  0  0
  161.6620  205.3140  151.3390 C   0  0  0  0  0  2  0  0  0  0  0  0
  160.7500  204.6520  150.3150 C   0  0  1  0  0  3  0  0  0  0  0  0
  160.3740  205.8290  148.2440 O   0  0  0  0  0  1  0  0  0  0  0  0
  161.2250  204.9280  148.8890 C   0  0  0  0  0  2  0  0  0  0  0  0
  160.6710  203.1590  150.5930 C   0  0  0  0  0  2  0  0  0  0  0  0
  159.4430  201.6230  149.2830 O   0  0  0  0  0  0  0  0  0  0  0  0
  160.5920  202.3820  149.2920 C   0  0  0  0  0  3  0  0  0  0  0  0
  160.6140  201.0320  149.5630 O   0  0  0  0  0  0  0  0  0  0  0  0
  161.9840  208.6210  155.5150 O   0  0  0  0  0  0  0  0  0  0  0  0
  161.6870  209.4690  156.5850 C   0  0  0  0  0  2  0  0  0  0  0  0
  163.8180  210.2990  157.2310 F   0  0  0  0  0  0  0  0  0  0  0  0
  162.6410  210.6510  156.5970 C   0  0  0  0  0  0  0  0  0  0  0  0
  162.0610  211.7170  157.2610 F   0  0  0  0  0  0  0  0  0  0  0  0
  162.9190  211.0230  155.2960 F   0  0  0  0  0  0  0  0  0  0  0  0
  1  8  1  0  0  0  0
  2  1  1  6  0  0  0
  2  5  1  0  0  0  0
  4 13  1  6  0  0  0
  4  3  1  0  0  0  0
  5  3  1  1  0  0  0
  5 10  1  0  0  0  0
  6  7  1  0  0  0  0
  8  6  1  0  0  0  0
  9 11  1  6  0  0  0
  9  2  1  0  0  0  0
 10  7  1  0  0  0  0
 10 21  1  6  0  0  0
 12  9  1  0  0  0  0
 12  4  1  0  0  0  0
 14 16  1  6  0  0  0
 14 17  1  0  0  0  0
 14 13  1  0  0  0  0
 15 16  1  0  0  0  0
 18 19  1  0  0  0  0
 18 20  1  0  0  0  0
 19 20  1  0  0  0  0
 19 17  1  0  0  0  0
 21 22  1  0  0  0  0
 22 24  1  0  0  0  0
 24 23  1  0  0  0  0
 24 25  1  0  0  0  0
 26 24  1  0  0  0  0
M  END
>  <MODEL>
1

>  <REMARK>
 VINA RESULT:      -6.5      0.000      0.000
  Name = 
  8 active torsions:
  status: ('A' for Active; 'I' for Inactive)
    1  A    between atoms: C_1  and  C_17
    2  A    between atoms: C_1  and  C_24
    3  A    between atoms: C_5  and  C_14
    4  A    between atoms: C_9  and  C_21
    5  A    between atoms: C_10  and  C_24
    6  A    between atoms: C_14  and  O_22
    7  A    between atoms: C_20  and  O_22
    8  A    between atoms: C_21  and  C_24
                            x       y       z     vdW  Elec       q    Type
                         _______ _______ _______ _____ _____    ______ ____

>  <TORSDO>
F 8

$$$$
=
 OpenBabel11072414403D

 26 28  0  0  1  0  0  0  0  0999 V2000
  161.4440  209.2270  155.7390 C   0  0  0  0  0  2  0  0  0  0  0  0
  160.5130  208.6730  154.6410 C   0  0  1  0  0  3  0  0  0  0  0  0
  160.4810  208.3440  152.2410 O   0  0  0  0  0  0  0  0  0  0  0  0
  161.4640  207.3350  152.2790 C   0  0  1  0  0  3  0  0  0  0  0  0
  160.8320  209.2560  153.2490 C   0  0  1  0  0  3  0  0  0  0  0  0
  161.0170  211.4050  155.2920 C   0  0  0  0  0  2  0  0  0  0  0  0
  160.7960  211.7420  153.8180 C   0  0  0  0  0  2  0  0  0  0  0  0
  162.0420  210.4540  155.3970 O   0  0  0  0  0  0  0  0  0  0  0  0
  160.4440  207.1350  154.6040 C   0  0  2  0  0  3  0  0  0  0  0  0
  160.1290  210.6030  153.0370 C   0  0  2  0  0  3  0  0  0  0  0  0
  160.6300  206.5660  155.8650 O   0  0  0  0  0  1  0  0  0  0  0  0
  161.4120  206.5240  153.5870 C   0  0  0  0  0  2  0  0  0  0  0  0
  161.2910  206.3970  151.0950 C   0  0  0  0  0  2  0  0  0  0  0  0
  161.0400  207.1740  149.8100 C   0  0  1  0  0  3  0  0  0  0  0  0
  162.0640  209.2390  149.1030 O   0  0  0  0  0  1  0  0  0  0  0  0
  162.3070  207.8840  149.3350 C   0  0  0  0  0  2  0  0  0  0  0  0
  160.4980  206.2360  148.7440 C   0  0  0  0  0  2  0  0  0  0  0  0
  160.6990  206.3560  146.3930 O   0  0  0  0  0  0  0  0  0  0  0  0
  161.4310  206.1970  147.5480 C   0  0  0  0  0  3  0  0  0  0  0  0
  161.1040  205.1270  146.7460 O   0  0  0  0  0  0  0  0  0  0  0  0
  158.7700  210.5200  153.3590 O   0  0  0  0  0  0  0  0  0  0  0  0
  158.2650  211.8020  153.1260 C   0  0  0  0  0  2  0  0  0  0  0  0
  156.2960  213.0220  153.6580 F   0  0  0  0  0  0  0  0  0  0  0  0
  157.2390  212.1610  154.1870 C   0  0  0  0  0  0  0  0  0  0  0  0
  157.8670  212.7680  155.2600 F   0  0  0  0  0  0  0  0  0  0  0  0
  156.6120  211.0090  154.6210 F   0  0  0  0  0  0  0  0  0  0  0  0
  2  1  1  1  0  0  0
  3  4  1  0  0  0  0
  4 13  1  6  0  0  0
  4 12  1  0  0  0  0
  5  3  1  6  0  0  0
  5  2  1  0  0  0  0
  6  8  1  0  0  0  0
  7  6  1  0  0  0  0
  8  1  1  0  0  0  0
  9  2  1  0  0  0  0
  9 11  1  1  0  0  0
 10  5  1  0  0  0  0
 10 21  1  1  0  0  0
 10  7  1  0  0  0  0
 12  9  1  0  0  0  0
 14 17  1  6  0  0  0
 14 13  1  0  0  0  0
 15 16  1  0  0  0  0
 16 14  1  0  0  0  0
 18 20  1  0  0  0  0
 18 19  1  0  0  0  0
 19 17  1  0  0  0  0
 20 19  1  0  0  0  0
 22 21  1  0  0  0  0
 22 24  1  0  0  0  0
 23 24  1  0  0  0  0
 24 26  1  0  0  0  0
 24 25  1  0  0  0  0
M  END
>  <MODEL>
2

>  <REMARK>
 VINA RESULT:      -6.4      2.835      4.259
  Name = 
  8 active torsions:
  status: ('A' for Active; 'I' for Inactive)
    1  A    between atoms: C_1  and  C_17
    2  A    between atoms: C_1  and  C_24
    3  A    between atoms: C_5  and  C_14
    4  A    between atoms: C_9  and  C_21
    5  A    between atoms: C_10  and  C_24
    6  A    between atoms: C_14  and  O_22
    7  A    between atoms: C_20  and  O_22
    8  A    between atoms: C_21  and  C_24
                            x       y       z     vdW  Elec       q    Type
                         _______ _______ _______ _____ _____    ______ ____

>  <TORSDO>
F 8

$$$$
=
 OpenBabel11072414403D

 26 28  0  0  1  0  0  0  0  0999 V2000
  161.4250  208.2360  155.1430 C   0  0  0  0  0  2  0  0  0  0  0  0
  161.5180  209.3260  154.0560 C   0  0  1  0  0  3  0  0  0  0  0  0
  160.1240  210.3900  152.3840 O   0  0  0  0  0  0  0  0  0  0  0  0
  159.3270  211.0480  153.3420 C   0  0  1  0  0  3  0  0  0  0  0  0
  160.4550  209.1490  152.9520 C   0  0  1  0  0  3  0  0  0  0  0  0
  161.5610  206.4950  153.7020 C   0  0  0  0  0  2  0  0  0  0  0  0
  160.8800  206.7080  152.3510 C   0  0  0  0  0  2  0  0  0  0  0  0
  160.7700  207.0680  154.7090 O   0  0  0  0  0  0  0  0  0  0  0  0
  161.5140  210.7620  154.6150 C   0  0  2  0  0  3  0  0  0  0  0  0
  160.9310  208.1650  151.8760 C   0  0  2  0  0  3  0  0  0  0  0  0
  162.0920  210.8380  155.8830 O   0  0  0  0  0  1  0  0  0  0  0  0
  160.1180  211.3910  154.6180 C   0  0  0  0  0  2  0  0  0  0  0  0
  158.7470  212.3220  152.7490 C   0  0  0  0  0  2  0  0  0  0  0  0
  157.9170  213.0780  153.7780 C   0  0  1  0  0  3  0  0  0  0  0  0
  156.4330  214.3450  152.3630 O   0  0  0  0  0  1  0  0  0  0  0  0
  157.5020  214.4520  153.2550 C   0  0  0  0  0  2  0  0  0  0  0  0
  156.7070  212.2440  154.1680 C   0  0  0  0  0  2  0  0  0  0  0  0
  157.2450  212.4210  156.4620 O   0  0  0  0  0  0  0  0  0  0  0  0
  156.2270  212.6250  155.5570 C   0  0  0  0  0  3  0  0  0  0  0  0
  156.2580  211.5160  156.3720 O   0  0  0  0  0  0  0  0  0  0  0  0
  162.2180  208.4890  151.4290 O   0  0  0  0  0  0  0  0  0  0  0  0
  162.4860  207.5730  150.4080 C   0  0  0  0  0  2  0  0  0  0  0  0
  160.8030  207.6260  148.7310 F   0  0  0  0  0  0  0  0  0  0  0  0
  162.0420  208.1370  149.0700 C   0  0  0  0  0  0  0  0  0  0  0  0
  162.9620  207.8040  148.0910 F   0  0  0  0  0  0  0  0  0  0  0  0
  161.9570  209.5130  149.1620 F   0  0  0  0  0  0  0  0  0  0  0  0
  2  9  1  0  0  0  0
  2  1  1  1  0  0  0
  3  4  1  0  0  0  0
  4 13  1  6  0  0  0
  4 12  1  0  0  0  0
  5  3  1  6  0  0  0
  5  2  1  0  0  0  0
  6  8  1  0  0  0  0
  7  6  1  0  0  0  0
  8  1  1  0  0  0  0
  9 12  1  0  0  0  0
  9 11  1  1  0  0  0
 10 21  1  1  0  0  0
 10  7  1  0  0  0  0
 10  5  1  0  0  0  0
 14 13  1  6  0  0  0
 14 17  1  0  0  0  0
 15 16  1  0  0  0  0
 16 14  1  0  0  0  0
 17 19  1  0  0  0  0
 19 20  1  0  0  0  0
 19 18  1  0  0  0  0
 20 18  1  0  0  0  0
 22 21  1  0  0  0  0
 23 24  1  0  0  0  0
 24 26  1  0  0  0  0
 24 22  1  0  0  0  0
 25 24  1  0  0  0  0
M  END
>  <MODEL>
3

>  <REMARK>
 VINA RESULT:      -6.0      4.038      7.701
  Name = 
  8 active torsions:
  status: ('A' for Active; 'I' for Inactive)
    1  A    between atoms: C_1  and  C_17
    2  A    between atoms: C_1  and  C_24
    3  A    between atoms: C_5  and  C_14
    4  A    between atoms: C_9  and  C_21
    5  A    between atoms: C_10  and  C_24
    6  A    between atoms: C_14  and  O_22
    7  A    between atoms: C_20  and  O_22
    8  A    between atoms: C_21  and  C_24
                            x       y       z     vdW  Elec       q    Type
                         _______ _______ _______ _____ _____    ______ ____

>  <TORSDO>
F 8

$$$$
=
 OpenBabel11072414403D

 26 28  0  0  1  0  0  0  0  0999 V2000
  161.3660  208.1810  155.1270 C   0  0  0  0  0  2  0  0  0  0  0  0
  161.6530  209.3460  154.1590 C   0  0  1  0  0  3  0  0  0  0  0  0
  160.4850  210.7600  152.5760 O   0  0  0  0  0  0  0  0  0  0  0  0
  159.7590  211.4320  153.5790 C   0  0  1  0  0  3  0  0  0  0  0  0
  160.6140  209.4350  153.0220 C   0  0  1  0  0  3  0  0  0  0  0  0
  161.2990  206.5880  153.5200 C   0  0  0  0  0  2  0  0  0  0  0  0
  160.7020  207.0280  152.1840 C   0  0  0  0  0  2  0  0  0  0  0  0
  160.5650  207.1700  154.5640 O   0  0  0  0  0  0  0  0  0  0  0  0
  161.8370  210.7050  154.8590 C   0  0  2  0  0  3  0  0  0  0  0  0
  160.9800  208.5010  151.8610 C   0  0  2  0  0  3  0  0  0  0  0  0
  162.3760  210.5720  156.1400 O   0  0  0  0  0  1  0  0  0  0  0  0
  160.5470  211.5290  154.8990 C   0  0  0  0  0  2  0  0  0  0  0  0
  159.3900  212.8290  153.1070 C   0  0  0  0  0  2  0  0  0  0  0  0
  158.0750  212.8190  152.3390 C   0  0  1  0  0  3  0  0  0  0  0  0
  157.3210  213.8710  154.3730 O   0  0  0  0  0  1  0  0  0  0  0  0
  157.0290  213.7020  153.0180 C   0  0  0  0  0  2  0  0  0  0  0  0
  158.3200  213.2550  150.9020 C   0  0  0  0  0  2  0  0  0  0  0  0
  159.8680  214.3280  149.4760 O   0  0  0  0  0  0  0  0  0  0  0  0
  159.6970  213.8790  150.7660 C   0  0  0  0  0  3  0  0  0  0  0  0
  160.4330  213.1690  149.8460 O   0  0  0  0  0  0  0  0  0  0  0  0
  162.3140  208.6740  151.4740 O   0  0  0  0  0  0  0  0  0  0  0  0
  162.5470  207.6770  150.5240 C   0  0  0  0  0  2  0  0  0  0  0  0
  162.1530  209.5540  149.1210 F   0  0  0  0  0  0  0  0  0  0  0  0
  162.1600  208.1720  149.1410 C   0  0  0  0  0  0  0  0  0  0  0  0
  160.9030  207.6990  148.8070 F   0  0  0  0  0  0  0  0  0  0  0  0
  163.0780  207.7080  148.2190 F   0  0  0  0  0  0  0  0  0  0  0  0
  2  9  1  0  0  0  0
  2  1  1  1  0  0  0
  3  4  1  0  0  0  0
  4 13  1  6  0  0  0
  4 12  1  0  0  0  0
  5  3  1  6  0  0  0
  5  2  1  0  0  0  0
  6  8  1  0  0  0  0
  7  6  1  0  0  0  0
  8  1  1  0  0  0  0
  9 12  1  0  0  0  0
  9 11  1  1  0  0  0
 10 21  1  1  0  0  0
 10  7  1  0  0  0  0
 10  5  1  0  0  0  0
 14 17  1  6  0  0  0
 14 16  1  0  0  0  0
 14 13  1  0  0  0  0
 16 15  1  0  0  0  0
 18 20  1  0  0  0  0
 18 19  1  0  0  0  0
 19 17  1  0  0  0  0
 20 19  1  0  0  0  0
 22 21  1  0  0  0  0
 23 24  1  0  0  0  0
 24 22  1  0  0  0  0
 25 24  1  0  0  0  0
 26 24  1  0  0  0  0
M  END
>  <MODEL>
4

>  <REMARK>
 VINA RESULT:      -5.8      4.076      7.472
  Name = 
  8 active torsions:
  status: ('A' for Active; 'I' for Inactive)
    1  A    between atoms: C_1  and  C_17
    2  A    between atoms: C_1  and  C_24
    3  A    between atoms: C_5  and  C_14
    4  A    between atoms: C_9  and  C_21
    5  A    between atoms: C_10  and  C_24
    6  A    between atoms: C_14  and  O_22
    7  A    between atoms: C_20  and  O_22
    8  A    between atoms: C_21  and  C_24
                            x       y       z     vdW  Elec       q    Type
                         _______ _______ _______ _____ _____    ______ ____

>  <TORSDO>
F 8

$$$$
=
 OpenBabel11072414403D

 26 28  0  0  1  0  0  0  0  0999 V2000
  160.8810  201.3560  149.7570 C   0  0  0  0  0  2  0  0  0  0  0  0
  161.5920  202.7210  149.6690 C   0  0  1  0  0  3  0  0  0  0  0  0
  161.0820  205.0410  149.1890 O   0  0  0  0  0  0  0  0  0  0  0  0
  160.3400  205.2130  150.3740 C   0  0  1  0  0  3  0  0  0  0  0  0
  160.8340  203.7230  148.7730 C   0  0  1  0  0  3  0  0  0  0  0  0
  160.7790  201.0300  147.5190 C   0  0  0  0  0  2  0  0  0  0  0  0
  160.5580  202.2890  146.6820 C   0  0  0  0  0  2  0  0  0  0  0  0
  160.0030  201.1120  148.6840 O   0  0  0  0  0  0  0  0  0  0  0  0
  161.9270  203.3370  151.0400 C   0  0  2  0  0  3  0  0  0  0  0  0
  161.2040  203.5380  147.2960 C   0  0  2  0  0  3  0  0  0  0  0  0
  162.1700  202.3640  152.0120 O   0  0  0  0  0  1  0  0  0  0  0  0
  160.8630  204.3270  151.5200 C   0  0  0  0  0  2  0  0  0  0  0  0
  160.3780  206.6710  150.8050 C   0  0  0  0  0  2  0  0  0  0  0  0
  161.5820  206.9480  151.6950 C   0  0  1  0  0  3  0  0  0  0  0  0
  162.3300  208.9350  150.5520 O   0  0  0  0  0  1  0  0  0  0  0  0
  162.7010  207.6380  150.9170 C   0  0  0  0  0  2  0  0  0  0  0  0
  161.1490  207.7770  152.8950 C   0  0  0  0  0  2  0  0  0  0  0  0
  160.1530  207.2700  154.9770 O   0  0  0  0  0  0  0  0  0  0  0  0
  161.2150  206.9460  154.1630 C   0  0  0  0  0  3  0  0  0  0  0  0
  161.3630  207.7800  155.2490 O   0  0  0  0  0  0  0  0  0  0  0  0
  162.5930  203.5050  147.1230 O   0  0  0  0  0  0  0  0  0  0  0  0
  162.8130  204.0610  145.8600 C   0  0  0  0  0  2  0  0  0  0  0  0
  161.0390  205.6250  145.6320 F   0  0  0  0  0  0  0  0  0  0  0  0
  162.3990  205.5220  145.8530 C   0  0  0  0  0  0  0  0  0  0  0  0
  163.0810  206.1990  144.8570 F   0  0  0  0  0  0  0  0  0  0  0  0
  162.7060  206.0870  147.0760 F   0  0  0  0  0  0  0  0  0  0  0  0
  2  1  1  1  0  0  0
  2  9  1  0  0  0  0
  3  4  1  0  0  0  0
  4 13  1  1  0  0  0
  4 12  1  0  0  0  0
  5  3  1  1  0  0  0
  5  2  1  0  0  0  0
  6  8  1  0  0  0  0
  7 10  1  0  0  0  0
  7  6  1  0  0  0  0
  8  1  1  0  0  0  0
  9 12  1  0  0  0  0
  9 11  1  1  0  0  0
 10 21  1  1  0  0  0
 10  5  1  0  0  0  0
 14 13  1  6  0  0  0
 14 17  1  0  0  0  0
 15 16  1  0  0  0  0
 16 14  1  0  0  0  0
 17 19  1  0  0  0  0
 18 20  1  0  0  0  0
 19 18  1  0  0  0  0
 19 20  1  0  0  0  0
 22 21  1  0  0  0  0
 23 24  1  0  0  0  0
 24 22  1  0  0  0  0
 24 26  1  0  0  0  0
 25 24  1  0  0  0  0
M  END
>  <MODEL>
5

>  <REMARK>
 VINA RESULT:      -5.7      4.184      8.456
  Name = 
  8 active torsions:
  status: ('A' for Active; 'I' for Inactive)
    1  A    between atoms: C_1  and  C_17
    2  A    between atoms: C_1  and  C_24
    3  A    between atoms: C_5  and  C_14
    4  A    between atoms: C_9  and  C_21
    5  A    between atoms: C_10  and  C_24
    6  A    between atoms: C_14  and  O_22
    7  A    between atoms: C_20  and  O_22
    8  A    between atoms: C_21  and  C_24
                            x       y       z     vdW  Elec       q    Type
                         _______ _______ _______ _____ _____    ______ ____

>  <TORSDO>
F 8

$$$$
=
 OpenBabel11072414403D

 26 28  0  0  1  0  0  0  0  0999 V2000
  159.2120  211.7860  152.2850 C   0  0  0  0  0  2  0  0  0  0  0  0
  160.4500  211.0790  152.8740 C   0  0  1  0  0  3  0  0  0  0  0  0
  161.0240  209.0430  154.0570 O   0  0  0  0  0  0  0  0  0  0  0  0
  160.7620  208.2200  152.9440 C   0  0  1  0  0  3  0  0  0  0  0  0
  160.0820  210.0820  153.9920 C   0  0  1  0  0  3  0  0  0  0  0  0
  158.4400  212.5420  154.2740 C   0  0  0  0  0  2  0  0  0  0  0  0
  158.6630  211.6080  155.4620 C   0  0  0  0  0  2  0  0  0  0  0  0
  158.1010  211.7780  153.1480 O   0  0  0  0  0  0  0  0  0  0  0  0
  161.3540  210.4240  151.8130 C   0  0  2  0  0  3  0  0  0  0  0  0
  159.9550  210.7900  155.3470 C   0  0  2  0  0  3  0  0  0  0  0  0
  161.3200  211.1040  150.5950 O   0  0  0  0  0  1  0  0  0  0  0  0
  161.0480  208.9370  151.6110 C   0  0  0  0  0  2  0  0  0  0  0  0
  161.6000  206.9530  153.0250 C   0  0  0  0  0  2  0  0  0  0  0  0
  161.2280  205.9780  151.9160 C   0  0  1  0  0  3  0  0  0  0  0  0
  161.5040  206.3360  149.5480 O   0  0  0  0  0  1  0  0  0  0  0  0
  162.1930  206.0870  150.7360 C   0  0  0  0  0  2  0  0  0  0  0  0
  161.1900  204.5630  152.4730 C   0  0  0  0  0  2  0  0  0  0  0  0
  160.4260  203.3460  150.5980 O   0  0  0  0  0  0  0  0  0  0  0  0
  161.5330  203.5590  151.3880 C   0  0  0  0  0  3  0  0  0  0  0  0
  160.7440  202.4400  151.5350 O   0  0  0  0  0  0  0  0  0  0  0  0
  161.0700  211.5970  155.6020 O   0  0  0  0  0  0  0  0  0  0  0  0
  161.5980  211.1140  156.8020 C   0  0  0  0  0  2  0  0  0  0  0  0
  163.9240  211.2860  157.2600 F   0  0  0  0  0  0  0  0  0  0  0  0
  162.9850  210.5410  156.5690 C   0  0  0  0  0  0  0  0  0  0  0  0
  163.2830  210.5630  155.2180 F   0  0  0  0  0  0  0  0  0  0  0  0
  163.0190  209.2360  157.0200 F   0  0  0  0  0  0  0  0  0  0  0  0
  1  8  1  0  0  0  0
  2  1  1  6  0  0  0
  2  5  1  0  0  0  0
  4 13  1  1  0  0  0
  4  3  1  0  0  0  0
  5  3  1  1  0  0  0
  5 10  1  0  0  0  0
  6  7  1  0  0  0  0
  8  6  1  0  0  0  0
  9 11  1  6  0  0  0
  9  2  1  0  0  0  0
 10  7  1  0  0  0  0
 10 21  1  6  0  0  0
 12  9  1  0  0  0  0
 12  4  1  0  0  0  0
 14 16  1  6  0  0  0
 14 17  1  0  0  0  0
 14 13  1  0  0  0  0
 15 16  1  0  0  0  0
 18 19  1  0  0  0  0
 18 20  1  0  0  0  0
 19 20  1  0  0  0  0
 19 17  1  0  0  0  0
 21 22  1  0  0  0  0
 24 22  1  0  0  0  0
 24 26  1  0  0  0  0
 24 23  1  0  0  0  0
 25 24  1  0  0  0  0
M  END
>  <MODEL>
6

>  <REMARK>
 VINA RESULT:      -5.6      1.629      2.166
  Name = 
  8 active torsions:
  status: ('A' for Active; 'I' for Inactive)
    1  A    between atoms: C_1  and  C_17
    2  A    between atoms: C_1  and  C_24
    3  A    between atoms: C_5  and  C_14
    4  A    between atoms: C_9  and  C_21
    5  A    between atoms: C_10  and  C_24
    6  A    between atoms: C_14  and  O_22
    7  A    between atoms: C_20  and  O_22
    8  A    between atoms: C_21  and  C_24
                            x       y       z     vdW  Elec       q    Type
                         _______ _______ _______ _____ _____    ______ ____

>  <TORSDO>
F 8

$$$$
=
 OpenBabel11072414403D

 26 28  0  0  1  0  0  0  0  0999 V2000
  160.6880  203.5850  145.4580 C   0  0  0  0  0  2  0  0  0  0  0  0
  160.5590  204.4390  146.7360 C   0  0  1  0  0  3  0  0  0  0  0  0
  161.9470  205.3270  148.5110 O   0  0  0  0  0  0  0  0  0  0  0  0
  162.6050  206.2370  147.6600 C   0  0  1  0  0  3  0  0  0  0  0  0
  161.7070  204.1830  147.7340 C   0  0  1  0  0  3  0  0  0  0  0  0
  160.8310  201.6050  146.5460 C   0  0  0  0  0  2  0  0  0  0  0  0
  161.5770  201.6400  147.8790 C   0  0  0  0  0  2  0  0  0  0  0  0
  161.4880  202.4390  145.6300 O   0  0  0  0  0  0  0  0  0  0  0  0
  160.3770  205.9430  146.4620 C   0  0  2  0  0  3  0  0  0  0  0  0
  161.4090  202.9700  148.6240 C   0  0  2  0  0  3  0  0  0  0  0  0
  159.7090  206.1860  145.2600 O   0  0  0  0  0  1  0  0  0  0  0  0
  161.6970  206.7170  146.5110 C   0  0  0  0  0  2  0  0  0  0  0  0
  163.0910  207.4370  148.4560 C   0  0  0  0  0  2  0  0  0  0  0  0
  161.9530  208.0630  149.2520 C   0  0  1  0  0  3  0  0  0  0  0  0
  162.7030  206.9760  151.2680 O   0  0  0  0  0  1  0  0  0  0  0  0
  162.3220  208.2050  150.7280 C   0  0  0  0  0  2  0  0  0  0  0  0
  161.5830  209.4060  148.6410 C   0  0  0  0  0  2  0  0  0  0  0  0
  161.4900  211.5490  149.6330 O   0  0  0  0  0  0  0  0  0  0  0  0
  162.3550  210.5250  149.3160 C   0  0  0  0  0  3  0  0  0  0  0  0
  162.2720  211.6660  148.5490 O   0  0  0  0  0  0  0  0  0  0  0  0
  160.1300  203.0580  149.1860 O   0  0  0  0  0  0  0  0  0  0  0  0
  160.2870  202.6370  150.5090 C   0  0  0  0  0  2  0  0  0  0  0  0
  160.2060  204.9700  150.9560 F   0  0  0  0  0  0  0  0  0  0  0  0
  160.7890  203.7860  151.3670 C   0  0  0  0  0  0  0  0  0  0  0  0
  162.1650  203.8870  151.2570 F   0  0  0  0  0  0  0  0  0  0  0  0
  160.4560  203.5470  152.6860 F   0  0  0  0  0  0  0  0  0  0  0  0
  1  8  1  0  0  0  0
  2  1  1  6  0  0  0
  2  5  1  0  0  0  0
  4 13  1  1  0  0  0
  4  3  1  0  0  0  0
  5  3  1  1  0  0  0
  5 10  1  0  0  0  0
  6  7  1  0  0  0  0
  7 10  1  0  0  0  0
  8  6  1  0  0  0  0
  9 11  1  6  0  0  0
  9 12  1  0  0  0  0
  9  2  1  0  0  0  0
 10 21  1  6  0  0  0
 12  4  1  0  0  0  0
 14 13  1  6  0  0  0
 14 16  1  0  0  0  0
 16 15  1  0  0  0  0
 17 14  1  0  0  0  0
 17 19  1  0  0  0  0
 19 18  1  0  0  0  0
 20 19  1  0  0  0  0
 20 18  1  0  0  0  0
 21 22  1  0  0  0  0
 22 24  1  0  0  0  0
 23 24  1  0  0  0  0
 24 26  1  0  0  0  0
 25 24  1  0  0  0  0
M  END
>  <MODEL>
7

>  <REMARK>
 VINA RESULT:      -5.5      4.354      8.094
  Name = 
  8 active torsions:
  status: ('A' for Active; 'I' for Inactive)
    1  A    between atoms: C_1  and  C_17
    2  A    between atoms: C_1  and  C_24
    3  A    between atoms: C_5  and  C_14
    4  A    between atoms: C_9  and  C_21
    5  A    between atoms: C_10  and  C_24
    6  A    between atoms: C_14  and  O_22
    7  A    between atoms: C_20  and  O_22
    8  A    between atoms: C_21  and  C_24
                            x       y       z     vdW  Elec       q    Type
                         _______ _______ _______ _____ _____    ______ ____

>  <TORSDO>
F 8

$$$$
=
 OpenBabel11072414403D

 26 28  0  0  1  0  0  0  0  0999 V2000
  161.5760  209.5150  151.0380 C   0  0  0  0  0  2  0  0  0  0  0  0
  162.0150  208.1590  150.4480 C   0  0  1  0  0  3  0  0  0  0  0  0
  161.0350  206.1130  149.5970 O   0  0  0  0  0  0  0  0  0  0  0  0
  160.5150  206.7380  148.4470 C   0  0  1  0  0  3  0  0  0  0  0  0
  160.9410  207.0660  150.6240 C   0  0  1  0  0  3  0  0  0  0  0  0
  161.1060  208.7020  153.0980 C   0  0  0  0  0  2  0  0  0  0  0  0
  160.5190  207.2920  153.1290 C   0  0  0  0  0  2  0  0  0  0  0  0
  160.5640  209.4010  152.0100 O   0  0  0  0  0  0  0  0  0  0  0  0
  162.4960  208.2440  148.9880 C   0  0  2  0  0  3  0  0  0  0  0  0
  161.0490  206.3980  152.0010 C   0  0  2  0  0  3  0  0  0  0  0  0
  163.0810  209.4770  148.6940 O   0  0  0  0  0  1  0  0  0  0  0  0
  161.3900  207.9170  147.9810 C   0  0  0  0  0  2  0  0  0  0  0  0
  160.3860  205.7280  147.3180 C   0  0  0  0  0  2  0  0  0  0  0  0
  161.6970  204.9850  147.0960 C   0  0  1  0  0  3  0  0  0  0  0  0
  161.2060  203.0860  148.4970 O   0  0  0  0  0  1  0  0  0  0  0  0
  161.5000  203.4730  147.1880 C   0  0  0  0  0  2  0  0  0  0  0  0
  162.2880  205.3860  145.7530 C   0  0  0  0  0  2  0  0  0  0  0  0
  160.7390  204.6300  144.1360 O   0  0  0  0  0  0  0  0  0  0  0  0
  161.1850  205.7630  144.7800 C   0  0  0  0  0  3  0  0  0  0  0  0
  161.5810  205.4560  143.4980 O   0  0  0  0  0  0  0  0  0  0  0  0
  162.3640  206.0000  152.2680 O   0  0  0  0  0  0  0  0  0  0  0  0
  162.5110  204.7760  151.6110 C   0  0  0  0  0  2  0  0  0  0  0  0
  160.3270  203.8950  151.2930 F   0  0  0  0  0  0  0  0  0  0  0  0
  161.4530  203.7960  152.0890 C   0  0  0  0  0  0  0  0  0  0  0  0
  161.1150  204.0710  153.4020 F   0  0  0  0  0  0  0  0  0  0  0  0
  161.9540  202.5120  152.0090 F   0  0  0  0  0  0  0  0  0  0  0  0
  1  8  1  0  0  0  0
  2  5  1  0  0  0  0
  2  1  1  6  0  0  0
  4 13  1  6  0  0  0
  4  3  1  0  0  0  0
  5  3  1  6  0  0  0
  5 10  1  0  0  0  0
  6  7  1  0  0  0  0
  8  6  1  0  0  0  0
  9 11  1  6  0  0  0
  9  2  1  0  0  0  0
 10 21  1  1  0  0  0
 10  7  1  0  0  0  0
 12  4  1  0  0  0  0
 12  9  1  0  0  0  0
 14 17  1  6  0  0  0
 14 16  1  0  0  0  0
 14 13  1  0  0  0  0
 16 15  1  0  0  0  0
 18 19  1  0  0  0  0
 19 17  1  0  0  0  0
 20 18  1  0  0  0  0
 20 19  1  0  0  0  0
 22 24  1  0  0  0  0
 22 21  1  0  0  0  0
 23 24  1  0  0  0  0
 24 25  1  0  0  0  0
 26 24  1  0  0  0  0
M  END
>  <MODEL>
8

>  <REMARK>
 VINA RESULT:      -5.4      3.621      5.124
  Name = 
  8 active torsions:
  status: ('A' for Active; 'I' for Inactive)
    1  A    between atoms: C_1  and  C_17
    2  A    between atoms: C_1  and  C_24
    3  A    between atoms: C_5  and  C_14
    4  A    between atoms: C_9  and  C_21
    5  A    between atoms: C_10  and  C_24
    6  A    between atoms: C_14  and  O_22
    7  A    between atoms: C_20  and  O_22
    8  A    between atoms: C_21  and  C_24
                            x       y       z     vdW  Elec       q    Type
                         _______ _______ _______ _____ _____    ______ ____

>  <TORSDO>
F 8

$$$$
=
 OpenBabel11072414403D

 26 28  0  0  1  0  0  0  0  0999 V2000
  161.4160  204.2090  151.5020 C   0  0  0  0  0  2  0  0  0  0  0  0
  162.0030  205.5480  151.0110 C   0  0  1  0  0  3  0  0  0  0  0  0
  161.2550  207.7280  150.2640 O   0  0  0  0  0  0  0  0  0  0  0  0
  160.7910  208.1020  151.5410 C   0  0  1  0  0  3  0  0  0  0  0  0
  161.0020  206.3510  150.1550 C   0  0  1  0  0  3  0  0  0  0  0  0
  160.8310  203.4720  149.4420 C   0  0  0  0  0  2  0  0  0  0  0  0
  160.3500  204.5500  148.4720 C   0  0  0  0  0  2  0  0  0  0  0  0
  160.3350  203.7540  150.7230 O   0  0  0  0  0  0  0  0  0  0  0  0
  162.6010  206.4130  152.1360 C   0  0  2  0  0  3  0  0  0  0  0  0
  161.0400  205.9030  148.6890 C   0  0  2  0  0  3  0  0  0  0  0  0
  163.1160  205.6420  153.1800 O   0  0  0  0  0  1  0  0  0  0  0  0
  161.6140  207.4540  152.6700 C   0  0  0  0  0  2  0  0  0  0  0  0
  160.8360  209.6150  151.6870 C   0  0  0  0  0  2  0  0  0  0  0  0
  160.4020  210.0440  153.0820 C   0  0  1  0  0  3  0  0  0  0  0  0
  161.1440  211.2460  155.0360 O   0  0  0  0  0  1  0  0  0  0  0  0
  161.5830  210.5750  153.8920 C   0  0  0  0  0  2  0  0  0  0  0  0
  159.2920  211.0790  152.9760 C   0  0  0  0  0  2  0  0  0  0  0  0
  159.1790  213.3810  152.4610 O   0  0  0  0  0  0  0  0  0  0  0  0
  159.6900  212.1830  152.0140 C   0  0  0  0  0  3  0  0  0  0  0  0
  158.5580  212.7380  151.4610 O   0  0  0  0  0  0  0  0  0  0  0  0
  162.3530  205.8650  148.2060 O   0  0  0  0  0  0  0  0  0  0  0  0
  162.2460  206.1740  146.8470 C   0  0  0  0  0  2  0  0  0  0  0  0
  161.9500  203.9130  146.1750 F   0  0  0  0  0  0  0  0  0  0  0  0
  162.7630  205.0190  146.0060 C   0  0  0  0  0  0  0  0  0  0  0  0
  164.0550  204.7030  146.3860 F   0  0  0  0  0  0  0  0  0  0  0  0
  162.7580  205.3880  144.6750 F   0  0  0  0  0  0  0  0  0  0  0  0
  2  1  1  1  0  0  0
  2  9  1  0  0  0  0
  3  4  1  0  0  0  0
  4 13  1  6  0  0  0
  4 12  1  0  0  0  0
  5  3  1  6  0  0  0
  5  2  1  0  0  0  0
  6  8  1  0  0  0  0
  7 10  1  0  0  0  0
  7  6  1  0  0  0  0
  8  1  1  0  0  0  0
  9 12  1  0  0  0  0
  9 11  1  1  0  0  0
 10 21  1  1  0  0  0
 10  5  1  0  0  0  0
 14 13  1  6  0  0  0
 14 16  1  0  0  0  0
 16 15  1  0  0  0  0
 17 14  1  0  0  0  0
 19 18  1  0  0  0  0
 19 17  1  0  0  0  0
 20 19  1  0  0  0  0
 20 18  1  0  0  0  0
 22 21  1  0  0  0  0
 24 23  1  0  0  0  0
 24 25  1  0  0  0  0
 24 22  1  0  0  0  0
 26 24  1  0  0  0  0
M  END
>  <MODEL>
9

>  <REMARK>
 VINA RESULT:      -5.3      4.543      8.365
  Name = 
  8 active torsions:
  status: ('A' for Active; 'I' for Inactive)
    1  A    between atoms: C_1  and  C_17
    2  A    between atoms: C_1  and  C_24
    3  A    between atoms: C_5  and  C_14
    4  A    between atoms: C_9  and  C_21
    5  A    between atoms: C_10  and  C_24
    6  A    between atoms: C_14  and  O_22
    7  A    between atoms: C_20  and  O_22
    8  A    between atoms: C_21  and  C_24
                            x       y       z     vdW  Elec       q    Type
                         _______ _______ _______ _____ _____    ______ ____

>  <TORSDO>
F 8

$$$$
