=
 OpenBabel11072413393D

 59 62  0  0  1  0  0  0  0  0999 V2000
  162.1640  204.5050  152.9540 F   0  0  0  0  0  0  0  0  0  0  0  0
  162.2030  202.4330  151.8420 C   0  0  0  0  0  0  0  0  0  0  0  0
  161.0100  201.4700  149.8170 C   0  0  0  0  0  0  0  0  0  0  0  0
  160.8460  204.3740  150.9350 C   0  0  1  0  0  3  0  0  0  0  0  0
  161.7560  201.7700  150.8290 C   0  0  0  0  0  0  0  0  0  0  0  0
  158.5250  201.8640  148.5740 Cl  0  0  0  0  0  0  0  0  0  0  0  0
  160.3050  203.2350  152.9920 F   0  0  0  0  0  0  0  0  0  0  0  0
  163.4750  202.2640  152.2820 F   0  0  0  0  0  0  0  0  0  0  0  0
  161.3760  203.6410  152.2110 C   0  0  0  0  0  0  0  0  0  0  0  0
  159.8720  202.4000  149.5660 C   0  0  0  0  0  0  0  0  0  0  0  0
  159.7900  203.6430  150.0980 C   0  0  0  0  0  3  0  0  0  0  0  0
  161.1540  200.1660  149.1080 C   0  0  0  0  0  2  0  0  0  0  0  0
  161.9560  200.3320  147.8220 C   0  0  0  0  0  2  0  0  0  0  0  0
  161.2610  199.1410  145.8340 O   0  0  0  0  0  1  0  0  0  0  0  0
  161.0640  200.3050  146.5790 C   0  0  2  0  0  3  0  0  0  0  0  0
  161.1880  201.5490  145.6870 C   0  0  1  0  0  3  0  0  0  0  0  0
  160.0190  201.6660  144.7020 C   0  0  1  0  0  3  0  0  0  0  0  0
  159.1810  200.5640  144.8460 O   0  0  0  0  0  1  0  0  0  0  0  0
  159.2100  202.9290  144.9470 C   0  0  0  0  0  2  0  0  0  0  0  0
  158.5370  203.2940  143.7840 O   0  0  0  0  0  0  0  0  0  0  0  0
  157.3470  203.8720  144.2290 C   0  0  0  0  0  1  0  0  0  0  0  0
  161.2830  202.7220  146.4540 O   0  0  0  0  0  0  0  0  0  0  0  0
  162.3700  203.4290  145.9270 C   0  0  0  0  0  2  0  0  0  0  0  0
  162.1620  204.9310  146.1080 C   0  0  1  0  0  3  0  0  0  0  0  0
  161.0560  206.7160  144.9740 O   0  0  0  0  0  1  0  0  0  0  0  0
  161.4720  205.5240  144.9240 C   0  0  0  0  0  0  0  0  0  0  0  0
  161.2730  204.7790  143.7680 O   0  0  0  0  0  0  0  0  0  0  0  0
  161.3630  205.2000  147.3720 C   0  0  0  0  0  2  0  0  0  0  0  0
  162.0630  206.2400  148.2280 C   0  0  0  0  0  2  0  0  0  0  0  0
  161.2790  207.5420  148.2500 C   0  0  0  0  0  2  0  0  0  0  0  0
  162.1900  208.7130  148.5540 C   0  0  0  0  0  1  0  0  0  0  0  0
  160.4430  205.8250  151.2090 C   0  0  0  0  0  2  0  0  0  0  0  0
  161.5280  206.6350  151.9150 C   0  0  0  0  0  2  0  0  0  0  0  0
  160.9370  207.4570  153.0460 C   0  0  0  0  0  2  0  0  0  0  0  0
  160.1110  208.6100  152.4880 C   0  0  0  0  0  2  0  0  0  0  0  0
  160.2490  209.8780  153.3340 C   0  0  2  0  0  0  0  0  0  0  0  0
  159.9830  212.9760  153.4900 O   0  0  0  0  0  1  0  0  0  0  0  0
  159.9610  211.8940  152.5980 C   0  0  2  0  0  0  0  0  0  0  0  0
  159.0460  210.7910  153.1140 C   0  0  0  0  0  2  0  0  0  0  0  0
  161.1840  210.9870  152.8130 C   0  0  2  0  0  3  0  0  0  0  0  0
  159.6170  212.2710  151.1430 C   0  0  1  0  0  3  0  0  0  0  0  0
  158.8530  213.5800  151.0580 C   0  0  2  0  0  3  0  0  0  0  0  0
  157.6940  213.5050  149.6490 S   0  0  0  0  0  1  0  0  0  0  0  0
  160.3460  213.5240  150.6950 C   0  0  2  0  0  3  0  0  0  0  0  0
  160.6590  213.4310  149.2090 C   0  0  0  0  0  2  0  0  0  0  0  0
  162.8180  213.7900  148.2770 O   0  0  0  0  0  1  0  0  0  0  0  0
  161.7350  214.4410  148.8630 C   0  0  0  0  0  2  0  0  0  0  0  0
  163.2060  210.3100  151.7350 O   0  0  0  0  0  1  0  0  0  0  0  0
  161.4760  210.7460  150.3050 O   0  0  0  0  0  0  0  0  0  0  0  0
  162.0090  210.6650  151.5890 C   0  0  0  0  0  0  0  0  0  0  0  0
  160.4560  209.5600  154.8210 C   0  0  0  0  0  2  0  0  0  0  0  0
  159.3010  209.8250  155.5670 O   0  0  0  0  0  0  0  0  0  0  0  0
  159.7640  210.3350  156.7850 C   0  0  0  0  0  2  0  0  0  0  0  0
  159.6400  211.8560  156.7980 C   0  0  0  0  0  2  0  0  0  0  0  0
  156.1040  211.9780  156.7430 C   0  0  0  0  0  2  0  0  0  0  0  0
  158.3960  212.2610  156.1560 N   0  0  0  0  0  0  0  0  0  0  0  0
  157.3980  211.2560  156.4830 C   0  0  0  0  0  2  0  0  0  0  0  0
  157.9610  213.4960  156.8050 C   0  0  0  0  0  2  0  0  0  0  0  0
  156.5170  213.3330  157.2610 C   0  0  0  0  0  2  0  0  0  0  0  0
  2  9  1  0  0  0  0
  2  8  1  0  0  0  0
  3  5  2  0  0  0  0
  4 32  1  1  0  0  0
  4  9  1  0  0  0  0
  5  2  2  0  0  0  0
  6 10  1  0  0  0  0
  9  1  1  0  0  0  0
  9  7  1  0  0  0  0
 10  3  1  0  0  0  0
 10 11  2  0  0  0  0
 11  4  1  0  0  0  0
 12  3  1  0  0  0  0
 13 12  1  0  0  0  0
 15 14  1  6  0  0  0
 15 13  1  0  0  0  0
 16 22  1  1  0  0  0
 16 15  1  0  0  0  0
 17 18  1  1  0  0  0
 17 19  1  0  0  0  0
 17 16  1  0  0  0  0
 20 21  1  0  0  0  0
 20 19  1  0  0  0  0
 23 22  1  0  0  0  0
 24 23  1  6  0  0  0
 24 28  1  0  0  0  0
 26 25  1  0  0  0  0
 26 24  1  0  0  0  0
 27 26  2  0  0  0  0
 28 29  1  0  0  0  0
 29 30  1  0  0  0  0
 30 31  1  0  0  0  0
 32 33  1  0  0  0  0
 33 34  1  0  0  0  0
 35 34  1  0  0  0  0
 36 35  1  6  0  0  0
 36 51  1  0  0  0  0
 38 40  1  0  0  0  0
 38 39  1  0  0  0  0
 38 37  1  1  0  0  0
 39 36  1  0  0  0  0
 40 50  1  6  0  0  0
 40 36  1  0  0  0  0
 41 38  1  1  0  0  0
 42 43  1  6  0  0  0
 42 41  1  0  0  0  0
 44 45  1  6  0  0  0
 44 42  1  0  0  0  0
 44 41  1  0  0  0  0
 46 47  1  0  0  0  0
 47 45  1  0  0  0  0
 49 50  2  0  0  0  0
 50 48  1  0  0  0  0
 51 52  1  0  0  0  0
 52 53  1  0  0  0  0
 53 54  1  0  0  0  0
 55 59  1  0  0  0  0
 56 57  1  0  0  0  0
 56 54  1  0  0  0  0
 56 58  1  0  0  0  0
 57 55  1  0  0  0  0
 58 59  1  0  0  0  0
M  END
>  <MODEL>
1

>  <REMARK>
 VINA RESULT:      -1.4      0.000      0.000
  Name = 
  28 active torsions:
  status: ('A' for Active; 'I' for Inactive)
    1  A    between atoms: C_5  and  C_19
    2  A    between atoms: C_6  and  C_10
    3  A    between atoms: C_7  and  C_26
    4  A    between atoms: C_7  and  C_42
    5  A    between atoms: C_9  and  C_13
    6  A    between atoms: C_9  and  C_49
    7  A    between atoms: C_10  and  C_32
    8  A    between atoms: C_12  and  C_38
    9  A    between atoms: C_12  and  C_52
   10  A    between atoms: C_13  and  C_47
   11  A    between atoms: N_14  and  C_46
   12  A    between atoms: O_16  and  C_20
   13  A    between atoms: C_19  and  C_41
   14  A    between atoms: C_20  and  C_24
   15  A    between atoms: C_21  and  C_25
   16  A    between atoms: C_21  and  C_26
   17  A    between atoms: C_21  and  C_56
   18  A    between atoms: C_24  and  C_35
   19  A    between atoms: C_27  and  C_44
   20  A    between atoms: C_28  and  C_46
   21  A    between atoms: C_28  and  O_57
   22  A    between atoms: C_32  and  C_49
   23  A    between atoms: C_35  and  O_37
   24  A    between atoms: C_35  and  C_51
   25  A    between atoms: O_37  and  C_56
   26  A    between atoms: C_41  and  C_51
   27  A    between atoms: C_47  and  O_57
   28  A    between atoms: C_58  and  C_59
                            x       y       z     vdW  Elec       q    Type
                         _______ _______ _______ _____ _____    ______ ____

>  <TORSDO>
F 28

$$$$
=
 OpenBabel11072413393D

 59 62  0  0  1  0  0  0  0  0999 V2000
  160.9990  208.4380  153.2900 F   0  0  0  0  0  0  0  0  0  0  0  0
  161.2360  206.6090  151.8310 C   0  0  0  0  0  0  0  0  0  0  0  0
  162.0360  206.3270  149.4360 C   0  0  0  0  0  0  0  0  0  0  0  0
  162.0140  208.9270  151.1540 C   0  0  1  0  0  3  0  0  0  0  0  0
  161.6440  206.2340  150.6650 C   0  0  0  0  0  0  0  0  0  0  0  0
  162.0540  207.9170  147.1240 Cl  0  0  0  0  0  0  0  0  0  0  0  0
  159.6910  208.3510  151.4580 F   0  0  0  0  0  0  0  0  0  0  0  0
  161.4000  205.8130  152.9170 F   0  0  0  0  0  0  0  0  0  0  0  0
  160.9600  208.0890  151.9490 C   0  0  0  0  0  0  0  0  0  0  0  0
  162.0330  207.7040  148.8680 C   0  0  0  0  0  0  0  0  0  0  0  0
  161.9750  208.8270  149.6240 C   0  0  0  0  0  3  0  0  0  0  0  0
  162.2480  205.1110  148.5980 C   0  0  0  0  0  2  0  0  0  0  0  0
  163.2840  205.3760  147.5110 C   0  0  0  0  0  2  0  0  0  0  0  0
  163.3670  205.5030  145.0960 O   0  0  0  0  0  1  0  0  0  0  0  0
  162.8850  204.7540  146.1700 C   0  0  2  0  0  3  0  0  0  0  0  0
  161.3780  204.4930  146.0200 C   0  0  1  0  0  3  0  0  0  0  0  0
  160.7790  205.2650  144.8400 C   0  0  1  0  0  3  0  0  0  0  0  0
  160.4110  206.5410  145.2600 O   0  0  0  0  0  1  0  0  0  0  0  0
  161.7750  205.3960  143.6990 C   0  0  0  0  0  2  0  0  0  0  0  0
  161.1010  205.3970  142.4790 O   0  0  0  0  0  0  0  0  0  0  0  0
  161.7880  206.3240  141.6950 C   0  0  0  0  0  1  0  0  0  0  0  0
  161.1080  203.1220  145.8780 O   0  0  0  0  0  0  0  0  0  0  0  0
  161.0960  202.6050  147.1790 C   0  0  0  0  0  2  0  0  0  0  0  0
  160.4370  201.2280  147.1940 C   0  0  1  0  0  3  0  0  0  0  0  0
  161.5740  199.5830  145.8930 O   0  0  0  0  0  1  0  0  0  0  0  0
  160.6980  200.4930  145.9210 C   0  0  0  0  0  0  0  0  0  0  0  0
  159.9980  200.8030  144.7620 O   0  0  0  0  0  0  0  0  0  0  0  0
  160.9370  200.4220  148.3800 C   0  0  0  0  0  2  0  0  0  0  0  0
  161.6170  201.3320  149.3890 C   0  0  0  0  0  2  0  0  0  0  0  0
  160.7400  201.5310  150.6150 C   0  0  0  0  0  2  0  0  0  0  0  0
  161.1790  202.7540  151.3950 C   0  0  0  0  0  1  0  0  0  0  0  0
  162.0910  210.3810  151.6220 C   0  0  0  0  0  2  0  0  0  0  0  0
  161.0190  210.7490  152.6450 C   0  0  0  0  0  2  0  0  0  0  0  0
  160.1550  211.8890  152.1360 C   0  0  0  0  0  2  0  0  0  0  0  0
  158.7300  211.7470  152.6570 C   0  0  0  0  0  2  0  0  0  0  0  0
  158.3480  212.8880  153.6040 C   0  0  2  0  0  0  0  0  0  0  0  0
  158.5730  214.1290  156.4510 O   0  0  0  0  0  1  0  0  0  0  0  0
  158.8590  212.9750  155.7070 C   0  0  2  0  0  0  0  0  0  0  0  0
  159.5660  213.3350  154.4070 C   0  0  0  0  0  2  0  0  0  0  0  0
  157.6230  212.5190  154.9130 C   0  0  2  0  0  3  0  0  0  0  0  0
  159.6310  211.8890  156.4820 C   0  0  1  0  0  3  0  0  0  0  0  0
  160.0800  210.7530  155.5790 C   0  0  2  0  0  3  0  0  0  0  0  0
  160.0670  209.1940  156.5280 S   0  0  0  0  0  1  0  0  0  0  0  0
  161.0860  211.8150  156.0550 C   0  0  2  0  0  3  0  0  0  0  0  0
  161.9480  211.4170  157.2440 C   0  0  0  0  0  2  0  0  0  0  0  0
  163.4350  210.8200  155.4850 O   0  0  0  0  0  1  0  0  0  0  0  0
  163.3900  211.2960  156.7930 C   0  0  0  0  0  2  0  0  0  0  0  0
  157.0830  210.6070  156.2390 O   0  0  0  0  0  1  0  0  0  0  0  0
  156.9510  210.2570  153.9830 O   0  0  0  0  0  0  0  0  0  0  0  0
  157.2070  211.0760  155.0800 C   0  0  0  0  0  0  0  0  0  0  0  0
  157.6960  214.0610  152.8600 C   0  0  0  0  0  2  0  0  0  0  0  0
  156.8030  213.6120  151.8790 O   0  0  0  0  0  0  0  0  0  0  0  0
  157.0170  214.4530  150.7810 C   0  0  0  0  0  2  0  0  0  0  0  0
  156.3210  213.8910  149.5450 C   0  0  0  0  0  2  0  0  0  0  0  0
  158.3230  212.9230  146.7920 C   0  0  0  0  0  2  0  0  0  0  0  0
  157.1840  212.9190  148.8850 N   0  0  0  0  0  0  0  0  0  0  0  0
  156.9790  213.0680  147.4540 C   0  0  0  0  0  2  0  0  0  0  0  0
  158.5640  213.3220  149.1460 C   0  0  0  0  0  2  0  0  0  0  0  0
  159.3130  213.4060  147.8220 C   0  0  0  0  0  2  0  0  0  0  0  0
  2  9  1  0  0  0  0
  2  8  1  0  0  0  0
  3  5  2  0  0  0  0
  4 32  1  6  0  0  0
  4  9  1  0  0  0  0
  5  2  2  0  0  0  0
  6 10  1  0  0  0  0
  7  9  1  0  0  0  0
  9  1  1  0  0  0  0
 10  3  1  0  0  0  0
 10 11  2  0  0  0  0
 11  4  1  0  0  0  0
 12  3  1  0  0  0  0
 13 12  1  0  0  0  0
 15 14  1  6  0  0  0
 15 13  1  0  0  0  0
 16 22  1  6  0  0  0
 16 15  1  0  0  0  0
 17 18  1  1  0  0  0
 17 16  1  0  0  0  0
 19 17  1  0  0  0  0
 20 19  1  0  0  0  0
 21 20  1  0  0  0  0
 22 23  1  0  0  0  0
 24 23  1  6  0  0  0
 24 28  1  0  0  0  0
 25 26  1  0  0  0  0
 26 24  1  0  0  0  0
 27 26  2  0  0  0  0
 28 29  1  0  0  0  0
 29 30  1  0  0  0  0
 30 31  1  0  0  0  0
 32 33  1  0  0  0  0
 34 33  1  0  0  0  0
 34 35  1  0  0  0  0
 36 35  1  6  0  0  0
 36 39  1  0  0  0  0
 36 40  1  0  0  0  0
 38 37  1  1  0  0  0
 39 38  1  0  0  0  0
 40 50  1  6  0  0  0
 40 38  1  0  0  0  0
 41 38  1  6  0  0  0
 42 44  1  0  0  0  0
 42 41  1  0  0  0  0
 42 43  1  1  0  0  0
 44 41  1  0  0  0  0
 44 45  1  1  0  0  0
 46 47  1  0  0  0  0
 47 45  1  0  0  0  0
 49 50  2  0  0  0  0
 50 48  1  0  0  0  0
 51 36  1  0  0  0  0
 52 51  1  0  0  0  0
 53 52  1  0  0  0  0
 54 53  1  0  0  0  0
 55 57  1  0  0  0  0
 55 59  1  0  0  0  0
 56 58  1  0  0  0  0
 56 54  1  0  0  0  0
 57 56  1  0  0  0  0
 59 58  1  0  0  0  0
M  END
>  <MODEL>
2

>  <REMARK>
 VINA RESULT:      -1.2      2.712      5.840
  Name = 
  28 active torsions:
  status: ('A' for Active; 'I' for Inactive)
    1  A    between atoms: C_5  and  C_19
    2  A    between atoms: C_6  and  C_10
    3  A    between atoms: C_7  and  C_26
    4  A    between atoms: C_7  and  C_42
    5  A    between atoms: C_9  and  C_13
    6  A    between atoms: C_9  and  C_49
    7  A    between atoms: C_10  and  C_32
    8  A    between atoms: C_12  and  C_38
    9  A    between atoms: C_12  and  C_52
   10  A    between atoms: C_13  and  C_47
   11  A    between atoms: N_14  and  C_46
   12  A    between atoms: O_16  and  C_20
   13  A    between atoms: C_19  and  C_41
   14  A    between atoms: C_20  and  C_24
   15  A    between atoms: C_21  and  C_25
   16  A    between atoms: C_21  and  C_26
   17  A    between atoms: C_21  and  C_56
   18  A    between atoms: C_24  and  C_35
   19  A    between atoms: C_27  and  C_44
   20  A    between atoms: C_28  and  C_46
   21  A    between atoms: C_28  and  O_57
   22  A    between atoms: C_32  and  C_49
   23  A    between atoms: C_35  and  O_37
   24  A    between atoms: C_35  and  C_51
   25  A    between atoms: O_37  and  C_56
   26  A    between atoms: C_41  and  C_51
   27  A    between atoms: C_47  and  O_57
   28  A    between atoms: C_58  and  C_59
                            x       y       z     vdW  Elec       q    Type
                         _______ _______ _______ _____ _____    ______ ____

>  <TORSDO>
F 28

$$$$
=
 OpenBabel11072413393D

 59 62  0  0  1  0  0  0  0  0999 V2000
  160.9580  206.0870  154.5480 F   0  0  0  0  0  0  0  0  0  0  0  0
  161.1210  205.0360  152.4500 C   0  0  0  0  0  0  0  0  0  0  0  0
  161.6830  205.8180  150.1000 C   0  0  0  0  0  0  0  0  0  0  0  0
  161.7290  207.4820  152.7340 C   0  0  1  0  0  3  0  0  0  0  0  0
  161.4230  205.2020  151.2070 C   0  0  0  0  0  0  0  0  0  0  0  0
  161.3990  208.2080  148.6570 Cl  0  0  0  0  0  0  0  0  0  0  0  0
  159.4750  206.6500  152.9500 F   0  0  0  0  0  0  0  0  0  0  0  0
  161.4280  203.8820  153.0950 F   0  0  0  0  0  0  0  0  0  0  0  0
  160.7970  206.3120  153.1900 C   0  0  0  0  0  0  0  0  0  0  0  0
  161.5650  207.3030  150.1530 C   0  0  0  0  0  0  0  0  0  0  0  0
  161.5380  208.0110  151.3080 C   0  0  0  0  0  3  0  0  0  0  0  0
  161.8590  205.0710  148.8210 C   0  0  0  0  0  2  0  0  0  0  0  0
  162.4900  205.9600  147.7550 C   0  0  0  0  0  2  0  0  0  0  0  0
  163.0150  206.1340  145.4000 O   0  0  0  0  0  1  0  0  0  0  0  0
  162.5610  205.2650  146.3930 C   0  0  2  0  0  3  0  0  0  0  0  0
  161.2540  204.5810  145.9640 C   0  0  1  0  0  3  0  0  0  0  0  0
  160.6670  205.2140  144.6990 C   0  0  1  0  0  3  0  0  0  0  0  0
  160.1910  206.4880  144.9960 O   0  0  0  0  0  1  0  0  0  0  0  0
  161.7090  205.3270  143.5990 C   0  0  0  0  0  2  0  0  0  0  0  0
  161.1050  205.7440  142.4140 O   0  0  0  0  0  0  0  0  0  0  0  0
  162.0670  206.5360  141.7850 C   0  0  0  0  0  1  0  0  0  0  0  0
  161.4390  203.2030  145.7670 O   0  0  0  0  0  0  0  0  0  0  0  0
  160.5100  202.5750  146.6050 C   0  0  0  0  0  2  0  0  0  0  0  0
  161.1790  201.4440  147.3820 C   0  0  1  0  0  3  0  0  0  0  0  0
  160.1650  202.4940  149.2710 O   0  0  0  0  0  0  0  0  0  0  0  0
  160.8610  201.5320  148.8380 C   0  0  0  0  0  0  0  0  0  0  0  0
  161.3290  200.5740  149.7290 O   0  0  0  0  0  1  0  0  0  0  0  0
  160.7440  200.0990  146.8280 C   0  0  0  0  0  2  0  0  0  0  0  0
  160.8740  200.0830  145.3150 C   0  0  0  0  0  2  0  0  0  0  0  0
  161.1470  198.6770  144.8090 C   0  0  0  0  0  2  0  0  0  0  0  0
  161.5780  197.7720  145.9450 C   0  0  0  0  0  1  0  0  0  0  0  0
  161.7930  208.6210  153.7540 C   0  0  0  0  0  2  0  0  0  0  0  0
  160.4230  209.1770  154.1340 C   0  0  0  0  0  2  0  0  0  0  0  0
  159.6850  209.6800  152.9060 C   0  0  0  0  0  2  0  0  0  0  0  0
  160.5170  210.7310  152.1820 C   0  0  0  0  0  2  0  0  0  0  0  0
  159.9480  212.1410  152.3630 C   0  0  2  0  0  0  0  0  0  0  0  0
  158.2210  214.4500  151.1880 O   0  0  0  0  0  1  0  0  0  0  0  0
  158.8080  213.2170  150.8690 C   0  0  2  0  0  0  0  0  0  0  0  0
  158.4840  212.1760  151.9320 C   0  0  0  0  0  2  0  0  0  0  0  0
  160.2870  213.1930  151.2900 C   0  0  2  0  0  3  0  0  0  0  0  0
  158.4750  212.6970  149.4560 C   0  0  1  0  0  3  0  0  0  0  0  0
  157.5740  213.6520  148.6940 C   0  0  2  0  0  3  0  0  0  0  0  0
  156.4800  212.6910  147.5930 S   0  0  0  0  0  1  0  0  0  0  0  0
  159.0770  213.5730  148.3740 C   0  0  2  0  0  3  0  0  0  0  0  0
  159.4490  212.7170  147.1710 C   0  0  0  0  0  2  0  0  0  0  0  0
  161.2570  213.8920  146.1660 O   0  0  0  0  0  1  0  0  0  0  0  0
  159.8970  213.6200  146.0390 C   0  0  0  0  0  2  0  0  0  0  0  0
  161.7680  213.6740  149.4780 O   0  0  0  0  0  0  0  0  0  0  0  0
  161.6870  211.4670  150.0690 O   0  0  0  0  0  1  0  0  0  0  0  0
  161.2850  212.7900  150.2290 C   0  0  0  0  0  0  0  0  0  0  0  0
  160.1300  212.6560  153.7960 C   0  0  0  0  0  2  0  0  0  0  0  0
  159.4540  211.8490  154.7200 O   0  0  0  0  0  0  0  0  0  0  0  0
  158.6460  212.7300  155.4480 C   0  0  0  0  0  2  0  0  0  0  0  0
  157.7290  211.9490  156.3850 C   0  0  0  0  0  2  0  0  0  0  0  0
  155.4700  214.4510  155.3080 C   0  0  0  0  0  2  0  0  0  0  0  0
  156.4170  212.5800  156.4410 N   0  0  0  0  0  0  0  0  0  0  0  0
  156.6120  213.9970  156.1770 C   0  0  0  0  0  2  0  0  0  0  0  0
  155.6400  212.0580  155.3190 C   0  0  0  0  0  2  0  0  0  0  0  0
  155.0730  213.2260  154.5230 C   0  0  0  0  0  2  0  0  0  0  0  0
  2  8  1  0  0  0  0
  2  9  1  0  0  0  0
  3 10  1  0  0  0  0
  3  5  2  0  0  0  0
  4  9  1  0  0  0  0
  4 32  1  1  0  0  0
  5  2  2  0  0  0  0
  6 10  1  0  0  0  0
  7  9  1  0  0  0  0
  9  1  1  0  0  0  0
 10 11  2  0  0  0  0
 11  4  1  0  0  0  0
 12  3  1  0  0  0  0
 13 12  1  0  0  0  0
 15 14  1  6  0  0  0
 15 13  1  0  0  0  0
 16 22  1  6  0  0  0
 16 15  1  0  0  0  0
 17 18  1  1  0  0  0
 17 16  1  0  0  0  0
 19 17  1  0  0  0  0
 20 19  1  0  0  0  0
 21 20  1  0  0  0  0
 22 23  1  0  0  0  0
 24 23  1  6  0  0  0
 24 26  1  0  0  0  0
 26 25  2  0  0  0  0
 26 27  1  0  0  0  0
 28 24  1  0  0  0  0
 29 28  1  0  0  0  0
 30 29  1  0  0  0  0
 30 31  1  0  0  0  0
 32 33  1  0  0  0  0
 34 33  1  0  0  0  0
 35 34  1  0  0  0  0
 36 35  1  6  0  0  0
 36 51  1  0  0  0  0
 38 37  1  1  0  0  0
 38 40  1  0  0  0  0
 38 39  1  0  0  0  0
 39 36  1  0  0  0  0
 40 50  1  6  0  0  0
 40 36  1  0  0  0  0
 41 38  1  1  0  0  0
 42 43  1  6  0  0  0
 42 41  1  0  0  0  0
 44 45  1  6  0  0  0
 44 42  1  0  0  0  0
 44 41  1  0  0  0  0
 47 46  1  0  0  0  0
 47 45  1  0  0  0  0
 48 50  2  0  0  0  0
 49 50  1  0  0  0  0
 51 52  1  0  0  0  0
 52 53  1  0  0  0  0
 53 54  1  0  0  0  0
 54 56  1  0  0  0  0
 55 57  1  0  0  0  0
 57 56  1  0  0  0  0
 58 56  1  0  0  0  0
 59 55  1  0  0  0  0
 59 58  1  0  0  0  0
M  END
>  <MODEL>
3

>  <REMARK>
 VINA RESULT:       0.1      2.056      4.314
  Name = 
  28 active torsions:
  status: ('A' for Active; 'I' for Inactive)
    1  A    between atoms: C_5  and  C_19
    2  A    between atoms: C_6  and  C_10
    3  A    between atoms: C_7  and  C_26
    4  A    between atoms: C_7  and  C_42
    5  A    between atoms: C_9  and  C_13
    6  A    between atoms: C_9  and  C_49
    7  A    between atoms: C_10  and  C_32
    8  A    between atoms: C_12  and  C_38
    9  A    between atoms: C_12  and  C_52
   10  A    between atoms: C_13  and  C_47
   11  A    between atoms: N_14  and  C_46
   12  A    between atoms: O_16  and  C_20
   13  A    between atoms: C_19  and  C_41
   14  A    between atoms: C_20  and  C_24
   15  A    between atoms: C_21  and  C_25
   16  A    between atoms: C_21  and  C_26
   17  A    between atoms: C_21  and  C_56
   18  A    between atoms: C_24  and  C_35
   19  A    between atoms: C_27  and  C_44
   20  A    between atoms: C_28  and  C_46
   21  A    between atoms: C_28  and  O_57
   22  A    between atoms: C_32  and  C_49
   23  A    between atoms: C_35  and  O_37
   24  A    between atoms: C_35  and  C_51
   25  A    between atoms: O_37  and  C_56
   26  A    between atoms: C_41  and  C_51
   27  A    between atoms: C_47  and  O_57
   28  A    between atoms: C_58  and  C_59
                            x       y       z     vdW  Elec       q    Type
                         _______ _______ _______ _____ _____    ______ ____

>  <TORSDO>
F 28

$$$$
=
 OpenBabel11072413393D

 59 62  0  0  1  0  0  0  0  0999 V2000
  159.7040  205.0320  151.2490 F   0  0  0  0  0  0  0  0  0  0  0  0
  161.0610  205.0320  149.3280 C   0  0  0  0  0  0  0  0  0  0  0  0
  162.5280  206.7580  148.1790 C   0  0  0  0  0  0  0  0  0  0  0  0
  160.9720  207.0500  150.8620 C   0  0  1  0  0  3  0  0  0  0  0  0
  161.8880  205.7250  148.6210 C   0  0  0  0  0  0  0  0  0  0  0  0
  162.5250  209.5530  147.9330 Cl  0  0  0  0  0  0  0  0  0  0  0  0
  159.1030  206.3350  149.5140 F   0  0  0  0  0  0  0  0  0  0  0  0
  161.2320  203.6970  149.4950 F   0  0  0  0  0  0  0  0  0  0  0  0
  160.1810  205.8530  150.2400 C   0  0  0  0  0  0  0  0  0  0  0  0
  162.1160  208.0630  148.7690 C   0  0  0  0  0  0  0  0  0  0  0  0
  161.3980  208.1750  149.9120 C   0  0  0  0  0  3  0  0  0  0  0  0
  163.4410  206.6590  147.0030 C   0  0  0  0  0  2  0  0  0  0  0  0
  163.5910  205.2110  146.5520 C   0  0  0  0  0  2  0  0  0  0  0  0
  162.3390  205.9780  144.6290 O   0  0  0  0  0  1  0  0  0  0  0  0
  162.6330  204.8600  145.4110 C   0  0  2  0  0  3  0  0  0  0  0  0
  161.3450  204.1560  145.8620 C   0  0  1  0  0  3  0  0  0  0  0  0
  160.0970  204.8020  145.2530 C   0  0  1  0  0  3  0  0  0  0  0  0
  160.2410  206.1870  145.2600 O   0  0  0  0  0  1  0  0  0  0  0  0
  159.8760  204.3430  143.8210 C   0  0  0  0  0  2  0  0  0  0  0  0
  158.8720  203.3780  143.7810 O   0  0  0  0  0  0  0  0  0  0  0  0
  157.7220  204.0430  144.2070 C   0  0  0  0  0  1  0  0  0  0  0  0
  161.3730  202.7870  145.5500 O   0  0  0  0  0  0  0  0  0  0  0  0
  161.6780  202.1340  146.7500 C   0  0  0  0  0  2  0  0  0  0  0  0
  160.7090  200.9780  146.9840 C   0  0  1  0  0  3  0  0  0  0  0  0
  161.2110  198.9450  145.8380 O   0  0  0  0  0  1  0  0  0  0  0  0
  160.6500  200.0770  145.7950 C   0  0  0  0  0  0  0  0  0  0  0  0
  159.9960  200.4710  144.6340 O   0  0  0  0  0  0  0  0  0  0  0  0
  161.1190  200.1940  148.2190 C   0  0  0  0  0  2  0  0  0  0  0  0
  161.6270  201.1340  149.2980 C   0  0  0  0  0  2  0  0  0  0  0  0
  160.8950  200.9010  150.6090 C   0  0  0  0  0  2  0  0  0  0  0  0
  161.1090  202.0630  151.5570 C   0  0  0  0  0  1  0  0  0  0  0  0
  160.3130  207.6010  152.1290 C   0  0  0  0  0  2  0  0  0  0  0  0
  161.3130  208.1350  153.1520 C   0  0  0  0  0  2  0  0  0  0  0  0
  161.4050  209.6480  153.0790 C   0  0  0  0  0  2  0  0  0  0  0  0
  160.0750  210.2390  152.6260 C   0  0  0  0  0  2  0  0  0  0  0  0
  159.8920  211.6810  153.1070 C   0  0  2  0  0  0  0  0  0  0  0  0
  158.5360  214.4480  152.6670 O   0  0  0  0  0  1  0  0  0  0  0  0
  158.7470  213.1970  152.0700 C   0  0  2  0  0  0  0  0  0  0  0  0
  158.4190  212.0730  153.0440 C   0  0  0  0  0  2  0  0  0  0  0  0
  160.2350  212.8130  152.1220 C   0  0  2  0  0  3  0  0  0  0  0  0
  158.0200  212.9990  150.7250 C   0  0  1  0  0  3  0  0  0  0  0  0
  157.1860  214.2100  150.3430 C   0  0  2  0  0  3  0  0  0  0  0  0
  155.7100  213.6520  149.4240 S   0  0  0  0  0  1  0  0  0  0  0  0
  158.5370  213.9460  149.6570 C   0  0  2  0  0  3  0  0  0  0  0  0
  158.4630  213.2720  148.2950 C   0  0  0  0  0  2  0  0  0  0  0  0
  160.6770  213.1140  147.4400 O   0  0  0  0  0  1  0  0  0  0  0  0
  159.5120  213.8760  147.3830 C   0  0  0  0  0  2  0  0  0  0  0  0
  160.8620  211.1990  150.4740 O   0  0  0  0  0  1  0  0  0  0  0  0
  161.4670  213.3460  149.9700 O   0  0  0  0  0  0  0  0  0  0  0  0
  160.8740  212.4100  150.8130 C   0  0  0  0  0  0  0  0  0  0  0  0
  160.4790  211.8990  154.5080 C   0  0  0  0  0  2  0  0  0  0  0  0
  159.7380  212.8400  155.2330 O   0  0  0  0  0  0  0  0  0  0  0  0
  159.4280  212.2060  156.4420 C   0  0  0  0  0  2  0  0  0  0  0  0
  158.3170  212.9620  157.1630 C   0  0  0  0  0  2  0  0  0  0  0  0
  154.9100  212.0140  157.0130 C   0  0  0  0  0  2  0  0  0  0  0  0
  157.0670  212.8380  156.4230 N   0  0  0  0  0  0  0  0  0  0  0  0
  156.3740  211.6720  156.9450 C   0  0  0  0  0  2  0  0  0  0  0  0
  156.2440  213.9940  156.7730 C   0  0  0  0  0  2  0  0  0  0  0  0
  154.8740  213.5070  157.2260 C   0  0  0  0  0  2  0  0  0  0  0  0
  2  8  1  0  0  0  0
  2  9  1  0  0  0  0
  3  5  2  0  0  0  0
  3 10  1  0  0  0  0
  4 32  1  1  0  0  0
  5  2  2  0  0  0  0
  6 10  1  0  0  0  0
  7  9  1  0  0  0  0
  9  4  1  0  0  0  0
  9  1  1  0  0  0  0
 10 11  2  0  0  0  0
 11  4  1  0  0  0  0
 12  3  1  0  0  0  0
 13 12  1  0  0  0  0
 15 14  1  1  0  0  0
 15 16  1  0  0  0  0
 15 13  1  0  0  0  0
 16 22  1  6  0  0  0
 17 18  1  6  0  0  0
 17 16  1  0  0  0  0
 19 17  1  0  0  0  0
 20 19  1  0  0  0  0
 20 21  1  0  0  0  0
 22 23  1  0  0  0  0
 24 23  1  6  0  0  0
 24 28  1  0  0  0  0
 26 25  1  0  0  0  0
 26 24  1  0  0  0  0
 27 26  2  0  0  0  0
 28 29  1  0  0  0  0
 29 30  1  0  0  0  0
 30 31  1  0  0  0  0
 32 33  1  0  0  0  0
 34 33  1  0  0  0  0
 35 34  1  0  0  0  0
 36 35  1  6  0  0  0
 36 51  1  0  0  0  0
 38 40  1  0  0  0  0
 38 37  1  1  0  0  0
 38 39  1  0  0  0  0
 39 36  1  0  0  0  0
 40 50  1  6  0  0  0
 40 36  1  0  0  0  0
 41 38  1  1  0  0  0
 42 43  1  6  0  0  0
 42 41  1  0  0  0  0
 44 45  1  6  0  0  0
 44 42  1  0  0  0  0
 44 41  1  0  0  0  0
 47 46  1  0  0  0  0
 47 45  1  0  0  0  0
 48 50  1  0  0  0  0
 49 50  2  0  0  0  0
 51 52  1  0  0  0  0
 52 53  1  0  0  0  0
 53 54  1  0  0  0  0
 55 59  1  0  0  0  0
 56 58  1  0  0  0  0
 56 57  1  0  0  0  0
 56 54  1  0  0  0  0
 57 55  1  0  0  0  0
 58 59  1  0  0  0  0
M  END
>  <MODEL>
4

>  <REMARK>
 VINA RESULT:       0.2      1.938      3.885
  Name = 
  28 active torsions:
  status: ('A' for Active; 'I' for Inactive)
    1  A    between atoms: C_5  and  C_19
    2  A    between atoms: C_6  and  C_10
    3  A    between atoms: C_7  and  C_26
    4  A    between atoms: C_7  and  C_42
    5  A    between atoms: C_9  and  C_13
    6  A    between atoms: C_9  and  C_49
    7  A    between atoms: C_10  and  C_32
    8  A    between atoms: C_12  and  C_38
    9  A    between atoms: C_12  and  C_52
   10  A    between atoms: C_13  and  C_47
   11  A    between atoms: N_14  and  C_46
   12  A    between atoms: O_16  and  C_20
   13  A    between atoms: C_19  and  C_41
   14  A    between atoms: C_20  and  C_24
   15  A    between atoms: C_21  and  C_25
   16  A    between atoms: C_21  and  C_26
   17  A    between atoms: C_21  and  C_56
   18  A    between atoms: C_24  and  C_35
   19  A    between atoms: C_27  and  C_44
   20  A    between atoms: C_28  and  C_46
   21  A    between atoms: C_28  and  O_57
   22  A    between atoms: C_32  and  C_49
   23  A    between atoms: C_35  and  O_37
   24  A    between atoms: C_35  and  C_51
   25  A    between atoms: O_37  and  C_56
   26  A    between atoms: C_41  and  C_51
   27  A    between atoms: C_47  and  O_57
   28  A    between atoms: C_58  and  C_59
                            x       y       z     vdW  Elec       q    Type
                         _______ _______ _______ _____ _____    ______ ____

>  <TORSDO>
F 28

$$$$
