=
 OpenBabel11072410193D

 33 34  0  0  1  0  0  0  0  0999 V2000
  161.2890  206.4640  152.2900 C   0  0  0  0  0  3  0  0  0  0  0  0
  161.9750  208.7980  152.0970 C   0  0  0  0  0  0  0  0  0  0  0  0
  160.8750  207.9820  154.1150 C   0  0  0  0  0  3  0  0  0  0  0  0
  161.4710  209.0280  153.4030 C   0  0  0  0  0  0  0  0  0  0  0  0
  160.7930  206.7050  153.5680 C   0  0  0  0  0  3  0  0  0  0  0  0
  161.8610  207.4950  151.5390 C   0  0  0  0  0  0  0  0  0  0  0  0
  161.5400  210.3490  154.0630 C   0  0  0  0  0  0  0  0  0  0  0  0
  162.5680  210.6430  154.7310 O   0  0  0  0  0  0  0  0  0  0  0  0
  158.6660  212.3570  152.5380 C   0  0  0  0  0  0  0  0  0  0  0  0
  158.1460  212.5510  151.4080 O   0  0  0  0  0  0  0  0  0  0  0  0
  160.1730  212.1520  154.8950 N   0  0  0  0  0  0  0  0  0  0  0  0
  160.4670  211.3510  153.9130 C   0  0  0  0  0  0  0  0  0  0  0  0
  158.1080  213.0310  153.7560 C   0  0  2  0  0  3  0  0  0  0  0  0
  159.7610  211.4520  152.6720 N   0  0  0  0  0  2  0  0  0  0  0  0
  159.1370  213.0990  154.7950 N   0  0  0  0  0  2  0  0  0  0  0  0
  155.6350  212.9790  154.3250 N   0  0  0  0  0  2  0  0  0  0  0  0
  157.0370  211.2120  154.9390 N   0  0  0  0  0  1  0  0  0  0  0  0
  156.8920  212.3100  154.2740 C   0  0  0  0  0  0  0  0  0  0  0  0
  162.5790  209.9320  151.3570 C   0  0  0  0  0  3  0  0  0  0  0  0
  162.0030  210.5150  150.4020 O   0  0  0  0  0  0  0  0  0  0  0  0
  162.3350  207.1580  150.1530 C   0  0  0  0  0  2  0  0  0  0  0  0
  161.3020  208.3090  148.3760 F   0  0  0  0  0  0  0  0  0  0  0  0
  161.2200  207.1260  149.0910 C   0  0  0  0  0  0  0  0  0  0  0  0
  159.9770  207.1090  149.7040 F   0  0  0  0  0  0  0  0  0  0  0  0
  162.6170  205.9340  147.5280 F   0  0  0  0  0  0  0  0  0  0  0  0
  161.3480  205.9280  148.1050 C   0  0  2  0  0  0  0  0  0  0  0  0
  160.9200  206.1340  145.8420 C   0  0  0  0  0  1  0  0  0  0  0  0
  160.3400  205.9710  147.1110 O   0  0  0  0  0  0  0  0  0  0  0  0
  161.1770  204.5960  148.8470 C   0  0  0  0  0  2  0  0  0  0  0  0
  161.4560  203.3850  147.9670 C   0  0  0  0  0  2  0  0  0  0  0  0
  161.2040  200.9080  148.0790 O   0  0  0  0  0  0  0  0  0  0  0  0
  160.1710  202.2550  149.6210 O   0  0  0  0  0  1  0  0  0  0  0  0
  160.9130  202.1580  148.6100 C   0  0  0  0  0  0  0  0  0  0  0  0
  1  5  1  0  0  0  0
  2  4  2  0  0  0  0
  4  7  1  0  0  0  0
  4  3  1  0  0  0  0
  5  3  2  0  0  0  0
  6  2  1  0  0  0  0
  6  1  2  0  0  0  0
  7  8  2  0  0  0  0
  9 14  1  0  0  0  0
  9 13  1  0  0  0  0
 10  9  2  0  0  0  0
 12  7  1  0  0  0  0
 12 11  2  0  0  0  0
 13 18  1  1  0  0  0
 13 15  1  0  0  0  0
 14 12  1  0  0  0  0
 15 11  1  0  0  0  0
 18 16  2  0  0  0  0
 18 17  1  0  0  0  0
 19  2  1  0  0  0  0
 20 19  2  0  0  0  0
 21  6  1  0  0  0  0
 22 23  1  0  0  0  0
 23 24  1  0  0  0  0
 23 21  1  0  0  0  0
 26 25  1  6  0  0  0
 26 29  1  0  0  0  0
 26 23  1  0  0  0  0
 27 28  1  0  0  0  0
 28 26  1  0  0  0  0
 30 33  1  0  0  0  0
 30 29  1  0  0  0  0
 31 33  2  0  0  0  0
 33 32  1  0  0  0  0
M  END
>  <MODEL>
1

>  <REMARK>
 VINA RESULT:      -7.4      0.000      0.000
  Name = 
  11 active torsions:
  status: ('A' for Active; 'I' for Inactive)
    1  A    between atoms: C_5  and  C_25
    2  A    between atoms: C_9  and  C_14
    3  A    between atoms: C_9  and  C_28
    4  A    between atoms: C_11  and  C_19
    5  A    between atoms: C_11  and  C_32
    6  A    between atoms: C_14  and  C_33
    7  A    between atoms: C_15  and  C_22
    8  A    between atoms: C_18  and  C_24
    9  A    between atoms: C_19  and  C_28
   10  A    between atoms: O_21  and  C_28
   11  A    between atoms: C_23  and  C_24
                            x       y       z     vdW  Elec       q    Type
                         _______ _______ _______ _____ _____    ______ ____

>  <TORSDO>
F 11

$$$$
=
 OpenBabel11072410193D

 33 34  0  0  1  0  0  0  0  0999 V2000
  161.0730  205.0350  152.2630 C   0  0  0  0  0  3  0  0  0  0  0  0
  161.6600  207.0630  151.0400 C   0  0  0  0  0  0  0  0  0  0  0  0
  160.8470  205.0870  149.8640 C   0  0  0  0  0  3  0  0  0  0  0  0
  161.2960  206.4110  149.8330 C   0  0  0  0  0  0  0  0  0  0  0  0
  160.7250  204.4050  151.0720 C   0  0  0  0  0  3  0  0  0  0  0  0
  161.5570  206.3470  152.2640 C   0  0  0  0  0  0  0  0  0  0  0  0
  161.3750  207.0730  148.5140 C   0  0  0  0  0  0  0  0  0  0  0  0
  161.4130  208.3320  148.4660 O   0  0  0  0  0  0  0  0  0  0  0  0
  162.7470  204.7620  145.7950 C   0  0  0  0  0  0  0  0  0  0  0  0
  163.8470  204.2510  145.4570 O   0  0  0  0  0  0  0  0  0  0  0  0
  160.4770  206.2860  146.4200 N   0  0  0  0  0  0  0  0  0  0  0  0
  161.4700  206.3010  147.2600 C   0  0  0  0  0  0  0  0  0  0  0  0
  161.5030  204.4720  145.0080 C   0  0  2  0  0  3  0  0  0  0  0  0
  162.6700  205.5810  146.9610 N   0  0  0  0  0  2  0  0  0  0  0  0
  160.5240  205.5380  145.2290 N   0  0  0  0  0  2  0  0  0  0  0  0
  159.8620  202.5790  144.6030 N   0  0  0  0  0  2  0  0  0  0  0  0
  161.1450  202.6470  146.5560 N   0  0  0  0  0  1  0  0  0  0  0  0
  160.9150  203.1380  145.3840 C   0  0  0  0  0  0  0  0  0  0  0  0
  162.1560  208.4590  150.9730 C   0  0  0  0  0  3  0  0  0  0  0  0
  161.4900  209.4460  151.3820 O   0  0  0  0  0  0  0  0  0  0  0  0
  161.9470  206.9370  153.5890 C   0  0  0  0  0  2  0  0  0  0  0  0
  160.1930  206.7030  155.1440 F   0  0  0  0  0  0  0  0  0  0  0  0
  160.7980  207.6470  154.3300 C   0  0  0  0  0  0  0  0  0  0  0  0
  159.8400  208.0770  153.4270 F   0  0  0  0  0  0  0  0  0  0  0  0
  162.1680  209.6260  154.4790 F   0  0  0  0  0  0  0  0  0  0  0  0
  161.2800  208.8380  155.2090 C   0  0  2  0  0  0  0  0  0  0  0  0
  162.4730  209.4560  157.0910 C   0  0  0  0  0  1  0  0  0  0  0  0
  161.8790  208.3810  156.4090 O   0  0  0  0  0  0  0  0  0  0  0  0
  160.0960  209.7220  155.6190 C   0  0  0  0  0  2  0  0  0  0  0  0
  160.1120  211.0880  154.9470 C   0  0  0  0  0  2  0  0  0  0  0  0
  158.9000  211.0350  152.7700 O   0  0  0  0  0  0  0  0  0  0  0  0
  157.8150  211.6550  154.6930 O   0  0  0  0  0  1  0  0  0  0  0  0
  158.8760  211.2690  154.1390 C   0  0  0  0  0  0  0  0  0  0  0  0
  1  6  1  0  0  0  0
  2  6  2  0  0  0  0
  3  5  1  0  0  0  0
  4  3  2  0  0  0  0
  4  2  1  0  0  0  0
  5  1  2  0  0  0  0
  6 21  1  0  0  0  0
  7  4  1  0  0  0  0
  8  7  2  0  0  0  0
  9 14  1  0  0  0  0
 10  9  2  0  0  0  0
 11 12  2  0  0  0  0
 12  7  1  0  0  0  0
 13 15  1  0  0  0  0
 13 18  1  1  0  0  0
 13  9  1  0  0  0  0
 14 12  1  0  0  0  0
 15 11  1  0  0  0  0
 16 18  2  0  0  0  0
 18 17  1  0  0  0  0
 19  2  1  0  0  0  0
 19 20  2  0  0  0  0
 21 23  1  0  0  0  0
 23 22  1  0  0  0  0
 23 26  1  0  0  0  0
 24 23  1  0  0  0  0
 26 25  1  6  0  0  0
 26 29  1  0  0  0  0
 26 28  1  0  0  0  0
 28 27  1  0  0  0  0
 30 29  1  0  0  0  0
 31 33  2  0  0  0  0
 33 32  1  0  0  0  0
 33 30  1  0  0  0  0
M  END
>  <MODEL>
2

>  <REMARK>
 VINA RESULT:      -7.3      4.779      8.791
  Name = 
  11 active torsions:
  status: ('A' for Active; 'I' for Inactive)
    1  A    between atoms: C_5  and  C_25
    2  A    between atoms: C_9  and  C_14
    3  A    between atoms: C_9  and  C_28
    4  A    between atoms: C_11  and  C_19
    5  A    between atoms: C_11  and  C_32
    6  A    between atoms: C_14  and  C_33
    7  A    between atoms: C_15  and  C_22
    8  A    between atoms: C_18  and  C_24
    9  A    between atoms: C_19  and  C_28
   10  A    between atoms: O_21  and  C_28
   11  A    between atoms: C_23  and  C_24
                            x       y       z     vdW  Elec       q    Type
                         _______ _______ _______ _____ _____    ______ ____

>  <TORSDO>
F 11

$$$$
=
 OpenBabel11072410193D

 33 34  0  0  1  0  0  0  0  0999 V2000
  161.5030  208.1870  149.1760 C   0  0  0  0  0  3  0  0  0  0  0  0
  161.0630  206.4960  150.8790 C   0  0  0  0  0  0  0  0  0  0  0  0
  161.9770  208.6730  151.4880 C   0  0  0  0  0  3  0  0  0  0  0  0
  161.5240  207.4050  151.8660 C   0  0  0  0  0  0  0  0  0  0  0  0
  161.9580  209.0670  150.1530 C   0  0  0  0  0  3  0  0  0  0  0  0
  161.0740  206.9000  149.5160 C   0  0  0  0  0  0  0  0  0  0  0  0
  161.5550  207.0720  153.3050 C   0  0  0  0  0  0  0  0  0  0  0  0
  162.0810  205.9850  153.6680 O   0  0  0  0  0  0  0  0  0  0  0  0
  161.1260  210.2190  155.4320 C   0  0  0  0  0  0  0  0  0  0  0  0
  161.7580  211.2770  155.6910 O   0  0  0  0  0  0  0  0  0  0  0  0
  160.0390  207.6570  155.0860 N   0  0  0  0  0  0  0  0  0  0  0  0
  161.0410  208.0000  154.3300 C   0  0  0  0  0  0  0  0  0  0  0  0
  159.7840  209.9660  156.0540 C   0  0  2  0  0  3  0  0  0  0  0  0
  161.6620  209.2770  154.5050 N   0  0  0  0  0  2  0  0  0  0  0  0
  159.5060  208.5290  156.0540 N   0  0  0  0  0  2  0  0  0  0  0  0
  158.9060  211.1550  153.9910 N   0  0  0  0  0  2  0  0  0  0  0  0
  157.7000  211.1950  155.9930 N   0  0  0  0  0  1  0  0  0  0  0  0
  158.6940  210.7080  155.3270 C   0  0  0  0  0  0  0  0  0  0  0  0
  160.6120  205.1500  151.3070 C   0  0  0  0  0  3  0  0  0  0  0  0
  161.3060  204.1100  151.1530 O   0  0  0  0  0  0  0  0  0  0  0  0
  160.6370  206.0000  148.3950 C   0  0  0  0  0  2  0  0  0  0  0  0
  162.6450  206.7950  147.4550 F   0  0  0  0  0  0  0  0  0  0  0  0
  161.4800  206.1270  147.1130 C   0  0  0  0  0  0  0  0  0  0  0  0
  160.8200  206.9140  146.1830 F   0  0  0  0  0  0  0  0  0  0  0  0
  163.1620  204.7930  146.0140 F   0  0  0  0  0  0  0  0  0  0  0  0
  161.8510  204.7520  146.4850 C   0  0  2  0  0  0  0  0  0  0  0  0
  161.3830  204.9480  144.2290 C   0  0  0  0  0  1  0  0  0  0  0  0
  160.9510  204.4010  145.4490 O   0  0  0  0  0  0  0  0  0  0  0  0
  161.7650  203.6370  147.5360 C   0  0  0  0  0  2  0  0  0  0  0  0
  161.0310  202.4010  147.0350 C   0  0  0  0  0  2  0  0  0  0  0  0
  159.8450  201.7660  149.1330 O   0  0  0  0  0  1  0  0  0  0  0  0
  161.4670  200.4050  148.2540 O   0  0  0  0  0  0  0  0  0  0  0  0
  160.7930  201.4630  148.1640 C   0  0  0  0  0  0  0  0  0  0  0  0
  1  6  2  0  0  0  0
  1  5  1  0  0  0  0
  2 19  1  0  0  0  0
  2  4  2  0  0  0  0
  3  4  1  0  0  0  0
  4  7  1  0  0  0  0
  5  3  2  0  0  0  0
  6  2  1  0  0  0  0
  7  8  2  0  0  0  0
  7 12  1  0  0  0  0
  9 10  2  0  0  0  0
  9 13  1  0  0  0  0
 11 15  1  0  0  0  0
 12 14  1  0  0  0  0
 12 11  2  0  0  0  0
 13 18  1  6  0  0  0
 14  9  1  0  0  0  0
 15 13  1  0  0  0  0
 16 18  2  0  0  0  0
 18 17  1  0  0  0  0
 20 19  2  0  0  0  0
 21  6  1  0  0  0  0
 23 22  1  0  0  0  0
 23 21  1  0  0  0  0
 24 23  1  0  0  0  0
 26 25  1  6  0  0  0
 26 23  1  0  0  0  0
 26 29  1  0  0  0  0
 27 28  1  0  0  0  0
 28 26  1  0  0  0  0
 30 29  1  0  0  0  0
 30 33  1  0  0  0  0
 33 32  2  0  0  0  0
 33 31  1  0  0  0  0
M  END
>  <MODEL>
3

>  <REMARK>
 VINA RESULT:      -7.1      2.182      3.411
  Name = 
  11 active torsions:
  status: ('A' for Active; 'I' for Inactive)
    1  A    between atoms: C_5  and  C_25
    2  A    between atoms: C_9  and  C_14
    3  A    between atoms: C_9  and  C_28
    4  A    between atoms: C_11  and  C_19
    5  A    between atoms: C_11  and  C_32
    6  A    between atoms: C_14  and  C_33
    7  A    between atoms: C_15  and  C_22
    8  A    between atoms: C_18  and  C_24
    9  A    between atoms: C_19  and  C_28
   10  A    between atoms: O_21  and  C_28
   11  A    between atoms: C_23  and  C_24
                            x       y       z     vdW  Elec       q    Type
                         _______ _______ _______ _____ _____    ______ ____

>  <TORSDO>
F 11

$$$$
=
 OpenBabel11072410193D

 33 34  0  0  1  0  0  0  0  0999 V2000
  161.2210  206.4980  152.8830 C   0  0  0  0  0  3  0  0  0  0  0  0
  161.9930  208.7930  152.5870 C   0  0  0  0  0  0  0  0  0  0  0  0
  160.7050  208.1530  154.5570 C   0  0  0  0  0  3  0  0  0  0  0  0
  161.3900  209.1300  153.8260 C   0  0  0  0  0  0  0  0  0  0  0  0
  160.6290  206.8420  154.0940 C   0  0  0  0  0  3  0  0  0  0  0  0
  161.8850  207.4570  152.1130 C   0  0  0  0  0  0  0  0  0  0  0  0
  161.4460  210.4920  154.3960 C   0  0  0  0  0  0  0  0  0  0  0  0
  162.4480  210.8240  155.0860 O   0  0  0  0  0  0  0  0  0  0  0  0
  158.6450  212.3980  152.6240 C   0  0  0  0  0  0  0  0  0  0  0  0
  158.1600  212.5030  151.4670 O   0  0  0  0  0  0  0  0  0  0  0  0
  160.0800  212.3740  155.0330 N   0  0  0  0  0  0  0  0  0  0  0  0
  160.3920  211.4900  154.1310 C   0  0  0  0  0  0  0  0  0  0  0  0
  158.0610  213.1780  153.7640 C   0  0  2  0  0  3  0  0  0  0  0  0
  159.7230  211.4950  152.8660 N   0  0  0  0  0  2  0  0  0  0  0  0
  159.0610  213.3210  154.8240 N   0  0  0  0  0  2  0  0  0  0  0  0
  156.8800  211.1730  154.7780 N   0  0  0  0  0  1  0  0  0  0  0  0
  155.6640  213.0390  154.0670 N   0  0  0  0  0  2  0  0  0  0  0  0
  156.8210  212.5160  154.3040 C   0  0  0  0  0  0  0  0  0  0  0  0
  162.6910  209.8550  151.8230 C   0  0  0  0  0  3  0  0  0  0  0  0
  162.1650  210.4650  150.8550 O   0  0  0  0  0  0  0  0  0  0  0  0
  162.4600  207.0100  150.7990 C   0  0  0  0  0  2  0  0  0  0  0  0
  162.3120  208.0140  148.6730 F   0  0  0  0  0  0  0  0  0  0  0  0
  161.5580  207.2900  149.5820 C   0  0  0  0  0  0  0  0  0  0  0  0
  160.4910  208.0910  149.9530 F   0  0  0  0  0  0  0  0  0  0  0  0
  159.7040  206.1560  148.5370 F   0  0  0  0  0  0  0  0  0  0  0  0
  161.0410  205.9930  148.8930 C   0  0  2  0  0  0  0  0  0  0  0  0
  161.0420  203.6830  148.9890 C   0  0  0  0  0  1  0  0  0  0  0  0
  161.2070  204.8640  149.7310 O   0  0  0  0  0  0  0  0  0  0  0  0
  161.8360  205.7080  147.6110 C   0  0  0  0  0  2  0  0  0  0  0  0
  161.0890  206.1070  146.3460 C   0  0  0  0  0  2  0  0  0  0  0  0
  161.8710  203.8850  145.5320 O   0  0  0  0  0  1  0  0  0  0  0  0
  161.3410  205.5500  144.0460 O   0  0  0  0  0  0  0  0  0  0  0  0
  161.4300  205.1700  145.2420 C   0  0  0  0  0  0  0  0  0  0  0  0
  1  5  1  0  0  0  0
  2  4  2  0  0  0  0
  4  7  1  0  0  0  0
  4  3  1  0  0  0  0
  5  3  2  0  0  0  0
  6  2  1  0  0  0  0
  6  1  2  0  0  0  0
  7  8  2  0  0  0  0
  9 14  1  0  0  0  0
  9 13  1  0  0  0  0
 10  9  2  0  0  0  0
 12  7  1  0  0  0  0
 12 11  2  0  0  0  0
 13 18  1  1  0  0  0
 13 15  1  0  0  0  0
 14 12  1  0  0  0  0
 15 11  1  0  0  0  0
 17 18  2  0  0  0  0
 18 16  1  0  0  0  0
 19  2  1  0  0  0  0
 20 19  2  0  0  0  0
 21  6  1  0  0  0  0
 22 23  1  0  0  0  0
 23 24  1  0  0  0  0
 23 21  1  0  0  0  0
 26 25  1  6  0  0  0
 26 23  1  0  0  0  0
 26 28  1  0  0  0  0
 27 28  1  0  0  0  0
 29 26  1  0  0  0  0
 30 29  1  0  0  0  0
 32 33  2  0  0  0  0
 33 31  1  0  0  0  0
 33 30  1  0  0  0  0
M  END
>  <MODEL>
4

>  <REMARK>
 VINA RESULT:      -7.1      1.231      2.099
  Name = 
  11 active torsions:
  status: ('A' for Active; 'I' for Inactive)
    1  A    between atoms: C_5  and  C_25
    2  A    between atoms: C_9  and  C_14
    3  A    between atoms: C_9  and  C_28
    4  A    between atoms: C_11  and  C_19
    5  A    between atoms: C_11  and  C_32
    6  A    between atoms: C_14  and  C_33
    7  A    between atoms: C_15  and  C_22
    8  A    between atoms: C_18  and  C_24
    9  A    between atoms: C_19  and  C_28
   10  A    between atoms: O_21  and  C_28
   11  A    between atoms: C_23  and  C_24
                            x       y       z     vdW  Elec       q    Type
                         _______ _______ _______ _____ _____    ______ ____

>  <TORSDO>
F 11

$$$$
=
 OpenBabel11072410193D

 33 34  0  0  1  0  0  0  0  0999 V2000
  161.2050  205.5460  153.3080 C   0  0  0  0  0  3  0  0  0  0  0  0
  161.8370  207.2160  151.6440 C   0  0  0  0  0  0  0  0  0  0  0  0
  161.0630  207.8870  153.8570 C   0  0  0  0  0  3  0  0  0  0  0  0
  161.5360  208.2330  152.5870 C   0  0  0  0  0  0  0  0  0  0  0  0
  160.9080  206.5530  154.2210 C   0  0  0  0  0  3  0  0  0  0  0  0
  161.6490  205.8570  152.0180 C   0  0  0  0  0  0  0  0  0  0  0  0
  161.6950  209.6710  152.2860 C   0  0  0  0  0  0  0  0  0  0  0  0
  162.5010  210.0190  151.3820 O   0  0  0  0  0  0  0  0  0  0  0  0
  158.9180  212.1980  153.0020 C   0  0  0  0  0  0  0  0  0  0  0  0
  158.0040  212.7990  152.3780 O   0  0  0  0  0  0  0  0  0  0  0  0
  161.2330  211.1170  154.1590 N   0  0  0  0  0  0  0  0  0  0  0  0
  160.8950  210.7030  152.9730 C   0  0  0  0  0  0  0  0  0  0  0  0
  159.1030  212.4220  154.4740 C   0  0  2  0  0  3  0  0  0  0  0  0
  159.7500  211.2620  152.3200 N   0  0  0  0  0  2  0  0  0  0  0  0
  160.4750  212.0790  154.8530 N   0  0  0  0  0  2  0  0  0  0  0  0
  158.4220  210.2600  155.6160 N   0  0  0  0  0  1  0  0  0  0  0  0
  156.9060  212.0280  155.4090 N   0  0  0  0  0  2  0  0  0  0  0  0
  158.1220  211.6120  155.2800 C   0  0  0  0  0  0  0  0  0  0  0  0
  162.3130  207.6120  150.2970 C   0  0  0  0  0  3  0  0  0  0  0  0
  161.5570  207.6800  149.2930 O   0  0  0  0  0  0  0  0  0  0  0  0
  161.9080  204.7100  151.0830 C   0  0  0  0  0  2  0  0  0  0  0  0
  159.8250  205.2110  150.1040 F   0  0  0  0  0  0  0  0  0  0  0  0
  160.6450  204.1380  150.4140 C   0  0  0  0  0  0  0  0  0  0  0  0
  159.9490  203.3420  151.3100 F   0  0  0  0  0  0  0  0  0  0  0  0
  159.7590  202.8530  148.5750 F   0  0  0  0  0  0  0  0  0  0  0  0
  160.9490  203.3400  149.1130 C   0  0  2  0  0  0  0  0  0  0  0  0
  161.2020  201.0470  149.2770 C   0  0  0  0  0  1  0  0  0  0  0  0
  161.8620  202.2850  149.3580 O   0  0  0  0  0  0  0  0  0  0  0  0
  161.6010  204.2480  148.0610 C   0  0  0  0  0  2  0  0  0  0  0  0
  161.5780  203.6500  146.6610 C   0  0  0  0  0  2  0  0  0  0  0  0
  160.9340  204.6190  144.4580 O   0  0  0  0  0  0  0  0  0  0  0  0
  162.3580  205.7490  145.8560 O   0  0  0  0  0  1  0  0  0  0  0  0
  161.6430  204.7350  145.6470 C   0  0  0  0  0  0  0  0  0  0  0  0
  1  5  1  0  0  0  0
  2  6  1  0  0  0  0
  2  4  2  0  0  0  0
  3  5  2  0  0  0  0
  4  3  1  0  0  0  0
  6  1  2  0  0  0  0
  7  4  1  0  0  0  0
  7 12  1  0  0  0  0
  8  7  2  0  0  0  0
  9 13  1  0  0  0  0
 10  9  2  0  0  0  0
 11 15  1  0  0  0  0
 12 11  2  0  0  0  0
 13 15  1  0  0  0  0
 13 18  1  1  0  0  0
 14 12  1  0  0  0  0
 14  9  1  0  0  0  0
 18 17  2  0  0  0  0
 18 16  1  0  0  0  0
 19  2  1  0  0  0  0
 20 19  2  0  0  0  0
 21  6  1  0  0  0  0
 22 23  1  0  0  0  0
 23 21  1  0  0  0  0
 23 24  1  0  0  0  0
 26 25  1  6  0  0  0
 26 28  1  0  0  0  0
 26 23  1  0  0  0  0
 27 28  1  0  0  0  0
 29 26  1  0  0  0  0
 30 29  1  0  0  0  0
 31 33  2  0  0  0  0
 33 32  1  0  0  0  0
 33 30  1  0  0  0  0
M  END
>  <MODEL>
5

>  <REMARK>
 VINA RESULT:      -7.0      1.772      2.932
  Name = 
  11 active torsions:
  status: ('A' for Active; 'I' for Inactive)
    1  A    between atoms: C_5  and  C_25
    2  A    between atoms: C_9  and  C_14
    3  A    between atoms: C_9  and  C_28
    4  A    between atoms: C_11  and  C_19
    5  A    between atoms: C_11  and  C_32
    6  A    between atoms: C_14  and  C_33
    7  A    between atoms: C_15  and  C_22
    8  A    between atoms: C_18  and  C_24
    9  A    between atoms: C_19  and  C_28
   10  A    between atoms: O_21  and  C_28
   11  A    between atoms: C_23  and  C_24
                            x       y       z     vdW  Elec       q    Type
                         _______ _______ _______ _____ _____    ______ ____

>  <TORSDO>
F 11

$$$$
=
 OpenBabel11072410193D

 33 34  0  0  1  0  0  0  0  0999 V2000
  160.8380  206.6920  152.9770 C   0  0  0  0  0  3  0  0  0  0  0  0
  161.1880  209.1020  153.1280 C   0  0  0  0  0  0  0  0  0  0  0  0
  160.9690  207.7430  155.1410 C   0  0  0  0  0  3  0  0  0  0  0  0
  161.1680  208.9910  154.5430 C   0  0  0  0  0  0  0  0  0  0  0  0
  160.8150  206.5980  154.3650 C   0  0  0  0  0  3  0  0  0  0  0  0
  161.0030  207.9290  152.3460 C   0  0  0  0  0  0  0  0  0  0  0  0
  161.3470  210.1550  155.4360 C   0  0  0  0  0  0  0  0  0  0  0  0
  162.5060  210.4390  155.8420 O   0  0  0  0  0  0  0  0  0  0  0  0
  159.3620  213.2780  156.3950 C   0  0  0  0  0  0  0  0  0  0  0  0
  159.5830  214.4510  156.7950 O   0  0  0  0  0  0  0  0  0  0  0  0
  159.0140  210.5380  155.9080 N   0  0  0  0  0  0  0  0  0  0  0  0
  160.2170  211.0240  155.8180 C   0  0  0  0  0  0  0  0  0  0  0  0
  157.9560  212.8070  156.1690 C   0  0  2  0  0  3  0  0  0  0  0  0
  160.4530  212.4050  156.1080 N   0  0  0  0  0  2  0  0  0  0  0  0
  157.9100  211.3450  156.2410 N   0  0  0  0  0  2  0  0  0  0  0  0
  156.4450  214.3120  154.7930 N   0  0  0  0  0  1  0  0  0  0  0  0
  157.6260  212.5650  153.7840 N   0  0  0  0  0  2  0  0  0  0  0  0
  157.4260  213.2800  154.8410 C   0  0  0  0  0  0  0  0  0  0  0  0
  161.3780  210.4420  152.5220 C   0  0  0  0  0  3  0  0  0  0  0  0
  160.4260  211.2320  152.2870 O   0  0  0  0  0  0  0  0  0  0  0  0
  160.9770  207.9470  150.8440 C   0  0  0  0  0  2  0  0  0  0  0  0
  162.7950  206.4870  151.1720 F   0  0  0  0  0  0  0  0  0  0  0  0
  161.9500  206.9560  150.1800 C   0  0  0  0  0  0  0  0  0  0  0  0
  162.7410  207.6120  149.2510 F   0  0  0  0  0  0  0  0  0  0  0  0
  159.8580  205.9800  149.4800 F   0  0  0  0  0  0  0  0  0  0  0  0
  161.2320  205.7460  149.5140 C   0  0  2  0  0  0  0  0  0  0  0  0
  160.8340  203.4700  149.5950 C   0  0  0  0  0  1  0  0  0  0  0  0
  161.5220  204.5380  150.1940 O   0  0  0  0  0  0  0  0  0  0  0  0
  161.7120  205.5610  148.0680 C   0  0  0  0  0  2  0  0  0  0  0  0
  160.7850  206.2050  147.0460 C   0  0  0  0  0  2  0  0  0  0  0  0
  162.4850  205.8150  145.2670 O   0  0  0  0  0  1  0  0  0  0  0  0
  160.2700  205.3640  144.8800 O   0  0  0  0  0  0  0  0  0  0  0  0
  161.1590  205.7630  145.6760 C   0  0  0  0  0  0  0  0  0  0  0  0
  1  5  1  0  0  0  0
  2  4  2  0  0  0  0
  4  3  1  0  0  0  0
  4  7  1  0  0  0  0
  5  3  2  0  0  0  0
  6  1  2  0  0  0  0
  6  2  1  0  0  0  0
  7 12  1  0  0  0  0
  7  8  2  0  0  0  0
  9 10  2  0  0  0  0
 11 15  1  0  0  0  0
 12 11  2  0  0  0  0
 12 14  1  0  0  0  0
 13 18  1  6  0  0  0
 13 15  1  0  0  0  0
 13  9  1  0  0  0  0
 14  9  1  0  0  0  0
 16 18  1  0  0  0  0
 17 18  2  0  0  0  0
 19  2  1  0  0  0  0
 20 19  2  0  0  0  0
 21  6  1  0  0  0  0
 23 21  1  0  0  0  0
 23 22  1  0  0  0  0
 24 23  1  0  0  0  0
 26 25  1  1  0  0  0
 26 23  1  0  0  0  0
 26 28  1  0  0  0  0
 27 28  1  0  0  0  0
 29 26  1  0  0  0  0
 30 29  1  0  0  0  0
 31 33  1  0  0  0  0
 32 33  2  0  0  0  0
 33 30  1  0  0  0  0
M  END
>  <MODEL>
6

>  <REMARK>
 VINA RESULT:      -6.8      1.926      2.941
  Name = 
  11 active torsions:
  status: ('A' for Active; 'I' for Inactive)
    1  A    between atoms: C_5  and  C_25
    2  A    between atoms: C_9  and  C_14
    3  A    between atoms: C_9  and  C_28
    4  A    between atoms: C_11  and  C_19
    5  A    between atoms: C_11  and  C_32
    6  A    between atoms: C_14  and  C_33
    7  A    between atoms: C_15  and  C_22
    8  A    between atoms: C_18  and  C_24
    9  A    between atoms: C_19  and  C_28
   10  A    between atoms: O_21  and  C_28
   11  A    between atoms: C_23  and  C_24
                            x       y       z     vdW  Elec       q    Type
                         _______ _______ _______ _____ _____    ______ ____

>  <TORSDO>
F 11

$$$$
=
 OpenBabel11072410193D

 33 34  0  0  1  0  0  0  0  0999 V2000
  161.3510  208.0900  151.2950 C   0  0  0  0  0  3  0  0  0  0  0  0
  161.0700  208.0130  153.7180 C   0  0  0  0  0  0  0  0  0  0  0  0
  161.5420  210.1190  152.5820 C   0  0  0  0  0  3  0  0  0  0  0  0
  161.2840  209.4150  153.7630 C   0  0  0  0  0  0  0  0  0  0  0  0
  161.5650  209.4640  151.3540 C   0  0  0  0  0  3  0  0  0  0  0  0
  161.1240  207.3510  152.4600 C   0  0  0  0  0  0  0  0  0  0  0  0
  161.2530  210.1860  155.0230 C   0  0  0  0  0  0  0  0  0  0  0  0
  162.2590  210.1540  155.7820 O   0  0  0  0  0  0  0  0  0  0  0  0
  158.7410  213.0670  154.9840 C   0  0  0  0  0  0  0  0  0  0  0  0
  158.6370  214.2220  154.4940 O   0  0  0  0  0  0  0  0  0  0  0  0
  159.2900  210.6720  156.3360 N   0  0  0  0  0  0  0  0  0  0  0  0
  160.1030  211.0350  155.3870 C   0  0  0  0  0  0  0  0  0  0  0  0
  157.6340  212.4970  155.8210 C   0  0  2  0  0  3  0  0  0  0  0  0
  159.8940  212.2750  154.7030 N   0  0  0  0  0  2  0  0  0  0  0  0
  158.1680  211.4450  156.6880 N   0  0  0  0  0  2  0  0  0  0  0  0
  155.6330  212.8450  154.3010 N   0  0  0  0  0  2  0  0  0  0  0  0
  156.1910  210.7080  155.0660 N   0  0  0  0  0  1  0  0  0  0  0  0
  156.5230  211.9520  154.9640 C   0  0  0  0  0  0  0  0  0  0  0  0
  160.8230  207.2890  154.9880 C   0  0  0  0  0  3  0  0  0  0  0  0
  159.6940  207.2360  155.5420 O   0  0  0  0  0  0  0  0  0  0  0  0
  160.9420  205.8670  152.3120 C   0  0  0  0  0  2  0  0  0  0  0  0
  162.3430  204.0980  151.6360 F   0  0  0  0  0  0  0  0  0  0  0  0
  161.7370  205.2440  151.1490 C   0  0  0  0  0  0  0  0  0  0  0  0
  162.7500  206.1010  150.7490 F   0  0  0  0  0  0  0  0  0  0  0  0
  159.6950  205.6560  149.9320 F   0  0  0  0  0  0  0  0  0  0  0  0
  160.8430  204.8650  149.9310 C   0  0  2  0  0  0  0  0  0  0  0  0
  160.9280  202.8760  148.7550 C   0  0  0  0  0  1  0  0  0  0  0  0
  160.5100  203.4890  149.9480 O   0  0  0  0  0  0  0  0  0  0  0  0
  161.5870  205.1200  148.6140 C   0  0  0  0  0  2  0  0  0  0  0  0
  161.0620  206.3330  147.8580 C   0  0  0  0  0  2  0  0  0  0  0  0
  160.0970  206.2030  145.5640 O   0  0  0  0  0  0  0  0  0  0  0  0
  162.3340  205.8330  145.9090 O   0  0  0  0  0  1  0  0  0  0  0  0
  161.2080  206.1170  146.3930 C   0  0  0  0  0  0  0  0  0  0  0  0
  1  5  2  0  0  0  0
  1  6  1  0  0  0  0
  2  4  1  0  0  0  0
  2 19  1  0  0  0  0
  3  4  2  0  0  0  0
  4  7  1  0  0  0  0
  5  3  1  0  0  0  0
  6  2  2  0  0  0  0
  7 12  1  0  0  0  0
  7  8  2  0  0  0  0
  9 13  1  0  0  0  0
 10  9  2  0  0  0  0
 11 15  1  0  0  0  0
 12 11  2  0  0  0  0
 13 18  1  6  0  0  0
 13 15  1  0  0  0  0
 14  9  1  0  0  0  0
 14 12  1  0  0  0  0
 16 18  2  0  0  0  0
 18 17  1  0  0  0  0
 19 20  2  0  0  0  0
 21  6  1  0  0  0  0
 23 22  1  0  0  0  0
 23 21  1  0  0  0  0
 24 23  1  0  0  0  0
 26 25  1  1  0  0  0
 26 28  1  0  0  0  0
 26 23  1  0  0  0  0
 27 28  1  0  0  0  0
 29 26  1  0  0  0  0
 30 29  1  0  0  0  0
 31 33  2  0  0  0  0
 32 33  1  0  0  0  0
 33 30  1  0  0  0  0
M  END
>  <MODEL>
7

>  <REMARK>
 VINA RESULT:      -6.8      1.879      3.248
  Name = 
  11 active torsions:
  status: ('A' for Active; 'I' for Inactive)
    1  A    between atoms: C_5  and  C_25
    2  A    between atoms: C_9  and  C_14
    3  A    between atoms: C_9  and  C_28
    4  A    between atoms: C_11  and  C_19
    5  A    between atoms: C_11  and  C_32
    6  A    between atoms: C_14  and  C_33
    7  A    between atoms: C_15  and  C_22
    8  A    between atoms: C_18  and  C_24
    9  A    between atoms: C_19  and  C_28
   10  A    between atoms: O_21  and  C_28
   11  A    between atoms: C_23  and  C_24
                            x       y       z     vdW  Elec       q    Type
                         _______ _______ _______ _____ _____    ______ ____

>  <TORSDO>
F 11

$$$$
=
 OpenBabel11072410193D

 33 34  0  0  1  0  0  0  0  0999 V2000
  162.1160  209.9780  150.2790 C   0  0  0  0  0  3  0  0  0  0  0  0
  161.6000  207.7910  151.2300 C   0  0  0  0  0  0  0  0  0  0  0  0
  161.6220  208.1290  148.8150 C   0  0  0  0  0  3  0  0  0  0  0  0
  161.4520  207.2810  149.9140 C   0  0  0  0  0  0  0  0  0  0  0  0
  161.9620  209.4670  148.9940 C   0  0  0  0  0  3  0  0  0  0  0  0
  161.9210  209.1650  151.4000 C   0  0  0  0  0  0  0  0  0  0  0  0
  161.1150  205.8680  149.6390 C   0  0  0  0  0  0  0  0  0  0  0  0
  160.3980  205.2410  150.4650 O   0  0  0  0  0  0  0  0  0  0  0  0
  161.4560  203.2110  146.9120 C   0  0  0  0  0  0  0  0  0  0  0  0
  161.2120  201.9860  146.7520 O   0  0  0  0  0  0  0  0  0  0  0  0
  162.3170  205.8020  147.5510 N   0  0  0  0  0  0  0  0  0  0  0  0
  161.5440  205.1920  148.4000 C   0  0  0  0  0  0  0  0  0  0  0  0
  162.0510  204.0180  145.7960 C   0  0  2  0  0  3  0  0  0  0  0  0
  161.1200  203.8490  148.1430 N   0  0  0  0  0  2  0  0  0  0  0  0
  162.7220  205.1970  146.3470 N   0  0  0  0  0  2  0  0  0  0  0  0
  159.9050  203.5680  144.5190 N   0  0  0  0  0  1  0  0  0  0  0  0
  161.2410  205.4130  143.9930 N   0  0  0  0  0  2  0  0  0  0  0  0
  161.0010  204.4330  144.8000 C   0  0  0  0  0  0  0  0  0  0  0  0
  161.3910  206.8740  152.3760 C   0  0  0  0  0  3  0  0  0  0  0  0
  162.3370  206.3360  153.0090 O   0  0  0  0  0  0  0  0  0  0  0  0
  162.0680  209.8060  152.7510 C   0  0  0  0  0  2  0  0  0  0  0  0
  159.7190  209.9050  152.6120 F   0  0  0  0  0  0  0  0  0  0  0  0
  160.7880  210.4850  153.2740 C   0  0  0  0  0  0  0  0  0  0  0  0
  160.7900  211.8300  152.9400 F   0  0  0  0  0  0  0  0  0  0  0  0
  161.7970  210.5340  155.4640 F   0  0  0  0  0  0  0  0  0  0  0  0
  160.5880  210.3130  154.8080 C   0  0  2  0  0  0  0  0  0  0  0  0
  161.0160  208.2940  155.8520 C   0  0  0  0  0  1  0  0  0  0  0  0
  160.0710  209.0310  155.1180 O   0  0  0  0  0  0  0  0  0  0  0  0
  159.5730  211.3340  155.3390 C   0  0  0  0  0  2  0  0  0  0  0  0
  158.1730  210.7570  155.4970 C   0  0  0  0  0  2  0  0  0  0  0  0
  155.8610  211.3080  154.7500 O   0  0  0  0  0  1  0  0  0  0  0  0
  157.6780  212.1700  153.6470 O   0  0  0  0  0  0  0  0  0  0  0  0
  157.2320  211.4590  154.5840 C   0  0  0  0  0  0  0  0  0  0  0  0
  1  6  1  0  0  0  0
  2  6  2  0  0  0  0
  2 19  1  0  0  0  0
  3  5  1  0  0  0  0
  3  4  2  0  0  0  0
  4  2  1  0  0  0  0
  5  1  2  0  0  0  0
  6 21  1  0  0  0  0
  7  4  1  0  0  0  0
  7  8  2  0  0  0  0
  9 14  1  0  0  0  0
 10  9  2  0  0  0  0
 11 12  2  0  0  0  0
 12  7  1  0  0  0  0
 13 18  1  6  0  0  0
 13 15  1  0  0  0  0
 13  9  1  0  0  0  0
 14 12  1  0  0  0  0
 15 11  1  0  0  0  0
 16 18  1  0  0  0  0
 17 18  2  0  0  0  0
 19 20  2  0  0  0  0
 21 23  1  0  0  0  0
 22 23  1  0  0  0  0
 23 26  1  0  0  0  0
 24 23  1  0  0  0  0
 26 28  1  0  0  0  0
 26 29  1  0  0  0  0
 26 25  1  1  0  0  0
 28 27  1  0  0  0  0
 29 30  1  0  0  0  0
 32 33  2  0  0  0  0
 33 31  1  0  0  0  0
 33 30  1  0  0  0  0
M  END
>  <MODEL>
8

>  <REMARK>
 VINA RESULT:      -6.4      4.673      8.985
  Name = 
  11 active torsions:
  status: ('A' for Active; 'I' for Inactive)
    1  A    between atoms: C_5  and  C_25
    2  A    between atoms: C_9  and  C_14
    3  A    between atoms: C_9  and  C_28
    4  A    between atoms: C_11  and  C_19
    5  A    between atoms: C_11  and  C_32
    6  A    between atoms: C_14  and  C_33
    7  A    between atoms: C_15  and  C_22
    8  A    between atoms: C_18  and  C_24
    9  A    between atoms: C_19  and  C_28
   10  A    between atoms: O_21  and  C_28
   11  A    between atoms: C_23  and  C_24
                            x       y       z     vdW  Elec       q    Type
                         _______ _______ _______ _____ _____    ______ ____

>  <TORSDO>
F 11

$$$$
=
 OpenBabel11072410193D

 33 34  0  0  1  0  0  0  0  0999 V2000
  161.2140  205.4430  153.2350 C   0  0  0  0  0  3  0  0  0  0  0  0
  161.3110  206.8770  151.2630 C   0  0  0  0  0  0  0  0  0  0  0  0
  160.8080  204.4990  151.0550 C   0  0  0  0  0  3  0  0  0  0  0  0
  160.9920  205.7520  150.4600 C   0  0  0  0  0  0  0  0  0  0  0  0
  160.9080  204.3460  152.4350 C   0  0  0  0  0  3  0  0  0  0  0  0
  161.4370  206.7020  152.6680 C   0  0  0  0  0  0  0  0  0  0  0  0
  160.8470  205.8360  148.9910 C   0  0  0  0  0  0  0  0  0  0  0  0
  160.4350  206.9120  148.4810 O   0  0  0  0  0  0  0  0  0  0  0  0
  161.1890  202.2900  147.6040 C   0  0  0  0  0  0  0  0  0  0  0  0
  161.0470  201.1040  148.0000 O   0  0  0  0  0  0  0  0  0  0  0  0
  161.8590  204.9450  146.9940 N   0  0  0  0  0  0  0  0  0  0  0  0
  161.2250  204.7180  148.1060 C   0  0  0  0  0  0  0  0  0  0  0  0
  161.6050  202.5730  146.1900 C   0  0  2  0  0  3  0  0  0  0  0  0
  160.9070  203.3750  148.4860 N   0  0  0  0  0  2  0  0  0  0  0  0
  162.2090  203.9040  146.1130 N   0  0  0  0  0  2  0  0  0  0  0  0
  159.9100  201.1990  144.8940 N   0  0  0  0  0  1  0  0  0  0  0  0
  160.1080  203.5010  144.5300 N   0  0  0  0  0  2  0  0  0  0  0  0
  160.4360  202.4760  145.2450 C   0  0  0  0  0  0  0  0  0  0  0  0
  161.5250  208.1860  150.6020 C   0  0  0  0  0  3  0  0  0  0  0  0
  162.4850  208.9510  150.8830 O   0  0  0  0  0  0  0  0  0  0  0  0
  161.8020  207.8230  153.6000 C   0  0  0  0  0  2  0  0  0  0  0  0
  159.6980  207.7550  154.6560 F   0  0  0  0  0  0  0  0  0  0  0  0
  160.6020  208.6460  154.1030 C   0  0  0  0  0  0  0  0  0  0  0  0
  159.9650  209.2620  153.0380 F   0  0  0  0  0  0  0  0  0  0  0  0
  162.3150  210.0970  154.9840 F   0  0  0  0  0  0  0  0  0  0  0  0
  160.9930  209.7030  155.1770 C   0  0  2  0  0  0  0  0  0  0  0  0
  162.0420  208.9000  157.0750 C   0  0  0  0  0  1  0  0  0  0  0  0
  160.8010  209.1980  156.4870 O   0  0  0  0  0  0  0  0  0  0  0  0
  160.1090  210.9510  155.0550 C   0  0  0  0  0  2  0  0  0  0  0  0
  158.7500  210.7870  155.7220 C   0  0  0  0  0  2  0  0  0  0  0  0
  156.6490  212.1210  155.5960 O   0  0  0  0  0  1  0  0  0  0  0  0
  157.7890  211.5620  153.6870 O   0  0  0  0  0  0  0  0  0  0  0  0
  157.7140  211.5150  154.9420 C   0  0  0  0  0  0  0  0  0  0  0  0
  2  6  2  0  0  0  0
  3  5  1  0  0  0  0
  4  3  2  0  0  0  0
  4  2  1  0  0  0  0
  5  1  2  0  0  0  0
  6  1  1  0  0  0  0
  6 21  1  0  0  0  0
  7  4  1  0  0  0  0
  8  7  2  0  0  0  0
  9 10  2  0  0  0  0
  9 14  1  0  0  0  0
 11 12  2  0  0  0  0
 12 14  1  0  0  0  0
 12  7  1  0  0  0  0
 13 18  1  6  0  0  0
 13  9  1  0  0  0  0
 15 13  1  0  0  0  0
 15 11  1  0  0  0  0
 16 18  1  0  0  0  0
 17 18  2  0  0  0  0
 19 20  2  0  0  0  0
 19  2  1  0  0  0  0
 21 23  1  0  0  0  0
 23 22  1  0  0  0  0
 23 26  1  0  0  0  0
 24 23  1  0  0  0  0
 26 25  1  6  0  0  0
 26 28  1  0  0  0  0
 28 27  1  0  0  0  0
 29 26  1  0  0  0  0
 29 30  1  0  0  0  0
 32 33  2  0  0  0  0
 33 31  1  0  0  0  0
 33 30  1  0  0  0  0
M  END
>  <MODEL>
9

>  <REMARK>
 VINA RESULT:      -6.3      4.799      9.236
  Name = 
  11 active torsions:
  status: ('A' for Active; 'I' for Inactive)
    1  A    between atoms: C_5  and  C_25
    2  A    between atoms: C_9  and  C_14
    3  A    between atoms: C_9  and  C_28
    4  A    between atoms: C_11  and  C_19
    5  A    between atoms: C_11  and  C_32
    6  A    between atoms: C_14  and  C_33
    7  A    between atoms: C_15  and  C_22
    8  A    between atoms: C_18  and  C_24
    9  A    between atoms: C_19  and  C_28
   10  A    between atoms: O_21  and  C_28
   11  A    between atoms: C_23  and  C_24
                            x       y       z     vdW  Elec       q    Type
                         _______ _______ _______ _____ _____    ______ ____

>  <TORSDO>
F 11

$$$$
