=
 OpenBabel11072411343D

 25 26  0  0  1  0  0  0  0  0999 V2000
  160.5930  208.3930  152.0360 N   0  0  0  0  0  1  0  0  0  0  0  0
  161.3440  208.3440  150.8270 C   0  0  0  0  0  0  0  0  0  0  0  0
  161.5380  209.4550  149.9850 N   0  0  0  0  0  0  0  0  0  0  0  0
  161.9350  207.2770  150.3420 C   0  0  1  0  0  3  0  0  0  0  0  0
  162.5980  207.6640  149.0590 C   0  0  2  0  0  3  0  0  0  0  0  0
  162.3100  209.0980  148.8670 N   0  0  0  0  0  2  0  0  0  0  0  0
  162.0690  206.8620  147.9070 C   0  0  0  0  0  0  0  0  0  0  0  0
  161.1060  205.2970  145.7910 C   0  0  0  0  0  0  0  0  0  0  0  0
  163.3420  204.1690  145.5760 C   0  0  0  0  0  1  0  0  0  0  0  0
  162.9070  205.9330  147.2820 C   0  0  0  0  0  3  0  0  0  0  0  0
  160.2640  206.2200  146.4170 C   0  0  0  0  0  3  0  0  0  0  0  0
  162.4310  205.1510  146.2250 C   0  0  0  0  0  0  0  0  0  0  0  0
  160.7420  207.0000  147.4730 C   0  0  0  0  0  3  0  0  0  0  0  0
  160.6280  204.5450  144.7670 F   0  0  0  0  0  0  0  0  0  0  0  0
  162.2410  205.9550  152.4330 C   0  0  0  0  0  1  0  0  0  0  0  0
  161.9650  205.9010  150.9410 C   0  0  1  0  0  3  0  0  0  0  0  0
  160.6700  205.1600  150.6530 C   0  0  0  0  0  2  0  0  0  0  0  0
  160.9070  204.1020  149.7450 O   0  0  0  0  0  0  0  0  0  0  0  0
  160.4640  202.9120  150.2760 N   0  0  0  0  0  0  0  0  0  0  0  0
  161.1940  202.5650  151.4930 C   0  0  0  0  0  1  0  0  0  0  0  0
  160.5470  201.8120  149.3120 C   0  0  0  0  0  2  0  0  0  0  0  0
  161.0250  202.3220  147.9610 C   0  0  0  0  0  2  0  0  0  0  0  0
  161.3790  200.0700  147.2670 O   0  0  0  0  0  1  0  0  0  0  0  0
  160.6040  201.4950  145.6470 O   0  0  0  0  0  0  0  0  0  0  0  0
  161.0050  201.2290  146.9500 C   0  0  0  0  0  0  0  0  0  0  0  0
  2  1  1  0  0  0  0
  3  2  2  0  0  0  0
  4  2  1  0  0  0  0
  4 16  1  1  0  0  0
  5  7  1  6  0  0  0
  5  4  1  0  0  0  0
  6  5  1  0  0  0  0
  6  3  1  0  0  0  0
  8 12  2  0  0  0  0
  8 11  1  0  0  0  0
  9 12  1  0  0  0  0
 10  7  2  0  0  0  0
 11 13  2  0  0  0  0
 12 10  1  0  0  0  0
 13  7  1  0  0  0  0
 14  8  1  0  0  0  0
 16 15  1  1  0  0  0
 17 16  1  0  0  0  0
 18 19  1  0  0  0  0
 18 17  1  0  0  0  0
 19 20  1  0  0  0  0
 21 19  1  0  0  0  0
 22 21  1  0  0  0  0
 24 25  2  0  0  0  0
 25 23  1  0  0  0  0
 25 22  1  0  0  0  0
M  END
>  <MODEL>
1

>  <REMARK>
 VINA RESULT:      -6.7      0.000      0.000
  Name = 
  8 active torsions:
  status: ('A' for Active; 'I' for Inactive)
    1  A    between atoms: C_1  and  C_6
    2  A    between atoms: C_1  and  N_14
    3  A    between atoms: C_2  and  C_13
    4  A    between atoms: C_6  and  C_25
    5  A    between atoms: C_12  and  C_21
    6  A    between atoms: N_14  and  O_20
    7  A    between atoms: O_20  and  C_22
    8  A    between atoms: C_21  and  C_22
                            x       y       z     vdW  Elec       q    Type
                         _______ _______ _______ _____ _____    ______ ____

>  <TORSDO>
F 8

$$$$
=
 OpenBabel11072411343D

 25 26  0  0  1  0  0  0  0  0999 V2000
  160.1600  206.6110  144.9700 N   0  0  0  0  0  1  0  0  0  0  0  0
  160.9780  205.6030  145.5570 C   0  0  0  0  0  0  0  0  0  0  0  0
  161.4780  204.4960  144.8470 N   0  0  0  0  0  0  0  0  0  0  0  0
  161.3590  205.5680  146.8120 C   0  0  1  0  0  3  0  0  0  0  0  0
  162.1930  204.3420  147.0040 C   0  0  2  0  0  3  0  0  0  0  0  0
  162.2420  203.6720  145.6910 N   0  0  0  0  0  2  0  0  0  0  0  0
  161.5970  203.4330  148.0380 C   0  0  0  0  0  0  0  0  0  0  0  0
  160.4420  201.7960  149.9970 C   0  0  0  0  0  0  0  0  0  0  0  0
  161.0760  203.4450  151.7840 C   0  0  0  0  0  1  0  0  0  0  0  0
  161.6170  203.8230  149.3810 C   0  0  0  0  0  3  0  0  0  0  0  0
  160.4150  201.4050  148.6550 C   0  0  0  0  0  3  0  0  0  0  0  0
  161.0430  203.0080  150.3610 C   0  0  0  0  0  0  0  0  0  0  0  0
  160.9890  202.2210  147.6770 C   0  0  0  0  0  3  0  0  0  0  0  0
  159.8790  200.9930  150.9360 F   0  0  0  0  0  0  0  0  0  0  0  0
  160.0460  205.9950  148.8880 C   0  0  0  0  0  1  0  0  0  0  0  0
  161.0390  206.5640  147.8890 C   0  0  1  0  0  3  0  0  0  0  0  0
  162.3060  207.0300  148.5860 C   0  0  0  0  0  2  0  0  0  0  0  0
  162.5090  208.4110  148.3540 O   0  0  0  0  0  0  0  0  0  0  0  0
  161.8570  209.1530  149.3110 N   0  0  0  0  0  0  0  0  0  0  0  0
  162.0160  210.5860  149.0770 C   0  0  0  0  0  1  0  0  0  0  0  0
  162.3000  208.8170  150.6670 C   0  0  0  0  0  2  0  0  0  0  0  0
  161.1090  208.4620  151.5430 C   0  0  0  0  0  2  0  0  0  0  0  0
  160.7340  207.0660  153.4380 O   0  0  0  0  0  1  0  0  0  0  0  0
  162.4950  206.4650  152.0980 O   0  0  0  0  0  0  0  0  0  0  0  0
  161.4230  207.2910  152.4090 C   0  0  0  0  0  0  0  0  0  0  0  0
  1  2  1  0  0  0  0
  2  4  1  0  0  0  0
  3  2  2  0  0  0  0
  3  6  1  0  0  0  0
  4  5  1  0  0  0  0
  4 16  1  6  0  0  0
  5  7  1  1  0  0  0
  6  5  1  0  0  0  0
  7 10  1  0  0  0  0
  8 12  1  0  0  0  0
  8 14  1  0  0  0  0
 10 12  2  0  0  0  0
 11  8  2  0  0  0  0
 12  9  1  0  0  0  0
 13  7  2  0  0  0  0
 13 11  1  0  0  0  0
 16 17  1  0  0  0  0
 16 15  1  1  0  0  0
 18 17  1  0  0  0  0
 18 19  1  0  0  0  0
 19 21  1  0  0  0  0
 20 19  1  0  0  0  0
 21 22  1  0  0  0  0
 22 25  1  0  0  0  0
 24 25  2  0  0  0  0
 25 23  1  0  0  0  0
M  END
>  <MODEL>
2

>  <REMARK>
 VINA RESULT:      -6.6      3.179      6.120
  Name = 
  8 active torsions:
  status: ('A' for Active; 'I' for Inactive)
    1  A    between atoms: C_1  and  C_6
    2  A    between atoms: C_1  and  N_14
    3  A    between atoms: C_2  and  C_13
    4  A    between atoms: C_6  and  C_25
    5  A    between atoms: C_12  and  C_21
    6  A    between atoms: N_14  and  O_20
    7  A    between atoms: O_20  and  C_22
    8  A    between atoms: C_21  and  C_22
                            x       y       z     vdW  Elec       q    Type
                         _______ _______ _______ _____ _____    ______ ____

>  <TORSDO>
F 8

$$$$
=
 OpenBabel11072411343D

 25 26  0  0  1  0  0  0  0  0999 V2000
  160.4470  204.0260  149.4970 N   0  0  0  0  0  1  0  0  0  0  0  0
  161.2070  204.7570  150.4530 C   0  0  0  0  0  0  0  0  0  0  0  0
  161.8310  204.1650  151.5680 N   0  0  0  0  0  0  0  0  0  0  0  0
  161.4180  206.0530  150.4290 C   0  0  0  0  0  0  0  0  0  0  0  0
  162.2550  206.4030  151.6190 C   0  0  2  0  0  3  0  0  0  0  0  0
  162.4990  205.1370  152.3340 N   0  0  0  0  0  0  0  0  0  0  0  0
  161.5520  207.3840  152.5090 C   0  0  0  0  0  0  0  0  0  0  0  0
  160.2860  209.1950  154.2340 C   0  0  0  0  0  0  0  0  0  0  0  0
  159.9380  207.3750  155.9310 C   0  0  0  0  0  1  0  0  0  0  0  0
  161.0730  206.9540  153.7510 C   0  0  0  0  0  3  0  0  0  0  0  0
  160.7680  209.6290  152.9950 C   0  0  0  0  0  3  0  0  0  0  0  0
  160.4390  207.8540  154.6130 C   0  0  0  0  0  0  0  0  0  0  0  0
  161.4020  208.7280  152.1350 C   0  0  0  0  0  3  0  0  0  0  0  0
  159.6740  210.0830  155.0590 F   0  0  0  0  0  0  0  0  0  0  0  0
  161.8900  208.2020  149.2570 C   0  0  0  0  0  1  0  0  0  0  0  0
  160.9280  207.0360  149.4080 C   0  0  1  0  0  3  0  0  0  0  0  0
  160.6900  206.3500  148.0720 C   0  0  0  0  0  2  0  0  0  0  0  0
  161.8150  206.5220  147.2310 O   0  0  0  0  0  0  0  0  0  0  0  0
  161.6530  205.8020  146.0690 N   0  0  0  0  0  0  0  0  0  0  0  0
  160.3530  206.0630  145.4550 C   0  0  0  0  0  1  0  0  0  0  0  0
  161.8260  204.3640  146.2830 C   0  0  0  0  0  2  0  0  0  0  0  0
  161.1600  203.5760  145.1650 C   0  0  0  0  0  2  0  0  0  0  0  0
  160.9680  201.8830  146.8310 O   0  0  0  0  0  1  0  0  0  0  0  0
  159.9430  201.4250  144.8320 O   0  0  0  0  0  0  0  0  0  0  0  0
  160.6800  202.2570  145.6640 C   0  0  0  0  0  0  0  0  0  0  0  0
  1  2  1  0  0  0  0
  2  3  1  0  0  0  0
  3  6  2  0  0  0  0
  4  2  2  0  0  0  0
  4  5  1  0  0  0  0
  5  6  1  0  0  0  0
  5  7  1  1  0  0  0
  7 10  1  0  0  0  0
  8 12  1  0  0  0  0
  8 14  1  0  0  0  0
 10 12  2  0  0  0  0
 11  8  2  0  0  0  0
 12  9  1  0  0  0  0
 13  7  2  0  0  0  0
 13 11  1  0  0  0  0
 16 15  1  6  0  0  0
 16  4  1  0  0  0  0
 17 16  1  0  0  0  0
 18 17  1  0  0  0  0
 19 21  1  0  0  0  0
 19 18  1  0  0  0  0
 20 19  1  0  0  0  0
 22 25  1  0  0  0  0
 22 21  1  0  0  0  0
 24 25  2  0  0  0  0
 25 23  1  0  0  0  0
M  END
>  <MODEL>
3

>  <REMARK>
 VINA RESULT:      -6.5      3.262      5.806
  Name = 
  8 active torsions:
  status: ('A' for Active; 'I' for Inactive)
    1  A    between atoms: C_1  and  C_6
    2  A    between atoms: C_1  and  N_14
    3  A    between atoms: C_2  and  C_13
    4  A    between atoms: C_6  and  C_25
    5  A    between atoms: C_12  and  C_21
    6  A    between atoms: N_14  and  O_20
    7  A    between atoms: O_20  and  C_22
    8  A    between atoms: C_21  and  C_22
                            x       y       z     vdW  Elec       q    Type
                         _______ _______ _______ _____ _____    ______ ____

>  <TORSDO>
F 8

$$$$
=
 OpenBabel11072411343D

 25 26  0  0  1  0  0  0  0  0999 V2000
  160.5340  204.9750  144.3710 N   0  0  0  0  0  1  0  0  0  0  0  0
  160.7050  203.7630  145.1010 C   0  0  0  0  0  0  0  0  0  0  0  0
  159.8550  202.6500  144.9710 N   0  0  0  0  0  0  0  0  0  0  0  0
  161.6540  203.5310  145.9790 C   0  0  1  0  0  3  0  0  0  0  0  0
  161.4580  202.1470  146.5100 C   0  0  2  0  0  3  0  0  0  0  0  0
  160.2690  201.6100  145.8220 N   0  0  0  0  0  2  0  0  0  0  0  0
  161.2480  202.1580  147.9950 C   0  0  0  0  0  0  0  0  0  0  0  0
  160.7920  202.2230  150.7590 C   0  0  0  0  0  0  0  0  0  0  0  0
  160.6520  204.7320  150.7020 C   0  0  0  0  0  1  0  0  0  0  0  0
  161.0670  203.3810  148.6480 C   0  0  0  0  0  3  0  0  0  0  0  0
  160.9670  200.9980  150.1080 C   0  0  0  0  0  3  0  0  0  0  0  0
  160.8420  203.4180  150.0280 C   0  0  0  0  0  0  0  0  0  0  0  0
  161.1920  200.9640  148.7290 C   0  0  0  0  0  3  0  0  0  0  0  0
  160.5730  202.2400  152.0990 F   0  0  0  0  0  0  0  0  0  0  0  0
  163.9690  204.3180  145.4960 C   0  0  0  0  0  1  0  0  0  0  0  0
  162.7540  204.4620  146.3960 C   0  0  1  0  0  3  0  0  0  0  0  0
  162.2630  205.9000  146.4230 C   0  0  0  0  0  2  0  0  0  0  0  0
  162.7150  206.5460  147.5980 O   0  0  0  0  0  0  0  0  0  0  0  0
  161.6440  206.9100  148.3810 N   0  0  0  0  0  0  0  0  0  0  0  0
  160.3800  206.7510  147.6660 C   0  0  0  0  0  1  0  0  0  0  0  0
  161.7670  208.2810  148.8810 C   0  0  0  0  0  2  0  0  0  0  0  0
  162.3580  208.2870  150.2820 C   0  0  0  0  0  2  0  0  0  0  0  0
  161.7240  210.3890  151.2100 O   0  0  0  0  0  0  0  0  0  0  0  0
  160.6160  208.5640  152.0440 O   0  0  0  0  0  1  0  0  0  0  0  0
  161.5470  209.1430  151.1920 C   0  0  0  0  0  0  0  0  0  0  0  0
  1  2  1  0  0  0  0
  2  4  1  0  0  0  0
  3  2  2  0  0  0  0
  3  6  1  0  0  0  0
  4 16  1  6  0  0  0
  4  5  1  0  0  0  0
  5  7  1  1  0  0  0
  6  5  1  0  0  0  0
  7 10  2  0  0  0  0
  7 13  1  0  0  0  0
  8 14  1  0  0  0  0
 10 12  1  0  0  0  0
 11  8  1  0  0  0  0
 12  9  1  0  0  0  0
 12  8  2  0  0  0  0
 13 11  2  0  0  0  0
 16 15  1  6  0  0  0
 16 17  1  0  0  0  0
 17 18  1  0  0  0  0
 18 19  1  0  0  0  0
 19 21  1  0  0  0  0
 20 19  1  0  0  0  0
 21 22  1  0  0  0  0
 22 25  1  0  0  0  0
 25 23  2  0  0  0  0
 25 24  1  0  0  0  0
M  END
>  <MODEL>
4

>  <REMARK>
 VINA RESULT:      -6.3      3.203      6.774
  Name = 
  8 active torsions:
  status: ('A' for Active; 'I' for Inactive)
    1  A    between atoms: C_1  and  C_6
    2  A    between atoms: C_1  and  N_14
    3  A    between atoms: C_2  and  C_13
    4  A    between atoms: C_6  and  C_25
    5  A    between atoms: C_12  and  C_21
    6  A    between atoms: N_14  and  O_20
    7  A    between atoms: O_20  and  C_22
    8  A    between atoms: C_21  and  C_22
                            x       y       z     vdW  Elec       q    Type
                         _______ _______ _______ _____ _____    ______ ____

>  <TORSDO>
F 8

$$$$
=
 OpenBabel11072411343D

 25 26  0  0  1  0  0  0  0  0999 V2000
  162.8770  206.3290  152.0710 N   0  0  0  0  0  1  0  0  0  0  0  0
  161.8720  205.3650  151.7720 C   0  0  0  0  0  0  0  0  0  0  0  0
  161.3690  204.4480  152.7140 N   0  0  0  0  0  0  0  0  0  0  0  0
  161.3000  205.2000  150.6020 C   0  0  0  0  0  0  0  0  0  0  0  0
  160.3160  204.0800  150.7280 C   0  0  2  0  0  3  0  0  0  0  0  0
  160.3970  203.6200  152.1260 N   0  0  0  0  0  0  0  0  0  0  0  0
  160.6420  202.9600  149.7850 C   0  0  0  0  0  0  0  0  0  0  0  0
  161.3060  200.9120  147.9900 C   0  0  0  0  0  0  0  0  0  0  0  0
  161.1310  202.5120  146.0600 C   0  0  0  0  0  1  0  0  0  0  0  0
  160.7220  203.2260  148.4140 C   0  0  0  0  0  3  0  0  0  0  0  0
  161.2320  200.6450  149.3600 C   0  0  0  0  0  3  0  0  0  0  0  0
  161.0510  202.2060  147.5150 C   0  0  0  0  0  0  0  0  0  0  0  0
  160.9030  201.6650  150.2570 C   0  0  0  0  0  3  0  0  0  0  0  0
  161.6280  199.9110  147.1320 F   0  0  0  0  0  0  0  0  0  0  0  0
  160.2580  206.3850  148.6730 C   0  0  0  0  0  1  0  0  0  0  0  0
  161.5570  205.9770  149.3450 C   0  0  1  0  0  3  0  0  0  0  0  0
  162.4270  207.1900  149.6310 C   0  0  0  0  0  2  0  0  0  0  0  0
  161.6580  208.3740  149.5290 O   0  0  0  0  0  0  0  0  0  0  0  0
  161.9530  209.2220  150.5710 N   0  0  0  0  0  0  0  0  0  0  0  0
  160.9680  209.1130  151.6440 C   0  0  0  0  0  1  0  0  0  0  0  0
  162.0630  210.6160  150.1340 C   0  0  0  0  0  2  0  0  0  0  0  0
  161.9980  210.7060  148.6180 C   0  0  0  0  0  2  0  0  0  0  0  0
  161.2570  212.8610  147.9210 O   0  0  0  0  0  0  0  0  0  0  0  0
  163.5290  212.5660  147.9740 O   0  0  0  0  0  1  0  0  0  0  0  0
  162.2330  212.1050  148.1630 C   0  0  0  0  0  0  0  0  0  0  0  0
  2  1  1  0  0  0  0
  2  3  1  0  0  0  0
  4  5  1  0  0  0  0
  4  2  2  0  0  0  0
  5  7  1  6  0  0  0
  5  6  1  0  0  0  0
  6  3  2  0  0  0  0
  7 13  1  0  0  0  0
  8 11  1  0  0  0  0
  9 12  1  0  0  0  0
 10  7  2  0  0  0  0
 11 13  2  0  0  0  0
 12  8  2  0  0  0  0
 12 10  1  0  0  0  0
 14  8  1  0  0  0  0
 16 15  1  1  0  0  0
 16 17  1  0  0  0  0
 16  4  1  0  0  0  0
 18 17  1  0  0  0  0
 18 19  1  0  0  0  0
 19 20  1  0  0  0  0
 21 19  1  0  0  0  0
 22 21  1  0  0  0  0
 23 25  2  0  0  0  0
 24 25  1  0  0  0  0
 25 22  1  0  0  0  0
M  END
>  <MODEL>
5

>  <REMARK>
 VINA RESULT:      -6.3      3.390      6.364
  Name = 
  8 active torsions:
  status: ('A' for Active; 'I' for Inactive)
    1  A    between atoms: C_1  and  C_6
    2  A    between atoms: C_1  and  N_14
    3  A    between atoms: C_2  and  C_13
    4  A    between atoms: C_6  and  C_25
    5  A    between atoms: C_12  and  C_21
    6  A    between atoms: N_14  and  O_20
    7  A    between atoms: O_20  and  C_22
    8  A    between atoms: C_21  and  C_22
                            x       y       z     vdW  Elec       q    Type
                         _______ _______ _______ _____ _____    ______ ____

>  <TORSDO>
F 8

$$$$
=
 OpenBabel11072411343D

 25 26  0  0  1  0  0  0  0  0999 V2000
  162.9830  206.3020  152.0120 N   0  0  0  0  0  1  0  0  0  0  0  0
  161.9580  205.3630  151.7040 C   0  0  0  0  0  0  0  0  0  0  0  0
  161.4400  204.4430  152.6340 N   0  0  0  0  0  0  0  0  0  0  0  0
  161.3760  205.2280  150.5350 C   0  0  0  0  0  0  0  0  0  0  0  0
  160.3710  204.1270  150.6480 C   0  0  2  0  0  3  0  0  0  0  0  0
  160.4490  203.6430  152.0390 N   0  0  0  0  0  0  0  0  0  0  0  0
  160.6690  203.0150  149.6860 C   0  0  0  0  0  0  0  0  0  0  0  0
  161.2830  200.9800  147.8590 C   0  0  0  0  0  0  0  0  0  0  0  0
  161.2060  202.6270  145.9620 C   0  0  0  0  0  1  0  0  0  0  0  0
  160.7840  203.3060  148.3230 C   0  0  0  0  0  3  0  0  0  0  0  0
  161.1750  200.6870  149.2220 C   0  0  0  0  0  3  0  0  0  0  0  0
  161.0880  202.2940  147.4080 C   0  0  0  0  0  0  0  0  0  0  0  0
  160.8700  201.7000  150.1340 C   0  0  0  0  0  3  0  0  0  0  0  0
  161.5810  199.9860  146.9850 F   0  0  0  0  0  0  0  0  0  0  0  0
  160.3510  206.3980  148.5870 C   0  0  0  0  0  1  0  0  0  0  0  0
  161.6440  206.0190  149.2880 C   0  0  1  0  0  3  0  0  0  0  0  0
  162.4760  207.2520  149.6010 C   0  0  0  0  0  2  0  0  0  0  0  0
  162.1190  208.3110  148.7330 O   0  0  0  0  0  0  0  0  0  0  0  0
  161.6920  209.3980  149.4620 N   0  0  0  0  0  0  0  0  0  0  0  0
  162.1970  210.6490  148.9010 C   0  0  0  0  0  1  0  0  0  0  0  0
  162.0660  209.2970  150.8740 C   0  0  0  0  0  2  0  0  0  0  0  0
  160.8350  209.4150  151.7600 C   0  0  0  0  0  2  0  0  0  0  0  0
  161.8480  210.2340  153.7560 O   0  0  0  0  0  0  0  0  0  0  0  0
  160.8820  208.1620  153.9160 O   0  0  0  0  0  1  0  0  0  0  0  0
  161.2090  209.3040  153.1980 C   0  0  0  0  0  0  0  0  0  0  0  0
  2  1  1  0  0  0  0
  2  3  1  0  0  0  0
  4  5  1  0  0  0  0
  4  2  2  0  0  0  0
  5  7  1  6  0  0  0
  5  6  1  0  0  0  0
  6  3  2  0  0  0  0
  7 13  1  0  0  0  0
  8 11  1  0  0  0  0
  9 12  1  0  0  0  0
 10  7  2  0  0  0  0
 11 13  2  0  0  0  0
 12  8  2  0  0  0  0
 12 10  1  0  0  0  0
 14  8  1  0  0  0  0
 16 15  1  1  0  0  0
 16 17  1  0  0  0  0
 16  4  1  0  0  0  0
 18 19  1  0  0  0  0
 18 17  1  0  0  0  0
 19 21  1  0  0  0  0
 20 19  1  0  0  0  0
 21 22  1  0  0  0  0
 22 25  1  0  0  0  0
 25 23  2  0  0  0  0
 25 24  1  0  0  0  0
M  END
>  <MODEL>
6

>  <REMARK>
 VINA RESULT:      -6.1      3.075      6.168
  Name = 
  8 active torsions:
  status: ('A' for Active; 'I' for Inactive)
    1  A    between atoms: C_1  and  C_6
    2  A    between atoms: C_1  and  N_14
    3  A    between atoms: C_2  and  C_13
    4  A    between atoms: C_6  and  C_25
    5  A    between atoms: C_12  and  C_21
    6  A    between atoms: N_14  and  O_20
    7  A    between atoms: O_20  and  C_22
    8  A    between atoms: C_21  and  C_22
                            x       y       z     vdW  Elec       q    Type
                         _______ _______ _______ _____ _____    ______ ____

>  <TORSDO>
F 8

$$$$
=
 OpenBabel11072411343D

 25 26  0  0  1  0  0  0  0  0999 V2000
  159.8200  202.4990  149.7200 N   0  0  0  0  0  1  0  0  0  0  0  0
  160.8000  203.2880  150.3880 C   0  0  0  0  0  0  0  0  0  0  0  0
  161.4210  202.9030  151.5910 N   0  0  0  0  0  0  0  0  0  0  0  0
  161.2400  204.4570  149.9840 C   0  0  0  0  0  0  0  0  0  0  0  0
  162.2500  204.9350  150.9780 C   0  0  2  0  0  3  0  0  0  0  0  0
  162.3340  203.8860  152.0120 N   0  0  0  0  0  0  0  0  0  0  0  0
  161.8390  206.2430  151.5870 C   0  0  0  0  0  0  0  0  0  0  0  0
  161.0470  208.7110  152.6530 C   0  0  0  0  0  0  0  0  0  0  0  0
  162.3300  209.9230  150.8650 C   0  0  0  0  0  1  0  0  0  0  0  0
  162.2610  207.4340  150.9880 C   0  0  0  0  0  3  0  0  0  0  0  0
  160.6190  207.5210  153.2500 C   0  0  0  0  0  3  0  0  0  0  0  0
  161.8690  208.6680  151.5190 C   0  0  0  0  0  0  0  0  0  0  0  0
  161.0110  206.2900  152.7190 C   0  0  0  0  0  3  0  0  0  0  0  0
  160.6560  209.8990  153.1800 F   0  0  0  0  0  0  0  0  0  0  0  0
  160.0810  206.4800  149.1030 C   0  0  0  0  0  1  0  0  0  0  0  0
  160.8300  205.2070  148.7500 C   0  0  1  0  0  3  0  0  0  0  0  0
  162.0380  205.5090  147.8780 C   0  0  0  0  0  2  0  0  0  0  0  0
  162.4770  204.3300  147.2310 O   0  0  0  0  0  0  0  0  0  0  0  0
  162.3280  204.4520  145.8690 N   0  0  0  0  0  0  0  0  0  0  0  0
  162.0230  205.8290  145.4860 C   0  0  0  0  0  1  0  0  0  0  0  0
  161.3030  203.5490  145.3420 C   0  0  0  0  0  2  0  0  0  0  0  0
  161.0050  202.4410  146.3400 C   0  0  0  0  0  2  0  0  0  0  0  0
  159.7040  201.2670  144.7250 O   0  0  0  0  0  0  0  0  0  0  0  0
  161.0930  199.9710  146.0080 O   0  0  0  0  0  1  0  0  0  0  0  0
  160.5690  201.2020  145.6370 C   0  0  0  0  0  0  0  0  0  0  0  0
  1  2  1  0  0  0  0
  2  3  1  0  0  0  0
  3  6  2  0  0  0  0
  4  2  2  0  0  0  0
  4  5  1  0  0  0  0
  5  7  1  1  0  0  0
  5  6  1  0  0  0  0
  7 13  1  0  0  0  0
  8 14  1  0  0  0  0
  8 11  1  0  0  0  0
  9 12  1  0  0  0  0
 10 12  1  0  0  0  0
 10  7  2  0  0  0  0
 12  8  2  0  0  0  0
 13 11  2  0  0  0  0
 16 15  1  1  0  0  0
 16  4  1  0  0  0  0
 17 16  1  0  0  0  0
 18 17  1  0  0  0  0
 19 18  1  0  0  0  0
 20 19  1  0  0  0  0
 21 19  1  0  0  0  0
 21 22  1  0  0  0  0
 23 25  2  0  0  0  0
 25 24  1  0  0  0  0
 25 22  1  0  0  0  0
M  END
>  <MODEL>
7

>  <REMARK>
 VINA RESULT:      -6.0      3.083      5.247
  Name = 
  8 active torsions:
  status: ('A' for Active; 'I' for Inactive)
    1  A    between atoms: C_1  and  C_6
    2  A    between atoms: C_1  and  N_14
    3  A    between atoms: C_2  and  C_13
    4  A    between atoms: C_6  and  C_25
    5  A    between atoms: C_12  and  C_21
    6  A    between atoms: N_14  and  O_20
    7  A    between atoms: O_20  and  C_22
    8  A    between atoms: C_21  and  C_22
                            x       y       z     vdW  Elec       q    Type
                         _______ _______ _______ _____ _____    ______ ____

>  <TORSDO>
F 8

$$$$
=
 OpenBabel11072411343D

 25 26  0  0  1  0  0  0  0  0999 V2000
  160.2390  206.9000  145.6940 N   0  0  0  0  0  1  0  0  0  0  0  0
  160.8710  205.6450  145.9260 C   0  0  0  0  0  0  0  0  0  0  0  0
  160.8590  204.5840  145.0010 N   0  0  0  0  0  0  0  0  0  0  0  0
  161.5290  205.3140  147.0130 C   0  0  1  0  0  3  0  0  0  0  0  0
  162.0190  203.9110  146.8420 C   0  0  2  0  0  3  0  0  0  0  0  0
  161.5560  203.4760  145.5120 N   0  0  0  0  0  2  0  0  0  0  0  0
  161.4750  203.0100  147.9110 C   0  0  0  0  0  0  0  0  0  0  0  0
  160.4120  201.3840  149.9310 C   0  0  0  0  0  0  0  0  0  0  0  0
  160.8480  203.1760  151.6370 C   0  0  0  0  0  1  0  0  0  0  0  0
  161.4220  203.4720  149.2300 C   0  0  0  0  0  3  0  0  0  0  0  0
  160.4580  200.9210  148.6120 C   0  0  0  0  0  3  0  0  0  0  0  0
  160.8940  202.6630  150.2410 C   0  0  0  0  0  0  0  0  0  0  0  0
  160.9860  201.7310  147.6040 C   0  0  0  0  0  3  0  0  0  0  0  0
  159.8950  200.5860  150.9000 F   0  0  0  0  0  0  0  0  0  0  0  0
  162.6150  207.3800  147.8880 C   0  0  0  0  0  1  0  0  0  0  0  0
  161.7690  206.1640  148.2260 C   0  0  1  0  0  3  0  0  0  0  0  0
  160.4530  206.5760  148.8640 C   0  0  0  0  0  2  0  0  0  0  0  0
  160.5310  206.4400  150.2700 O   0  0  0  0  0  0  0  0  0  0  0  0
  161.6130  207.1390  150.7550 N   0  0  0  0  0  0  0  0  0  0  0  0
  162.2310  206.4510  151.8860 C   0  0  0  0  0  1  0  0  0  0  0  0
  161.2600  208.5080  151.1350 C   0  0  0  0  0  2  0  0  0  0  0  0
  160.8500  208.5660  152.5980 C   0  0  0  0  0  2  0  0  0  0  0  0
  159.6800  210.6410  152.6780 O   0  0  0  0  0  0  0  0  0  0  0  0
  161.6580  210.5750  153.8350 O   0  0  0  0  0  1  0  0  0  0  0  0
  160.6860  209.9780  153.0430 C   0  0  0  0  0  0  0  0  0  0  0  0
  1  2  1  0  0  0  0
  2  4  1  0  0  0  0
  3  6  1  0  0  0  0
  3  2  2  0  0  0  0
  4 16  1  6  0  0  0
  5  4  1  0  0  0  0
  5  7  1  1  0  0  0
  6  5  1  0  0  0  0
  7 10  1  0  0  0  0
  8 12  1  0  0  0  0
  8 14  1  0  0  0  0
 10 12  2  0  0  0  0
 11  8  2  0  0  0  0
 12  9  1  0  0  0  0
 13  7  2  0  0  0  0
 13 11  1  0  0  0  0
 16 15  1  6  0  0  0
 16 17  1  0  0  0  0
 17 18  1  0  0  0  0
 18 19  1  0  0  0  0
 19 21  1  0  0  0  0
 19 20  1  0  0  0  0
 21 22  1  0  0  0  0
 22 25  1  0  0  0  0
 23 25  2  0  0  0  0
 25 24  1  0  0  0  0
M  END
>  <MODEL>
8

>  <REMARK>
 VINA RESULT:      -5.9      3.334      6.447
  Name = 
  8 active torsions:
  status: ('A' for Active; 'I' for Inactive)
    1  A    between atoms: C_1  and  C_6
    2  A    between atoms: C_1  and  N_14
    3  A    between atoms: C_2  and  C_13
    4  A    between atoms: C_6  and  C_25
    5  A    between atoms: C_12  and  C_21
    6  A    between atoms: N_14  and  O_20
    7  A    between atoms: O_20  and  C_22
    8  A    between atoms: C_21  and  C_22
                            x       y       z     vdW  Elec       q    Type
                         _______ _______ _______ _____ _____    ______ ____

>  <TORSDO>
F 8

$$$$
=
 OpenBabel11072411343D

 25 26  0  0  1  0  0  0  0  0999 V2000
  162.7200  205.7620  152.7300 N   0  0  0  0  0  1  0  0  0  0  0  0
  161.8950  205.2650  151.6820 C   0  0  0  0  0  0  0  0  0  0  0  0
  161.7520  203.8960  151.3870 N   0  0  0  0  0  0  0  0  0  0  0  0
  161.1790  206.0000  150.8630 C   0  0  0  0  0  0  0  0  0  0  0  0
  160.4760  205.0790  149.9170 C   0  0  2  0  0  3  0  0  0  0  0  0
  160.8820  203.7140  150.2980 N   0  0  0  0  0  0  0  0  0  0  0  0
  160.8570  205.3640  148.4940 C   0  0  0  0  0  0  0  0  0  0  0  0
  161.5710  205.8190  145.8230 C   0  0  0  0  0  0  0  0  0  0  0  0
  163.5080  204.2330  146.0450 C   0  0  0  0  0  1  0  0  0  0  0  0
  161.9650  204.7120  147.9430 C   0  0  0  0  0  3  0  0  0  0  0  0
  160.4600  206.4680  146.3700 C   0  0  0  0  0  3  0  0  0  0  0  0
  162.3250  204.9380  146.6110 C   0  0  0  0  0  0  0  0  0  0  0  0
  160.1020  206.2410  147.7010 C   0  0  0  0  0  3  0  0  0  0  0  0
  161.9070  206.0490  144.5280 F   0  0  0  0  0  0  0  0  0  0  0  0
  160.7920  208.0390  152.2440 C   0  0  0  0  0  1  0  0  0  0  0  0
  161.0600  207.4950  150.8500 C   0  0  1  0  0  3  0  0  0  0  0  0
  162.3030  208.1300  150.2490 C   0  0  0  0  0  2  0  0  0  0  0  0
  161.9540  208.9020  149.1160 O   0  0  0  0  0  0  0  0  0  0  0  0
  162.3320  210.2130  149.3010 N   0  0  0  0  0  0  0  0  0  0  0  0
  161.9890  210.6840  150.6410 C   0  0  0  0  0  1  0  0  0  0  0  0
  161.7490  211.1030  148.2950 C   0  0  0  0  0  2  0  0  0  0  0  0
  162.7510  212.1700  147.8830 C   0  0  0  0  0  2  0  0  0  0  0  0
  162.3220  213.0520  145.7120 O   0  0  0  0  0  0  0  0  0  0  0  0
  161.3490  214.1860  147.4500 O   0  0  0  0  0  1  0  0  0  0  0  0
  162.1250  213.1490  146.9510 C   0  0  0  0  0  0  0  0  0  0  0  0
  2  1  1  0  0  0  0
  3  2  1  0  0  0  0
  4  2  2  0  0  0  0
  5  7  1  6  0  0  0
  5  6  1  0  0  0  0
  5  4  1  0  0  0  0
  6  3  2  0  0  0  0
  8 11  2  0  0  0  0
  8 12  1  0  0  0  0
  9 12  1  0  0  0  0
 10  7  1  0  0  0  0
 11 13  1  0  0  0  0
 12 10  2  0  0  0  0
 13  7  2  0  0  0  0
 14  8  1  0  0  0  0
 16  4  1  0  0  0  0
 16 15  1  1  0  0  0
 17 16  1  0  0  0  0
 18 19  1  0  0  0  0
 18 17  1  0  0  0  0
 19 20  1  0  0  0  0
 21 19  1  0  0  0  0
 22 21  1  0  0  0  0
 23 25  2  0  0  0  0
 25 24  1  0  0  0  0
 25 22  1  0  0  0  0
M  END
>  <MODEL>
9

>  <REMARK>
 VINA RESULT:      -5.8      3.701      6.183
  Name = 
  8 active torsions:
  status: ('A' for Active; 'I' for Inactive)
    1  A    between atoms: C_1  and  C_6
    2  A    between atoms: C_1  and  N_14
    3  A    between atoms: C_2  and  C_13
    4  A    between atoms: C_6  and  C_25
    5  A    between atoms: C_12  and  C_21
    6  A    between atoms: N_14  and  O_20
    7  A    between atoms: O_20  and  C_22
    8  A    between atoms: C_21  and  C_22
                            x       y       z     vdW  Elec       q    Type
                         _______ _______ _______ _____ _____    ______ ____

>  <TORSDO>
F 8

$$$$
