=
 OpenBabel11072411163D

 28 31  0  0  1  0  0  0  0  0999 V2000
  156.9460  214.4340  153.9300 N   0  0  0  0  0  1  0  0  0  0  0  0
  158.8110  212.7780  154.0470 C   0  0  0  0  0  0  0  0  0  0  0  0
  159.5320  213.3310  156.0540 N   0  0  0  0  0  0  0  0  0  0  0  0
  160.3370  213.4280  157.2590 C   0  0  0  0  0  1  0  0  0  0  0  0
  160.9570  211.0120  153.3750 C   0  0  0  0  0  0  0  0  0  0  0  0
  158.4850  214.1070  155.8070 N   0  0  0  0  0  0  0  0  0  0  0  0
  158.8650  212.1620  152.7270 C   0  0  0  0  0  0  0  0  0  0  0  0
  157.9820  212.3800  151.8570 O   0  0  0  0  0  0  0  0  0  0  0  0
  158.0280  213.7760  154.5810 C   0  0  0  0  0  0  0  0  0  0  0  0
  159.7530  212.5180  154.9990 C   0  0  0  0  0  0  0  0  0  0  0  0
  160.8250  211.4670  154.8330 C   0  0  1  0  0  3  0  0  0  0  0  0
  160.0280  211.3080  152.4370 C   0  0  0  0  0  3  0  0  0  0  0  0
  160.5810  210.4440  157.2390 C   0  0  0  0  0  2  0  0  0  0  0  0
  160.4760  207.8410  155.4480 C   0  0  0  0  0  2  0  0  0  0  0  0
  161.6660  209.6630  156.5210 C   0  0  2  0  0  0  0  0  0  0  0  0
  160.5210  210.2550  155.7300 C   0  0  2  0  0  0  0  0  0  0  0  0
  159.6590  209.1060  155.2360 C   0  0  0  0  0  2  0  0  0  0  0  0
  161.5310  208.1560  156.4970 C   0  0  0  0  0  2  0  0  0  0  0  0
  163.0310  210.3280  156.4620 C   0  0  0  0  0  1  0  0  0  0  0  0
  162.0730  210.2330  153.0410 O   0  0  0  0  0  0  0  0  0  0  0  0
  162.2210  209.5730  151.7880 C   0  0  0  0  0  2  0  0  0  0  0  0
  161.4480  208.2640  151.8010 C   0  0  0  0  0  2  0  0  0  0  0  0
  161.8140  207.4240  150.5880 C   0  0  0  0  0  2  0  0  0  0  0  0
  161.8340  205.4590  152.1480 C   0  0  0  0  0  1  0  0  0  0  0  0
  161.5320  206.0150  150.8390 N   0  0  0  0  0  0  0  0  0  0  0  0
  160.6650  205.6690  148.6950 O   0  0  0  0  0  0  0  0  0  0  0  0
  160.9240  205.1950  149.8330 C   0  0  0  0  0  0  0  0  0  0  0  0
  160.6140  203.8680  150.1040 O   0  0  0  0  0  1  0  0  0  0  0  0
  1  9  1  0  0  0  0
  2  9  1  0  0  0  0
  2 10  2  0  0  0  0
  3  4  1  0  0  0  0
  6  3  1  0  0  0  0
  7  2  1  0  0  0  0
  8  7  2  0  0  0  0
  9  6  2  0  0  0  0
 10  3  1  0  0  0  0
 11  5  1  6  0  0  0
 11 10  1  0  0  0  0
 11 16  1  0  0  0  0
 12  7  1  0  0  0  0
 12  5  2  0  0  0  0
 14 18  1  0  0  0  0
 15 19  1  6  0  0  0
 15 13  1  0  0  0  0
 16 17  1  6  0  0  0
 16 15  1  0  0  0  0
 16 13  1  0  0  0  0
 17 14  1  0  0  0  0
 18 15  1  0  0  0  0
 20  5  1  0  0  0  0
 21 22  1  0  0  0  0
 21 20  1  0  0  0  0
 23 25  1  0  0  0  0
 23 22  1  0  0  0  0
 25 24  1  0  0  0  0
 26 27  2  0  0  0  0
 27 28  1  0  0  0  0
 27 25  1  0  0  0  0
M  END
>  <MODEL>
1

>  <REMARK>
 VINA RESULT:      -5.7      0.000      0.000
  Name = 
  6 active torsions:
  status: ('A' for Active; 'I' for Inactive)
    1  A    between atoms: C_1  and  O_7
    2  A    between atoms: C_1  and  C_27
    3  A    between atoms: O_7  and  C_11
    4  A    between atoms: C_14  and  N_16
    5  A    between atoms: C_14  and  C_27
    6  A    between atoms: C_15  and  C_24
                            x       y       z     vdW  Elec       q    Type
                         _______ _______ _______ _____ _____    ______ ____

>  <TORSDO>
F 6

$$$$
=
 OpenBabel11072411163D

 28 31  0  0  1  0  0  0  0  0999 V2000
  162.7180  207.6820  149.3910 N   0  0  0  0  0  1  0  0  0  0  0  0
  161.6630  208.7090  151.4080 C   0  0  0  0  0  0  0  0  0  0  0  0
  161.4120  206.8440  152.5550 N   0  0  0  0  0  0  0  0  0  0  0  0
  161.0110  205.8850  153.5680 C   0  0  0  0  0  1  0  0  0  0  0  0
  160.1680  210.4040  153.1590 C   0  0  0  0  0  0  0  0  0  0  0  0
  162.0050  206.5050  151.4170 N   0  0  0  0  0  0  0  0  0  0  0  0
  161.4460  210.1070  151.0610 C   0  0  0  0  0  0  0  0  0  0  0  0
  161.9050  210.6070  150.0010 O   0  0  0  0  0  0  0  0  0  0  0  0
  162.1710  207.6400  150.7050 C   0  0  0  0  0  0  0  0  0  0  0  0
  161.1910  208.1760  152.5720 C   0  0  0  0  0  0  0  0  0  0  0  0
  160.5520  209.0070  153.6590 C   0  0  1  0  0  3  0  0  0  0  0  0
  160.6210  210.9030  151.9850 C   0  0  0  0  0  3  0  0  0  0  0  0
  161.7010  207.9080  155.7490 C   0  0  0  0  0  2  0  0  0  0  0  0
  162.4550  210.9510  156.1590 C   0  0  0  0  0  2  0  0  0  0  0  0
  160.8950  209.0950  156.2450 C   0  0  2  0  0  0  0  0  0  0  0  0
  161.5040  209.1290  154.8610 C   0  0  2  0  0  0  0  0  0  0  0  0
  162.6260  210.1520  154.8760 C   0  0  0  0  0  2  0  0  0  0  0  0
  161.6160  210.1080  157.1070 C   0  0  0  0  0  2  0  0  0  0  0  0
  159.4010  208.8630  156.3920 C   0  0  0  0  0  1  0  0  0  0  0  0
  159.3460  211.1820  153.9850 O   0  0  0  0  0  0  0  0  0  0  0  0
  159.6090  212.5490  154.2880 C   0  0  0  0  0  2  0  0  0  0  0  0
  159.4030  212.7960  155.7730 C   0  0  0  0  0  2  0  0  0  0  0  0
  158.0460  212.2690  156.2130 C   0  0  0  0  0  2  0  0  0  0  0  0
  156.9170  214.4480  155.6930 C   0  0  0  0  0  1  0  0  0  0  0  0
  156.9740  213.0030  155.5490 N   0  0  0  0  0  0  0  0  0  0  0  0
  156.0570  211.0700  154.6040 O   0  0  0  0  0  1  0  0  0  0  0  0
  156.0160  212.3230  154.7280 C   0  0  0  0  0  0  0  0  0  0  0  0
  155.0310  213.0410  154.0610 O   0  0  0  0  0  0  0  0  0  0  0  0
  1  9  1  0  0  0  0
  2 10  2  0  0  0  0
  3 10  1  0  0  0  0
  3  4  1  0  0  0  0
  5 11  1  0  0  0  0
  5 20  1  0  0  0  0
  6  3  1  0  0  0  0
  7  2  1  0  0  0  0
  7 12  1  0  0  0  0
  8  7  2  0  0  0  0
  9  2  1  0  0  0  0
  9  6  2  0  0  0  0
 11 10  1  6  0  0  0
 11 16  1  0  0  0  0
 12  5  2  0  0  0  0
 13 15  1  0  0  0  0
 14 18  1  0  0  0  0
 15 19  1  1  0  0  0
 15 18  1  0  0  0  0
 16 17  1  6  0  0  0
 16 13  1  0  0  0  0
 16 15  1  0  0  0  0
 17 14  1  0  0  0  0
 20 21  1  0  0  0  0
 21 22  1  0  0  0  0
 22 23  1  0  0  0  0
 25 24  1  0  0  0  0
 25 23  1  0  0  0  0
 26 27  1  0  0  0  0
 27 25  1  0  0  0  0
 28 27  2  0  0  0  0
M  END
>  <MODEL>
2

>  <REMARK>
 VINA RESULT:      -5.1      2.269      6.585
  Name = 
  6 active torsions:
  status: ('A' for Active; 'I' for Inactive)
    1  A    between atoms: C_1  and  O_7
    2  A    between atoms: C_1  and  C_27
    3  A    between atoms: O_7  and  C_11
    4  A    between atoms: C_14  and  N_16
    5  A    between atoms: C_14  and  C_27
    6  A    between atoms: C_15  and  C_24
                            x       y       z     vdW  Elec       q    Type
                         _______ _______ _______ _____ _____    ______ ____

>  <TORSDO>
F 6

$$$$
=
 OpenBabel11072411163D

 28 31  0  0  1  0  0  0  0  0999 V2000
  162.7120  207.7060  149.5700 N   0  0  0  0  0  1  0  0  0  0  0  0
  161.6580  208.8230  151.5380 C   0  0  0  0  0  0  0  0  0  0  0  0
  161.3250  207.0010  152.7310 N   0  0  0  0  0  0  0  0  0  0  0  0
  160.8740  206.0840  153.7630 C   0  0  0  0  0  1  0  0  0  0  0  0
  160.1910  210.6150  153.2150 C   0  0  0  0  0  0  0  0  0  0  0  0
  161.9250  206.6100  151.6140 N   0  0  0  0  0  0  0  0  0  0  0  0
  161.4940  210.2170  151.1490 C   0  0  0  0  0  0  0  0  0  0  0  0
  161.9870  210.6710  150.0840 O   0  0  0  0  0  0  0  0  0  0  0  0
  162.1420  207.7180  150.8740 C   0  0  0  0  0  0  0  0  0  0  0  0
  161.1490  208.3390  152.7070 C   0  0  0  0  0  0  0  0  0  0  0  0
  160.5190  209.2200  153.7600 C   0  0  1  0  0  3  0  0  0  0  0  0
  160.6810  211.0660  152.0360 C   0  0  0  0  0  3  0  0  0  0  0  0
  161.6090  208.1380  155.8900 C   0  0  0  0  0  2  0  0  0  0  0  0
  162.4260  211.1700  156.2520 C   0  0  0  0  0  2  0  0  0  0  0  0
  160.8230  209.3520  156.3490 C   0  0  2  0  0  0  0  0  0  0  0  0
  161.4540  209.3440  154.9750 C   0  0  2  0  0  0  0  0  0  0  0  0
  162.6000  210.3410  154.9880 C   0  0  0  0  0  2  0  0  0  0  0  0
  161.5530  210.3650  157.2030 C   0  0  0  0  0  2  0  0  0  0  0  0
  159.3210  209.1580  156.4760 C   0  0  0  0  0  1  0  0  0  0  0  0
  159.3820  211.4430  154.0050 O   0  0  0  0  0  0  0  0  0  0  0  0
  158.1460  211.9890  153.5550 C   0  0  0  0  0  2  0  0  0  0  0  0
  158.3090  213.4730  153.2740 C   0  0  0  0  0  2  0  0  0  0  0  0
  157.5250  213.8640  152.0320 C   0  0  0  0  0  2  0  0  0  0  0  0
  159.7520  214.4530  151.0390 C   0  0  0  0  0  1  0  0  0  0  0  0
  158.4060  213.9310  150.8720 N   0  0  0  0  0  0  0  0  0  0  0  0
  156.8080  213.0000  149.4400 O   0  0  0  0  0  1  0  0  0  0  0  0
  157.9760  213.4480  149.5920 C   0  0  0  0  0  0  0  0  0  0  0  0
  158.8440  213.4710  148.5070 O   0  0  0  0  0  0  0  0  0  0  0  0
  1  9  1  0  0  0  0
  2 10  2  0  0  0  0
  3  4  1  0  0  0  0
  5 11  1  0  0  0  0
  5 20  1  0  0  0  0
  6  3  1  0  0  0  0
  7  2  1  0  0  0  0
  7 12  1  0  0  0  0
  8  7  2  0  0  0  0
  9  2  1  0  0  0  0
  9  6  2  0  0  0  0
 10  3  1  0  0  0  0
 11 10  1  6  0  0  0
 11 16  1  0  0  0  0
 12  5  2  0  0  0  0
 13 15  1  0  0  0  0
 14 18  1  0  0  0  0
 15 19  1  1  0  0  0
 15 18  1  0  0  0  0
 16 17  1  6  0  0  0
 16 13  1  0  0  0  0
 16 15  1  0  0  0  0
 17 14  1  0  0  0  0
 21 20  1  0  0  0  0
 22 21  1  0  0  0  0
 23 22  1  0  0  0  0
 25 24  1  0  0  0  0
 25 23  1  0  0  0  0
 26 27  1  0  0  0  0
 27 25  1  0  0  0  0
 28 27  2  0  0  0  0
M  END
>  <MODEL>
3

>  <REMARK>
 VINA RESULT:      -5.0      2.714      6.169
  Name = 
  6 active torsions:
  status: ('A' for Active; 'I' for Inactive)
    1  A    between atoms: C_1  and  O_7
    2  A    between atoms: C_1  and  C_27
    3  A    between atoms: O_7  and  C_11
    4  A    between atoms: C_14  and  N_16
    5  A    between atoms: C_14  and  C_27
    6  A    between atoms: C_15  and  C_24
                            x       y       z     vdW  Elec       q    Type
                         _______ _______ _______ _____ _____    ______ ____

>  <TORSDO>
F 6

$$$$
=
 OpenBabel11072411163D

 28 31  0  0  1  0  0  0  0  0999 V2000
  160.0730  201.1120  145.9790 N   0  0  0  0  0  1  0  0  0  0  0  0
  160.8070  202.7200  147.7420 C   0  0  0  0  0  0  0  0  0  0  0  0
  162.0180  204.0150  146.4340 N   0  0  0  0  0  0  0  0  0  0  0  0
  162.9360  205.0350  145.9610 C   0  0  0  0  0  1  0  0  0  0  0  0
  161.5940  203.8950  150.2280 C   0  0  0  0  0  0  0  0  0  0  0  0
  161.4980  203.0780  145.6520 N   0  0  0  0  0  0  0  0  0  0  0  0
  160.3240  202.1630  148.9990 C   0  0  0  0  0  0  0  0  0  0  0  0
  159.5550  201.1670  149.0310 O   0  0  0  0  0  0  0  0  0  0  0  0
  160.7470  202.2780  146.4400 C   0  0  0  0  0  0  0  0  0  0  0  0
  161.6150  203.8180  147.7080 C   0  0  0  0  0  0  0  0  0  0  0  0
  161.9490  204.6350  148.9330 C   0  0  1  0  0  3  0  0  0  0  0  0
  160.8150  202.7870  150.2380 C   0  0  0  0  0  3  0  0  0  0  0  0
  161.1650  206.7340  147.5640 C   0  0  0  0  0  2  0  0  0  0  0  0
  160.4870  207.6360  150.5170 C   0  0  0  0  0  2  0  0  0  0  0  0
  162.0410  207.2330  148.6970 C   0  0  2  0  0  0  0  0  0  0  0  0
  161.2100  205.9840  148.8870 C   0  0  2  0  0  0  0  0  0  0  0  0
  160.1050  206.3100  149.8760 C   0  0  0  0  0  2  0  0  0  0  0  0
  161.4730  208.3210  149.5820 C   0  0  0  0  0  2  0  0  0  0  0  0
  163.5400  207.1020  148.4820 C   0  0  0  0  0  1  0  0  0  0  0  0
  162.0780  204.4280  151.4300 O   0  0  0  0  0  0  0  0  0  0  0  0
  161.2630  204.6340  152.5800 C   0  0  0  0  0  2  0  0  0  0  0  0
  161.6550  205.9330  153.2620 C   0  0  0  0  0  2  0  0  0  0  0  0
  160.5860  206.3470  154.2620 C   0  0  0  0  0  2  0  0  0  0  0  0
  161.2140  208.7420  153.8580 C   0  0  0  0  0  1  0  0  0  0  0  0
  160.8650  207.6790  154.7860 N   0  0  0  0  0  0  0  0  0  0  0  0
  160.4580  207.0370  156.9980 O   0  0  0  0  0  1  0  0  0  0  0  0
  160.7540  207.9560  156.1880 C   0  0  0  0  0  0  0  0  0  0  0  0
  160.9740  209.2420  156.6680 O   0  0  0  0  0  0  0  0  0  0  0  0
  1  9  1  0  0  0  0
  2  7  1  0  0  0  0
  3 10  1  0  0  0  0
  4  3  1  0  0  0  0
  5 12  2  0  0  0  0
  5 20  1  0  0  0  0
  6  3  1  0  0  0  0
  6  9  2  0  0  0  0
  7  8  2  0  0  0  0
  7 12  1  0  0  0  0
  9  2  1  0  0  0  0
 10  2  2  0  0  0  0
 11 10  1  6  0  0  0
 11  5  1  0  0  0  0
 13 15  1  0  0  0  0
 15 19  1  6  0  0  0
 15 16  1  0  0  0  0
 15 18  1  0  0  0  0
 16 13  1  6  0  0  0
 16 11  1  0  0  0  0
 16 17  1  0  0  0  0
 17 14  1  0  0  0  0
 18 14  1  0  0  0  0
 20 21  1  0  0  0  0
 21 22  1  0  0  0  0
 22 23  1  0  0  0  0
 23 25  1  0  0  0  0
 24 25  1  0  0  0  0
 25 27  1  0  0  0  0
 27 28  2  0  0  0  0
 27 26  1  0  0  0  0
M  END
>  <MODEL>
4

>  <REMARK>
 VINA RESULT:      -4.8      3.928      9.572
  Name = 
  6 active torsions:
  status: ('A' for Active; 'I' for Inactive)
    1  A    between atoms: C_1  and  O_7
    2  A    between atoms: C_1  and  C_27
    3  A    between atoms: O_7  and  C_11
    4  A    between atoms: C_14  and  N_16
    5  A    between atoms: C_14  and  C_27
    6  A    between atoms: C_15  and  C_24
                            x       y       z     vdW  Elec       q    Type
                         _______ _______ _______ _____ _____    ______ ____

>  <TORSDO>
F 6

$$$$
=
 OpenBabel11072411163D

 28 31  0  0  1  0  0  0  0  0999 V2000
  159.0490  211.1670  155.2120 N   0  0  0  0  0  1  0  0  0  0  0  0
  160.3090  209.7930  153.5520 C   0  0  0  0  0  0  0  0  0  0  0  0
  161.0090  208.2500  154.9590 N   0  0  0  0  0  0  0  0  0  0  0  0
  161.7110  207.1170  155.5370 C   0  0  0  0  0  1  0  0  0  0  0  0
  161.8620  208.9500  151.3040 C   0  0  0  0  0  0  0  0  0  0  0  0
  160.2690  209.0920  155.6680 N   0  0  0  0  0  0  0  0  0  0  0  0
  160.2730  210.5570  152.3110 C   0  0  0  0  0  0  0  0  0  0  0  0
  159.5670  211.5920  152.1900 O   0  0  0  0  0  0  0  0  0  0  0  0
  159.8270  210.0420  154.8170 C   0  0  0  0  0  0  0  0  0  0  0  0
  161.0510  208.6550  153.6720 C   0  0  0  0  0  0  0  0  0  0  0  0
  161.7630  208.0080  152.5090 C   0  0  1  0  0  3  0  0  0  0  0  0
  161.1410  210.0930  151.2170 C   0  0  0  0  0  3  0  0  0  0  0  0
  160.8510  205.6310  153.1500 C   0  0  0  0  0  2  0  0  0  0  0  0
  160.5240  205.5890  150.0060 C   0  0  0  0  0  2  0  0  0  0  0  0
  161.8560  205.4440  152.0280 C   0  0  2  0  0  0  0  0  0  0  0  0
  161.0390  206.7150  152.0980 C   0  0  2  0  0  0  0  0  0  0  0  0
  160.0570  206.6960  150.9400 C   0  0  0  0  0  2  0  0  0  0  0  0
  161.4040  204.6530  150.8200 C   0  0  0  0  0  2  0  0  0  0  0  0
  163.3190  205.4790  152.4390 C   0  0  0  0  0  1  0  0  0  0  0  0
  162.7110  208.5710  150.2550 O   0  0  0  0  0  0  0  0  0  0  0  0
  162.3620  208.6970  148.8800 C   0  0  0  0  0  2  0  0  0  0  0  0
  162.6300  207.3870  148.1590 C   0  0  0  0  0  2  0  0  0  0  0  0
  161.4570  207.0290  147.2610 C   0  0  0  0  0  2  0  0  0  0  0  0
  162.8570  204.9770  146.9150 C   0  0  0  0  0  1  0  0  0  0  0  0
  161.7440  205.8170  146.5040 N   0  0  0  0  0  0  0  0  0  0  0  0
  159.9550  206.1510  145.0350 O   0  0  0  0  0  1  0  0  0  0  0  0
  160.9180  205.4250  145.4000 C   0  0  0  0  0  0  0  0  0  0  0  0
  161.1720  204.2400  144.7190 O   0  0  0  0  0  0  0  0  0  0  0  0
  2 10  2  0  0  0  0
  2  9  1  0  0  0  0
  3  4  1  0  0  0  0
  3  6  1  0  0  0  0
  7  2  1  0  0  0  0
  8  7  2  0  0  0  0
  9  1  1  0  0  0  0
  9  6  2  0  0  0  0
 10  3  1  0  0  0  0
 11  5  1  6  0  0  0
 11 10  1  0  0  0  0
 12  5  2  0  0  0  0
 12  7  1  0  0  0  0
 14 18  1  0  0  0  0
 14 17  1  0  0  0  0
 15 16  1  0  0  0  0
 15 19  1  1  0  0  0
 15 13  1  0  0  0  0
 16 17  1  6  0  0  0
 16 11  1  0  0  0  0
 16 13  1  0  0  0  0
 18 15  1  0  0  0  0
 20  5  1  0  0  0  0
 21 20  1  0  0  0  0
 22 21  1  0  0  0  0
 23 22  1  0  0  0  0
 25 24  1  0  0  0  0
 25 23  1  0  0  0  0
 26 27  1  0  0  0  0
 27 25  1  0  0  0  0
 28 27  2  0  0  0  0
M  END
>  <MODEL>
5

>  <REMARK>
 VINA RESULT:      -4.5      2.678      4.671
  Name = 
  6 active torsions:
  status: ('A' for Active; 'I' for Inactive)
    1  A    between atoms: C_1  and  O_7
    2  A    between atoms: C_1  and  C_27
    3  A    between atoms: O_7  and  C_11
    4  A    between atoms: C_14  and  N_16
    5  A    between atoms: C_14  and  C_27
    6  A    between atoms: C_15  and  C_24
                            x       y       z     vdW  Elec       q    Type
                         _______ _______ _______ _____ _____    ______ ____

>  <TORSDO>
F 6

$$$$
=
 OpenBabel11072411163D

 28 31  0  0  1  0  0  0  0  0999 V2000
  162.2590  203.5570  145.2960 N   0  0  0  0  0  1  0  0  0  0  0  0
  161.6810  204.7460  147.4130 C   0  0  0  0  0  0  0  0  0  0  0  0
  160.7950  203.0190  148.4550 N   0  0  0  0  0  0  0  0  0  0  0  0
  160.0940  202.1960  149.4250 C   0  0  0  0  0  1  0  0  0  0  0  0
  160.9280  206.7350  149.3250 C   0  0  0  0  0  0  0  0  0  0  0  0
  161.2060  202.5720  147.2750 N   0  0  0  0  0  0  0  0  0  0  0  0
  161.9760  206.1510  147.1610 C   0  0  0  0  0  0  0  0  0  0  0  0
  162.5650  206.5270  146.1140 O   0  0  0  0  0  0  0  0  0  0  0  0
  161.7570  203.6190  146.6260 C   0  0  0  0  0  0  0  0  0  0  0  0
  161.0700  204.3360  148.5620 C   0  0  0  0  0  0  0  0  0  0  0  0
  160.7920  205.2610  149.7230 C   0  0  1  0  0  3  0  0  0  0  0  0
  161.5100  207.1210  148.1650 C   0  0  0  0  0  3  0  0  0  0  0  0
  161.9350  203.4920  151.2910 C   0  0  0  0  0  2  0  0  0  0  0  0
  162.7070  206.1930  152.7420 C   0  0  0  0  0  2  0  0  0  0  0  0
  161.1370  204.4320  152.1740 C   0  0  2  0  0  0  0  0  0  0  0  0
  161.7450  204.9470  150.8890 C   0  0  2  0  0  0  0  0  0  0  0  0
  162.8730  205.8940  151.2590 C   0  0  0  0  0  2  0  0  0  0  0  0
  161.8640  205.0740  153.3350 C   0  0  0  0  0  2  0  0  0  0  0  0
  159.6410  204.1720  152.2350 C   0  0  0  0  0  1  0  0  0  0  0  0
  160.4560  207.6950  150.2310 O   0  0  0  0  0  0  0  0  0  0  0  0
  161.2660  208.7430  150.7530 C   0  0  0  0  0  2  0  0  0  0  0  0
  160.8250  209.0780  152.1680 C   0  0  0  0  0  2  0  0  0  0  0  0
  161.8000  210.0550  152.8060 C   0  0  0  0  0  2  0  0  0  0  0  0
  160.0810  211.8650  153.0520 C   0  0  0  0  0  1  0  0  0  0  0  0
  161.0890  211.0070  153.6520 N   0  0  0  0  0  0  0  0  0  0  0  0
  162.2170  210.3330  155.5870 O   0  0  0  0  0  0  0  0  0  0  0  0
  161.3400  211.0700  155.0620 C   0  0  0  0  0  0  0  0  0  0  0  0
  160.6190  211.9470  155.8630 O   0  0  0  0  0  1  0  0  0  0  0  0
  1  9  1  0  0  0  0
  2 10  2  0  0  0  0
  3 10  1  0  0  0  0
  3  4  1  0  0  0  0
  5 11  1  0  0  0  0
  5 20  1  0  0  0  0
  6  3  1  0  0  0  0
  7  2  1  0  0  0  0
  7 12  1  0  0  0  0
  8  7  2  0  0  0  0
  9  6  2  0  0  0  0
  9  2  1  0  0  0  0
 11 10  1  6  0  0  0
 11 16  1  0  0  0  0
 12  5  2  0  0  0  0
 13 15  1  0  0  0  0
 14 18  1  0  0  0  0
 15 19  1  1  0  0  0
 15 18  1  0  0  0  0
 16 17  1  1  0  0  0
 16 13  1  0  0  0  0
 16 15  1  0  0  0  0
 17 14  1  0  0  0  0
 20 21  1  0  0  0  0
 21 22  1  0  0  0  0
 22 23  1  0  0  0  0
 23 25  1  0  0  0  0
 24 25  1  0  0  0  0
 25 27  1  0  0  0  0
 27 26  2  0  0  0  0
 27 28  1  0  0  0  0
M  END
>  <MODEL>
6

>  <REMARK>
 VINA RESULT:      -4.4      2.774      8.790
  Name = 
  6 active torsions:
  status: ('A' for Active; 'I' for Inactive)
    1  A    between atoms: C_1  and  O_7
    2  A    between atoms: C_1  and  C_27
    3  A    between atoms: O_7  and  C_11
    4  A    between atoms: C_14  and  N_16
    5  A    between atoms: C_14  and  C_27
    6  A    between atoms: C_15  and  C_24
                            x       y       z     vdW  Elec       q    Type
                         _______ _______ _______ _____ _____    ______ ____

>  <TORSDO>
F 6

$$$$
=
 OpenBabel11072411163D

 28 31  0  0  1  0  0  0  0  0999 V2000
  161.6820  201.6480  151.8070 N   0  0  0  0  0  1  0  0  0  0  0  0
  161.2880  203.7630  150.5400 C   0  0  0  0  0  0  0  0  0  0  0  0
  160.9350  205.0580  152.2880 N   0  0  0  0  0  0  0  0  0  0  0  0
  160.5830  206.1930  153.1220 C   0  0  0  0  0  1  0  0  0  0  0  0
  160.5410  205.6620  148.5370 C   0  0  0  0  0  0  0  0  0  0  0  0
  161.2010  203.8500  152.7670 N   0  0  0  0  0  0  0  0  0  0  0  0
  161.2710  203.3750  149.1360 C   0  0  0  0  0  0  0  0  0  0  0  0
  161.5820  202.2130  148.7650 O   0  0  0  0  0  0  0  0  0  0  0  0
  161.4260  203.0450  151.7070 C   0  0  0  0  0  0  0  0  0  0  0  0
  160.9790  205.0300  150.9380 C   0  0  0  0  0  0  0  0  0  0  0  0
  160.7510  206.1660  149.9700 C   0  0  1  0  0  3  0  0  0  0  0  0
  160.8240  204.3900  148.1690 C   0  0  0  0  0  3  0  0  0  0  0  0
  162.6990  207.2990  151.3180 C   0  0  0  0  0  2  0  0  0  0  0  0
  162.7040  209.0180  148.6650 C   0  0  0  0  0  2  0  0  0  0  0  0
  161.7840  208.4050  150.8250 C   0  0  2  0  0  0  0  0  0  0  0  0
  161.9390  207.1410  150.0080 C   0  0  2  0  0  0  0  0  0  0  0  0
  162.7060  207.4980  148.7470 C   0  0  0  0  0  2  0  0  0  0  0  0
  162.4270  209.5440  150.0650 C   0  0  0  0  0  2  0  0  0  0  0  0
  160.5120  208.6190  151.6280 C   0  0  0  0  0  1  0  0  0  0  0  0
  160.0730  206.5830  147.5910 O   0  0  0  0  0  0  0  0  0  0  0  0
  160.7570  206.8730  146.3760 C   0  0  0  0  0  2  0  0  0  0  0  0
  160.0820  206.1540  145.2200 C   0  0  0  0  0  2  0  0  0  0  0  0
  161.1180  205.4490  144.3600 C   0  0  0  0  0  2  0  0  0  0  0  0
  162.7410  203.9820  145.5880 C   0  0  0  0  0  1  0  0  0  0  0  0
  161.4550  204.1500  144.9300 N   0  0  0  0  0  0  0  0  0  0  0  0
  159.4090  203.1990  144.3130 O   0  0  0  0  0  0  0  0  0  0  0  0
  160.5220  203.0620  144.8880 C   0  0  0  0  0  0  0  0  0  0  0  0
  160.8380  201.8450  145.4790 O   0  0  0  0  0  1  0  0  0  0  0  0
  2 10  2  0  0  0  0
  2  9  1  0  0  0  0
  3  6  1  0  0  0  0
  3  4  1  0  0  0  0
  7  2  1  0  0  0  0
  8  7  2  0  0  0  0
  9  1  1  0  0  0  0
  9  6  2  0  0  0  0
 10  3  1  0  0  0  0
 11  5  1  6  0  0  0
 11 16  1  0  0  0  0
 11 10  1  0  0  0  0
 12  5  2  0  0  0  0
 12  7  1  0  0  0  0
 14 17  1  0  0  0  0
 14 18  1  0  0  0  0
 15 13  1  0  0  0  0
 15 19  1  1  0  0  0
 16 17  1  6  0  0  0
 16 15  1  0  0  0  0
 16 13  1  0  0  0  0
 18 15  1  0  0  0  0
 20  5  1  0  0  0  0
 21 20  1  0  0  0  0
 22 21  1  0  0  0  0
 23 25  1  0  0  0  0
 23 22  1  0  0  0  0
 25 24  1  0  0  0  0
 26 27  2  0  0  0  0
 27 25  1  0  0  0  0
 27 28  1  0  0  0  0
M  END
>  <MODEL>
7

>  <REMARK>
 VINA RESULT:      -3.8      5.226      8.069
  Name = 
  6 active torsions:
  status: ('A' for Active; 'I' for Inactive)
    1  A    between atoms: C_1  and  O_7
    2  A    between atoms: C_1  and  C_27
    3  A    between atoms: O_7  and  C_11
    4  A    between atoms: C_14  and  N_16
    5  A    between atoms: C_14  and  C_27
    6  A    between atoms: C_15  and  C_24
                            x       y       z     vdW  Elec       q    Type
                         _______ _______ _______ _____ _____    ______ ____

>  <TORSDO>
F 6

$$$$
=
 OpenBabel11072411163D

 28 31  0  0  1  0  0  0  0  0999 V2000
  160.1430  212.1040  154.4290 N   0  0  0  0  0  1  0  0  0  0  0  0
  160.7700  211.4850  152.0930 C   0  0  0  0  0  0  0  0  0  0  0  0
  159.4230  212.8990  151.0720 N   0  0  0  0  0  0  0  0  0  0  0  0
  158.6640  213.5970  150.0500 C   0  0  0  0  0  1  0  0  0  0  0  0
  161.6010  210.0470  149.7650 C   0  0  0  0  0  0  0  0  0  0  0  0
  159.2550  213.0980  152.3730 N   0  0  0  0  0  0  0  0  0  0  0  0
  161.6560  210.3360  152.2220 C   0  0  0  0  0  0  0  0  0  0  0  0
  162.0800  209.9480  153.3420 O   0  0  0  0  0  0  0  0  0  0  0  0
  160.0800  212.2410  153.0130 C   0  0  0  0  0  0  0  0  0  0  0  0
  160.3350  211.9230  150.8760 C   0  0  0  0  0  0  0  0  0  0  0  0
  160.8480  211.3680  149.5690 C   0  0  1  0  0  3  0  0  0  0  0  0
  161.9960  209.6140  150.9850 C   0  0  0  0  0  3  0  0  0  0  0  0
  161.2280  213.7960  148.6440 C   0  0  0  0  0  2  0  0  0  0  0  0
  163.7690  212.2980  147.5070 C   0  0  0  0  0  2  0  0  0  0  0  0
  161.4030  212.8350  147.4830 C   0  0  2  0  0  0  0  0  0  0  0  0
  161.7670  212.3930  148.8830 C   0  0  2  0  0  0  0  0  0  0  0  0
  163.2780  212.2620  148.9460 C   0  0  0  0  0  2  0  0  0  0  0  0
  162.6770  212.9530  146.6750 C   0  0  0  0  0  2  0  0  0  0  0  0
  160.1200  212.3200  146.8520 C   0  0  0  0  0  1  0  0  0  0  0  0
  161.9080  209.3020  148.6190 O   0  0  0  0  0  0  0  0  0  0  0  0
  162.4270  207.9770  148.6620 C   0  0  0  0  0  2  0  0  0  0  0  0
  161.4560  207.0210  147.9890 C   0  0  0  0  0  2  0  0  0  0  0  0
  160.4550  206.4870  149.0010 C   0  0  0  0  0  2  0  0  0  0  0  0
  161.2050  204.1000  148.8180 C   0  0  0  0  0  1  0  0  0  0  0  0
  160.9670  205.2780  149.6360 N   0  0  0  0  0  0  0  0  0  0  0  0
  161.0670  206.2720  151.7510 O   0  0  0  0  0  1  0  0  0  0  0  0
  161.2770  205.2560  151.0350 C   0  0  0  0  0  0  0  0  0  0  0  0
  161.8120  204.1130  151.6170 O   0  0  0  0  0  0  0  0  0  0  0  0
  2  7  1  0  0  0  0
  2  9  1  0  0  0  0
  3  6  1  0  0  0  0
  4  3  1  0  0  0  0
  5 12  2  0  0  0  0
  6  9  2  0  0  0  0
  7  8  2  0  0  0  0
  9  1  1  0  0  0  0
 10  3  1  0  0  0  0
 10  2  2  0  0  0  0
 11  5  1  1  0  0  0
 11 10  1  0  0  0  0
 12  7  1  0  0  0  0
 14 17  1  0  0  0  0
 15 19  1  6  0  0  0
 15 13  1  0  0  0  0
 15 16  1  0  0  0  0
 16 13  1  1  0  0  0
 16 17  1  0  0  0  0
 16 11  1  0  0  0  0
 18 15  1  0  0  0  0
 18 14  1  0  0  0  0
 20 21  1  0  0  0  0
 20  5  1  0  0  0  0
 22 21  1  0  0  0  0
 22 23  1  0  0  0  0
 23 25  1  0  0  0  0
 24 25  1  0  0  0  0
 25 27  1  0  0  0  0
 27 28  2  0  0  0  0
 27 26  1  0  0  0  0
M  END
>  <MODEL>
8

>  <REMARK>
 VINA RESULT:      -3.7      3.217      5.762
  Name = 
  6 active torsions:
  status: ('A' for Active; 'I' for Inactive)
    1  A    between atoms: C_1  and  O_7
    2  A    between atoms: C_1  and  C_27
    3  A    between atoms: O_7  and  C_11
    4  A    between atoms: C_14  and  N_16
    5  A    between atoms: C_14  and  C_27
    6  A    between atoms: C_15  and  C_24
                            x       y       z     vdW  Elec       q    Type
                         _______ _______ _______ _____ _____    ______ ____

>  <TORSDO>
F 6

$$$$
=
 OpenBabel11072411163D

 28 31  0  0  1  0  0  0  0  0999 V2000
  160.2190  212.0550  154.4900 N   0  0  0  0  0  1  0  0  0  0  0  0
  160.8110  211.4970  152.1290 C   0  0  0  0  0  0  0  0  0  0  0  0
  159.3800  212.8670  151.1650 N   0  0  0  0  0  0  0  0  0  0  0  0
  158.5670  213.5470  150.1730 C   0  0  0  0  0  1  0  0  0  0  0  0
  161.6400  210.1280  149.7590 C   0  0  0  0  0  0  0  0  0  0  0  0
  159.2380  213.0400  152.4730 N   0  0  0  0  0  0  0  0  0  0  0  0
  161.7460  210.3830  152.2180 C   0  0  0  0  0  0  0  0  0  0  0  0
  162.2150  209.9970  153.3210 O   0  0  0  0  0  0  0  0  0  0  0  0
  160.1140  212.2100  153.0780 C   0  0  0  0  0  0  0  0  0  0  0  0
  160.3270  211.9330  150.9310 C   0  0  0  0  0  0  0  0  0  0  0  0
  160.8270  211.4190  149.6020 C   0  0  1  0  0  3  0  0  0  0  0  0
  162.0840  209.6940  150.9620 C   0  0  0  0  0  3  0  0  0  0  0  0
  161.1180  213.8980  148.7870 C   0  0  0  0  0  2  0  0  0  0  0  0
  163.5840  212.4960  147.3910 C   0  0  0  0  0  2  0  0  0  0  0  0
  161.2170  213.0030  147.5650 C   0  0  2  0  0  0  0  0  0  0  0  0
  161.6850  212.4910  148.9090 C   0  0  2  0  0  0  0  0  0  0  0  0
  163.1990  212.3770  148.8580 C   0  0  0  0  0  2  0  0  0  0  0  0
  162.4290  213.1810  146.6760 C   0  0  0  0  0  2  0  0  0  0  0  0
  159.8970  212.5060  147.0000 C   0  0  0  0  0  1  0  0  0  0  0  0
  161.9470  209.4130  148.5940 O   0  0  0  0  0  0  0  0  0  0  0  0
  162.4390  208.0770  148.6020 C   0  0  0  0  0  2  0  0  0  0  0  0
  161.3290  207.1160  148.2110 C   0  0  0  0  0  2  0  0  0  0  0  0
  161.1660  206.0380  149.2700 C   0  0  0  0  0  2  0  0  0  0  0  0
  161.6460  204.5860  147.2810 C   0  0  0  0  0  1  0  0  0  0  0  0
  161.2040  204.7140  148.6610 N   0  0  0  0  0  0  0  0  0  0  0  0
  160.4680  203.6500  150.6090 O   0  0  0  0  0  1  0  0  0  0  0  0
  160.8580  203.5450  149.4160 C   0  0  0  0  0  0  0  0  0  0  0  0
  160.9470  202.2850  148.8370 O   0  0  0  0  0  0  0  0  0  0  0  0
  2  7  1  0  0  0  0
  2  9  1  0  0  0  0
  3  6  1  0  0  0  0
  4  3  1  0  0  0  0
  5 12  2  0  0  0  0
  6  9  2  0  0  0  0
  7  8  2  0  0  0  0
  9  1  1  0  0  0  0
 10  3  1  0  0  0  0
 10  2  2  0  0  0  0
 11  5  1  1  0  0  0
 11 10  1  0  0  0  0
 12  7  1  0  0  0  0
 14 17  1  0  0  0  0
 15 19  1  6  0  0  0
 15 13  1  0  0  0  0
 15 16  1  0  0  0  0
 16 13  1  1  0  0  0
 16 11  1  0  0  0  0
 17 16  1  0  0  0  0
 18 14  1  0  0  0  0
 18 15  1  0  0  0  0
 20 21  1  0  0  0  0
 20  5  1  0  0  0  0
 22 21  1  0  0  0  0
 22 23  1  0  0  0  0
 24 25  1  0  0  0  0
 25 23  1  0  0  0  0
 25 27  1  0  0  0  0
 27 26  1  0  0  0  0
 28 27  2  0  0  0  0
M  END
>  <MODEL>
9

>  <REMARK>
 VINA RESULT:      -3.7      3.222      5.803
  Name = 
  6 active torsions:
  status: ('A' for Active; 'I' for Inactive)
    1  A    between atoms: C_1  and  O_7
    2  A    between atoms: C_1  and  C_27
    3  A    between atoms: O_7  and  C_11
    4  A    between atoms: C_14  and  N_16
    5  A    between atoms: C_14  and  C_27
    6  A    between atoms: C_15  and  C_24
                            x       y       z     vdW  Elec       q    Type
                         _______ _______ _______ _____ _____    ______ ____

>  <TORSDO>
F 6

$$$$
