=
 OpenBabel11072412053D

 45 48  0  0  1  0  0  0  0  0999 V2000
  159.9470  212.0150  154.8700 O   0  0  0  0  0  0  0  0  0  0  0  0
  162.4850  209.3880  155.5590 O   0  0  0  0  0  1  0  0  0  0  0  0
  161.2680  210.3410  153.7510 C   0  0  2  0  0  3  0  0  0  0  0  0
  159.9900  211.1870  153.7210 C   0  0  2  0  0  3  0  0  0  0  0  0
  160.1070  209.7030  155.9130 C   0  0  2  0  0  3  0  0  0  0  0  0
  160.0430  211.1770  151.3130 O   0  0  0  0  0  0  0  0  0  0  0  0
  161.5070  209.6180  152.4310 C   0  0  0  0  0  2  0  0  0  0  0  0
  159.9980  212.0260  152.4400 C   0  0  1  0  0  3  0  0  0  0  0  0
  161.2420  209.3600  154.9210 C   0  0  2  0  0  3  0  0  0  0  0  0
  161.3320  210.6130  151.2730 C   0  0  1  0  0  3  0  0  0  0  0  0
  159.9770  211.2480  156.0850 C   0  0  2  0  0  3  0  0  0  0  0  0
  158.6120  213.1770  157.2150 C   0  0  1  0  0  3  0  0  0  0  0  0
  155.3510  211.9680  156.1410 N   0  0  0  0  0  1  0  0  0  0  0  0
  157.5400  211.1540  156.5750 N   0  0  0  0  0  0  0  0  0  0  0  0
  156.7110  212.1370  156.5270 C   0  0  0  0  0  0  0  0  0  0  0  0
  157.2450  213.3560  156.8820 O   0  0  0  0  0  0  0  0  0  0  0  0
  158.8340  211.6510  157.0360 C   0  0  1  0  0  3  0  0  0  0  0  0
  160.8070  214.4530  157.0940 C   0  0  0  0  0  1  0  0  0  0  0  0
  159.5040  214.1140  156.3890 C   0  0  0  0  0  2  0  0  0  0  0  0
  161.3480  207.8910  157.1150 C   0  0  0  0  0  2  0  0  0  0  0  0
  159.4960  207.0720  155.8630 O   0  0  0  0  0  1  0  0  0  0  0  0
  159.9020  207.4450  157.1500 C   0  0  2  0  0  3  0  0  0  0  0  0
  160.2550  208.9350  157.2370 C   0  0  2  0  0  3  0  0  0  0  0  0
  161.5970  209.9410  149.9230 C   0  0  1  0  0  3  0  0  0  0  0  0
  162.2040  210.8880  148.8930 C   0  0  0  0  0  1  0  0  0  0  0  0
  162.3620  208.6170  150.0430 C   0  0  0  0  0  2  0  0  0  0  0  0
  161.6360  207.4180  149.4310 C   0  0  2  0  0  3  0  0  0  0  0  0
  162.4770  206.1760  151.2880 O   0  0  0  0  0  0  0  0  0  0  0  0
  161.5590  206.3020  150.4300 C   0  0  0  0  0  0  0  0  0  0  0  0
  160.6810  204.0060  150.4910 C   0  0  0  0  0  1  0  0  0  0  0  0
  160.4870  205.4090  150.3850 O   0  0  0  0  0  0  0  0  0  0  0  0
  162.3420  206.9890  148.2730 O   0  0  0  0  0  0  0  0  0  0  0  0
  161.8140  206.0660  147.3630 C   0  0  0  0  0  0  0  0  0  0  0  0
  162.7340  205.2220  146.5580 C   0  0  0  0  0  1  0  0  0  0  0  0
  160.5680  205.9560  147.2040 O   0  0  0  0  0  0  0  0  0  0  0  0
  158.8030  212.9910  152.3680 C   0  0  1  0  0  3  0  0  0  0  0  0
  158.4730  213.2790  150.8950 C   0  0  2  0  0  3  0  0  0  0  0  0
  159.5320  214.0890  150.1920 C   0  0  0  0  0  0  0  0  0  0  0  0
  160.7070  214.4490  150.8420 O   0  0  0  0  0  1  0  0  0  0  0  0
  159.3640  214.4260  148.9880 O   0  0  0  0  0  0  0  0  0  0  0  0
  157.2210  213.9000  150.7700 O   0  0  0  0  0  0  0  0  0  0  0  0
  156.5450  213.1550  149.7970 C   0  0  0  0  0  1  0  0  0  0  0  0
  157.5720  212.4940  153.1460 C   0  0  0  0  0  2  0  0  0  0  0  0
  155.2900  213.2480  153.5150 N   0  0  0  0  0  1  0  0  0  0  0  0
  156.6820  213.6610  153.5260 C   0  0  0  0  0  2  0  0  0  0  0  0
  3  7  1  6  0  0  0
  3  9  1  0  0  0  0
  4  3  1  0  0  0  0
  4  1  1  1  0  0  0
  5 11  1  0  0  0  0
  5 23  1  1  0  0  0
  6  8  1  0  0  0  0
  8 36  1  6  0  0  0
  8  4  1  0  0  0  0
  9  2  1  1  0  0  0
  9  5  1  0  0  0  0
 10 24  1  6  0  0  0
 10  6  1  0  0  0  0
 10  7  1  0  0  0  0
 11  1  1  6  0  0  0
 11 17  1  0  0  0  0
 12 19  1  6  0  0  0
 13 15  1  0  0  0  0
 15 14  2  0  0  0  0
 15 16  1  0  0  0  0
 16 12  1  0  0  0  0
 17 14  1  6  0  0  0
 17 12  1  0  0  0  0
 19 18  1  0  0  0  0
 20 22  1  0  0  0  0
 22 21  1  6  0  0  0
 22 23  1  0  0  0  0
 23 20  1  6  0  0  0
 24 25  1  6  0  0  0
 24 26  1  0  0  0  0
 27 26  1  1  0  0  0
 27 29  1  0  0  0  0
 29 28  2  0  0  0  0
 31 29  1  0  0  0  0
 31 30  1  0  0  0  0
 32 27  1  0  0  0  0
 33 32  1  0  0  0  0
 34 33  1  0  0  0  0
 35 33  2  0  0  0  0
 36 43  1  6  0  0  0
 37 38  1  1  0  0  0
 37 36  1  0  0  0  0
 38 39  1  0  0  0  0
 40 38  2  0  0  0  0
 41 37  1  0  0  0  0
 42 41  1  0  0  0  0
 43 45  1  0  0  0  0
 44 45  1  0  0  0  0
M  END
>  <MODEL>
1

>  <REMARK>
 VINA RESULT:      -4.5      0.000      0.000
  Name = 
  16 active torsions:
  status: ('A' for Active; 'I' for Inactive)
    1  A    between atoms: C_3  and  C_23
    2  A    between atoms: C_6  and  C_28
    3  A    between atoms: C_6  and  O_33
    4  A    between atoms: C_6  and  C_36
    5  A    between atoms: O_9  and  C_23
    6  A    between atoms: C_12  and  C_30
    7  A    between atoms: C_15  and  C_28
    8  A    between atoms: C_15  and  C_41
    9  A    between atoms: C_17  and  C_35
   10  A    between atoms: C_21  and  C_26
   11  A    between atoms: C_22  and  O_33
   12  A    between atoms: C_23  and  C_42
   13  A    between atoms: C_26  and  C_42
   14  A    between atoms: C_32  and  C_42
   15  A    between atoms: C_36  and  O_37
   16  A    between atoms: C_44  and  C_45
                            x       y       z     vdW  Elec       q    Type
                         _______ _______ _______ _____ _____    ______ ____

>  <TORSDO>
F 16

$$$$
=
 OpenBabel11072412053D

 45 48  0  0  1  0  0  0  0  0999 V2000
  162.5850  210.0740  151.7330 O   0  0  0  0  0  0  0  0  0  0  0  0
  162.6990  206.6200  153.0990 O   0  0  0  0  0  1  0  0  0  0  0  0
  162.1220  207.7940  151.1130 C   0  0  2  0  0  3  0  0  0  0  0  0
  161.8050  209.2730  150.8640 C   0  0  2  0  0  3  0  0  0  0  0  0
  161.3330  208.6020  153.3830 C   0  0  2  0  0  3  0  0  0  0  0  0
  161.3260  208.7790  148.5560 O   0  0  0  0  0  0  0  0  0  0  0  0
  161.5140  206.8910  150.0470 C   0  0  0  0  0  2  0  0  0  0  0  0
  162.1150  209.5920  149.3980 C   0  0  1  0  0  3  0  0  0  0  0  0
  161.6780  207.3730  152.5120 C   0  0  2  0  0  3  0  0  0  0  0  0
  161.8290  207.4680  148.6590 C   0  0  1  0  0  3  0  0  0  0  0  0
  162.3370  209.7650  153.1150 C   0  0  2  0  0  3  0  0  0  0  0  0
  160.6340  211.6790  153.6580 C   0  0  1  0  0  3  0  0  0  0  0  0
  160.6130  211.1120  157.2540 N   0  0  0  0  0  1  0  0  0  0  0  0
  162.0150  210.7700  155.3670 N   0  0  0  0  0  0  0  0  0  0  0  0
  160.9070  211.1970  155.8640 C   0  0  0  0  0  0  0  0  0  0  0  0
  160.0380  211.7420  154.9440 O   0  0  0  0  0  0  0  0  0  0  0  0
  162.0190  211.0330  153.9290 C   0  0  1  0  0  3  0  0  0  0  0  0
  158.3680  211.6570  152.5050 C   0  0  0  0  0  1  0  0  0  0  0  0
  159.7110  210.9620  152.6630 C   0  0  0  0  0  2  0  0  0  0  0  0
  160.3710  206.9590  155.0090 C   0  0  0  0  0  2  0  0  0  0  0  0
  158.8390  208.6820  154.4180 O   0  0  0  0  0  1  0  0  0  0  0  0
  159.7520  208.2840  155.4010 C   0  0  2  0  0  3  0  0  0  0  0  0
  161.1900  208.2280  154.8680 C   0  0  2  0  0  3  0  0  0  0  0  0
  161.2680  206.5740  147.5490 C   0  0  1  0  0  3  0  0  0  0  0  0
  160.5850  207.3600  146.4360 C   0  0  0  0  0  1  0  0  0  0  0  0
  162.2800  205.5490  147.0240 C   0  0  0  0  0  2  0  0  0  0  0  0
  161.8480  204.0930  147.2040 C   0  0  2  0  0  3  0  0  0  0  0  0
  161.3500  204.2770  144.8770 O   0  0  0  0  0  0  0  0  0  0  0  0
  161.4080  203.5230  145.8890 C   0  0  0  0  0  0  0  0  0  0  0  0
  159.9740  201.7410  144.9890 C   0  0  0  0  0  1  0  0  0  0  0  0
  161.0500  202.1770  145.8060 O   0  0  0  0  0  0  0  0  0  0  0  0
  160.7790  204.0390  148.1420 O   0  0  0  0  0  0  0  0  0  0  0  0
  160.7540  203.1320  149.2080 C   0  0  0  0  0  0  0  0  0  0  0  0
  161.1660  203.5830  150.5630 C   0  0  0  0  0  1  0  0  0  0  0  0
  160.4050  201.9340  149.0300 O   0  0  0  0  0  0  0  0  0  0  0  0
  161.9280  211.0830  149.0740 C   0  0  1  0  0  3  0  0  0  0  0  0
  162.0450  211.2890  147.5550 C   0  0  2  0  0  3  0  0  0  0  0  0
  162.9360  212.4450  147.1750 C   0  0  0  0  0  0  0  0  0  0  0  0
  163.0310  212.8710  145.8560 O   0  0  0  0  0  0  0  0  0  0  0  0
  163.5850  213.0520  148.0690 O   0  0  0  0  0  1  0  0  0  0  0  0
  160.7810  211.4340  146.9660 O   0  0  0  0  0  0  0  0  0  0  0  0
  160.6890  212.7910  146.6370 C   0  0  0  0  0  1  0  0  0  0  0  0
  160.6200  211.6680  149.6340 C   0  0  0  0  0  2  0  0  0  0  0  0
  159.5990  213.8260  150.0930 N   0  0  0  0  0  1  0  0  0  0  0  0
  160.8460  213.0830  150.1280 C   0  0  0  0  0  2  0  0  0  0  0  0
  3  7  1  6  0  0  0
  3  9  1  0  0  0  0
  4  3  1  0  0  0  0
  4  1  1  1  0  0  0
  5 23  1  1  0  0  0
  6 10  1  0  0  0  0
  6  8  1  0  0  0  0
  8 36  1  6  0  0  0
  8  4  1  0  0  0  0
  9  2  1  1  0  0  0
  9  5  1  0  0  0  0
 10 24  1  6  0  0  0
 10  7  1  0  0  0  0
 11  1  1  6  0  0  0
 11  5  1  0  0  0  0
 11 17  1  0  0  0  0
 12 19  1  6  0  0  0
 12 17  1  0  0  0  0
 12 16  1  0  0  0  0
 14 15  2  0  0  0  0
 15 13  1  0  0  0  0
 16 15  1  0  0  0  0
 17 14  1  1  0  0  0
 18 19  1  0  0  0  0
 20 22  1  0  0  0  0
 22 21  1  6  0  0  0
 23 20  1  6  0  0  0
 23 22  1  0  0  0  0
 24 25  1  6  0  0  0
 26 24  1  0  0  0  0
 27 26  1  6  0  0  0
 27 32  1  0  0  0  0
 28 29  2  0  0  0  0
 29 27  1  0  0  0  0
 30 31  1  0  0  0  0
 31 29  1  0  0  0  0
 32 33  1  0  0  0  0
 33 34  1  0  0  0  0
 35 33  2  0  0  0  0
 36 43  1  6  0  0  0
 37 41  1  1  0  0  0
 37 36  1  0  0  0  0
 38 37  1  0  0  0  0
 38 40  1  0  0  0  0
 39 38  2  0  0  0  0
 42 41  1  0  0  0  0
 43 45  1  0  0  0  0
 44 45  1  0  0  0  0
M  END
>  <MODEL>
2

>  <REMARK>
 VINA RESULT:      -3.7      2.632      4.521
  Name = 
  16 active torsions:
  status: ('A' for Active; 'I' for Inactive)
    1  A    between atoms: C_3  and  C_23
    2  A    between atoms: C_6  and  C_28
    3  A    between atoms: C_6  and  O_33
    4  A    between atoms: C_6  and  C_36
    5  A    between atoms: O_9  and  C_23
    6  A    between atoms: C_12  and  C_30
    7  A    between atoms: C_15  and  C_28
    8  A    between atoms: C_15  and  C_41
    9  A    between atoms: C_17  and  C_35
   10  A    between atoms: C_21  and  C_26
   11  A    between atoms: C_22  and  O_33
   12  A    between atoms: C_23  and  C_42
   13  A    between atoms: C_26  and  C_42
   14  A    between atoms: C_32  and  C_42
   15  A    between atoms: C_36  and  O_37
   16  A    between atoms: C_44  and  C_45
                            x       y       z     vdW  Elec       q    Type
                         _______ _______ _______ _____ _____    ______ ____

>  <TORSDO>
F 16

$$$$
=
 OpenBabel11072412053D

 45 48  0  0  1  0  0  0  0  0999 V2000
  161.5000  209.1820  151.8270 O   0  0  0  0  0  0  0  0  0  0  0  0
  163.1850  207.7580  148.8360 O   0  0  0  0  0  1  0  0  0  0  0  0
  162.1000  209.7450  149.5630 C   0  0  2  0  0  3  0  0  0  0  0  0
  161.1460  210.0110  150.7340 C   0  0  2  0  0  3  0  0  0  0  0  0
  161.0800  207.4660  150.0010 C   0  0  2  0  0  3  0  0  0  0  0  0
  160.8920  212.2920  150.0050 O   0  0  0  0  0  0  0  0  0  0  0  0
  161.9410  210.7740  148.4500 C   0  0  0  0  0  2  0  0  0  0  0  0
  161.2480  211.4920  151.1110 C   0  0  1  0  0  3  0  0  0  0  0  0
  161.9230  208.3250  149.0320 C   0  0  2  0  0  3  0  0  0  0  0  0
  161.9330  212.1820  149.0630 C   0  0  1  0  0  3  0  0  0  0  0  0
  161.4470  207.7880  151.4820 C   0  0  2  0  0  3  0  0  0  0  0  0
  161.1440  205.5720  152.8450 C   0  0  1  0  0  3  0  0  0  0  0  0
  160.8740  207.1980  156.0910 N   0  0  0  0  0  1  0  0  0  0  0  0
  160.5240  207.6640  153.7880 N   0  0  0  0  0  0  0  0  0  0  0  0
  160.8790  206.8430  154.7120 C   0  0  0  0  0  0  0  0  0  0  0  0
  161.2590  205.5970  154.2590 O   0  0  0  0  0  0  0  0  0  0  0  0
  160.6100  206.9870  152.4960 C   0  0  1  0  0  3  0  0  0  0  0  0
  162.4210  203.7320  151.6410 C   0  0  0  0  0  1  0  0  0  0  0  0
  162.4700  205.1470  152.1970 C   0  0  0  0  0  2  0  0  0  0  0  0
  161.9580  205.7720  148.3800 C   0  0  0  0  0  2  0  0  0  0  0  0
  159.8720  206.7010  147.7090 O   0  0  0  0  0  1  0  0  0  0  0  0
  160.4550  205.5930  148.3350 C   0  0  2  0  0  3  0  0  0  0  0  0
  161.1520  205.9710  149.6490 C   0  0  2  0  0  3  0  0  0  0  0  0
  161.8110  213.2560  147.9790 C   0  0  1  0  0  3  0  0  0  0  0  0
  163.0730  214.0980  147.8260 C   0  0  0  0  0  1  0  0  0  0  0  0
  161.2870  212.7150  146.6440 C   0  0  0  0  0  2  0  0  0  0  0  0
  160.3420  213.6680  145.9090 C   0  0  2  0  0  3  0  0  0  0  0  0
  158.4180  212.4170  145.2530 O   0  0  0  0  0  0  0  0  0  0  0  0
  158.9220  213.2190  146.0880 C   0  0  0  0  0  0  0  0  0  0  0  0
  157.2340  212.8960  147.8460 C   0  0  0  0  0  1  0  0  0  0  0  0
  158.1740  213.7100  147.1590 O   0  0  0  0  0  0  0  0  0  0  0  0
  160.6790  213.6820  144.5270 O   0  0  0  0  0  0  0  0  0  0  0  0
  162.0010  213.6250  144.0710 C   0  0  0  0  0  0  0  0  0  0  0  0
  162.4010  212.5580  143.1160 C   0  0  0  0  0  1  0  0  0  0  0  0
  162.8610  214.4530  144.4740 O   0  0  0  0  0  0  0  0  0  0  0  0
  160.4040  211.8370  152.3490 C   0  0  1  0  0  3  0  0  0  0  0  0
  158.9400  212.0370  151.9240 C   0  0  2  0  0  3  0  0  0  0  0  0
  158.5750  213.4810  151.6940 C   0  0  0  0  0  0  0  0  0  0  0  0
  157.3330  213.8320  151.1790 O   0  0  0  0  0  0  0  0  0  0  0  0
  159.3970  214.3880  151.9970 O   0  0  0  0  0  1  0  0  0  0  0  0
  158.0620  211.4530  152.8490 O   0  0  0  0  0  0  0  0  0  0  0  0
  157.8240  212.4520  153.8000 C   0  0  0  0  0  1  0  0  0  0  0  0
  160.5380  210.8070  153.4830 C   0  0  0  0  0  2  0  0  0  0  0  0
  160.8240  210.6380  155.8920 N   0  0  0  0  0  1  0  0  0  0  0  0
  161.0960  211.4650  154.7290 C   0  0  0  0  0  2  0  0  0  0  0  0
  3  7  1  6  0  0  0
  3  4  1  0  0  0  0
  4  8  1  0  0  0  0
  4  1  1  1  0  0  0
  5 23  1  6  0  0  0
  5 11  1  0  0  0  0
  6  8  1  0  0  0  0
  7 10  1  0  0  0  0
  8 36  1  1  0  0  0
  9  2  1  1  0  0  0
  9  3  1  0  0  0  0
  9  5  1  0  0  0  0
 10 24  1  6  0  0  0
 10  6  1  0  0  0  0
 11  1  1  1  0  0  0
 11 17  1  0  0  0  0
 12 19  1  6  0  0  0
 12 16  1  0  0  0  0
 14 15  2  0  0  0  0
 15 13  1  0  0  0  0
 16 15  1  0  0  0  0
 17 12  1  0  0  0  0
 17 14  1  1  0  0  0
 18 19  1  0  0  0  0
 22 21  1  6  0  0  0
 22 20  1  0  0  0  0
 22 23  1  0  0  0  0
 23 20  1  6  0  0  0
 24 25  1  6  0  0  0
 26 24  1  0  0  0  0
 27 29  1  0  0  0  0
 27 26  1  1  0  0  0
 28 29  2  0  0  0  0
 29 31  1  0  0  0  0
 31 30  1  0  0  0  0
 32 27  1  0  0  0  0
 33 35  2  0  0  0  0
 33 32  1  0  0  0  0
 34 33  1  0  0  0  0
 36 43  1  1  0  0  0
 37 38  1  1  0  0  0
 37 36  1  0  0  0  0
 37 41  1  0  0  0  0
 38 40  1  0  0  0  0
 39 38  2  0  0  0  0
 41 42  1  0  0  0  0
 43 45  1  0  0  0  0
 45 44  1  0  0  0  0
M  END
>  <MODEL>
3

>  <REMARK>
 VINA RESULT:      -3.7      2.832      6.693
  Name = 
  16 active torsions:
  status: ('A' for Active; 'I' for Inactive)
    1  A    between atoms: C_3  and  C_23
    2  A    between atoms: C_6  and  C_28
    3  A    between atoms: C_6  and  O_33
    4  A    between atoms: C_6  and  C_36
    5  A    between atoms: O_9  and  C_23
    6  A    between atoms: C_12  and  C_30
    7  A    between atoms: C_15  and  C_28
    8  A    between atoms: C_15  and  C_41
    9  A    between atoms: C_17  and  C_35
   10  A    between atoms: C_21  and  C_26
   11  A    between atoms: C_22  and  O_33
   12  A    between atoms: C_23  and  C_42
   13  A    between atoms: C_26  and  C_42
   14  A    between atoms: C_32  and  C_42
   15  A    between atoms: C_36  and  O_37
   16  A    between atoms: C_44  and  C_45
                            x       y       z     vdW  Elec       q    Type
                         _______ _______ _______ _____ _____    ______ ____

>  <TORSDO>
F 16

$$$$
=
 OpenBabel11072412053D

 45 48  0  0  1  0  0  0  0  0999 V2000
  161.4480  206.4650  150.2650 O   0  0  0  0  0  0  0  0  0  0  0  0
  163.1510  206.4560  146.9620 O   0  0  0  0  0  1  0  0  0  0  0  0
  162.2500  207.9670  148.5620 C   0  0  2  0  0  3  0  0  0  0  0  0
  161.2600  207.7550  149.7130 C   0  0  2  0  0  3  0  0  0  0  0  0
  160.9560  205.9120  147.8350 C   0  0  2  0  0  3  0  0  0  0  0  0
  161.3090  210.1170  150.1850 O   0  0  0  0  0  0  0  0  0  0  0  0
  162.2780  209.4160  148.0900 C   0  0  0  0  0  2  0  0  0  0  0  0
  161.5020  208.8430  150.7630 C   0  0  1  0  0  3  0  0  0  0  0  0
  161.9500  207.0150  147.4060 C   0  0  2  0  0  3  0  0  0  0  0  0
  162.3890  210.3410  149.3110 C   0  0  1  0  0  3  0  0  0  0  0  0
  161.2620  205.4290  149.2860 C   0  0  2  0  0  3  0  0  0  0  0  0
  160.5390  202.9120  149.2690 C   0  0  1  0  0  3  0  0  0  0  0  0
  160.5220  202.5340  152.8900 N   0  0  0  0  0  1  0  0  0  0  0  0
  160.2980  204.2250  151.2370 N   0  0  0  0  0  0  0  0  0  0  0  0
  160.4830  202.9890  151.5410 C   0  0  0  0  0  0  0  0  0  0  0  0
  160.6350  202.1470  150.4600 O   0  0  0  0  0  0  0  0  0  0  0  0
  160.2770  204.3540  149.7810 C   0  0  1  0  0  3  0  0  0  0  0  0
  161.7290  201.3810  147.6260 C   0  0  0  0  0  1  0  0  0  0  0  0
  161.7730  202.6990  148.3820 C   0  0  0  0  0  2  0  0  0  0  0  0
  161.7700  205.0960  145.6120 C   0  0  0  0  0  2  0  0  0  0  0  0
  159.8750  206.5270  145.4360 O   0  0  0  0  0  1  0  0  0  0  0  0
  160.2660  205.1830  145.4540 C   0  0  2  0  0  3  0  0  0  0  0  0
  160.8820  204.7770  146.8000 C   0  0  2  0  0  3  0  0  0  0  0  0
  162.4570  211.8100  148.8850 C   0  0  1  0  0  3  0  0  0  0  0  0
  163.6910  212.1350  148.0500 C   0  0  0  0  0  1  0  0  0  0  0  0
  161.1560  212.3220  148.2550 C   0  0  0  0  0  2  0  0  0  0  0  0
  161.0140  213.8450  148.2630 C   0  0  2  0  0  3  0  0  0  0  0  0
  159.9580  214.3670  150.3390 O   0  0  0  0  0  0  0  0  0  0  0  0
  159.8270  214.2440  149.0890 C   0  0  0  0  0  0  0  0  0  0  0  0
  157.5420  213.5040  148.5650 C   0  0  0  0  0  1  0  0  0  0  0  0
  158.5950  214.4530  148.4690 O   0  0  0  0  0  0  0  0  0  0  0  0
  160.8540  214.3030  146.9250 O   0  0  0  0  0  0  0  0  0  0  0  0
  160.8290  213.4360  145.8270 C   0  0  0  0  0  0  0  0  0  0  0  0
  159.5540  212.7770  145.4420 C   0  0  0  0  0  1  0  0  0  0  0  0
  161.8780  213.1900  145.1730 O   0  0  0  0  0  0  0  0  0  0  0  0
  160.6250  208.6550  152.0110 C   0  0  1  0  0  3  0  0  0  0  0  0
  161.5080  208.2210  153.1910 C   0  0  2  0  0  3  0  0  0  0  0  0
  161.7840  206.7390  153.2190 C   0  0  0  0  0  0  0  0  0  0  0  0
  160.9610  205.8710  153.9280 O   0  0  0  0  0  1  0  0  0  0  0  0
  162.7590  206.2730  152.5690 O   0  0  0  0  0  0  0  0  0  0  0  0
  160.9600  208.6380  154.4130 O   0  0  0  0  0  0  0  0  0  0  0  0
  162.0560  209.0680  155.1710 C   0  0  0  0  0  1  0  0  0  0  0  0
  159.7780  209.8940  152.3530 C   0  0  0  0  0  2  0  0  0  0  0  0
  159.8850  212.2000  153.1140 N   0  0  0  0  0  1  0  0  0  0  0  0
  160.6740  211.0870  152.6160 C   0  0  0  0  0  2  0  0  0  0  0  0
  3  7  1  6  0  0  0
  3  4  1  0  0  0  0
  4  1  1  1  0  0  0
  4  8  1  0  0  0  0
  5 23  1  6  0  0  0
  5 11  1  0  0  0  0
  6  8  1  0  0  0  0
  7 10  1  0  0  0  0
  8 36  1  1  0  0  0
  9  2  1  1  0  0  0
  9  5  1  0  0  0  0
  9  3  1  0  0  0  0
 10 24  1  6  0  0  0
 10  6  1  0  0  0  0
 11 17  1  0  0  0  0
 11  1  1  1  0  0  0
 12 19  1  1  0  0  0
 12 17  1  0  0  0  0
 12 16  1  0  0  0  0
 14 15  2  0  0  0  0
 15 13  1  0  0  0  0
 16 15  1  0  0  0  0
 17 14  1  1  0  0  0
 18 19  1  0  0  0  0
 22 21  1  1  0  0  0
 22 20  1  0  0  0  0
 22 23  1  0  0  0  0
 23 20  1  6  0  0  0
 24 25  1  6  0  0  0
 26 24  1  0  0  0  0
 27 26  1  6  0  0  0
 27 29  1  0  0  0  0
 29 28  2  0  0  0  0
 31 30  1  0  0  0  0
 31 29  1  0  0  0  0
 32 27  1  0  0  0  0
 33 32  1  0  0  0  0
 34 33  1  0  0  0  0
 35 33  2  0  0  0  0
 36 43  1  1  0  0  0
 36 37  1  0  0  0  0
 37 38  1  1  0  0  0
 37 41  1  0  0  0  0
 38 39  1  0  0  0  0
 40 38  2  0  0  0  0
 41 42  1  0  0  0  0
 43 45  1  0  0  0  0
 45 44  1  0  0  0  0
M  END
>  <MODEL>
4

>  <REMARK>
 VINA RESULT:      -3.4      3.015      8.668
  Name = 
  16 active torsions:
  status: ('A' for Active; 'I' for Inactive)
    1  A    between atoms: C_3  and  C_23
    2  A    between atoms: C_6  and  C_28
    3  A    between atoms: C_6  and  O_33
    4  A    between atoms: C_6  and  C_36
    5  A    between atoms: O_9  and  C_23
    6  A    between atoms: C_12  and  C_30
    7  A    between atoms: C_15  and  C_28
    8  A    between atoms: C_15  and  C_41
    9  A    between atoms: C_17  and  C_35
   10  A    between atoms: C_21  and  C_26
   11  A    between atoms: C_22  and  O_33
   12  A    between atoms: C_23  and  C_42
   13  A    between atoms: C_26  and  C_42
   14  A    between atoms: C_32  and  C_42
   15  A    between atoms: C_36  and  O_37
   16  A    between atoms: C_44  and  C_45
                            x       y       z     vdW  Elec       q    Type
                         _______ _______ _______ _____ _____    ______ ____

>  <TORSDO>
F 16

$$$$
=
 OpenBabel11072412053D

 45 48  0  0  1  0  0  0  0  0999 V2000
  161.1770  208.1330  151.9130 O   0  0  0  0  0  0  0  0  0  0  0  0
  162.3000  206.1880  154.8740 O   0  0  0  0  0  1  0  0  0  0  0  0
  161.5470  205.8670  152.6410 C   0  0  2  0  0  3  0  0  0  0  0  0
  160.7850  206.7920  151.6840 C   0  0  2  0  0  3  0  0  0  0  0  0
  160.3380  207.4480  154.2120 C   0  0  2  0  0  3  0  0  0  0  0  0
  160.7010  205.0250  150.0490 O   0  0  0  0  0  0  0  0  0  0  0  0
  161.3670  204.3980  152.2810 C   0  0  0  0  0  2  0  0  0  0  0  0
  161.1000  206.3640  150.2480 C   0  0  1  0  0  3  0  0  0  0  0  0
  161.1450  206.1360  154.0890 C   0  0  2  0  0  3  0  0  0  0  0  0
  161.5960  204.2160  150.7730 C   0  0  1  0  0  3  0  0  0  0  0  0
  160.9230  208.5430  153.2670 C   0  0  2  0  0  3  0  0  0  0  0  0
  160.7520  210.9850  154.1980 C   0  0  1  0  0  3  0  0  0  0  0  0
  160.3830  212.5700  150.9420 N   0  0  0  0  0  1  0  0  0  0  0  0
  160.0080  210.4760  151.9980 N   0  0  0  0  0  0  0  0  0  0  0  0
  160.4110  211.6960  152.0660 C   0  0  0  0  0  0  0  0  0  0  0  0
  160.8640  212.0840  153.3080 O   0  0  0  0  0  0  0  0  0  0  0  0
  160.1350  209.8640  153.3190 C   0  0  1  0  0  3  0  0  0  0  0  0
  162.0730  210.9180  156.3700 C   0  0  0  0  0  1  0  0  0  0  0  0
  162.1010  210.6850  154.8670 C   0  0  0  0  0  2  0  0  0  0  0  0
  160.3810  206.7100  156.6040 C   0  0  0  0  0  2  0  0  0  0  0  0
  158.2450  206.4390  155.5880 O   0  0  0  0  0  1  0  0  0  0  0  0
  158.9940  207.2870  156.4120 C   0  0  2  0  0  3  0  0  0  0  0  0
  160.1950  207.8950  155.6760 C   0  0  2  0  0  3  0  0  0  0  0  0
  161.4620  202.7460  150.3680 C   0  0  1  0  0  3  0  0  0  0  0  0
  161.4340  201.7960  151.5610 C   0  0  0  0  0  1  0  0  0  0  0  0
  160.3230  202.4910  149.3730 C   0  0  0  0  0  2  0  0  0  0  0  0
  160.7750  202.3890  147.9160 C   0  0  2  0  0  3  0  0  0  0  0  0
  161.5890  200.2330  148.5330 O   0  0  0  0  0  0  0  0  0  0  0  0
  161.1780  200.9800  147.6020 C   0  0  0  0  0  0  0  0  0  0  0  0
  160.0470  200.8860  145.4210 C   0  0  0  0  0  1  0  0  0  0  0  0
  161.1140  200.5210  146.2850 O   0  0  0  0  0  0  0  0  0  0  0  0
  161.8730  203.2700  147.7080 O   0  0  0  0  0  0  0  0  0  0  0  0
  162.2190  203.7630  146.4450 C   0  0  0  0  0  0  0  0  0  0  0  0
  163.4970  204.5010  146.2710 C   0  0  0  0  0  1  0  0  0  0  0  0
  161.4510  203.6070  145.4570 O   0  0  0  0  0  0  0  0  0  0  0  0
  160.4630  207.3000  149.2080 C   0  0  1  0  0  3  0  0  0  0  0  0
  161.5220  208.2920  148.7020 C   0  0  2  0  0  3  0  0  0  0  0  0
  162.9270  207.7470  148.7570 C   0  0  0  0  0  0  0  0  0  0  0  0
  163.5560  207.5130  149.9740 O   0  0  0  0  0  1  0  0  0  0  0  0
  163.5340  207.4760  147.6860 O   0  0  0  0  0  0  0  0  0  0  0  0
  161.4440  209.5100  149.3920 O   0  0  0  0  0  0  0  0  0  0  0  0
  161.9510  210.4630  148.5010 C   0  0  0  0  0  1  0  0  0  0  0  0
  159.7800  206.5490  148.0510 C   0  0  0  0  0  2  0  0  0  0  0  0
  159.8100  206.2640  145.6370 N   0  0  0  0  0  1  0  0  0  0  0  0
  160.6010  206.6750  146.7830 C   0  0  0  0  0  2  0  0  0  0  0  0
  3  7  1  6  0  0  0
  3  9  1  0  0  0  0
  4  1  1  6  0  0  0
  4  3  1  0  0  0  0
  5 23  1  1  0  0  0
  6  8  1  0  0  0  0
  6 10  1  0  0  0  0
  8 36  1  6  0  0  0
  8  4  1  0  0  0  0
  9  5  1  0  0  0  0
  9  2  1  1  0  0  0
 10 24  1  6  0  0  0
 10  7  1  0  0  0  0
 11  1  1  6  0  0  0
 11 17  1  0  0  0  0
 11  5  1  0  0  0  0
 12 19  1  6  0  0  0
 13 15  1  0  0  0  0
 14 15  2  0  0  0  0
 15 16  1  0  0  0  0
 16 12  1  0  0  0  0
 17 14  1  6  0  0  0
 17 12  1  0  0  0  0
 19 18  1  0  0  0  0
 22 21  1  6  0  0  0
 22 20  1  0  0  0  0
 23 22  1  0  0  0  0
 23 20  1  1  0  0  0
 24 25  1  1  0  0  0
 26 24  1  0  0  0  0
 27 26  1  1  0  0  0
 29 27  1  0  0  0  0
 29 28  2  0  0  0  0
 30 31  1  0  0  0  0
 31 29  1  0  0  0  0
 32 27  1  0  0  0  0
 33 32  1  0  0  0  0
 34 33  1  0  0  0  0
 35 33  2  0  0  0  0
 36 43  1  6  0  0  0
 37 38  1  1  0  0  0
 37 36  1  0  0  0  0
 37 41  1  0  0  0  0
 38 39  1  0  0  0  0
 40 38  2  0  0  0  0
 42 41  1  0  0  0  0
 44 45  1  0  0  0  0
 45 43  1  0  0  0  0
M  END
>  <MODEL>
5

>  <REMARK>
 VINA RESULT:      -3.2      3.115      5.840
  Name = 
  16 active torsions:
  status: ('A' for Active; 'I' for Inactive)
    1  A    between atoms: C_3  and  C_23
    2  A    between atoms: C_6  and  C_28
    3  A    between atoms: C_6  and  O_33
    4  A    between atoms: C_6  and  C_36
    5  A    between atoms: O_9  and  C_23
    6  A    between atoms: C_12  and  C_30
    7  A    between atoms: C_15  and  C_28
    8  A    between atoms: C_15  and  C_41
    9  A    between atoms: C_17  and  C_35
   10  A    between atoms: C_21  and  C_26
   11  A    between atoms: C_22  and  O_33
   12  A    between atoms: C_23  and  C_42
   13  A    between atoms: C_26  and  C_42
   14  A    between atoms: C_32  and  C_42
   15  A    between atoms: C_36  and  O_37
   16  A    between atoms: C_44  and  C_45
                            x       y       z     vdW  Elec       q    Type
                         _______ _______ _______ _____ _____    ______ ____

>  <TORSDO>
F 16

$$$$
=
 OpenBabel11072412053D

 45 48  0  0  1  0  0  0  0  0999 V2000
  159.9740  211.1850  151.2490 O   0  0  0  0  0  0  0  0  0  0  0  0
  160.7240  211.0850  147.6100 O   0  0  0  0  0  1  0  0  0  0  0  0
  161.2330  209.9280  149.6250 C   0  0  2  0  0  3  0  0  0  0  0  0
  161.1040  210.3450  151.0950 C   0  0  2  0  0  3  0  0  0  0  0  0
  161.3250  212.4600  149.5140 C   0  0  2  0  0  3  0  0  0  0  0  0
  162.1030  208.2600  151.7700 O   0  0  0  0  0  0  0  0  0  0  0  0
  162.2680  208.8270  149.4310 C   0  0  0  0  0  2  0  0  0  0  0  0
  160.9660  209.0780  151.9440 C   0  0  1  0  0  3  0  0  0  0  0  0
  161.5390  211.1370  148.7440 C   0  0  2  0  0  3  0  0  0  0  0  0
  162.0300  207.7230  150.4720 C   0  0  1  0  0  3  0  0  0  0  0  0
  160.0660  212.3640  150.4310 C   0  0  2  0  0  3  0  0  0  0  0  0
  158.4360  214.3130  151.0660 C   0  0  1  0  0  3  0  0  0  0  0  0
  158.6360  213.7730  154.6600 N   0  0  0  0  0  1  0  0  0  0  0  0
  159.9070  213.3910  152.6900 N   0  0  0  0  0  0  0  0  0  0  0  0
  158.8410  213.8420  153.2530 C   0  0  0  0  0  0  0  0  0  0  0  0
  157.9250  214.3970  152.3860 O   0  0  0  0  0  0  0  0  0  0  0  0
  159.8240  213.6430  151.2530 C   0  0  1  0  0  3  0  0  0  0  0  0
  157.5940  214.0240  148.6840 C   0  0  0  0  0  1  0  0  0  0  0  0
  157.4380  213.6060  150.1380 C   0  0  0  0  0  2  0  0  0  0  0  0
  161.5480  213.2260  147.1410 C   0  0  0  0  0  2  0  0  0  0  0  0
  163.6450  213.0180  148.2490 O   0  0  0  0  0  1  0  0  0  0  0  0
  162.6620  213.9420  147.8750 C   0  0  2  0  0  3  0  0  0  0  0  0
  161.3210  213.6750  148.5720 C   0  0  2  0  0  3  0  0  0  0  0  0
  163.0260  206.5730  150.2940 C   0  0  1  0  0  3  0  0  0  0  0  0
  163.4550  205.9440  151.6150 C   0  0  0  0  0  1  0  0  0  0  0  0
  162.5800  205.5380  149.2540 C   0  0  0  0  0  2  0  0  0  0  0  0
  161.0850  205.2180  149.2900 C   0  0  2  0  0  3  0  0  0  0  0  0
  160.9240  203.6110  151.0470 O   0  0  0  0  0  0  0  0  0  0  0  0
  160.8720  203.8250  149.8040 C   0  0  0  0  0  0  0  0  0  0  0  0
  160.1650  201.5190  149.3330 C   0  0  0  0  0  1  0  0  0  0  0  0
  160.6410  202.7860  148.9020 O   0  0  0  0  0  0  0  0  0  0  0  0
  160.5530  205.3410  147.9760 O   0  0  0  0  0  0  0  0  0  0  0  0
  161.3570  205.3400  146.8310 C   0  0  0  0  0  0  0  0  0  0  0  0
  160.9990  206.2150  145.6840 C   0  0  0  0  0  1  0  0  0  0  0  0
  162.3710  204.5950  146.7520 O   0  0  0  0  0  0  0  0  0  0  0  0
  160.7260  209.3960  153.4300 C   0  0  1  0  0  3  0  0  0  0  0  0
  160.4380  208.0890  154.1860 C   0  0  2  0  0  3  0  0  0  0  0  0
  159.5340  208.2750  155.3780 C   0  0  0  0  0  0  0  0  0  0  0  0
  158.8940  209.4860  155.6090 O   0  0  0  0  0  0  0  0  0  0  0  0
  159.3340  207.3100  156.1650 O   0  0  0  0  0  1  0  0  0  0  0  0
  161.6290  207.4560  154.5720 O   0  0  0  0  0  0  0  0  0  0  0  0
  161.4960  206.1360  154.1250 C   0  0  0  0  0  1  0  0  0  0  0  0
  161.8720  210.1930  154.0750 C   0  0  0  0  0  2  0  0  0  0  0  0
  161.7300  210.7930  156.4260 N   0  0  0  0  0  1  0  0  0  0  0  0
  161.3240  211.1790  155.0870 C   0  0  0  0  0  2  0  0  0  0  0  0
  3  7  1  1  0  0  0
  3  4  1  0  0  0  0
  4  1  1  6  0  0  0
  4  8  1  0  0  0  0
  5 23  1  6  0  0  0
  5 11  1  0  0  0  0
  6  8  1  0  0  0  0
  7 10  1  0  0  0  0
  8 36  1  1  0  0  0
  9  2  1  6  0  0  0
  9  5  1  0  0  0  0
  9  3  1  0  0  0  0
 10 24  1  1  0  0  0
 10  6  1  0  0  0  0
 11  1  1  1  0  0  0
 11 17  1  0  0  0  0
 12 19  1  6  0  0  0
 12 17  1  0  0  0  0
 12 16  1  0  0  0  0
 14 15  2  0  0  0  0
 15 13  1  0  0  0  0
 16 15  1  0  0  0  0
 17 14  1  1  0  0  0
 18 19  1  0  0  0  0
 20 22  1  0  0  0  0
 22 21  1  1  0  0  0
 22 23  1  0  0  0  0
 23 20  1  6  0  0  0
 24 25  1  1  0  0  0
 26 24  1  0  0  0  0
 27 26  1  6  0  0  0
 27 29  1  0  0  0  0
 29 28  2  0  0  0  0
 31 30  1  0  0  0  0
 31 29  1  0  0  0  0
 32 27  1  0  0  0  0
 33 32  1  0  0  0  0
 34 33  1  0  0  0  0
 35 33  2  0  0  0  0
 36 43  1  1  0  0  0
 36 37  1  0  0  0  0
 37 41  1  1  0  0  0
 37 38  1  0  0  0  0
 38 39  2  0  0  0  0
 38 40  1  0  0  0  0
 42 41  1  0  0  0  0
 43 45  1  0  0  0  0
 45 44  1  0  0  0  0
M  END
>  <MODEL>
6

>  <REMARK>
 VINA RESULT:      -2.7      2.304      6.141
  Name = 
  16 active torsions:
  status: ('A' for Active; 'I' for Inactive)
    1  A    between atoms: C_3  and  C_23
    2  A    between atoms: C_6  and  C_28
    3  A    between atoms: C_6  and  O_33
    4  A    between atoms: C_6  and  C_36
    5  A    between atoms: O_9  and  C_23
    6  A    between atoms: C_12  and  C_30
    7  A    between atoms: C_15  and  C_28
    8  A    between atoms: C_15  and  C_41
    9  A    between atoms: C_17  and  C_35
   10  A    between atoms: C_21  and  C_26
   11  A    between atoms: C_22  and  O_33
   12  A    between atoms: C_23  and  C_42
   13  A    between atoms: C_26  and  C_42
   14  A    between atoms: C_32  and  C_42
   15  A    between atoms: C_36  and  O_37
   16  A    between atoms: C_44  and  C_45
                            x       y       z     vdW  Elec       q    Type
                         _______ _______ _______ _____ _____    ______ ____

>  <TORSDO>
F 16

$$$$
=
 OpenBabel11072412053D

 45 48  0  0  1  0  0  0  0  0999 V2000
  161.9330  206.4460  150.2960 O   0  0  0  0  0  0  0  0  0  0  0  0
  162.7520  206.5210  146.6710 O   0  0  0  0  0  1  0  0  0  0  0  0
  162.2340  207.9880  148.4700 C   0  0  2  0  0  3  0  0  0  0  0  0
  161.5710  207.7340  149.8290 C   0  0  2  0  0  3  0  0  0  0  0  0
  160.8640  205.8950  148.0570 C   0  0  2  0  0  3  0  0  0  0  0  0
  161.6630  210.0920  150.3120 O   0  0  0  0  0  0  0  0  0  0  0  0
  162.0980  209.4410  148.0300 C   0  0  0  0  0  2  0  0  0  0  0  0
  162.0340  208.8210  150.8020 C   0  0  1  0  0  3  0  0  0  0  0  0
  161.6840  207.0350  147.4110 C   0  0  2  0  0  3  0  0  0  0  0  0
  162.4810  210.3600  149.1990 C   0  0  1  0  0  3  0  0  0  0  0  0
  161.5400  205.4130  149.3780 C   0  0  2  0  0  3  0  0  0  0  0  0
  160.7470  202.9170  149.3820 C   0  0  1  0  0  3  0  0  0  0  0  0
  161.9850  202.1670  152.7220 N   0  0  0  0  0  1  0  0  0  0  0  0
  161.2700  204.0210  151.4210 N   0  0  0  0  0  0  0  0  0  0  0  0
  161.4950  202.7590  151.5240 C   0  0  0  0  0  0  0  0  0  0  0  0
  161.2210  202.0320  150.3850 O   0  0  0  0  0  0  0  0  0  0  0  0
  160.7450  204.3000  150.0860 C   0  0  1  0  0  3  0  0  0  0  0  0
  161.2910  201.4990  147.3430 C   0  0  0  0  0  1  0  0  0  0  0  0
  161.5800  202.7860  148.1000 C   0  0  0  0  0  2  0  0  0  0  0  0
  161.4170  204.9400  145.8100 C   0  0  0  0  0  2  0  0  0  0  0  0
  159.7320  206.6190  145.7140 O   0  0  0  0  0  1  0  0  0  0  0  0
  159.9330  205.2340  145.7400 C   0  0  2  0  0  3  0  0  0  0  0  0
  160.5700  204.7660  147.0550 C   0  0  2  0  0  3  0  0  0  0  0  0
  162.3940  211.8340  148.7930 C   0  0  1  0  0  3  0  0  0  0  0  0
  163.4720  212.2450  147.7960 C   0  0  0  0  0  1  0  0  0  0  0  0
  160.9860  212.2650  148.3650 C   0  0  0  0  0  2  0  0  0  0  0  0
  160.9630  213.2980  147.2370 C   0  0  2  0  0  3  0  0  0  0  0  0
  159.2540  214.4510  148.4400 O   0  0  0  0  0  0  0  0  0  0  0  0
  159.7030  214.1080  147.3110 C   0  0  0  0  0  0  0  0  0  0  0  0
  157.7580  213.9170  145.8200 C   0  0  0  0  0  1  0  0  0  0  0  0
  159.0360  214.4520  146.1340 O   0  0  0  0  0  0  0  0  0  0  0  0
  161.0380  212.6220  145.9880 O   0  0  0  0  0  0  0  0  0  0  0  0
  161.4260  213.2620  144.8050 C   0  0  0  0  0  0  0  0  0  0  0  0
  160.7620  212.9000  143.5250 C   0  0  0  0  0  1  0  0  0  0  0  0
  162.3430  214.1260  144.8070 O   0  0  0  0  0  0  0  0  0  0  0  0
  161.5040  208.5930  152.2270 C   0  0  1  0  0  3  0  0  0  0  0  0
  161.0010  209.9270  152.8010 C   0  0  2  0  0  3  0  0  0  0  0  0
  161.2620  210.0800  154.2770 C   0  0  0  0  0  0  0  0  0  0  0  0
  160.3260  209.6630  155.2160 O   0  0  0  0  0  1  0  0  0  0  0  0
  162.3550  210.5710  154.6710 O   0  0  0  0  0  0  0  0  0  0  0  0
  159.6390  210.1150  152.5240 O   0  0  0  0  0  0  0  0  0  0  0  0
  159.4630  211.5030  152.5040 C   0  0  0  0  0  1  0  0  0  0  0  0
  160.4320  207.4930  152.3080 C   0  0  0  0  0  2  0  0  0  0  0  0
  162.0110  206.2080  153.6370 N   0  0  0  0  0  1  0  0  0  0  0  0
  160.6310  206.6530  153.5540 C   0  0  0  0  0  2  0  0  0  0  0  0
  3  7  1  6  0  0  0
  3  4  1  0  0  0  0
  4  1  1  1  0  0  0
  4  8  1  0  0  0  0
  5 23  1  6  0  0  0
  5 11  1  0  0  0  0
  6  8  1  0  0  0  0
  7 10  1  0  0  0  0
  8 36  1  1  0  0  0
  9  2  1  1  0  0  0
  9  5  1  0  0  0  0
  9  3  1  0  0  0  0
 10 24  1  6  0  0  0
 10  6  1  0  0  0  0
 11 17  1  0  0  0  0
 11  1  1  1  0  0  0
 12 19  1  6  0  0  0
 12 17  1  0  0  0  0
 12 16  1  0  0  0  0
 14 15  2  0  0  0  0
 15 13  1  0  0  0  0
 16 15  1  0  0  0  0
 17 14  1  1  0  0  0
 18 19  1  0  0  0  0
 22 21  1  1  0  0  0
 22 20  1  0  0  0  0
 22 23  1  0  0  0  0
 23 20  1  6  0  0  0
 24 25  1  6  0  0  0
 26 24  1  0  0  0  0
 27 29  1  0  0  0  0
 27 26  1  1  0  0  0
 29 28  2  0  0  0  0
 30 31  1  0  0  0  0
 31 29  1  0  0  0  0
 32 27  1  0  0  0  0
 33 35  2  0  0  0  0
 33 32  1  0  0  0  0
 34 33  1  0  0  0  0
 36 43  1  6  0  0  0
 36 37  1  0  0  0  0
 37 41  1  1  0  0  0
 37 38  1  0  0  0  0
 38 40  2  0  0  0  0
 38 39  1  0  0  0  0
 42 41  1  0  0  0  0
 43 45  1  0  0  0  0
 45 44  1  0  0  0  0
M  END
>  <MODEL>
7

>  <REMARK>
 VINA RESULT:      -2.6      3.453      8.691
  Name = 
  16 active torsions:
  status: ('A' for Active; 'I' for Inactive)
    1  A    between atoms: C_3  and  C_23
    2  A    between atoms: C_6  and  C_28
    3  A    between atoms: C_6  and  O_33
    4  A    between atoms: C_6  and  C_36
    5  A    between atoms: O_9  and  C_23
    6  A    between atoms: C_12  and  C_30
    7  A    between atoms: C_15  and  C_28
    8  A    between atoms: C_15  and  C_41
    9  A    between atoms: C_17  and  C_35
   10  A    between atoms: C_21  and  C_26
   11  A    between atoms: C_22  and  O_33
   12  A    between atoms: C_23  and  C_42
   13  A    between atoms: C_26  and  C_42
   14  A    between atoms: C_32  and  C_42
   15  A    between atoms: C_36  and  O_37
   16  A    between atoms: C_44  and  C_45
                            x       y       z     vdW  Elec       q    Type
                         _______ _______ _______ _____ _____    ______ ____

>  <TORSDO>
F 16

$$$$
=
 OpenBabel11072412053D

 45 48  0  0  1  0  0  0  0  0999 V2000
  162.2960  208.5760  152.3420 O   0  0  0  0  0  0  0  0  0  0  0  0
  163.0730  209.5700  148.8460 O   0  0  0  0  0  1  0  0  0  0  0  0
  161.6690  210.1860  150.6640 C   0  0  2  0  0  3  0  0  0  0  0  0
  161.2380  209.4190  151.9200 C   0  0  2  0  0  3  0  0  0  0  0  0
  161.9120  207.7610  149.9660 C   0  0  2  0  0  3  0  0  0  0  0  0
  159.8270  211.2630  152.5580 O   0  0  0  0  0  0  0  0  0  0  0  0
  160.6850  211.2930  150.3040 C   0  0  0  0  0  2  0  0  0  0  0  0
  160.8790  210.4370  153.0060 C   0  0  1  0  0  3  0  0  0  0  0  0
  161.8810  209.2310  149.4910 C   0  0  2  0  0  3  0  0  0  0  0  0
  160.3580  212.1060  151.5650 C   0  0  1  0  0  3  0  0  0  0  0  0
  162.6730  207.6370  151.3220 C   0  0  2  0  0  3  0  0  0  0  0  0
  161.7480  205.9010  153.0510 C   0  0  1  0  0  3  0  0  0  0  0  0
  160.8070  203.4100  150.5680 N   0  0  0  0  0  1  0  0  0  0  0  0
  162.3180  205.2220  150.8450 N   0  0  0  0  0  0  0  0  0  0  0  0
  161.3790  204.4790  151.3150 C   0  0  0  0  0  0  0  0  0  0  0  0
  160.9800  204.7990  152.5950 O   0  0  0  0  0  0  0  0  0  0  0  0
  162.7040  206.1960  151.8640 C   0  0  1  0  0  3  0  0  0  0  0  0
  160.0810  206.7100  154.7910 C   0  0  0  0  0  1  0  0  0  0  0  0
  160.8380  207.0460  153.5160 C   0  0  0  0  0  2  0  0  0  0  0  0
  161.9080  207.2570  147.5140 C   0  0  0  0  0  2  0  0  0  0  0  0
  160.0610  206.2880  148.6610 O   0  0  0  0  0  1  0  0  0  0  0  0
  161.3370  206.0100  148.1560 C   0  0  2  0  0  3  0  0  0  0  0  0
  162.4300  206.8180  148.8680 C   0  0  2  0  0  3  0  0  0  0  0  0
  159.3970  213.2560  151.2460 C   0  0  1  0  0  3  0  0  0  0  0  0
  160.0520  214.3790  150.4490 C   0  0  0  0  0  1  0  0  0  0  0  0
  158.0690  212.7880  150.6410 C   0  0  0  0  0  2  0  0  0  0  0  0
  157.2120  213.9160  150.0640 C   0  0  2  0  0  3  0  0  0  0  0  0
  154.8970  214.2920  150.5070 O   0  0  0  0  0  0  0  0  0  0  0  0
  156.0630  214.2070  150.9830 C   0  0  0  0  0  0  0  0  0  0  0  0
  155.3650  213.9920  153.3310 C   0  0  0  0  0  1  0  0  0  0  0  0
  156.3020  214.4010  152.3440 O   0  0  0  0  0  0  0  0  0  0  0  0
  156.7270  213.5230  148.7860 O   0  0  0  0  0  0  0  0  0  0  0  0
  157.5650  213.3600  147.6770 C   0  0  0  0  0  0  0  0  0  0  0  0
  157.0810  212.5900  146.5000 C   0  0  0  0  0  1  0  0  0  0  0  0
  158.7300  213.8390  147.6700 O   0  0  0  0  0  0  0  0  0  0  0  0
  160.5340  209.7630  154.3450 C   0  0  1  0  0  3  0  0  0  0  0  0
  161.7480  209.8470  155.2820 C   0  0  2  0  0  3  0  0  0  0  0  0
  161.5550  209.1030  156.5790 C   0  0  0  0  0  0  0  0  0  0  0  0
  160.3210  209.0850  157.2170 O   0  0  0  0  0  1  0  0  0  0  0  0
  162.5200  208.4650  157.0820 O   0  0  0  0  0  0  0  0  0  0  0  0
  162.1020  211.1810  155.5340 O   0  0  0  0  0  0  0  0  0  0  0  0
  163.3780  211.1140  156.1050 C   0  0  0  0  0  1  0  0  0  0  0  0
  159.2620  210.3290  154.9990 C   0  0  0  0  0  2  0  0  0  0  0  0
  158.3710  212.5840  154.8250 N   0  0  0  0  0  1  0  0  0  0  0  0
  159.4600  211.7880  155.3610 C   0  0  0  0  0  2  0  0  0  0  0  0
  3  7  1  6  0  0  0
  3  4  1  0  0  0  0
  4  1  1  1  0  0  0
  4  8  1  0  0  0  0
  5 23  1  6  0  0  0
  5 11  1  0  0  0  0
  6  8  1  0  0  0  0
  7 10  1  0  0  0  0
  8 36  1  1  0  0  0
  9  2  1  1  0  0  0
  9  5  1  0  0  0  0
  9  3  1  0  0  0  0
 10 24  1  6  0  0  0
 10  6  1  0  0  0  0
 11 17  1  0  0  0  0
 11  1  1  1  0  0  0
 12 19  1  6  0  0  0
 13 15  1  0  0  0  0
 14 15  2  0  0  0  0
 15 16  1  0  0  0  0
 16 12  1  0  0  0  0
 17 14  1  6  0  0  0
 17 12  1  0  0  0  0
 19 18  1  0  0  0  0
 20 22  1  0  0  0  0
 22 21  1  1  0  0  0
 22 23  1  0  0  0  0
 23 20  1  6  0  0  0
 24 25  1  6  0  0  0
 26 24  1  0  0  0  0
 27 26  1  1  0  0  0
 27 29  1  0  0  0  0
 28 29  2  0  0  0  0
 29 31  1  0  0  0  0
 31 30  1  0  0  0  0
 32 27  1  0  0  0  0
 33 32  1  0  0  0  0
 34 33  1  0  0  0  0
 35 33  2  0  0  0  0
 36 43  1  1  0  0  0
 36 37  1  0  0  0  0
 37 41  1  1  0  0  0
 37 38  1  0  0  0  0
 38 40  2  0  0  0  0
 38 39  1  0  0  0  0
 41 42  1  0  0  0  0
 43 45  1  0  0  0  0
 44 45  1  0  0  0  0
M  END
>  <MODEL>
8

>  <REMARK>
 VINA RESULT:      -2.5      2.725      7.635
  Name = 
  16 active torsions:
  status: ('A' for Active; 'I' for Inactive)
    1  A    between atoms: C_3  and  C_23
    2  A    between atoms: C_6  and  C_28
    3  A    between atoms: C_6  and  O_33
    4  A    between atoms: C_6  and  C_36
    5  A    between atoms: O_9  and  C_23
    6  A    between atoms: C_12  and  C_30
    7  A    between atoms: C_15  and  C_28
    8  A    between atoms: C_15  and  C_41
    9  A    between atoms: C_17  and  C_35
   10  A    between atoms: C_21  and  C_26
   11  A    between atoms: C_22  and  O_33
   12  A    between atoms: C_23  and  C_42
   13  A    between atoms: C_26  and  C_42
   14  A    between atoms: C_32  and  C_42
   15  A    between atoms: C_36  and  O_37
   16  A    between atoms: C_44  and  C_45
                            x       y       z     vdW  Elec       q    Type
                         _______ _______ _______ _____ _____    ______ ____

>  <TORSDO>
F 16

$$$$
=
 OpenBabel11072412053D

 45 48  0  0  1  0  0  0  0  0999 V2000
  160.7450  212.3230  151.7140 O   0  0  0  0  0  0  0  0  0  0  0  0
  160.8190  210.4250  154.9080 O   0  0  0  0  0  1  0  0  0  0  0  0
  161.0260  210.0870  152.5620 C   0  0  2  0  0  3  0  0  0  0  0  0
  160.6070  210.9560  151.3710 C   0  0  2  0  0  3  0  0  0  0  0  0
  159.1530  211.5050  153.5170 C   0  0  2  0  0  3  0  0  0  0  0  0
  161.3380  209.2300  149.8590 O   0  0  0  0  0  0  0  0  0  0  0  0
  161.1450  208.6160  152.1840 C   0  0  0  0  0  2  0  0  0  0  0  0
  161.4950  210.5960  150.1760 C   0  0  1  0  0  3  0  0  0  0  0  0
  160.0690  210.2800  153.7370 C   0  0  2  0  0  3  0  0  0  0  0  0
  161.9570  208.4940  150.8860 C   0  0  1  0  0  3  0  0  0  0  0  0
  159.9480  212.6740  152.8570 C   0  0  2  0  0  3  0  0  0  0  0  0
  158.2780  213.8900  151.2460 C   0  0  1  0  0  3  0  0  0  0  0  0
  155.7020  214.4280  153.7610 N   0  0  0  0  0  1  0  0  0  0  0  0
  158.0490  214.0960  153.6030 N   0  0  0  0  0  0  0  0  0  0  0  0
  156.9030  214.2070  153.0290 C   0  0  0  0  0  0  0  0  0  0  0  0
  156.9360  214.0990  151.6550 O   0  0  0  0  0  0  0  0  0  0  0  0
  159.0740  213.9110  152.5790 C   0  0  1  0  0  3  0  0  0  0  0  0
  157.5930  212.7210  149.0950 C   0  0  0  0  0  1  0  0  0  0  0  0
  158.3950  212.6260  150.3830 C   0  0  0  0  0  2  0  0  0  0  0  0
  158.1040  210.6660  155.6300 C   0  0  0  0  0  2  0  0  0  0  0  0
  156.6140  210.6180  153.7730 O   0  0  0  0  0  1  0  0  0  0  0  0
  156.9760  211.3650  154.9000 C   0  0  2  0  0  3  0  0  0  0  0  0
  158.4100  211.9010  154.8040 C   0  0  2  0  0  3  0  0  0  0  0  0
  162.1360  207.0280  150.4830 C   0  0  1  0  0  3  0  0  0  0  0  0
  162.2210  206.0840  151.6780 C   0  0  0  0  0  1  0  0  0  0  0  0
  161.1320  206.5620  149.4220 C   0  0  0  0  0  2  0  0  0  0  0  0
  161.5990  205.3580  148.6020 C   0  0  2  0  0  3  0  0  0  0  0  0
  161.1260  206.5550  146.5920 O   0  0  0  0  0  0  0  0  0  0  0  0
  161.9220  205.7870  147.2020 C   0  0  0  0  0  0  0  0  0  0  0  0
  163.0660  204.7890  145.2680 C   0  0  0  0  0  1  0  0  0  0  0  0
  163.0820  205.3160  146.5870 O   0  0  0  0  0  0  0  0  0  0  0  0
  160.5680  204.3780  148.5880 O   0  0  0  0  0  0  0  0  0  0  0  0
  160.8300  203.0040  148.6330 C   0  0  0  0  0  0  0  0  0  0  0  0
  160.8620  202.3070  149.9450 C   0  0  0  0  0  1  0  0  0  0  0  0
  161.0590  202.3540  147.5780 O   0  0  0  0  0  0  0  0  0  0  0  0
  161.2220  211.4910  148.9560 C   0  0  1  0  0  3  0  0  0  0  0  0
  162.4320  212.4080  148.7190 C   0  0  2  0  0  3  0  0  0  0  0  0
  162.0510  213.8270  148.3830 C   0  0  0  0  0  0  0  0  0  0  0  0
  162.5510  214.4520  147.2470 O   0  0  0  0  0  0  0  0  0  0  0  0
  161.2470  214.4500  149.1280 O   0  0  0  0  0  1  0  0  0  0  0  0
  163.2770  211.8820  147.7300 O   0  0  0  0  0  0  0  0  0  0  0  0
  164.5740  212.1260  148.1970 C   0  0  0  0  0  1  0  0  0  0  0  0
  160.8450  210.6980  147.6930 C   0  0  0  0  0  2  0  0  0  0  0  0
  159.2530  212.3910  146.9790 N   0  0  0  0  0  1  0  0  0  0  0  0
  160.4310  211.6420  146.5820 C   0  0  0  0  0  2  0  0  0  0  0  0
  3  7  1  6  0  0  0
  3  9  1  0  0  0  0
  4  1  1  1  0  0  0
  4  3  1  0  0  0  0
  5  9  1  0  0  0  0
  5 23  1  1  0  0  0
  6  8  1  0  0  0  0
  6 10  1  0  0  0  0
  8 36  1  6  0  0  0
  8  4  1  0  0  0  0
  9  2  1  1  0  0  0
 10 24  1  6  0  0  0
 10  7  1  0  0  0  0
 11  1  1  6  0  0  0
 11  5  1  0  0  0  0
 12 19  1  1  0  0  0
 12 16  1  0  0  0  0
 12 17  1  0  0  0  0
 15 14  2  0  0  0  0
 15 13  1  0  0  0  0
 16 15  1  0  0  0  0
 17 11  1  0  0  0  0
 17 14  1  1  0  0  0
 18 19  1  0  0  0  0
 22 21  1  6  0  0  0
 22 20  1  0  0  0  0
 23 22  1  0  0  0  0
 23 20  1  1  0  0  0
 24 25  1  1  0  0  0
 26 24  1  0  0  0  0
 27 26  1  1  0  0  0
 28 29  2  0  0  0  0
 29 27  1  0  0  0  0
 30 31  1  0  0  0  0
 31 29  1  0  0  0  0
 32 27  1  0  0  0  0
 32 33  1  0  0  0  0
 33 34  1  0  0  0  0
 35 33  2  0  0  0  0
 36 43  1  6  0  0  0
 37 41  1  6  0  0  0
 37 36  1  0  0  0  0
 38 37  1  0  0  0  0
 38 40  1  0  0  0  0
 39 38  2  0  0  0  0
 41 42  1  0  0  0  0
 45 44  1  0  0  0  0
 45 43  1  0  0  0  0
M  END
>  <MODEL>
9

>  <REMARK>
 VINA RESULT:      -2.4      2.265      4.652
  Name = 
  16 active torsions:
  status: ('A' for Active; 'I' for Inactive)
    1  A    between atoms: C_3  and  C_23
    2  A    between atoms: C_6  and  C_28
    3  A    between atoms: C_6  and  O_33
    4  A    between atoms: C_6  and  C_36
    5  A    between atoms: O_9  and  C_23
    6  A    between atoms: C_12  and  C_30
    7  A    between atoms: C_15  and  C_28
    8  A    between atoms: C_15  and  C_41
    9  A    between atoms: C_17  and  C_35
   10  A    between atoms: C_21  and  C_26
   11  A    between atoms: C_22  and  O_33
   12  A    between atoms: C_23  and  C_42
   13  A    between atoms: C_26  and  C_42
   14  A    between atoms: C_32  and  C_42
   15  A    between atoms: C_36  and  O_37
   16  A    between atoms: C_44  and  C_45
                            x       y       z     vdW  Elec       q    Type
                         _______ _______ _______ _____ _____    ______ ____

>  <TORSDO>
F 16

$$$$
