=
 OpenBabel11072415103D

 39 41  0  0  1  0  0  0  0  0999 V2000
  161.4800  205.1900  151.1750 C   0  0  2  0  0  3  0  0  0  0  0  0
  161.0130  204.5970  152.4920 C   0  0  0  0  0  2  0  0  0  0  0  0
  161.7560  205.9180  152.4950 C   0  0  2  0  0  3  0  0  0  0  0  0
  160.7890  207.0680  152.7670 C   0  0  0  0  0  2  0  0  0  0  0  0
  160.1070  209.7870  155.1310 C   0  0  0  0  0  0  0  0  0  0  0  0
  160.6800  207.7620  156.5310 C   0  0  0  0  0  2  0  0  0  0  0  0
  159.8660  209.0500  156.4270 C   0  0  0  0  0  2  0  0  0  0  0  0
  160.5260  206.9540  155.2500 C   0  0  0  0  0  2  0  0  0  0  0  0
  160.6150  209.1640  154.0500 C   0  0  0  0  0  3  0  0  0  0  0  0
  161.1190  207.7450  154.0850 C   0  0  2  0  0  3  0  0  0  0  0  0
  160.6170  212.0090  154.4810 O   0  0  0  0  0  1  0  0  0  0  0  0
  159.6170  211.1970  155.0170 C   0  0  1  0  0  3  0  0  0  0  0  0
  158.4260  211.2520  154.1700 N   0  0  0  0  0  2  0  0  0  0  0  0
  157.3560  212.0360  154.7980 C   0  0  0  0  0  0  0  0  0  0  0  0
  157.6410  212.1930  156.3020 C   0  0  0  0  0  2  0  0  0  0  0  0
  157.3680  213.4950  156.7300 O   0  0  0  0  0  1  0  0  0  0  0  0
  157.8290  213.3480  152.8350 O   0  0  0  0  0  1  0  0  0  0  0  0
  157.3500  213.4210  154.1460 C   0  0  0  0  0  2  0  0  0  0  0  0
  156.1110  211.3900  154.5900 O   0  0  0  0  0  0  0  0  0  0  0  0
  155.8710  210.6380  155.6500 O   0  0  0  0  0  1  0  0  0  0  0  0
  160.3840  205.7330  150.4890 O   0  0  0  0  0  0  0  0  0  0  0  0
  160.6540  205.5210  149.1320 C   0  0  2  0  0  3  0  0  0  0  0  0
  161.6910  204.4600  148.9740 C   0  0  0  0  0  3  0  0  0  0  0  0
  161.1120  202.3270  147.5880 C   0  0  0  0  0  3  0  0  0  0  0  0
  161.4130  203.3890  148.2840 C   0  0  0  0  0  0  0  0  0  0  0  0
  160.5200  202.4440  146.2190 C   0  0  2  0  0  3  0  0  0  0  0  0
  160.5840  201.1660  145.5220 N   0  0  0  0  0  2  0  0  0  0  0  0
  161.1460  200.2010  146.4520 C   0  0  0  0  0  1  0  0  0  0  0  0
  162.4690  203.5960  145.5400 O   0  0  0  0  0  0  0  0  0  0  0  0
  161.2550  203.4950  145.4380 C   0  0  0  0  0  0  0  0  0  0  0  0
  160.2830  205.7610  145.0910 C   0  0  0  0  0  2  0  0  0  0  0  0
  160.5190  204.3880  144.4830 C   0  0  0  0  0  3  0  0  0  0  0  0
  161.4100  205.5590  144.1040 C   0  0  0  0  0  2  0  0  0  0  0  0
  161.0930  206.8140  148.4460 C   0  0  2  0  0  3  0  0  0  0  0  0
  162.3610  206.6170  147.6180 C   0  0  0  0  0  1  0  0  0  0  0  0
  161.2930  207.9110  149.4830 C   0  0  0  0  0  2  0  0  0  0  0  0
  162.0660  209.0850  148.9000 C   0  0  0  0  0  2  0  0  0  0  0  0
  162.0390  210.2660  149.8520 C   0  0  0  0  0  2  0  0  0  0  0  0
  162.1760  211.4500  149.1290 O   0  0  0  0  0  1  0  0  0  0  0  0
  1 21  1  6  0  0  0
  1  2  1  0  0  0  0
  1  3  1  0  0  0  0
  2  3  1  0  0  0  0
  3  4  1  6  0  0  0
  5  7  1  0  0  0  0
  7  6  1  0  0  0  0
  8  6  1  0  0  0  0
  9 10  1  0  0  0  0
  9  5  2  0  0  0  0
 10  4  1  6  0  0  0
 10  8  1  0  0  0  0
 12 11  1  6  0  0  0
 12  5  1  0  0  0  0
 13 14  1  0  0  0  0
 13 12  1  0  0  0  0
 14 15  1  0  0  0  0
 15 16  1  0  0  0  0
 17 18  1  0  0  0  0
 18 14  1  0  0  0  0
 19 14  1  0  0  0  0
 19 20  1  0  0  0  0
 22 23  1  1  0  0  0
 22 21  1  0  0  0  0
 24 25  2  0  0  0  0
 25 23  2  0  0  0  0
 26 24  1  1  0  0  0
 27 26  1  0  0  0  0
 27 28  1  0  0  0  0
 30 29  2  0  0  0  0
 30 26  1  0  0  0  0
 32 31  1  0  0  0  0
 32 30  1  0  0  0  0
 33 32  1  0  0  0  0
 33 31  1  0  0  0  0
 34 35  1  1  0  0  0
 34 22  1  0  0  0  0
 34 36  1  0  0  0  0
 37 36  1  0  0  0  0
 37 38  1  0  0  0  0
 39 38  1  0  0  0  0
M  END
>  <MODEL>
1

>  <REMARK>
 VINA RESULT:      -6.8      0.000      0.000
  Name = 
  19 active torsions:
  status: ('A' for Active; 'I' for Inactive)
    1  A    between atoms: C_1  and  C_6
    2  A    between atoms: C_1  and  O_21
    3  A    between atoms: C_1  and  N_32
    4  A    between atoms: C_1  and  C_36
    5  A    between atoms: C_2  and  C_31
    6  A    between atoms: C_4  and  C_12
    7  A    between atoms: C_5  and  C_35
    8  A    between atoms: C_8  and  C_16
    9  A    between atoms: N_10  and  C_12
   10  A    between atoms: C_12  and  C_34
   11  A    between atoms: C_14  and  O_19
   12  A    between atoms: C_16  and  C_26
   13  A    between atoms: C_17  and  C_26
   14  A    between atoms: C_17  and  C_31
   15  A    between atoms: O_19  and  C_31
   16  A    between atoms: C_20  and  C_24
   17  A    between atoms: C_20  and  C_30
   18  A    between atoms: C_28  and  C_34
   19  A    between atoms: N_32  and  C_35
                            x       y       z     vdW  Elec       q    Type
                         _______ _______ _______ _____ _____    ______ ____

>  <TORSDO>
F 19

$$$$
=
 OpenBabel11072415103D

 39 41  0  0  1  0  0  0  0  0999 V2000
  161.5260  207.2830  152.1350 C   0  0  2  0  0  3  0  0  0  0  0  0
  160.5480  206.7920  151.0830 C   0  0  0  0  0  2  0  0  0  0  0  0
  161.8960  206.1110  151.2200 C   0  0  2  0  0  3  0  0  0  0  0  0
  161.7330  204.7460  151.8860 C   0  0  0  0  0  2  0  0  0  0  0  0
  161.1240  203.0420  148.6970 C   0  0  0  0  0  0  0  0  0  0  0  0
  160.2640  201.4930  150.5000 C   0  0  0  0  0  2  0  0  0  0  0  0
  160.9080  201.6090  149.1200 C   0  0  0  0  0  2  0  0  0  0  0  0
  161.0000  202.3910  151.4850 C   0  0  0  0  0  2  0  0  0  0  0  0
  161.1570  204.0440  149.5960 C   0  0  0  0  0  3  0  0  0  0  0  0
  160.8360  203.8480  151.0540 C   0  0  2  0  0  3  0  0  0  0  0  0
  161.0290  202.2580  146.4620 O   0  0  0  0  0  1  0  0  0  0  0  0
  161.4640  203.3130  147.2640 C   0  0  1  0  0  3  0  0  0  0  0  0
  160.8430  204.5610  146.8230 N   0  0  0  0  0  2  0  0  0  0  0  0
  161.8500  205.5440  146.4050 C   0  0  0  0  0  0  0  0  0  0  0  0
  161.7190  205.8100  144.8950 C   0  0  0  0  0  2  0  0  0  0  0  0
  160.8720  204.8770  144.2930 O   0  0  0  0  0  1  0  0  0  0  0  0
  162.6630  207.1810  147.9730 O   0  0  0  0  0  1  0  0  0  0  0  0
  161.5730  206.8450  147.1640 C   0  0  0  0  0  2  0  0  0  0  0  0
  163.1440  205.0590  146.7170 O   0  0  0  0  0  0  0  0  0  0  0  0
  163.7160  204.6920  145.5840 O   0  0  0  0  0  1  0  0  0  0  0  0
  161.1060  206.8540  153.4030 O   0  0  0  0  0  0  0  0  0  0  0  0
  160.7170  208.0170  154.0780 C   0  0  2  0  0  3  0  0  0  0  0  0
  161.3980  209.2060  153.4870 C   0  0  0  0  0  3  0  0  0  0  0  0
  159.9410  211.1070  152.4540 C   0  0  0  0  0  3  0  0  0  0  0  0
  160.6800  210.1620  152.9670 C   0  0  0  0  0  0  0  0  0  0  0  0
  158.8040  211.7030  153.2240 C   0  0  2  0  0  3  0  0  0  0  0  0
  158.5270  213.0570  152.7640 N   0  0  0  0  0  2  0  0  0  0  0  0
  158.2880  212.9810  151.3320 C   0  0  0  0  0  1  0  0  0  0  0  0
  160.0360  212.4250  155.1070 O   0  0  0  0  0  0  0  0  0  0  0  0
  159.1360  211.7130  154.6880 C   0  0  0  0  0  0  0  0  0  0  0  0
  157.3770  211.7770  156.4490 C   0  0  0  0  0  2  0  0  0  0  0  0
  158.3300  210.8980  155.6570 C   0  0  0  0  0  3  0  0  0  0  0  0
  156.8610  210.9750  155.2770 C   0  0  0  0  0  2  0  0  0  0  0  0
  161.0110  207.9130  155.5740 C   0  0  2  0  0  3  0  0  0  0  0  0
  159.8680  207.2420  156.3340 C   0  0  0  0  0  1  0  0  0  0  0  0
  161.2990  209.2940  156.1460 C   0  0  0  0  0  2  0  0  0  0  0  0
  162.5340  209.2760  157.0330 C   0  0  0  0  0  2  0  0  0  0  0  0
  163.0470  210.6860  157.2610 C   0  0  0  0  0  2  0  0  0  0  0  0
  163.8590  211.0640  156.1910 O   0  0  0  0  0  1  0  0  0  0  0  0
  1 21  1  1  0  0  0
  2  3  1  0  0  0  0
  2  1  1  0  0  0  0
  3  4  1  1  0  0  0
  3  1  1  0  0  0  0
  5  7  1  0  0  0  0
  5  9  2  0  0  0  0
  6  8  1  0  0  0  0
  7  6  1  0  0  0  0
  9 10  1  0  0  0  0
 10  8  1  0  0  0  0
 10  4  1  1  0  0  0
 12 11  1  6  0  0  0
 12  5  1  0  0  0  0
 13 12  1  0  0  0  0
 14 19  1  0  0  0  0
 14 13  1  0  0  0  0
 14 18  1  0  0  0  0
 15 14  1  0  0  0  0
 16 15  1  0  0  0  0
 18 17  1  0  0  0  0
 20 19  1  0  0  0  0
 21 22  1  0  0  0  0
 22 23  1  6  0  0  0
 22 34  1  0  0  0  0
 24 25  2  0  0  0  0
 25 23  2  0  0  0  0
 26 24  1  6  0  0  0
 26 30  1  0  0  0  0
 27 26  1  0  0  0  0
 28 27  1  0  0  0  0
 30 29  2  0  0  0  0
 30 32  1  0  0  0  0
 32 31  1  0  0  0  0
 33 32  1  0  0  0  0
 33 31  1  0  0  0  0
 34 36  1  0  0  0  0
 34 35  1  1  0  0  0
 36 37  1  0  0  0  0
 37 38  1  0  0  0  0
 39 38  1  0  0  0  0
M  END
>  <MODEL>
2

>  <REMARK>
 VINA RESULT:      -6.8      2.187      9.990
  Name = 
  19 active torsions:
  status: ('A' for Active; 'I' for Inactive)
    1  A    between atoms: C_1  and  C_6
    2  A    between atoms: C_1  and  O_21
    3  A    between atoms: C_1  and  N_32
    4  A    between atoms: C_1  and  C_36
    5  A    between atoms: C_2  and  C_31
    6  A    between atoms: C_4  and  C_12
    7  A    between atoms: C_5  and  C_35
    8  A    between atoms: C_8  and  C_16
    9  A    between atoms: N_10  and  C_12
   10  A    between atoms: C_12  and  C_34
   11  A    between atoms: C_14  and  O_19
   12  A    between atoms: C_16  and  C_26
   13  A    between atoms: C_17  and  C_26
   14  A    between atoms: C_17  and  C_31
   15  A    between atoms: O_19  and  C_31
   16  A    between atoms: C_20  and  C_24
   17  A    between atoms: C_20  and  C_30
   18  A    between atoms: C_28  and  C_34
   19  A    between atoms: N_32  and  C_35
                            x       y       z     vdW  Elec       q    Type
                         _______ _______ _______ _____ _____    ______ ____

>  <TORSDO>
F 19

$$$$
=
 OpenBabel11072415103D

 39 41  0  0  1  0  0  0  0  0999 V2000
  162.1030  207.0240  152.6860 C   0  0  2  0  0  3  0  0  0  0  0  0
  162.8720  206.2500  151.6300 C   0  0  0  0  0  2  0  0  0  0  0  0
  161.6840  205.5990  152.3100 C   0  0  2  0  0  3  0  0  0  0  0  0
  160.4930  205.5480  151.3550 C   0  0  0  0  0  2  0  0  0  0  0  0
  161.0970  203.0040  148.7850 C   0  0  0  0  0  0  0  0  0  0  0  0
  161.0430  201.7760  150.9940 C   0  0  0  0  0  2  0  0  0  0  0  0
  161.6310  201.8410  149.5850 C   0  0  0  0  0  2  0  0  0  0  0  0
  161.1290  203.1490  151.6460 C   0  0  0  0  0  2  0  0  0  0  0  0
  160.5360  204.0720  149.3830 C   0  0  0  0  0  3  0  0  0  0  0  0
  160.2610  204.1320  150.8620 C   0  0  2  0  0  3  0  0  0  0  0  0
  160.8590  201.8530  146.7260 O   0  0  0  0  0  1  0  0  0  0  0  0
  161.3490  203.0220  147.3090 C   0  0  1  0  0  3  0  0  0  0  0  0
  160.7070  204.1870  146.7000 N   0  0  0  0  0  2  0  0  0  0  0  0
  161.6730  205.0040  145.9550 C   0  0  0  0  0  0  0  0  0  0  0  0
  163.1000  204.6830  146.4300 C   0  0  0  0  0  2  0  0  0  0  0  0
  163.9060  204.2800  145.3620 O   0  0  0  0  0  1  0  0  0  0  0  0
  161.3600  205.7850  143.6990 O   0  0  0  0  0  1  0  0  0  0  0  0
  161.5480  204.6370  144.4740 C   0  0  0  0  0  2  0  0  0  0  0  0
  161.3790  206.3770  146.1480 O   0  0  0  0  0  0  0  0  0  0  0  0
  160.1780  206.4560  146.6910 O   0  0  0  0  0  1  0  0  0  0  0  0
  161.3000  207.9940  152.0660 O   0  0  0  0  0  0  0  0  0  0  0  0
  162.1960  208.8890  151.4690 C   0  0  2  0  0  3  0  0  0  0  0  0
  162.4900  210.0170  152.4010 C   0  0  0  0  0  3  0  0  0  0  0  0
  160.6490  210.7690  154.0890 C   0  0  0  0  0  3  0  0  0  0  0  0
  161.5780  210.4020  153.2490 C   0  0  0  0  0  0  0  0  0  0  0  0
  159.9560  209.7680  154.9590 C   0  0  2  0  0  3  0  0  0  0  0  0
  158.7640  210.3510  155.5610 N   0  0  0  0  0  2  0  0  0  0  0  0
  158.6750  211.7230  155.0900 C   0  0  0  0  0  1  0  0  0  0  0  0
  161.3920  210.0940  156.8070 O   0  0  0  0  0  0  0  0  0  0  0  0
  160.8950  209.2930  156.0300 C   0  0  0  0  0  0  0  0  0  0  0  0
  160.1820  207.1770  157.1310 C   0  0  0  0  0  2  0  0  0  0  0  0
  161.1840  207.8290  156.1940 C   0  0  0  0  0  3  0  0  0  0  0  0
  160.0230  207.0230  155.6370 C   0  0  0  0  0  2  0  0  0  0  0  0
  161.6520  209.4130  150.1400 C   0  0  2  0  0  3  0  0  0  0  0  0
  161.9780  208.4720  148.9820 C   0  0  0  0  0  1  0  0  0  0  0  0
  162.1950  210.8090  149.8680 C   0  0  0  0  0  2  0  0  0  0  0  0
  162.1040  211.1570  148.3900 C   0  0  0  0  0  2  0  0  0  0  0  0
  161.1840  212.3440  148.1780 C   0  0  0  0  0  2  0  0  0  0  0  0
  161.5270  212.9930  146.9920 O   0  0  0  0  0  1  0  0  0  0  0  0
  1 21  1  6  0  0  0
  2  3  1  0  0  0  0
  2  1  1  0  0  0  0
  3  4  1  6  0  0  0
  3  1  1  0  0  0  0
  5  9  2  0  0  0  0
  5  7  1  0  0  0  0
  6  8  1  0  0  0  0
  7  6  1  0  0  0  0
  9 10  1  0  0  0  0
 10  4  1  1  0  0  0
 10  8  1  0  0  0  0
 12 11  1  6  0  0  0
 12  5  1  0  0  0  0
 13 12  1  0  0  0  0
 14 19  1  0  0  0  0
 14 15  1  0  0  0  0
 14 13  1  0  0  0  0
 16 15  1  0  0  0  0
 17 18  1  0  0  0  0
 18 14  1  0  0  0  0
 19 20  1  0  0  0  0
 22 21  1  0  0  0  0
 22 23  1  1  0  0  0
 23 25  2  0  0  0  0
 25 24  2  0  0  0  0
 26 24  1  1  0  0  0
 26 27  1  0  0  0  0
 26 30  1  0  0  0  0
 28 27  1  0  0  0  0
 30 32  1  0  0  0  0
 30 29  2  0  0  0  0
 32 31  1  0  0  0  0
 33 32  1  0  0  0  0
 33 31  1  0  0  0  0
 34 35  1  6  0  0  0
 34 22  1  0  0  0  0
 36 34  1  0  0  0  0
 37 36  1  0  0  0  0
 38 37  1  0  0  0  0
 39 38  1  0  0  0  0
M  END
>  <MODEL>
3

>  <REMARK>
 VINA RESULT:      -6.6      2.442      9.514
  Name = 
  19 active torsions:
  status: ('A' for Active; 'I' for Inactive)
    1  A    between atoms: C_1  and  C_6
    2  A    between atoms: C_1  and  O_21
    3  A    between atoms: C_1  and  N_32
    4  A    between atoms: C_1  and  C_36
    5  A    between atoms: C_2  and  C_31
    6  A    between atoms: C_4  and  C_12
    7  A    between atoms: C_5  and  C_35
    8  A    between atoms: C_8  and  C_16
    9  A    between atoms: N_10  and  C_12
   10  A    between atoms: C_12  and  C_34
   11  A    between atoms: C_14  and  O_19
   12  A    between atoms: C_16  and  C_26
   13  A    between atoms: C_17  and  C_26
   14  A    between atoms: C_17  and  C_31
   15  A    between atoms: O_19  and  C_31
   16  A    between atoms: C_20  and  C_24
   17  A    between atoms: C_20  and  C_30
   18  A    between atoms: C_28  and  C_34
   19  A    between atoms: N_32  and  C_35
                            x       y       z     vdW  Elec       q    Type
                         _______ _______ _______ _____ _____    ______ ____

>  <TORSDO>
F 19

$$$$
=
 OpenBabel11072415103D

 39 41  0  0  1  0  0  0  0  0999 V2000
  160.9430  207.3970  152.7950 C   0  0  2  0  0  3  0  0  0  0  0  0
  161.5000  206.5100  153.8940 C   0  0  0  0  0  2  0  0  0  0  0  0
  160.6900  205.8860  152.7750 C   0  0  2  0  0  3  0  0  0  0  0  0
  161.6090  205.1300  151.8170 C   0  0  0  0  0  2  0  0  0  0  0  0
  161.2340  203.1500  148.7530 C   0  0  0  0  0  0  0  0  0  0  0  0
  160.5420  201.6390  150.6580 C   0  0  0  0  0  2  0  0  0  0  0  0
  161.1830  201.7340  149.2750 C   0  0  0  0  0  2  0  0  0  0  0  0
  161.1590  202.6830  151.5790 C   0  0  0  0  0  2  0  0  0  0  0  0
  161.1410  204.2090  149.5800 C   0  0  0  0  0  3  0  0  0  0  0  0
  160.8310  204.0770  151.0480 C   0  0  2  0  0  3  0  0  0  0  0  0
  161.0480  202.3050  146.5470 O   0  0  0  0  0  1  0  0  0  0  0  0
  161.5550  203.3600  147.3060 C   0  0  1  0  0  3  0  0  0  0  0  0
  160.9880  204.6250  146.8390 N   0  0  0  0  0  2  0  0  0  0  0  0
  162.0160  205.4880  146.2470 C   0  0  0  0  0  0  0  0  0  0  0  0
  163.3740  204.7660  146.2640 C   0  0  0  0  0  2  0  0  0  0  0  0
  163.5030  203.9140  145.1640 O   0  0  0  0  0  1  0  0  0  0  0  0
  160.2560  205.4960  144.6030 O   0  0  0  0  0  1  0  0  0  0  0  0
  161.6160  205.7580  144.7930 C   0  0  0  0  0  2  0  0  0  0  0  0
  162.0880  206.7050  146.9710 O   0  0  0  0  0  0  0  0  0  0  0  0
  160.9100  206.9030  147.5340 O   0  0  0  0  0  1  0  0  0  0  0  0
  161.9770  207.7730  151.9250 O   0  0  0  0  0  0  0  0  0  0  0  0
  161.4380  208.7870  151.1240 C   0  0  2  0  0  3  0  0  0  0  0  0
  162.2030  208.8930  149.8460 C   0  0  0  0  0  3  0  0  0  0  0  0
  161.7330  210.9110  148.2620 C   0  0  0  0  0  3  0  0  0  0  0  0
  161.9760  209.8970  149.0460 C   0  0  0  0  0  0  0  0  0  0  0  0
  161.7350  212.3120  148.7880 C   0  0  2  0  0  3  0  0  0  0  0  0
  160.3790  212.7440  149.1000 N   0  0  0  0  0  2  0  0  0  0  0  0
  160.4460  213.4980  150.3410 C   0  0  0  0  0  1  0  0  0  0  0  0
  163.1870  214.0530  148.1200 O   0  0  0  0  0  0  0  0  0  0  0  0
  162.3490  213.2330  147.7730 C   0  0  0  0  0  0  0  0  0  0  0  0
  160.8190  214.0210  145.9750 C   0  0  0  0  0  2  0  0  0  0  0  0
  161.9890  213.1150  146.3220 C   0  0  0  0  0  3  0  0  0  0  0  0
  162.2270  214.4500  145.6360 C   0  0  0  0  0  2  0  0  0  0  0  0
  161.4250  210.1260  151.8600 C   0  0  2  0  0  3  0  0  0  0  0  0
  162.5630  210.2300  152.8730 C   0  0  0  0  0  1  0  0  0  0  0  0
  160.0790  210.3340  152.5400 C   0  0  0  0  0  2  0  0  0  0  0  0
  160.2440  211.0110  153.8920 C   0  0  0  0  0  2  0  0  0  0  0  0
  159.8090  210.0810  155.0100 C   0  0  0  0  0  2  0  0  0  0  0  0
  160.9200  209.7120  155.7680 O   0  0  0  0  0  1  0  0  0  0  0  0
  1 21  1  6  0  0  0
  1  2  1  0  0  0  0
  3  4  1  6  0  0  0
  3  1  1  0  0  0  0
  3  2  1  0  0  0  0
  5  7  1  0  0  0  0
  5  9  2  0  0  0  0
  6  8  1  0  0  0  0
  7  6  1  0  0  0  0
  9 10  1  0  0  0  0
 10  8  1  0  0  0  0
 10  4  1  1  0  0  0
 12 11  1  6  0  0  0
 12  5  1  0  0  0  0
 13 12  1  0  0  0  0
 14 15  1  0  0  0  0
 14 13  1  0  0  0  0
 14 19  1  0  0  0  0
 16 15  1  0  0  0  0
 17 18  1  0  0  0  0
 18 14  1  0  0  0  0
 19 20  1  0  0  0  0
 22 23  1  6  0  0  0
 22 34  1  0  0  0  0
 22 21  1  0  0  0  0
 24 25  2  0  0  0  0
 25 23  2  0  0  0  0
 26 24  1  6  0  0  0
 26 27  1  0  0  0  0
 27 28  1  0  0  0  0
 30 29  2  0  0  0  0
 30 26  1  0  0  0  0
 31 32  1  0  0  0  0
 32 30  1  0  0  0  0
 33 31  1  0  0  0  0
 33 32  1  0  0  0  0
 34 36  1  0  0  0  0
 34 35  1  1  0  0  0
 36 37  1  0  0  0  0
 37 38  1  0  0  0  0
 38 39  1  0  0  0  0
M  END
>  <MODEL>
4

>  <REMARK>
 VINA RESULT:      -6.5      2.705      8.961
  Name = 
  19 active torsions:
  status: ('A' for Active; 'I' for Inactive)
    1  A    between atoms: C_1  and  C_6
    2  A    between atoms: C_1  and  O_21
    3  A    between atoms: C_1  and  N_32
    4  A    between atoms: C_1  and  C_36
    5  A    between atoms: C_2  and  C_31
    6  A    between atoms: C_4  and  C_12
    7  A    between atoms: C_5  and  C_35
    8  A    between atoms: C_8  and  C_16
    9  A    between atoms: N_10  and  C_12
   10  A    between atoms: C_12  and  C_34
   11  A    between atoms: C_14  and  O_19
   12  A    between atoms: C_16  and  C_26
   13  A    between atoms: C_17  and  C_26
   14  A    between atoms: C_17  and  C_31
   15  A    between atoms: O_19  and  C_31
   16  A    between atoms: C_20  and  C_24
   17  A    between atoms: C_20  and  C_30
   18  A    between atoms: C_28  and  C_34
   19  A    between atoms: N_32  and  C_35
                            x       y       z     vdW  Elec       q    Type
                         _______ _______ _______ _____ _____    ______ ____

>  <TORSDO>
F 19

$$$$
=
 OpenBabel11072415103D

 39 41  0  0  1  0  0  0  0  0999 V2000
  161.4480  210.3070  152.6520 C   0  0  2  0  0  3  0  0  0  0  0  0
  162.6680  210.1900  151.7560 C   0  0  0  0  0  2  0  0  0  0  0  0
  161.9500  208.9310  152.2020 C   0  0  2  0  0  3  0  0  0  0  0  0
  161.1490  208.3420  151.0430 C   0  0  0  0  0  2  0  0  0  0  0  0
  161.1480  204.7750  150.1930 C   0  0  0  0  0  0  0  0  0  0  0  0
  161.1480  204.8990  152.7180 C   0  0  0  0  0  2  0  0  0  0  0  0
  161.5980  204.1250  151.4800 C   0  0  0  0  0  2  0  0  0  0  0  0
  161.4810  206.3750  152.5480 C   0  0  0  0  0  2  0  0  0  0  0  0
  160.7980  206.0750  150.1460 C   0  0  0  0  0  3  0  0  0  0  0  0
  160.6800  206.9370  151.3740 C   0  0  2  0  0  3  0  0  0  0  0  0
  160.5660  202.7770  149.0590 O   0  0  0  0  0  1  0  0  0  0  0  0
  161.2540  203.9840  148.9270 C   0  0  1  0  0  3  0  0  0  0  0  0
  160.7070  204.7470  147.8060 N   0  0  0  0  0  2  0  0  0  0  0  0
  161.5330  204.6000  146.6010 C   0  0  0  0  0  0  0  0  0  0  0  0
  162.9990  204.9280  146.9340 C   0  0  0  0  0  2  0  0  0  0  0  0
  163.8210  204.7380  145.8200 O   0  0  0  0  0  1  0  0  0  0  0  0
  160.6600  203.0300  144.9970 O   0  0  0  0  0  1  0  0  0  0  0  0
  161.4420  203.1390  146.1510 C   0  0  0  0  0  2  0  0  0  0  0  0
  161.0460  205.4590  145.5850 O   0  0  0  0  0  0  0  0  0  0  0  0
  160.3480  206.4140  146.1710 O   0  0  0  0  0  1  0  0  0  0  0  0
  160.3500  210.7450  151.8960 O   0  0  0  0  0  0  0  0  0  0  0  0
  160.0210  212.0030  152.4140 C   0  0  2  0  0  3  0  0  0  0  0  0
  158.6350  211.9820  152.9690 C   0  0  0  0  0  3  0  0  0  0  0  0
  158.2110  210.7930  155.2530 C   0  0  0  0  0  3  0  0  0  0  0  0
  158.4110  211.3900  154.1090 C   0  0  0  0  0  0  0  0  0  0  0  0
  159.0610  211.1020  156.4440 C   0  0  2  0  0  3  0  0  0  0  0  0
  159.2590  212.5400  156.5740 N   0  0  0  0  0  2  0  0  0  0  0  0
  158.0330  213.0900  157.1290 C   0  0  0  0  0  1  0  0  0  0  0  0
  161.3580  211.0200  155.8930 O   0  0  0  0  0  0  0  0  0  0  0  0
  160.3870  210.4090  156.3140 C   0  0  0  0  0  0  0  0  0  0  0  0
  160.0950  208.0230  155.6680 C   0  0  0  0  0  2  0  0  0  0  0  0
  160.5470  208.9830  156.7550 C   0  0  0  0  0  3  0  0  0  0  0  0
  161.5670  208.2950  155.8640 C   0  0  0  0  0  2  0  0  0  0  0  0
  160.1620  213.0930  151.3530 C   0  0  2  0  0  3  0  0  0  0  0  0
  159.0750  214.1570  151.4820 C   0  0  0  0  0  1  0  0  0  0  0  0
  160.1460  212.4730  149.9630 C   0  0  0  0  0  2  0  0  0  0  0  0
  161.2350  213.0670  149.0820 C   0  0  0  0  0  2  0  0  0  0  0  0
  162.1590  211.9780  148.5700 C   0  0  0  0  0  2  0  0  0  0  0  0
  163.1410  212.5450  147.7580 O   0  0  0  0  0  1  0  0  0  0  0  0
  1 21  1  6  0  0  0
  2  3  1  0  0  0  0
  2  1  1  0  0  0  0
  3  4  1  6  0  0  0
  3  1  1  0  0  0  0
  5  7  1  0  0  0  0
  7  6  1  0  0  0  0
  8  6  1  0  0  0  0
  9  5  2  0  0  0  0
  9 10  1  0  0  0  0
 10  4  1  6  0  0  0
 10  8  1  0  0  0  0
 12 11  1  1  0  0  0
 12  5  1  0  0  0  0
 13 12  1  0  0  0  0
 14 15  1  0  0  0  0
 14 13  1  0  0  0  0
 16 15  1  0  0  0  0
 17 18  1  0  0  0  0
 18 14  1  0  0  0  0
 19 20  1  0  0  0  0
 19 14  1  0  0  0  0
 21 22  1  0  0  0  0
 22 23  1  6  0  0  0
 23 25  2  0  0  0  0
 25 24  2  0  0  0  0
 26 24  1  6  0  0  0
 26 27  1  0  0  0  0
 27 28  1  0  0  0  0
 29 30  2  0  0  0  0
 30 26  1  0  0  0  0
 30 32  1  0  0  0  0
 31 33  1  0  0  0  0
 31 32  1  0  0  0  0
 33 32  1  0  0  0  0
 34 35  1  6  0  0  0
 34 22  1  0  0  0  0
 36 34  1  0  0  0  0
 37 36  1  0  0  0  0
 38 37  1  0  0  0  0
 39 38  1  0  0  0  0
M  END
>  <MODEL>
5

>  <REMARK>
 VINA RESULT:      -6.4      2.378      9.860
  Name = 
  19 active torsions:
  status: ('A' for Active; 'I' for Inactive)
    1  A    between atoms: C_1  and  C_6
    2  A    between atoms: C_1  and  O_21
    3  A    between atoms: C_1  and  N_32
    4  A    between atoms: C_1  and  C_36
    5  A    between atoms: C_2  and  C_31
    6  A    between atoms: C_4  and  C_12
    7  A    between atoms: C_5  and  C_35
    8  A    between atoms: C_8  and  C_16
    9  A    between atoms: N_10  and  C_12
   10  A    between atoms: C_12  and  C_34
   11  A    between atoms: C_14  and  O_19
   12  A    between atoms: C_16  and  C_26
   13  A    between atoms: C_17  and  C_26
   14  A    between atoms: C_17  and  C_31
   15  A    between atoms: O_19  and  C_31
   16  A    between atoms: C_20  and  C_24
   17  A    between atoms: C_20  and  C_30
   18  A    between atoms: C_28  and  C_34
   19  A    between atoms: N_32  and  C_35
                            x       y       z     vdW  Elec       q    Type
                         _______ _______ _______ _____ _____    ______ ____

>  <TORSDO>
F 19

$$$$
=
 OpenBabel11072415103D

 39 41  0  0  1  0  0  0  0  0999 V2000
  161.8500  208.0310  150.6430 C   0  0  2  0  0  3  0  0  0  0  0  0
  161.0590  207.2660  149.5970 C   0  0  0  0  0  2  0  0  0  0  0  0
  161.9010  206.5000  150.5990 C   0  0  2  0  0  3  0  0  0  0  0  0
  161.0050  205.8330  151.6400 C   0  0  0  0  0  2  0  0  0  0  0  0
  161.1410  203.2220  149.0690 C   0  0  0  0  0  0  0  0  0  0  0  0
  160.8210  202.0260  151.2730 C   0  0  0  0  0  2  0  0  0  0  0  0
  161.4300  201.9760  149.8730 C   0  0  0  0  0  2  0  0  0  0  0  0
  161.1610  203.3560  151.9320 C   0  0  0  0  0  2  0  0  0  0  0  0
  160.7890  204.3780  149.6640 C   0  0  0  0  0  3  0  0  0  0  0  0
  160.5100  204.4880  151.1390 C   0  0  2  0  0  3  0  0  0  0  0  0
  161.0180  201.9650  147.0640 O   0  0  0  0  0  1  0  0  0  0  0  0
  161.4120  203.1920  147.5970 C   0  0  1  0  0  3  0  0  0  0  0  0
  160.6960  204.2770  146.9280 N   0  0  0  0  0  2  0  0  0  0  0  0
  161.5830  205.0390  146.0400 C   0  0  0  0  0  0  0  0  0  0  0  0
  163.0450  204.8520  146.4810 C   0  0  0  0  0  2  0  0  0  0  0  0
  163.8020  204.2580  145.4680 O   0  0  0  0  0  1  0  0  0  0  0  0
  161.3900  205.5160  143.6870 O   0  0  0  0  0  1  0  0  0  0  0  0
  161.4160  204.4790  144.6250 C   0  0  0  0  0  2  0  0  0  0  0  0
  161.2220  206.4090  146.0720 O   0  0  0  0  0  0  0  0  0  0  0  0
  159.9470  206.4780  146.4070 O   0  0  0  0  0  1  0  0  0  0  0  0
  160.9800  208.5040  151.6370 O   0  0  0  0  0  0  0  0  0  0  0  0
  161.1310  209.8960  151.6300 C   0  0  2  0  0  3  0  0  0  0  0  0
  162.3050  210.2800  150.7920 C   0  0  0  0  0  3  0  0  0  0  0  0
  161.9240  211.8250  148.7250 C   0  0  0  0  0  3  0  0  0  0  0  0
  162.1260  211.0510  149.7560 C   0  0  0  0  0  0  0  0  0  0  0  0
  161.1540  213.1020  148.8560 C   0  0  2  0  0  3  0  0  0  0  0  0
  160.2030  213.0160  149.9570 N   0  0  0  0  0  2  0  0  0  0  0  0
  160.1390  214.3330  150.5680 C   0  0  0  0  0  1  0  0  0  0  0  0
  160.6210  214.4510  146.9910 O   0  0  0  0  0  0  0  0  0  0  0  0
  160.4330  213.3920  147.5720 C   0  0  0  0  0  0  0  0  0  0  0  0
  158.0670  212.7540  147.1340 C   0  0  0  0  0  2  0  0  0  0  0  0
  159.5260  212.3660  146.9590 C   0  0  0  0  0  3  0  0  0  0  0  0
  158.7560  212.9980  145.8120 C   0  0  0  0  0  2  0  0  0  0  0  0
  161.2760  210.4440  153.0490 C   0  0  2  0  0  3  0  0  0  0  0  0
  161.0040  209.3730  154.1030 C   0  0  0  0  0  1  0  0  0  0  0  0
  160.3510  211.6370  153.2440 C   0  0  0  0  0  2  0  0  0  0  0  0
  158.9140  211.1910  153.4660 C   0  0  0  0  0  2  0  0  0  0  0  0
  158.3390  211.8450  154.7080 C   0  0  0  0  0  2  0  0  0  0  0  0
  158.0870  210.8710  155.6730 O   0  0  0  0  0  1  0  0  0  0  0  0
  1 21  1  1  0  0  0
  2  3  1  0  0  0  0
  2  1  1  0  0  0  0
  3  1  1  0  0  0  0
  3  4  1  1  0  0  0
  5  9  2  0  0  0  0
  5  7  1  0  0  0  0
  6  8  1  0  0  0  0
  7  6  1  0  0  0  0
  9 10  1  0  0  0  0
 10  4  1  1  0  0  0
 10  8  1  0  0  0  0
 12 11  1  6  0  0  0
 12  5  1  0  0  0  0
 13 12  1  0  0  0  0
 14 19  1  0  0  0  0
 14 15  1  0  0  0  0
 14 13  1  0  0  0  0
 16 15  1  0  0  0  0
 17 18  1  0  0  0  0
 18 14  1  0  0  0  0
 19 20  1  0  0  0  0
 22 23  1  6  0  0  0
 22 21  1  0  0  0  0
 22 34  1  0  0  0  0
 24 25  2  0  0  0  0
 25 23  2  0  0  0  0
 26 24  1  6  0  0  0
 26 27  1  0  0  0  0
 27 28  1  0  0  0  0
 29 30  2  0  0  0  0
 30 26  1  0  0  0  0
 32 31  1  0  0  0  0
 32 30  1  0  0  0  0
 33 32  1  0  0  0  0
 33 31  1  0  0  0  0
 34 36  1  0  0  0  0
 34 35  1  1  0  0  0
 36 37  1  0  0  0  0
 37 38  1  0  0  0  0
 38 39  1  0  0  0  0
M  END
>  <MODEL>
6

>  <REMARK>
 VINA RESULT:      -6.2      2.739      9.196
  Name = 
  19 active torsions:
  status: ('A' for Active; 'I' for Inactive)
    1  A    between atoms: C_1  and  C_6
    2  A    between atoms: C_1  and  O_21
    3  A    between atoms: C_1  and  N_32
    4  A    between atoms: C_1  and  C_36
    5  A    between atoms: C_2  and  C_31
    6  A    between atoms: C_4  and  C_12
    7  A    between atoms: C_5  and  C_35
    8  A    between atoms: C_8  and  C_16
    9  A    between atoms: N_10  and  C_12
   10  A    between atoms: C_12  and  C_34
   11  A    between atoms: C_14  and  O_19
   12  A    between atoms: C_16  and  C_26
   13  A    between atoms: C_17  and  C_26
   14  A    between atoms: C_17  and  C_31
   15  A    between atoms: O_19  and  C_31
   16  A    between atoms: C_20  and  C_24
   17  A    between atoms: C_20  and  C_30
   18  A    between atoms: C_28  and  C_34
   19  A    between atoms: N_32  and  C_35
                            x       y       z     vdW  Elec       q    Type
                         _______ _______ _______ _____ _____    ______ ____

>  <TORSDO>
F 19

$$$$
=
 OpenBabel11072415103D

 39 41  0  0  1  0  0  0  0  0999 V2000
  161.4510  206.8920  152.0710 C   0  0  2  0  0  3  0  0  0  0  0  0
  160.4760  206.4160  151.0090 C   0  0  0  0  0  2  0  0  0  0  0  0
  161.8100  205.7110  151.1630 C   0  0  2  0  0  3  0  0  0  0  0  0
  161.6150  204.3510  151.8290 C   0  0  0  0  0  2  0  0  0  0  0  0
  161.2010  202.8420  148.5130 C   0  0  0  0  0  0  0  0  0  0  0  0
  160.5450  201.0630  150.1850 C   0  0  0  0  0  2  0  0  0  0  0  0
  161.1640  201.3640  148.8210 C   0  0  0  0  0  2  0  0  0  0  0  0
  161.1710  201.9640  151.2410 C   0  0  0  0  0  2  0  0  0  0  0  0
  161.1170  203.7670  149.4880 C   0  0  0  0  0  3  0  0  0  0  0  0
  160.8300  203.4190  150.9250 C   0  0  2  0  0  3  0  0  0  0  0  0
  160.8460  202.4220  146.2070 O   0  0  0  0  0  1  0  0  0  0  0  0
  161.5000  203.2640  147.1080 C   0  0  1  0  0  3  0  0  0  0  0  0
  161.0730  204.6470  146.8930 N   0  0  0  0  0  2  0  0  0  0  0  0
  162.0750  205.4060  146.1340 C   0  0  0  0  0  0  0  0  0  0  0  0
  163.4410  204.7060  146.2320 C   0  0  0  0  0  2  0  0  0  0  0  0
  163.7950  204.1240  145.0120 O   0  0  0  0  0  1  0  0  0  0  0  0
  160.4700  206.1900  144.5190 O   0  0  0  0  0  1  0  0  0  0  0  0
  161.6310  205.4260  144.6690 C   0  0  0  0  0  2  0  0  0  0  0  0
  162.1520  206.7270  146.6420 O   0  0  0  0  0  0  0  0  0  0  0  0
  162.3910  206.6420  147.9390 O   0  0  0  0  0  1  0  0  0  0  0  0
  161.0100  206.4730  153.3360 O   0  0  0  0  0  0  0  0  0  0  0  0
  160.7310  207.6500  154.0400 C   0  0  2  0  0  3  0  0  0  0  0  0
  161.5680  208.7710  153.5190 C   0  0  0  0  0  3  0  0  0  0  0  0
  160.3870  210.9440  152.6890 C   0  0  0  0  0  3  0  0  0  0  0  0
  160.9890  209.8610  153.1000 C   0  0  0  0  0  0  0  0  0  0  0  0
  159.3700  211.6340  153.5430 C   0  0  2  0  0  3  0  0  0  0  0  0
  158.3270  210.7030  153.9530 N   0  0  0  0  0  2  0  0  0  0  0  0
  158.2210  210.7920  155.4000 C   0  0  0  0  0  1  0  0  0  0  0  0
  158.2200  212.5850  151.7100 O   0  0  0  0  0  0  0  0  0  0  0  0
  158.7690  212.7820  152.7840 C   0  0  0  0  0  0  0  0  0  0  0  0
  157.4970  214.4530  154.1220 C   0  0  0  0  0  2  0  0  0  0  0  0
  158.7820  214.1670  153.3620 C   0  0  0  0  0  3  0  0  0  0  0  0
  158.7500  214.0780  154.8780 C   0  0  0  0  0  2  0  0  0  0  0  0
  160.9510  207.4630  155.5410 C   0  0  2  0  0  3  0  0  0  0  0  0
  159.6410  207.5420  156.3220 C   0  0  0  0  0  1  0  0  0  0  0  0
  161.9470  208.4930  156.0540 C   0  0  0  0  0  2  0  0  0  0  0  0
  161.2940  209.4440  157.0450 C   0  0  0  0  0  2  0  0  0  0  0  0
  161.6900  210.8780  156.7470 C   0  0  0  0  0  2  0  0  0  0  0  0
  162.9370  210.8960  156.1230 O   0  0  0  0  0  1  0  0  0  0  0  0
  1 21  1  1  0  0  0
  2  3  1  0  0  0  0
  2  1  1  0  0  0  0
  3  4  1  1  0  0  0
  3  1  1  0  0  0  0
  5  7  1  0  0  0  0
  5  9  2  0  0  0  0
  6  8  1  0  0  0  0
  7  6  1  0  0  0  0
  9 10  1  0  0  0  0
 10  8  1  0  0  0  0
 10  4  1  1  0  0  0
 12 11  1  6  0  0  0
 12  5  1  0  0  0  0
 13 12  1  0  0  0  0
 14 15  1  0  0  0  0
 14 19  1  0  0  0  0
 14 13  1  0  0  0  0
 16 15  1  0  0  0  0
 17 18  1  0  0  0  0
 18 14  1  0  0  0  0
 19 20  1  0  0  0  0
 21 22  1  0  0  0  0
 22 23  1  6  0  0  0
 22 34  1  0  0  0  0
 24 25  2  0  0  0  0
 25 23  2  0  0  0  0
 26 24  1  6  0  0  0
 26 27  1  0  0  0  0
 27 28  1  0  0  0  0
 29 30  2  0  0  0  0
 30 32  1  0  0  0  0
 30 26  1  0  0  0  0
 31 33  1  0  0  0  0
 32 31  1  0  0  0  0
 32 33  1  0  0  0  0
 34 36  1  0  0  0  0
 34 35  1  1  0  0  0
 36 37  1  0  0  0  0
 38 37  1  0  0  0  0
 39 38  1  0  0  0  0
M  END
>  <MODEL>
7

>  <REMARK>
 VINA RESULT:      -6.1      2.342      9.979
  Name = 
  19 active torsions:
  status: ('A' for Active; 'I' for Inactive)
    1  A    between atoms: C_1  and  C_6
    2  A    between atoms: C_1  and  O_21
    3  A    between atoms: C_1  and  N_32
    4  A    between atoms: C_1  and  C_36
    5  A    between atoms: C_2  and  C_31
    6  A    between atoms: C_4  and  C_12
    7  A    between atoms: C_5  and  C_35
    8  A    between atoms: C_8  and  C_16
    9  A    between atoms: N_10  and  C_12
   10  A    between atoms: C_12  and  C_34
   11  A    between atoms: C_14  and  O_19
   12  A    between atoms: C_16  and  C_26
   13  A    between atoms: C_17  and  C_26
   14  A    between atoms: C_17  and  C_31
   15  A    between atoms: O_19  and  C_31
   16  A    between atoms: C_20  and  C_24
   17  A    between atoms: C_20  and  C_30
   18  A    between atoms: C_28  and  C_34
   19  A    between atoms: N_32  and  C_35
                            x       y       z     vdW  Elec       q    Type
                         _______ _______ _______ _____ _____    ______ ____

>  <TORSDO>
F 19

$$$$
=
 OpenBabel11072415103D

 39 41  0  0  1  0  0  0  0  0999 V2000
  161.7700  207.9440  150.6380 C   0  0  2  0  0  3  0  0  0  0  0  0
  160.9340  207.1420  149.6560 C   0  0  0  0  0  2  0  0  0  0  0  0
  162.0330  206.4490  150.4370 C   0  0  2  0  0  3  0  0  0  0  0  0
  161.4300  205.5740  151.5330 C   0  0  0  0  0  2  0  0  0  0  0  0
  161.2020  203.1520  148.7890 C   0  0  0  0  0  0  0  0  0  0  0  0
  160.6350  201.8820  150.9000 C   0  0  0  0  0  2  0  0  0  0  0  0
  161.2630  201.8250  149.5090 C   0  0  0  0  0  2  0  0  0  0  0  0
  161.1710  203.0910  151.6540 C   0  0  0  0  0  2  0  0  0  0  0  0
  161.0290  204.3080  149.4580 C   0  0  0  0  0  3  0  0  0  0  0  0
  160.7350  204.3650  150.9330 C   0  0  2  0  0  3  0  0  0  0  0  0
  161.1790  201.9450  146.7500 O   0  0  0  0  0  1  0  0  0  0  0  0
  161.5030  203.1750  147.3230 C   0  0  1  0  0  3  0  0  0  0  0  0
  160.7460  204.2420  146.6680 N   0  0  0  0  0  2  0  0  0  0  0  0
  161.6090  205.0620  145.8080 C   0  0  0  0  0  0  0  0  0  0  0  0
  163.0840  204.7200  146.0750 C   0  0  0  0  0  2  0  0  0  0  0  0
  163.6530  204.0650  144.9800 O   0  0  0  0  0  1  0  0  0  0  0  0
  160.0850  203.9900  144.2830 O   0  0  0  0  0  1  0  0  0  0  0  0
  161.2750  204.7200  144.3530 C   0  0  0  0  0  2  0  0  0  0  0  0
  161.3600  206.4350  146.0590 O   0  0  0  0  0  0  0  0  0  0  0  0
  160.2640  206.5140  146.7920 O   0  0  0  0  0  1  0  0  0  0  0  0
  161.0180  208.2000  151.7950 O   0  0  0  0  0  0  0  0  0  0  0  0
  160.8690  209.5910  151.8400 C   0  0  2  0  0  3  0  0  0  0  0  0
  162.0710  210.2560  151.2570 C   0  0  0  0  0  3  0  0  0  0  0  0
  161.9690  211.1040  148.7920 C   0  0  0  0  0  3  0  0  0  0  0  0
  162.0330  210.6830  150.0260 C   0  0  0  0  0  0  0  0  0  0  0  0
  160.8350  211.9610  148.3250 C   0  0  2  0  0  3  0  0  0  0  0  0
  160.9290  212.2000  146.8910 N   0  0  0  0  0  2  0  0  0  0  0  0
  159.5700  212.2830  146.3820 C   0  0  0  0  0  1  0  0  0  0  0  0
  161.8360  213.9860  149.0220 O   0  0  0  0  0  0  0  0  0  0  0  0
  160.8490  213.2660  149.0680 C   0  0  0  0  0  0  0  0  0  0  0  0
  159.5400  213.0420  151.1740 C   0  0  0  0  0  2  0  0  0  0  0  0
  159.6350  213.7270  149.8200 C   0  0  0  0  0  3  0  0  0  0  0  0
  160.0720  214.4530  151.0810 C   0  0  0  0  0  2  0  0  0  0  0  0
  160.6220  210.0750  153.2690 C   0  0  2  0  0  3  0  0  0  0  0  0
  161.8720  210.7030  153.8810 C   0  0  0  0  0  1  0  0  0  0  0  0
  160.1220  208.9240  154.1300 C   0  0  0  0  0  2  0  0  0  0  0  0
  161.1130  208.5910  155.2340 C   0  0  0  0  0  2  0  0  0  0  0  0
  160.3840  208.2610  156.5230 C   0  0  0  0  0  2  0  0  0  0  0  0
  159.7470  207.0270  156.3940 O   0  0  0  0  0  1  0  0  0  0  0  0
  1 21  1  1  0  0  0
  2  3  1  0  0  0  0
  2  1  1  0  0  0  0
  3  1  1  0  0  0  0
  3  4  1  1  0  0  0
  5  9  2  0  0  0  0
  5  7  1  0  0  0  0
  6  8  1  0  0  0  0
  7  6  1  0  0  0  0
  9 10  1  0  0  0  0
 10  4  1  1  0  0  0
 10  8  1  0  0  0  0
 12 11  1  6  0  0  0
 12  5  1  0  0  0  0
 13 12  1  0  0  0  0
 14 19  1  0  0  0  0
 14 15  1  0  0  0  0
 14 13  1  0  0  0  0
 16 15  1  0  0  0  0
 17 18  1  0  0  0  0
 18 14  1  0  0  0  0
 19 20  1  0  0  0  0
 21 22  1  0  0  0  0
 22 23  1  1  0  0  0
 22 34  1  0  0  0  0
 24 25  2  0  0  0  0
 25 23  2  0  0  0  0
 26 24  1  1  0  0  0
 26 30  1  0  0  0  0
 27 26  1  0  0  0  0
 28 27  1  0  0  0  0
 29 30  2  0  0  0  0
 30 32  1  0  0  0  0
 32 33  1  0  0  0  0
 32 31  1  0  0  0  0
 33 31  1  0  0  0  0
 34 35  1  1  0  0  0
 34 36  1  0  0  0  0
 36 37  1  0  0  0  0
 37 38  1  0  0  0  0
 39 38  1  0  0  0  0
M  END
>  <MODEL>
8

>  <REMARK>
 VINA RESULT:      -5.9      3.044      9.338
  Name = 
  19 active torsions:
  status: ('A' for Active; 'I' for Inactive)
    1  A    between atoms: C_1  and  C_6
    2  A    between atoms: C_1  and  O_21
    3  A    between atoms: C_1  and  N_32
    4  A    between atoms: C_1  and  C_36
    5  A    between atoms: C_2  and  C_31
    6  A    between atoms: C_4  and  C_12
    7  A    between atoms: C_5  and  C_35
    8  A    between atoms: C_8  and  C_16
    9  A    between atoms: N_10  and  C_12
   10  A    between atoms: C_12  and  C_34
   11  A    between atoms: C_14  and  O_19
   12  A    between atoms: C_16  and  C_26
   13  A    between atoms: C_17  and  C_26
   14  A    between atoms: C_17  and  C_31
   15  A    between atoms: O_19  and  C_31
   16  A    between atoms: C_20  and  C_24
   17  A    between atoms: C_20  and  C_30
   18  A    between atoms: C_28  and  C_34
   19  A    between atoms: N_32  and  C_35
                            x       y       z     vdW  Elec       q    Type
                         _______ _______ _______ _____ _____    ______ ____

>  <TORSDO>
F 19

$$$$
=
 OpenBabel11072415103D

 39 41  0  0  1  0  0  0  0  0999 V2000
  161.6020  207.8660  150.4590 C   0  0  2  0  0  3  0  0  0  0  0  0
  160.7330  206.9800  149.5840 C   0  0  0  0  0  2  0  0  0  0  0  0
  161.8000  206.3470  150.4540 C   0  0  2  0  0  3  0  0  0  0  0  0
  161.1600  205.6470  151.6510 C   0  0  0  0  0  2  0  0  0  0  0  0
  161.0800  202.9230  149.1970 C   0  0  0  0  0  0  0  0  0  0  0  0
  160.9220  201.8290  151.4710 C   0  0  0  0  0  2  0  0  0  0  0  0
  161.4210  201.7120  150.0310 C   0  0  0  0  0  2  0  0  0  0  0  0
  161.3210  203.1840  152.0400 C   0  0  0  0  0  2  0  0  0  0  0  0
  160.7830  204.1080  149.7640 C   0  0  0  0  0  3  0  0  0  0  0  0
  160.6190  204.2870  151.2500 C   0  0  2  0  0  3  0  0  0  0  0  0
  160.6670  201.6390  147.2480 O   0  0  0  0  0  1  0  0  0  0  0  0
  161.2360  202.8260  147.7110 C   0  0  1  0  0  3  0  0  0  0  0  0
  160.6000  203.9700  147.0590 N   0  0  0  0  0  2  0  0  0  0  0  0
  161.3190  204.3620  145.8400 C   0  0  0  0  0  0  0  0  0  0  0  0
  160.7050  205.6500  145.2670 C   0  0  0  0  0  2  0  0  0  0  0  0
  161.2230  205.9320  144.0000 O   0  0  0  0  0  1  0  0  0  0  0  0
  162.8940  205.8890  146.8340 O   0  0  0  0  0  1  0  0  0  0  0  0
  162.7750  204.6350  146.2270 C   0  0  0  0  0  2  0  0  0  0  0  0
  161.2520  203.3110  144.8920 O   0  0  0  0  0  0  0  0  0  0  0  0
  160.0120  203.2600  144.4400 O   0  0  0  0  0  1  0  0  0  0  0  0
  160.8620  208.3010  151.5690 O   0  0  0  0  0  0  0  0  0  0  0  0
  160.9150  209.6990  151.5260 C   0  0  2  0  0  3  0  0  0  0  0  0
  162.2480  210.1470  151.0260 C   0  0  0  0  0  3  0  0  0  0  0  0
  162.3660  211.5210  148.8120 C   0  0  0  0  0  3  0  0  0  0  0  0
  162.3200  210.8340  149.9200 C   0  0  0  0  0  0  0  0  0  0  0  0
  161.4960  212.7220  148.6110 C   0  0  2  0  0  3  0  0  0  0  0  0
  160.3800  212.7090  149.5480 N   0  0  0  0  0  2  0  0  0  0  0  0
  160.2000  214.0740  150.0150 C   0  0  0  0  0  1  0  0  0  0  0  0
  160.3270  211.8070  146.7720 O   0  0  0  0  0  0  0  0  0  0  0  0
  160.9840  212.7450  147.1990 C   0  0  0  0  0  0  0  0  0  0  0  0
  162.4770  213.7620  145.4870 C   0  0  0  0  0  2  0  0  0  0  0  0
  161.2210  213.9390  146.3230 C   0  0  0  0  0  3  0  0  0  0  0  0
  161.1210  213.5200  144.8660 C   0  0  0  0  0  2  0  0  0  0  0  0
  160.6180  210.3070  152.8960 C   0  0  2  0  0  3  0  0  0  0  0  0
  159.9930  211.6950  152.7790 C   0  0  0  0  0  1  0  0  0  0  0  0
  161.8900  210.3580  153.7300 C   0  0  0  0  0  2  0  0  0  0  0  0
  161.6050  210.8550  155.1390 C   0  0  0  0  0  2  0  0  0  0  0  0
  162.7050  210.4200  156.0900 C   0  0  0  0  0  2  0  0  0  0  0  0
  162.1900  209.5070  157.0100 O   0  0  0  0  0  1  0  0  0  0  0  0
  1 21  1  1  0  0  0
  2  3  1  0  0  0  0
  2  1  1  0  0  0  0
  3  1  1  0  0  0  0
  3  4  1  1  0  0  0
  5  9  2  0  0  0  0
  5  7  1  0  0  0  0
  6  8  1  0  0  0  0
  7  6  1  0  0  0  0
  9 10  1  0  0  0  0
 10  4  1  1  0  0  0
 10  8  1  0  0  0  0
 12 11  1  6  0  0  0
 12  5  1  0  0  0  0
 13 12  1  0  0  0  0
 14 18  1  0  0  0  0
 14 13  1  0  0  0  0
 15 14  1  0  0  0  0
 16 15  1  0  0  0  0
 18 17  1  0  0  0  0
 19 14  1  0  0  0  0
 20 19  1  0  0  0  0
 22 23  1  1  0  0  0
 22 21  1  0  0  0  0
 22 34  1  0  0  0  0
 24 25  2  0  0  0  0
 25 23  2  0  0  0  0
 26 24  1  6  0  0  0
 26 27  1  0  0  0  0
 27 28  1  0  0  0  0
 29 30  2  0  0  0  0
 30 26  1  0  0  0  0
 31 32  1  0  0  0  0
 32 30  1  0  0  0  0
 33 31  1  0  0  0  0
 33 32  1  0  0  0  0
 34 35  1  6  0  0  0
 34 36  1  0  0  0  0
 36 37  1  0  0  0  0
 37 38  1  0  0  0  0
 38 39  1  0  0  0  0
M  END
>  <MODEL>
9

>  <REMARK>
 VINA RESULT:      -5.9      3.064      9.230
  Name = 
  19 active torsions:
  status: ('A' for Active; 'I' for Inactive)
    1  A    between atoms: C_1  and  C_6
    2  A    between atoms: C_1  and  O_21
    3  A    between atoms: C_1  and  N_32
    4  A    between atoms: C_1  and  C_36
    5  A    between atoms: C_2  and  C_31
    6  A    between atoms: C_4  and  C_12
    7  A    between atoms: C_5  and  C_35
    8  A    between atoms: C_8  and  C_16
    9  A    between atoms: N_10  and  C_12
   10  A    between atoms: C_12  and  C_34
   11  A    between atoms: C_14  and  O_19
   12  A    between atoms: C_16  and  C_26
   13  A    between atoms: C_17  and  C_26
   14  A    between atoms: C_17  and  C_31
   15  A    between atoms: O_19  and  C_31
   16  A    between atoms: C_20  and  C_24
   17  A    between atoms: C_20  and  C_30
   18  A    between atoms: C_28  and  C_34
   19  A    between atoms: N_32  and  C_35
                            x       y       z     vdW  Elec       q    Type
                         _______ _______ _______ _____ _____    ______ ____

>  <TORSDO>
F 19

$$$$
