=
 OpenBabel11072414523D

 47 52  0  0  1  0  0  0  0  0999 V2000
  160.8910  211.3060  150.2920 C   0  0  2  0  0  3  0  0  0  0  0  0
  159.7100  212.3460  152.6970 C   0  0  2  0  0  3  0  0  0  0  0  0
  160.7740  213.3280  149.0540 C   0  0  0  0  0  2  0  0  0  0  0  0
  161.6940  208.0840  151.5920 C   0  0  0  0  0  3  0  0  0  0  0  0
  160.8460  212.7960  150.4640 C   0  0  1  0  0  3  0  0  0  0  0  0
  159.7070  213.1920  151.3990 C   0  0  0  0  0  2  0  0  0  0  0  0
  161.6050  212.3330  148.2300 C   0  0  2  0  0  0  0  0  0  0  0  0
  161.2620  210.6610  151.5950 C   0  0  0  0  0  0  0  0  0  0  0  0
  160.9860  211.4660  152.8610 C   0  0  2  0  0  3  0  0  0  0  0  0
  158.4410  211.5060  152.7470 C   0  0  0  0  0  1  0  0  0  0  0  0
  161.4740  209.3700  151.6170 C   0  0  0  0  0  0  0  0  0  0  0  0
  161.8660  211.1300  149.1550 C   0  0  0  0  0  2  0  0  0  0  0  0
  164.0020  212.2940  148.3570 F   0  0  0  0  0  0  0  0  0  0  0  0
  162.9900  214.3010  148.2240 F   0  0  0  0  0  0  0  0  0  0  0  0
  163.0610  212.9580  146.4220 F   0  0  0  0  0  0  0  0  0  0  0  0
  162.9360  212.9820  147.8030 C   0  0  0  0  0  0  0  0  0  0  0  0
  162.3720  210.6480  154.6390 O   0  0  0  0  0  1  0  0  0  0  0  0
  161.0520  210.6820  154.1840 C   0  0  1  0  0  3  0  0  0  0  0  0
  160.8400  212.1560  156.1290 O   0  0  0  0  0  0  0  0  0  0  0  0
  158.9620  211.1830  157.2610 C   0  0  0  0  0  2  0  0  0  0  0  0
  160.1440  211.3090  155.2490 C   0  0  2  0  0  3  0  0  0  0  0  0
  160.0610  209.1210  156.5270 C   0  0  0  0  0  1  0  0  0  0  0  0
  160.0030  212.2950  157.2540 C   0  0  2  0  0  3  0  0  0  0  0  0
  159.2910  210.3470  156.0590 C   0  0  1  0  0  3  0  0  0  0  0  0
  158.0960  213.7620  156.9840 N   0  0  0  0  0  2  0  0  0  0  0  0
  159.3440  213.6420  157.2560 C   0  0  0  0  0  3  0  0  0  0  0  0
  161.0710  207.2370  150.5360 C   0  0  0  0  0  2  0  0  0  0  0  0
  162.0650  206.5430  149.8350 O   0  0  0  0  0  0  0  0  0  0  0  0
  160.5580  205.1290  150.5410 O   0  0  0  0  0  1  0  0  0  0  0  0
  161.5590  205.2960  149.6430 N   0  0  0  0  0  0  0  0  0  0  0  0
  161.1980  204.9560  145.4230 C   0  0  0  0  0  0  0  0  0  0  0  0
  161.3870  203.8380  146.2400 O   0  0  0  0  0  0  0  0  0  0  0  0
  161.3860  202.8630  148.3170 O   0  0  0  0  0  0  0  0  0  0  0  0
  160.9660  205.2250  148.3020 C   0  0  2  0  0  3  0  0  0  0  0  0
  161.2810  203.9140  147.6320 C   0  0  0  0  0  0  0  0  0  0  0  0
  160.8030  206.2760  146.0150 C   0  0  0  0  0  2  0  0  0  0  0  0
  161.3900  206.4070  147.4140 C   0  0  0  0  0  2  0  0  0  0  0  0
  161.3110  204.8450  144.1740 O   0  0  0  0  0  0  0  0  0  0  0  0
  160.7650  211.9280  147.0090 C   0  0  0  0  0  2  0  0  0  0  0  0
  159.5620  212.8360  146.7770 C   0  0  0  0  0  2  0  0  0  0  0  0
  157.9400  212.4910  144.8940 F   0  0  0  0  0  0  0  0  0  0  0  0
  159.8850  211.9160  143.1960 O   0  0  0  0  0  1  0  0  0  0  0  0
  161.2000  213.5790  144.1030 O   0  0  0  0  0  0  0  0  0  0  0  0
  159.0940  214.4530  143.3140 C   0  0  0  0  0  1  0  0  0  0  0  0
  159.2090  212.8800  145.3020 C   0  0  1  0  0  0  0  0  0  0  0  0
  159.9070  213.9580  144.5060 C   0  0  2  0  0  0  0  0  0  0  0  0
  160.3430  212.4980  144.3830 C   0  0  2  0  0  0  0  0  0  0  0  0
  1 12  1  6  0  0  0
  1  5  1  0  0  0  0
  1  8  1  0  0  0  0
  2 10  1  6  0  0  0
  2  9  1  0  0  0  0
  4 11  2  0  0  0  0
  5  3  1  6  0  0  0
  5  6  1  0  0  0  0
  6  2  1  0  0  0  0
  7 39  1  6  0  0  0
  7  3  1  0  0  0  0
  7 12  1  0  0  0  0
  8 11  2  0  0  0  0
  8  9  1  0  0  0  0
  9 18  1  1  0  0  0
 15 16  1  0  0  0  0
 16 14  1  0  0  0  0
 16  7  1  0  0  0  0
 16 13  1  0  0  0  0
 18 17  1  1  0  0  0
 19 23  1  0  0  0  0
 21 18  1  1  0  0  0
 21 24  1  0  0  0  0
 21 19  1  0  0  0  0
 23 26  1  6  0  0  0
 23 20  1  0  0  0  0
 24 22  1  1  0  0  0
 24 20  1  0  0  0  0
 25 26  2  0  0  0  0
 27  4  1  0  0  0  0
 28 27  1  0  0  0  0
 30 28  1  0  0  0  0
 30 29  1  0  0  0  0
 31 36  1  0  0  0  0
 31 32  1  0  0  0  0
 32 35  1  0  0  0  0
 34 30  1  1  0  0  0
 35 34  1  0  0  0  0
 35 33  2  0  0  0  0
 36 37  1  0  0  0  0
 37 34  1  0  0  0  0
 38 31  2  0  0  0  0
 40 39  1  0  0  0  0
 43 47  1  0  0  0  0
 43 46  1  0  0  0  0
 45 41  1  6  0  0  0
 45 40  1  0  0  0  0
 46 44  1  6  0  0  0
 46 45  1  0  0  0  0
 47 42  1  6  0  0  0
 47 46  1  0  0  0  0
 47 45  1  0  0  0  0
M  END
>  <MODEL>
1

>  <REMARK>
 VINA RESULT:      -7.2      0.000      0.000
  Name = 
  11 active torsions:
  status: ('A' for Active; 'I' for Inactive)
    1  A    between atoms: C_11  and  C_23
    2  A    between atoms: C_11  and  C_34
    3  A    between atoms: C_14  and  C_21
    4  A    between atoms: C_21  and  O_41
    5  A    between atoms: C_22  and  C_30
    6  A    between atoms: C_22  and  C_47
    7  A    between atoms: C_27  and  C_36
    8  A    between atoms: C_27  and  C_47
    9  A    between atoms: N_28  and  C_31
   10  A    between atoms: N_28  and  O_41
   11  A    between atoms: C_32  and  C_33
                            x       y       z     vdW  Elec       q    Type
                         _______ _______ _______ _____ _____    ______ ____

>  <TORSDO>
F 11

$$$$
=
 OpenBabel11072414523D

 47 52  0  0  1  0  0  0  0  0999 V2000
  161.1330  211.3110  150.0280 C   0  0  2  0  0  3  0  0  0  0  0  0
  159.8440  212.0470  152.4890 C   0  0  2  0  0  3  0  0  0  0  0  0
  160.7980  213.3900  148.9320 C   0  0  0  0  0  2  0  0  0  0  0  0
  162.2790  208.1120  151.1090 C   0  0  0  0  0  3  0  0  0  0  0  0
  160.9260  212.7720  150.3020 C   0  0  1  0  0  3  0  0  0  0  0  0
  159.7500  212.9770  151.2530 C   0  0  0  0  0  2  0  0  0  0  0  0
  161.7320  212.5500  148.0480 C   0  0  2  0  0  0  0  0  0  0  0  0
  161.5700  210.6210  151.2870 C   0  0  0  0  0  0  0  0  0  0  0  0
  161.2080  211.3010  152.6030 C   0  0  2  0  0  3  0  0  0  0  0  0
  158.6740  211.0740  152.4710 C   0  0  0  0  0  1  0  0  0  0  0  0
  161.9210  209.3620  151.2210 C   0  0  0  0  0  0  0  0  0  0  0  0
  162.1210  211.3210  148.8890 C   0  0  0  0  0  2  0  0  0  0  0  0
  163.1150  214.4530  148.5260 F   0  0  0  0  0  0  0  0  0  0  0  0
  162.8960  213.8280  146.3730 F   0  0  0  0  0  0  0  0  0  0  0  0
  164.1220  212.5790  147.7860 F   0  0  0  0  0  0  0  0  0  0  0  0
  162.9860  213.3670  147.6770 C   0  0  0  0  0  0  0  0  0  0  0  0
  162.7020  210.3980  154.2470 O   0  0  0  0  0  1  0  0  0  0  0  0
  161.3580  210.4380  153.8680 C   0  0  1  0  0  3  0  0  0  0  0  0
  161.2450  211.7580  155.9300 O   0  0  0  0  0  0  0  0  0  0  0  0
  159.4110  210.7090  157.0670 C   0  0  0  0  0  2  0  0  0  0  0  0
  160.5040  210.9850  155.0190 C   0  0  2  0  0  3  0  0  0  0  0  0
  160.4600  208.7050  156.1270 C   0  0  0  0  0  1  0  0  0  0  0  0
  160.4610  211.8130  157.0990 C   0  0  2  0  0  3  0  0  0  0  0  0
  159.6800  209.9670  155.7900 C   0  0  1  0  0  3  0  0  0  0  0  0
  158.5420  213.2900  157.1240 N   0  0  0  0  0  2  0  0  0  0  0  0
  159.8130  213.1590  157.2360 C   0  0  0  0  0  3  0  0  0  0  0  0
  161.7520  207.2780  149.9920 C   0  0  0  0  0  2  0  0  0  0  0  0
  160.4960  206.7630  150.3340 O   0  0  0  0  0  0  0  0  0  0  0  0
  160.7110  206.2900  148.2120 O   0  0  0  0  0  1  0  0  0  0  0  0
  160.2280  205.8230  149.3900 N   0  0  0  0  0  0  0  0  0  0  0  0
  161.1110  201.7210  150.0540 C   0  0  0  0  0  0  0  0  0  0  0  0
  161.0520  202.2640  148.7680 O   0  0  0  0  0  0  0  0  0  0  0  0
  161.0110  204.0840  147.3720 O   0  0  0  0  0  0  0  0  0  0  0  0
  160.9680  204.5980  149.7150 C   0  0  2  0  0  3  0  0  0  0  0  0
  160.9860  203.6440  148.5510 C   0  0  0  0  0  0  0  0  0  0  0  0
  161.1780  202.6130  151.2570 C   0  0  0  0  0  2  0  0  0  0  0  0
  160.4260  203.9070  150.9780 C   0  0  0  0  0  2  0  0  0  0  0  0
  161.1600  200.4720  150.2040 O   0  0  0  0  0  0  0  0  0  0  0  0
  160.9420  212.1420  146.7950 C   0  0  0  0  0  2  0  0  0  0  0  0
  159.6400  212.9180  146.6240 C   0  0  0  0  0  2  0  0  0  0  0  0
  158.0020  212.2920  144.8310 F   0  0  0  0  0  0  0  0  0  0  0  0
  159.9180  212.0850  143.0190 O   0  0  0  0  0  1  0  0  0  0  0  0
  160.9610  213.9550  143.8740 O   0  0  0  0  0  0  0  0  0  0  0  0
  158.6900  214.4370  143.2160 C   0  0  0  0  0  1  0  0  0  0  0  0
  159.2010  212.9030  145.1720 C   0  0  1  0  0  0  0  0  0  0  0  0
  159.6470  214.0930  144.3540 C   0  0  2  0  0  0  0  0  0  0  0  0
  160.3310  212.7360  144.1870 C   0  0  2  0  0  0  0  0  0  0  0  0
  1 12  1  6  0  0  0
  1  5  1  0  0  0  0
  1  8  1  0  0  0  0
  2 10  1  6  0  0  0
  2  9  1  0  0  0  0
  4 11  2  0  0  0  0
  5  3  1  6  0  0  0
  5  6  1  0  0  0  0
  6  2  1  0  0  0  0
  7 39  1  6  0  0  0
  7 12  1  0  0  0  0
  7  3  1  0  0  0  0
  8  9  1  0  0  0  0
  9 18  1  1  0  0  0
 11  8  2  0  0  0  0
 14 16  1  0  0  0  0
 16 15  1  0  0  0  0
 16  7  1  0  0  0  0
 16 13  1  0  0  0  0
 18 17  1  1  0  0  0
 19 23  1  0  0  0  0
 20 23  1  0  0  0  0
 21 18  1  6  0  0  0
 21 24  1  0  0  0  0
 21 19  1  0  0  0  0
 23 26  1  6  0  0  0
 24 22  1  1  0  0  0
 24 20  1  0  0  0  0
 25 26  2  0  0  0  0
 27 28  1  0  0  0  0
 27  4  1  0  0  0  0
 29 30  1  0  0  0  0
 30 28  1  0  0  0  0
 31 38  2  0  0  0  0
 31 36  1  0  0  0  0
 32 31  1  0  0  0  0
 33 35  2  0  0  0  0
 34 30  1  6  0  0  0
 34 37  1  0  0  0  0
 35 32  1  0  0  0  0
 35 34  1  0  0  0  0
 37 36  1  0  0  0  0
 40 39  1  0  0  0  0
 43 47  1  0  0  0  0
 43 46  1  0  0  0  0
 45 41  1  6  0  0  0
 45 40  1  0  0  0  0
 46 44  1  6  0  0  0
 46 45  1  0  0  0  0
 47 42  1  6  0  0  0
 47 46  1  0  0  0  0
 47 45  1  0  0  0  0
M  END
>  <MODEL>
2

>  <REMARK>
 VINA RESULT:      -6.4      1.206      2.038
  Name = 
  11 active torsions:
  status: ('A' for Active; 'I' for Inactive)
    1  A    between atoms: C_11  and  C_23
    2  A    between atoms: C_11  and  C_34
    3  A    between atoms: C_14  and  C_21
    4  A    between atoms: C_21  and  O_41
    5  A    between atoms: C_22  and  C_30
    6  A    between atoms: C_22  and  C_47
    7  A    between atoms: C_27  and  C_36
    8  A    between atoms: C_27  and  C_47
    9  A    between atoms: N_28  and  C_31
   10  A    between atoms: N_28  and  O_41
   11  A    between atoms: C_32  and  C_33
                            x       y       z     vdW  Elec       q    Type
                         _______ _______ _______ _____ _____    ______ ____

>  <TORSDO>
F 11

$$$$
=
 OpenBabel11072414523D

 47 52  0  0  1  0  0  0  0  0999 V2000
  160.9210  211.6590  149.8600 C   0  0  2  0  0  3  0  0  0  0  0  0
  159.5250  212.6530  152.1680 C   0  0  2  0  0  3  0  0  0  0  0  0
  160.8870  213.6980  148.6440 C   0  0  0  0  0  2  0  0  0  0  0  0
  161.6450  208.4270  151.1810 C   0  0  0  0  0  3  0  0  0  0  0  0
  160.8440  213.1470  150.0480 C   0  0  1  0  0  3  0  0  0  0  0  0
  159.6240  213.5180  150.8860 C   0  0  0  0  0  2  0  0  0  0  0  0
  161.7970  212.7230  147.8810 C   0  0  2  0  0  0  0  0  0  0  0  0
  161.1850  211.0000  151.1820 C   0  0  0  0  0  0  0  0  0  0  0  0
  160.7920  211.7830  152.4300 C   0  0  2  0  0  3  0  0  0  0  0  0
  158.2670  211.8000  152.0980 C   0  0  0  0  0  1  0  0  0  0  0  0
  161.4090  209.7110  151.2040 C   0  0  0  0  0  0  0  0  0  0  0  0
  161.9910  211.5100  148.8090 C   0  0  0  0  0  2  0  0  0  0  0  0
  164.1240  212.4270  147.3710 F   0  0  0  0  0  0  0  0  0  0  0  0
  163.5430  214.1960  148.6370 F   0  0  0  0  0  0  0  0  0  0  0  0
  163.0570  214.1800  146.4420 F   0  0  0  0  0  0  0  0  0  0  0  0
  163.1520  213.3910  147.5790 C   0  0  0  0  0  0  0  0  0  0  0  0
  162.0410  210.9040  154.2780 O   0  0  0  0  0  1  0  0  0  0  0  0
  160.7530  210.9810  153.7430 C   0  0  1  0  0  3  0  0  0  0  0  0
  160.4520  212.4880  155.6500 O   0  0  0  0  0  0  0  0  0  0  0  0
  158.5350  211.5230  156.7220 C   0  0  0  0  0  2  0  0  0  0  0  0
  159.7990  211.6210  154.7580 C   0  0  2  0  0  3  0  0  0  0  0  0
  159.6780  209.4550  156.0720 C   0  0  0  0  0  1  0  0  0  0  0  0
  159.5690  212.6420  156.7380 C   0  0  2  0  0  3  0  0  0  0  0  0
  158.9200  210.6670  155.5500 C   0  0  1  0  0  3  0  0  0  0  0  0
  157.6260  214.0860  156.7890 N   0  0  0  0  0  2  0  0  0  0  0  0
  158.9010  213.9830  156.6880 C   0  0  0  0  0  3  0  0  0  0  0  0
  161.1240  207.5890  150.0640 C   0  0  0  0  0  2  0  0  0  0  0  0
  161.5920  206.2760  150.1960 O   0  0  0  0  0  0  0  0  0  0  0  0
  160.2960  206.0360  148.4540 O   0  0  0  0  0  1  0  0  0  0  0  0
  160.6190  205.4960  149.6560 N   0  0  0  0  0  0  0  0  0  0  0  0
  161.0840  201.5750  148.0880 C   0  0  0  0  0  0  0  0  0  0  0  0
  161.4640  202.7090  147.3640 O   0  0  0  0  0  0  0  0  0  0  0  0
  161.9460  204.9500  147.2790 O   0  0  0  0  0  0  0  0  0  0  0  0
  161.1670  204.1580  149.4050 C   0  0  2  0  0  3  0  0  0  0  0  0
  161.5250  203.9750  147.9540 C   0  0  0  0  0  0  0  0  0  0  0  0
  160.7920  201.6690  149.5560 C   0  0  0  0  0  2  0  0  0  0  0  0
  160.2200  203.0420  149.8780 C   0  0  0  0  0  2  0  0  0  0  0  0
  161.0350  200.4550  147.5160 O   0  0  0  0  0  0  0  0  0  0  0  0
  161.0690  212.3270  146.5870 C   0  0  0  0  0  2  0  0  0  0  0  0
  159.9970  213.3270  146.1680 C   0  0  0  0  0  2  0  0  0  0  0  0
  158.5700  211.8400  147.5980 F   0  0  0  0  0  0  0  0  0  0  0  0
  156.4560  212.2240  146.0560 O   0  0  0  0  0  1  0  0  0  0  0  0
  156.9970  214.4530  145.8280 O   0  0  0  0  0  0  0  0  0  0  0  0
  156.7350  213.8420  148.1490 C   0  0  0  0  0  1  0  0  0  0  0  0
  158.6520  212.9370  146.7530 C   0  0  1  0  0  0  0  0  0  0  0  0
  157.6990  214.0860  146.9910 C   0  0  2  0  0  0  0  0  0  0  0  0
  157.4890  213.1350  145.8120 C   0  0  2  0  0  0  0  0  0  0  0  0
  1 12  1  6  0  0  0
  1  5  1  0  0  0  0
  1  8  1  0  0  0  0
  2 10  1  6  0  0  0
  2  9  1  0  0  0  0
  4 11  2  0  0  0  0
  5  3  1  6  0  0  0
  5  6  1  0  0  0  0
  6  2  1  0  0  0  0
  7 39  1  6  0  0  0
  7  3  1  0  0  0  0
  7 12  1  0  0  0  0
  8 11  2  0  0  0  0
  8  9  1  0  0  0  0
  9 18  1  1  0  0  0
 13 16  1  0  0  0  0
 15 16  1  0  0  0  0
 16  7  1  0  0  0  0
 16 14  1  0  0  0  0
 18 17  1  1  0  0  0
 19 23  1  0  0  0  0
 20 23  1  0  0  0  0
 21 18  1  1  0  0  0
 21 24  1  0  0  0  0
 21 19  1  0  0  0  0
 23 26  1  6  0  0  0
 24 22  1  1  0  0  0
 24 20  1  0  0  0  0
 26 25  2  0  0  0  0
 27 28  1  0  0  0  0
 27  4  1  0  0  0  0
 29 30  1  0  0  0  0
 30 28  1  0  0  0  0
 31 36  1  0  0  0  0
 32 35  1  0  0  0  0
 32 31  1  0  0  0  0
 33 35  2  0  0  0  0
 34 30  1  6  0  0  0
 34 37  1  0  0  0  0
 35 34  1  0  0  0  0
 36 37  1  0  0  0  0
 38 31  2  0  0  0  0
 40 39  1  0  0  0  0
 40 45  1  0  0  0  0
 43 46  1  0  0  0  0
 45 46  1  0  0  0  0
 45 41  1  1  0  0  0
 46 44  1  1  0  0  0
 47 43  1  0  0  0  0
 47 42  1  1  0  0  0
 47 45  1  0  0  0  0
 47 46  1  0  0  0  0
M  END
>  <MODEL>
3

>  <REMARK>
 VINA RESULT:      -5.4      1.631      2.239
  Name = 
  11 active torsions:
  status: ('A' for Active; 'I' for Inactive)
    1  A    between atoms: C_11  and  C_23
    2  A    between atoms: C_11  and  C_34
    3  A    between atoms: C_14  and  C_21
    4  A    between atoms: C_21  and  O_41
    5  A    between atoms: C_22  and  C_30
    6  A    between atoms: C_22  and  C_47
    7  A    between atoms: C_27  and  C_36
    8  A    between atoms: C_27  and  C_47
    9  A    between atoms: N_28  and  C_31
   10  A    between atoms: N_28  and  O_41
   11  A    between atoms: C_32  and  C_33
                            x       y       z     vdW  Elec       q    Type
                         _______ _______ _______ _____ _____    ______ ____

>  <TORSDO>
F 11

$$$$
=
 OpenBabel11072414523D

 47 52  0  0  1  0  0  0  0  0999 V2000
  161.1350  209.0270  151.5370 C   0  0  2  0  0  3  0  0  0  0  0  0
  161.0190  206.3180  150.5820 C   0  0  2  0  0  3  0  0  0  0  0  0
  160.8320  208.5030  153.8320 C   0  0  0  0  0  2  0  0  0  0  0  0
  161.9520  210.5280  148.4060 C   0  0  0  0  0  3  0  0  0  0  0  0
  161.3340  207.9220  152.5330 C   0  0  1  0  0  3  0  0  0  0  0  0
  160.6580  206.6410  152.0540 C   0  0  0  0  0  2  0  0  0  0  0  0
  161.1890  209.9940  153.7450 C   0  0  2  0  0  0  0  0  0  0  0  0
  161.8630  208.6950  150.2670 C   0  0  0  0  0  0  0  0  0  0  0  0
  162.1540  207.2200  150.0090 C   0  0  2  0  0  3  0  0  0  0  0  0
  159.7590  206.3970  149.7320 C   0  0  0  0  0  1  0  0  0  0  0  0
  161.9120  209.5960  149.3200 C   0  0  0  0  0  0  0  0  0  0  0  0
  161.6140  210.2440  152.2860 C   0  0  0  0  0  2  0  0  0  0  0  0
  162.5330  209.2750  155.6000 F   0  0  0  0  0  0  0  0  0  0  0  0
  162.0810  211.4740  155.4200 F   0  0  0  0  0  0  0  0  0  0  0  0
  163.5250  210.5050  153.9940 F   0  0  0  0  0  0  0  0  0  0  0  0
  162.3500  210.3170  154.7060 C   0  0  0  0  0  0  0  0  0  0  0  0
  163.9570  206.5770  148.5660 O   0  0  0  0  0  1  0  0  0  0  0  0
  162.5900  206.8620  148.5770 C   0  0  1  0  0  3  0  0  0  0  0  0
  162.4060  204.4310  148.3350 O   0  0  0  0  0  0  0  0  0  0  0  0
  161.1680  204.2480  146.2880 C   0  0  0  0  0  2  0  0  0  0  0  0
  161.7990  205.6630  148.0380 C   0  0  2  0  0  3  0  0  0  0  0  0
  162.6110  206.1330  145.6830 C   0  0  0  0  0  1  0  0  0  0  0  0
  161.8310  203.5050  147.4420 C   0  0  2  0  0  3  0  0  0  0  0  0
  161.4470  205.6980  146.5610 C   0  0  1  0  0  3  0  0  0  0  0  0
  161.0060  201.3640  148.2130 N   0  0  0  0  0  2  0  0  0  0  0  0
  160.8390  202.6340  148.1520 C   0  0  0  0  0  3  0  0  0  0  0  0
  160.8960  211.5800  148.3620 C   0  0  0  0  0  2  0  0  0  0  0  0
  161.3760  212.7060  147.6830 O   0  0  0  0  0  0  0  0  0  0  0  0
  159.9530  214.3490  147.4660 O   0  0  0  0  0  1  0  0  0  0  0  0
  160.3240  213.1520  146.9470 N   0  0  0  0  0  0  0  0  0  0  0  0
  161.9110  212.4650  143.0670 C   0  0  0  0  0  0  0  0  0  0  0  0
  160.5970  212.1220  143.3980 O   0  0  0  0  0  0  0  0  0  0  0  0
  158.7920  212.2730  144.8060 O   0  0  0  0  0  0  0  0  0  0  0  0
  160.7740  213.3880  145.5700 C   0  0  2  0  0  3  0  0  0  0  0  0
  160.0020  212.5460  144.5900 C   0  0  0  0  0  0  0  0  0  0  0  0
  162.7120  213.3680  143.9570 C   0  0  0  0  0  2  0  0  0  0  0  0
  162.2870  213.1690  145.4050 C   0  0  0  0  0  2  0  0  0  0  0  0
  162.4110  212.0550  141.9870 O   0  0  0  0  0  0  0  0  0  0  0  0
  159.9270  210.7950  154.1060 C   0  0  0  0  0  2  0  0  0  0  0  0
  159.1030  210.1520  155.2160 C   0  0  0  0  0  2  0  0  0  0  0  0
  158.5900  211.5210  157.2550 F   0  0  0  0  0  0  0  0  0  0  0  0
  156.0160  211.6280  156.6530 O   0  0  0  0  0  1  0  0  0  0  0  0
  156.5260  211.9170  154.4230 O   0  0  0  0  0  0  0  0  0  0  0  0
  157.5450  213.6260  155.7880 C   0  0  0  0  0  1  0  0  0  0  0  0
  158.2810  211.2020  155.9400 C   0  0  1  0  0  0  0  0  0  0  0  0
  157.7210  212.2960  155.0600 C   0  0  2  0  0  0  0  0  0  0  0  0
  156.8140  211.1860  155.5910 C   0  0  2  0  0  0  0  0  0  0  0  0
  1 12  1  1  0  0  0
  1  5  1  0  0  0  0
  2 10  1  6  0  0  0
  2  6  1  0  0  0  0
  4 11  2  0  0  0  0
  5  6  1  6  0  0  0
  5  3  1  0  0  0  0
  7  3  1  0  0  0  0
  7 39  1  1  0  0  0
  7 16  1  0  0  0  0
  8  1  1  0  0  0  0
  9 18  1  6  0  0  0
  9  8  1  0  0  0  0
  9  2  1  0  0  0  0
 11  8  2  0  0  0  0
 12  7  1  0  0  0  0
 15 16  1  0  0  0  0
 16 14  1  0  0  0  0
 16 13  1  0  0  0  0
 18 17  1  1  0  0  0
 20 24  1  0  0  0  0
 20 23  1  0  0  0  0
 21 19  1  0  0  0  0
 21 18  1  6  0  0  0
 23 26  1  1  0  0  0
 23 19  1  0  0  0  0
 24 22  1  6  0  0  0
 24 21  1  0  0  0  0
 26 25  2  0  0  0  0
 27  4  1  0  0  0  0
 28 27  1  0  0  0  0
 30 29  1  0  0  0  0
 30 28  1  0  0  0  0
 31 32  1  0  0  0  0
 31 36  1  0  0  0  0
 32 35  1  0  0  0  0
 34 30  1  1  0  0  0
 35 33  2  0  0  0  0
 35 34  1  0  0  0  0
 36 37  1  0  0  0  0
 37 34  1  0  0  0  0
 38 31  2  0  0  0  0
 39 40  1  0  0  0  0
 40 45  1  0  0  0  0
 43 46  1  0  0  0  0
 43 47  1  0  0  0  0
 45 41  1  1  0  0  0
 46 47  1  0  0  0  0
 46 44  1  1  0  0  0
 46 45  1  0  0  0  0
 47 45  1  0  0  0  0
 47 42  1  1  0  0  0
M  END
>  <MODEL>
4

>  <REMARK>
 VINA RESULT:      -5.0      3.513      9.064
  Name = 
  11 active torsions:
  status: ('A' for Active; 'I' for Inactive)
    1  A    between atoms: C_11  and  C_23
    2  A    between atoms: C_11  and  C_34
    3  A    between atoms: C_14  and  C_21
    4  A    between atoms: C_21  and  O_41
    5  A    between atoms: C_22  and  C_30
    6  A    between atoms: C_22  and  C_47
    7  A    between atoms: C_27  and  C_36
    8  A    between atoms: C_27  and  C_47
    9  A    between atoms: N_28  and  C_31
   10  A    between atoms: N_28  and  O_41
   11  A    between atoms: C_32  and  C_33
                            x       y       z     vdW  Elec       q    Type
                         _______ _______ _______ _____ _____    ______ ____

>  <TORSDO>
F 11

$$$$
=
 OpenBabel11072414523D

 47 52  0  0  1  0  0  0  0  0999 V2000
  161.2700  208.7610  152.5820 C   0  0  2  0  0  3  0  0  0  0  0  0
  161.3650  209.3220  155.3990 C   0  0  2  0  0  3  0  0  0  0  0  0
  161.8880  206.4760  152.7550 C   0  0  0  0  0  2  0  0  0  0  0  0
  159.9990  211.9380  151.5760 C   0  0  0  0  0  3  0  0  0  0  0  0
  161.2440  207.5980  153.5300 C   0  0  1  0  0  3  0  0  0  0  0  0
  161.9020  207.9740  154.8550 C   0  0  0  0  0  2  0  0  0  0  0  0
  161.4660  206.7280  151.3000 C   0  0  2  0  0  0  0  0  0  0  0  0
  160.3970  209.8600  153.1120 C   0  0  0  0  0  0  0  0  0  0  0  0
  160.1320  209.8620  154.6130 C   0  0  2  0  0  3  0  0  0  0  0  0
  162.5000  210.3360  155.4240 C   0  0  0  0  0  1  0  0  0  0  0  0
  160.1920  210.9130  152.3620 C   0  0  0  0  0  0  0  0  0  0  0  0
  160.8470  208.1370  151.2760 C   0  0  0  0  0  2  0  0  0  0  0  0
  159.5610  206.2220  149.9290 F   0  0  0  0  0  0  0  0  0  0  0  0
  159.6930  205.2370  151.9500 F   0  0  0  0  0  0  0  0  0  0  0  0
  161.0630  204.5830  150.2910 F   0  0  0  0  0  0  0  0  0  0  0  0
  160.4280  205.6760  150.8610 C   0  0  0  0  0  0  0  0  0  0  0  0
  160.4560  212.1940  155.0700 O   0  0  0  0  0  1  0  0  0  0  0  0
  159.5280  211.1560  155.1880 C   0  0  1  0  0  3  0  0  0  0  0  0
  158.1100  212.9120  154.2350 O   0  0  0  0  0  0  0  0  0  0  0  0
  155.9270  211.9460  154.4820 C   0  0  0  0  0  2  0  0  0  0  0  0
  158.2270  211.5310  154.4670 C   0  0  2  0  0  3  0  0  0  0  0  0
  156.9020  211.2080  156.6050 C   0  0  0  0  0  1  0  0  0  0  0  0
  156.7410  213.1340  153.9830 C   0  0  2  0  0  3  0  0  0  0  0  0
  156.9400  211.0230  155.0950 C   0  0  1  0  0  3  0  0  0  0  0  0
  157.3090  214.0860  151.8310 N   0  0  0  0  0  2  0  0  0  0  0  0
  156.5050  213.3620  152.5200 C   0  0  0  0  0  3  0  0  0  0  0  0
  160.9980  212.2730  150.5220 C   0  0  0  0  0  2  0  0  0  0  0  0
  160.3670  212.9330  149.4610 O   0  0  0  0  0  0  0  0  0  0  0  0
  162.1770  211.9570  148.7260 O   0  0  0  0  0  1  0  0  0  0  0  0
  161.2760  212.9320  148.4510 N   0  0  0  0  0  0  0  0  0  0  0  0
  159.1920  213.2710  144.7640 C   0  0  0  0  0  0  0  0  0  0  0  0
  160.5700  213.4870  144.8550 O   0  0  0  0  0  0  0  0  0  0  0  0
  162.5450  213.3050  146.0100 O   0  0  0  0  0  0  0  0  0  0  0  0
  160.5980  212.5660  147.2010 C   0  0  2  0  0  3  0  0  0  0  0  0
  161.2940  213.1600  146.0060 C   0  0  0  0  0  0  0  0  0  0  0  0
  158.4480  212.6090  145.8840 C   0  0  0  0  0  2  0  0  0  0  0  0
  159.1090  212.9510  147.2120 C   0  0  0  0  0  2  0  0  0  0  0  0
  158.5780  213.5870  143.7120 O   0  0  0  0  0  0  0  0  0  0  0  0
  162.7320  206.6580  150.4310 C   0  0  0  0  0  2  0  0  0  0  0  0
  162.5640  207.3210  149.0690 C   0  0  0  0  0  2  0  0  0  0  0  0
  163.8410  205.6420  147.7100 F   0  0  0  0  0  0  0  0  0  0  0  0
  162.3380  206.0820  145.5780 O   0  0  0  0  0  1  0  0  0  0  0  0
  160.4550  206.2080  146.9020 O   0  0  0  0  0  0  0  0  0  0  0  0
  161.5970  204.1010  147.1920 C   0  0  0  0  0  1  0  0  0  0  0  0
  162.6360  206.2840  147.9630 C   0  0  1  0  0  0  0  0  0  0  0  0
  161.3590  205.5120  147.7240 C   0  0  2  0  0  0  0  0  0  0  0  0
  161.7950  206.6100  146.7540 C   0  0  2  0  0  0  0  0  0  0  0  0
  1 12  1  6  0  0  0
  1  8  1  0  0  0  0
  1  5  1  0  0  0  0
  2 10  1  6  0  0  0
  4 11  2  0  0  0  0
  5  3  1  6  0  0  0
  5  6  1  0  0  0  0
  6  2  1  0  0  0  0
  7 39  1  6  0  0  0
  7  3  1  0  0  0  0
  8  9  1  0  0  0  0
  9 18  1  1  0  0  0
  9  2  1  0  0  0  0
 11  8  2  0  0  0  0
 12  7  1  0  0  0  0
 13 16  1  0  0  0  0
 15 16  1  0  0  0  0
 16  7  1  0  0  0  0
 16 14  1  0  0  0  0
 18 17  1  6  0  0  0
 19 21  1  0  0  0  0
 20 24  1  0  0  0  0
 21 24  1  0  0  0  0
 21 18  1  1  0  0  0
 23 26  1  6  0  0  0
 23 19  1  0  0  0  0
 23 20  1  0  0  0  0
 24 22  1  1  0  0  0
 25 26  2  0  0  0  0
 27  4  1  0  0  0  0
 28 27  1  0  0  0  0
 30 29  1  0  0  0  0
 30 28  1  0  0  0  0
 31 32  1  0  0  0  0
 31 36  1  0  0  0  0
 32 35  1  0  0  0  0
 34 37  1  0  0  0  0
 34 30  1  1  0  0  0
 35 33  2  0  0  0  0
 35 34  1  0  0  0  0
 36 37  1  0  0  0  0
 38 31  2  0  0  0  0
 40 39  1  0  0  0  0
 43 46  1  0  0  0  0
 45 41  1  6  0  0  0
 45 40  1  0  0  0  0
 46 44  1  6  0  0  0
 46 45  1  0  0  0  0
 47 42  1  6  0  0  0
 47 43  1  0  0  0  0
 47 46  1  0  0  0  0
 47 45  1  0  0  0  0
M  END
>  <MODEL>
5

>  <REMARK>
 VINA RESULT:      -4.8      3.341      6.757
  Name = 
  11 active torsions:
  status: ('A' for Active; 'I' for Inactive)
    1  A    between atoms: C_11  and  C_23
    2  A    between atoms: C_11  and  C_34
    3  A    between atoms: C_14  and  C_21
    4  A    between atoms: C_21  and  O_41
    5  A    between atoms: C_22  and  C_30
    6  A    between atoms: C_22  and  C_47
    7  A    between atoms: C_27  and  C_36
    8  A    between atoms: C_27  and  C_47
    9  A    between atoms: N_28  and  C_31
   10  A    between atoms: N_28  and  O_41
   11  A    between atoms: C_32  and  C_33
                            x       y       z     vdW  Elec       q    Type
                         _______ _______ _______ _____ _____    ______ ____

>  <TORSDO>
F 11

$$$$
=
 OpenBabel11072414523D

 47 52  0  0  1  0  0  0  0  0999 V2000
  161.2950  209.2810  152.8920 C   0  0  2  0  0  3  0  0  0  0  0  0
  161.1140  206.6250  151.8080 C   0  0  2  0  0  3  0  0  0  0  0  0
  161.1100  208.6400  155.1700 C   0  0  0  0  0  2  0  0  0  0  0  0
  161.9550  210.9380  149.8040 C   0  0  0  0  0  3  0  0  0  0  0  0
  161.5400  208.1260  153.8200 C   0  0  1  0  0  3  0  0  0  0  0  0
  160.8320  206.8730  153.3120 C   0  0  0  0  0  2  0  0  0  0  0  0
  161.4700  210.1330  155.1420 C   0  0  2  0  0  0  0  0  0  0  0  0
  161.9540  209.0120  151.5710 C   0  0  0  0  0  0  0  0  0  0  0  0
  162.2220  207.5520  151.2230 C   0  0  2  0  0  3  0  0  0  0  0  0
  159.8120  206.7500  151.0300 C   0  0  0  0  0  1  0  0  0  0  0  0
  161.9580  209.9600  150.6700 C   0  0  0  0  0  0  0  0  0  0  0  0
  161.8190  210.4570  153.6770 C   0  0  0  0  0  2  0  0  0  0  0  0
  162.9670  209.2790  156.8130 F   0  0  0  0  0  0  0  0  0  0  0  0
  162.4190  211.4610  156.9100 F   0  0  0  0  0  0  0  0  0  0  0  0
  163.7960  210.7210  155.2940 F   0  0  0  0  0  0  0  0  0  0  0  0
  162.6820  210.4020  156.0560 C   0  0  0  0  0  0  0  0  0  0  0  0
  163.9290  206.9120  149.6650 O   0  0  0  0  0  1  0  0  0  0  0  0
  162.5810  207.2660  149.7540 C   0  0  1  0  0  3  0  0  0  0  0  0
  162.3290  204.8900  149.2120 O   0  0  0  0  0  0  0  0  0  0  0  0
  160.8120  204.9840  147.3550 C   0  0  0  0  0  2  0  0  0  0  0  0
  161.7040  206.1490  149.1740 C   0  0  2  0  0  3  0  0  0  0  0  0
  162.1830  206.9400  146.8130 C   0  0  0  0  0  1  0  0  0  0  0  0
  161.6190  204.0930  148.2910 C   0  0  2  0  0  3  0  0  0  0  0  0
  161.1470  206.3840  147.7800 C   0  0  1  0  0  3  0  0  0  0  0  0
  160.7770  201.8710  148.7580 N   0  0  0  0  0  2  0  0  0  0  0  0
  160.7250  203.1280  149.0100 C   0  0  0  0  0  3  0  0  0  0  0  0
  160.9040  211.9940  149.8700 C   0  0  0  0  0  2  0  0  0  0  0  0
  161.1860  213.0030  148.9410 O   0  0  0  0  0  0  0  0  0  0  0  0
  159.2200  213.8120  148.4400 O   0  0  0  0  0  1  0  0  0  0  0  0
  160.1760  212.9410  148.0330 N   0  0  0  0  0  0  0  0  0  0  0  0
  162.0400  212.9550  144.2150 C   0  0  0  0  0  0  0  0  0  0  0  0
  160.7530  212.4470  144.4060 O   0  0  0  0  0  0  0  0  0  0  0  0
  158.8650  212.2290  145.6920 O   0  0  0  0  0  0  0  0  0  0  0  0
  160.6760  213.4090  146.7340 C   0  0  2  0  0  3  0  0  0  0  0  0
  160.0510  212.6420  145.5990 C   0  0  0  0  0  0  0  0  0  0  0  0
  162.6930  213.7960  145.2710 C   0  0  0  0  0  2  0  0  0  0  0  0
  162.2110  213.3580  146.6470 C   0  0  0  0  0  2  0  0  0  0  0  0
  162.6400  212.7490  143.1280 O   0  0  0  0  0  0  0  0  0  0  0  0
  160.2340  210.9170  155.6090 C   0  0  0  0  0  2  0  0  0  0  0  0
  159.9150  212.1190  154.7260 C   0  0  0  0  0  2  0  0  0  0  0  0
  158.2890  211.1230  153.0950 F   0  0  0  0  0  0  0  0  0  0  0  0
  156.8280  213.3290  153.0580 O   0  0  0  0  0  1  0  0  0  0  0  0
  157.1080  213.5800  155.3330 O   0  0  0  0  0  0  0  0  0  0  0  0
  156.1250  211.4420  154.7960 C   0  0  0  0  0  1  0  0  0  0  0  0
  158.5160  211.9950  154.1510 C   0  0  1  0  0  0  0  0  0  0  0  0
  157.3940  212.2170  155.1390 C   0  0  2  0  0  0  0  0  0  0  0  0
  157.7480  213.2930  154.1120 C   0  0  2  0  0  0  0  0  0  0  0  0
  1 12  1  1  0  0  0
  1  5  1  0  0  0  0
  2 10  1  6  0  0  0
  2  6  1  0  0  0  0
  4 27  1  0  0  0  0
  4 11  2  0  0  0  0
  5  6  1  6  0  0  0
  5  3  1  0  0  0  0
  7  3  1  0  0  0  0
  7 39  1  1  0  0  0
  7 16  1  0  0  0  0
  8  1  1  0  0  0  0
  9 18  1  6  0  0  0
  9  8  1  0  0  0  0
  9  2  1  0  0  0  0
 11  8  2  0  0  0  0
 12  7  1  0  0  0  0
 15 16  1  0  0  0  0
 16 13  1  0  0  0  0
 16 14  1  0  0  0  0
 18 17  1  1  0  0  0
 20 24  1  0  0  0  0
 20 23  1  0  0  0  0
 21 19  1  0  0  0  0
 21 18  1  6  0  0  0
 23 26  1  1  0  0  0
 23 19  1  0  0  0  0
 24 22  1  6  0  0  0
 24 21  1  0  0  0  0
 25 26  2  0  0  0  0
 28 27  1  0  0  0  0
 30 29  1  0  0  0  0
 30 28  1  0  0  0  0
 31 32  1  0  0  0  0
 31 36  1  0  0  0  0
 32 35  1  0  0  0  0
 34 30  1  1  0  0  0
 35 33  2  0  0  0  0
 35 34  1  0  0  0  0
 36 37  1  0  0  0  0
 37 34  1  0  0  0  0
 38 31  2  0  0  0  0
 40 39  1  0  0  0  0
 45 41  1  6  0  0  0
 45 40  1  0  0  0  0
 45 46  1  0  0  0  0
 46 44  1  6  0  0  0
 46 43  1  0  0  0  0
 47 42  1  6  0  0  0
 47 45  1  0  0  0  0
 47 46  1  0  0  0  0
 47 43  1  0  0  0  0
M  END
>  <MODEL>
6

>  <REMARK>
 VINA RESULT:      -4.4      3.367      8.585
  Name = 
  11 active torsions:
  status: ('A' for Active; 'I' for Inactive)
    1  A    between atoms: C_11  and  C_23
    2  A    between atoms: C_11  and  C_34
    3  A    between atoms: C_14  and  C_21
    4  A    between atoms: C_21  and  O_41
    5  A    between atoms: C_22  and  C_30
    6  A    between atoms: C_22  and  C_47
    7  A    between atoms: C_27  and  C_36
    8  A    between atoms: C_27  and  C_47
    9  A    between atoms: N_28  and  C_31
   10  A    between atoms: N_28  and  O_41
   11  A    between atoms: C_32  and  C_33
                            x       y       z     vdW  Elec       q    Type
                         _______ _______ _______ _____ _____    ______ ____

>  <TORSDO>
F 11

$$$$
