=
 OpenBabel11072412353D

 51 58  0  0  1  0  0  0  0  0999 V2000
  160.6280  204.0650  153.1060 N   0  0  0  0  0  2  0  0  0  0  0  0
  162.0710  210.8130  154.7600 N   0  0  0  0  0  0  0  0  0  0  0  0
  160.2220  209.4380  155.0710 C   0  0  2  0  0  3  0  0  0  0  0  0
  162.0620  207.8090  154.0600 C   0  0  0  0  0  2  0  0  0  0  0  0
  159.4400  212.4270  151.1870 C   0  0  0  0  0  2  0  0  0  0  0  0
  162.1780  210.6800  153.2980 C   0  0  0  0  0  0  0  0  0  0  0  0
  159.6710  204.9040  153.6380 O   0  0  0  0  0  0  0  0  0  0  0  0
  160.6620  206.3920  148.8640 C   0  0  0  0  0  0  0  0  0  0  0  0
  161.8360  209.8550  147.9790 C   0  0  0  0  0  2  0  0  0  0  0  0
  161.5430  205.6240  148.0770 C   0  0  0  0  0  3  0  0  0  0  0  0
  161.7770  206.3390  153.7320 C   0  0  0  0  0  2  0  0  0  0  0  0
  161.2240  208.3150  155.3000 C   0  0  2  0  0  0  0  0  0  0  0  0
  159.9650  205.7130  150.0150 C   0  0  1  0  0  3  0  0  0  0  0  0
  160.9800  205.1110  150.8540 C   0  0  1  0  0  3  0  0  0  0  0  0
  161.3520  211.4740  152.2900 C   0  0  2  0  0  3  0  0  0  0  0  0
  159.9220  212.0370  152.5950 C   0  0  2  0  0  3  0  0  0  0  0  0
  159.6290  211.2280  149.1840 O   0  0  0  0  0  0  0  0  0  0  0  0
  160.2780  212.3360  155.4760 C   0  0  0  0  0  2  0  0  0  0  0  0
  160.3650  206.3790  151.2710 N   0  0  0  0  0  2  0  0  0  0  0  0
  157.9040  210.3160  155.3160 C   0  0  0  0  0  2  0  0  0  0  0  0
  160.3930  203.9390  151.6660 C   0  0  0  0  0  2  0  0  0  0  0  0
  162.5500  210.9280  150.0750 C   0  0  0  0  0  0  0  0  0  0  0  0
  161.7910  212.1280  155.2360 C   0  0  0  0  0  2  0  0  0  0  0  0
  163.3570  211.8700  150.2830 O   0  0  0  0  0  0  0  0  0  0  0  0
  160.8300  207.3780  156.3230 O   0  0  0  0  0  0  0  0  0  0  0  0
  161.5890  209.7590  155.6720 C   0  0  1  0  0  3  0  0  0  0  0  0
  160.3480  206.1250  155.7670 C   0  0  0  0  0  2  0  0  0  0  0  0
  158.9630  209.3630  157.2590 C   0  0  0  0  0  1  0  0  0  0  0  0
  162.8110  209.9620  149.0660 N   0  0  0  0  0  2  0  0  0  0  0  0
  162.3850  206.2610  147.1460 C   0  0  0  0  0  0  0  0  0  0  0  0
  160.6640  207.7750  148.7360 C   0  0  0  0  0  3  0  0  0  0  0  0
  159.7690  211.4410  156.4840 O   0  0  0  0  0  0  0  0  0  0  0  0
  160.3540  206.0350  154.2250 C   0  0  2  0  0  3  0  0  0  0  0  0
  161.4800  208.4020  147.7890 C   0  0  0  0  0  0  0  0  0  0  0  0
  162.3510  207.6680  147.0050 C   0  0  0  0  0  3  0  0  0  0  0  0
  159.2630  210.1830  156.0100 C   0  0  1  0  0  0  0  0  0  0  0  0
  163.1490  209.9950  152.8770 O   0  0  0  0  0  0  0  0  0  0  0  0
  160.1290  211.5360  150.2520 C   0  0  0  0  0  0  0  0  0  0  0  0
  157.8570  211.3340  154.1670 C   0  0  2  0  0  3  0  0  0  0  0  0
  158.9120  210.9720  153.0680 C   0  0  0  0  0  2  0  0  0  0  0  0
  161.2640  210.8370  150.8750 C   0  0  2  0  0  3  0  0  0  0  0  0
  157.6130  212.7680  154.6950 C   0  0  1  0  0  3  0  0  0  0  0  0
  157.7740  213.7750  153.7220 O   0  0  0  0  0  1  0  0  0  0  0  0
  156.7510  213.2550  157.0220 C   0  0  0  0  0  1  0  0  0  0  0  0
  155.5560  211.8660  155.5050 F   0  0  0  0  0  0  0  0  0  0  0  0
  155.5680  214.1920  155.0720 C   0  0  0  0  0  1  0  0  0  0  0  0
  156.3780  213.0030  155.5650 C   0  0  0  0  0  0  0  0  0  0  0  0
  163.5330  205.5370  146.4880 C   0  0  0  0  0  2  0  0  0  0  0  0
  161.7810  205.0920  144.6740 C   0  0  0  0  0  1  0  0  0  0  0  0
  163.0020  204.6620  145.4080 C   0  0  0  0  0  0  0  0  0  0  0  0
  163.5640  203.6200  145.0890 O   0  0  0  0  0  0  0  0  0  0  0  0
  1  7  1  0  0  0  0
  2 23  1  0  0  0  0
  2 26  1  0  0  0  0
  3 12  1  0  0  0  0
  3 26  1  0  0  0  0
  3 36  1  0  0  0  0
  4 12  1  0  0  0  0
  5 16  1  0  0  0  0
  6  2  1  0  0  0  0
  7 33  1  0  0  0  0
  8 13  1  0  0  0  0
  9 29  1  0  0  0  0
 10  8  2  0  0  0  0
 11  4  1  0  0  0  0
 11 33  1  0  0  0  0
 12 26  1  0  0  0  0
 12 25  1  0  0  0  0
 13 14  1  0  0  0  0
 13 19  1  0  0  0  0
 14 19  1  0  0  0  0
 14 21  1  0  0  0  0
 15 16  1  0  0  0  0
 15  6  1  0  0  0  0
 16 40  1  0  0  0  0
 17 38  2  0  0  0  0
 18 32  1  0  0  0  0
 20 36  1  0  0  0  0
 21  1  1  0  0  0  0
 22 24  2  0  0  0  0
 22 41  1  0  0  0  0
 23 18  1  0  0  0  0
 27 25  1  0  0  0  0
 29 22  1  0  0  0  0
 30 10  1  0  0  0  0
 31  8  1  0  0  0  0
 33 27  1  0  0  0  0
 34  9  1  0  0  0  0
 34 31  2  0  0  0  0
 35 30  2  0  0  0  0
 35 34  1  0  0  0  0
 36 32  1  0  0  0  0
 36 28  1  0  0  0  0
 37  6  2  0  0  0  0
 38 41  1  0  0  0  0
 38  5  1  0  0  0  0
 39 42  1  0  0  0  0
 39 20  1  0  0  0  0
 40 39  1  0  0  0  0
 41 15  1  0  0  0  0
 42 47  1  0  0  0  0
 43 42  1  0  0  0  0
 45 47  1  0  0  0  0
 46 47  1  0  0  0  0
 47 44  1  0  0  0  0
 48 30  1  0  0  0  0
 49 50  1  0  0  0  0
 50 48  1  0  0  0  0
 51 50  2  0  0  0  0
M  END
>  <MODEL>
1

>  <REMARK>
 VINA RESULT:      15.1      0.000      0.000
  Name = 
  4 active torsions:
  status: ('A' for Active; 'I' for Inactive)
    1  A    between atoms: C_32  and  C_43
    2  A    between atoms: C_32  and  C_49
    3  A    between atoms: C_33  and  C_35
    4  A    between atoms: C_35  and  C_46
                            x       y       z     vdW  Elec       q    Type
                         _______ _______ _______ _____ _____    ______ ____

>  <TORSDO>
F 4

$$$$
