=
 OpenBabel11072414423D

 60 64  0  0  1  0  0  0  0  0999 V2000
  161.1950  208.8670  153.4770 C   0  0  2  0  0  0  0  0  0  0  0  0
  162.4180  208.3830  153.8850 C   0  0  0  0  0  2  0  0  0  0  0  0
  163.5450  207.3470  150.8940 O   0  0  0  0  0  0  0  0  0  0  0  0
  162.0940  208.3010  152.4270 N   0  0  0  0  0  0  0  0  0  0  0  0
  162.4500  207.9390  151.0920 C   0  0  0  0  0  0  0  0  0  0  0  0
  161.5680  208.2550  149.9460 C   0  0  0  0  0  0  0  0  0  0  0  0
  160.4390  208.9290  150.1270 C   0  0  0  0  0  2  0  0  0  0  0  0
  161.1060  208.5150  147.6400 O   0  0  0  0  0  1  0  0  0  0  0  0
  161.9100  207.8250  148.5500 C   0  0  2  0  0  3  0  0  0  0  0  0
  161.7810  206.3060  148.3610 C   0  0  1  0  0  3  0  0  0  0  0  0
  158.2890  201.8150  149.3550 O   0  0  0  0  0  0  0  0  0  0  0  0
  160.5760  202.1130  149.9880 C   0  0  0  0  0  2  0  0  0  0  0  0
  159.8310  201.2370  147.7260 N   0  0  0  0  0  2  0  0  0  0  0  0
  161.3220  204.0480  150.7570 C   0  0  0  0  0  2  0  0  0  0  0  0
  161.3140  202.5150  146.4430 O   0  0  0  0  0  0  0  0  0  0  0  0
  160.1970  203.2230  150.7450 O   0  0  0  0  0  0  0  0  0  0  0  0
  160.5650  205.7510  149.1080 C   0  0  0  0  0  2  0  0  0  0  0  0
  161.1780  201.3250  147.1640 C   0  0  2  0  0  3  0  0  0  0  0  0
  163.3190  204.5520  145.6050 C   0  0  0  0  0  2  0  0  0  0  0  0
  161.9970  203.3830  147.2990 C   0  0  0  0  0  2  0  0  0  0  0  0
  160.8970  205.4880  150.5660 C   0  0  0  0  0  2  0  0  0  0  0  0
  159.5000  201.7480  149.0120 C   0  0  0  0  0  0  0  0  0  0  0  0
  162.4040  204.6230  146.5720 C   0  0  0  0  0  0  0  0  0  0  0  0
  161.7560  205.9450  146.8650 C   0  0  1  0  0  3  0  0  0  0  0  0
  161.4710  200.1300  146.2570 C   0  0  0  0  0  3  0  0  0  0  0  0
  160.3420  199.8730  145.2700 C   0  0  0  0  0  1  0  0  0  0  0  0
  161.7340  198.8840  147.0790 C   0  0  0  0  0  1  0  0  0  0  0  0
  160.5300  206.0190  144.6960 C   0  0  0  0  0  1  0  0  0  0  0  0
  160.3870  206.0870  146.2030 C   0  0  0  0  0  2  0  0  0  0  0  0
  162.1130  211.0270  153.6680 O   0  0  0  0  0  0  0  0  0  0  0  0
  161.0960  210.3690  153.5020 C   0  0  0  0  0  0  0  0  0  0  0  0
  159.7580  211.0520  153.2990 C   0  0  0  0  0  2  0  0  0  0  0  0
  159.2670  211.9120  154.4730 C   0  0  1  0  0  3  0  0  0  0  0  0
  160.3760  212.0730  155.5010 C   0  0  0  0  0  1  0  0  0  0  0  0
  158.7060  213.2700  154.0070 C   0  0  1  0  0  3  0  0  0  0  0  0
  159.7350  214.1860  153.7840 O   0  0  0  0  0  1  0  0  0  0  0  0
  157.7650  213.2380  152.7890 C   0  0  2  0  0  3  0  0  0  0  0  0
  160.6230  213.9800  150.4050 C   0  0  0  0  0  3  0  0  0  0  0  0
  160.1130  213.5110  149.1910 C   0  0  0  0  0  0  0  0  0  0  0  0
  158.8400  212.9360  149.1430 C   0  0  0  0  0  3  0  0  0  0  0  0
  160.8690  213.6200  148.0320 O   0  0  0  0  0  1  0  0  0  0  0  0
  158.5890  213.2840  151.5330 C   0  0  0  0  0  0  0  0  0  0  0  0
  158.0760  212.8280  150.3090 C   0  0  0  0  0  3  0  0  0  0  0  0
  159.8600  213.8720  151.5730 C   0  0  0  0  0  3  0  0  0  0  0  0
  155.8270  214.2960  153.9110 C   0  0  2  0  0  3  0  0  0  0  0  0
  155.1350  213.5930  152.4540 S   0  0  0  0  0  0  0  0  0  0  0  0
  154.4460  214.4460  151.4310 O   0  0  0  0  0  0  0  0  0  0  0  0
  155.2630  212.1340  152.1050 O   0  0  0  0  0  0  0  0  0  0  0  0
  156.7470  214.3080  152.8070 N   0  0  0  0  0  0  0  0  0  0  0  0
  156.1200  213.3230  155.0380 C   0  0  0  0  0  0  0  0  0  0  0  0
  156.7030  213.7050  156.2570 C   0  0  0  0  0  3  0  0  0  0  0  0
  156.9640  212.7520  157.2460 C   0  0  0  0  0  3  0  0  0  0  0  0
  155.8350  211.9730  154.8170 C   0  0  0  0  0  3  0  0  0  0  0  0
  156.0970  211.0200  155.8030 C   0  0  0  0  0  3  0  0  0  0  0  0
  156.6570  211.4100  157.0210 C   0  0  0  0  0  3  0  0  0  0  0  0
  160.0250  207.9620  153.8620 C   0  0  0  0  0  2  0  0  0  0  0  0
  160.3820  206.9090  154.8680 C   0  0  0  0  0  0  0  0  0  0  0  0
  160.6010  205.7620  154.5120 O   0  0  0  0  0  0  0  0  0  0  0  0
  160.5390  207.2700  156.3080 C   0  0  0  0  0  2  0  0  0  0  0  0
  159.5960  208.2320  156.6680 O   0  0  0  0  0  1  0  0  0  0  0  0
  1 31  1  0  0  0  0
  1 56  1  1  0  0  0
  1  2  1  0  0  0  0
  3  5  2  0  0  0  0
  4  1  1  0  0  0  0
  4  2  1  0  0  0  0
  5  4  1  0  0  0  0
  6  7  2  0  0  0  0
  6  5  1  0  0  0  0
  9  8  1  6  0  0  0
  9  6  1  0  0  0  0
 10  9  1  6  0  0  0
 10 17  1  0  0  0  0
 12 16  1  0  0  0  0
 13 22  1  0  0  0  0
 15 18  1  0  0  0  0
 15 20  1  0  0  0  0
 16 14  1  0  0  0  0
 17 21  1  0  0  0  0
 18 25  1  6  0  0  0
 18 13  1  0  0  0  0
 19 23  2  0  0  0  0
 21 14  1  0  0  0  0
 22 11  2  0  0  0  0
 22 12  1  0  0  0  0
 23 24  1  0  0  0  0
 23 20  1  0  0  0  0
 24 29  1  1  0  0  0
 24 10  1  0  0  0  0
 25 27  1  0  0  0  0
 26 25  1  0  0  0  0
 28 29  1  0  0  0  0
 31 30  2  0  0  0  0
 32 31  1  0  0  0  0
 32 33  1  0  0  0  0
 33 34  1  1  0  0  0
 35 36  1  6  0  0  0
 35 33  1  0  0  0  0
 37 49  1  0  0  0  0
 37 35  1  1  0  0  0
 38 44  1  0  0  0  0
 39 38  2  0  0  0  0
 40 39  1  0  0  0  0
 40 43  2  0  0  0  0
 41 39  1  0  0  0  0
 42 44  2  0  0  0  0
 42 37  1  0  0  0  0
 43 42  1  0  0  0  0
 45 50  1  1  0  0  0
 46 49  1  0  0  0  0
 46 45  1  0  0  0  0
 47 46  2  0  0  0  0
 48 46  2  0  0  0  0
 49 45  1  0  0  0  0
 50 51  1  0  0  0  0
 51 52  2  0  0  0  0
 53 50  2  0  0  0  0
 53 54  1  0  0  0  0
 54 55  2  0  0  0  0
 55 52  1  0  0  0  0
 56 57  1  0  0  0  0
 57 59  1  0  0  0  0
 58 57  2  0  0  0  0
 59 60  1  0  0  0  0
M  END
>  <MODEL>
1

>  <REMARK>
 VINA RESULT:       1.5      0.000      0.000
  Name = 
  16 active torsions:
  status: ('A' for Active; 'I' for Inactive)
    1  A    between atoms: C_1  and  C_31
    2  A    between atoms: C_1  and  C_38
    3  A    between atoms: C_2  and  C_21
    4  A    between atoms: C_3  and  C_48
    5  A    between atoms: C_7  and  C_24
    6  A    between atoms: C_8  and  C_45
    7  A    between atoms: C_8  and  C_48
    8  A    between atoms: C_15  and  C_26
    9  A    between atoms: C_15  and  C_43
   10  A    between atoms: C_17  and  C_31
   11  A    between atoms: C_17  and  C_43
   12  A    between atoms: C_18  and  C_38
   13  A    between atoms: C_24  and  C_26
   14  A    between atoms: C_29  and  C_32
   15  A    between atoms: C_38  and  N_59
   16  A    between atoms: C_52  and  C_58
                            x       y       z     vdW  Elec       q    Type
                         _______ _______ _______ _____ _____    ______ ____

>  <TORSDO>
F 16

$$$$
=
 OpenBabel11072414423D

 60 64  0  0  1  0  0  0  0  0999 V2000
  160.6040  209.0180  154.3000 C   0  0  2  0  0  0  0  0  0  0  0  0
  161.9590  209.2530  154.3730 C   0  0  0  0  0  2  0  0  0  0  0  0
  163.0250  206.2150  153.4110 O   0  0  0  0  0  0  0  0  0  0  0  0
  161.5170  207.8980  153.9200 N   0  0  0  0  0  0  0  0  0  0  0  0
  161.8200  206.5770  153.4700 C   0  0  0  0  0  0  0  0  0  0  0  0
  160.7500  205.6370  153.0640 C   0  0  0  0  0  0  0  0  0  0  0  0
  159.4860  206.0360  152.9990 C   0  0  0  0  0  2  0  0  0  0  0  0
  162.3170  203.8690  153.2000 O   0  0  0  0  0  1  0  0  0  0  0  0
  161.0500  204.2080  152.7190 C   0  0  2  0  0  3  0  0  0  0  0  0
  160.9390  203.9360  151.2110 C   0  0  1  0  0  3  0  0  0  0  0  0
  163.3910  205.1270  146.1200 O   0  0  0  0  0  0  0  0  0  0  0  0
  161.1200  205.4330  146.8060 C   0  0  0  0  0  2  0  0  0  0  0  0
  162.0490  203.2510  145.9010 N   0  0  0  0  0  2  0  0  0  0  0  0
  160.6120  206.2130  148.8120 C   0  0  0  0  0  2  0  0  0  0  0  0
  161.0330  201.8540  147.4800 O   0  0  0  0  0  0  0  0  0  0  0  0
  161.5640  206.3110  147.7960 O   0  0  0  0  0  0  0  0  0  0  0  0
  161.9070  204.8150  150.4140 C   0  0  0  0  0  2  0  0  0  0  0  0
  160.8430  202.5040  146.2570 C   0  0  2  0  0  3  0  0  0  0  0  0
  159.5730  200.8700  149.8820 C   0  0  0  0  0  2  0  0  0  0  0  0
  160.3860  202.6570  148.4230 C   0  0  0  0  0  2  0  0  0  0  0  0
  161.3070  206.1860  150.1570 C   0  0  0  0  0  2  0  0  0  0  0  0
  162.2570  204.6050  146.2900 C   0  0  0  0  0  0  0  0  0  0  0  0
  160.3220  201.9640  149.7450 C   0  0  0  0  0  0  0  0  0  0  0  0
  161.1360  202.4390  150.9130 C   0  0  1  0  0  3  0  0  0  0  0  0
  160.4930  201.4840  145.1740 C   0  0  0  0  0  3  0  0  0  0  0  0
  159.0690  201.6570  144.6660 C   0  0  0  0  0  1  0  0  0  0  0  0
  160.6930  200.0700  145.6840 C   0  0  0  0  0  1  0  0  0  0  0  0
  163.1070  201.6250  152.2050 C   0  0  0  0  0  1  0  0  0  0  0  0
  162.5960  201.9980  150.8280 C   0  0  0  0  0  2  0  0  0  0  0  0
  159.8970  209.1690  152.0590 O   0  0  0  0  0  0  0  0  0  0  0  0
  159.9270  209.7170  153.1510 C   0  0  0  0  0  0  0  0  0  0  0  0
  159.2740  211.0690  153.3550 C   0  0  0  0  0  2  0  0  0  0  0  0
  160.1500  212.2870  153.0310 C   0  0  1  0  0  3  0  0  0  0  0  0
  160.9560  212.0280  151.7670 C   0  0  0  0  0  1  0  0  0  0  0  0
  159.3310  213.5890  152.9400 C   0  0  1  0  0  3  0  0  0  0  0  0
  159.8590  214.4460  151.9730 O   0  0  0  0  0  1  0  0  0  0  0  0
  157.8150  213.4270  152.7190 C   0  0  2  0  0  3  0  0  0  0  0  0
  155.9360  213.6280  149.4280 C   0  0  0  0  0  3  0  0  0  0  0  0
  156.9280  213.2760  148.5090 C   0  0  0  0  0  0  0  0  0  0  0  0
  158.2210  212.9850  148.9540 C   0  0  0  0  0  3  0  0  0  0  0  0
  156.6280  213.2100  147.1550 O   0  0  0  0  0  1  0  0  0  0  0  0
  157.5340  213.4140  151.2430 C   0  0  0  0  0  0  0  0  0  0  0  0
  158.5220  213.0470  150.3180 C   0  0  0  0  0  3  0  0  0  0  0  0
  156.2370  213.6910  150.7930 C   0  0  0  0  0  3  0  0  0  0  0  0
  157.0620  214.4430  154.8490 C   0  0  2  0  0  3  0  0  0  0  0  0
  155.6160  213.6570  154.2240 S   0  0  0  0  0  0  0  0  0  0  0  0
  154.3740  214.4420  153.9220 O   0  0  0  0  0  0  0  0  0  0  0  0
  155.5610  212.1930  153.8760 O   0  0  0  0  0  0  0  0  0  0  0  0
  157.0100  214.4530  153.4130 N   0  0  0  0  0  0  0  0  0  0  0  0
  158.0850  213.5250  155.4920 C   0  0  0  0  0  0  0  0  0  0  0  0
  157.8250  212.1820  155.8130 C   0  0  0  0  0  3  0  0  0  0  0  0
  158.8080  211.3970  156.4230 C   0  0  0  0  0  3  0  0  0  0  0  0
  159.3280  214.0720  155.8210 C   0  0  0  0  0  3  0  0  0  0  0  0
  160.3090  213.2890  156.4330 C   0  0  0  0  0  3  0  0  0  0  0  0
  160.0520  211.9500  156.7300 C   0  0  0  0  0  3  0  0  0  0  0  0
  159.9420  208.8570  155.6670 C   0  0  0  0  0  2  0  0  0  0  0  0
  160.7340  208.0200  156.6270 C   0  0  0  0  0  0  0  0  0  0  0  0
  161.8440  208.3760  156.9880 O   0  0  0  0  0  0  0  0  0  0  0  0
  160.1420  206.7760  157.2010 C   0  0  0  0  0  2  0  0  0  0  0  0
  161.1030  205.7680  157.2580 O   0  0  0  0  0  1  0  0  0  0  0  0
  1  2  1  0  0  0  0
  1 56  1  1  0  0  0
  3  5  2  0  0  0  0
  4  1  1  0  0  0  0
  4  2  1  0  0  0  0
  5  4  1  0  0  0  0
  6  5  1  0  0  0  0
  7  6  2  0  0  0  0
  9  6  1  0  0  0  0
  9  8  1  6  0  0  0
 10  9  1  1  0  0  0
 11 22  2  0  0  0  0
 12 16  1  0  0  0  0
 13 18  1  0  0  0  0
 13 22  1  0  0  0  0
 14 21  1  0  0  0  0
 15 20  1  0  0  0  0
 16 14  1  0  0  0  0
 17 10  1  0  0  0  0
 18 25  1  6  0  0  0
 18 15  1  0  0  0  0
 20 23  1  0  0  0  0
 21 17  1  0  0  0  0
 22 12  1  0  0  0  0
 23 19  2  0  0  0  0
 23 24  1  0  0  0  0
 24 29  1  6  0  0  0
 24 10  1  0  0  0  0
 25 27  1  0  0  0  0
 26 25  1  0  0  0  0
 29 28  1  0  0  0  0
 30 31  2  0  0  0  0
 31 32  1  0  0  0  0
 31  1  1  0  0  0  0
 33 34  1  6  0  0  0
 33 32  1  0  0  0  0
 35 36  1  6  0  0  0
 35 33  1  0  0  0  0
 37 35  1  6  0  0  0
 37 49  1  0  0  0  0
 38 44  1  0  0  0  0
 39 40  1  0  0  0  0
 39 38  2  0  0  0  0
 40 43  2  0  0  0  0
 41 39  1  0  0  0  0
 42 37  1  0  0  0  0
 43 42  1  0  0  0  0
 44 42  2  0  0  0  0
 45 50  1  6  0  0  0
 46 45  1  0  0  0  0
 47 46  2  0  0  0  0
 48 46  2  0  0  0  0
 49 46  1  0  0  0  0
 49 45  1  0  0  0  0
 50 51  2  0  0  0  0
 50 53  1  0  0  0  0
 51 52  1  0  0  0  0
 52 55  2  0  0  0  0
 53 54  2  0  0  0  0
 54 55  1  0  0  0  0
 56 57  1  0  0  0  0
 57 58  2  0  0  0  0
 57 59  1  0  0  0  0
 59 60  1  0  0  0  0
M  END
>  <MODEL>
2

>  <REMARK>
 VINA RESULT:       2.3      1.888      3.550
  Name = 
  16 active torsions:
  status: ('A' for Active; 'I' for Inactive)
    1  A    between atoms: C_1  and  C_31
    2  A    between atoms: C_1  and  C_38
    3  A    between atoms: C_2  and  C_21
    4  A    between atoms: C_3  and  C_48
    5  A    between atoms: C_7  and  C_24
    6  A    between atoms: C_8  and  C_45
    7  A    between atoms: C_8  and  C_48
    8  A    between atoms: C_15  and  C_26
    9  A    between atoms: C_15  and  C_43
   10  A    between atoms: C_17  and  C_31
   11  A    between atoms: C_17  and  C_43
   12  A    between atoms: C_18  and  C_38
   13  A    between atoms: C_24  and  C_26
   14  A    between atoms: C_29  and  C_32
   15  A    between atoms: C_38  and  N_59
   16  A    between atoms: C_52  and  C_58
                            x       y       z     vdW  Elec       q    Type
                         _______ _______ _______ _____ _____    ______ ____

>  <TORSDO>
F 16

$$$$
=
 OpenBabel11072414423D

 60 64  0  0  1  0  0  0  0  0999 V2000
  160.5830  208.8750  153.9040 C   0  0  2  0  0  0  0  0  0  0  0  0
  161.9250  209.1180  154.0950 C   0  0  0  0  0  2  0  0  0  0  0  0
  163.1060  206.1660  153.0110 O   0  0  0  0  0  0  0  0  0  0  0  0
  161.5390  207.7930  153.5190 N   0  0  0  0  0  0  0  0  0  0  0  0
  161.8940  206.5100  153.0040 C   0  0  0  0  0  0  0  0  0  0  0  0
  160.8720  205.5890  152.4560 C   0  0  0  0  0  0  0  0  0  0  0  0
  159.6140  205.9840  152.3100 C   0  0  0  0  0  2  0  0  0  0  0  0
  162.3700  203.7780  152.7250 O   0  0  0  0  0  1  0  0  0  0  0  0
  161.2150  204.1850  152.0540 C   0  0  2  0  0  3  0  0  0  0  0  0
  161.3780  204.0370  150.5330 C   0  0  1  0  0  3  0  0  0  0  0  0
  159.0380  201.5720  145.8650 O   0  0  0  0  0  0  0  0  0  0  0  0
  161.2770  201.4120  146.6890 C   0  0  0  0  0  2  0  0  0  0  0  0
  160.4430  203.2890  145.1980 N   0  0  0  0  0  2  0  0  0  0  0  0
  161.7030  201.1910  148.8480 C   0  0  0  0  0  2  0  0  0  0  0  0
  161.4550  205.0380  146.3780 O   0  0  0  0  0  0  0  0  0  0  0  0
  160.7780  200.8430  147.8620 O   0  0  0  0  0  0  0  0  0  0  0  0
  160.4070  202.9980  149.9670 C   0  0  0  0  0  2  0  0  0  0  0  0
  161.6600  204.0770  145.3830 C   0  0  2  0  0  3  0  0  0  0  0  0
  162.8760  206.6000  148.4780 C   0  0  0  0  0  2  0  0  0  0  0  0
  162.0510  204.5040  147.5260 C   0  0  0  0  0  2  0  0  0  0  0  0
  160.9700  201.5950  150.1100 C   0  0  0  0  0  2  0  0  0  0  0  0
  160.1820  202.0950  145.9290 C   0  0  0  0  0  0  0  0  0  0  0  0
  162.0980  205.5270  148.6140 C   0  0  0  0  0  0  0  0  0  0  0  0
  161.2360  205.4030  149.8370 C   0  0  1  0  0  3  0  0  0  0  0  0
  162.0730  204.7600  144.0790 C   0  0  0  0  0  3  0  0  0  0  0  0
  163.4330  205.4320  144.1930 C   0  0  0  0  0  1  0  0  0  0  0  0
  161.0290  205.7710  143.6490 C   0  0  0  0  0  1  0  0  0  0  0  0
  159.7530  206.8920  148.4980 C   0  0  0  0  0  1  0  0  0  0  0  0
  159.7930  205.8370  149.5840 C   0  0  0  0  0  2  0  0  0  0  0  0
  160.0710  209.1890  151.6270 O   0  0  0  0  0  0  0  0  0  0  0  0
  159.9830  209.6450  152.7580 C   0  0  0  0  0  0  0  0  0  0  0  0
  159.2600  210.9540  153.0100 C   0  0  0  0  0  2  0  0  0  0  0  0
  160.1540  212.1970  153.1150 C   0  0  1  0  0  3  0  0  0  0  0  0
  161.1620  212.2130  151.9750 C   0  0  0  0  0  1  0  0  0  0  0  0
  159.3360  213.5010  153.1830 C   0  0  1  0  0  3  0  0  0  0  0  0
  159.8290  214.4500  152.2860 O   0  0  0  0  0  1  0  0  0  0  0  0
  157.8130  213.3610  153.0060 C   0  0  2  0  0  3  0  0  0  0  0  0
  155.9140  214.0370  149.7910 C   0  0  0  0  0  3  0  0  0  0  0  0
  156.7590  213.4680  148.8340 C   0  0  0  0  0  0  0  0  0  0  0  0
  157.9610  212.8730  149.2280 C   0  0  0  0  0  3  0  0  0  0  0  0
  156.4020  213.4890  147.4920 O   0  0  0  0  0  1  0  0  0  0  0  0
  157.4820  213.4290  151.5420 C   0  0  0  0  0  0  0  0  0  0  0  0
  158.3190  212.8480  150.5790 C   0  0  0  0  0  3  0  0  0  0  0  0
  156.2720  214.0120  151.1430 C   0  0  0  0  0  3  0  0  0  0  0  0
  157.1450  214.2670  155.2130 C   0  0  2  0  0  3  0  0  0  0  0  0
  155.6730  213.5200  154.6030 S   0  0  0  0  0  0  0  0  0  0  0  0
  154.4240  214.3240  154.3880 O   0  0  0  0  0  0  0  0  0  0  0  0
  155.5970  212.0760  154.1820 O   0  0  0  0  0  0  0  0  0  0  0  0
  157.0400  214.3520  153.7820 N   0  0  0  0  0  0  0  0  0  0  0  0
  158.1860  213.3130  155.7680 C   0  0  0  0  0  0  0  0  0  0  0  0
  159.5320  213.6650  155.9630 C   0  0  0  0  0  3  0  0  0  0  0  0
  160.4430  212.7300  156.4610 C   0  0  0  0  0  3  0  0  0  0  0  0
  157.7800  212.0060  156.0500 C   0  0  0  0  0  3  0  0  0  0  0  0
  158.6910  211.0700  156.5460 C   0  0  0  0  0  3  0  0  0  0  0  0
  160.0220  211.4330  156.7570 C   0  0  0  0  0  3  0  0  0  0  0  0
  159.8230  208.6140  155.2040 C   0  0  0  0  0  2  0  0  0  0  0  0
  160.2070  207.3310  155.8800 C   0  0  0  0  0  0  0  0  0  0  0  0
  159.7230  206.2720  155.5170 O   0  0  0  0  0  0  0  0  0  0  0  0
  161.2370  207.3320  156.9600 C   0  0  0  0  0  2  0  0  0  0  0  0
  161.7120  208.6250  157.1710 O   0  0  0  0  0  1  0  0  0  0  0  0
  1  2  1  0  0  0  0
  1 56  1  1  0  0  0
  4  1  1  0  0  0  0
  4  2  1  0  0  0  0
  5  3  2  0  0  0  0
  5  4  1  0  0  0  0
  6  5  1  0  0  0  0
  7  6  2  0  0  0  0
  9  6  1  0  0  0  0
  9  8  1  1  0  0  0
 10  9  1  1  0  0  0
 11 22  2  0  0  0  0
 12 16  1  0  0  0  0
 13 18  1  0  0  0  0
 13 22  1  0  0  0  0
 14 21  1  0  0  0  0
 15 20  1  0  0  0  0
 16 14  1  0  0  0  0
 17 21  1  0  0  0  0
 17 10  1  0  0  0  0
 18 25  1  6  0  0  0
 18 15  1  0  0  0  0
 19 23  2  0  0  0  0
 20 23  1  0  0  0  0
 22 12  1  0  0  0  0
 23 24  1  0  0  0  0
 24 29  1  6  0  0  0
 24 10  1  0  0  0  0
 25 26  1  0  0  0  0
 27 25  1  0  0  0  0
 28 29  1  0  0  0  0
 30 31  2  0  0  0  0
 31 32  1  0  0  0  0
 31  1  1  0  0  0  0
 32 33  1  0  0  0  0
 33 34  1  6  0  0  0
 33 35  1  0  0  0  0
 35 36  1  6  0  0  0
 37 35  1  6  0  0  0
 37 49  1  0  0  0  0
 38 44  1  0  0  0  0
 39 40  1  0  0  0  0
 39 38  2  0  0  0  0
 40 43  2  0  0  0  0
 41 39  1  0  0  0  0
 42 37  1  0  0  0  0
 43 42  1  0  0  0  0
 44 42  2  0  0  0  0
 45 50  1  6  0  0  0
 46 45  1  0  0  0  0
 47 46  2  0  0  0  0
 48 46  2  0  0  0  0
 49 46  1  0  0  0  0
 49 45  1  0  0  0  0
 50 51  2  0  0  0  0
 50 53  1  0  0  0  0
 51 52  1  0  0  0  0
 52 55  2  0  0  0  0
 53 54  2  0  0  0  0
 54 55  1  0  0  0  0
 56 57  1  0  0  0  0
 57 59  1  0  0  0  0
 58 57  2  0  0  0  0
 59 60  1  0  0  0  0
M  END
>  <MODEL>
3

>  <REMARK>
 VINA RESULT:       3.1      1.929      3.196
  Name = 
  16 active torsions:
  status: ('A' for Active; 'I' for Inactive)
    1  A    between atoms: C_1  and  C_31
    2  A    between atoms: C_1  and  C_38
    3  A    between atoms: C_2  and  C_21
    4  A    between atoms: C_3  and  C_48
    5  A    between atoms: C_7  and  C_24
    6  A    between atoms: C_8  and  C_45
    7  A    between atoms: C_8  and  C_48
    8  A    between atoms: C_15  and  C_26
    9  A    between atoms: C_15  and  C_43
   10  A    between atoms: C_17  and  C_31
   11  A    between atoms: C_17  and  C_43
   12  A    between atoms: C_18  and  C_38
   13  A    between atoms: C_24  and  C_26
   14  A    between atoms: C_29  and  C_32
   15  A    between atoms: C_38  and  N_59
   16  A    between atoms: C_52  and  C_58
                            x       y       z     vdW  Elec       q    Type
                         _______ _______ _______ _____ _____    ______ ____

>  <TORSDO>
F 16

$$$$
=
 OpenBabel11072414423D

 60 64  0  0  1  0  0  0  0  0999 V2000
  161.0500  210.2860  155.5480 C   0  0  2  0  0  0  0  0  0  0  0  0
  162.0930  211.0440  155.0640 C   0  0  0  0  0  2  0  0  0  0  0  0
  162.8180  209.1920  152.3560 O   0  0  0  0  0  0  0  0  0  0  0  0
  161.6990  209.8320  154.2810 N   0  0  0  0  0  0  0  0  0  0  0  0
  161.8720  208.9670  153.1580 C   0  0  0  0  0  0  0  0  0  0  0  0
  160.9580  207.8280  152.9150 C   0  0  0  0  0  0  0  0  0  0  0  0
  159.7080  208.0350  152.5200 C   0  0  0  0  0  2  0  0  0  0  0  0
  162.5690  206.3890  153.8810 O   0  0  0  0  0  1  0  0  0  0  0  0
  161.4030  206.4090  153.1120 C   0  0  2  0  0  3  0  0  0  0  0  0
  161.6060  205.6710  151.7800 C   0  0  1  0  0  3  0  0  0  0  0  0
  159.4910  201.4180  148.4960 O   0  0  0  0  0  0  0  0  0  0  0  0
  161.7160  201.7210  149.3170 C   0  0  0  0  0  2  0  0  0  0  0  0
  160.8260  202.7940  147.1960 N   0  0  0  0  0  2  0  0  0  0  0  0
  162.1050  202.4090  151.3830 C   0  0  0  0  0  2  0  0  0  0  0  0
  161.7270  204.9210  147.5740 O   0  0  0  0  0  0  0  0  0  0  0  0
  161.2190  201.6470  150.6190 O   0  0  0  0  0  0  0  0  0  0  0  0
  160.6990  204.4420  151.6790 C   0  0  0  0  0  2  0  0  0  0  0  0
  161.9990  203.6540  147.0490 C   0  0  2  0  0  3  0  0  0  0  0  0
  163.0240  207.2690  148.8690 C   0  0  0  0  0  2  0  0  0  0  0  0
  162.3210  204.9260  148.8390 C   0  0  0  0  0  2  0  0  0  0  0  0
  161.3260  203.2470  152.3750 C   0  0  0  0  0  2  0  0  0  0  0  0
  160.6070  201.9830  148.3450 C   0  0  0  0  0  0  0  0  0  0  0  0
  162.2960  206.3000  149.4240 C   0  0  0  0  0  0  0  0  0  0  0  0
  161.4140  206.6320  150.5930 C   0  0  1  0  0  3  0  0  0  0  0  0
  162.4070  203.7760  145.5810 C   0  0  0  0  0  3  0  0  0  0  0  0
  163.8270  204.3000  145.4250 C   0  0  0  0  0  1  0  0  0  0  0  0
  161.4400  204.6680  144.8280 C   0  0  0  0  0  1  0  0  0  0  0  0
  159.8780  207.1960  148.7130 C   0  0  0  0  0  1  0  0  0  0  0  0
  159.9580  206.8510  150.1850 C   0  0  0  0  0  2  0  0  0  0  0  0
  158.9910  210.5980  154.4500 O   0  0  0  0  0  0  0  0  0  0  0  0
  159.7010  210.9340  155.3860 C   0  0  0  0  0  0  0  0  0  0  0  0
  159.2240  211.9710  156.3840 C   0  0  0  0  0  2  0  0  0  0  0  0
  158.4050  213.1290  155.8000 C   0  0  1  0  0  3  0  0  0  0  0  0
  158.3450  214.2790  156.7940 C   0  0  0  0  0  1  0  0  0  0  0  0
  158.9310  213.5810  154.4230 C   0  0  1  0  0  3  0  0  0  0  0  0
  160.2410  213.1440  154.2200 O   0  0  0  0  0  1  0  0  0  0  0  0
  158.0640  213.2090  153.2060 C   0  0  2  0  0  3  0  0  0  0  0  0
  160.4820  211.3590  150.9410 C   0  0  0  0  0  3  0  0  0  0  0  0
  160.7470  212.3180  149.9590 C   0  0  0  0  0  0  0  0  0  0  0  0
  160.1280  213.5700  150.0200 C   0  0  0  0  0  3  0  0  0  0  0  0
  161.6290  212.0290  148.9260 O   0  0  0  0  0  1  0  0  0  0  0  0
  158.9630  212.8990  152.0420 C   0  0  0  0  0  0  0  0  0  0  0  0
  159.2430  213.8620  151.0620 C   0  0  0  0  0  3  0  0  0  0  0  0
  159.5970  211.6510  151.9830 C   0  0  0  0  0  3  0  0  0  0  0  0
  155.7680  214.1030  153.4560 C   0  0  2  0  0  3  0  0  0  0  0  0
  155.8120  213.5170  151.7970 S   0  0  0  0  0  0  0  0  0  0  0  0
  155.5710  214.4420  150.6400 O   0  0  0  0  0  0  0  0  0  0  0  0
  156.1730  212.1010  151.4350 O   0  0  0  0  0  0  0  0  0  0  0  0
  157.0680  214.2430  152.8600 N   0  0  0  0  0  0  0  0  0  0  0  0
  155.6150  213.0390  154.5260 C   0  0  0  0  0  0  0  0  0  0  0  0
  155.7900  211.6670  154.2830 C   0  0  0  0  0  3  0  0  0  0  0  0
  155.6140  210.7380  155.3120 C   0  0  0  0  0  3  0  0  0  0  0  0
  155.2320  213.4570  155.8040 C   0  0  0  0  0  3  0  0  0  0  0  0
  155.0530  212.5290  156.8320 C   0  0  0  0  0  3  0  0  0  0  0  0
  155.2490  211.1690  156.5880 C   0  0  0  0  0  3  0  0  0  0  0  0
  161.4210  209.4590  156.7790 C   0  0  0  0  0  2  0  0  0  0  0  0
  161.5110  207.9860  156.5120 C   0  0  0  0  0  0  0  0  0  0  0  0
  162.5980  207.4440  156.3980 O   0  0  0  0  0  0  0  0  0  0  0  0
  160.2710  207.1590  156.4500 C   0  0  0  0  0  2  0  0  0  0  0  0
  159.1660  207.9180  156.8300 O   0  0  0  0  0  1  0  0  0  0  0  0
  1 56  1  1  0  0  0
  2  1  1  0  0  0  0
  3  5  2  0  0  0  0
  4  2  1  0  0  0  0
  4  1  1  0  0  0  0
  5  4  1  0  0  0  0
  6  9  1  0  0  0  0
  6  5  1  0  0  0  0
  7  6  2  0  0  0  0
  9  8  1  6  0  0  0
 10  9  1  1  0  0  0
 12 16  1  0  0  0  0
 13 22  1  0  0  0  0
 14 21  1  0  0  0  0
 15 20  1  0  0  0  0
 16 14  1  0  0  0  0
 17 10  1  0  0  0  0
 17 21  1  0  0  0  0
 18 25  1  6  0  0  0
 18 13  1  0  0  0  0
 18 15  1  0  0  0  0
 19 23  2  0  0  0  0
 20 23  1  0  0  0  0
 22 11  2  0  0  0  0
 22 12  1  0  0  0  0
 23 24  1  0  0  0  0
 24 29  1  6  0  0  0
 24 10  1  0  0  0  0
 26 25  1  0  0  0  0
 27 25  1  0  0  0  0
 28 29  1  0  0  0  0
 30 31  2  0  0  0  0
 31  1  1  0  0  0  0
 31 32  1  0  0  0  0
 33 32  1  0  0  0  0
 33 34  1  1  0  0  0
 35 36  1  6  0  0  0
 35 33  1  0  0  0  0
 37 35  1  1  0  0  0
 38 44  1  0  0  0  0
 39 40  1  0  0  0  0
 39 38  2  0  0  0  0
 40 43  2  0  0  0  0
 41 39  1  0  0  0  0
 42 37  1  0  0  0  0
 43 42  1  0  0  0  0
 44 42  2  0  0  0  0
 45 50  1  1  0  0  0
 46 49  1  0  0  0  0
 46 45  1  0  0  0  0
 47 46  2  0  0  0  0
 48 46  2  0  0  0  0
 49 37  1  0  0  0  0
 49 45  1  0  0  0  0
 50 53  1  0  0  0  0
 51 50  2  0  0  0  0
 51 52  1  0  0  0  0
 52 55  2  0  0  0  0
 53 54  2  0  0  0  0
 55 54  1  0  0  0  0
 57 56  1  0  0  0  0
 58 57  2  0  0  0  0
 59 57  1  0  0  0  0
 59 60  1  0  0  0  0
M  END
>  <MODEL>
4

>  <REMARK>
 VINA RESULT:       3.6      1.689      2.817
  Name = 
  16 active torsions:
  status: ('A' for Active; 'I' for Inactive)
    1  A    between atoms: C_1  and  C_31
    2  A    between atoms: C_1  and  C_38
    3  A    between atoms: C_2  and  C_21
    4  A    between atoms: C_3  and  C_48
    5  A    between atoms: C_7  and  C_24
    6  A    between atoms: C_8  and  C_45
    7  A    between atoms: C_8  and  C_48
    8  A    between atoms: C_15  and  C_26
    9  A    between atoms: C_15  and  C_43
   10  A    between atoms: C_17  and  C_31
   11  A    between atoms: C_17  and  C_43
   12  A    between atoms: C_18  and  C_38
   13  A    between atoms: C_24  and  C_26
   14  A    between atoms: C_29  and  C_32
   15  A    between atoms: C_38  and  N_59
   16  A    between atoms: C_52  and  C_58
                            x       y       z     vdW  Elec       q    Type
                         _______ _______ _______ _____ _____    ______ ____

>  <TORSDO>
F 16

$$$$
