=
 OpenBabel11072414183D

 34 37  0  0  1  0  0  0  0  0999 V2000
  161.5370  208.7440  150.7940 N   0  0  0  0  0  0  0  0  0  0  0  0
  162.0620  207.3380  147.5320 C   0  0  0  0  0  3  0  0  0  0  0  0
  161.1730  207.5270  154.8360 N   0  0  0  0  0  0  0  0  0  0  0  0
  161.8080  205.9110  147.8370 C   0  0  0  0  0  0  0  0  0  0  0  0
  160.9100  206.0840  151.4190 C   0  0  0  0  0  3  0  0  0  0  0  0
  161.1800  208.3700  152.1070 N   0  0  0  0  0  0  0  0  0  0  0  0
  161.0980  206.5390  153.8100 C   0  0  0  0  0  0  0  0  0  0  0  0
  161.0110  211.1260  155.3990 C   0  0  0  0  0  3  0  0  0  0  0  0
  160.3820  210.5420  153.0690 C   0  0  2  0  0  3  0  0  0  0  0  0
  160.7960  206.5600  150.0040 C   0  0  2  0  0  3  0  0  0  0  0  0
  161.9060  208.2840  148.4630 C   0  0  0  0  0  3  0  0  0  0  0  0
  161.0320  206.9700  152.4120 C   0  0  0  0  0  0  0  0  0  0  0  0
  161.2620  208.7980  154.5850 C   0  0  0  0  0  0  0  0  0  0  0  0
  161.0610  205.3180  154.1180 O   0  0  0  0  0  0  0  0  0  0  0  0
  161.2230  209.7320  155.6660 N   0  0  0  0  0  2  0  0  0  0  0  0
  161.2870  205.5400  149.0140 C   0  0  0  0  0  3  0  0  0  0  0  0
  161.4450  207.9070  149.8050 C   0  0  0  0  0  0  0  0  0  0  0  0
  160.6510  211.5370  154.1780 C   0  0  0  0  0  3  0  0  0  0  0  0
  161.3610  209.3620  153.1770 C   0  0  1  0  0  3  0  0  0  0  0  0
  161.5840  203.6090  147.1670 N   0  0  0  0  0  1  0  0  0  0  0  0
  162.2380  204.8690  146.8640 C   0  0  0  0  0  2  0  0  0  0  0  0
  160.4710  211.1690  151.8200 O   0  0  0  0  0  0  0  0  0  0  0  0
  159.7010  212.3320  151.9390 C   0  0  0  0  0  2  0  0  0  0  0  0
  160.0670  213.3400  150.8620 C   0  0  1  0  0  3  0  0  0  0  0  0
  160.6850  212.6910  149.7880 O   0  0  0  0  0  0  0  0  0  0  0  0
  161.0910  213.7130  148.9240 C   0  0  0  0  0  2  0  0  0  0  0  0
  162.2700  213.2480  148.0870 C   0  0  0  0  0  2  0  0  0  0  0  0
  162.5710  213.2570  145.7240 O   0  0  0  0  0  0  0  0  0  0  0  0
  161.8380  212.9390  146.6960 C   0  0  0  0  0  0  0  0  0  0  0  0
  160.6090  212.3330  146.4690 O   0  0  0  0  0  1  0  0  0  0  0  0
  158.8120  214.0790  150.3910 C   0  0  0  0  0  2  0  0  0  0  0  0
  157.7040  213.1990  150.2530 O   0  0  0  0  0  0  0  0  0  0  0  0
  156.9820  213.1390  149.0660 C   0  0  0  0  0  3  0  0  0  0  0  0
  157.5620  212.8340  147.9930 O   0  0  0  0  0  0  0  0  0  0  0  0
  1  6  1  0  0  0  0
  2  4  1  0  0  0  0
  2 11  2  0  0  0  0
  4 16  2  0  0  0  0
  5 12  2  0  0  0  0
  6 12  1  0  0  0  0
  6 19  1  0  0  0  0
  7 14  2  0  0  0  0
  7  3  1  0  0  0  0
  8 15  1  0  0  0  0
  9 22  1  6  0  0  0
  9 19  1  0  0  0  0
  9 18  1  0  0  0  0
 10 16  1  6  0  0  0
 10  5  1  0  0  0  0
 11 17  1  0  0  0  0
 12  7  1  0  0  0  0
 13  3  2  0  0  0  0
 13 15  1  0  0  0  0
 17 10  1  0  0  0  0
 17  1  2  0  0  0  0
 18  8  2  0  0  0  0
 19 13  1  1  0  0  0
 21 20  1  0  0  0  0
 21  4  1  0  0  0  0
 22 23  1  0  0  0  0
 24 31  1  6  0  0  0
 24 23  1  0  0  0  0
 25 24  1  0  0  0  0
 26 25  1  0  0  0  0
 27 26  1  0  0  0  0
 28 29  2  0  0  0  0
 29 27  1  0  0  0  0
 30 29  1  0  0  0  0
 32 31  1  0  0  0  0
 33 32  1  0  0  0  0
 34 33  2  0  0  0  0
M  END
>  <MODEL>
1

>  <REMARK>
 VINA RESULT:      -6.8      0.000      0.000
  Name = 
  11 active torsions:
  status: ('A' for Active; 'I' for Inactive)
    1  A    between atoms: C_1  and  O_28
    2  A    between atoms: O_4  and  C_17
    3  A    between atoms: O_4  and  C_21
    4  A    between atoms: C_6  and  C_24
    5  A    between atoms: C_10  and  C_15
    6  A    between atoms: C_13  and  O_26
    7  A    between atoms: C_15  and  C_17
    8  A    between atoms: C_21  and  C_23
    9  A    between atoms: C_21  and  C_25
   10  A    between atoms: C_23  and  O_26
   11  A    between atoms: C_25  and  O_28
                            x       y       z     vdW  Elec       q    Type
                         _______ _______ _______ _____ _____    ______ ____

>  <TORSDO>
F 11

$$$$
=
 OpenBabel11072414183D

 34 37  0  0  1  0  0  0  0  0999 V2000
  161.6610  207.3760  150.1740 N   0  0  0  0  0  0  0  0  0  0  0  0
  162.1490  206.6180  146.6990 C   0  0  0  0  0  3  0  0  0  0  0  0
  161.1210  205.4030  153.8850 N   0  0  0  0  0  0  0  0  0  0  0  0
  161.7820  205.1830  146.7070 C   0  0  0  0  0  0  0  0  0  0  0  0
  160.8240  204.7020  150.2460 C   0  0  0  0  0  3  0  0  0  0  0  0
  161.2500  206.7750  151.3830 N   0  0  0  0  0  0  0  0  0  0  0  0
  160.9940  204.6510  152.6800 C   0  0  0  0  0  0  0  0  0  0  0  0
  161.2180  208.8170  155.1630 C   0  0  0  0  0  3  0  0  0  0  0  0
  160.5970  208.7650  152.7590 C   0  0  2  0  0  3  0  0  0  0  0  0
  160.7750  205.4600  148.9550 C   0  0  2  0  0  3  0  0  0  0  0  0
  162.0450  207.3670  147.8010 C   0  0  0  0  0  3  0  0  0  0  0  0
  160.9900  205.3580  151.3980 C   0  0  0  0  0  0  0  0  0  0  0  0
  161.3100  206.6890  153.8970 C   0  0  0  0  0  0  0  0  0  0  0  0
  160.8590  203.4000  152.7350 O   0  0  0  0  0  0  0  0  0  0  0  0
  161.3190  207.3860  155.1440 N   0  0  0  0  0  2  0  0  0  0  0  0
  161.2090  204.6250  147.7830 C   0  0  0  0  0  3  0  0  0  0  0  0
  161.5280  206.7650  149.0360 C   0  0  0  0  0  0  0  0  0  0  0  0
  160.9160  209.4920  154.0480 C   0  0  0  0  0  3  0  0  0  0  0  0
  161.4820  207.5140  152.6320 C   0  0  1  0  0  3  0  0  0  0  0  0
  161.3060  203.1490  145.5090 N   0  0  0  0  0  1  0  0  0  0  0  0
  162.1540  204.3280  145.5470 C   0  0  0  0  0  2  0  0  0  0  0  0
  160.7590  209.6210  151.6630 O   0  0  0  0  0  0  0  0  0  0  0  0
  160.7700  210.9110  152.2060 C   0  0  0  0  0  2  0  0  0  0  0  0
  159.5340  211.6890  151.7860 C   0  0  1  0  0  3  0  0  0  0  0  0
  158.6040  211.7120  152.8300 O   0  0  0  0  0  0  0  0  0  0  0  0
  158.9420  212.8280  153.6010 C   0  0  0  0  0  2  0  0  0  0  0  0
  158.2810  212.7360  154.9650 C   0  0  0  0  0  2  0  0  0  0  0  0
  160.3940  212.4940  156.0380 O   0  0  0  0  0  0  0  0  0  0  0  0
  159.2000  212.1070  155.9530 C   0  0  0  0  0  0  0  0  0  0  0  0
  158.7510  211.0660  156.7550 O   0  0  0  0  0  1  0  0  0  0  0  0
  159.9250  213.1140  151.3860 C   0  0  0  0  0  2  0  0  0  0  0  0
  159.7090  213.3490  150.0000 O   0  0  0  0  0  0  0  0  0  0  0  0
  160.7730  213.3700  149.1040 C   0  0  0  0  0  3  0  0  0  0  0  0
  161.5360  212.3750  149.0120 O   0  0  0  0  0  0  0  0  0  0  0  0
  1  6  1  0  0  0  0
  2  4  1  0  0  0  0
  2 11  2  0  0  0  0
  3 13  2  0  0  0  0
  4 16  2  0  0  0  0
  5 12  2  0  0  0  0
  6 12  1  0  0  0  0
  6 19  1  0  0  0  0
  7 14  2  0  0  0  0
  7  3  1  0  0  0  0
  9 22  1  6  0  0  0
  9 18  1  0  0  0  0
 10 16  1  6  0  0  0
 10 17  1  0  0  0  0
 10  5  1  0  0  0  0
 11 17  1  0  0  0  0
 12  7  1  0  0  0  0
 13 15  1  0  0  0  0
 15  8  1  0  0  0  0
 17  1  2  0  0  0  0
 18  8  2  0  0  0  0
 19  9  1  0  0  0  0
 19 13  1  1  0  0  0
 20 21  1  0  0  0  0
 21  4  1  0  0  0  0
 22 23  1  0  0  0  0
 24 31  1  1  0  0  0
 24 23  1  0  0  0  0
 24 25  1  0  0  0  0
 25 26  1  0  0  0  0
 26 27  1  0  0  0  0
 27 29  1  0  0  0  0
 29 28  2  0  0  0  0
 29 30  1  0  0  0  0
 32 31  1  0  0  0  0
 33 32  1  0  0  0  0
 34 33  2  0  0  0  0
M  END
>  <MODEL>
2

>  <REMARK>
 VINA RESULT:      -6.8      1.811      3.989
  Name = 
  11 active torsions:
  status: ('A' for Active; 'I' for Inactive)
    1  A    between atoms: C_1  and  O_28
    2  A    between atoms: O_4  and  C_17
    3  A    between atoms: O_4  and  C_21
    4  A    between atoms: C_6  and  C_24
    5  A    between atoms: C_10  and  C_15
    6  A    between atoms: C_13  and  O_26
    7  A    between atoms: C_15  and  C_17
    8  A    between atoms: C_21  and  C_23
    9  A    between atoms: C_21  and  C_25
   10  A    between atoms: C_23  and  O_26
   11  A    between atoms: C_25  and  O_28
                            x       y       z     vdW  Elec       q    Type
                         _______ _______ _______ _____ _____    ______ ____

>  <TORSDO>
F 11

$$$$
=
 OpenBabel11072414183D

 34 37  0  0  1  0  0  0  0  0999 V2000
  161.5160  208.6630  150.7270 N   0  0  0  0  0  0  0  0  0  0  0  0
  162.0210  207.2250  147.4770 C   0  0  0  0  0  3  0  0  0  0  0  0
  161.1980  207.4880  154.7860 N   0  0  0  0  0  0  0  0  0  0  0  0
  161.7790  205.7990  147.7990 C   0  0  0  0  0  0  0  0  0  0  0  0
  160.9130  206.0060  151.3870 C   0  0  0  0  0  3  0  0  0  0  0  0
  161.1740  208.3020  152.0470 N   0  0  0  0  0  0  0  0  0  0  0  0
  161.1200  206.4890  153.7710 C   0  0  0  0  0  0  0  0  0  0  0  0
  161.0150  211.0930  155.3110 C   0  0  0  0  0  3  0  0  0  0  0  0
  160.3700  210.4790  152.9930 C   0  0  2  0  0  3  0  0  0  0  0  0
  160.7820  206.4660  149.9680 C   0  0  2  0  0  3  0  0  0  0  0  0
  161.8670  208.1800  148.3980 C   0  0  0  0  0  3  0  0  0  0  0  0
  161.0380  206.9040  152.3690 C   0  0  0  0  0  0  0  0  0  0  0  0
  161.2750  208.7580  154.5200 C   0  0  0  0  0  0  0  0  0  0  0  0
  161.0940  205.2710  154.0940 O   0  0  0  0  0  0  0  0  0  0  0  0
  161.2400  209.7030  155.5910 N   0  0  0  0  0  2  0  0  0  0  0  0
  161.2720  205.4380  148.9850 C   0  0  0  0  0  3  0  0  0  0  0  0
  161.4200  207.8150  149.7480 C   0  0  0  0  0  0  0  0  0  0  0  0
  160.6410  211.4870  154.0880 C   0  0  0  0  0  3  0  0  0  0  0  0
  161.3570  209.3060  153.1050 C   0  0  1  0  0  3  0  0  0  0  0  0
  162.0050  205.2170  145.4740 N   0  0  0  0  0  1  0  0  0  0  0  0
  162.2080  204.7500  146.8340 C   0  0  0  0  0  2  0  0  0  0  0  0
  160.4420  211.0920  151.7360 O   0  0  0  0  0  0  0  0  0  0  0  0
  160.0740  212.4240  151.9580 C   0  0  0  0  0  2  0  0  0  0  0  0
  159.3780  213.0070  150.7390 C   0  0  1  0  0  3  0  0  0  0  0  0
  158.4370  213.9630  151.1350 O   0  0  0  0  0  0  0  0  0  0  0  0
  158.2950  213.7920  152.5150 C   0  0  0  0  0  2  0  0  0  0  0  0
  156.8460  214.0000  152.9190 C   0  0  0  0  0  2  0  0  0  0  0  0
  155.5540  213.3930  154.8250 O   0  0  0  0  0  1  0  0  0  0  0  0
  156.4720  213.0770  154.0250 C   0  0  0  0  0  0  0  0  0  0  0  0
  157.1590  211.8830  154.1960 O   0  0  0  0  0  0  0  0  0  0  0  0
  160.4100  213.6300  149.7960 C   0  0  0  0  0  2  0  0  0  0  0  0
  160.4350  212.9720  148.5360 O   0  0  0  0  0  0  0  0  0  0  0  0
  161.5330  212.2090  148.1500 C   0  0  0  0  0  3  0  0  0  0  0  0
  162.2450  211.6480  149.0210 O   0  0  0  0  0  0  0  0  0  0  0  0
  1  6  1  0  0  0  0
  2  4  1  0  0  0  0
  2 11  2  0  0  0  0
  4 16  2  0  0  0  0
  5 12  2  0  0  0  0
  6 12  1  0  0  0  0
  6 19  1  0  0  0  0
  7 14  2  0  0  0  0
  7  3  1  0  0  0  0
  8 15  1  0  0  0  0
  9 22  1  6  0  0  0
  9 19  1  0  0  0  0
  9 18  1  0  0  0  0
 10 16  1  6  0  0  0
 10  5  1  0  0  0  0
 11 17  1  0  0  0  0
 12  7  1  0  0  0  0
 13  3  2  0  0  0  0
 13 15  1  0  0  0  0
 17 10  1  0  0  0  0
 17  1  2  0  0  0  0
 18  8  2  0  0  0  0
 19 13  1  1  0  0  0
 20 21  1  0  0  0  0
 21  4  1  0  0  0  0
 22 23  1  0  0  0  0
 24 31  1  6  0  0  0
 24 25  1  0  0  0  0
 24 23  1  0  0  0  0
 25 26  1  0  0  0  0
 26 27  1  0  0  0  0
 27 29  1  0  0  0  0
 29 30  2  0  0  0  0
 29 28  1  0  0  0  0
 32 31  1  0  0  0  0
 33 32  1  0  0  0  0
 33 34  2  0  0  0  0
M  END
>  <MODEL>
3

>  <REMARK>
 VINA RESULT:      -6.7      1.626      3.581
  Name = 
  11 active torsions:
  status: ('A' for Active; 'I' for Inactive)
    1  A    between atoms: C_1  and  O_28
    2  A    between atoms: O_4  and  C_17
    3  A    between atoms: O_4  and  C_21
    4  A    between atoms: C_6  and  C_24
    5  A    between atoms: C_10  and  C_15
    6  A    between atoms: C_13  and  O_26
    7  A    between atoms: C_15  and  C_17
    8  A    between atoms: C_21  and  C_23
    9  A    between atoms: C_21  and  C_25
   10  A    between atoms: C_23  and  O_26
   11  A    between atoms: C_25  and  O_28
                            x       y       z     vdW  Elec       q    Type
                         _______ _______ _______ _____ _____    ______ ____

>  <TORSDO>
F 11

$$$$
=
 OpenBabel11072414183D

 34 37  0  0  1  0  0  0  0  0999 V2000
  161.2730  206.6940  151.8440 N   0  0  0  0  0  0  0  0  0  0  0  0
  160.9070  206.9560  155.4060 C   0  0  0  0  0  3  0  0  0  0  0  0
  162.2710  209.0920  148.4960 N   0  0  0  0  0  0  0  0  0  0  0  0
  160.8900  208.4300  155.5430 C   0  0  0  0  0  0  0  0  0  0  0  0
  161.1140  209.4880  152.0070 C   0  0  0  0  0  3  0  0  0  0  0  0
  161.3690  207.4970  150.6870 N   0  0  0  0  0  0  0  0  0  0  0  0
  161.9780  209.7300  149.7370 C   0  0  0  0  0  0  0  0  0  0  0  0
  161.9570  205.9130  146.7360 C   0  0  0  0  0  3  0  0  0  0  0  0
  160.7050  205.8920  148.8810 C   0  0  2  0  0  3  0  0  0  0  0  0
  160.5310  208.6470  153.1000 C   0  0  2  0  0  3  0  0  0  0  0  0
  160.9550  206.3710  154.2050 C   0  0  0  0  0  3  0  0  0  0  0  0
  161.4500  208.9270  150.8420 C   0  0  0  0  0  0  0  0  0  0  0  0
  162.1610  207.8090  148.3200 C   0  0  0  0  0  0  0  0  0  0  0  0
  162.1500  210.9720  149.8580 O   0  0  0  0  0  0  0  0  0  0  0  0
  162.3680  207.2590  147.0170 N   0  0  0  0  0  2  0  0  0  0  0  0
  160.7890  209.2210  154.4660 C   0  0  0  0  0  3  0  0  0  0  0  0
  160.9610  207.2050  152.9970 C   0  0  0  0  0  0  0  0  0  0  0  0
  161.2060  205.2360  147.6120 C   0  0  0  0  0  3  0  0  0  0  0  0
  161.7750  206.8490  149.4320 C   0  0  1  0  0  3  0  0  0  0  0  0
  162.5070  209.3330  157.0820 N   0  0  0  0  0  1  0  0  0  0  0  0
  161.0980  209.0410  156.8850 C   0  0  0  0  0  2  0  0  0  0  0  0
  160.3500  204.9200  149.8250 O   0  0  0  0  0  0  0  0  0  0  0  0
  161.0040  203.7530  149.4120 C   0  0  0  0  0  2  0  0  0  0  0  0
  160.1220  202.5330  149.6210 C   0  0  1  0  0  3  0  0  0  0  0  0
  159.9080  201.8810  148.4030 O   0  0  0  0  0  0  0  0  0  0  0  0
  161.1720  201.4450  147.9910 C   0  0  0  0  0  2  0  0  0  0  0  0
  161.0660  200.7400  146.6500 C   0  0  0  0  0  2  0  0  0  0  0  0
  161.2100  202.7660  145.4060 O   0  0  0  0  0  1  0  0  0  0  0  0
  160.6000  201.6810  145.5960 C   0  0  0  0  0  0  0  0  0  0  0  0
  159.4710  201.3810  144.8460 O   0  0  0  0  0  0  0  0  0  0  0  0
  160.7750  201.5840  150.6290 C   0  0  0  0  0  2  0  0  0  0  0  0
  161.8040  202.2290  151.3680 O   0  0  0  0  0  0  0  0  0  0  0  0
  161.5000  203.1640  152.3520 C   0  0  0  0  0  3  0  0  0  0  0  0
  160.3250  203.2510  152.7940 O   0  0  0  0  0  0  0  0  0  0  0  0
  1 17  2  0  0  0  0
  2  4  1  0  0  0  0
  3  7  1  0  0  0  0
  4 21  1  0  0  0  0
  6 12  1  0  0  0  0
  6  1  1  0  0  0  0
  7 14  2  0  0  0  0
  7 12  1  0  0  0  0
  8 15  1  0  0  0  0
  8 18  2  0  0  0  0
  9 19  1  0  0  0  0
  9 22  1  1  0  0  0
 10  5  1  6  0  0  0
 10 16  1  0  0  0  0
 11  2  2  0  0  0  0
 12  5  2  0  0  0  0
 13  3  2  0  0  0  0
 15 13  1  0  0  0  0
 16  4  2  0  0  0  0
 17 10  1  0  0  0  0
 17 11  1  0  0  0  0
 18  9  1  0  0  0  0
 19 13  1  6  0  0  0
 19  6  1  0  0  0  0
 21 20  1  0  0  0  0
 23 22  1  0  0  0  0
 24 23  1  6  0  0  0
 24 31  1  0  0  0  0
 25 24  1  0  0  0  0
 26 25  1  0  0  0  0
 27 26  1  0  0  0  0
 28 29  1  0  0  0  0
 29 27  1  0  0  0  0
 30 29  2  0  0  0  0
 31 32  1  0  0  0  0
 32 33  1  0  0  0  0
 33 34  2  0  0  0  0
M  END
>  <MODEL>
4

>  <REMARK>
 VINA RESULT:      -6.7      3.520      8.739
  Name = 
  11 active torsions:
  status: ('A' for Active; 'I' for Inactive)
    1  A    between atoms: C_1  and  O_28
    2  A    between atoms: O_4  and  C_17
    3  A    between atoms: O_4  and  C_21
    4  A    between atoms: C_6  and  C_24
    5  A    between atoms: C_10  and  C_15
    6  A    between atoms: C_13  and  O_26
    7  A    between atoms: C_15  and  C_17
    8  A    between atoms: C_21  and  C_23
    9  A    between atoms: C_21  and  C_25
   10  A    between atoms: C_23  and  O_26
   11  A    between atoms: C_25  and  O_28
                            x       y       z     vdW  Elec       q    Type
                         _______ _______ _______ _____ _____    ______ ____

>  <TORSDO>
F 11

$$$$
=
 OpenBabel11072414183D

 34 37  0  0  1  0  0  0  0  0999 V2000
  161.5580  208.8230  150.9140 N   0  0  0  0  0  0  0  0  0  0  0  0
  162.1050  207.5240  147.6120 C   0  0  0  0  0  3  0  0  0  0  0  0
  161.1720  207.4740  154.9120 N   0  0  0  0  0  0  0  0  0  0  0  0
  161.8500  206.0880  147.8680 C   0  0  0  0  0  0  0  0  0  0  0  0
  160.9320  206.1430  151.4490 C   0  0  0  0  0  3  0  0  0  0  0  0
  161.1940  208.4060  152.2120 N   0  0  0  0  0  0  0  0  0  0  0  0
  161.1040  206.5210  153.8540 C   0  0  0  0  0  0  0  0  0  0  0  0
  161.0010  211.0530  155.5920 C   0  0  0  0  0  3  0  0  0  0  0  0
  160.3870  210.5450  153.2390 C   0  0  2  0  0  3  0  0  0  0  0  0
  160.8250  206.6650  150.0490 C   0  0  2  0  0  3  0  0  0  0  0  0
  161.9410  208.4400  148.5720 C   0  0  0  0  0  3  0  0  0  0  0  0
  161.0460  206.9970  152.4700 C   0  0  0  0  0  0  0  0  0  0  0  0
  161.2600  208.7540  154.7030 C   0  0  0  0  0  0  0  0  0  0  0  0
  161.0680  205.2900  154.1230 O   0  0  0  0  0  0  0  0  0  0  0  0
  161.2140  209.6520  155.8140 N   0  0  0  0  0  2  0  0  0  0  0  0
  161.3230  205.6780  149.0300 C   0  0  0  0  0  3  0  0  0  0  0  0
  161.4730  208.0190  149.8980 C   0  0  0  0  0  0  0  0  0  0  0  0
  160.6480  211.5030  154.3820 C   0  0  0  0  0  3  0  0  0  0  0  0
  161.3670  209.3620  153.3150 C   0  0  1  0  0  3  0  0  0  0  0  0
  162.3920  205.6980  145.5540 N   0  0  0  0  0  1  0  0  0  0  0  0
  162.2880  205.0790  146.8640 C   0  0  0  0  0  2  0  0  0  0  0  0
  160.4820  211.2120  152.0120 O   0  0  0  0  0  0  0  0  0  0  0  0
  159.3110  211.9730  151.9180 C   0  0  0  0  0  2  0  0  0  0  0  0
  159.6220  213.4030  151.5100 C   0  0  1  0  0  3  0  0  0  0  0  0
  159.3200  213.5920  150.1570 O   0  0  0  0  0  0  0  0  0  0  0  0
  160.5400  213.9010  149.5470 C   0  0  0  0  0  2  0  0  0  0  0  0
  160.5690  213.3470  148.1340 C   0  0  0  0  0  2  0  0  0  0  0  0
  162.4340  212.7970  146.7580 O   0  0  0  0  0  0  0  0  0  0  0  0
  161.8590  212.6530  147.8680 C   0  0  0  0  0  0  0  0  0  0  0  0
  162.4090  211.8170  148.8300 O   0  0  0  0  0  1  0  0  0  0  0  0
  158.8260  214.3790  152.3780 C   0  0  0  0  0  2  0  0  0  0  0  0
  157.9970  213.6980  153.3110 O   0  0  0  0  0  0  0  0  0  0  0  0
  157.9220  214.1120  154.6370 C   0  0  0  0  0  3  0  0  0  0  0  0
  157.1010  213.5680  155.4200 O   0  0  0  0  0  0  0  0  0  0  0  0
  1  6  1  0  0  0  0
  2  4  1  0  0  0  0
  2 11  2  0  0  0  0
  4 16  2  0  0  0  0
  5 12  2  0  0  0  0
  6 12  1  0  0  0  0
  6 19  1  0  0  0  0
  7 14  2  0  0  0  0
  7  3  1  0  0  0  0
  8 15  1  0  0  0  0
  9 22  1  6  0  0  0
  9 19  1  0  0  0  0
  9 18  1  0  0  0  0
 10 16  1  6  0  0  0
 10  5  1  0  0  0  0
 11 17  1  0  0  0  0
 12  7  1  0  0  0  0
 13  3  2  0  0  0  0
 13 15  1  0  0  0  0
 17 10  1  0  0  0  0
 17  1  2  0  0  0  0
 18  8  2  0  0  0  0
 19 13  1  1  0  0  0
 20 21  1  0  0  0  0
 21  4  1  0  0  0  0
 23 22  1  0  0  0  0
 24 23  1  1  0  0  0
 24 31  1  0  0  0  0
 25 24  1  0  0  0  0
 26 25  1  0  0  0  0
 27 26  1  0  0  0  0
 28 29  2  0  0  0  0
 29 27  1  0  0  0  0
 29 30  1  0  0  0  0
 31 32  1  0  0  0  0
 32 33  1  0  0  0  0
 33 34  2  0  0  0  0
M  END
>  <MODEL>
5

>  <REMARK>
 VINA RESULT:      -6.5      1.481      1.954
  Name = 
  11 active torsions:
  status: ('A' for Active; 'I' for Inactive)
    1  A    between atoms: C_1  and  O_28
    2  A    between atoms: O_4  and  C_17
    3  A    between atoms: O_4  and  C_21
    4  A    between atoms: C_6  and  C_24
    5  A    between atoms: C_10  and  C_15
    6  A    between atoms: C_13  and  O_26
    7  A    between atoms: C_15  and  C_17
    8  A    between atoms: C_21  and  C_23
    9  A    between atoms: C_21  and  C_25
   10  A    between atoms: C_23  and  O_26
   11  A    between atoms: C_25  and  O_28
                            x       y       z     vdW  Elec       q    Type
                         _______ _______ _______ _____ _____    ______ ____

>  <TORSDO>
F 11

$$$$
=
 OpenBabel11072414183D

 34 37  0  0  1  0  0  0  0  0999 V2000
  160.4290  209.7580  152.5470 N   0  0  0  0  0  0  0  0  0  0  0  0
  159.3100  213.1670  152.6750 C   0  0  0  0  0  3  0  0  0  0  0  0
  160.5880  206.2970  154.9870 N   0  0  0  0  0  0  0  0  0  0  0  0
  159.1060  213.3040  154.1360 C   0  0  0  0  0  0  0  0  0  0  0  0
  160.1950  209.9790  155.3320 C   0  0  0  0  0  3  0  0  0  0  0  0
  160.7130  208.6630  153.3900 N   0  0  0  0  0  0  0  0  0  0  0  0
  160.2870  207.5540  155.5910 C   0  0  0  0  0  0  0  0  0  0  0  0
  161.9320  204.8040  151.9430 C   0  0  0  0  0  3  0  0  0  0  0  0
  162.2180  207.2710  151.9470 C   0  0  2  0  0  3  0  0  0  0  0  0
  160.3840  211.2120  154.5030 C   0  0  2  0  0  3  0  0  0  0  0  0
  159.8110  212.0470  152.1470 C   0  0  0  0  0  3  0  0  0  0  0  0
  160.4170  208.7750  154.7950 C   0  0  0  0  0  0  0  0  0  0  0  0
  160.9020  206.1770  153.7320 C   0  0  0  0  0  0  0  0  0  0  0  0
  159.9440  207.5980  156.8030 O   0  0  0  0  0  0  0  0  0  0  0  0
  161.2950  204.9000  153.2250 N   0  0  0  0  0  2  0  0  0  0  0  0
  159.5390  212.3600  154.9830 C   0  0  0  0  0  3  0  0  0  0  0  0
  160.1950  210.9400  153.0310 C   0  0  0  0  0  0  0  0  0  0  0  0
  162.3420  205.9070  151.3050 C   0  0  0  0  0  3  0  0  0  0  0  0
  160.9170  207.3490  152.7640 C   0  0  1  0  0  3  0  0  0  0  0  0
  157.1430  213.9610  155.3640 N   0  0  0  0  0  1  0  0  0  0  0  0
  158.3130  214.4500  154.6570 C   0  0  0  0  0  2  0  0  0  0  0  0
  162.2720  208.2760  150.9730 O   0  0  0  0  0  0  0  0  0  0  0  0
  162.3150  207.5970  149.7500 C   0  0  0  0  0  2  0  0  0  0  0  0
  162.1720  208.5630  148.5860 C   0  0  1  0  0  3  0  0  0  0  0  0
  161.1580  208.1300  147.7250 O   0  0  0  0  0  0  0  0  0  0  0  0
  161.3180  206.7440  147.6340 C   0  0  0  0  0  2  0  0  0  0  0  0
  160.6980  206.2330  146.3450 C   0  0  0  0  0  2  0  0  0  0  0  0
  162.8750  205.3410  145.9700 O   0  0  0  0  0  1  0  0  0  0  0  0
  161.7110  205.5150  145.5240 C   0  0  0  0  0  0  0  0  0  0  0  0
  161.3840  205.0700  144.2500 O   0  0  0  0  0  0  0  0  0  0  0  0
  161.8670  209.9690  149.1090 C   0  0  0  0  0  2  0  0  0  0  0  0
  162.4390  210.9730  148.2800 O   0  0  0  0  0  0  0  0  0  0  0  0
  161.7310  212.1280  147.9640 C   0  0  0  0  0  3  0  0  0  0  0  0
  162.2590  213.0100  147.2390 O   0  0  0  0  0  0  0  0  0  0  0  0
  1 17  2  0  0  0  0
  1  6  1  0  0  0  0
  2  4  1  0  0  0  0
  3  7  1  0  0  0  0
  4 21  1  0  0  0  0
  4 16  2  0  0  0  0
  6 12  1  0  0  0  0
  7 14  2  0  0  0  0
  8 15  1  0  0  0  0
  9 22  1  6  0  0  0
  9 19  1  0  0  0  0
 10 16  1  1  0  0  0
 10  5  1  0  0  0  0
 11  2  2  0  0  0  0
 11 17  1  0  0  0  0
 12  5  2  0  0  0  0
 12  7  1  0  0  0  0
 13  3  2  0  0  0  0
 15 13  1  0  0  0  0
 17 10  1  0  0  0  0
 18  8  2  0  0  0  0
 18  9  1  0  0  0  0
 19  6  1  0  0  0  0
 19 13  1  1  0  0  0
 21 20  1  0  0  0  0
 23 22  1  0  0  0  0
 24 31  1  1  0  0  0
 24 23  1  0  0  0  0
 25 24  1  0  0  0  0
 26 25  1  0  0  0  0
 27 26  1  0  0  0  0
 29 28  1  0  0  0  0
 29 27  1  0  0  0  0
 30 29  2  0  0  0  0
 32 31  1  0  0  0  0
 33 32  1  0  0  0  0
 34 33  2  0  0  0  0
M  END
>  <MODEL>
6

>  <REMARK>
 VINA RESULT:      -6.2      2.816      6.476
  Name = 
  11 active torsions:
  status: ('A' for Active; 'I' for Inactive)
    1  A    between atoms: C_1  and  O_28
    2  A    between atoms: O_4  and  C_17
    3  A    between atoms: O_4  and  C_21
    4  A    between atoms: C_6  and  C_24
    5  A    between atoms: C_10  and  C_15
    6  A    between atoms: C_13  and  O_26
    7  A    between atoms: C_15  and  C_17
    8  A    between atoms: C_21  and  C_23
    9  A    between atoms: C_21  and  C_25
   10  A    between atoms: C_23  and  O_26
   11  A    between atoms: C_25  and  O_28
                            x       y       z     vdW  Elec       q    Type
                         _______ _______ _______ _____ _____    ______ ____

>  <TORSDO>
F 11

$$$$
=
 OpenBabel11072414183D

 34 37  0  0  1  0  0  0  0  0999 V2000
  160.5110  209.9570  152.2410 N   0  0  0  0  0  0  0  0  0  0  0  0
  159.2270  212.0650  154.8490 C   0  0  0  0  0  3  0  0  0  0  0  0
  161.4430  205.8880  151.5170 N   0  0  0  0  0  0  0  0  0  0  0  0
  159.3490  211.1370  155.9970 C   0  0  0  0  0  0  0  0  0  0  0  0
  160.8950  208.1910  154.3840 C   0  0  0  0  0  3  0  0  0  0  0  0
  161.0490  208.6700  152.0340 N   0  0  0  0  0  0  0  0  0  0  0  0
  161.2040  206.3120  152.8570 C   0  0  0  0  0  0  0  0  0  0  0  0
  162.1640  207.1510  148.1720 C   0  0  0  0  0  3  0  0  0  0  0  0
  162.2790  208.9600  149.8710 C   0  0  2  0  0  3  0  0  0  0  0  0
  160.8110  209.6640  154.6420 C   0  0  2  0  0  3  0  0  0  0  0  0
  159.6690  211.7270  153.6340 C   0  0  0  0  0  3  0  0  0  0  0  0
  161.0700  207.7430  153.1370 C   0  0  0  0  0  0  0  0  0  0  0  0
  161.4740  206.7120  150.5120 C   0  0  0  0  0  0  0  0  0  0  0  0
  161.1400  205.4580  153.7810 O   0  0  0  0  0  0  0  0  0  0  0  0
  161.8270  206.2250  149.2150 N   0  0  0  0  0  2  0  0  0  0  0  0
  160.0230  209.9840  155.8820 C   0  0  0  0  0  3  0  0  0  0  0  0
  160.3150  210.4240  153.4370 C   0  0  0  0  0  0  0  0  0  0  0  0
  162.3460  208.4480  148.4480 C   0  0  0  0  0  3  0  0  0  0  0  0
  161.1940  208.1990  150.6490 C   0  0  1  0  0  3  0  0  0  0  0  0
  157.6090  212.4530  157.0150 N   0  0  0  0  0  1  0  0  0  0  0  0
  158.6190  211.4380  157.2590 C   0  0  0  0  0  2  0  0  0  0  0  0
  162.0470  210.3410  149.8820 O   0  0  0  0  0  0  0  0  0  0  0  0
  161.9760  210.7100  148.5340 C   0  0  0  0  0  2  0  0  0  0  0  0
  162.2930  212.1860  148.3570 C   0  0  1  0  0  3  0  0  0  0  0  0
  163.0580  212.3770  147.2020 O   0  0  0  0  0  0  0  0  0  0  0  0
  162.3180  213.2620  146.4120 C   0  0  0  0  0  2  0  0  0  0  0  0
  162.9120  213.3350  145.0160 C   0  0  0  0  0  2  0  0  0  0  0  0
  162.2730  212.3950  142.9220 O   0  0  0  0  0  0  0  0  0  0  0  0
  161.9030  212.9410  143.9950 C   0  0  0  0  0  0  0  0  0  0  0  0
  160.5580  213.2080  144.2080 O   0  0  0  0  0  1  0  0  0  0  0  0
  160.9950  212.9940  148.2800 C   0  0  0  0  0  2  0  0  0  0  0  0
  160.7900  213.7710  149.4530 O   0  0  0  0  0  0  0  0  0  0  0  0
  159.8330  213.4050  150.3940 C   0  0  0  0  0  3  0  0  0  0  0  0
  158.6110  213.5660  150.1440 O   0  0  0  0  0  0  0  0  0  0  0  0
  1 17  2  0  0  0  0
  2  4  1  0  0  0  0
  3  7  1  0  0  0  0
  4 21  1  0  0  0  0
  6  1  1  0  0  0  0
  6 12  1  0  0  0  0
  7 12  1  0  0  0  0
  7 14  2  0  0  0  0
  8 18  2  0  0  0  0
  8 15  1  0  0  0  0
  9 22  1  6  0  0  0
  9 19  1  0  0  0  0
 10  5  1  6  0  0  0
 10 16  1  0  0  0  0
 11  2  2  0  0  0  0
 12  5  2  0  0  0  0
 13  3  2  0  0  0  0
 15 13  1  0  0  0  0
 16  4  2  0  0  0  0
 17 11  1  0  0  0  0
 17 10  1  0  0  0  0
 18  9  1  0  0  0  0
 19 13  1  1  0  0  0
 19  6  1  0  0  0  0
 20 21  1  0  0  0  0
 23 22  1  0  0  0  0
 24 31  1  6  0  0  0
 24 23  1  0  0  0  0
 25 24  1  0  0  0  0
 26 25  1  0  0  0  0
 27 26  1  0  0  0  0
 28 29  2  0  0  0  0
 29 30  1  0  0  0  0
 29 27  1  0  0  0  0
 31 32  1  0  0  0  0
 32 33  1  0  0  0  0
 34 33  2  0  0  0  0
M  END
>  <MODEL>
7

>  <REMARK>
 VINA RESULT:      -6.1      1.836      5.634
  Name = 
  11 active torsions:
  status: ('A' for Active; 'I' for Inactive)
    1  A    between atoms: C_1  and  O_28
    2  A    between atoms: O_4  and  C_17
    3  A    between atoms: O_4  and  C_21
    4  A    between atoms: C_6  and  C_24
    5  A    between atoms: C_10  and  C_15
    6  A    between atoms: C_13  and  O_26
    7  A    between atoms: C_15  and  C_17
    8  A    between atoms: C_21  and  C_23
    9  A    between atoms: C_21  and  C_25
   10  A    between atoms: C_23  and  O_26
   11  A    between atoms: C_25  and  O_28
                            x       y       z     vdW  Elec       q    Type
                         _______ _______ _______ _____ _____    ______ ____

>  <TORSDO>
F 11

$$$$
=
 OpenBabel11072414183D

 34 37  0  0  1  0  0  0  0  0999 V2000
  161.2660  206.7050  149.3140 N   0  0  0  0  0  0  0  0  0  0  0  0
  161.6360  210.1210  148.2730 C   0  0  0  0  0  3  0  0  0  0  0  0
  160.8250  204.4180  152.8530 N   0  0  0  0  0  0  0  0  0  0  0  0
  161.9560  210.7420  149.5790 C   0  0  0  0  0  0  0  0  0  0  0  0
  161.9970  207.7840  151.7960 C   0  0  0  0  0  3  0  0  0  0  0  0
  161.3510  205.8920  150.4640 N   0  0  0  0  0  0  0  0  0  0  0  0
  161.2280  205.7810  152.9600 C   0  0  0  0  0  0  0  0  0  0  0  0
  160.4950  201.6810  150.4650 C   0  0  0  0  0  3  0  0  0  0  0  0
  161.6900  203.6170  149.4690 C   0  0  2  0  0  3  0  0  0  0  0  0
  162.3810  208.4960  150.5360 C   0  0  2  0  0  3  0  0  0  0  0  0
  161.4820  208.7990  148.1530 C   0  0  0  0  0  3  0  0  0  0  0  0
  161.5660  206.5200  151.7420 C   0  0  0  0  0  0  0  0  0  0  0  0
  160.6690  203.8160  151.7120 C   0  0  0  0  0  0  0  0  0  0  0  0
  161.3160  206.3200  154.0960 O   0  0  0  0  0  0  0  0  0  0  0  0
  160.3680  202.4190  151.6890 N   0  0  0  0  0  2  0  0  0  0  0  0
  162.2310  209.9880  150.6510 C   0  0  0  0  0  3  0  0  0  0  0  0
  161.6630  207.9420  149.3300 C   0  0  0  0  0  0  0  0  0  0  0  0
  161.0800  202.2340  149.3960 C   0  0  0  0  0  3  0  0  0  0  0  0
  160.8350  204.5190  150.3740 C   0  0  1  0  0  3  0  0  0  0  0  0
  161.1820  212.7900  148.5760 N   0  0  0  0  0  1  0  0  0  0  0  0
  161.8630  212.2210  149.7260 C   0  0  0  0  0  2  0  0  0  0  0  0
  161.8250  204.1590  148.1850 O   0  0  0  0  0  0  0  0  0  0  0  0
  161.0920  203.3070  147.3500 C   0  0  0  0  0  2  0  0  0  0  0  0
  161.7800  203.1390  146.0060 C   0  0  1  0  0  3  0  0  0  0  0  0
  160.8740  202.6460  145.0610 O   0  0  0  0  0  0  0  0  0  0  0  0
  160.1090  201.6960  145.7450 C   0  0  0  0  0  2  0  0  0  0  0  0
  160.2200  200.3470  145.0570 C   0  0  0  0  0  2  0  0  0  0  0  0
  161.5620  198.3890  145.2580 O   0  0  0  0  0  0  0  0  0  0  0  0
  161.1670  199.4600  145.7870 C   0  0  0  0  0  0  0  0  0  0  0  0
  161.5850  199.7960  147.0680 O   0  0  0  0  0  1  0  0  0  0  0  0
  162.3590  204.4780  145.5440 C   0  0  0  0  0  2  0  0  0  0  0  0
  161.5460  205.0880  144.5500 O   0  0  0  0  0  0  0  0  0  0  0  0
  160.7790  206.2110  144.8440 C   0  0  0  0  0  3  0  0  0  0  0  0
  159.9900  206.1940  145.8230 O   0  0  0  0  0  0  0  0  0  0  0  0
  1 17  2  0  0  0  0
  1  6  1  0  0  0  0
  2  4  1  0  0  0  0
  3  7  1  0  0  0  0
  4 21  1  0  0  0  0
  4 16  2  0  0  0  0
  6 12  1  0  0  0  0
  7 14  2  0  0  0  0
  8 15  1  0  0  0  0
  9 22  1  6  0  0  0
  9 19  1  0  0  0  0
 10 16  1  1  0  0  0
 10  5  1  0  0  0  0
 11  2  2  0  0  0  0
 11 17  1  0  0  0  0
 12  5  2  0  0  0  0
 12  7  1  0  0  0  0
 13  3  2  0  0  0  0
 15 13  1  0  0  0  0
 17 10  1  0  0  0  0
 18  9  1  0  0  0  0
 18  8  2  0  0  0  0
 19  6  1  0  0  0  0
 19 13  1  1  0  0  0
 20 21  1  0  0  0  0
 23 22  1  0  0  0  0
 24 31  1  6  0  0  0
 24 23  1  0  0  0  0
 25 26  1  0  0  0  0
 25 24  1  0  0  0  0
 27 26  1  0  0  0  0
 27 29  1  0  0  0  0
 28 29  2  0  0  0  0
 29 30  1  0  0  0  0
 32 33  1  0  0  0  0
 32 31  1  0  0  0  0
 33 34  2  0  0  0  0
M  END
>  <MODEL>
8

>  <REMARK>
 VINA RESULT:      -6.0      4.420      8.349
  Name = 
  11 active torsions:
  status: ('A' for Active; 'I' for Inactive)
    1  A    between atoms: C_1  and  O_28
    2  A    between atoms: O_4  and  C_17
    3  A    between atoms: O_4  and  C_21
    4  A    between atoms: C_6  and  C_24
    5  A    between atoms: C_10  and  C_15
    6  A    between atoms: C_13  and  O_26
    7  A    between atoms: C_15  and  C_17
    8  A    between atoms: C_21  and  C_23
    9  A    between atoms: C_21  and  C_25
   10  A    between atoms: C_23  and  O_26
   11  A    between atoms: C_25  and  O_28
                            x       y       z     vdW  Elec       q    Type
                         _______ _______ _______ _____ _____    ______ ____

>  <TORSDO>
F 11

$$$$
=
 OpenBabel11072414183D

 34 37  0  0  1  0  0  0  0  0999 V2000
  160.5870  209.6660  152.1450 N   0  0  0  0  0  0  0  0  0  0  0  0
  159.4270  211.7300  154.8450 C   0  0  0  0  0  3  0  0  0  0  0  0
  161.4370  205.6030  151.2950 N   0  0  0  0  0  0  0  0  0  0  0  0
  159.5770  210.7740  155.9660 C   0  0  0  0  0  0  0  0  0  0  0  0
  161.0240  207.8460  154.2320 C   0  0  0  0  0  3  0  0  0  0  0  0
  161.1000  208.3770  151.8900 N   0  0  0  0  0  0  0  0  0  0  0  0
  161.2520  205.9990  152.6530 C   0  0  0  0  0  0  0  0  0  0  0  0
  162.0540  206.9340  147.9570 C   0  0  0  0  0  3  0  0  0  0  0  0
  162.2550  208.7010  149.6900 C   0  0  2  0  0  3  0  0  0  0  0  0
  160.9700  209.3140  154.5270 C   0  0  2  0  0  3  0  0  0  0  0  0
  159.8200  211.4140  153.6070 C   0  0  0  0  0  3  0  0  0  0  0  0
  161.1480  207.4250  152.9700 C   0  0  0  0  0  0  0  0  0  0  0  0
  161.4430  206.4500  150.3090 C   0  0  0  0  0  0  0  0  0  0  0  0
  161.2100  205.1250  153.5590 O   0  0  0  0  0  0  0  0  0  0  0  0
  161.7430  205.9890  148.9900 N   0  0  0  0  0  2  0  0  0  0  0  0
  160.2300  209.6160  155.8010 C   0  0  0  0  0  3  0  0  0  0  0  0
  160.4400  210.1070  153.3580 C   0  0  0  0  0  0  0  0  0  0  0  0
  162.2630  208.2220  148.2540 C   0  0  0  0  0  3  0  0  0  0  0  0
  161.1880  207.9370  150.4900 C   0  0  1  0  0  3  0  0  0  0  0  0
  157.9620  212.1550  157.0990 N   0  0  0  0  0  1  0  0  0  0  0  0
  158.8970  211.0550  157.2600 C   0  0  0  0  0  2  0  0  0  0  0  0
  162.0420  210.0840  149.7410 O   0  0  0  0  0  0  0  0  0  0  0  0
  162.3550  210.5500  148.4590 C   0  0  0  0  0  2  0  0  0  0  0  0
  161.5780  211.8150  148.1350 C   0  0  1  0  0  3  0  0  0  0  0  0
  161.1920  212.4570  149.3160 O   0  0  0  0  0  0  0  0  0  0  0  0
  160.7010  213.7030  148.9150 C   0  0  0  0  0  2  0  0  0  0  0  0
  159.1940  213.6360  148.7380 C   0  0  0  0  0  2  0  0  0  0  0  0
  157.2890  213.3840  150.1460 O   0  0  0  0  0  0  0  0  0  0  0  0
  158.5080  213.6860  150.0580 C   0  0  0  0  0  0  0  0  0  0  0  0
  159.2020  214.1010  151.1860 O   0  0  0  0  0  1  0  0  0  0  0  0
  162.4340  212.7470  147.2730 C   0  0  0  0  0  2  0  0  0  0  0  0
  161.8120  213.0270  146.0260 O   0  0  0  0  0  0  0  0  0  0  0  0
  162.5650  213.1400  144.8610 C   0  0  0  0  0  3  0  0  0  0  0  0
  162.0450  212.8650  143.7490 O   0  0  0  0  0  0  0  0  0  0  0  0
  1 17  2  0  0  0  0
  2  4  1  0  0  0  0
  3  7  1  0  0  0  0
  4 21  1  0  0  0  0
  6  1  1  0  0  0  0
  6 12  1  0  0  0  0
  7 12  1  0  0  0  0
  7 14  2  0  0  0  0
  8 18  2  0  0  0  0
  8 15  1  0  0  0  0
  9 22  1  6  0  0  0
  9 19  1  0  0  0  0
 10  5  1  6  0  0  0
 10 16  1  0  0  0  0
 11  2  2  0  0  0  0
 12  5  2  0  0  0  0
 13  3  2  0  0  0  0
 15 13  1  0  0  0  0
 16  4  2  0  0  0  0
 17 11  1  0  0  0  0
 17 10  1  0  0  0  0
 18  9  1  0  0  0  0
 19 13  1  1  0  0  0
 19  6  1  0  0  0  0
 20 21  1  0  0  0  0
 23 22  1  0  0  0  0
 24 31  1  6  0  0  0
 24 23  1  0  0  0  0
 24 25  1  0  0  0  0
 26 25  1  0  0  0  0
 27 26  1  0  0  0  0
 27 29  1  0  0  0  0
 29 28  2  0  0  0  0
 29 30  1  0  0  0  0
 32 31  1  0  0  0  0
 33 32  1  0  0  0  0
 34 33  2  0  0  0  0
M  END
>  <MODEL>
9

>  <REMARK>
 VINA RESULT:      -5.9      1.671      6.018
  Name = 
  11 active torsions:
  status: ('A' for Active; 'I' for Inactive)
    1  A    between atoms: C_1  and  O_28
    2  A    between atoms: O_4  and  C_17
    3  A    between atoms: O_4  and  C_21
    4  A    between atoms: C_6  and  C_24
    5  A    between atoms: C_10  and  C_15
    6  A    between atoms: C_13  and  O_26
    7  A    between atoms: C_15  and  C_17
    8  A    between atoms: C_21  and  C_23
    9  A    between atoms: C_21  and  C_25
   10  A    between atoms: C_23  and  O_26
   11  A    between atoms: C_25  and  O_28
                            x       y       z     vdW  Elec       q    Type
                         _______ _______ _______ _____ _____    ______ ____

>  <TORSDO>
F 11

$$$$
