=
 OpenBabel11072414163D

 34 36  0  0  1  0  0  0  0  0999 V2000
  161.5490  208.1610  150.5050 C   0  0  0  0  0  3  0  0  0  0  0  0
  162.0460  210.5000  151.1440 C   0  0  0  0  0  3  0  0  0  0  0  0
  161.7200  209.3240  148.3260 C   0  0  0  0  0  3  0  0  0  0  0  0
  161.0660  209.3750  151.2310 C   0  0  2  0  0  3  0  0  0  0  0  0
  161.8410  211.5600  147.6560 O   0  0  0  0  0  1  0  0  0  0  0  0
  161.8200  208.1270  149.1990 C   0  0  0  0  0  0  0  0  0  0  0  0
  162.4010  211.0550  149.9870 C   0  0  0  0  0  3  0  0  0  0  0  0
  161.9540  210.6030  148.6550 C   0  0  0  0  0  0  0  0  0  0  0  0
  159.9680  210.1420  154.7570 C   0  0  0  0  0  3  0  0  0  0  0  0
  159.8990  209.9800  153.4380 C   0  0  0  0  0  3  0  0  0  0  0  0
  161.1410  207.8490  153.1070 C   0  0  0  0  0  3  0  0  0  0  0  0
  160.9910  209.4410  155.6000 C   0  0  2  0  0  3  0  0  0  0  0  0
  160.8880  207.2870  154.4500 C   0  0  0  0  0  3  0  0  0  0  0  0
  160.7810  207.9960  155.5330 N   0  0  0  0  0  0  0  0  0  0  0  0
  160.7460  209.0470  152.6550 C   0  0  0  0  0  0  0  0  0  0  0  0
  160.9300  209.9070  156.9950 N   0  0  0  0  0  0  0  0  0  0  0  0
  159.6170  210.5050  157.2460 C   0  0  0  0  0  1  0  0  0  0  0  0
  163.1810  210.7970  156.2970 C   0  0  0  0  0  1  0  0  0  0  0  0
  161.9900  210.9010  157.2520 C   0  0  0  0  0  3  0  0  0  0  0  0
  161.4300  212.3130  157.2610 C   0  0  0  0  0  1  0  0  0  0  0  0
  160.1060  206.2690  147.6710 O   0  0  0  0  0  0  0  0  0  0  0  0
  161.3080  205.9730  147.8990 C   0  0  0  0  0  0  0  0  0  0  0  0
  162.1650  206.8520  148.6420 N   0  0  0  0  0  2  0  0  0  0  0  0
  161.8520  204.6830  147.3790 C   0  0  0  0  0  2  0  0  0  0  0  0
  160.8640  202.9210  152.1650 Cl  0  0  0  0  0  0  0  0  0  0  0  0
  160.8830  202.6870  150.4300 C   0  0  0  0  0  0  0  0  0  0  0  0
  161.3750  203.5300  148.2050 C   0  0  0  0  0  0  0  0  0  0  0  0
  160.4330  201.3100  148.4980 C   0  0  0  0  0  3  0  0  0  0  0  0
  160.9120  202.3130  147.6390 C   0  0  0  0  0  0  0  0  0  0  0  0
  160.4170  201.4940  149.8820 C   0  0  0  0  0  3  0  0  0  0  0  0
  161.3540  203.7000  149.5960 C   0  0  0  0  0  3  0  0  0  0  0  0
  160.9080  202.0420  146.1810 C   0  0  0  0  0  0  0  0  0  0  0  0
  160.9120  200.8540  145.7630 O   0  0  0  0  0  1  0  0  0  0  0  0
  160.9250  203.0750  145.2520 O   0  0  0  0  0  0  0  0  0  0  0  0
  1  4  1  0  0  0  0
  2  4  1  0  0  0  0
  3  8  2  0  0  0  0
  3  6  1  0  0  0  0
  4 15  1  1  0  0  0
  5  8  1  0  0  0  0
  6  1  2  0  0  0  0
  7  2  2  0  0  0  0
  8  7  1  0  0  0  0
  9 12  1  0  0  0  0
 10  9  2  0  0  0  0
 11 13  1  0  0  0  0
 12 16  1  1  0  0  0
 13 14  2  0  0  0  0
 14 12  1  0  0  0  0
 15 11  2  0  0  0  0
 15 10  1  0  0  0  0
 16 17  1  0  0  0  0
 16 19  1  0  0  0  0
 18 19  1  0  0  0  0
 19 20  1  0  0  0  0
 21 22  2  0  0  0  0
 22 23  1  0  0  0  0
 23  6  1  0  0  0  0
 24 22  1  0  0  0  0
 24 27  1  0  0  0  0
 26 25  1  0  0  0  0
 27 31  1  0  0  0  0
 28 30  2  0  0  0  0
 29 27  2  0  0  0  0
 29 28  1  0  0  0  0
 30 26  1  0  0  0  0
 31 26  2  0  0  0  0
 32 29  1  0  0  0  0
 33 32  1  0  0  0  0
 34 32  2  0  0  0  0
M  END
>  <MODEL>
1

>  <REMARK>
 VINA RESULT:      -8.7      0.000      0.000
  Name = 
  7 active torsions:
  status: ('A' for Active; 'I' for Inactive)
    1  A    between atoms: N_3  and  C_17
    2  A    between atoms: N_3  and  C_30
    3  A    between atoms: C_7  and  C_29
    4  A    between atoms: C_12  and  C_15
    5  A    between atoms: C_14  and  C_15
    6  A    between atoms: C_19  and  C_28
    7  A    between atoms: C_21  and  N_32
                            x       y       z     vdW  Elec       q    Type
                         _______ _______ _______ _____ _____    ______ ____

>  <TORSDO>
F 7

$$$$
=
 OpenBabel11072414163D

 34 36  0  0  1  0  0  0  0  0999 V2000
  161.0100  208.9460  152.3720 C   0  0  0  0  0  3  0  0  0  0  0  0
  161.5690  207.3860  154.2110 C   0  0  0  0  0  3  0  0  0  0  0  0
  160.0590  210.0550  154.3710 C   0  0  0  0  0  3  0  0  0  0  0  0
  160.8310  207.5680  152.9240 C   0  0  2  0  0  3  0  0  0  0  0  0
  159.6850  209.4170  156.5880 O   0  0  0  0  0  1  0  0  0  0  0  0
  160.6440  210.0610  153.0070 C   0  0  0  0  0  0  0  0  0  0  0  0
  161.3020  208.1030  155.3000 C   0  0  0  0  0  3  0  0  0  0  0  0
  160.3220  209.2040  155.3740 C   0  0  0  0  0  0  0  0  0  0  0  0
  161.7040  206.3060  149.4790 C   0  0  0  0  0  3  0  0  0  0  0  0
  161.8060  206.9800  150.6220 C   0  0  0  0  0  3  0  0  0  0  0  0
  161.1790  205.2560  152.3030 C   0  0  0  0  0  3  0  0  0  0  0  0
  160.9110  205.0390  149.3620 C   0  0  2  0  0  3  0  0  0  0  0  0
  161.5810  204.0790  151.5070 C   0  0  0  0  0  3  0  0  0  0  0  0
  161.5010  204.0060  150.2130 N   0  0  0  0  0  0  0  0  0  0  0  0
  161.2360  206.5380  151.9180 C   0  0  0  0  0  0  0  0  0  0  0  0
  160.8540  204.5840  147.9640 N   0  0  0  0  0  0  0  0  0  0  0  0
  161.4360  203.2440  147.8680 C   0  0  0  0  0  1  0  0  0  0  0  0
  162.7590  204.8660  146.3410 C   0  0  0  0  0  1  0  0  0  0  0  0
  161.5930  205.5140  147.0890 C   0  0  0  0  0  3  0  0  0  0  0  0
  160.6590  206.2210  146.1220 C   0  0  0  0  0  1  0  0  0  0  0  0
  158.5700  212.0710  152.3840 O   0  0  0  0  0  0  0  0  0  0  0  0
  159.7560  212.2520  152.0030 C   0  0  0  0  0  0  0  0  0  0  0  0
  160.7850  211.2930  152.2860 N   0  0  0  0  0  2  0  0  0  0  0  0
  160.0970  213.4940  151.2470 C   0  0  0  0  0  2  0  0  0  0  0  0
  155.7420  214.4530  148.5840 Cl  0  0  0  0  0  0  0  0  0  0  0  0
  157.4210  213.9620  148.6290 C   0  0  0  0  0  0  0  0  0  0  0  0
  159.4370  213.5010  149.9040 C   0  0  0  0  0  0  0  0  0  0  0  0
  159.4300  213.2640  147.4860 C   0  0  0  0  0  3  0  0  0  0  0  0
  160.1240  213.1750  148.7050 C   0  0  0  0  0  0  0  0  0  0  0  0
  158.0900  213.6550  147.4470 C   0  0  0  0  0  3  0  0  0  0  0  0
  158.0930  213.8900  149.8500 C   0  0  0  0  0  3  0  0  0  0  0  0
  161.5420  212.7430  148.6690 C   0  0  0  0  0  0  0  0  0  0  0  0
  162.4340  213.5460  148.2840 O   0  0  0  0  0  0  0  0  0  0  0  0
  161.9170  211.4550  149.0300 O   0  0  0  0  0  1  0  0  0  0  0  0
  1  4  1  0  0  0  0
  1  6  2  0  0  0  0
  2  7  2  0  0  0  0
  3  8  2  0  0  0  0
  4 15  1  6  0  0  0
  4  2  1  0  0  0  0
  6  3  1  0  0  0  0
  7  8  1  0  0  0  0
  8  5  1  0  0  0  0
  9 10  2  0  0  0  0
 10 15  1  0  0  0  0
 12 16  1  6  0  0  0
 12  9  1  0  0  0  0
 12 14  1  0  0  0  0
 13 11  1  0  0  0  0
 14 13  2  0  0  0  0
 15 11  2  0  0  0  0
 17 16  1  0  0  0  0
 18 19  1  0  0  0  0
 19 16  1  0  0  0  0
 20 19  1  0  0  0  0
 22 23  1  0  0  0  0
 22 21  2  0  0  0  0
 23  6  1  0  0  0  0
 24 22  1  0  0  0  0
 25 26  1  0  0  0  0
 26 31  1  0  0  0  0
 27 24  1  0  0  0  0
 28 29  2  0  0  0  0
 29 27  1  0  0  0  0
 30 28  1  0  0  0  0
 30 26  2  0  0  0  0
 31 27  2  0  0  0  0
 32 29  1  0  0  0  0
 32 34  1  0  0  0  0
 33 32  2  0  0  0  0
M  END
>  <MODEL>
2

>  <REMARK>
 VINA RESULT:      -8.7      4.095      8.969
  Name = 
  7 active torsions:
  status: ('A' for Active; 'I' for Inactive)
    1  A    between atoms: N_3  and  C_17
    2  A    between atoms: N_3  and  C_30
    3  A    between atoms: C_7  and  C_29
    4  A    between atoms: C_12  and  C_15
    5  A    between atoms: C_14  and  C_15
    6  A    between atoms: C_19  and  C_28
    7  A    between atoms: C_21  and  N_32
                            x       y       z     vdW  Elec       q    Type
                         _______ _______ _______ _____ _____    ______ ____

>  <TORSDO>
F 7

$$$$
=
 OpenBabel11072414163D

 34 36  0  0  1  0  0  0  0  0999 V2000
  160.9410  208.6820  151.9730 C   0  0  0  0  0  3  0  0  0  0  0  0
  161.6810  206.7920  153.3900 C   0  0  0  0  0  3  0  0  0  0  0  0
  160.0790  209.2800  154.2150 C   0  0  0  0  0  3  0  0  0  0  0  0
  160.8530  207.2100  152.2180 C   0  0  2  0  0  3  0  0  0  0  0  0
  159.8770  208.1580  156.2560 O   0  0  0  0  0  1  0  0  0  0  0  0
  160.5730  209.6120  152.8550 C   0  0  0  0  0  0  0  0  0  0  0  0
  161.4570  207.2410  154.6240 C   0  0  0  0  0  3  0  0  0  0  0  0
  160.4410  208.2470  154.9910 C   0  0  0  0  0  0  0  0  0  0  0  0
  162.1860  206.8040  148.7130 C   0  0  0  0  0  3  0  0  0  0  0  0
  162.1720  207.0560  150.0200 C   0  0  0  0  0  3  0  0  0  0  0  0
  160.7940  205.1810  150.9000 C   0  0  0  0  0  3  0  0  0  0  0  0
  161.1720  205.9160  148.0570 C   0  0  2  0  0  3  0  0  0  0  0  0
  161.0880  204.2220  149.8160 C   0  0  0  0  0  3  0  0  0  0  0  0
  161.2950  204.5560  148.5780 N   0  0  0  0  0  0  0  0  0  0  0  0
  161.2320  206.4450  150.9890 C   0  0  0  0  0  0  0  0  0  0  0  0
  161.3370  205.9240  146.5940 N   0  0  0  0  0  0  0  0  0  0  0  0
  160.0480  206.2170  145.9650 C   0  0  0  0  0  1  0  0  0  0  0  0
  161.0210  204.0180  144.9790 C   0  0  0  0  0  1  0  0  0  0  0  0
  161.8370  204.6170  146.1260 C   0  0  0  0  0  3  0  0  0  0  0  0
  163.3090  204.6900  145.7590 C   0  0  0  0  0  1  0  0  0  0  0  0
  158.3210  211.4690  152.4060 O   0  0  0  0  0  0  0  0  0  0  0  0
  159.5030  211.8550  152.2100 C   0  0  0  0  0  0  0  0  0  0  0  0
  160.6180  210.9760  152.4150 N   0  0  0  0  0  2  0  0  0  0  0  0
  159.7460  213.2590  151.7620 C   0  0  0  0  0  2  0  0  0  0  0  0
  162.3000  212.8660  147.2560 Cl  0  0  0  0  0  0  0  0  0  0  0  0
  160.8250  213.1680  148.1480 C   0  0  0  0  0  0  0  0  0  0  0  0
  159.6620  213.3670  150.2720 C   0  0  0  0  0  0  0  0  0  0  0  0
  158.4650  213.6780  148.1810 C   0  0  0  0  0  3  0  0  0  0  0  0
  158.4520  213.6520  149.5860 C   0  0  0  0  0  0  0  0  0  0  0  0
  159.6400  213.4370  147.4670 C   0  0  0  0  0  3  0  0  0  0  0  0
  160.8340  213.1280  149.5420 C   0  0  0  0  0  3  0  0  0  0  0  0
  157.1690  213.9270  150.2760 C   0  0  0  0  0  0  0  0  0  0  0  0
  156.0780  213.7070  149.6860 O   0  0  0  0  0  0  0  0  0  0  0  0
  157.1350  214.4500  151.5630 O   0  0  0  0  0  1  0  0  0  0  0  0
  1  4  1  0  0  0  0
  1  6  2  0  0  0  0
  2  7  2  0  0  0  0
  3  8  2  0  0  0  0
  4 15  1  6  0  0  0
  4  2  1  0  0  0  0
  6  3  1  0  0  0  0
  7  8  1  0  0  0  0
  8  5  1  0  0  0  0
  9 10  2  0  0  0  0
 10 15  1  0  0  0  0
 11 15  2  0  0  0  0
 12 16  1  6  0  0  0
 12 14  1  0  0  0  0
 12  9  1  0  0  0  0
 13 11  1  0  0  0  0
 14 13  2  0  0  0  0
 17 16  1  0  0  0  0
 18 19  1  0  0  0  0
 19 16  1  0  0  0  0
 20 19  1  0  0  0  0
 22 21  2  0  0  0  0
 22 23  1  0  0  0  0
 23  6  1  0  0  0  0
 24 22  1  0  0  0  0
 25 26  1  0  0  0  0
 26 31  1  0  0  0  0
 27 24  1  0  0  0  0
 28 29  2  0  0  0  0
 29 27  1  0  0  0  0
 29 32  1  0  0  0  0
 30 26  2  0  0  0  0
 30 28  1  0  0  0  0
 31 27  2  0  0  0  0
 32 34  1  0  0  0  0
 33 32  2  0  0  0  0
M  END
>  <MODEL>
3

>  <REMARK>
 VINA RESULT:      -8.3      4.508      9.393
  Name = 
  7 active torsions:
  status: ('A' for Active; 'I' for Inactive)
    1  A    between atoms: N_3  and  C_17
    2  A    between atoms: N_3  and  C_30
    3  A    between atoms: C_7  and  C_29
    4  A    between atoms: C_12  and  C_15
    5  A    between atoms: C_14  and  C_15
    6  A    between atoms: C_19  and  C_28
    7  A    between atoms: C_21  and  N_32
                            x       y       z     vdW  Elec       q    Type
                         _______ _______ _______ _____ _____    ______ ____

>  <TORSDO>
F 7

$$$$
=
 OpenBabel11072414163D

 34 36  0  0  1  0  0  0  0  0999 V2000
  160.8480  208.3400  151.3470 C   0  0  0  0  0  3  0  0  0  0  0  0
  161.8550  206.2960  152.3150 C   0  0  0  0  0  3  0  0  0  0  0  0
  160.7610  208.7610  153.7850 C   0  0  0  0  0  3  0  0  0  0  0  0
  160.7370  206.8570  151.4950 C   0  0  2  0  0  3  0  0  0  0  0  0
  161.1180  207.4620  155.6960 O   0  0  0  0  0  1  0  0  0  0  0  0
  160.8350  209.1980  152.3690 C   0  0  0  0  0  0  0  0  0  0  0  0
  162.0520  206.6370  153.5870 C   0  0  0  0  0  3  0  0  0  0  0  0
  161.2700  207.6450  154.3280 C   0  0  0  0  0  0  0  0  0  0  0  0
  160.7030  203.9260  149.1210 C   0  0  0  0  0  3  0  0  0  0  0  0
  160.3010  204.7610  150.0770 C   0  0  0  0  0  3  0  0  0  0  0  0
  160.8130  206.9820  149.0800 C   0  0  0  0  0  3  0  0  0  0  0  0
  161.6600  204.3400  148.0440 C   0  0  2  0  0  3  0  0  0  0  0  0
  160.7230  206.5660  147.6660 C   0  0  0  0  0  3  0  0  0  0  0  0
  161.0570  205.3900  147.2240 N   0  0  0  0  0  0  0  0  0  0  0  0
  160.6660  206.1950  150.1550 C   0  0  0  0  0  0  0  0  0  0  0  0
  162.0390  203.1890  147.2090 N   0  0  0  0  0  0  0  0  0  0  0  0
  162.2480  203.6400  145.8310 C   0  0  0  0  0  1  0  0  0  0  0  0
  160.4880  201.7340  145.8600 C   0  0  0  0  0  1  0  0  0  0  0  0
  160.9840  202.1590  147.2440 C   0  0  0  0  0  3  0  0  0  0  0  0
  161.4210  200.9500  148.0530 C   0  0  0  0  0  1  0  0  0  0  0  0
  158.6870  211.1830  152.7830 O   0  0  0  0  0  0  0  0  0  0  0  0
  159.7760  211.5350  152.2600 C   0  0  0  0  0  0  0  0  0  0  0  0
  160.8370  210.5950  152.0420 N   0  0  0  0  0  2  0  0  0  0  0  0
  159.9670  212.9640  151.8670 C   0  0  0  0  0  2  0  0  0  0  0  0
  155.2090  214.0510  150.0900 Cl  0  0  0  0  0  0  0  0  0  0  0  0
  156.9240  213.8380  149.8150 C   0  0  0  0  0  0  0  0  0  0  0  0
  159.1350  213.3050  150.6710 C   0  0  0  0  0  0  0  0  0  0  0  0
  158.8270  213.8700  148.3290 C   0  0  0  0  0  3  0  0  0  0  0  0
  159.6860  213.4980  149.3770 C   0  0  0  0  0  0  0  0  0  0  0  0
  157.4580  214.0400  148.5440 C   0  0  0  0  0  3  0  0  0  0  0  0
  157.7600  213.4780  150.8730 C   0  0  0  0  0  3  0  0  0  0  0  0
  161.1270  213.3260  149.0700 C   0  0  0  0  0  0  0  0  0  0  0  0
  161.8470  214.3360  148.8530 O   0  0  0  0  0  0  0  0  0  0  0  0
  161.7060  212.0660  148.9920 O   0  0  0  0  0  1  0  0  0  0  0  0
  1  4  1  0  0  0  0
  1  6  2  0  0  0  0
  2  7  2  0  0  0  0
  3  8  2  0  0  0  0
  4 15  1  6  0  0  0
  4  2  1  0  0  0  0
  6  3  1  0  0  0  0
  7  8  1  0  0  0  0
  8  5  1  0  0  0  0
  9 10  2  0  0  0  0
 10 15  1  0  0  0  0
 11 15  2  0  0  0  0
 12 16  1  6  0  0  0
 12  9  1  0  0  0  0
 13 11  1  0  0  0  0
 14 13  2  0  0  0  0
 14 12  1  0  0  0  0
 16 19  1  0  0  0  0
 17 16  1  0  0  0  0
 18 19  1  0  0  0  0
 19 20  1  0  0  0  0
 22 21  2  0  0  0  0
 23 22  1  0  0  0  0
 23  6  1  0  0  0  0
 24 22  1  0  0  0  0
 26 25  1  0  0  0  0
 26 31  1  0  0  0  0
 27 31  2  0  0  0  0
 27 24  1  0  0  0  0
 28 30  1  0  0  0  0
 28 29  2  0  0  0  0
 29 27  1  0  0  0  0
 30 26  2  0  0  0  0
 32 29  1  0  0  0  0
 33 32  2  0  0  0  0
 34 32  1  0  0  0  0
M  END
>  <MODEL>
4

>  <REMARK>
 VINA RESULT:      -8.3      4.249      9.567
  Name = 
  7 active torsions:
  status: ('A' for Active; 'I' for Inactive)
    1  A    between atoms: N_3  and  C_17
    2  A    between atoms: N_3  and  C_30
    3  A    between atoms: C_7  and  C_29
    4  A    between atoms: C_12  and  C_15
    5  A    between atoms: C_14  and  C_15
    6  A    between atoms: C_19  and  C_28
    7  A    between atoms: C_21  and  N_32
                            x       y       z     vdW  Elec       q    Type
                         _______ _______ _______ _____ _____    ______ ____

>  <TORSDO>
F 7

$$$$
=
 OpenBabel11072414163D

 34 36  0  0  1  0  0  0  0  0999 V2000
  162.0040  209.7770  148.7120 C   0  0  0  0  0  3  0  0  0  0  0  0
  160.9660  211.2760  150.3870 C   0  0  0  0  0  3  0  0  0  0  0  0
  162.4100  208.6060  150.8560 C   0  0  0  0  0  3  0  0  0  0  0  0
  162.0180  211.1370  149.3340 C   0  0  2  0  0  3  0  0  0  0  0  0
  162.1830  209.1720  153.1120 O   0  0  0  0  0  1  0  0  0  0  0  0
  162.2030  208.6430  149.3860 C   0  0  0  0  0  0  0  0  0  0  0  0
  160.9460  210.5240  151.4860 C   0  0  0  0  0  3  0  0  0  0  0  0
  161.8840  209.4240  151.7800 C   0  0  0  0  0  0  0  0  0  0  0  0
  160.6060  212.6960  146.2040 C   0  0  0  0  0  3  0  0  0  0  0  0
  160.6590  212.2300  147.4500 C   0  0  0  0  0  3  0  0  0  0  0  0
  162.8240  213.1490  148.2600 C   0  0  0  0  0  3  0  0  0  0  0  0
  161.8250  213.1720  145.4720 C   0  0  2  0  0  3  0  0  0  0  0  0
  162.8660  214.3210  147.3620 C   0  0  0  0  0  3  0  0  0  0  0  0
  162.3880  214.3370  146.1540 N   0  0  0  0  0  0  0  0  0  0  0  0
  161.8810  212.1980  148.2890 C   0  0  0  0  0  0  0  0  0  0  0  0
  161.5030  213.4990  144.0740 N   0  0  0  0  0  0  0  0  0  0  0  0
  160.2770  212.8000  143.6850 C   0  0  0  0  0  1  0  0  0  0  0  0
  162.1840  212.1710  142.0440 C   0  0  0  0  0  1  0  0  0  0  0  0
  162.6110  213.0980  143.1840 C   0  0  0  0  0  3  0  0  0  0  0  0
  163.3490  214.3110  142.6440 C   0  0  0  0  0  1  0  0  0  0  0  0
  160.0830  206.6360  148.9350 O   0  0  0  0  0  0  0  0  0  0  0  0
  161.2180  206.4810  148.4120 C   0  0  0  0  0  0  0  0  0  0  0  0
  162.2690  207.4350  148.6160 N   0  0  0  0  0  2  0  0  0  0  0  0
  161.4680  205.2820  147.5580 C   0  0  0  0  0  2  0  0  0  0  0  0
  160.8610  203.1500  152.2550 Cl  0  0  0  0  0  0  0  0  0  0  0  0
  160.9380  202.9980  150.5140 C   0  0  0  0  0  0  0  0  0  0  0  0
  161.2470  204.0200  148.3310 C   0  0  0  0  0  0  0  0  0  0  0  0
  160.8040  201.6390  148.5220 C   0  0  0  0  0  3  0  0  0  0  0  0
  161.0600  202.7560  147.7110 C   0  0  0  0  0  0  0  0  0  0  0  0
  160.7430  201.7570  149.9120 C   0  0  0  0  0  3  0  0  0  0  0  0
  161.1840  204.1230  149.7270 C   0  0  0  0  0  3  0  0  0  0  0  0
  161.1210  202.5530  146.2420 C   0  0  0  0  0  0  0  0  0  0  0  0
  161.8440  203.3030  145.5340 O   0  0  0  0  0  0  0  0  0  0  0  0
  160.3750  201.5620  145.6170 O   0  0  0  0  0  1  0  0  0  0  0  0
  1  4  1  0  0  0  0
  1  6  2  0  0  0  0
  2  7  2  0  0  0  0
  3  8  2  0  0  0  0
  4 15  1  6  0  0  0
  4  2  1  0  0  0  0
  6  3  1  0  0  0  0
  7  8  1  0  0  0  0
  8  5  1  0  0  0  0
  9 10  2  0  0  0  0
 10 15  1  0  0  0  0
 11 15  2  0  0  0  0
 12 16  1  6  0  0  0
 12 14  1  0  0  0  0
 12  9  1  0  0  0  0
 13 11  1  0  0  0  0
 14 13  2  0  0  0  0
 17 16  1  0  0  0  0
 18 19  1  0  0  0  0
 19 16  1  0  0  0  0
 20 19  1  0  0  0  0
 22 23  1  0  0  0  0
 22 21  2  0  0  0  0
 23  6  1  0  0  0  0
 24 27  1  0  0  0  0
 24 22  1  0  0  0  0
 26 25  1  0  0  0  0
 27 31  1  0  0  0  0
 28 30  2  0  0  0  0
 29 27  2  0  0  0  0
 29 28  1  0  0  0  0
 30 26  1  0  0  0  0
 31 26  2  0  0  0  0
 32 29  1  0  0  0  0
 33 32  2  0  0  0  0
 34 32  1  0  0  0  0
M  END
>  <MODEL>
5

>  <REMARK>
 VINA RESULT:      -8.3      3.452      6.961
  Name = 
  7 active torsions:
  status: ('A' for Active; 'I' for Inactive)
    1  A    between atoms: N_3  and  C_17
    2  A    between atoms: N_3  and  C_30
    3  A    between atoms: C_7  and  C_29
    4  A    between atoms: C_12  and  C_15
    5  A    between atoms: C_14  and  C_15
    6  A    between atoms: C_19  and  C_28
    7  A    between atoms: C_21  and  N_32
                            x       y       z     vdW  Elec       q    Type
                         _______ _______ _______ _____ _____    ______ ____

>  <TORSDO>
F 7

$$$$
=
 OpenBabel11072414163D

 34 36  0  0  1  0  0  0  0  0999 V2000
  160.8620  209.1680  152.3970 C   0  0  0  0  0  3  0  0  0  0  0  0
  161.4850  207.6380  154.2400 C   0  0  0  0  0  3  0  0  0  0  0  0
  159.8840  210.2550  154.3960 C   0  0  0  0  0  3  0  0  0  0  0  0
  160.7330  207.7880  152.9570 C   0  0  2  0  0  3  0  0  0  0  0  0
  159.5450  209.6160  156.6180 O   0  0  0  0  0  1  0  0  0  0  0  0
  160.4610  210.2740  153.0280 C   0  0  0  0  0  0  0  0  0  0  0  0
  161.1990  208.3510  155.3270 C   0  0  0  0  0  3  0  0  0  0  0  0
  160.1820  209.4180  155.4010 C   0  0  0  0  0  0  0  0  0  0  0  0
  161.6310  206.5390  149.5130 C   0  0  0  0  0  3  0  0  0  0  0  0
  161.7160  207.2220  150.6530 C   0  0  0  0  0  3  0  0  0  0  0  0
  161.1560  205.4860  152.3450 C   0  0  0  0  0  3  0  0  0  0  0  0
  160.8800  205.2460  149.4060 C   0  0  2  0  0  3  0  0  0  0  0  0
  161.5930  204.3190  151.5520 C   0  0  0  0  0  3  0  0  0  0  0  0
  161.5090  204.2380  150.2580 N   0  0  0  0  0  0  0  0  0  0  0  0
  161.1670  206.7680  151.9530 C   0  0  0  0  0  0  0  0  0  0  0  0
  160.8310  204.7820  148.0100 N   0  0  0  0  0  0  0  0  0  0  0  0
  161.4910  203.4790  147.9110 C   0  0  0  0  0  1  0  0  0  0  0  0
  162.7600  205.2020  146.4450 C   0  0  0  0  0  1  0  0  0  0  0  0
  161.5030  205.7510  147.1230 C   0  0  0  0  0  3  0  0  0  0  0  0
  160.5400  206.3140  146.0930 C   0  0  0  0  0  1  0  0  0  0  0  0
  158.3190  212.2120  152.4140 O   0  0  0  0  0  0  0  0  0  0  0  0
  159.4950  212.4290  152.0220 C   0  0  0  0  0  0  0  0  0  0  0  0
  160.5560  211.5060  152.3000 N   0  0  0  0  0  2  0  0  0  0  0  0
  159.7880  213.6790  151.2580 C   0  0  0  0  0  2  0  0  0  0  0  0
  163.2920  212.3320  147.6670 Cl  0  0  0  0  0  0  0  0  0  0  0  0
  161.6470  212.7250  148.1160 C   0  0  0  0  0  0  0  0  0  0  0  0
  160.0340  213.3760  149.8130 C   0  0  0  0  0  0  0  0  0  0  0  0
  159.3240  213.0060  147.5200 C   0  0  0  0  0  3  0  0  0  0  0  0
  159.0000  213.3550  148.8410 C   0  0  0  0  0  0  0  0  0  0  0  0
  160.6360  212.6920  147.1580 C   0  0  0  0  0  3  0  0  0  0  0  0
  161.3460  213.0600  149.4360 C   0  0  0  0  0  3  0  0  0  0  0  0
  157.5870  213.6850  149.1480 C   0  0  0  0  0  0  0  0  0  0  0  0
  156.6680  213.2880  148.3830 O   0  0  0  0  0  0  0  0  0  0  0  0
  157.2460  214.4510  150.2560 O   0  0  0  0  0  1  0  0  0  0  0  0
  1  4  1  0  0  0  0
  1  6  2  0  0  0  0
  2  7  2  0  0  0  0
  3  8  2  0  0  0  0
  4 15  1  6  0  0  0
  4  2  1  0  0  0  0
  6  3  1  0  0  0  0
  7  8  1  0  0  0  0
  8  5  1  0  0  0  0
  9 10  2  0  0  0  0
 10 15  1  0  0  0  0
 12 16  1  6  0  0  0
 12  9  1  0  0  0  0
 12 14  1  0  0  0  0
 13 11  1  0  0  0  0
 14 13  2  0  0  0  0
 15 11  2  0  0  0  0
 17 16  1  0  0  0  0
 18 19  1  0  0  0  0
 19 16  1  0  0  0  0
 20 19  1  0  0  0  0
 22 23  1  0  0  0  0
 22 21  2  0  0  0  0
 23  6  1  0  0  0  0
 24 22  1  0  0  0  0
 25 26  1  0  0  0  0
 26 31  1  0  0  0  0
 27 24  1  0  0  0  0
 28 29  2  0  0  0  0
 29 32  1  0  0  0  0
 29 27  1  0  0  0  0
 30 28  1  0  0  0  0
 30 26  2  0  0  0  0
 31 27  2  0  0  0  0
 32 34  1  0  0  0  0
 33 32  2  0  0  0  0
M  END
>  <MODEL>
6

>  <REMARK>
 VINA RESULT:      -8.3      4.448      8.907
  Name = 
  7 active torsions:
  status: ('A' for Active; 'I' for Inactive)
    1  A    between atoms: N_3  and  C_17
    2  A    between atoms: N_3  and  C_30
    3  A    between atoms: C_7  and  C_29
    4  A    between atoms: C_12  and  C_15
    5  A    between atoms: C_14  and  C_15
    6  A    between atoms: C_19  and  C_28
    7  A    between atoms: C_21  and  N_32
                            x       y       z     vdW  Elec       q    Type
                         _______ _______ _______ _____ _____    ______ ____

>  <TORSDO>
F 7

$$$$
=
 OpenBabel11072414163D

 34 36  0  0  1  0  0  0  0  0999 V2000
  160.9600  209.0570  151.4380 C   0  0  0  0  0  3  0  0  0  0  0  0
  160.6040  211.0660  152.8400 C   0  0  0  0  0  3  0  0  0  0  0  0
  161.2940  208.2120  153.7410 C   0  0  0  0  0  3  0  0  0  0  0  0
  161.4320  210.4370  151.7660 C   0  0  2  0  0  3  0  0  0  0  0  0
  161.5230  209.2060  155.8440 O   0  0  0  0  0  1  0  0  0  0  0  0
  160.9190  208.0510  152.3140 C   0  0  0  0  0  0  0  0  0  0  0  0
  160.5150  210.5590  154.0680 C   0  0  0  0  0  3  0  0  0  0  0  0
  161.1400  209.2980  154.5140 C   0  0  0  0  0  0  0  0  0  0  0  0
  160.2730  213.2230  149.5030 C   0  0  0  0  0  3  0  0  0  0  0  0
  160.8010  212.6170  150.5640 C   0  0  0  0  0  3  0  0  0  0  0  0
  162.2100  210.8560  149.5140 C   0  0  0  0  0  3  0  0  0  0  0  0
  160.2180  212.5730  148.1530 C   0  0  2  0  0  3  0  0  0  0  0  0
  162.4370  211.5530  148.2320 C   0  0  0  0  0  3  0  0  0  0  0  0
  161.5750  212.3400  147.6610 N   0  0  0  0  0  0  0  0  0  0  0  0
  161.4630  211.2910  150.5380 C   0  0  0  0  0  0  0  0  0  0  0  0
  159.4610  213.4040  147.2020 N   0  0  0  0  0  0  0  0  0  0  0  0
  158.4810  214.2060  147.9360 C   0  0  0  0  0  1  0  0  0  0  0  0
  157.2460  212.6100  146.3050 C   0  0  0  0  0  1  0  0  0  0  0  0
  158.7720  212.5540  146.2120 C   0  0  0  0  0  3  0  0  0  0  0  0
  159.2370  212.8650  144.8010 C   0  0  0  0  0  1  0  0  0  0  0  0
  162.6010  205.6410  152.0120 O   0  0  0  0  0  0  0  0  0  0  0  0
  161.3880  205.6090  151.6740 C   0  0  0  0  0  0  0  0  0  0  0  0
  160.5470  206.7630  151.8040 N   0  0  0  0  0  2  0  0  0  0  0  0
  160.8160  204.3390  151.1340 C   0  0  0  0  0  2  0  0  0  0  0  0
  162.1690  206.8480  146.7920 Cl  0  0  0  0  0  0  0  0  0  0  0  0
  161.6940  205.3790  147.6150 C   0  0  0  0  0  0  0  0  0  0  0  0
  161.0430  204.2360  149.6590 C   0  0  0  0  0  0  0  0  0  0  0  0
  161.2190  203.0110  147.5680 C   0  0  0  0  0  3  0  0  0  0  0  0
  160.9320  203.0150  148.9430 C   0  0  0  0  0  0  0  0  0  0  0  0
  161.5980  204.1820  146.9080 C   0  0  0  0  0  3  0  0  0  0  0  0
  161.4230  205.4030  148.9830 C   0  0  0  0  0  3  0  0  0  0  0  0
  160.5270  201.7350  149.5740 C   0  0  0  0  0  0  0  0  0  0  0  0
  159.3410  201.3260  149.4580 O   0  0  0  0  0  0  0  0  0  0  0  0
  161.4220  200.9790  150.3190 O   0  0  0  0  0  1  0  0  0  0  0  0
  1  4  1  0  0  0  0
  1  6  2  0  0  0  0
  2  7  2  0  0  0  0
  3  8  2  0  0  0  0
  4 15  1  6  0  0  0
  4  2  1  0  0  0  0
  6  3  1  0  0  0  0
  7  8  1  0  0  0  0
  8  5  1  0  0  0  0
  9 10  2  0  0  0  0
 11 15  2  0  0  0  0
 12 16  1  6  0  0  0
 12  9  1  0  0  0  0
 13 11  1  0  0  0  0
 14 12  1  0  0  0  0
 14 13  2  0  0  0  0
 15 10  1  0  0  0  0
 16 17  1  0  0  0  0
 19 18  1  0  0  0  0
 19 16  1  0  0  0  0
 20 19  1  0  0  0  0
 22 23  1  0  0  0  0
 22 21  2  0  0  0  0
 23  6  1  0  0  0  0
 24 22  1  0  0  0  0
 25 26  1  0  0  0  0
 26 31  1  0  0  0  0
 27 24  1  0  0  0  0
 28 29  2  0  0  0  0
 29 32  1  0  0  0  0
 29 27  1  0  0  0  0
 30 28  1  0  0  0  0
 30 26  2  0  0  0  0
 31 27  2  0  0  0  0
 32 34  1  0  0  0  0
 33 32  2  0  0  0  0
M  END
>  <MODEL>
7

>  <REMARK>
 VINA RESULT:      -8.1      3.550      6.270
  Name = 
  7 active torsions:
  status: ('A' for Active; 'I' for Inactive)
    1  A    between atoms: N_3  and  C_17
    2  A    between atoms: N_3  and  C_30
    3  A    between atoms: C_7  and  C_29
    4  A    between atoms: C_12  and  C_15
    5  A    between atoms: C_14  and  C_15
    6  A    between atoms: C_19  and  C_28
    7  A    between atoms: C_21  and  N_32
                            x       y       z     vdW  Elec       q    Type
                         _______ _______ _______ _____ _____    ______ ____

>  <TORSDO>
F 7

$$$$
=
 OpenBabel11072414163D

 34 36  0  0  1  0  0  0  0  0999 V2000
  161.8560  208.8790  149.9000 C   0  0  0  0  0  3  0  0  0  0  0  0
  160.6840  210.1480  151.6720 C   0  0  0  0  0  3  0  0  0  0  0  0
  161.9960  207.3780  151.8640 C   0  0  0  0  0  3  0  0  0  0  0  0
  161.8390  210.1260  150.7240 C   0  0  2  0  0  3  0  0  0  0  0  0
  161.5420  207.6030  154.1460 O   0  0  0  0  0  1  0  0  0  0  0  0
  161.9500  207.6480  150.4050 C   0  0  0  0  0  0  0  0  0  0  0  0
  160.5250  209.2400  152.6330 C   0  0  0  0  0  3  0  0  0  0  0  0
  161.3960  208.0670  152.8460 C   0  0  0  0  0  0  0  0  0  0  0  0
  160.4130  213.2950  149.2580 C   0  0  0  0  0  3  0  0  0  0  0  0
  160.9190  212.4560  150.1590 C   0  0  0  0  0  3  0  0  0  0  0  0
  162.7880  211.4010  148.9000 C   0  0  0  0  0  3  0  0  0  0  0  0
  160.6650  213.1410  147.7880 C   0  0  2  0  0  3  0  0  0  0  0  0
  163.0220  212.5180  147.9620 C   0  0  0  0  0  3  0  0  0  0  0  0
  162.0910  213.3050  147.5110 N   0  0  0  0  0  0  0  0  0  0  0  0
  161.8440  211.3390  149.8490 C   0  0  0  0  0  0  0  0  0  0  0  0
  159.8760  214.1150  147.0160 N   0  0  0  0  0  0  0  0  0  0  0  0
  158.6580  214.4460  147.7590 C   0  0  0  0  0  1  0  0  0  0  0  0
  158.0470  213.7340  145.3270 C   0  0  0  0  0  1  0  0  0  0  0  0
  159.5210  213.5580  145.6970 C   0  0  0  0  0  3  0  0  0  0  0  0
  160.4190  214.1150  144.6050 C   0  0  0  0  0  1  0  0  0  0  0  0
  159.8830  206.5570  148.5980 O   0  0  0  0  0  0  0  0  0  0  0  0
  161.0420  206.0660  148.5980 C   0  0  0  0  0  0  0  0  0  0  0  0
  162.0660  206.5700  149.4660 N   0  0  0  0  0  2  0  0  0  0  0  0
  161.3550  204.9390  147.6680 C   0  0  0  0  0  2  0  0  0  0  0  0
  160.9080  202.4460  152.2030 Cl  0  0  0  0  0  0  0  0  0  0  0  0
  160.9350  202.4290  150.4540 C   0  0  0  0  0  0  0  0  0  0  0  0
  161.1700  203.6190  148.3480 C   0  0  0  0  0  0  0  0  0  0  0  0
  160.7580  201.2250  148.3680 C   0  0  0  0  0  3  0  0  0  0  0  0
  160.9780  202.4040  147.6380 C   0  0  0  0  0  0  0  0  0  0  0  0
  160.7360  201.2350  149.7640 C   0  0  0  0  0  3  0  0  0  0  0  0
  161.1460  203.6140  149.7480 C   0  0  0  0  0  3  0  0  0  0  0  0
  160.9980  202.3150  146.1570 C   0  0  0  0  0  0  0  0  0  0  0  0
  160.1520  201.5960  145.5600 O   0  0  0  0  0  1  0  0  0  0  0  0
  161.9490  202.9890  145.4030 O   0  0  0  0  0  0  0  0  0  0  0  0
  1  6  2  0  0  0  0
  1  4  1  0  0  0  0
  2  7  2  0  0  0  0
  3  8  2  0  0  0  0
  4 15  1  6  0  0  0
  4  2  1  0  0  0  0
  6  3  1  0  0  0  0
  7  8  1  0  0  0  0
  8  5  1  0  0  0  0
  9 10  2  0  0  0  0
 11 15  2  0  0  0  0
 12 16  1  6  0  0  0
 12  9  1  0  0  0  0
 13 11  1  0  0  0  0
 14 12  1  0  0  0  0
 14 13  2  0  0  0  0
 15 10  1  0  0  0  0
 16 17  1  0  0  0  0
 18 19  1  0  0  0  0
 19 16  1  0  0  0  0
 20 19  1  0  0  0  0
 21 22  2  0  0  0  0
 22 23  1  0  0  0  0
 23  6  1  0  0  0  0
 24 27  1  0  0  0  0
 24 22  1  0  0  0  0
 26 25  1  0  0  0  0
 27 31  1  0  0  0  0
 28 30  2  0  0  0  0
 29 27  2  0  0  0  0
 29 28  1  0  0  0  0
 30 26  1  0  0  0  0
 31 26  2  0  0  0  0
 32 29  1  0  0  0  0
 33 32  1  0  0  0  0
 34 32  2  0  0  0  0
M  END
>  <MODEL>
8

>  <REMARK>
 VINA RESULT:      -7.7      3.006      5.852
  Name = 
  7 active torsions:
  status: ('A' for Active; 'I' for Inactive)
    1  A    between atoms: N_3  and  C_17
    2  A    between atoms: N_3  and  C_30
    3  A    between atoms: C_7  and  C_29
    4  A    between atoms: C_12  and  C_15
    5  A    between atoms: C_14  and  C_15
    6  A    between atoms: C_19  and  C_28
    7  A    between atoms: C_21  and  N_32
                            x       y       z     vdW  Elec       q    Type
                         _______ _______ _______ _____ _____    ______ ____

>  <TORSDO>
F 7

$$$$
=
 OpenBabel11072414163D

 34 36  0  0  1  0  0  0  0  0999 V2000
  160.6470  210.3840  152.3320 C   0  0  0  0  0  3  0  0  0  0  0  0
  160.8230  209.6650  154.6940 C   0  0  0  0  0  3  0  0  0  0  0  0
  159.2880  212.0630  153.5420 C   0  0  0  0  0  3  0  0  0  0  0  0
  160.3680  209.2960  153.3190 C   0  0  2  0  0  3  0  0  0  0  0  0
  158.4630  212.2560  155.7200 O   0  0  0  0  0  1  0  0  0  0  0  0
  160.1450  211.6170  152.4150 C   0  0  0  0  0  0  0  0  0  0  0  0
  160.3270  210.7060  155.3590 C   0  0  0  0  0  3  0  0  0  0  0  0
  159.3420  211.6670  154.8220 C   0  0  0  0  0  0  0  0  0  0  0  0
  161.9240  206.9230  150.8330 C   0  0  0  0  0  3  0  0  0  0  0  0
  161.7860  207.9830  151.6260 C   0  0  0  0  0  3  0  0  0  0  0  0
  160.8830  206.9640  153.7090 C   0  0  0  0  0  3  0  0  0  0  0  0
  161.1980  205.6350  151.0810 C   0  0  2  0  0  3  0  0  0  0  0  0
  161.4590  205.6190  153.5110 C   0  0  0  0  0  3  0  0  0  0  0  0
  161.6340  205.0590  152.3520 N   0  0  0  0  0  0  0  0  0  0  0  0
  160.9850  208.0070  152.8740 C   0  0  0  0  0  0  0  0  0  0  0  0
  161.4240  204.6860  149.9800 N   0  0  0  0  0  0  0  0  0  0  0  0
  161.0390  205.3140  148.7140 C   0  0  0  0  0  1  0  0  0  0  0  0
  160.4560  202.6120  148.9270 C   0  0  0  0  0  1  0  0  0  0  0  0
  160.6330  203.4570  150.1890 C   0  0  0  0  0  3  0  0  0  0  0  0
  161.2060  202.6210  151.3200 C   0  0  0  0  0  1  0  0  0  0  0  0
  158.2480  213.2600  150.8570 O   0  0  0  0  0  0  0  0  0  0  0  0
  159.4770  213.2930  150.5880 C   0  0  0  0  0  0  0  0  0  0  0  0
  160.4230  212.5040  151.3230 N   0  0  0  0  0  2  0  0  0  0  0  0
  159.9580  214.1790  149.4850 C   0  0  0  0  0  2  0  0  0  0  0  0
  156.4790  213.9260  145.6360 Cl  0  0  0  0  0  0  0  0  0  0  0  0
  158.0250  213.4760  146.3220 C   0  0  0  0  0  0  0  0  0  0  0  0
  159.6230  213.5950  148.1480 C   0  0  0  0  0  0  0  0  0  0  0  0
  160.1280  212.3020  146.1550 C   0  0  0  0  0  3  0  0  0  0  0  0
  160.5120  212.7550  147.4280 C   0  0  0  0  0  0  0  0  0  0  0  0
  158.8950  212.6590  145.6050 C   0  0  0  0  0  3  0  0  0  0  0  0
  158.3900  213.9450  147.5840 C   0  0  0  0  0  3  0  0  0  0  0  0
  161.8320  212.3260  147.9520 C   0  0  0  0  0  0  0  0  0  0  0  0
  161.9560  211.1930  148.4900 O   0  0  0  0  0  1  0  0  0  0  0  0
  162.9430  213.1570  147.8860 O   0  0  0  0  0  0  0  0  0  0  0  0
  1  6  2  0  0  0  0
  1  4  1  0  0  0  0
  2  7  2  0  0  0  0
  3  8  2  0  0  0  0
  4 15  1  6  0  0  0
  4  2  1  0  0  0  0
  6  3  1  0  0  0  0
  8  7  1  0  0  0  0
  8  5  1  0  0  0  0
  9 12  1  0  0  0  0
  9 10  2  0  0  0  0
 10 15  1  0  0  0  0
 12 16  1  6  0  0  0
 12 14  1  0  0  0  0
 13 11  1  0  0  0  0
 14 13  2  0  0  0  0
 15 11  2  0  0  0  0
 16 19  1  0  0  0  0
 17 16  1  0  0  0  0
 18 19  1  0  0  0  0
 19 20  1  0  0  0  0
 22 21  2  0  0  0  0
 22 23  1  0  0  0  0
 23  6  1  0  0  0  0
 24 22  1  0  0  0  0
 25 26  1  0  0  0  0
 26 31  1  0  0  0  0
 27 24  1  0  0  0  0
 28 29  2  0  0  0  0
 29 32  1  0  0  0  0
 29 27  1  0  0  0  0
 30 28  1  0  0  0  0
 30 26  2  0  0  0  0
 31 27  2  0  0  0  0
 32 33  1  0  0  0  0
 34 32  2  0  0  0  0
M  END
>  <MODEL>
9

>  <REMARK>
 VINA RESULT:      -7.7      4.034      8.451
  Name = 
  7 active torsions:
  status: ('A' for Active; 'I' for Inactive)
    1  A    between atoms: N_3  and  C_17
    2  A    between atoms: N_3  and  C_30
    3  A    between atoms: C_7  and  C_29
    4  A    between atoms: C_12  and  C_15
    5  A    between atoms: C_14  and  C_15
    6  A    between atoms: C_19  and  C_28
    7  A    between atoms: C_21  and  N_32
                            x       y       z     vdW  Elec       q    Type
                         _______ _______ _______ _____ _____    ______ ____

>  <TORSDO>
F 7

$$$$
