=
 OpenBabel11072411133D

 30 34  0  0  1  0  0  0  0  0999 V2000
  160.5140  206.6140  154.6340 N   0  0  0  0  0  0  0  0  0  0  0  0
  160.9680  206.2150  153.4820 C   0  0  0  0  0  0  0  0  0  0  0  0
  161.6550  206.3700  151.3500 C   0  0  0  0  0  0  0  0  0  0  0  0
  161.9280  209.5040  151.9170 C   0  0  0  0  0  3  0  0  0  0  0  0
  161.6300  204.9710  151.8020 C   0  0  0  0  0  0  0  0  0  0  0  0
  160.3540  208.0210  154.8920 C   0  0  0  0  0  0  0  0  0  0  0  0
  161.1970  204.8960  153.1230 O   0  0  0  0  0  0  0  0  0  0  0  0
  161.5820  210.0390  154.0270 C   0  0  2  0  0  3  0  0  0  0  0  0
  160.7790  208.9910  153.8470 C   0  0  1  0  0  3  0  0  0  0  0  0
  159.8900  208.4050  155.9970 O   0  0  0  0  0  0  0  0  0  0  0  0
  160.8790  208.5630  152.4130 C   0  0  2  0  0  3  0  0  0  0  0  0
  162.2870  210.3460  152.8300 N   0  0  0  0  0  0  0  0  0  0  0  0
  161.2810  207.1190  152.3790 C   0  0  0  0  0  0  0  0  0  0  0  0
  161.9440  203.9390  151.0920 N   0  0  0  0  0  2  0  0  0  0  0  0
  160.9620  211.6530  155.8970 N   0  0  0  0  0  0  0  0  0  0  0  0
  162.9350  210.4110  155.9340 O   0  0  0  0  0  0  0  0  0  0  0  0
  159.9000  212.2710  155.1200 C   0  0  0  0  0  1  0  0  0  0  0  0
  161.1580  212.1170  157.2610 C   0  0  0  0  0  1  0  0  0  0  0  0
  161.8780  210.7100  155.3130 C   0  0  0  0  0  0  0  0  0  0  0  0
  161.8950  206.8590  150.0280 N   0  0  0  0  0  2  0  0  0  0  0  0
  160.8540  206.9370  149.0190 C   0  0  0  0  0  2  0  0  0  0  0  0
  160.2430  205.9510  146.9790 C   0  0  1  0  0  3  0  0  0  0  0  0
  160.5010  204.0050  144.6760 F   0  0  0  0  0  0  0  0  0  0  0  0
  160.4730  206.2470  145.4910 C   0  0  0  0  0  2  0  0  0  0  0  0
  162.5510  204.9280  145.4790 C   0  0  0  0  0  2  0  0  0  0  0  0
  161.5200  205.6120  143.4690 F   0  0  0  0  0  0  0  0  0  0  0  0
  161.2460  205.1700  144.7490 C   0  0  0  0  0  0  0  0  0  0  0  0
  161.1780  205.0410  147.6840 C   0  0  1  0  0  3  0  0  0  0  0  0
  162.2850  204.3500  146.8650 C   0  0  0  0  0  2  0  0  0  0  0  0
  161.3830  206.4950  147.7430 N   0  0  0  0  0  0  0  0  0  0  0  0
  1  6  1  0  0  0  0
  2  1  2  0  0  0  0
  3  5  1  0  0  0  0
  3 13  2  0  0  0  0
  4 12  2  0  0  0  0
  5  7  1  0  0  0  0
  6 10  2  0  0  0  0
  7  2  1  0  0  0  0
  8 19  1  1  0  0  0
  9  8  1  0  0  0  0
  9  6  1  1  0  0  0
 11  4  1  6  0  0  0
 11  9  1  0  0  0  0
 12  8  1  0  0  0  0
 13 11  1  0  0  0  0
 13  2  1  0  0  0  0
 14  5  2  0  0  0  0
 15 18  1  0  0  0  0
 17 15  1  0  0  0  0
 19 15  1  0  0  0  0
 19 16  2  0  0  0  0
 20  3  1  0  0  0  0
 21 20  1  0  0  0  0
 22 24  1  6  0  0  0
 22 28  1  0  0  0  0
 22 30  1  0  0  0  0
 23 27  1  0  0  0  0
 25 29  1  0  0  0  0
 26 27  1  0  0  0  0
 27 25  1  0  0  0  0
 27 24  1  0  0  0  0
 28 29  1  6  0  0  0
 28 30  1  0  0  0  0
 30 21  1  0  0  0  0
M  END
>  <MODEL>
1

>  <REMARK>
 VINA RESULT:      -9.4      0.000      0.000
  Name = 
  4 active torsions:
  status: ('A' for Active; 'I' for Inactive)
    1  A    between atoms: C_8  and  N_29
    2  A    between atoms: C_18  and  C_25
    3  A    between atoms: C_20  and  N_28
    4  A    between atoms: C_20  and  N_29
                            x       y       z     vdW  Elec       q    Type
                         _______ _______ _______ _____ _____    ______ ____

>  <TORSDO>
F 4

$$$$
=
 OpenBabel11072411133D

 30 34  0  0  1  0  0  0  0  0999 V2000
  161.2050  207.6920  148.3530 N   0  0  0  0  0  0  0  0  0  0  0  0
  161.5860  208.0860  149.5330 C   0  0  0  0  0  0  0  0  0  0  0  0
  161.8940  208.0010  151.7550 C   0  0  0  0  0  0  0  0  0  0  0  0
  161.3460  204.8650  151.4710 C   0  0  0  0  0  3  0  0  0  0  0  0
  162.3300  209.2940  151.2050 C   0  0  0  0  0  0  0  0  0  0  0  0
  160.6920  206.3590  148.1740 C   0  0  0  0  0  0  0  0  0  0  0  0
  162.1260  209.3280  149.8290 O   0  0  0  0  0  0  0  0  0  0  0  0
  161.1640  204.2000  149.3780 C   0  0  2  0  0  3  0  0  0  0  0  0
  160.6730  205.4390  149.3440 C   0  0  1  0  0  3  0  0  0  0  0  0
  160.2980  205.9870  147.0380 O   0  0  0  0  0  0  0  0  0  0  0  0
  160.6870  205.9880  150.7400 C   0  0  2  0  0  3  0  0  0  0  0  0
  161.5760  203.8570  150.6950 N   0  0  0  0  0  0  0  0  0  0  0  0
  161.4720  207.2650  150.7350 C   0  0  0  0  0  0  0  0  0  0  0  0
  162.8200  210.2790  151.8810 N   0  0  0  0  0  2  0  0  0  0  0  0
  160.6910  202.1190  147.9880 N   0  0  0  0  0  0  0  0  0  0  0  0
  162.3060  203.6840  147.3700 O   0  0  0  0  0  0  0  0  0  0  0  0
  159.9090  201.4940  149.0420 C   0  0  0  0  0  1  0  0  0  0  0  0
  160.8090  201.4090  146.7240 C   0  0  0  0  0  1  0  0  0  0  0  0
  161.4350  203.3300  148.2110 C   0  0  0  0  0  0  0  0  0  0  0  0
  161.7970  207.6230  153.1310 N   0  0  0  0  0  2  0  0  0  0  0  0
  160.5260  207.4630  153.8130 C   0  0  0  0  0  2  0  0  0  0  0  0
  161.6620  209.2090  154.8940 C   0  0  1  0  0  3  0  0  0  0  0  0
  162.5080  210.8950  157.2600 F   0  0  0  0  0  0  0  0  0  0  0  0
  161.4160  210.7030  155.1480 C   0  0  0  0  0  2  0  0  0  0  0  0
  160.2190  210.2190  157.2430 C   0  0  0  0  0  2  0  0  0  0  0  0
  160.9300  212.4060  156.7120 F   0  0  0  0  0  0  0  0  0  0  0  0
  161.2970  211.0780  156.6150 C   0  0  0  0  0  0  0  0  0  0  0  0
  161.2270  208.2250  155.9140 C   0  0  1  0  0  3  0  0  0  0  0  0
  160.6360  208.7520  157.2350 C   0  0  0  0  0  2  0  0  0  0  0  0
  160.3540  208.5370  154.7740 N   0  0  0  0  0  0  0  0  0  0  0  0
  1  2  2  0  0  0  0
  2  7  1  0  0  0  0
  2 13  1  0  0  0  0
  3 20  1  0  0  0  0
  5  3  1  0  0  0  0
  5 14  2  0  0  0  0
  6  1  1  0  0  0  0
  7  5  1  0  0  0  0
  8 19  1  6  0  0  0
  8 12  1  0  0  0  0
  9  6  1  6  0  0  0
  9  8  1  0  0  0  0
  9 11  1  0  0  0  0
 10  6  2  0  0  0  0
 11  4  1  1  0  0  0
 12  4  2  0  0  0  0
 13 11  1  0  0  0  0
 13  3  2  0  0  0  0
 15 19  1  0  0  0  0
 15 17  1  0  0  0  0
 16 19  2  0  0  0  0
 18 15  1  0  0  0  0
 20 21  1  0  0  0  0
 21 30  1  0  0  0  0
 22 24  1  1  0  0  0
 22 28  1  0  0  0  0
 24 27  1  0  0  0  0
 27 26  1  0  0  0  0
 27 25  1  0  0  0  0
 27 23  1  0  0  0  0
 28 29  1  1  0  0  0
 29 25  1  0  0  0  0
 30 22  1  0  0  0  0
 30 28  1  0  0  0  0
M  END
>  <MODEL>
2

>  <REMARK>
 VINA RESULT:      -7.8      4.564      9.094
  Name = 
  4 active torsions:
  status: ('A' for Active; 'I' for Inactive)
    1  A    between atoms: C_8  and  N_29
    2  A    between atoms: C_18  and  C_25
    3  A    between atoms: C_20  and  N_28
    4  A    between atoms: C_20  and  N_29
                            x       y       z     vdW  Elec       q    Type
                         _______ _______ _______ _____ _____    ______ ____

>  <TORSDO>
F 4

$$$$
=
 OpenBabel11072411133D

 30 34  0  0  1  0  0  0  0  0999 V2000
  161.0200  204.6590  150.7580 N   0  0  0  0  0  0  0  0  0  0  0  0
  161.0600  205.7010  151.5360 C   0  0  0  0  0  0  0  0  0  0  0  0
  161.5450  207.7950  152.1850 C   0  0  0  0  0  0  0  0  0  0  0  0
  162.0600  208.3820  149.0850 C   0  0  0  0  0  3  0  0  0  0  0  0
  160.9050  207.0360  153.2690 C   0  0  0  0  0  0  0  0  0  0  0  0
  161.4810  204.7630  149.3990 C   0  0  0  0  0  0  0  0  0  0  0  0
  160.6170  205.7400  152.8490 O   0  0  0  0  0  0  0  0  0  0  0  0
  161.5250  206.6880  147.7800 C   0  0  2  0  0  3  0  0  0  0  0  0
  161.9340  206.0890  148.8970 C   0  0  1  0  0  3  0  0  0  0  0  0
  161.4670  203.7480  148.6540 O   0  0  0  0  0  0  0  0  0  0  0  0
  162.3880  207.1470  149.8590 C   0  0  2  0  0  3  0  0  0  0  0  0
  161.6060  208.1030  147.9080 N   0  0  0  0  0  0  0  0  0  0  0  0
  161.6110  206.9920  151.1310 C   0  0  0  0  0  0  0  0  0  0  0  0
  160.6490  207.4760  154.4560 N   0  0  0  0  0  2  0  0  0  0  0  0
  161.6050  205.0760  145.8100 N   0  0  0  0  0  0  0  0  0  0  0  0
  159.6870  206.2890  146.3430 O   0  0  0  0  0  0  0  0  0  0  0  0
  163.0540  204.9610  145.8590 C   0  0  0  0  0  1  0  0  0  0  0  0
  160.8980  204.2770  144.8220 C   0  0  0  0  0  1  0  0  0  0  0  0
  160.8930  206.0350  146.6120 C   0  0  0  0  0  0  0  0  0  0  0  0
  162.1260  209.1000  152.2550 N   0  0  0  0  0  2  0  0  0  0  0  0
  161.4100  210.3010  151.8640 C   0  0  0  0  0  2  0  0  0  0  0  0
  159.9430  211.9240  152.7140 C   0  0  1  0  0  3  0  0  0  0  0  0
  158.3660  213.3530  154.8640 F   0  0  0  0  0  0  0  0  0  0  0  0
  158.4220  212.0850  152.8450 C   0  0  0  0  0  2  0  0  0  0  0  0
  158.4260  210.9730  155.0410 C   0  0  0  0  0  2  0  0  0  0  0  0
  156.5420  212.1700  154.2730 F   0  0  0  0  0  0  0  0  0  0  0  0
  157.9230  212.1800  154.2760 C   0  0  0  0  0  0  0  0  0  0  0  0
  160.7050  211.3360  153.8420 C   0  0  1  0  0  3  0  0  0  0  0  0
  159.9470  211.0040  155.1430 C   0  0  0  0  0  2  0  0  0  0  0  0
  160.2610  210.4820  152.7310 N   0  0  0  0  0  0  0  0  0  0  0  0
  1  2  2  0  0  0  0
  2  7  1  0  0  0  0
  3 20  1  0  0  0  0
  3  5  1  0  0  0  0
  5 14  2  0  0  0  0
  6  1  1  0  0  0  0
  7  5  1  0  0  0  0
  8 19  1  1  0  0  0
  8 12  1  0  0  0  0
  8  9  1  0  0  0  0
  9  6  1  1  0  0  0
  9 11  1  0  0  0  0
 10  6  2  0  0  0  0
 11  4  1  6  0  0  0
 11 13  1  0  0  0  0
 12  4  2  0  0  0  0
 13  2  1  0  0  0  0
 13  3  2  0  0  0  0
 15 17  1  0  0  0  0
 15 19  1  0  0  0  0
 16 19  2  0  0  0  0
 18 15  1  0  0  0  0
 21 20  1  0  0  0  0
 21 30  1  0  0  0  0
 22 30  1  0  0  0  0
 22 24  1  1  0  0  0
 22 28  1  0  0  0  0
 24 27  1  0  0  0  0
 25 29  1  0  0  0  0
 26 27  1  0  0  0  0
 27 23  1  0  0  0  0
 27 25  1  0  0  0  0
 28 29  1  1  0  0  0
 30 28  1  0  0  0  0
M  END
>  <MODEL>
3

>  <REMARK>
 VINA RESULT:      -7.4      4.101      8.465
  Name = 
  4 active torsions:
  status: ('A' for Active; 'I' for Inactive)
    1  A    between atoms: C_8  and  N_29
    2  A    between atoms: C_18  and  C_25
    3  A    between atoms: C_20  and  N_28
    4  A    between atoms: C_20  and  N_29
                            x       y       z     vdW  Elec       q    Type
                         _______ _______ _______ _____ _____    ______ ____

>  <TORSDO>
F 4

$$$$
=
 OpenBabel11072411133D

 30 34  0  0  1  0  0  0  0  0999 V2000
  162.1290  209.9440  152.2320 N   0  0  0  0  0  0  0  0  0  0  0  0
  161.7730  208.8990  151.5440 C   0  0  0  0  0  0  0  0  0  0  0  0
  161.1420  206.7790  151.1570 C   0  0  0  0  0  0  0  0  0  0  0  0
  160.4230  206.6770  154.2700 C   0  0  0  0  0  3  0  0  0  0  0  0
  161.3440  207.5130  149.8990 C   0  0  0  0  0  0  0  0  0  0  0  0
  162.0860  209.9040  153.6700 C   0  0  0  0  0  0  0  0  0  0  0  0
  161.7390  208.8220  150.1600 O   0  0  0  0  0  0  0  0  0  0  0  0
  160.6220  208.6310  155.2720 C   0  0  2  0  0  3  0  0  0  0  0  0
  161.5670  208.6770  154.3340 C   0  0  1  0  0  3  0  0  0  0  0  0
  162.4560  210.9060  154.3350 O   0  0  0  0  0  0  0  0  0  0  0  0
  161.5750  207.3630  153.6090 C   0  0  2  0  0  3  0  0  0  0  0  0
  159.9220  207.3930  155.2230 N   0  0  0  0  0  0  0  0  0  0  0  0
  161.3760  207.6300  152.1480 C   0  0  0  0  0  0  0  0  0  0  0  0
  161.1990  207.0330  148.7090 N   0  0  0  0  0  2  0  0  0  0  0  0
  159.1110  210.6190  155.7750 N   0  0  0  0  0  0  0  0  0  0  0  0
  160.7620  209.9070  157.2600 O   0  0  0  0  0  0  0  0  0  0  0  0
  158.6230  210.6960  154.4080 C   0  0  0  0  0  1  0  0  0  0  0  0
  158.5580  211.5510  156.7440 C   0  0  0  0  0  1  0  0  0  0  0  0
  160.1940  209.7470  156.1450 C   0  0  0  0  0  0  0  0  0  0  0  0
  160.8820  205.3830  151.3240 N   0  0  0  0  0  2  0  0  0  0  0  0
  161.9300  204.4160  151.5950 C   0  0  0  0  0  2  0  0  0  0  0  0
  160.7980  203.7090  149.6650 C   0  0  1  0  0  3  0  0  0  0  0  0
  159.4620  201.7020  147.8360 F   0  0  0  0  0  0  0  0  0  0  0  0
  161.1870  203.3010  148.2370 C   0  0  0  0  0  2  0  0  0  0  0  0
  161.4560  200.9490  148.9110 C   0  0  0  0  0  2  0  0  0  0  0  0
  161.3650  201.5720  146.6360 F   0  0  0  0  0  0  0  0  0  0  0  0
  160.8370  201.8670  147.8770 C   0  0  0  0  0  0  0  0  0  0  0  0
  160.6660  202.6580  150.7030 C   0  0  1  0  0  3  0  0  0  0  0  0
  160.8260  201.1860  150.2790 C   0  0  0  0  0  2  0  0  0  0  0  0
  161.9280  203.3970  150.5620 N   0  0  0  0  0  0  0  0  0  0  0  0
  1  6  1  0  0  0  0
  2 13  1  0  0  0  0
  2  1  2  0  0  0  0
  3 20  1  0  0  0  0
  3 13  2  0  0  0  0
  4 12  2  0  0  0  0
  5  7  1  0  0  0  0
  5  3  1  0  0  0  0
  6 10  2  0  0  0  0
  7  2  1  0  0  0  0
  8 19  1  6  0  0  0
  9  6  1  6  0  0  0
  9  8  1  0  0  0  0
 11  4  1  1  0  0  0
 11  9  1  0  0  0  0
 12  8  1  0  0  0  0
 13 11  1  0  0  0  0
 14  5  2  0  0  0  0
 15 19  1  0  0  0  0
 15 18  1  0  0  0  0
 17 15  1  0  0  0  0
 19 16  2  0  0  0  0
 20 21  1  0  0  0  0
 22 24  1  6  0  0  0
 22 30  1  0  0  0  0
 22 28  1  0  0  0  0
 23 27  1  0  0  0  0
 25 29  1  0  0  0  0
 26 27  1  0  0  0  0
 27 24  1  0  0  0  0
 27 25  1  0  0  0  0
 28 29  1  6  0  0  0
 30 28  1  0  0  0  0
 30 21  1  0  0  0  0
M  END
>  <MODEL>
4

>  <REMARK>
 VINA RESULT:      -7.4      2.336      3.539
  Name = 
  4 active torsions:
  status: ('A' for Active; 'I' for Inactive)
    1  A    between atoms: C_8  and  N_29
    2  A    between atoms: C_18  and  C_25
    3  A    between atoms: C_20  and  N_28
    4  A    between atoms: C_20  and  N_29
                            x       y       z     vdW  Elec       q    Type
                         _______ _______ _______ _____ _____    ______ ____

>  <TORSDO>
F 4

$$$$
=
 OpenBabel11072411133D

 30 34  0  0  1  0  0  0  0  0999 V2000
  161.2570  205.3820  153.3340 N   0  0  0  0  0  0  0  0  0  0  0  0
  161.0440  206.6150  153.6890 C   0  0  0  0  0  0  0  0  0  0  0  0
  161.0620  208.8560  153.5380 C   0  0  0  0  0  0  0  0  0  0  0  0
  161.6090  208.4040  150.4220 C   0  0  0  0  0  3  0  0  0  0  0  0
  160.5320  208.4120  154.8370 C   0  0  0  0  0  0  0  0  0  0  0  0
  161.7580  205.0920  152.0160 C   0  0  0  0  0  0  0  0  0  0  0  0
  160.5350  207.0220  154.9120 O   0  0  0  0  0  0  0  0  0  0  0  0
  161.4970  206.2880  149.8170 C   0  0  2  0  0  3  0  0  0  0  0  0
  161.9590  206.2200  151.0650 C   0  0  1  0  0  3  0  0  0  0  0  0
  161.9890  203.9010  151.6820 O   0  0  0  0  0  0  0  0  0  0  0  0
  162.1400  207.6180  151.5770 C   0  0  2  0  0  3  0  0  0  0  0  0
  161.2840  207.6400  149.4320 N   0  0  0  0  0  0  0  0  0  0  0  0
  161.3430  207.7640  152.8390 C   0  0  0  0  0  0  0  0  0  0  0  0
  160.1310  209.1800  155.7940 N   0  0  0  0  0  2  0  0  0  0  0  0
  161.6470  204.9200  147.6740 N   0  0  0  0  0  0  0  0  0  0  0  0
  160.2230  204.3320  149.4250 O   0  0  0  0  0  0  0  0  0  0  0  0
  162.3820  205.9560  146.9680 C   0  0  0  0  0  1  0  0  0  0  0  0
  161.3910  203.6740  146.9690 C   0  0  0  0  0  1  0  0  0  0  0  0
  161.0730  205.1480  148.9730 C   0  0  0  0  0  0  0  0  0  0  0  0
  161.3630  210.1910  153.1260 N   0  0  0  0  0  2  0  0  0  0  0  0
  160.3900  211.0500  152.4760 C   0  0  0  0  0  2  0  0  0  0  0  0
  158.2550  211.4840  153.3500 C   0  0  1  0  0  3  0  0  0  0  0  0
  155.9830  213.2260  154.3300 F   0  0  0  0  0  0  0  0  0  0  0  0
  157.6180  211.5390  154.7450 C   0  0  0  0  0  2  0  0  0  0  0  0
  158.1710  213.9260  154.9780 C   0  0  0  0  0  2  0  0  0  0  0  0
  156.6590  212.8670  156.4490 F   0  0  0  0  0  0  0  0  0  0  0  0
  157.0660  212.9010  155.1290 C   0  0  0  0  0  0  0  0  0  0  0  0
  158.7840  212.7330  152.7500 C   0  0  1  0  0  3  0  0  0  0  0  0
  158.5800  214.0550  153.5140 C   0  0  0  0  0  2  0  0  0  0  0  0
  159.6850  211.8280  153.4780 N   0  0  0  0  0  0  0  0  0  0  0  0
  1  2  2  0  0  0  0
  2  7  1  0  0  0  0
  3  5  1  0  0  0  0
  5  7  1  0  0  0  0
  5 14  2  0  0  0  0
  6  1  1  0  0  0  0
  8 19  1  1  0  0  0
  8  9  1  0  0  0  0
  9 11  1  0  0  0  0
  9  6  1  1  0  0  0
 10  6  2  0  0  0  0
 11  4  1  6  0  0  0
 11 13  1  0  0  0  0
 12  8  1  0  0  0  0
 12  4  2  0  0  0  0
 13  3  2  0  0  0  0
 13  2  1  0  0  0  0
 15 19  1  0  0  0  0
 17 15  1  0  0  0  0
 18 15  1  0  0  0  0
 19 16  2  0  0  0  0
 20  3  1  0  0  0  0
 21 20  1  0  0  0  0
 21 30  1  0  0  0  0
 22 30  1  0  0  0  0
 22 24  1  1  0  0  0
 23 27  1  0  0  0  0
 24 27  1  0  0  0  0
 25 27  1  0  0  0  0
 27 26  1  0  0  0  0
 28 22  1  0  0  0  0
 28 30  1  0  0  0  0
 28 29  1  1  0  0  0
 29 25  1  0  0  0  0
M  END
>  <MODEL>
5

>  <REMARK>
 VINA RESULT:      -7.4      4.224      8.507
  Name = 
  4 active torsions:
  status: ('A' for Active; 'I' for Inactive)
    1  A    between atoms: C_8  and  N_29
    2  A    between atoms: C_18  and  C_25
    3  A    between atoms: C_20  and  N_28
    4  A    between atoms: C_20  and  N_29
                            x       y       z     vdW  Elec       q    Type
                         _______ _______ _______ _____ _____    ______ ____

>  <TORSDO>
F 4

$$$$
=
 OpenBabel11072411133D

 30 34  0  0  1  0  0  0  0  0999 V2000
  161.0040  210.7480  151.8110 N   0  0  0  0  0  0  0  0  0  0  0  0
  161.3440  209.5460  151.4470 C   0  0  0  0  0  0  0  0  0  0  0  0
  161.9500  207.3960  151.6780 C   0  0  0  0  0  0  0  0  0  0  0  0
  160.8950  207.6690  154.6830 C   0  0  0  0  0  3  0  0  0  0  0  0
  161.9480  207.8010  150.2640 C   0  0  0  0  0  0  0  0  0  0  0  0
  160.7580  211.0330  153.2000 C   0  0  0  0  0  0  0  0  0  0  0  0
  161.5760  209.1370  150.1430 O   0  0  0  0  0  0  0  0  0  0  0  0
  159.9110  209.5990  155.0860 C   0  0  2  0  0  3  0  0  0  0  0  0
  160.8370  209.9170  154.1830 C   0  0  1  0  0  3  0  0  0  0  0  0
  160.4560  212.2020  153.5550 O   0  0  0  0  0  0  0  0  0  0  0  0
  161.6270  208.6830  153.8640 C   0  0  2  0  0  3  0  0  0  0  0  0
  159.9560  208.2100  155.3870 N   0  0  0  0  0  0  0  0  0  0  0  0
  161.5570  208.4470  152.3850 C   0  0  0  0  0  0  0  0  0  0  0  0
  162.2590  207.0510  149.2600 N   0  0  0  0  0  2  0  0  0  0  0  0
  159.1290  211.5580  156.5150 N   0  0  0  0  0  0  0  0  0  0  0  0
  157.6600  210.3260  155.1880 O   0  0  0  0  0  0  0  0  0  0  0  0
  160.3760  211.6160  157.2610 C   0  0  0  0  0  1  0  0  0  0  0  0
  158.1150  212.5540  156.8180 C   0  0  0  0  0  1  0  0  0  0  0  0
  158.8420  210.4860  155.6000 C   0  0  0  0  0  0  0  0  0  0  0  0
  162.4130  206.1630  152.2350 N   0  0  0  0  0  2  0  0  0  0  0  0
  161.5440  205.0190  152.4420 C   0  0  0  0  0  2  0  0  0  0  0  0
  160.4680  204.1570  150.5420 C   0  0  1  0  0  3  0  0  0  0  0  0
  159.5130  201.9820  148.6680 F   0  0  0  0  0  0  0  0  0  0  0  0
  160.8320  203.9280  149.0690 C   0  0  0  0  0  2  0  0  0  0  0  0
  161.7050  201.6810  149.5640 C   0  0  0  0  0  2  0  0  0  0  0  0
  161.2940  202.3780  147.3460 F   0  0  0  0  0  0  0  0  0  0  0  0
  160.8070  202.4730  148.6350 C   0  0  0  0  0  0  0  0  0  0  0  0
  160.6690  203.0550  151.5130 C   0  0  1  0  0  3  0  0  0  0  0  0
  161.1430  201.6880  150.9820 C   0  0  0  0  0  2  0  0  0  0  0  0
  161.7050  204.0840  151.3440 N   0  0  0  0  0  0  0  0  0  0  0  0
  1  6  1  0  0  0  0
  2  1  2  0  0  0  0
  2 13  1  0  0  0  0
  3 20  1  0  0  0  0
  3 13  2  0  0  0  0
  4 12  2  0  0  0  0
  5  3  1  0  0  0  0
  6 10  2  0  0  0  0
  7  5  1  0  0  0  0
  7  2  1  0  0  0  0
  8 12  1  0  0  0  0
  8 19  1  6  0  0  0
  9  6  1  6  0  0  0
  9  8  1  0  0  0  0
 11  9  1  0  0  0  0
 11  4  1  1  0  0  0
 13 11  1  0  0  0  0
 14  5  2  0  0  0  0
 15 18  1  0  0  0  0
 15 17  1  0  0  0  0
 16 19  2  0  0  0  0
 19 15  1  0  0  0  0
 20 21  1  0  0  0  0
 22 24  1  6  0  0  0
 22 30  1  0  0  0  0
 22 28  1  0  0  0  0
 25 29  1  0  0  0  0
 26 27  1  0  0  0  0
 27 23  1  0  0  0  0
 27 24  1  0  0  0  0
 27 25  1  0  0  0  0
 28 29  1  6  0  0  0
 30 28  1  0  0  0  0
 30 21  1  0  0  0  0
M  END
>  <MODEL>
6

>  <REMARK>
 VINA RESULT:      -7.3      2.560      3.812
  Name = 
  4 active torsions:
  status: ('A' for Active; 'I' for Inactive)
    1  A    between atoms: C_8  and  N_29
    2  A    between atoms: C_18  and  C_25
    3  A    between atoms: C_20  and  N_28
    4  A    between atoms: C_20  and  N_29
                            x       y       z     vdW  Elec       q    Type
                         _______ _______ _______ _____ _____    ______ ____

>  <TORSDO>
F 4

$$$$
=
 OpenBabel11072411133D

 30 34  0  0  1  0  0  0  0  0999 V2000
  161.6950  206.9640  152.7660 N   0  0  0  0  0  0  0  0  0  0  0  0
  161.4730  208.2340  152.5940 C   0  0  0  0  0  0  0  0  0  0  0  0
  161.3790  210.2010  151.5150 C   0  0  0  0  0  0  0  0  0  0  0  0
  161.5800  208.4710  148.8360 C   0  0  0  0  0  3  0  0  0  0  0  0
  161.0220  210.3530  152.9340 C   0  0  0  0  0  0  0  0  0  0  0  0
  162.0520  206.1400  151.6420 C   0  0  0  0  0  0  0  0  0  0  0  0
  161.0920  209.1240  153.5850 O   0  0  0  0  0  0  0  0  0  0  0  0
  161.4870  206.2980  149.1950 C   0  0  2  0  0  3  0  0  0  0  0  0
  162.0940  206.7580  150.2880 C   0  0  1  0  0  3  0  0  0  0  0  0
  162.2930  204.9160  151.8140 O   0  0  0  0  0  0  0  0  0  0  0  0
  162.2730  208.2400  150.1390 C   0  0  2  0  0  3  0  0  0  0  0  0
  161.1740  207.3630  148.3060 N   0  0  0  0  0  0  0  0  0  0  0  0
  161.6230  208.9130  151.3100 C   0  0  0  0  0  0  0  0  0  0  0  0
  160.7030  211.4570  153.5220 N   0  0  0  0  0  2  0  0  0  0  0  0
  161.5700  204.0930  147.9230 N   0  0  0  0  0  0  0  0  0  0  0  0
  160.1430  204.4260  149.7370 O   0  0  0  0  0  0  0  0  0  0  0  0
  162.3340  204.6620  146.8250 C   0  0  0  0  0  1  0  0  0  0  0  0
  161.2660  202.6720  147.8690 C   0  0  0  0  0  1  0  0  0  0  0  0
  161.0160  204.9130  148.9670 C   0  0  0  0  0  0  0  0  0  0  0  0
  161.5730  211.2340  150.5460 N   0  0  0  0  0  2  0  0  0  0  0  0
  160.5940  212.2780  150.3040 C   0  0  0  0  0  2  0  0  0  0  0  0
  160.8170  212.1640  147.9700 C   0  0  1  0  0  3  0  0  0  0  0  0
  162.2200  212.5480  145.3170 F   0  0  0  0  0  0  0  0  0  0  0  0
  160.3900  213.0240  146.7720 C   0  0  0  0  0  2  0  0  0  0  0  0
  162.4730  214.3310  146.8830 C   0  0  0  0  0  2  0  0  0  0  0  0
  161.0490  214.4470  145.0040 F   0  0  0  0  0  0  0  0  0  0  0  0
  161.5450  213.5760  145.9530 C   0  0  0  0  0  0  0  0  0  0  0  0
  162.1590  212.3740  148.5650 C   0  0  1  0  0  3  0  0  0  0  0  0
  163.1110  213.3790  147.8880 C   0  0  0  0  0  2  0  0  0  0  0  0
  160.9870  213.0490  149.1390 N   0  0  0  0  0  0  0  0  0  0  0  0
  2  1  2  0  0  0  0
  2  7  1  0  0  0  0
  3  5  1  0  0  0  0
  5 14  2  0  0  0  0
  5  7  1  0  0  0  0
  6 10  2  0  0  0  0
  6  1  1  0  0  0  0
  8 19  1  1  0  0  0
  8  9  1  0  0  0  0
  9  6  1  1  0  0  0
 11  4  1  6  0  0  0
 11  9  1  0  0  0  0
 11 13  1  0  0  0  0
 12  4  2  0  0  0  0
 12  8  1  0  0  0  0
 13  3  2  0  0  0  0
 13  2  1  0  0  0  0
 15 19  1  0  0  0  0
 17 15  1  0  0  0  0
 18 15  1  0  0  0  0
 19 16  2  0  0  0  0
 20  3  1  0  0  0  0
 21 20  1  0  0  0  0
 22 24  1  6  0  0  0
 22 28  1  0  0  0  0
 22 30  1  0  0  0  0
 23 27  1  0  0  0  0
 25 29  1  0  0  0  0
 26 27  1  0  0  0  0
 27 24  1  0  0  0  0
 27 25  1  0  0  0  0
 28 29  1  6  0  0  0
 28 30  1  0  0  0  0
 30 21  1  0  0  0  0
M  END
>  <MODEL>
7

>  <REMARK>
 VINA RESULT:      -6.6      3.886      7.137
  Name = 
  4 active torsions:
  status: ('A' for Active; 'I' for Inactive)
    1  A    between atoms: C_8  and  N_29
    2  A    between atoms: C_18  and  C_25
    3  A    between atoms: C_20  and  N_28
    4  A    between atoms: C_20  and  N_29
                            x       y       z     vdW  Elec       q    Type
                         _______ _______ _______ _____ _____    ______ ____

>  <TORSDO>
F 4

$$$$
=
 OpenBabel11072411133D

 30 34  0  0  1  0  0  0  0  0999 V2000
  161.0450  210.9300  152.4140 N   0  0  0  0  0  0  0  0  0  0  0  0
  161.3160  209.7220  152.0150 C   0  0  0  0  0  0  0  0  0  0  0  0
  161.7640  207.5280  152.1820 C   0  0  0  0  0  0  0  0  0  0  0  0
  160.6150  207.7630  155.1550 C   0  0  0  0  0  3  0  0  0  0  0  0
  161.8450  207.9840  150.7860 C   0  0  0  0  0  0  0  0  0  0  0  0
  160.7660  211.1800  153.8030 C   0  0  0  0  0  0  0  0  0  0  0  0
  161.5700  209.3460  150.7050 O   0  0  0  0  0  0  0  0  0  0  0  0
  159.7500  209.7410  155.5990 C   0  0  2  0  0  3  0  0  0  0  0  0
  160.7300  210.0260  154.7430 C   0  0  1  0  0  3  0  0  0  0  0  0
  160.5300  212.3540  154.1930 O   0  0  0  0  0  0  0  0  0  0  0  0
  161.4450  208.7520  154.4050 C   0  0  2  0  0  3  0  0  0  0  0  0
  159.6880  208.3410  155.8460 N   0  0  0  0  0  0  0  0  0  0  0  0
  161.4170  208.5770  152.9160 C   0  0  0  0  0  0  0  0  0  0  0  0
  162.1430  207.2520  149.7650 N   0  0  0  0  0  2  0  0  0  0  0  0
  157.5490  210.9980  155.3420 N   0  0  0  0  0  0  0  0  0  0  0  0
  158.8630  211.1750  157.2610 O   0  0  0  0  0  0  0  0  0  0  0  0
  157.4660  210.7230  153.9170 C   0  0  0  0  0  1  0  0  0  0  0  0
  156.4520  211.7290  155.9540 C   0  0  0  0  0  1  0  0  0  0  0  0
  158.7250  210.6800  156.1090 C   0  0  0  0  0  0  0  0  0  0  0  0
  162.1200  206.2460  152.7060 N   0  0  0  0  0  2  0  0  0  0  0  0
  161.2020  205.1210  152.7220 C   0  0  0  0  0  2  0  0  0  0  0  0
  160.3230  204.2300  150.7370 C   0  0  1  0  0  3  0  0  0  0  0  0
  159.6670  202.0380  148.7560 F   0  0  0  0  0  0  0  0  0  0  0  0
  160.7990  204.0700  149.2860 C   0  0  0  0  0  2  0  0  0  0  0  0
  161.8130  201.8850  149.7890 C   0  0  0  0  0  2  0  0  0  0  0  0
  161.4930  202.6070  147.5650 F   0  0  0  0  0  0  0  0  0  0  0  0
  160.9180  202.6290  148.8200 C   0  0  0  0  0  0  0  0  0  0  0  0
  160.5480  203.1210  151.6950 C   0  0  1  0  0  3  0  0  0  0  0  0
  161.1620  201.8100  151.1660 C   0  0  0  0  0  2  0  0  0  0  0  0
  161.5070  204.2320  151.6170 N   0  0  0  0  0  0  0  0  0  0  0  0
  1  6  1  0  0  0  0
  2  1  2  0  0  0  0
  2 13  1  0  0  0  0
  3 20  1  0  0  0  0
  3 13  2  0  0  0  0
  4 12  2  0  0  0  0
  5  3  1  0  0  0  0
  6 10  2  0  0  0  0
  7  5  1  0  0  0  0
  7  2  1  0  0  0  0
  8 12  1  0  0  0  0
  8 19  1  6  0  0  0
  9  6  1  6  0  0  0
  9  8  1  0  0  0  0
 11  9  1  0  0  0  0
 11  4  1  1  0  0  0
 13 11  1  0  0  0  0
 14  5  2  0  0  0  0
 15 18  1  0  0  0  0
 15 19  1  0  0  0  0
 17 15  1  0  0  0  0
 19 16  2  0  0  0  0
 20 21  1  0  0  0  0
 22 24  1  6  0  0  0
 22 30  1  0  0  0  0
 22 28  1  0  0  0  0
 23 27  1  0  0  0  0
 25 29  1  0  0  0  0
 26 27  1  0  0  0  0
 27 24  1  0  0  0  0
 27 25  1  0  0  0  0
 28 29  1  6  0  0  0
 30 28  1  0  0  0  0
 30 21  1  0  0  0  0
M  END
>  <MODEL>
8

>  <REMARK>
 VINA RESULT:      -6.5      2.713      3.963
  Name = 
  4 active torsions:
  status: ('A' for Active; 'I' for Inactive)
    1  A    between atoms: C_8  and  N_29
    2  A    between atoms: C_18  and  C_25
    3  A    between atoms: C_20  and  N_28
    4  A    between atoms: C_20  and  N_29
                            x       y       z     vdW  Elec       q    Type
                         _______ _______ _______ _____ _____    ______ ____

>  <TORSDO>
F 4

$$$$
=
 OpenBabel11072411133D

 30 34  0  0  1  0  0  0  0  0999 V2000
  161.8410  209.9260  151.2690 N   0  0  0  0  0  0  0  0  0  0  0  0
  161.7620  208.8670  150.5180 C   0  0  0  0  0  0  0  0  0  0  0  0
  161.7670  206.6830  149.9940 C   0  0  0  0  0  0  0  0  0  0  0  0
  161.3530  206.1760  153.1220 C   0  0  0  0  0  3  0  0  0  0  0  0
  161.6420  207.5200  148.7910 C   0  0  0  0  0  0  0  0  0  0  0  0
  161.9220  209.7850  152.6990 C   0  0  0  0  0  0  0  0  0  0  0  0
  161.6460  208.8690  149.1370 O   0  0  0  0  0  0  0  0  0  0  0  0
  161.0350  208.0310  154.2690 C   0  0  2  0  0  3  0  0  0  0  0  0
  161.8470  208.4200  153.2880 C   0  0  1  0  0  3  0  0  0  0  0  0
  162.0260  210.8090  153.4240 O   0  0  0  0  0  0  0  0  0  0  0  0
  162.1920  207.2180  152.4580 C   0  0  2  0  0  3  0  0  0  0  0  0
  160.7360  206.6440  154.1570 N   0  0  0  0  0  0  0  0  0  0  0  0
  161.8110  207.5020  151.0370 C   0  0  0  0  0  0  0  0  0  0  0  0
  161.5550  207.0930  147.5760 N   0  0  0  0  0  2  0  0  0  0  0  0
  161.0410  209.3750  156.4330 N   0  0  0  0  0  0  0  0  0  0  0  0
  159.1820  209.2920  155.0280 O   0  0  0  0  0  0  0  0  0  0  0  0
  162.2600  208.7480  156.9140 C   0  0  0  0  0  1  0  0  0  0  0  0
  160.4470  210.4160  157.2560 C   0  0  0  0  0  1  0  0  0  0  0  0
  160.3620  208.9080  155.2540 C   0  0  0  0  0  0  0  0  0  0  0  0
  161.9500  205.2670  150.0600 N   0  0  0  0  0  2  0  0  0  0  0  0
  160.8510  204.3260  149.9380 C   0  0  0  0  0  2  0  0  0  0  0  0
  160.8200  202.4660  148.5060 C   0  0  1  0  0  3  0  0  0  0  0  0
  161.5550  200.8820  146.0350 F   0  0  0  0  0  0  0  0  0  0  0  0
  159.9030  201.9380  147.3940 C   0  0  0  0  0  2  0  0  0  0  0  0
  161.1360  203.2050  145.6820 C   0  0  0  0  0  2  0  0  0  0  0  0
  159.6080  201.5060  145.0900 F   0  0  0  0  0  0  0  0  0  0  0  0
  160.5620  201.8470  146.0280 C   0  0  0  0  0  0  0  0  0  0  0  0
  161.9720  203.3260  148.1410 C   0  0  1  0  0  3  0  0  0  0  0  0
  162.2600  203.5700  146.6470 C   0  0  0  0  0  2  0  0  0  0  0  0
  160.6990  203.9370  148.5490 N   0  0  0  0  0  0  0  0  0  0  0  0
  1  6  1  0  0  0  0
  2 13  1  0  0  0  0
  2  1  2  0  0  0  0
  3 20  1  0  0  0  0
  3 13  2  0  0  0  0
  4 12  2  0  0  0  0
  5  7  1  0  0  0  0
  5  3  1  0  0  0  0
  6 10  2  0  0  0  0
  7  2  1  0  0  0  0
  8 19  1  6  0  0  0
  9  6  1  6  0  0  0
  9  8  1  0  0  0  0
 11  4  1  1  0  0  0
 11  9  1  0  0  0  0
 12  8  1  0  0  0  0
 13 11  1  0  0  0  0
 14  5  2  0  0  0  0
 15 17  1  0  0  0  0
 15 18  1  0  0  0  0
 16 19  2  0  0  0  0
 19 15  1  0  0  0  0
 21 20  1  0  0  0  0
 22 24  1  6  0  0  0
 22 30  1  0  0  0  0
 25 27  1  0  0  0  0
 25 29  1  0  0  0  0
 26 27  1  0  0  0  0
 27 23  1  0  0  0  0
 27 24  1  0  0  0  0
 28 29  1  6  0  0  0
 28 22  1  0  0  0  0
 28 30  1  0  0  0  0
 30 21  1  0  0  0  0
M  END
>  <MODEL>
9

>  <REMARK>
 VINA RESULT:      -6.5      2.184      3.405
  Name = 
  4 active torsions:
  status: ('A' for Active; 'I' for Inactive)
    1  A    between atoms: C_8  and  N_29
    2  A    between atoms: C_18  and  C_25
    3  A    between atoms: C_20  and  N_28
    4  A    between atoms: C_20  and  N_29
                            x       y       z     vdW  Elec       q    Type
                         _______ _______ _______ _____ _____    ______ ____

>  <TORSDO>
F 4

$$$$
