=
 OpenBabel11072413343D

 43 49  0  0  1  0  0  0  0  0999 V2000
  161.2910  210.2920  154.9440 C   0  0  1  0  0  3  0  0  0  0  0  0
  156.8740  214.4530  155.7920 C   0  0  0  0  0  3  0  0  0  0  0  0
  157.9370  214.1070  154.9450 C   0  0  0  0  0  3  0  0  0  0  0  0
  158.7180  212.9940  155.2720 C   0  0  0  0  0  0  0  0  0  0  0  0
  162.0010  208.4920  156.6150 C   0  0  0  0  0  2  0  0  0  0  0  0
  159.6500  208.6910  155.8960 C   0  0  1  0  0  3  0  0  0  0  0  0
  156.6090  213.6930  156.9440 C   0  0  0  0  0  3  0  0  0  0  0  0
  160.5900  208.4250  157.0070 N   0  0  0  0  0  2  0  0  0  0  0  0
  159.8880  212.4850  154.5160 C   0  0  1  0  0  3  0  0  0  0  0  0
  158.6900  209.8030  156.3110 C   0  0  0  0  0  2  0  0  0  0  0  0
  158.4580  212.2520  156.4060 C   0  0  0  0  0  0  0  0  0  0  0  0
  159.4190  211.1350  156.5820 C   0  0  2  0  0  3  0  0  0  0  0  0
  160.4970  211.4800  155.5190 C   0  0  1  0  0  3  0  0  0  0  0  0
  162.3350  209.8480  155.9820 C   0  0  0  0  0  2  0  0  0  0  0  0
  157.4050  212.5830  157.2600 C   0  0  0  0  0  3  0  0  0  0  0  0
  160.3190  209.1560  154.5930 C   0  0  2  0  0  3  0  0  0  0  0  0
  160.9330  208.0330  153.8010 C   0  0  0  0  0  0  0  0  0  0  0  0
  161.0690  206.8900  154.3170 O   0  0  0  0  0  0  0  0  0  0  0  0
  161.4360  208.2860  152.4890 N   0  0  0  0  0  2  0  0  0  0  0  0
  161.9540  207.2230  151.6420 C   0  0  0  0  0  2  0  0  0  0  0  0
  160.8300  206.6510  150.7950 C   0  0  1  0  0  3  0  0  0  0  0  0
  161.1580  204.8200  149.3680 C   0  0  0  0  0  0  0  0  0  0  0  0
  161.0740  206.9980  149.3350 C   0  0  0  0  0  3  0  0  0  0  0  0
  160.9360  205.1700  150.7330 C   0  0  0  0  0  0  0  0  0  0  0  0
  161.1410  203.5970  148.9380 N   0  0  0  0  0  0  0  0  0  0  0  0
  160.7930  202.5030  149.8580 C   0  0  0  0  0  2  0  0  0  0  0  0
  161.1740  202.8200  151.3260 C   0  0  0  0  0  2  0  0  0  0  0  0
  161.2580  205.9700  148.5570 N   0  0  0  0  0  0  0  0  0  0  0  0
  160.8780  204.2570  151.6970 C   0  0  0  0  0  3  0  0  0  0  0  0
  159.4000  211.8190  153.2340 C   0  0  0  0  0  2  0  0  0  0  0  0
  160.8500  211.3800  151.2580 C   0  0  0  0  0  1  0  0  0  0  0  0
  160.0730  212.4360  152.0170 C   0  0  1  0  0  3  0  0  0  0  0  0
  159.0960  213.1340  151.1140 C   0  0  0  0  0  0  0  0  0  0  0  0
  159.5190  213.9800  150.0360 N   0  0  0  0  0  2  0  0  0  0  0  0
  157.8670  212.9450  151.2940 O   0  0  0  0  0  0  0  0  0  0  0  0
  160.8200  214.3330  149.8500 O   0  0  0  0  0  0  0  0  0  0  0  0
  161.5840  212.6720  148.2170 C   0  0  2  0  0  3  0  0  0  0  0  0
  161.1300  214.1170  148.4910 C   0  0  1  0  0  3  0  0  0  0  0  0
  163.0600  212.6520  147.8730 C   0  0  0  0  0  1  0  0  0  0  0  0
  160.7610  212.1750  147.0270 C   0  0  0  0  0  2  0  0  0  0  0  0
  159.8140  213.2870  146.8000 C   0  0  0  0  0  0  0  0  0  0  0  0
  158.9080  213.2710  145.9290 O   0  0  0  0  0  0  0  0  0  0  0  0
  160.0230  214.3580  147.6390 O   0  0  0  0  0  0  0  0  0  0  0  0
  1 13  1  0  0  0  0
  1 14  1  1  0  0  0
  2  7  1  0  0  0  0
  3  4  1  0  0  0  0
  3  2  2  0  0  0  0
  4 11  2  0  0  0  0
  5  8  1  0  0  0  0
  6 10  1  1  0  0  0
  6  8  1  0  0  0  0
  7 15  2  0  0  0  0
  9 30  1  6  0  0  0
  9  4  1  0  0  0  0
  9 13  1  0  0  0  0
 11 12  1  0  0  0  0
 11 15  1  0  0  0  0
 12 10  1  6  0  0  0
 13 12  1  0  0  0  0
 14  5  1  0  0  0  0
 16  1  1  0  0  0  0
 16  6  1  0  0  0  0
 17 18  2  0  0  0  0
 17 16  1  0  0  0  0
 19 17  1  0  0  0  0
 20 19  1  0  0  0  0
 21 20  1  0  0  0  0
 22 24  1  0  0  0  0
 23 21  1  0  0  0  0
 24 21  1  0  0  0  0
 24 29  2  0  0  0  0
 25 22  2  0  0  0  0
 25 26  1  0  0  0  0
 26 27  1  0  0  0  0
 27 29  1  0  0  0  0
 28 23  2  0  0  0  0
 28 22  1  0  0  0  0
 31 32  1  0  0  0  0
 32 30  1  0  0  0  0
 33 35  2  0  0  0  0
 33 32  1  0  0  0  0
 34 33  1  0  0  0  0
 36 34  1  0  0  0  0
 37 38  1  0  0  0  0
 38 36  1  0  0  0  0
 39 37  1  0  0  0  0
 40 37  1  0  0  0  0
 41 40  1  0  0  0  0
 41 43  1  0  0  0  0
 42 41  2  0  0  0  0
 43 38  1  0  0  0  0
M  END
>  <MODEL>
1

>  <REMARK>
 VINA RESULT:      -8.0      0.000      0.000
  Name = 
  8 active torsions:
  status: ('A' for Active; 'I' for Inactive)
    1  A    between atoms: C_2  and  C_21
    2  A    between atoms: C_7  and  O_32
    3  A    between atoms: C_8  and  C_43
    4  A    between atoms: C_10  and  C_15
    5  A    between atoms: C_10  and  C_28
    6  A    between atoms: C_21  and  N_38
    7  A    between atoms: C_22  and  C_28
    8  A    between atoms: N_31  and  O_32
                            x       y       z     vdW  Elec       q    Type
                         _______ _______ _______ _____ _____    ______ ____

>  <TORSDO>
F 8

$$$$
=
 OpenBabel11072413343D

 43 49  0  0  1  0  0  0  0  0999 V2000
  160.8070  211.4550  153.9150 C   0  0  1  0  0  3  0  0  0  0  0  0
  155.5460  214.1210  155.5750 C   0  0  0  0  0  3  0  0  0  0  0  0
  156.6340  214.2430  154.6980 C   0  0  0  0  0  3  0  0  0  0  0  0
  157.6700  213.3080  154.7840 C   0  0  0  0  0  0  0  0  0  0  0  0
  161.9830  209.5500  155.1520 C   0  0  0  0  0  2  0  0  0  0  0  0
  159.6320  209.3320  154.4380 C   0  0  1  0  0  3  0  0  0  0  0  0
  155.5080  213.0790  156.5170 C   0  0  0  0  0  3  0  0  0  0  0  0
  160.6430  209.0570  155.4830 N   0  0  0  0  0  2  0  0  0  0  0  0
  158.9050  213.2810  153.9620 C   0  0  1  0  0  3  0  0  0  0  0  0
  158.4450  210.0540  155.0700 C   0  0  0  0  0  2  0  0  0  0  0  0
  157.6330  212.2880  155.7130 C   0  0  0  0  0  0  0  0  0  0  0  0
  158.8390  211.4270  155.6540 C   0  0  2  0  0  3  0  0  0  0  0  0
  159.7690  212.2530  154.7250 C   0  0  1  0  0  3  0  0  0  0  0  0
  161.9600  211.0540  154.8510 C   0  0  0  0  0  2  0  0  0  0  0  0
  156.5580  212.1520  156.5930 C   0  0  0  0  0  3  0  0  0  0  0  0
  160.1280  210.2270  153.2910 C   0  0  2  0  0  3  0  0  0  0  0  0
  160.9690  209.4950  152.2800 C   0  0  0  0  0  0  0  0  0  0  0  0
  161.8120  210.1200  151.5810 O   0  0  0  0  0  0  0  0  0  0  0  0
  160.7530  208.1010  152.0590 N   0  0  0  0  0  2  0  0  0  0  0  0
  161.5950  207.3210  151.1660 C   0  0  0  0  0  2  0  0  0  0  0  0
  160.8080  206.9440  149.9220 C   0  0  1  0  0  3  0  0  0  0  0  0
  161.5580  205.2970  148.4310 C   0  0  0  0  0  0  0  0  0  0  0  0
  161.5350  207.4610  148.6910 C   0  0  0  0  0  3  0  0  0  0  0  0
  160.8980  205.4790  149.6820 C   0  0  0  0  0  0  0  0  0  0  0  0
  161.6610  204.1450  147.8440 N   0  0  0  0  0  0  0  0  0  0  0  0
  161.0020  202.9660  148.4280 C   0  0  0  0  0  2  0  0  0  0  0  0
  160.8740  203.0620  149.9690 C   0  0  0  0  0  2  0  0  0  0  0  0
  161.9480  206.5350  147.8750 N   0  0  0  0  0  0  0  0  0  0  0  0
  160.5010  204.4540  150.4280 C   0  0  0  0  0  3  0  0  0  0  0  0
  158.5520  212.8250  152.5500 C   0  0  0  0  0  2  0  0  0  0  0  0
  159.9690  214.4140  151.2590 C   0  0  0  0  0  1  0  0  0  0  0  0
  158.5490  214.0030  151.5880 C   0  0  1  0  0  3  0  0  0  0  0  0
  157.7710  213.7180  150.3340 C   0  0  0  0  0  0  0  0  0  0  0  0
  158.3920  213.6640  149.0430 N   0  0  0  0  0  2  0  0  0  0  0  0
  156.5390  213.4910  150.4280 O   0  0  0  0  0  0  0  0  0  0  0  0
  159.6900  214.0160  148.8400 O   0  0  0  0  0  0  0  0  0  0  0  0
  160.5220  213.3750  146.6250 C   0  0  2  0  0  3  0  0  0  0  0  0
  160.3010  212.9830  148.0960 C   0  0  1  0  0  3  0  0  0  0  0  0
  159.5990  212.5680  145.7330 C   0  0  0  0  0  1  0  0  0  0  0  0
  161.9800  213.0470  146.3010 C   0  0  0  0  0  2  0  0  0  0  0  0
  162.5210  212.6400  147.6150 C   0  0  0  0  0  0  0  0  0  0  0  0
  163.7230  212.3300  147.8150 O   0  0  0  0  0  0  0  0  0  0  0  0
  161.5720  212.6260  148.6120 O   0  0  0  0  0  0  0  0  0  0  0  0
  1 13  1  0  0  0  0
  1 14  1  1  0  0  0
  2  7  1  0  0  0  0
  3  4  1  0  0  0  0
  3  2  2  0  0  0  0
  4 11  2  0  0  0  0
  5  8  1  0  0  0  0
  6 10  1  1  0  0  0
  6  8  1  0  0  0  0
  7 15  2  0  0  0  0
  9 30  1  6  0  0  0
  9 13  1  0  0  0  0
  9  4  1  0  0  0  0
 11 15  1  0  0  0  0
 12 10  1  6  0  0  0
 12 11  1  0  0  0  0
 13 12  1  0  0  0  0
 14  5  1  0  0  0  0
 16  1  1  0  0  0  0
 16  6  1  0  0  0  0
 17 16  1  0  0  0  0
 18 17  2  0  0  0  0
 19 17  1  0  0  0  0
 20 19  1  0  0  0  0
 21 20  1  0  0  0  0
 22 24  1  0  0  0  0
 23 21  1  0  0  0  0
 24 21  1  0  0  0  0
 24 29  2  0  0  0  0
 25 26  1  0  0  0  0
 25 22  2  0  0  0  0
 26 27  1  0  0  0  0
 27 29  1  0  0  0  0
 28 22  1  0  0  0  0
 28 23  2  0  0  0  0
 31 32  1  0  0  0  0
 32 30  1  0  0  0  0
 33 35  2  0  0  0  0
 33 32  1  0  0  0  0
 34 33  1  0  0  0  0
 36 34  1  0  0  0  0
 37 38  1  0  0  0  0
 38 43  1  0  0  0  0
 38 36  1  0  0  0  0
 39 37  1  0  0  0  0
 40 37  1  0  0  0  0
 40 41  1  0  0  0  0
 41 42  2  0  0  0  0
 41 43  1  0  0  0  0
M  END
>  <MODEL>
2

>  <REMARK>
 VINA RESULT:      -7.2      1.534      1.962
  Name = 
  8 active torsions:
  status: ('A' for Active; 'I' for Inactive)
    1  A    between atoms: C_2  and  C_21
    2  A    between atoms: C_7  and  O_32
    3  A    between atoms: C_8  and  C_43
    4  A    between atoms: C_10  and  C_15
    5  A    between atoms: C_10  and  C_28
    6  A    between atoms: C_21  and  N_38
    7  A    between atoms: C_22  and  C_28
    8  A    between atoms: N_31  and  O_32
                            x       y       z     vdW  Elec       q    Type
                         _______ _______ _______ _____ _____    ______ ____

>  <TORSDO>
F 8

$$$$
