=
 OpenBabel11072415133D

 39 43  0  0  1  0  0  0  0  0999 V2000
  159.6710  211.3170  154.4220 C   0  0  0  0  0  0  0  0  0  0  0  0
  160.3810  209.0560  155.0680 N   0  0  0  0  0  0  0  0  0  0  0  0
  160.8620  209.2490  156.4130 C   0  0  0  0  0  0  0  0  0  0  0  0
  160.0610  211.9560  151.9630 C   0  0  1  0  0  3  0  0  0  0  0  0
  161.6360  207.6410  151.9090 C   0  0  2  0  0  3  0  0  0  0  0  0
  161.7110  205.5880  154.0350 C   0  0  0  0  0  2  0  0  0  0  0  0
  159.0400  211.6090  155.7230 C   0  0  0  0  0  3  0  0  0  0  0  0
  159.4080  212.3200  153.3090 C   0  0  2  0  0  3  0  0  0  0  0  0
  159.3230  211.0980  156.9190 C   0  0  0  0  0  3  0  0  0  0  0  0
  161.0800  206.7440  154.7660 C   0  0  0  0  0  3  0  0  0  0  0  0
  161.9040  208.4220  156.9230 N   0  0  0  0  0  1  0  0  0  0  0  0
  161.2360  206.2150  151.6680 C   0  0  0  0  0  3  0  0  0  0  0  0
  160.3470  210.1410  157.2030 N   0  0  0  0  0  0  0  0  0  0  0  0
  160.5360  208.2530  152.7880 C   0  0  2  0  0  3  0  0  0  0  0  0
  160.4630  209.7110  152.7880 N   0  0  0  0  0  0  0  0  0  0  0  0
  161.2170  205.3050  152.6470 C   0  0  0  0  0  3  0  0  0  0  0  0
  160.2130  210.1180  154.1350 C   0  0  0  0  0  0  0  0  0  0  0  0
  159.9200  210.4680  151.6710 C   0  0  0  0  0  2  0  0  0  0  0  0
  160.6780  207.9170  154.2510 C   0  0  0  0  0  0  0  0  0  0  0  0
  160.2690  212.9370  149.6670 C   0  0  0  0  0  0  0  0  0  0  0  0
  158.1570  213.3060  151.0000 C   0  0  0  0  0  1  0  0  0  0  0  0
  159.5000  212.7470  150.8680 N   0  0  0  0  0  0  0  0  0  0  0  0
  161.4910  212.6200  149.6510 O   0  0  0  0  0  0  0  0  0  0  0  0
  160.5740  214.4520  147.6730 C   0  0  0  0  0  2  0  0  0  0  0  0
  160.2410  213.0850  147.0940 C   0  0  0  0  0  2  0  0  0  0  0  0
  159.6540  213.5110  148.4220 C   0  0  0  0  0  0  0  0  0  0  0  0
  158.2090  213.9920  148.4330 C   0  0  0  0  0  2  0  0  0  0  0  0
  157.0290  212.1580  147.4750 O   0  0  0  0  0  1  0  0  0  0  0  0
  157.1320  214.0520  146.1830 O   0  0  0  0  0  0  0  0  0  0  0  0
  157.4170  213.3490  147.3470 C   0  0  0  0  0  0  0  0  0  0  0  0
  162.6340  209.2680  150.4560 O   0  0  0  0  0  0  0  0  0  0  0  0
  161.7980  208.3290  150.5880 C   0  0  0  0  0  0  0  0  0  0  0  0
  161.0090  207.9190  149.5130 O   0  0  0  0  0  0  0  0  0  0  0  0
  160.3710  206.5880  147.1470 O   0  0  0  0  0  0  0  0  0  0  0  0
  161.5640  206.8030  148.3310 P   0  0  0  0  0  0  0  0  0  0  0  0
  162.8270  207.3270  147.6880 O   0  0  0  0  0  1  0  0  0  0  0  0
  161.8820  205.3160  149.0740 O   0  0  0  0  0  1  0  0  0  0  0  0
  159.8040  213.7360  153.7250 C   0  0  0  0  0  2  0  0  0  0  0  0
  158.7070  214.4220  154.2490 O   0  0  0  0  0  1  0  0  0  0  0  0
  1  7  1  0  0  0  0
  2  3  1  0  0  0  0
  3 11  1  0  0  0  0
  3 13  2  0  0  0  0
  4 22  1  6  0  0  0
  4  8  1  0  0  0  0
  5 32  1  6  0  0  0
  5 14  1  0  0  0  0
  6 10  1  0  0  0  0
  7  9  2  0  0  0  0
  8 38  1  1  0  0  0
  8  1  1  0  0  0  0
  9 13  1  0  0  0  0
 12  5  1  0  0  0  0
 12 16  2  0  0  0  0
 14 19  1  1  0  0  0
 15 14  1  0  0  0  0
 15 17  1  0  0  0  0
 16  6  1  0  0  0  0
 17  1  2  0  0  0  0
 17  2  1  0  0  0  0
 18  4  1  0  0  0  0
 18 15  1  0  0  0  0
 19 10  2  0  0  0  0
 19  2  1  0  0  0  0
 20 22  1  0  0  0  0
 22 21  1  0  0  0  0
 23 20  2  0  0  0  0
 24 26  1  0  0  0  0
 25 24  1  0  0  0  0
 25 26  1  0  0  0  0
 26 27  1  0  0  0  0
 26 20  1  0  0  0  0
 29 30  2  0  0  0  0
 30 28  1  0  0  0  0
 30 27  1  0  0  0  0
 31 32  2  0  0  0  0
 33 32  1  0  0  0  0
 34 35  2  0  0  0  0
 35 37  1  0  0  0  0
 35 33  1  0  0  0  0
 36 35  1  0  0  0  0
 38 39  1  0  0  0  0
M  END
>  <MODEL>
1

>  <REMARK>
 VINA RESULT:      -4.1      0.000      0.000
  Name = 
  8 active torsions:
  status: ('A' for Active; 'I' for Inactive)
    1  A    between atoms: C_6  and  C_39
    2  A    between atoms: C_8  and  N_27
    3  A    between atoms: C_9  and  C_22
    4  A    between atoms: C_13  and  C_15
    5  A    between atoms: C_20  and  C_37
    6  A    between atoms: P_21  and  O_23
    7  A    between atoms: C_22  and  O_23
    8  A    between atoms: C_37  and  C_39
                            x       y       z     vdW  Elec       q    Type
                         _______ _______ _______ _____ _____    ______ ____

>  <TORSDO>
F 8

$$$$
=
 OpenBabel11072415133D

 39 43  0  0  1  0  0  0  0  0999 V2000
  161.4590  210.0680  149.2790 C   0  0  0  0  0  0  0  0  0  0  0  0
  160.5790  212.1500  150.2410 N   0  0  0  0  0  0  0  0  0  0  0  0
  161.1580  213.1600  149.3900 C   0  0  0  0  0  0  0  0  0  0  0  0
  162.0070  208.2000  150.9570 C   0  0  1  0  0  3  0  0  0  0  0  0
  160.4130  211.3990  153.8420 C   0  0  2  0  0  3  0  0  0  0  0  0
  159.2820  214.0800  153.3160 C   0  0  0  0  0  2  0  0  0  0  0  0
  161.2530  210.4980  147.8820 C   0  0  0  0  0  3  0  0  0  0  0  0
  161.8350  208.6080  149.4830 C   0  0  2  0  0  3  0  0  0  0  0  0
  161.2160  211.7340  147.3890 C   0  0  0  0  0  3  0  0  0  0  0  0
  159.5970  213.6160  151.9180 C   0  0  0  0  0  3  0  0  0  0  0  0
  161.4500  214.4520  149.9140 N   0  0  0  0  0  1  0  0  0  0  0  0
  159.1710  211.8990  154.5210 C   0  0  0  0  0  3  0  0  0  0  0  0
  161.3950  212.9420  148.1330 N   0  0  0  0  0  0  0  0  0  0  0  0
  160.0300  211.1480  152.3760 C   0  0  2  0  0  3  0  0  0  0  0  0
  160.9160  210.2580  151.6330 N   0  0  0  0  0  0  0  0  0  0  0  0
  158.6320  213.0890  154.2360 C   0  0  0  0  0  3  0  0  0  0  0  0
  161.0780  210.8190  150.3290 C   0  0  0  0  0  0  0  0  0  0  0  0
  160.9200  208.8160  151.8260 C   0  0  0  0  0  2  0  0  0  0  0  0
  160.0160  212.3990  151.5350 C   0  0  0  0  0  0  0  0  0  0  0  0
  161.0560  205.9520  150.3920 C   0  0  0  0  0  0  0  0  0  0  0  0
  163.0290  206.1200  151.9580 C   0  0  0  0  0  1  0  0  0  0  0  0
  162.0200  206.7460  151.1080 N   0  0  0  0  0  0  0  0  0  0  0  0
  160.0780  206.5160  149.8270 O   0  0  0  0  0  0  0  0  0  0  0  0
  161.3460  203.7830  151.6460 C   0  0  0  0  0  2  0  0  0  0  0  0
  160.0480  203.6280  150.8680 C   0  0  0  0  0  2  0  0  0  0  0  0
  161.1800  204.4570  150.3010 C   0  0  0  0  0  0  0  0  0  0  0  0
  162.0450  203.8250  149.2190 C   0  0  0  0  0  2  0  0  0  0  0  0
  160.9850  204.5610  147.2160 O   0  0  0  0  0  0  0  0  0  0  0  0
  160.8230  202.3140  147.6540 O   0  0  0  0  0  1  0  0  0  0  0  0
  161.2650  203.5920  147.9710 C   0  0  0  0  0  0  0  0  0  0  0  0
  162.1300  209.9940  154.7530 O   0  0  0  0  0  0  0  0  0  0  0  0
  160.8940  210.1720  154.5530 C   0  0  0  0  0  0  0  0  0  0  0  0
  159.9580  209.2310  154.9840 O   0  0  0  0  0  0  0  0  0  0  0  0
  161.5040  208.0200  156.9630 O   0  0  0  0  0  1  0  0  0  0  0  0
  160.4100  207.7370  155.7000 P   0  0  0  0  0  0  0  0  0  0  0  0
  159.1840  207.0380  156.2390 O   0  0  0  0  0  1  0  0  0  0  0  0
  161.1510  206.7600  154.5320 O   0  0  0  0  0  0  0  0  0  0  0  0
  163.0780  208.2320  148.6780 C   0  0  0  0  0  2  0  0  0  0  0  0
  162.7730  207.2620  147.7220 O   0  0  0  0  0  1  0  0  0  0  0  0
  1  8  1  0  0  0  0
  1 17  2  0  0  0  0
  2 17  1  0  0  0  0
  2 19  1  0  0  0  0
  3 11  1  0  0  0  0
  3  2  1  0  0  0  0
  4 22  1  6  0  0  0
  4 18  1  0  0  0  0
  5 12  1  0  0  0  0
  5 32  1  1  0  0  0
  6 16  1  0  0  0  0
  7  1  1  0  0  0  0
  8 38  1  6  0  0  0
  8  4  1  0  0  0  0
  9  7  2  0  0  0  0
  9 13  1  0  0  0  0
 10  6  1  0  0  0  0
 13  3  2  0  0  0  0
 14 19  1  6  0  0  0
 14  5  1  0  0  0  0
 15 18  1  0  0  0  0
 15 14  1  0  0  0  0
 16 12  2  0  0  0  0
 17 15  1  0  0  0  0
 19 10  2  0  0  0  0
 20 22  1  0  0  0  0
 22 21  1  0  0  0  0
 23 20  2  0  0  0  0
 25 24  1  0  0  0  0
 26 20  1  0  0  0  0
 26 25  1  0  0  0  0
 26 24  1  0  0  0  0
 27 26  1  0  0  0  0
 28 30  2  0  0  0  0
 29 30  1  0  0  0  0
 30 27  1  0  0  0  0
 32 31  2  0  0  0  0
 32 33  1  0  0  0  0
 33 35  1  0  0  0  0
 35 36  1  0  0  0  0
 35 34  1  0  0  0  0
 37 35  2  0  0  0  0
 39 38  1  0  0  0  0
M  END
>  <MODEL>
2

>  <REMARK>
 VINA RESULT:      -3.8      3.359      7.777
  Name = 
  8 active torsions:
  status: ('A' for Active; 'I' for Inactive)
    1  A    between atoms: C_6  and  C_39
    2  A    between atoms: C_8  and  N_27
    3  A    between atoms: C_9  and  C_22
    4  A    between atoms: C_13  and  C_15
    5  A    between atoms: C_20  and  C_37
    6  A    between atoms: P_21  and  O_23
    7  A    between atoms: C_22  and  O_23
    8  A    between atoms: C_37  and  C_39
                            x       y       z     vdW  Elec       q    Type
                         _______ _______ _______ _____ _____    ______ ____

>  <TORSDO>
F 8

$$$$
=
 OpenBabel11072415133D

 39 43  0  0  1  0  0  0  0  0999 V2000
  161.8220  207.3780  149.3990 C   0  0  0  0  0  0  0  0  0  0  0  0
  161.3610  206.4260  151.6170 N   0  0  0  0  0  0  0  0  0  0  0  0
  160.7600  205.1560  151.2950 C   0  0  0  0  0  0  0  0  0  0  0  0
  161.5390  209.9240  149.1900 C   0  0  1  0  0  3  0  0  0  0  0  0
  160.5360  209.3900  153.6400 C   0  0  2  0  0  3  0  0  0  0  0  0
  160.5650  206.9760  155.3490 C   0  0  0  0  0  2  0  0  0  0  0  0
  162.3120  206.1060  148.8340 C   0  0  0  0  0  3  0  0  0  0  0  0
  162.0370  208.6180  148.5450 C   0  0  2  0  0  3  0  0  0  0  0  0
  162.0080  204.8620  149.1980 C   0  0  0  0  0  3  0  0  0  0  0  0
  160.9880  206.4010  154.0220 C   0  0  0  0  0  3  0  0  0  0  0  0
  159.7970  204.5810  152.1730 N   0  0  0  0  0  1  0  0  0  0  0  0
  161.1320  209.3830  155.0180 C   0  0  0  0  0  3  0  0  0  0  0  0
  161.0960  204.4870  150.2350 N   0  0  0  0  0  0  0  0  0  0  0  0
  161.4800  208.5580  152.7600 C   0  0  2  0  0  3  0  0  0  0  0  0
  161.3660  208.7810  151.3220 N   0  0  0  0  0  0  0  0  0  0  0  0
  161.1940  208.2750  155.7630 C   0  0  0  0  0  3  0  0  0  0  0  0
  161.4600  207.5030  150.6900 C   0  0  0  0  0  0  0  0  0  0  0  0
  161.8900  209.9720  150.6700 C   0  0  0  0  0  2  0  0  0  0  0  0
  161.2730  207.0700  152.8940 C   0  0  0  0  0  0  0  0  0  0  0  0
  161.1830  211.9480  147.7560 C   0  0  0  0  0  0  0  0  0  0  0  0
  163.4990  211.4000  148.5970 C   0  0  0  0  0  1  0  0  0  0  0  0
  162.0740  211.0960  148.4990 N   0  0  0  0  0  0  0  0  0  0  0  0
  160.0040  211.5630  147.5190 O   0  0  0  0  0  0  0  0  0  0  0  0
  160.5400  214.3490  147.3290 C   0  0  0  0  0  2  0  0  0  0  0  0
  161.7420  214.4130  148.2580 C   0  0  0  0  0  2  0  0  0  0  0  0
  161.6210  213.2930  147.2480 C   0  0  0  0  0  0  0  0  0  0  0  0
  162.4470  213.3970  145.9740 C   0  0  0  0  0  2  0  0  0  0  0  0
  161.6080  214.4430  144.0040 O   0  0  0  0  0  0  0  0  0  0  0  0
  160.7050  212.3910  144.4980 O   0  0  0  0  0  1  0  0  0  0  0  0
  161.5740  213.4410  144.7670 C   0  0  0  0  0  0  0  0  0  0  0  0
  161.2430  211.6780  153.5110 O   0  0  0  0  0  0  0  0  0  0  0  0
  160.3860  210.8080  153.1840 C   0  0  0  0  0  0  0  0  0  0  0  0
  159.2850  211.1500  152.3980 O   0  0  0  0  0  0  0  0  0  0  0  0
  158.8790  213.8050  153.1490 O   0  0  0  0  0  1  0  0  0  0  0  0
  159.0140  212.7490  151.8310 P   0  0  0  0  0  0  0  0  0  0  0  0
  160.1650  213.1800  150.9520 O   0  0  0  0  0  1  0  0  0  0  0  0
  157.5750  212.7880  150.9390 O   0  0  0  0  0  0  0  0  0  0  0  0
  161.4330  208.4490  147.1510 C   0  0  0  0  0  2  0  0  0  0  0  0
  160.7150  207.2550  147.0640 O   0  0  0  0  0  1  0  0  0  0  0  0
  1 17  2  0  0  0  0
  2 19  1  0  0  0  0
  3  2  1  0  0  0  0
  3 11  1  0  0  0  0
  4 22  1  6  0  0  0
  4 18  1  0  0  0  0
  5 32  1  6  0  0  0
  5 12  1  0  0  0  0
  6 16  1  0  0  0  0
  7  9  2  0  0  0  0
  7  1  1  0  0  0  0
  8 38  1  6  0  0  0
  8  4  1  0  0  0  0
  8  1  1  0  0  0  0
  9 13  1  0  0  0  0
 10  6  1  0  0  0  0
 12 16  2  0  0  0  0
 13  3  2  0  0  0  0
 14 19  1  6  0  0  0
 14  5  1  0  0  0  0
 15 14  1  0  0  0  0
 17 15  1  0  0  0  0
 17  2  1  0  0  0  0
 18 15  1  0  0  0  0
 19 10  2  0  0  0  0
 20 22  1  0  0  0  0
 22 21  1  0  0  0  0
 23 20  2  0  0  0  0
 24 25  1  0  0  0  0
 26 24  1  0  0  0  0
 26 20  1  0  0  0  0
 26 25  1  0  0  0  0
 27 26  1  0  0  0  0
 28 30  2  0  0  0  0
 29 30  1  0  0  0  0
 30 27  1  0  0  0  0
 32 31  2  0  0  0  0
 33 32  1  0  0  0  0
 35 33  1  0  0  0  0
 35 34  1  0  0  0  0
 36 35  1  0  0  0  0
 37 35  2  0  0  0  0
 39 38  1  0  0  0  0
M  END
>  <MODEL>
3

>  <REMARK>
 VINA RESULT:      -3.3      2.928      5.682
  Name = 
  8 active torsions:
  status: ('A' for Active; 'I' for Inactive)
    1  A    between atoms: C_6  and  C_39
    2  A    between atoms: C_8  and  N_27
    3  A    between atoms: C_9  and  C_22
    4  A    between atoms: C_13  and  C_15
    5  A    between atoms: C_20  and  C_37
    6  A    between atoms: P_21  and  O_23
    7  A    between atoms: C_22  and  O_23
    8  A    between atoms: C_37  and  C_39
                            x       y       z     vdW  Elec       q    Type
                         _______ _______ _______ _____ _____    ______ ____

>  <TORSDO>
F 8

$$$$
=
 OpenBabel11072415133D

 39 43  0  0  1  0  0  0  0  0999 V2000
  161.5540  209.9840  149.1390 C   0  0  0  0  0  0  0  0  0  0  0  0
  160.7320  212.1880  149.8460 N   0  0  0  0  0  0  0  0  0  0  0  0
  161.4290  213.0840  148.9590 C   0  0  0  0  0  0  0  0  0  0  0  0
  161.8690  208.2490  151.0090 C   0  0  1  0  0  3  0  0  0  0  0  0
  160.2610  211.7750  153.4750 C   0  0  2  0  0  3  0  0  0  0  0  0
  159.3310  214.4530  152.6340 C   0  0  0  0  0  2  0  0  0  0  0  0
  161.4760  210.2950  147.6990 C   0  0  0  0  0  3  0  0  0  0  0  0
  161.8280  208.5310  149.4960 C   0  0  2  0  0  3  0  0  0  0  0  0
  161.5470  211.4820  147.0990 C   0  0  0  0  0  3  0  0  0  0  0  0
  159.7180  213.8480  151.3100 C   0  0  0  0  0  3  0  0  0  0  0  0
  161.7570  214.4020  149.3900 N   0  0  0  0  0  1  0  0  0  0  0  0
  159.0050  212.3990  154.0110 C   0  0  0  0  0  3  0  0  0  0  0  0
  161.7430  212.7420  147.7470 N   0  0  0  0  0  0  0  0  0  0  0  0
  159.9710  211.4130  152.0120 C   0  0  2  0  0  3  0  0  0  0  0  0
  160.8550  210.4140  151.4190 N   0  0  0  0  0  0  0  0  0  0  0  0
  158.5600  213.5840  153.5840 C   0  0  0  0  0  3  0  0  0  0  0  0
  161.1430  210.8460  150.0880 C   0  0  0  0  0  0  0  0  0  0  0  0
  160.7600  208.9970  151.7350 C   0  0  0  0  0  2  0  0  0  0  0  0
  160.0920  212.5820  151.0670 C   0  0  0  0  0  0  0  0  0  0  0  0
  160.9270  205.9890  150.4790 C   0  0  0  0  0  0  0  0  0  0  0  0
  162.5960  206.2410  152.3560 C   0  0  0  0  0  1  0  0  0  0  0  0
  161.7850  206.8160  151.2860 N   0  0  0  0  0  0  0  0  0  0  0  0
  160.0930  206.5280  149.6990 O   0  0  0  0  0  0  0  0  0  0  0  0
  161.9150  203.9720  151.6250 C   0  0  0  0  0  2  0  0  0  0  0  0
  160.4090  203.8160  151.7640 C   0  0  0  0  0  2  0  0  0  0  0  0
  160.9940  204.4890  150.5420 C   0  0  0  0  0  0  0  0  0  0  0  0
  161.0820  203.6720  149.2600 C   0  0  0  0  0  2  0  0  0  0  0  0
  161.5160  201.4720  150.0670 O   0  0  0  0  0  1  0  0  0  0  0  0
  159.4700  201.7760  149.0730 O   0  0  0  0  0  0  0  0  0  0  0  0
  160.7040  202.2500  149.5000 C   0  0  0  0  0  0  0  0  0  0  0  0
  159.7370  209.7410  154.6330 O   0  0  0  0  0  0  0  0  0  0  0  0
  160.6170  210.5940  154.3250 C   0  0  0  0  0  0  0  0  0  0  0  0
  161.9320  210.4590  154.7730 O   0  0  0  0  0  0  0  0  0  0  0  0
  162.3060  209.1580  157.2110 O   0  0  0  0  0  1  0  0  0  0  0  0
  162.3720  210.6550  156.4220 P   0  0  0  0  0  0  0  0  0  0  0  0
  163.7730  211.2150  156.5130 O   0  0  0  0  0  0  0  0  0  0  0  0
  161.2880  211.7230  157.1650 O   0  0  0  0  0  1  0  0  0  0  0  0
  163.1020  208.0190  148.8260 C   0  0  0  0  0  2  0  0  0  0  0  0
  162.7950  207.1170  147.8050 O   0  0  0  0  0  1  0  0  0  0  0  0
  1  8  1  0  0  0  0
  1 17  2  0  0  0  0
  2 17  1  0  0  0  0
  2 19  1  0  0  0  0
  3 11  1  0  0  0  0
  3  2  1  0  0  0  0
  4 22  1  6  0  0  0
  4 18  1  0  0  0  0
  5 12  1  0  0  0  0
  5 32  1  1  0  0  0
  6 16  1  0  0  0  0
  7  1  1  0  0  0  0
  8 38  1  1  0  0  0
  8  4  1  0  0  0  0
  9  7  2  0  0  0  0
  9 13  1  0  0  0  0
 10  6  1  0  0  0  0
 13  3  2  0  0  0  0
 14 19  1  6  0  0  0
 14  5  1  0  0  0  0
 15 18  1  0  0  0  0
 15 14  1  0  0  0  0
 16 12  2  0  0  0  0
 17 15  1  0  0  0  0
 19 10  2  0  0  0  0
 20 26  1  0  0  0  0
 20 22  1  0  0  0  0
 22 21  1  0  0  0  0
 23 20  2  0  0  0  0
 24 25  1  0  0  0  0
 26 24  1  0  0  0  0
 26 25  1  0  0  0  0
 27 30  1  0  0  0  0
 27 26  1  0  0  0  0
 29 30  2  0  0  0  0
 30 28  1  0  0  0  0
 32 31  2  0  0  0  0
 32 33  1  0  0  0  0
 33 35  1  0  0  0  0
 35 36  2  0  0  0  0
 35 37  1  0  0  0  0
 35 34  1  0  0  0  0
 39 38  1  0  0  0  0
M  END
>  <MODEL>
4

>  <REMARK>
 VINA RESULT:      -3.0      3.474      8.256
  Name = 
  8 active torsions:
  status: ('A' for Active; 'I' for Inactive)
    1  A    between atoms: C_6  and  C_39
    2  A    between atoms: C_8  and  N_27
    3  A    between atoms: C_9  and  C_22
    4  A    between atoms: C_13  and  C_15
    5  A    between atoms: C_20  and  C_37
    6  A    between atoms: P_21  and  O_23
    7  A    between atoms: C_22  and  O_23
    8  A    between atoms: C_37  and  C_39
                            x       y       z     vdW  Elec       q    Type
                         _______ _______ _______ _____ _____    ______ ____

>  <TORSDO>
F 8

$$$$
=
 OpenBabel11072415133D

 39 43  0  0  1  0  0  0  0  0999 V2000
  158.6080  210.0550  138.0290 C   0  0  0  0  0  0  0  0  0  0  0  0
  160.7890  210.2770  139.1370 N   0  0  0  0  0  0  0  0  0  0  0  0
  161.2580  208.9140  139.1860 C   0  0  0  0  0  0  0  0  0  0  0  0
  156.7660  211.6490  138.8470 C   0  0  1  0  0  3  0  0  0  0  0  0
  160.2460  213.0510  141.4970 C   0  0  2  0  0  3  0  0  0  0  0  0
  163.0740  212.1920  141.5810 C   0  0  0  0  0  2  0  0  0  0  0  0
  159.0920  209.0820  137.0300 C   0  0  0  0  0  3  0  0  0  0  0  0
  157.2130  210.6160  137.7980 C   0  0  2  0  0  3  0  0  0  0  0  0
  160.1070  208.2270  137.1260 C   0  0  0  0  0  3  0  0  0  0  0  0
  162.5310  211.3030  140.4930 C   0  0  0  0  0  3  0  0  0  0  0  0
  162.1090  208.4910  140.2470 N   0  0  0  0  0  1  0  0  0  0  0  0
  161.3840  214.0260  141.5770 C   0  0  0  0  0  3  0  0  0  0  0  0
  160.9570  208.0530  138.2630 N   0  0  0  0  0  0  0  0  0  0  0  0
  160.2930  212.4490  140.0850 C   0  0  2  0  0  3  0  0  0  0  0  0
  159.0580  211.8270  139.6200 N   0  0  0  0  0  0  0  0  0  0  0  0
  162.6610  213.6350  141.5560 C   0  0  0  0  0  3  0  0  0  0  0  0
  159.4250  210.6290  138.9320 C   0  0  0  0  0  0  0  0  0  0  0  0
  157.9010  212.6010  139.1970 C   0  0  0  0  0  2  0  0  0  0  0  0
  161.3110  211.3480  139.9330 C   0  0  0  0  0  0  0  0  0  0  0  0
  154.3040  212.1020  138.9590 C   0  0  0  0  0  0  0  0  0  0  0  0
  155.7550  213.4480  137.3920 C   0  0  0  0  0  1  0  0  0  0  0  0
  155.5940  212.3960  138.3920 N   0  0  0  0  0  0  0  0  0  0  0  0
  154.1540  211.0670  139.6660 O   0  0  0  0  0  0  0  0  0  0  0  0
  153.2120  213.7980  137.4460 C   0  0  0  0  0  2  0  0  0  0  0  0
  152.2070  212.6630  137.5690 C   0  0  0  0  0  2  0  0  0  0  0  0
  153.1200  212.9990  138.7280 C   0  0  0  0  0  0  0  0  0  0  0  0
  152.5340  213.8040  139.8790 C   0  0  0  0  0  2  0  0  0  0  0  0
  153.0700  213.1480  142.1060 O   0  0  0  0  0  1  0  0  0  0  0  0
  154.6390  214.4510  141.0520 O   0  0  0  0  0  0  0  0  0  0  0  0
  153.4280  213.7720  141.0720 C   0  0  0  0  0  0  0  0  0  0  0  0
  158.3930  214.4530  140.9050 O   0  0  0  0  0  0  0  0  0  0  0  0
  158.9670  213.7700  141.8000 C   0  0  0  0  0  0  0  0  0  0  0  0
  158.4290  213.6770  143.0840 O   0  0  0  0  0  0  0  0  0  0  0  0
  160.1840  211.6250  143.7780 O   0  0  0  0  0  0  0  0  0  0  0  0
  159.2540  212.9070  144.3790 P   0  0  0  0  0  0  0  0  0  0  0  0
  160.1520  213.9030  145.0750 O   0  0  0  0  0  1  0  0  0  0  0  0
  158.1200  212.3020  145.4810 O   0  0  0  0  0  1  0  0  0  0  0  0
  156.1750  209.5020  137.6720 C   0  0  0  0  0  2  0  0  0  0  0  0
  156.2050  208.6690  138.7920 O   0  0  0  0  0  1  0  0  0  0  0  0
  1 17  2  0  0  0  0
  2  3  1  0  0  0  0
  2 19  1  0  0  0  0
  3 11  1  0  0  0  0
  4 22  1  6  0  0  0
  4 18  1  0  0  0  0
  5 12  1  0  0  0  0
  5 32  1  6  0  0  0
  7  9  2  0  0  0  0
  7  1  1  0  0  0  0
  8 38  1  1  0  0  0
  8  1  1  0  0  0  0
  8  4  1  0  0  0  0
  9 13  1  0  0  0  0
 10  6  1  0  0  0  0
 13  3  2  0  0  0  0
 14 19  1  1  0  0  0
 14  5  1  0  0  0  0
 15 14  1  0  0  0  0
 16 12  2  0  0  0  0
 16  6  1  0  0  0  0
 17  2  1  0  0  0  0
 17 15  1  0  0  0  0
 18 15  1  0  0  0  0
 19 10  2  0  0  0  0
 20 23  2  0  0  0  0
 21 22  1  0  0  0  0
 22 20  1  0  0  0  0
 24 25  1  0  0  0  0
 24 26  1  0  0  0  0
 25 26  1  0  0  0  0
 26 20  1  0  0  0  0
 26 27  1  0  0  0  0
 27 30  1  0  0  0  0
 29 30  2  0  0  0  0
 30 28  1  0  0  0  0
 31 32  2  0  0  0  0
 32 33  1  0  0  0  0
 33 35  1  0  0  0  0
 34 35  2  0  0  0  0
 35 36  1  0  0  0  0
 35 37  1  0  0  0  0
 38 39  1  0  0  0  0
M  END
>  <MODEL>
5

>  <REMARK>
 VINA RESULT:      -3.0     10.885     13.432
  Name = 
  8 active torsions:
  status: ('A' for Active; 'I' for Inactive)
    1  A    between atoms: C_6  and  C_39
    2  A    between atoms: C_8  and  N_27
    3  A    between atoms: C_9  and  C_22
    4  A    between atoms: C_13  and  C_15
    5  A    between atoms: C_20  and  C_37
    6  A    between atoms: P_21  and  O_23
    7  A    between atoms: C_22  and  O_23
    8  A    between atoms: C_37  and  C_39
                            x       y       z     vdW  Elec       q    Type
                         _______ _______ _______ _____ _____    ______ ____

>  <TORSDO>
F 8

$$$$
=
 OpenBabel11072415133D

 39 43  0  0  1  0  0  0  0  0999 V2000
  161.0430  205.6220  152.2930 C   0  0  0  0  0  0  0  0  0  0  0  0
  160.8940  204.5340  150.0950 N   0  0  0  0  0  0  0  0  0  0  0  0
  161.3170  203.1860  150.3810 C   0  0  0  0  0  0  0  0  0  0  0  0
  161.7980  208.0790  152.2810 C   0  0  1  0  0  3  0  0  0  0  0  0
  161.8120  207.2350  147.7660 C   0  0  2  0  0  3  0  0  0  0  0  0
  161.0360  204.8160  146.2520 C   0  0  0  0  0  2  0  0  0  0  0  0
  160.4590  204.4780  153.0200 C   0  0  0  0  0  3  0  0  0  0  0  0
  161.2160  206.9060  153.0900 C   0  0  2  0  0  3  0  0  0  0  0  0
  160.4670  203.1900  152.6870 C   0  0  0  0  0  3  0  0  0  0  0  0
  160.7850  204.3680  147.6690 C   0  0  0  0  0  3  0  0  0  0  0  0
  161.9780  202.4190  149.3800 N   0  0  0  0  0  1  0  0  0  0  0  0
  160.9690  207.2940  146.5250 C   0  0  0  0  0  3  0  0  0  0  0  0
  161.0820  202.6230  151.5270 N   0  0  0  0  0  0  0  0  0  0  0  0
  160.9280  206.6160  148.8570 C   0  0  2  0  0  3  0  0  0  0  0  0
  161.3540  206.8590  150.2320 N   0  0  0  0  0  0  0  0  0  0  0  0
  160.5730  206.1940  145.8790 C   0  0  0  0  0  3  0  0  0  0  0  0
  161.1640  205.6390  150.9520 C   0  0  0  0  0  0  0  0  0  0  0  0
  161.1810  208.1440  150.8910 C   0  0  0  0  0  2  0  0  0  0  0  0
  160.8430  205.1130  148.7850 C   0  0  0  0  0  0  0  0  0  0  0  0
  160.3510  209.6410  153.6020 C   0  0  0  0  0  0  0  0  0  0  0  0
  162.7320  210.2890  153.0650 C   0  0  0  0  0  1  0  0  0  0  0  0
  161.6170  209.3500  152.9810 N   0  0  0  0  0  0  0  0  0  0  0  0
  159.3500  208.9150  153.3500 O   0  0  0  0  0  0  0  0  0  0  0  0
  159.3670  210.4620  155.7740 C   0  0  0  0  0  2  0  0  0  0  0  0
  160.8650  210.7000  155.8950 C   0  0  0  0  0  2  0  0  0  0  0  0
  160.1860  210.7980  154.5460 C   0  0  0  0  0  0  0  0  0  0  0  0
  159.8870  212.1900  154.0060 C   0  0  0  0  0  2  0  0  0  0  0  0
  158.7000  212.1560  151.9410 O   0  0  0  0  0  0  0  0  0  0  0  0
  157.4000  212.2780  153.8280 O   0  0  0  0  0  1  0  0  0  0  0  0
  158.6350  212.1980  153.1980 C   0  0  0  0  0  0  0  0  0  0  0  0
  163.4630  208.7970  148.5290 O   0  0  0  0  0  0  0  0  0  0  0  0
  162.2910  208.6150  148.0940 C   0  0  0  0  0  0  0  0  0  0  0  0
  161.4200  209.6910  147.9150 O   0  0  0  0  0  0  0  0  0  0  0  0
  160.6080  212.3580  147.8830 O   0  0  0  0  0  1  0  0  0  0  0  0
  161.8060  211.2870  148.4190 P   0  0  0  0  0  0  0  0  0  0  0  0
  161.8950  211.3390  149.9270 O   0  0  0  0  0  1  0  0  0  0  0  0
  163.2940  211.7390  147.7490 O   0  0  0  0  0  0  0  0  0  0  0  0
  162.0390  206.6730  154.3560 C   0  0  0  0  0  2  0  0  0  0  0  0
  161.3400  207.1020  155.4860 O   0  0  0  0  0  1  0  0  0  0  0  0
  1  7  1  0  0  0  0
  1  8  1  0  0  0  0
  2  3  1  0  0  0  0
  2 17  1  0  0  0  0
  3 13  2  0  0  0  0
  4 22  1  1  0  0  0
  4  8  1  0  0  0  0
  5 32  1  1  0  0  0
  5 14  1  0  0  0  0
  6 10  1  0  0  0  0
  8 38  1  1  0  0  0
  9  7  2  0  0  0  0
 10 19  2  0  0  0  0
 11  3  1  0  0  0  0
 12  5  1  0  0  0  0
 13  9  1  0  0  0  0
 14 19  1  6  0  0  0
 14 15  1  0  0  0  0
 15 18  1  0  0  0  0
 15 17  1  0  0  0  0
 16  6  1  0  0  0  0
 16 12  2  0  0  0  0
 17  1  2  0  0  0  0
 18  4  1  0  0  0  0
 19  2  1  0  0  0  0
 20 26  1  0  0  0  0
 22 21  1  0  0  0  0
 22 20  1  0  0  0  0
 23 20  2  0  0  0  0
 24 25  1  0  0  0  0
 26 24  1  0  0  0  0
 26 25  1  0  0  0  0
 27 26  1  0  0  0  0
 28 30  2  0  0  0  0
 30 29  1  0  0  0  0
 30 27  1  0  0  0  0
 32 31  2  0  0  0  0
 33 32  1  0  0  0  0
 33 35  1  0  0  0  0
 34 35  1  0  0  0  0
 35 36  1  0  0  0  0
 37 35  2  0  0  0  0
 38 39  1  0  0  0  0
M  END
>  <MODEL>
6

>  <REMARK>
 VINA RESULT:      -3.0      3.377      6.388
  Name = 
  8 active torsions:
  status: ('A' for Active; 'I' for Inactive)
    1  A    between atoms: C_6  and  C_39
    2  A    between atoms: C_8  and  N_27
    3  A    between atoms: C_9  and  C_22
    4  A    between atoms: C_13  and  C_15
    5  A    between atoms: C_20  and  C_37
    6  A    between atoms: P_21  and  O_23
    7  A    between atoms: C_22  and  O_23
    8  A    between atoms: C_37  and  C_39
                            x       y       z     vdW  Elec       q    Type
                         _______ _______ _______ _____ _____    ______ ____

>  <TORSDO>
F 8

$$$$
=
 OpenBabel11072415133D

 39 43  0  0  1  0  0  0  0  0999 V2000
  161.1130  208.0720  152.3040 C   0  0  0  0  0  0  0  0  0  0  0  0
  160.9210  205.6580  151.8890 N   0  0  0  0  0  0  0  0  0  0  0  0
  161.3820  205.0870  153.1300 C   0  0  0  0  0  0  0  0  0  0  0  0
  161.8140  209.5050  150.2900 C   0  0  1  0  0  3  0  0  0  0  0  0
  161.7090  205.3640  148.3040 C   0  0  2  0  0  3  0  0  0  0  0  0
  160.9390  202.7230  149.3890 C   0  0  0  0  0  2  0  0  0  0  0  0
  160.5760  207.9890  153.6760 C   0  0  0  0  0  3  0  0  0  0  0  0
  161.2820  209.4710  151.7340 C   0  0  2  0  0  3  0  0  0  0  0  0
  160.6020  206.9590  154.5190 C   0  0  0  0  0  3  0  0  0  0  0  0
  160.7420  203.6040  150.5950 C   0  0  0  0  0  3  0  0  0  0  0  0
  162.0280  203.8180  153.1350 N   0  0  0  0  0  1  0  0  0  0  0  0
  160.8280  204.4090  147.5530 C   0  0  0  0  0  3  0  0  0  0  0  0
  161.1940  205.6810  154.2690 N   0  0  0  0  0  0  0  0  0  0  0  0
  160.8720  205.8900  149.4790 C   0  0  2  0  0  3  0  0  0  0  0  0
  161.3340  207.1370  150.0790 N   0  0  0  0  0  0  0  0  0  0  0  0
  160.4360  203.2410  148.0730 C   0  0  0  0  0  3  0  0  0  0  0  0
  161.1930  206.9990  151.4940 C   0  0  0  0  0  0  0  0  0  0  0  0
  161.1530  208.4300  149.4380 C   0  0  0  0  0  2  0  0  0  0  0  0
  160.8180  204.9430  150.6510 C   0  0  0  0  0  0  0  0  0  0  0  0
  162.2350  211.1090  148.4110 C   0  0  0  0  0  0  0  0  0  0  0  0
  160.8030  211.8170  150.3670 C   0  0  0  0  0  1  0  0  0  0  0  0
  161.6270  210.8230  149.6850 N   0  0  0  0  0  0  0  0  0  0  0  0
  163.0970  210.3180  147.9390 O   0  0  0  0  0  0  0  0  0  0  0  0
  162.6740  213.5600  148.0110 C   0  0  0  0  0  2  0  0  0  0  0  0
  162.9080  212.8850  146.6680 C   0  0  0  0  0  2  0  0  0  0  0  0
  161.8710  212.3370  147.6240 C   0  0  0  0  0  0  0  0  0  0  0  0
  160.4100  212.6610  147.3430 C   0  0  0  0  0  2  0  0  0  0  0  0
  160.0770  211.8280  145.1360 O   0  0  0  0  0  0  0  0  0  0  0  0
  160.0700  214.1130  145.3430 O   0  0  0  0  0  1  0  0  0  0  0  0
  160.1680  212.8380  145.8830 C   0  0  0  0  0  0  0  0  0  0  0  0
  163.0950  207.2290  147.7070 O   0  0  0  0  0  0  0  0  0  0  0  0
  162.1680  206.4390  147.3680 C   0  0  0  0  0  0  0  0  0  0  0  0
  161.5510  206.5550  146.1210 O   0  0  0  0  0  0  0  0  0  0  0  0
  160.4190  204.3850  144.7860 O   0  0  0  0  0  1  0  0  0  0  0  0
  161.7720  205.4010  144.8690 P   0  0  0  0  0  0  0  0  0  0  0  0
  161.9540  206.1110  143.5470 O   0  0  0  0  0  0  0  0  0  0  0  0
  163.1460  204.4700  145.2050 O   0  0  0  0  0  1  0  0  0  0  0  0
  162.1480  210.3450  152.6400 C   0  0  0  0  0  2  0  0  0  0  0  0
  161.3570  211.0610  153.5400 O   0  0  0  0  0  1  0  0  0  0  0  0
  1  7  1  0  0  0  0
  2  3  1  0  0  0  0
  3 11  1  0  0  0  0
  3 13  2  0  0  0  0
  4 22  1  6  0  0  0
  4  8  1  0  0  0  0
  5 32  1  6  0  0  0
  5 14  1  0  0  0  0
  6 10  1  0  0  0  0
  7  9  2  0  0  0  0
  8  1  1  0  0  0  0
  8 38  1  1  0  0  0
 10 19  2  0  0  0  0
 12 16  2  0  0  0  0
 12  5  1  0  0  0  0
 13  9  1  0  0  0  0
 14 15  1  0  0  0  0
 14 19  1  1  0  0  0
 15 17  1  0  0  0  0
 16  6  1  0  0  0  0
 17  2  1  0  0  0  0
 17  1  2  0  0  0  0
 18 15  1  0  0  0  0
 18  4  1  0  0  0  0
 19  2  1  0  0  0  0
 20 22  1  0  0  0  0
 22 21  1  0  0  0  0
 23 20  2  0  0  0  0
 25 26  1  0  0  0  0
 25 24  1  0  0  0  0
 26 24  1  0  0  0  0
 26 20  1  0  0  0  0
 27 26  1  0  0  0  0
 28 30  2  0  0  0  0
 29 30  1  0  0  0  0
 30 27  1  0  0  0  0
 32 31  2  0  0  0  0
 33 32  1  0  0  0  0
 34 35  1  0  0  0  0
 35 37  1  0  0  0  0
 35 33  1  0  0  0  0
 36 35  2  0  0  0  0
 38 39  1  0  0  0  0
M  END
>  <MODEL>
7

>  <REMARK>
 VINA RESULT:      -2.9      2.936      4.064
  Name = 
  8 active torsions:
  status: ('A' for Active; 'I' for Inactive)
    1  A    between atoms: C_6  and  C_39
    2  A    between atoms: C_8  and  N_27
    3  A    between atoms: C_9  and  C_22
    4  A    between atoms: C_13  and  C_15
    5  A    between atoms: C_20  and  C_37
    6  A    between atoms: P_21  and  O_23
    7  A    between atoms: C_22  and  O_23
    8  A    between atoms: C_37  and  C_39
                            x       y       z     vdW  Elec       q    Type
                         _______ _______ _______ _____ _____    ______ ____

>  <TORSDO>
F 8

$$$$
=
 OpenBabel11072415133D

 39 43  0  0  1  0  0  0  0  0999 V2000
  160.3220  212.1870  151.7400 C   0  0  0  0  0  0  0  0  0  0  0  0
  160.7070  210.1460  153.0510 N   0  0  0  0  0  0  0  0  0  0  0  0
  161.1180  210.6660  154.3310 C   0  0  0  0  0  0  0  0  0  0  0  0
  160.9480  212.0570  149.2510 C   0  0  1  0  0  3  0  0  0  0  0  0
  161.9870  207.7740  150.5420 C   0  0  2  0  0  3  0  0  0  0  0  0
  161.6710  206.4140  153.1490 C   0  0  0  0  0  2  0  0  0  0  0  0
  159.6460  212.8990  152.8420 C   0  0  0  0  0  3  0  0  0  0  0  0
  160.2580  212.8520  150.3730 C   0  0  2  0  0  3  0  0  0  0  0  0
  159.7860  212.7240  154.1540 C   0  0  0  0  0  3  0  0  0  0  0  0
  161.1380  207.7870  153.4680 C   0  0  0  0  0  3  0  0  0  0  0  0
  162.0160  209.9210  155.1480 N   0  0  0  0  0  1  0  0  0  0  0  0
  161.4340  206.3840  150.6660 C   0  0  0  0  0  3  0  0  0  0  0  0
  160.6650  211.7920  154.7900 N   0  0  0  0  0  0  0  0  0  0  0  0
  160.9150  208.7160  151.1080 C   0  0  2  0  0  3  0  0  0  0  0  0
  161.0190  210.1130  150.6980 N   0  0  0  0  0  0  0  0  0  0  0  0
  161.2390  205.7970  151.8510 C   0  0  0  0  0  3  0  0  0  0  0  0
  160.7320  210.9090  151.8490 C   0  0  0  0  0  0  0  0  0  0  0  0
  160.6470  210.5700  149.3680 C   0  0  0  0  0  2  0  0  0  0  0  0
  160.9170  208.7980  152.6130 C   0  0  0  0  0  0  0  0  0  0  0  0
  161.5430  212.6090  146.8800 C   0  0  0  0  0  0  0  0  0  0  0  0
  159.1790  212.9610  147.6920 C   0  0  0  0  0  1  0  0  0  0  0  0
  160.5610  212.5550  147.9310 N   0  0  0  0  0  0  0  0  0  0  0  0
  162.7640  212.4460  147.1560 O   0  0  0  0  0  0  0  0  0  0  0  0
  161.3160  214.3030  145.0260 C   0  0  0  0  0  2  0  0  0  0  0  0
  162.2530  213.2350  144.4820 C   0  0  0  0  0  2  0  0  0  0  0  0
  161.1520  212.8600  145.4500 C   0  0  0  0  0  0  0  0  0  0  0  0
  159.8940  212.2210  144.8770 C   0  0  0  0  0  2  0  0  0  0  0  0
  160.4750  211.5070  142.6800 O   0  0  0  0  0  0  0  0  0  0  0  0
  159.1640  213.3870  142.7960 O   0  0  0  0  0  1  0  0  0  0  0  0
  159.8570  212.3410  143.3920 C   0  0  0  0  0  0  0  0  0  0  0  0
  163.4530  208.4960  148.7870 O   0  0  0  0  0  0  0  0  0  0  0  0
  162.3190  208.0370  149.1060 C   0  0  0  0  0  0  0  0  0  0  0  0
  161.3550  207.7730  148.1320 O   0  0  0  0  0  0  0  0  0  0  0  0
  162.8710  205.7510  146.9540 O   0  0  0  0  0  1  0  0  0  0  0  0
  161.2960  206.2900  147.2680 P   0  0  0  0  0  0  0  0  0  0  0  0
  160.5580  205.2530  148.0840 O   0  0  0  0  0  1  0  0  0  0  0  0
  160.4890  206.5320  145.7990 O   0  0  0  0  0  0  0  0  0  0  0  0
  160.7940  214.2820  150.4200 C   0  0  0  0  0  2  0  0  0  0  0  0
  161.8270  214.4530  149.4960 O   0  0  0  0  0  1  0  0  0  0  0  0
  1 17  2  0  0  0  0
  1  7  1  0  0  0  0
  2  3  1  0  0  0  0
  3 13  2  0  0  0  0
  3 11  1  0  0  0  0
  4 22  1  6  0  0  0
  4 18  1  0  0  0  0
  4  8  1  0  0  0  0
  5 32  1  6  0  0  0
  5 12  1  0  0  0  0
  5 14  1  0  0  0  0
  6 10  1  0  0  0  0
  7  9  2  0  0  0  0
  8 38  1  1  0  0  0
  8  1  1  0  0  0  0
  9 13  1  0  0  0  0
 12 16  2  0  0  0  0
 14 19  1  1  0  0  0
 15 14  1  0  0  0  0
 15 17  1  0  0  0  0
 16  6  1  0  0  0  0
 17  2  1  0  0  0  0
 18 15  1  0  0  0  0
 19  2  1  0  0  0  0
 19 10  2  0  0  0  0
 20 23  2  0  0  0  0
 20 22  1  0  0  0  0
 21 22  1  0  0  0  0
 24 26  1  0  0  0  0
 25 24  1  0  0  0  0
 25 26  1  0  0  0  0
 26 20  1  0  0  0  0
 27 26  1  0  0  0  0
 28 30  2  0  0  0  0
 29 30  1  0  0  0  0
 30 27  1  0  0  0  0
 31 32  2  0  0  0  0
 33 32  1  0  0  0  0
 34 35  1  0  0  0  0
 35 36  1  0  0  0  0
 35 33  1  0  0  0  0
 37 35  2  0  0  0  0
 39 38  1  0  0  0  0
M  END
>  <MODEL>
8

>  <REMARK>
 VINA RESULT:      -2.9      2.113      3.003
  Name = 
  8 active torsions:
  status: ('A' for Active; 'I' for Inactive)
    1  A    between atoms: C_6  and  C_39
    2  A    between atoms: C_8  and  N_27
    3  A    between atoms: C_9  and  C_22
    4  A    between atoms: C_13  and  C_15
    5  A    between atoms: C_20  and  C_37
    6  A    between atoms: P_21  and  O_23
    7  A    between atoms: C_22  and  O_23
    8  A    between atoms: C_37  and  C_39
                            x       y       z     vdW  Elec       q    Type
                         _______ _______ _______ _____ _____    ______ ____

>  <TORSDO>
F 8

$$$$
=
 OpenBabel11072415133D

 39 43  0  0  1  0  0  0  0  0999 V2000
  161.1020  208.3590  152.0470 C   0  0  0  0  0  0  0  0  0  0  0  0
  160.6250  210.7350  152.4500 N   0  0  0  0  0  0  0  0  0  0  0  0
  159.7380  210.6900  153.5850 C   0  0  0  0  0  0  0  0  0  0  0  0
  161.3630  207.6680  149.5850 C   0  0  1  0  0  3  0  0  0  0  0  0
  160.6310  212.1720  149.0600 C   0  0  2  0  0  3  0  0  0  0  0  0
  160.2720  214.3160  151.0650 C   0  0  0  0  0  2  0  0  0  0  0  0
  161.2560  208.0340  153.4780 C   0  0  0  0  0  3  0  0  0  0  0  0
  161.5120  207.2720  151.0650 C   0  0  2  0  0  3  0  0  0  0  0  0
  160.7190  208.6450  154.5320 C   0  0  0  0  0  3  0  0  0  0  0  0
  160.4500  213.1110  151.9520 C   0  0  0  0  0  3  0  0  0  0  0  0
  158.7470  211.6990  153.7560 N   0  0  0  0  0  1  0  0  0  0  0  0
  161.3190  213.5020  148.9520 C   0  0  0  0  0  3  0  0  0  0  0  0
  159.8340  209.7680  154.4940 N   0  0  0  0  0  0  0  0  0  0  0  0
  161.2960  211.4360  150.2310 C   0  0  2  0  0  3  0  0  0  0  0  0
  161.1190  209.9870  150.2520 N   0  0  0  0  0  0  0  0  0  0  0  0
  161.1990  214.4450  149.8920 C   0  0  0  0  0  3  0  0  0  0  0  0
  160.8810  209.6130  151.6100 C   0  0  0  0  0  0  0  0  0  0  0  0
  161.8340  209.0970  149.3510 C   0  0  0  0  0  2  0  0  0  0  0  0
  160.7830  211.8640  151.5820 C   0  0  0  0  0  0  0  0  0  0  0  0
  161.3430  205.8970  147.8130 C   0  0  0  0  0  0  0  0  0  0  0  0
  163.5430  206.7120  148.7440 C   0  0  0  0  0  1  0  0  0  0  0  0
  162.0840  206.7430  148.7120 N   0  0  0  0  0  0  0  0  0  0  0  0
  160.0910  205.7940  147.9410 O   0  0  0  0  0  0  0  0  0  0  0  0
  161.3610  205.2780  145.3690 C   0  0  0  0  0  2  0  0  0  0  0  0
  162.7170  205.9150  145.6330 C   0  0  0  0  0  2  0  0  0  0  0  0
  162.0240  205.1230  146.7200 C   0  0  0  0  0  0  0  0  0  0  0  0
  162.5070  203.7010  146.9750 C   0  0  0  0  0  2  0  0  0  0  0  0
  161.0540  202.7730  148.6200 O   0  0  0  0  0  1  0  0  0  0  0  0
  160.7250  202.0290  146.4740 O   0  0  0  0  0  0  0  0  0  0  0  0
  161.3850  202.8190  147.4050 C   0  0  0  0  0  0  0  0  0  0  0  0
  161.7290  210.6750  147.5420 O   0  0  0  0  0  0  0  0  0  0  0  0
  160.7570  211.4540  147.7510 C   0  0  0  0  0  0  0  0  0  0  0  0
  159.7860  211.6650  146.7700 O   0  0  0  0  0  0  0  0  0  0  0  0
  159.2790  212.1610  144.0740 O   0  0  0  0  0  0  0  0  0  0  0  0
  160.0050  212.7740  145.4770 P   0  0  0  0  0  0  0  0  0  0  0  0
  159.3800  214.1030  145.8330 O   0  0  0  0  0  1  0  0  0  0  0  0
  161.6620  212.9840  145.1970 O   0  0  0  0  0  1  0  0  0  0  0  0
  160.7760  205.9610  151.3410 C   0  0  0  0  0  2  0  0  0  0  0  0
  161.6720  204.9620  151.7250 O   0  0  0  0  0  1  0  0  0  0  0  0
  1  7  1  0  0  0  0
  2  3  1  0  0  0  0
  3 11  1  0  0  0  0
  3 13  2  0  0  0  0
  4 22  1  6  0  0  0
  4  8  1  0  0  0  0
  5 32  1  6  0  0  0
  5 14  1  0  0  0  0
  6 10  1  0  0  0  0
  7  9  2  0  0  0  0
  8 38  1  6  0  0  0
  8  1  1  0  0  0  0
 12  5  1  0  0  0  0
 12 16  2  0  0  0  0
 13  9  1  0  0  0  0
 14 15  1  0  0  0  0
 14 19  1  1  0  0  0
 15 17  1  0  0  0  0
 16  6  1  0  0  0  0
 17  1  2  0  0  0  0
 17  2  1  0  0  0  0
 18  4  1  0  0  0  0
 18 15  1  0  0  0  0
 19 10  2  0  0  0  0
 19  2  1  0  0  0  0
 20 23  2  0  0  0  0
 20 22  1  0  0  0  0
 22 21  1  0  0  0  0
 24 25  1  0  0  0  0
 24 26  1  0  0  0  0
 25 26  1  0  0  0  0
 26 27  1  0  0  0  0
 26 20  1  0  0  0  0
 27 30  1  0  0  0  0
 29 30  2  0  0  0  0
 30 28  1  0  0  0  0
 31 32  2  0  0  0  0
 33 32  1  0  0  0  0
 34 35  2  0  0  0  0
 35 36  1  0  0  0  0
 35 33  1  0  0  0  0
 37 35  1  0  0  0  0
 38 39  1  0  0  0  0
M  END
>  <MODEL>
9

>  <REMARK>
 VINA RESULT:      -2.5      3.144      7.123
  Name = 
  8 active torsions:
  status: ('A' for Active; 'I' for Inactive)
    1  A    between atoms: C_6  and  C_39
    2  A    between atoms: C_8  and  N_27
    3  A    between atoms: C_9  and  C_22
    4  A    between atoms: C_13  and  C_15
    5  A    between atoms: C_20  and  C_37
    6  A    between atoms: P_21  and  O_23
    7  A    between atoms: C_22  and  O_23
    8  A    between atoms: C_37  and  C_39
                            x       y       z     vdW  Elec       q    Type
                         _______ _______ _______ _____ _____    ______ ____

>  <TORSDO>
F 8

$$$$
