=
 OpenBabel11072415123D

 39 43  0  0  1  0  0  0  0  0999 V2000
  160.5880  208.4440  152.1730 C   0  0  0  0  0  2  0  0  0  0  0  0
  160.4780  210.8170  152.7300 N   0  0  0  0  0  0  0  0  0  0  0  0
  162.3700  209.5050  153.5830 C   0  0  0  0  0  1  0  0  0  0  0  0
  160.1660  212.2260  150.8840 O   0  0  0  0  0  0  0  0  0  0  0  0
  161.3360  208.7150  150.8600 C   0  0  2  0  0  3  0  0  0  0  0  0
  160.6160  211.1360  151.3370 C   0  0  0  0  0  0  0  0  0  0  0  0
  160.8960  209.5060  153.2190 C   0  0  2  0  0  3  0  0  0  0  0  0
  161.3070  210.1880  150.3880 C   0  0  1  0  0  3  0  0  0  0  0  0
  161.4590  205.5710  151.1980 C   0  0  0  0  0  0  0  0  0  0  0  0
  160.8820  207.7050  149.7850 C   0  0  1  0  0  3  0  0  0  0  0  0
  161.1890  205.2350  149.7360 C   0  0  2  0  0  3  0  0  0  0  0  0
  161.9010  207.3080  148.7750 C   0  0  0  0  0  0  0  0  0  0  0  0
  161.9320  205.3480  147.4750 O   0  0  0  0  0  1  0  0  0  0  0  0
  162.1770  205.8570  148.7470 C   0  0  2  0  0  3  0  0  0  0  0  0
  160.8780  204.5510  152.1510 C   0  0  0  0  0  1  0  0  0  0  0  0
  162.8380  206.1470  151.5410 C   0  0  0  0  0  1  0  0  0  0  0  0
  162.4130  208.0920  147.9920 O   0  0  0  0  0  0  0  0  0  0  0  0
  160.4190  206.3800  150.4180 C   0  0  1  0  0  3  0  0  0  0  0  0
  159.0080  212.0520  156.0070 C   0  0  0  0  0  0  0  0  0  0  0  0
  157.9280  212.7780  155.4940 O   0  0  0  0  0  0  0  0  0  0  0  0
  159.1180  211.9260  157.2580 O   0  0  0  0  0  0  0  0  0  0  0  0
  159.8340  211.7730  153.6330 C   0  0  1  0  0  3  0  0  0  0  0  0
  158.3870  212.0280  153.2240 C   0  0  0  0  0  2  0  0  0  0  0  0
  157.7750  213.1060  154.1120 C   0  0  2  0  0  0  0  0  0  0  0  0
  158.4330  214.4480  153.8350 C   0  0  0  0  0  1  0  0  0  0  0  0
  159.9570  211.3160  155.0910 C   0  0  1  0  0  3  0  0  0  0  0  0
  156.3610  213.2140  153.8070 N   0  0  0  0  0  1  0  0  0  0  0  0
  161.4070  211.5020  155.5420 C   0  0  0  0  0  2  0  0  0  0  0  0
  161.6880  210.7500  156.8320 C   0  0  2  0  0  3  0  0  0  0  0  0
  164.0340  211.5700  157.2450 C   0  0  0  0  0  2  0  0  0  0  0  0
  163.1840  210.3970  156.9220 C   0  0  2  0  0  3  0  0  0  0  0  0
  163.9230  211.0780  155.9330 O   0  0  0  0  0  0  0  0  0  0  0  0
  160.8160  209.5840  156.9450 N   0  0  0  0  0  2  0  0  0  0  0  0
  161.5760  208.4360  156.4740 C   0  0  0  0  0  2  0  0  0  0  0  0
  159.3210  207.4320  156.2350 O   0  0  0  0  0  1  0  0  0  0  0  0
  160.6590  207.4350  155.8820 C   0  0  0  0  0  0  0  0  0  0  0  0
  161.0950  206.5970  155.0550 O   0  0  0  0  0  0  0  0  0  0  0  0
  162.6140  211.3140  148.9710 C   0  0  0  0  0  1  0  0  0  0  0  0
  162.6260  210.6080  150.1780 O   0  0  0  0  0  0  0  0  0  0  0  0
  1  7  1  0  0  0  0
  2  7  1  0  0  0  0
  4  6  2  0  0  0  0
  5  1  1  1  0  0  0
  6  2  1  0  0  0  0
  7  3  1  6  0  0  0
  8 39  1  1  0  0  0
  8  5  1  0  0  0  0
  8  6  1  0  0  0  0
  9 16  1  0  0  0  0
  9 15  1  0  0  0  0
 10 12  1  6  0  0  0
 10 18  1  0  0  0  0
 10  5  1  0  0  0  0
 11 18  1  0  0  0  0
 11  9  1  1  0  0  0
 14 13  1  6  0  0  0
 14 12  1  0  0  0  0
 14 11  1  0  0  0  0
 17 12  2  0  0  0  0
 18  9  1  1  0  0  0
 19 21  2  0  0  0  0
 20 19  1  0  0  0  0
 22  2  1  6  0  0  0
 22 26  1  0  0  0  0
 23 22  1  0  0  0  0
 23 24  1  0  0  0  0
 24 25  1  6  0  0  0
 24 20  1  0  0  0  0
 26 28  1  1  0  0  0
 26 19  1  0  0  0  0
 27 24  1  0  0  0  0
 29 28  1  6  0  0  0
 29 33  1  0  0  0  0
 31 29  1  6  0  0  0
 31 30  1  0  0  0  0
 32 31  1  0  0  0  0
 32 30  1  0  0  0  0
 34 33  1  0  0  0  0
 36 35  1  0  0  0  0
 36 34  1  0  0  0  0
 37 36  2  0  0  0  0
 38 39  1  0  0  0  0
M  END
>  <MODEL>
1

>  <REMARK>
 VINA RESULT:      -4.6      0.000      0.000
  Name = 
  9 active torsions:
  status: ('A' for Active; 'I' for Inactive)
    1  A    between atoms: C_3  and  C_24
    2  A    between atoms: N_6  and  C_20
    3  A    between atoms: N_6  and  C_38
    4  A    between atoms: C_11  and  C_20
    5  A    between atoms: C_13  and  C_20
    6  A    between atoms: C_13  and  C_35
    7  A    between atoms: C_15  and  C_38
    8  A    between atoms: N_16  and  C_22
    9  A    between atoms: O_27  and  C_32
                            x       y       z     vdW  Elec       q    Type
                         _______ _______ _______ _____ _____    ______ ____

>  <TORSDO>
F 9

$$$$
=
 OpenBabel11072415123D

 39 43  0  0  1  0  0  0  0  0999 V2000
  161.1950  211.0440  147.9440 C   0  0  0  0  0  2  0  0  0  0  0  0
  161.2790  211.2810  150.3720 N   0  0  0  0  0  0  0  0  0  0  0  0
  163.2490  211.9470  149.0650 C   0  0  0  0  0  1  0  0  0  0  0  0
  159.4590  212.4360  151.2890 O   0  0  0  0  0  0  0  0  0  0  0  0
  160.5720  212.4340  147.7600 C   0  0  2  0  0  3  0  0  0  0  0  0
  160.2210  212.2490  150.3000 C   0  0  0  0  0  0  0  0  0  0  0  0
  162.0770  210.9890  149.1830 C   0  0  2  0  0  3  0  0  0  0  0  0
  160.0000  213.0660  149.0510 C   0  0  1  0  0  3  0  0  0  0  0  0
  161.2690  213.3190  144.8030 C   0  0  0  0  0  0  0  0  0  0  0  0
  159.5730  212.4050  146.5840 C   0  0  1  0  0  3  0  0  0  0  0  0
  159.8330  213.3430  144.2920 C   0  0  2  0  0  3  0  0  0  0  0  0
  158.7290  213.6170  146.3980 C   0  0  0  0  0  0  0  0  0  0  0  0
  157.6670  214.3270  144.4230 O   0  0  0  0  0  1  0  0  0  0  0  0
  158.8940  214.2600  145.0780 C   0  0  2  0  0  3  0  0  0  0  0  0
  162.2610  212.8990  143.7420 C   0  0  0  0  0  1  0  0  0  0  0  0
  161.6920  214.4440  145.7540 C   0  0  0  0  0  1  0  0  0  0  0  0
  157.9240  214.0090  147.2270 O   0  0  0  0  0  0  0  0  0  0  0  0
  160.2960  212.2190  145.2370 C   0  0  1  0  0  3  0  0  0  0  0  0
  160.8460  208.3880  152.7940 C   0  0  0  0  0  0  0  0  0  0  0  0
  160.8220  209.1140  153.9890 O   0  0  0  0  0  0  0  0  0  0  0  0
  160.6290  207.1460  152.8320 O   0  0  0  0  0  0  0  0  0  0  0  0
  161.4900  210.5270  151.6090 C   0  0  1  0  0  3  0  0  0  0  0  0
  160.8620  211.2390  152.8010 C   0  0  0  0  0  2  0  0  0  0  0  0
  161.1890  210.4910  154.0890 C   0  0  2  0  0  0  0  0  0  0  0  0
  162.6750  210.5990  154.3930 C   0  0  0  0  0  1  0  0  0  0  0  0
  160.9940  209.0840  151.4620 C   0  0  1  0  0  3  0  0  0  0  0  0
  160.4510  211.0980  155.1810 N   0  0  0  0  0  1  0  0  0  0  0  0
  161.9600  208.3240  150.5520 C   0  0  0  0  0  2  0  0  0  0  0  0
  161.2360  207.2720  149.7290 C   0  0  2  0  0  3  0  0  0  0  0  0
  160.9460  204.8420  150.3280 C   0  0  0  0  0  2  0  0  0  0  0  0
  161.9060  205.8980  149.9200 C   0  0  2  0  0  3  0  0  0  0  0  0
  161.7960  205.4660  151.2570 O   0  0  0  0  0  0  0  0  0  0  0  0
  161.1570  207.6820  148.3300 N   0  0  0  0  0  2  0  0  0  0  0  0
  162.0870  206.8430  147.5870 C   0  0  0  0  0  2  0  0  0  0  0  0
  160.3320  206.5510  145.8600 O   0  0  0  0  0  0  0  0  0  0  0  0
  161.3440  205.9980  146.6250 C   0  0  0  0  0  0  0  0  0  0  0  0
  161.6370  204.7840  146.4990 O   0  0  0  0  0  1  0  0  0  0  0  0
  160.8770  214.4470  150.5690 C   0  0  0  0  0  1  0  0  0  0  0  0
  160.5720  214.3340  149.2100 O   0  0  0  0  0  0  0  0  0  0  0  0
  1  7  1  0  0  0  0
  5  1  1  1  0  0  0
  5  8  1  0  0  0  0
  6  2  1  0  0  0  0
  6  4  2  0  0  0  0
  7  3  1  6  0  0  0
  7  2  1  0  0  0  0
  8 39  1  1  0  0  0
  8  6  1  0  0  0  0
  9 16  1  0  0  0  0
 10 12  1  6  0  0  0
 10  5  1  0  0  0  0
 11  9  1  1  0  0  0
 11 14  1  0  0  0  0
 11 18  1  0  0  0  0
 12 17  2  0  0  0  0
 14 13  1  6  0  0  0
 14 12  1  0  0  0  0
 15  9  1  0  0  0  0
 18  9  1  1  0  0  0
 18 10  1  0  0  0  0
 19 21  2  0  0  0  0
 19 20  1  0  0  0  0
 20 24  1  0  0  0  0
 22  2  1  6  0  0  0
 22 23  1  0  0  0  0
 23 24  1  0  0  0  0
 24 25  1  1  0  0  0
 24 27  1  0  0  0  0
 26 28  1  6  0  0  0
 26 22  1  0  0  0  0
 26 19  1  0  0  0  0
 29 28  1  1  0  0  0
 30 32  1  0  0  0  0
 31 29  1  1  0  0  0
 31 30  1  0  0  0  0
 31 32  1  0  0  0  0
 33 29  1  0  0  0  0
 34 33  1  0  0  0  0
 35 36  2  0  0  0  0
 36 34  1  0  0  0  0
 37 36  1  0  0  0  0
 39 38  1  0  0  0  0
M  END
>  <MODEL>
2

>  <REMARK>
 VINA RESULT:      -4.1      3.282      7.115
  Name = 
  9 active torsions:
  status: ('A' for Active; 'I' for Inactive)
    1  A    between atoms: C_3  and  C_24
    2  A    between atoms: N_6  and  C_20
    3  A    between atoms: N_6  and  C_38
    4  A    between atoms: C_11  and  C_20
    5  A    between atoms: C_13  and  C_20
    6  A    between atoms: C_13  and  C_35
    7  A    between atoms: C_15  and  C_38
    8  A    between atoms: N_16  and  C_22
    9  A    between atoms: O_27  and  C_32
                            x       y       z     vdW  Elec       q    Type
                         _______ _______ _______ _____ _____    ______ ____

>  <TORSDO>
F 9

$$$$
=
 OpenBabel11072415123D

 39 43  0  0  1  0  0  0  0  0999 V2000
  159.8910  209.8100  152.6220 C   0  0  0  0  0  2  0  0  0  0  0  0
  161.1170  207.7010  152.6890 N   0  0  0  0  0  0  0  0  0  0  0  0
  162.2880  209.7070  151.8930 C   0  0  0  0  0  1  0  0  0  0  0  0
  161.0010  206.5850  154.7460 O   0  0  0  0  0  0  0  0  0  0  0  0
  160.2510  210.1460  154.0760 C   0  0  2  0  0  3  0  0  0  0  0  0
  160.9750  207.6800  154.1180 C   0  0  0  0  0  0  0  0  0  0  0  0
  160.9680  208.9600  151.9640 C   0  0  2  0  0  3  0  0  0  0  0  0
  160.8030  208.9590  154.9000 C   0  0  1  0  0  3  0  0  0  0  0  0
  158.6620  212.5500  152.7690 C   0  0  0  0  0  0  0  0  0  0  0  0
  159.0710  210.8780  154.7490 C   0  0  1  0  0  3  0  0  0  0  0  0
  157.9140  212.9630  154.0310 C   0  0  2  0  0  3  0  0  0  0  0  0
  159.4170  212.0210  155.6380 C   0  0  0  0  0  0  0  0  0  0  0  0
  158.0340  213.8220  156.2500 O   0  0  0  0  0  1  0  0  0  0  0  0
  158.8140  213.3030  155.2200 C   0  0  2  0  0  3  0  0  0  0  0  0
  157.8520  212.7680  151.5090 C   0  0  0  0  0  1  0  0  0  0  0  0
  160.1590  212.8710  152.7050 C   0  0  0  0  0  1  0  0  0  0  0  0
  160.0790  211.9030  156.6560 O   0  0  0  0  0  0  0  0  0  0  0  0
  158.1080  211.4710  153.7040 C   0  0  1  0  0  3  0  0  0  0  0  0
  160.7170  205.2500  149.8160 C   0  0  0  0  0  0  0  0  0  0  0  0
  160.6280  204.0680  150.5570 O   0  0  0  0  0  0  0  0  0  0  0  0
  160.5480  205.2000  148.5660 O   0  0  0  0  0  0  0  0  0  0  0  0
  161.3170  206.4470  151.9620 C   0  0  1  0  0  3  0  0  0  0  0  0
  160.6230  205.2850  152.6650 C   0  0  0  0  0  2  0  0  0  0  0  0
  160.9380  203.9760  151.9480 C   0  0  2  0  0  0  0  0  0  0  0  0
  162.4080  203.6280  152.1180 C   0  0  0  0  0  1  0  0  0  0  0  0
  160.8820  206.5870  150.4980 C   0  0  1  0  0  3  0  0  0  0  0  0
  160.1420  202.9180  152.5410 N   0  0  0  0  0  1  0  0  0  0  0  0
  161.9050  207.4550  149.7640 C   0  0  0  0  0  2  0  0  0  0  0  0
  161.5240  207.6490  148.3060 C   0  0  2  0  0  3  0  0  0  0  0  0
  162.1580  206.3200  146.2620 C   0  0  0  0  0  2  0  0  0  0  0  0
  162.6560  207.1440  147.3920 C   0  0  2  0  0  3  0  0  0  0  0  0
  162.7250  205.7360  147.4080 O   0  0  0  0  0  0  0  0  0  0  0  0
  161.1610  209.0410  148.0540 N   0  0  0  0  0  2  0  0  0  0  0  0
  162.2100  209.8670  148.6340 C   0  0  0  0  0  2  0  0  0  0  0  0
  160.8950  211.6430  147.5090 O   0  0  0  0  0  0  0  0  0  0  0  0
  162.0110  211.2810  148.2440 C   0  0  0  0  0  0  0  0  0  0  0  0
  162.8490  212.1510  148.5860 O   0  0  0  0  0  1  0  0  0  0  0  0
  161.9550  209.0170  156.8110 C   0  0  0  0  0  1  0  0  0  0  0  0
  162.0310  209.3420  155.4540 O   0  0  0  0  0  0  0  0  0  0  0  0
  2  6  1  0  0  0  0
  5  1  1  6  0  0  0
  5 10  1  0  0  0  0
  5  8  1  0  0  0  0
  6  4  2  0  0  0  0
  6  8  1  0  0  0  0
  7  3  1  1  0  0  0
  7  1  1  0  0  0  0
  7  2  1  0  0  0  0
  8 39  1  6  0  0  0
 10 12  1  6  0  0  0
 11  9  1  6  0  0  0
 11 14  1  0  0  0  0
 12 17  2  0  0  0  0
 14 12  1  0  0  0  0
 14 13  1  1  0  0  0
 15  9  1  0  0  0  0
 16  9  1  0  0  0  0
 18  9  1  6  0  0  0
 18 11  1  0  0  0  0
 18 10  1  0  0  0  0
 19 26  1  0  0  0  0
 19 20  1  0  0  0  0
 20 24  1  0  0  0  0
 21 19  2  0  0  0  0
 22 23  1  1  0  0  0
 22  2  1  0  0  0  0
 24 25  1  1  0  0  0
 24 27  1  0  0  0  0
 24 23  1  0  0  0  0
 26 28  1  6  0  0  0
 26 22  1  0  0  0  0
 29 28  1  1  0  0  0
 30 31  1  0  0  0  0
 30 32  1  0  0  0  0
 31 32  1  0  0  0  0
 31 29  1  1  0  0  0
 33 29  1  0  0  0  0
 33 34  1  0  0  0  0
 35 36  2  0  0  0  0
 36 37  1  0  0  0  0
 36 34  1  0  0  0  0
 39 38  1  0  0  0  0
M  END
>  <MODEL>
3

>  <REMARK>
 VINA RESULT:      -4.1      2.178      8.321
  Name = 
  9 active torsions:
  status: ('A' for Active; 'I' for Inactive)
    1  A    between atoms: C_3  and  C_24
    2  A    between atoms: N_6  and  C_20
    3  A    between atoms: N_6  and  C_38
    4  A    between atoms: C_11  and  C_20
    5  A    between atoms: C_13  and  C_20
    6  A    between atoms: C_13  and  C_35
    7  A    between atoms: C_15  and  C_38
    8  A    between atoms: N_16  and  C_22
    9  A    between atoms: O_27  and  C_32
                            x       y       z     vdW  Elec       q    Type
                         _______ _______ _______ _____ _____    ______ ____

>  <TORSDO>
F 9

$$$$
=
 OpenBabel11072415123D

 39 43  0  0  1  0  0  0  0  0999 V2000
  161.0900  208.8410  151.3850 C   0  0  0  0  0  2  0  0  0  0  0  0
  161.6510  210.5470  149.7320 N   0  0  0  0  0  0  0  0  0  0  0  0
  163.3410  209.9470  151.4100 C   0  0  0  0  0  1  0  0  0  0  0  0
  161.2510  209.9080  147.5140 O   0  0  0  0  0  0  0  0  0  0  0  0
  161.5580  207.7010  150.4690 C   0  0  2  0  0  3  0  0  0  0  0  0
  161.5350  209.5610  148.6950 C   0  0  0  0  0  0  0  0  0  0  0  0
  161.8630  210.1240  151.1150 C   0  0  2  0  0  3  0  0  0  0  0  0
  161.7550  208.0970  148.9870 C   0  0  1  0  0  3  0  0  0  0  0  0
  161.6990  205.7740  152.9750 C   0  0  0  0  0  0  0  0  0  0  0  0
  160.6530  206.4670  150.6710 C   0  0  1  0  0  3  0  0  0  0  0  0
  160.8200  204.6750  152.3910 C   0  0  2  0  0  3  0  0  0  0  0  0
  161.1300  205.1900  150.0740 C   0  0  0  0  0  0  0  0  0  0  0  0
  160.5320  203.0060  150.7140 O   0  0  0  0  0  1  0  0  0  0  0  0
  161.3150  204.1050  151.0600 C   0  0  2  0  0  3  0  0  0  0  0  0
  161.5430  205.9160  154.4730 C   0  0  0  0  0  1  0  0  0  0  0  0
  163.1120  205.9200  152.4000 C   0  0  0  0  0  1  0  0  0  0  0  0
  161.2870  205.0250  148.8750 O   0  0  0  0  0  0  0  0  0  0  0  0
  160.4560  206.1540  152.1650 C   0  0  1  0  0  3  0  0  0  0  0  0
  159.7320  213.8050  149.3710 C   0  0  0  0  0  0  0  0  0  0  0  0
  160.3220  214.2680  148.1920 O   0  0  0  0  0  0  0  0  0  0  0  0
  158.7690  214.4530  149.8660 O   0  0  0  0  0  0  0  0  0  0  0  0
  161.4660  211.9630  149.4120 C   0  0  1  0  0  3  0  0  0  0  0  0
  161.5900  212.2090  147.9120 C   0  0  0  0  0  2  0  0  0  0  0  0
  161.5020  213.7030  147.6170 C   0  0  2  0  0  0  0  0  0  0  0  0
  162.7260  214.4170  148.1670 C   0  0  0  0  0  1  0  0  0  0  0  0
  160.1410  212.4840  149.9810 C   0  0  1  0  0  3  0  0  0  0  0  0
  161.4640  213.8930  146.1790 N   0  0  0  0  0  1  0  0  0  0  0  0
  160.2710  212.5990  151.5000 C   0  0  0  0  0  2  0  0  0  0  0  0
  158.9790  212.2150  152.2000 C   0  0  2  0  0  3  0  0  0  0  0  0
  157.0300  213.2870  153.3830 C   0  0  0  0  0  2  0  0  0  0  0  0
  158.4760  213.3880  153.0620 C   0  0  2  0  0  3  0  0  0  0  0  0
  157.5050  214.1410  152.3720 O   0  0  0  0  0  0  0  0  0  0  0  0
  159.1550  210.9800  152.9570 N   0  0  0  0  0  2  0  0  0  0  0  0
  159.9940  211.2990  154.1030 C   0  0  0  0  0  2  0  0  0  0  0  0
  159.3580  209.5620  155.7550 O   0  0  0  0  0  1  0  0  0  0  0  0
  160.2920  210.0660  154.8670 C   0  0  0  0  0  0  0  0  0  0  0  0
  161.3880  209.4760  154.7040 O   0  0  0  0  0  0  0  0  0  0  0  0
  162.8970  206.9050  147.4850 C   0  0  0  0  0  1  0  0  0  0  0  0
  163.0510  207.7300  148.6020 O   0  0  0  0  0  0  0  0  0  0  0  0
  2  7  1  0  0  0  0
  4  6  2  0  0  0  0
  5 10  1  0  0  0  0
  5  1  1  1  0  0  0
  6  8  1  0  0  0  0
  6  2  1  0  0  0  0
  7  1  1  0  0  0  0
  7  3  1  6  0  0  0
  8 39  1  1  0  0  0
  8  5  1  0  0  0  0
  9 15  1  0  0  0  0
 10 12  1  6  0  0  0
 10 18  1  0  0  0  0
 11  9  1  1  0  0  0
 12 14  1  0  0  0  0
 14 13  1  6  0  0  0
 14 11  1  0  0  0  0
 16  9  1  0  0  0  0
 17 12  2  0  0  0  0
 18 11  1  0  0  0  0
 18  9  1  1  0  0  0
 19 21  2  0  0  0  0
 19 26  1  0  0  0  0
 20 19  1  0  0  0  0
 22 23  1  6  0  0  0
 22  2  1  0  0  0  0
 22 26  1  0  0  0  0
 24 23  1  0  0  0  0
 24 25  1  1  0  0  0
 24 20  1  0  0  0  0
 26 28  1  1  0  0  0
 27 24  1  0  0  0  0
 29 28  1  1  0  0  0
 29 33  1  0  0  0  0
 31 29  1  6  0  0  0
 31 30  1  0  0  0  0
 32 31  1  0  0  0  0
 32 30  1  0  0  0  0
 33 34  1  0  0  0  0
 34 36  1  0  0  0  0
 36 35  1  0  0  0  0
 37 36  2  0  0  0  0
 38 39  1  0  0  0  0
M  END
>  <MODEL>
4

>  <REMARK>
 VINA RESULT:      -3.5      2.330      4.789
  Name = 
  9 active torsions:
  status: ('A' for Active; 'I' for Inactive)
    1  A    between atoms: C_3  and  C_24
    2  A    between atoms: N_6  and  C_20
    3  A    between atoms: N_6  and  C_38
    4  A    between atoms: C_11  and  C_20
    5  A    between atoms: C_13  and  C_20
    6  A    between atoms: C_13  and  C_35
    7  A    between atoms: C_15  and  C_38
    8  A    between atoms: N_16  and  C_22
    9  A    between atoms: O_27  and  C_32
                            x       y       z     vdW  Elec       q    Type
                         _______ _______ _______ _____ _____    ______ ____

>  <TORSDO>
F 9

$$$$
=
 OpenBabel11072415123D

 39 43  0  0  1  0  0  0  0  0999 V2000
  161.0110  204.8120  151.3810 C   0  0  0  0  0  2  0  0  0  0  0  0
  161.1430  207.0280  152.3960 N   0  0  0  0  0  0  0  0  0  0  0  0
  163.1180  205.5730  152.5090 C   0  0  0  0  0  1  0  0  0  0  0  0
  160.4780  208.7740  150.9830 O   0  0  0  0  0  0  0  0  0  0  0  0
  161.4470  205.3390  150.0070 C   0  0  2  0  0  3  0  0  0  0  0  0
  160.9700  207.6170  151.0980 C   0  0  0  0  0  0  0  0  0  0  0  0
  161.6020  205.6450  152.5100 C   0  0  2  0  0  3  0  0  0  0  0  0
  161.3770  206.8760  149.8480 C   0  0  1  0  0  3  0  0  0  0  0  0
  160.8430  202.2340  150.0970 C   0  0  0  0  0  0  0  0  0  0  0  0
  160.7110  204.5620  148.8950 C   0  0  1  0  0  3  0  0  0  0  0  0
  160.4230  202.1020  148.6380 C   0  0  2  0  0  3  0  0  0  0  0  0
  161.5510  204.0340  147.7860 C   0  0  0  0  0  0  0  0  0  0  0  0
  161.0490  202.2440  146.3430 O   0  0  0  0  0  1  0  0  0  0  0  0
  161.4750  202.5660  147.6290 C   0  0  2  0  0  3  0  0  0  0  0  0
  160.0900  201.2930  151.0110 C   0  0  0  0  0  1  0  0  0  0  0  0
  162.3350  202.4420  150.3800 C   0  0  0  0  0  1  0  0  0  0  0  0
  162.1910  204.7460  147.0290 O   0  0  0  0  0  0  0  0  0  0  0  0
  159.9820  203.3280  149.4590 C   0  0  1  0  0  3  0  0  0  0  0  0
  161.4960  209.7160  155.0560 C   0  0  0  0  0  0  0  0  0  0  0  0
  161.0610  208.9780  156.1610 O   0  0  0  0  0  0  0  0  0  0  0  0
  161.9390  210.8830  155.2380 O   0  0  0  0  0  0  0  0  0  0  0  0
  160.7700  207.7850  153.5920 C   0  0  1  0  0  3  0  0  0  0  0  0
  160.9090  206.9330  154.8490 C   0  0  0  0  0  2  0  0  0  0  0  0
  160.4130  207.7090  156.0640 C   0  0  2  0  0  0  0  0  0  0  0  0
  158.9090  207.9130  155.9750 C   0  0  0  0  0  1  0  0  0  0  0  0
  161.5650  209.0930  153.6810 C   0  0  1  0  0  3  0  0  0  0  0  0
  160.7030  206.9380  157.2590 N   0  0  0  0  0  1  0  0  0  0  0  0
  161.0430  210.0580  152.6160 C   0  0  0  0  0  2  0  0  0  0  0  0
  160.2150  211.1720  153.2340 C   0  0  2  0  0  3  0  0  0  0  0  0
  157.8520  211.8500  153.7840 C   0  0  0  0  0  2  0  0  0  0  0  0
  158.7280  210.7710  153.2630 C   0  0  2  0  0  3  0  0  0  0  0  0
  158.2360  210.7590  154.5840 O   0  0  0  0  0  0  0  0  0  0  0  0
  160.4560  212.4340  152.5390 N   0  0  0  0  0  2  0  0  0  0  0  0
  160.3900  212.1540  151.1120 C   0  0  0  0  0  2  0  0  0  0  0  0
  158.4330  213.5560  150.5190 O   0  0  0  0  0  1  0  0  0  0  0  0
  159.7890  213.3050  150.4010 C   0  0  0  0  0  0  0  0  0  0  0  0
  160.5110  214.0560  149.7000 O   0  0  0  0  0  0  0  0  0  0  0  0
  162.3870  208.0880  148.2690 C   0  0  0  0  0  1  0  0  0  0  0  0
  162.6300  207.3300  149.4180 O   0  0  0  0  0  0  0  0  0  0  0  0
  1  7  1  0  0  0  0
  2  7  1  0  0  0  0
  4  6  2  0  0  0  0
  5  1  1  1  0  0  0
  6  2  1  0  0  0  0
  7  3  1  6  0  0  0
  8 39  1  1  0  0  0
  8  5  1  0  0  0  0
  8  6  1  0  0  0  0
  9 16  1  0  0  0  0
  9 15  1  0  0  0  0
 10 12  1  6  0  0  0
 10 18  1  0  0  0  0
 10  5  1  0  0  0  0
 11 18  1  0  0  0  0
 11  9  1  1  0  0  0
 14 13  1  6  0  0  0
 14 12  1  0  0  0  0
 14 11  1  0  0  0  0
 17 12  2  0  0  0  0
 18  9  1  1  0  0  0
 19 21  2  0  0  0  0
 19 20  1  0  0  0  0
 22  2  1  6  0  0  0
 22 26  1  0  0  0  0
 22 23  1  0  0  0  0
 23 24  1  0  0  0  0
 24 25  1  6  0  0  0
 24 20  1  0  0  0  0
 24 27  1  0  0  0  0
 26 28  1  6  0  0  0
 26 19  1  0  0  0  0
 29 28  1  6  0  0  0
 30 32  1  0  0  0  0
 31 29  1  1  0  0  0
 31 30  1  0  0  0  0
 31 32  1  0  0  0  0
 33 29  1  0  0  0  0
 34 33  1  0  0  0  0
 36 35  1  0  0  0  0
 36 34  1  0  0  0  0
 37 36  2  0  0  0  0
 38 39  1  0  0  0  0
M  END
>  <MODEL>
5

>  <REMARK>
 VINA RESULT:      -3.2      2.077      4.960
  Name = 
  9 active torsions:
  status: ('A' for Active; 'I' for Inactive)
    1  A    between atoms: C_3  and  C_24
    2  A    between atoms: N_6  and  C_20
    3  A    between atoms: N_6  and  C_38
    4  A    between atoms: C_11  and  C_20
    5  A    between atoms: C_13  and  C_20
    6  A    between atoms: C_13  and  C_35
    7  A    between atoms: C_15  and  C_38
    8  A    between atoms: N_16  and  C_22
    9  A    between atoms: O_27  and  C_32
                            x       y       z     vdW  Elec       q    Type
                         _______ _______ _______ _____ _____    ______ ____

>  <TORSDO>
F 9

$$$$
=
 OpenBabel11072415123D

 39 43  0  0  1  0  0  0  0  0999 V2000
  161.0360  205.0790  151.4720 C   0  0  0  0  0  2  0  0  0  0  0  0
  161.1560  207.2460  152.5890 N   0  0  0  0  0  0  0  0  0  0  0  0
  163.1480  205.8100  152.6110 C   0  0  0  0  0  1  0  0  0  0  0  0
  160.4560  209.0500  151.2690 O   0  0  0  0  0  0  0  0  0  0  0  0
  161.4500  205.6750  150.1200 C   0  0  2  0  0  3  0  0  0  0  0  0
  160.9620  207.8940  151.3230 C   0  0  0  0  0  0  0  0  0  0  0  0
  161.6310  205.8650  152.6320 C   0  0  2  0  0  3  0  0  0  0  0  0
  161.3620  207.2170  150.0350 C   0  0  1  0  0  3  0  0  0  0  0  0
  160.8720  202.5650  150.0740 C   0  0  0  0  0  0  0  0  0  0  0  0
  160.7090  204.9440  148.9810 C   0  0  1  0  0  3  0  0  0  0  0  0
  160.4380  202.4960  148.6150 C   0  0  2  0  0  3  0  0  0  0  0  0
  161.5430  204.4740  147.8400 C   0  0  0  0  0  0  0  0  0  0  0  0
  161.0400  202.7480  146.3230 O   0  0  0  0  0  1  0  0  0  0  0  0
  161.4760  203.0140  147.6180 C   0  0  2  0  0  3  0  0  0  0  0  0
  160.1350  201.5770  150.9520 C   0  0  0  0  0  1  0  0  0  0  0  0
  162.3640  202.7730  150.3520 C   0  0  0  0  0  1  0  0  0  0  0  0
  162.1690  205.2250  147.1110 O   0  0  0  0  0  0  0  0  0  0  0  0
  159.9960  203.6800  149.4950 C   0  0  1  0  0  3  0  0  0  0  0  0
  161.7310  209.3950  155.6680 C   0  0  0  0  0  0  0  0  0  0  0  0
  160.9150  208.7010  156.5650 O   0  0  0  0  0  0  0  0  0  0  0  0
  162.4340  210.3510  156.0970 O   0  0  0  0  0  0  0  0  0  0  0  0
  160.7900  207.9410  153.8240 C   0  0  1  0  0  3  0  0  0  0  0  0
  160.4570  206.9520  154.9360 C   0  0  0  0  0  2  0  0  0  0  0  0
  159.9750  207.6990  156.1750 C   0  0  2  0  0  0  0  0  0  0  0  0
  158.6270  208.3480  155.9020 C   0  0  0  0  0  1  0  0  0  0  0  0
  161.8810  208.9370  154.2360 C   0  0  1  0  0  3  0  0  0  0  0  0
  159.8180  206.7500  157.2600 N   0  0  0  0  0  1  0  0  0  0  0  0
  161.8480  210.1250  153.2740 C   0  0  0  0  0  2  0  0  0  0  0  0
  160.5760  210.9400  153.4420 C   0  0  2  0  0  3  0  0  0  0  0  0
  159.6060  213.0080  152.3780 C   0  0  0  0  0  2  0  0  0  0  0  0
  160.2570  211.6960  152.1380 C   0  0  2  0  0  3  0  0  0  0  0  0
  158.8670  211.8770  151.9890 O   0  0  0  0  0  0  0  0  0  0  0  0
  160.6810  211.8190  154.6030 N   0  0  0  0  0  2  0  0  0  0  0  0
  159.4000  211.7660  155.2930 C   0  0  0  0  0  2  0  0  0  0  0  0
  158.2760  212.8390  157.2260 O   0  0  0  0  0  1  0  0  0  0  0  0
  159.4120  212.6910  156.4480 C   0  0  0  0  0  0  0  0  0  0  0  0
  160.4540  213.3340  156.7270 O   0  0  0  0  0  0  0  0  0  0  0  0
  162.3310  208.5900  148.5650 C   0  0  0  0  0  1  0  0  0  0  0  0
  162.6050  207.7060  149.6120 O   0  0  0  0  0  0  0  0  0  0  0  0
  1  7  1  0  0  0  0
  2  7  1  0  0  0  0
  4  6  2  0  0  0  0
  5  1  1  1  0  0  0
  6  2  1  0  0  0  0
  7  3  1  6  0  0  0
  8 39  1  1  0  0  0
  8  5  1  0  0  0  0
  8  6  1  0  0  0  0
  9 16  1  0  0  0  0
  9 15  1  0  0  0  0
 10 12  1  6  0  0  0
 10 18  1  0  0  0  0
 10  5  1  0  0  0  0
 11 18  1  0  0  0  0
 11  9  1  1  0  0  0
 14 13  1  6  0  0  0
 14 12  1  0  0  0  0
 14 11  1  0  0  0  0
 17 12  2  0  0  0  0
 18  9  1  1  0  0  0
 19 21  2  0  0  0  0
 19 20  1  0  0  0  0
 22  2  1  6  0  0  0
 22 26  1  0  0  0  0
 22 23  1  0  0  0  0
 23 24  1  0  0  0  0
 24 25  1  6  0  0  0
 24 20  1  0  0  0  0
 24 27  1  0  0  0  0
 26 28  1  6  0  0  0
 26 19  1  0  0  0  0
 29 28  1  6  0  0  0
 29 33  1  0  0  0  0
 31 30  1  0  0  0  0
 31 29  1  1  0  0  0
 32 31  1  0  0  0  0
 32 30  1  0  0  0  0
 33 34  1  0  0  0  0
 34 36  1  0  0  0  0
 36 37  2  0  0  0  0
 36 35  1  0  0  0  0
 38 39  1  0  0  0  0
M  END
>  <MODEL>
6

>  <REMARK>
 VINA RESULT:      -2.8      1.916      4.373
  Name = 
  9 active torsions:
  status: ('A' for Active; 'I' for Inactive)
    1  A    between atoms: C_3  and  C_24
    2  A    between atoms: N_6  and  C_20
    3  A    between atoms: N_6  and  C_38
    4  A    between atoms: C_11  and  C_20
    5  A    between atoms: C_13  and  C_20
    6  A    between atoms: C_13  and  C_35
    7  A    between atoms: C_15  and  C_38
    8  A    between atoms: N_16  and  C_22
    9  A    between atoms: O_27  and  C_32
                            x       y       z     vdW  Elec       q    Type
                         _______ _______ _______ _____ _____    ______ ____

>  <TORSDO>
F 9

$$$$
=
 OpenBabel11072415123D

 39 43  0  0  1  0  0  0  0  0999 V2000
  161.3680  206.4240  150.6220 C   0  0  0  0  0  2  0  0  0  0  0  0
  161.9550  208.4830  149.4510 N   0  0  0  0  0  0  0  0  0  0  0  0
  163.7480  207.2120  150.5470 C   0  0  0  0  0  1  0  0  0  0  0  0
  161.1470  208.6060  147.2550 O   0  0  0  0  0  0  0  0  0  0  0  0
  161.5120  205.5770  149.3500 C   0  0  2  0  0  3  0  0  0  0  0  0
  161.5360  207.8840  148.2150 C   0  0  0  0  0  0  0  0  0  0  0  0
  162.2900  207.6340  150.5920 C   0  0  2  0  0  3  0  0  0  0  0  0
  161.5570  206.3860  148.0320 C   0  0  1  0  0  3  0  0  0  0  0  0
  160.9110  203.7040  151.8280 C   0  0  0  0  0  0  0  0  0  0  0  0
  160.4580  204.4500  149.3540 C   0  0  1  0  0  3  0  0  0  0  0  0
  160.0640  202.6890  151.0700 C   0  0  2  0  0  3  0  0  0  0  0  0
  160.9110  203.1150  148.8720 C   0  0  0  0  0  0  0  0  0  0  0  0
  159.9610  201.0220  149.3710 O   0  0  0  0  0  1  0  0  0  0  0  0
  160.7650  202.0410  149.8760 C   0  0  2  0  0  3  0  0  0  0  0  0
  160.4560  203.8960  153.2580 C   0  0  0  0  0  1  0  0  0  0  0  0
  162.4210  203.6880  151.5680 C   0  0  0  0  0  1  0  0  0  0  0  0
  161.3010  202.9080  147.7350 O   0  0  0  0  0  0  0  0  0  0  0  0
  159.9150  204.1930  150.7720 C   0  0  1  0  0  3  0  0  0  0  0  0
  160.7250  211.8570  150.6850 C   0  0  0  0  0  0  0  0  0  0  0  0
  160.9440  212.6010  149.5210 O   0  0  0  0  0  0  0  0  0  0  0  0
  160.1470  212.4100  151.6610 O   0  0  0  0  0  0  0  0  0  0  0  0
  161.9560  209.9400  149.5870 C   0  0  1  0  0  3  0  0  0  0  0  0
  161.5930  210.6170  148.2690 C   0  0  0  0  0  2  0  0  0  0  0  0
  161.7070  212.1310  148.4090 C   0  0  2  0  0  0  0  0  0  0  0  0
  163.1630  212.5310  148.5890 C   0  0  0  0  0  1  0  0  0  0  0  0
  161.0480  210.3830  150.7400 C   0  0  1  0  0  3  0  0  0  0  0  0
  161.2060  212.7500  147.1970 N   0  0  0  0  0  1  0  0  0  0  0  0
  161.7240  210.0200  152.0630 C   0  0  0  0  0  2  0  0  0  0  0  0
  160.7030  209.7710  153.1590 C   0  0  2  0  0  3  0  0  0  0  0  0
  160.0170  211.0000  155.2490 C   0  0  0  0  0  2  0  0  0  0  0  0
  161.1530  210.4510  154.4660 C   0  0  2  0  0  3  0  0  0  0  0  0
  160.8330  211.8240  154.4540 O   0  0  0  0  0  0  0  0  0  0  0  0
  160.4550  208.3400  153.3130 N   0  0  0  0  0  2  0  0  0  0  0  0
  161.4680  207.8290  154.2250 C   0  0  0  0  0  2  0  0  0  0  0  0
  161.5250  207.7500  156.7020 O   0  0  0  0  0  1  0  0  0  0  0  0
  160.8480  207.4850  155.5240 C   0  0  0  0  0  0  0  0  0  0  0  0
  159.7070  206.9630  155.5570 O   0  0  0  0  0  0  0  0  0  0  0  0
  162.2770  205.6750  146.0430 C   0  0  0  0  0  1  0  0  0  0  0  0
  162.7090  206.0140  147.3270 O   0  0  0  0  0  0  0  0  0  0  0  0
  2 22  1  0  0  0  0
  2  7  1  0  0  0  0
  4  6  2  0  0  0  0
  5 10  1  0  0  0  0
  5  1  1  1  0  0  0
  6  2  1  0  0  0  0
  7  3  1  6  0  0  0
  7  1  1  0  0  0  0
  8 39  1  1  0  0  0
  8  6  1  0  0  0  0
  8  5  1  0  0  0  0
  9 15  1  0  0  0  0
 10 12  1  1  0  0  0
 10 18  1  0  0  0  0
 11  9  1  1  0  0  0
 12 14  1  0  0  0  0
 14 13  1  6  0  0  0
 14 11  1  0  0  0  0
 16  9  1  0  0  0  0
 17 12  2  0  0  0  0
 18 11  1  0  0  0  0
 18  9  1  1  0  0  0
 19 26  1  0  0  0  0
 19 21  2  0  0  0  0
 20 19  1  0  0  0  0
 22 23  1  6  0  0  0
 22 26  1  0  0  0  0
 23 24  1  0  0  0  0
 24 25  1  1  0  0  0
 24 20  1  0  0  0  0
 26 28  1  1  0  0  0
 27 24  1  0  0  0  0
 29 28  1  6  0  0  0
 29 33  1  0  0  0  0
 31 29  1  6  0  0  0
 31 30  1  0  0  0  0
 32 31  1  0  0  0  0
 32 30  1  0  0  0  0
 33 34  1  0  0  0  0
 34 36  1  0  0  0  0
 36 37  2  0  0  0  0
 36 35  1  0  0  0  0
 38 39  1  0  0  0  0
M  END
>  <MODEL>
7

>  <REMARK>
 VINA RESULT:      -2.7      2.321      4.514
  Name = 
  9 active torsions:
  status: ('A' for Active; 'I' for Inactive)
    1  A    between atoms: C_3  and  C_24
    2  A    between atoms: N_6  and  C_20
    3  A    between atoms: N_6  and  C_38
    4  A    between atoms: C_11  and  C_20
    5  A    between atoms: C_13  and  C_20
    6  A    between atoms: C_13  and  C_35
    7  A    between atoms: C_15  and  C_38
    8  A    between atoms: N_16  and  C_22
    9  A    between atoms: O_27  and  C_32
                            x       y       z     vdW  Elec       q    Type
                         _______ _______ _______ _____ _____    ______ ____

>  <TORSDO>
F 9

$$$$
=
 OpenBabel11072415123D

 39 43  0  0  1  0  0  0  0  0999 V2000
  161.2080  208.3560  150.4990 C   0  0  0  0  0  2  0  0  0  0  0  0
  161.2790  206.2680  149.2380 N   0  0  0  0  0  0  0  0  0  0  0  0
  163.4040  207.3500  149.8260 C   0  0  0  0  0  1  0  0  0  0  0  0
  160.0140  204.5330  150.1760 O   0  0  0  0  0  0  0  0  0  0  0  0
  161.1790  207.6230  151.8470 C   0  0  2  0  0  3  0  0  0  0  0  0
  160.6820  205.5900  150.3540 C   0  0  0  0  0  0  0  0  0  0  0  0
  161.9490  207.5500  149.4420 C   0  0  2  0  0  3  0  0  0  0  0  0
  160.8460  206.1150  151.7590 C   0  0  1  0  0  3  0  0  0  0  0  0
  161.2090  210.7690  152.1800 C   0  0  0  0  0  0  0  0  0  0  0  0
  160.2950  208.4010  152.8440 C   0  0  1  0  0  3  0  0  0  0  0  0
  160.3970  210.8090  153.4690 C   0  0  2  0  0  3  0  0  0  0  0  0
  160.8410  208.5790  154.2170 C   0  0  0  0  0  0  0  0  0  0  0  0
  160.2600  210.2390  155.7790 O   0  0  0  0  0  1  0  0  0  0  0  0
  160.9900  209.9930  154.6190 C   0  0  2  0  0  3  0  0  0  0  0  0
  160.9540  211.9650  151.2900 C   0  0  0  0  0  1  0  0  0  0  0  0
  162.6520  210.2620  152.2770 C   0  0  0  0  0  1  0  0  0  0  0  0
  161.0790  207.6490  154.9720 O   0  0  0  0  0  0  0  0  0  0  0  0
  160.0100  209.8300  152.3460 C   0  0  1  0  0  3  0  0  0  0  0  0
  162.4260  204.6060  146.0210 C   0  0  0  0  0  0  0  0  0  0  0  0
  161.6550  205.3420  145.1160 O   0  0  0  0  0  0  0  0  0  0  0  0
  163.2670  203.7790  145.5730 O   0  0  0  0  0  0  0  0  0  0  0  0
  161.1330  205.7150  147.8900 C   0  0  1  0  0  3  0  0  0  0  0  0
  160.8340  206.8130  146.8750 C   0  0  0  0  0  2  0  0  0  0  0  0
  160.5790  206.2000  145.5020 C   0  0  2  0  0  0  0  0  0  0  0  0
  159.2810  205.4090  145.5160 C   0  0  0  0  0  1  0  0  0  0  0  0
  162.3590  204.8800  147.5050 C   0  0  1  0  0  3  0  0  0  0  0  0
  160.4560  207.2690  144.5290 N   0  0  0  0  0  1  0  0  0  0  0  0
  162.3330  203.5750  148.3010 C   0  0  0  0  0  2  0  0  0  0  0  0
  161.1350  202.7190  147.9270 C   0  0  2  0  0  3  0  0  0  0  0  0
  159.9580  201.3200  149.6600 C   0  0  0  0  0  2  0  0  0  0  0  0
  161.1320  201.4220  148.7570 C   0  0  2  0  0  3  0  0  0  0  0  0
  161.2230  201.7060  150.1350 O   0  0  0  0  0  0  0  0  0  0  0  0
  161.1090  202.4780  146.4870 N   0  0  0  0  0  2  0  0  0  0  0  0
  160.8320  201.0620  146.2970 C   0  0  0  0  0  2  0  0  0  0  0  0
  159.3440  201.9210  144.5090 O   0  0  0  0  0  1  0  0  0  0  0  0
  160.0510  200.8640  145.0550 C   0  0  0  0  0  0  0  0  0  0  0  0
  160.0360  199.7410  144.4950 O   0  0  0  0  0  0  0  0  0  0  0  0
  161.2040  204.4780  153.2340 C   0  0  0  0  0  1  0  0  0  0  0  0
  161.8580  205.4020  152.4140 O   0  0  0  0  0  0  0  0  0  0  0  0
  2  7  1  0  0  0  0
  2  6  1  0  0  0  0
  4  6  2  0  0  0  0
  5  1  1  6  0  0  0
  5 10  1  0  0  0  0
  6  8  1  0  0  0  0
  7  3  1  1  0  0  0
  7  1  1  0  0  0  0
  8  5  1  0  0  0  0
  8 39  1  6  0  0  0
  9 16  1  0  0  0  0
 10 12  1  1  0  0  0
 11  9  1  6  0  0  0
 11 14  1  0  0  0  0
 12 14  1  0  0  0  0
 12 17  2  0  0  0  0
 14 13  1  1  0  0  0
 15  9  1  0  0  0  0
 18  9  1  6  0  0  0
 18 10  1  0  0  0  0
 18 11  1  0  0  0  0
 19 26  1  0  0  0  0
 20 24  1  0  0  0  0
 20 19  1  0  0  0  0
 21 19  2  0  0  0  0
 22 23  1  6  0  0  0
 22  2  1  0  0  0  0
 24 25  1  1  0  0  0
 24 23  1  0  0  0  0
 26 22  1  0  0  0  0
 26 28  1  1  0  0  0
 27 24  1  0  0  0  0
 29 28  1  6  0  0  0
 30 32  1  0  0  0  0
 31 29  1  6  0  0  0
 31 30  1  0  0  0  0
 31 32  1  0  0  0  0
 33 29  1  0  0  0  0
 34 33  1  0  0  0  0
 35 36  1  0  0  0  0
 36 34  1  0  0  0  0
 37 36  2  0  0  0  0
 39 38  1  0  0  0  0
M  END
>  <MODEL>
8

>  <REMARK>
 VINA RESULT:      -2.3      3.741      9.407
  Name = 
  9 active torsions:
  status: ('A' for Active; 'I' for Inactive)
    1  A    between atoms: C_3  and  C_24
    2  A    between atoms: N_6  and  C_20
    3  A    between atoms: N_6  and  C_38
    4  A    between atoms: C_11  and  C_20
    5  A    between atoms: C_13  and  C_20
    6  A    between atoms: C_13  and  C_35
    7  A    between atoms: C_15  and  C_38
    8  A    between atoms: N_16  and  C_22
    9  A    between atoms: O_27  and  C_32
                            x       y       z     vdW  Elec       q    Type
                         _______ _______ _______ _____ _____    ______ ____

>  <TORSDO>
F 9

$$$$
=
 OpenBabel11072415123D

 39 43  0  0  1  0  0  0  0  0999 V2000
  160.3600  207.6010  151.4410 C   0  0  0  0  0  2  0  0  0  0  0  0
  161.0790  209.9240  151.2390 N   0  0  0  0  0  0  0  0  0  0  0  0
  162.2630  208.4690  152.8250 C   0  0  0  0  0  1  0  0  0  0  0  0
  161.4880  210.6170  149.0390 O   0  0  0  0  0  0  0  0  0  0  0  0
  161.2780  207.1440  150.2990 C   0  0  2  0  0  3  0  0  0  0  0  0
  161.4590  209.6730  149.8770 C   0  0  0  0  0  0  0  0  0  0  0  0
  160.9360  208.8070  152.1700 C   0  0  2  0  0  3  0  0  0  0  0  0
  161.8390  208.2860  149.4200 C   0  0  1  0  0  3  0  0  0  0  0  0
  161.0940  204.1300  151.2460 C   0  0  0  0  0  0  0  0  0  0  0  0
  160.5890  206.0190  149.4970 C   0  0  1  0  0  3  0  0  0  0  0  0
  160.6150  203.5650  149.9150 C   0  0  2  0  0  3  0  0  0  0  0  0
  161.4290  205.3100  148.4930 C   0  0  0  0  0  0  0  0  0  0  0  0
  161.0870  203.1540  147.6160 O   0  0  0  0  0  1  0  0  0  0  0  0
  161.5380  203.8550  148.7310 C   0  0  2  0  0  3  0  0  0  0  0  0
  160.5230  203.3920  152.4370 C   0  0  0  0  0  1  0  0  0  0  0  0
  162.5590  204.5730  151.3320 C   0  0  0  0  0  1  0  0  0  0  0  0
  161.9260  205.8590  147.5230 O   0  0  0  0  0  0  0  0  0  0  0  0
  160.0630  204.9090  150.4240 C   0  0  1  0  0  3  0  0  0  0  0  0
  159.6460  212.6040  153.5170 C   0  0  0  0  0  0  0  0  0  0  0  0
  159.1380  213.4630  152.5380 O   0  0  0  0  0  0  0  0  0  0  0  0
  159.4180  212.8600  154.7310 O   0  0  0  0  0  0  0  0  0  0  0  0
  160.7500  211.2860  151.6610 C   0  0  1  0  0  3  0  0  0  0  0  0
  159.6920  211.9030  150.7530 C   0  0  0  0  0  2  0  0  0  0  0  0
  159.4460  213.3560  151.1480 C   0  0  2  0  0  0  0  0  0  0  0  0
  160.6740  214.1970  150.8350 C   0  0  0  0  0  1  0  0  0  0  0  0
  160.3420  211.3170  153.1390 C   0  0  1  0  0  3  0  0  0  0  0  0
  158.3290  213.8660  150.3760 N   0  0  0  0  0  1  0  0  0  0  0  0
  161.5890  211.0970  153.9970 C   0  0  0  0  0  2  0  0  0  0  0  0
  161.2250  210.6660  155.4070 C   0  0  2  0  0  3  0  0  0  0  0  0
  162.9690  211.0240  157.1890 C   0  0  0  0  0  2  0  0  0  0  0  0
  162.4680  210.1140  156.1290 C   0  0  2  0  0  3  0  0  0  0  0  0
  163.5820  210.9540  155.9260 O   0  0  0  0  0  0  0  0  0  0  0  0
  160.1100  209.7230  155.3820 N   0  0  0  0  0  2  0  0  0  0  0  0
  160.2010  208.9240  156.5950 C   0  0  0  0  0  2  0  0  0  0  0  0
  159.7560  206.5770  157.2590 O   0  0  0  0  0  1  0  0  0  0  0  0
  160.0630  207.4880  156.2630 C   0  0  0  0  0  0  0  0  0  0  0  0
  160.2150  207.0990  155.0790 O   0  0  0  0  0  0  0  0  0  0  0  0
  163.5830  208.1940  148.0300 C   0  0  0  0  0  1  0  0  0  0  0  0
  163.2340  208.1670  149.3830 O   0  0  0  0  0  0  0  0  0  0  0  0
  1  7  1  0  0  0  0
  2 22  1  0  0  0  0
  2  7  1  0  0  0  0
  4  6  2  0  0  0  0
  5  1  1  1  0  0  0
  6  2  1  0  0  0  0
  7  3  1  6  0  0  0
  8 39  1  1  0  0  0
  8  6  1  0  0  0  0
  8  5  1  0  0  0  0
  9 16  1  0  0  0  0
  9 15  1  0  0  0  0
 10 12  1  6  0  0  0
 10  5  1  0  0  0  0
 10 18  1  0  0  0  0
 11 18  1  0  0  0  0
 11  9  1  1  0  0  0
 12 14  1  0  0  0  0
 14 13  1  6  0  0  0
 14 11  1  0  0  0  0
 17 12  2  0  0  0  0
 18  9  1  1  0  0  0
 19 21  2  0  0  0  0
 20 19  1  0  0  0  0
 22 23  1  6  0  0  0
 22 26  1  0  0  0  0
 23 24  1  0  0  0  0
 24 25  1  6  0  0  0
 24 20  1  0  0  0  0
 26 19  1  0  0  0  0
 26 28  1  1  0  0  0
 27 24  1  0  0  0  0
 29 28  1  6  0  0  0
 31 29  1  6  0  0  0
 31 30  1  0  0  0  0
 32 31  1  0  0  0  0
 32 30  1  0  0  0  0
 33 29  1  0  0  0  0
 33 34  1  0  0  0  0
 36 34  1  0  0  0  0
 36 35  1  0  0  0  0
 37 36  2  0  0  0  0
 38 39  1  0  0  0  0
M  END
>  <MODEL>
9

>  <REMARK>
 VINA RESULT:      -2.3      1.574      2.154
  Name = 
  9 active torsions:
  status: ('A' for Active; 'I' for Inactive)
    1  A    between atoms: C_3  and  C_24
    2  A    between atoms: N_6  and  C_20
    3  A    between atoms: N_6  and  C_38
    4  A    between atoms: C_11  and  C_20
    5  A    between atoms: C_13  and  C_20
    6  A    between atoms: C_13  and  C_35
    7  A    between atoms: C_15  and  C_38
    8  A    between atoms: N_16  and  C_22
    9  A    between atoms: O_27  and  C_32
                            x       y       z     vdW  Elec       q    Type
                         _______ _______ _______ _____ _____    ______ ____

>  <TORSDO>
F 9

$$$$
