=
 OpenBabel11072413493D

 29 32  0  0  1  0  0  0  0  0999 V2000
  161.7570  210.6690  156.8500 C   0  0  0  0  0  3  0  0  0  0  0  0
  160.9910  208.7740  152.2320 C   0  0  2  0  0  3  0  0  0  0  0  0
  160.8760  206.8450  154.3880 C   0  0  0  0  0  3  0  0  0  0  0  0
  158.8810  212.9920  155.4810 C   0  0  0  0  0  0  0  0  0  0  0  0
  160.3390  211.5020  154.0510 C   0  0  0  0  0  2  0  0  0  0  0  0
  157.6540  213.8250  155.3050 C   0  0  0  0  0  2  0  0  0  0  0  0
  158.2330  212.9010  153.3480 C   0  0  0  0  0  0  0  0  0  0  0  0
  160.9560  209.2580  153.6990 C   0  0  2  0  0  3  0  0  0  0  0  0
  158.2120  212.5320  151.9070 C   0  0  0  0  0  1  0  0  0  0  0  0
  159.9420  209.2150  156.6780 N   0  0  0  0  0  0  0  0  0  0  0  0
  160.9270  208.1370  154.7430 C   0  0  0  0  0  0  0  0  0  0  0  0
  161.5760  207.3730  152.0880 C   0  0  0  0  0  2  0  0  0  0  0  0
  160.3050  210.4030  157.0050 C   0  0  0  0  0  0  0  0  0  0  0  0
  159.5640  212.7830  156.7990 C   0  0  0  0  0  2  0  0  0  0  0  0
  159.3420  211.4230  157.2590 N   0  0  0  0  0  2  0  0  0  0  0  0
  159.2140  212.4510  154.3160 C   0  0  0  0  0  0  0  0  0  0  0  0
  161.0730  208.4370  156.2120 C   0  0  1  0  0  3  0  0  0  0  0  0
  159.8190  210.1510  153.8820 N   0  0  0  0  0  2  0  0  0  0  0  0
  160.7720  206.4200  152.9560 C   0  0  1  0  0  3  0  0  0  0  0  0
  157.3510  213.6730  153.8850 N   0  0  0  0  0  0  0  0  0  0  0  0
  162.3060  209.3040  156.4640 C   0  0  0  0  0  3  0  0  0  0  0  0
  162.2710  209.1770  149.6910 N   0  0  0  0  0  1  0  0  0  0  0  0
  161.1000  211.1560  150.9830 O   0  0  0  0  0  0  0  0  0  0  0  0
  163.1950  210.2890  151.8980 O   0  0  0  0  0  0  0  0  0  0  0  0
  161.9130  209.9140  151.2130 S   0  0  0  0  0  0  0  0  0  0  0  0
  161.2880  204.9960  152.8110 C   0  0  0  0  0  2  0  0  0  0  0  0
  160.3700  205.1030  150.6410 O   0  0  0  0  0  0  0  0  0  0  0  0
  161.0550  202.9440  151.2620 C   0  0  0  0  0  1  0  0  0  0  0  0
  160.8730  204.4020  151.5040 C   0  0  0  0  0  0  0  0  0  0  0  0
  1 13  1  0  0  0  0
  2 25  1  6  0  0  0
  2  8  1  0  0  0  0
  3 11  2  0  0  0  0
  4 14  1  0  0  0  0
  5 16  1  0  0  0  0
  6  4  1  0  0  0  0
  7 20  2  0  0  0  0
  7 16  1  0  0  0  0
  8 18  1  6  0  0  0
  8 11  1  0  0  0  0
  9  7  1  0  0  0  0
 10 13  2  0  0  0  0
 11 17  1  0  0  0  0
 12  2  1  0  0  0  0
 12 19  1  0  0  0  0
 13 15  1  0  0  0  0
 14 15  1  0  0  0  0
 16  4  2  0  0  0  0
 17 21  1  6  0  0  0
 17 10  1  0  0  0  0
 18  5  1  0  0  0  0
 19 26  1  1  0  0  0
 19  3  1  0  0  0  0
 20  6  1  0  0  0  0
 21  1  2  0  0  0  0
 22 25  1  0  0  0  0
 23 25  2  0  0  0  0
 25 24  2  0  0  0  0
 27 29  2  0  0  0  0
 28 29  1  0  0  0  0
 29 26  1  0  0  0  0
M  END
>  <MODEL>
1

>  <REMARK>
 VINA RESULT:      -7.0      0.000      0.000
  Name = 
  3 active torsions:
  status: ('A' for Active; 'I' for Inactive)
    1  A    between atoms: C_2  and  S_21
    2  A    between atoms: C_22  and  C_26
    3  A    between atoms: C_26  and  C_27
                            x       y       z     vdW  Elec       q    Type
                         _______ _______ _______ _____ _____    ______ ____

>  <TORSDO>
F 3

$$$$
=
 OpenBabel11072413493D

 29 32  0  0  1  0  0  0  0  0999 V2000
  161.5770  209.6800  156.8440 C   0  0  0  0  0  3  0  0  0  0  0  0
  161.1700  208.6530  151.9170 C   0  0  2  0  0  3  0  0  0  0  0  0
  161.1800  206.3400  153.6580 C   0  0  0  0  0  3  0  0  0  0  0  0
  158.5260  211.9420  155.7880 C   0  0  0  0  0  0  0  0  0  0  0  0
  160.1780  210.9020  154.1820 C   0  0  0  0  0  2  0  0  0  0  0  0
  157.2260  212.6740  155.7070 C   0  0  0  0  0  2  0  0  0  0  0  0
  157.9650  212.2060  153.6450 C   0  0  0  0  0  0  0  0  0  0  0  0
  161.0350  208.8380  153.4440 C   0  0  2  0  0  3  0  0  0  0  0  0
  158.0310  212.1230  152.1610 C   0  0  0  0  0  1  0  0  0  0  0  0
  159.9280  208.1220  156.3030 N   0  0  0  0  0  0  0  0  0  0  0  0
  161.0850  207.5380  154.2540 C   0  0  0  0  0  0  0  0  0  0  0  0
  161.9000  207.3680  151.5410 C   0  0  0  0  0  2  0  0  0  0  0  0
  160.1560  209.2530  156.8680 C   0  0  0  0  0  0  0  0  0  0  0  0
  159.1800  211.5470  157.0770 C   0  0  0  0  0  2  0  0  0  0  0  0
  159.0840  210.1080  157.2590 N   0  0  0  0  0  2  0  0  0  0  0  0
  158.9530  211.6710  154.5610 C   0  0  0  0  0  0  0  0  0  0  0  0
  161.1490  207.5590  155.7590 C   0  0  1  0  0  3  0  0  0  0  0  0
  159.8060  209.5670  153.7320 N   0  0  0  0  0  2  0  0  0  0  0  0
  161.1690  206.1930  152.1680 C   0  0  1  0  0  3  0  0  0  0  0  0
  156.9900  212.7720  154.2700 N   0  0  0  0  0  0  0  0  0  0  0  0
  162.2770  208.4740  156.2360 C   0  0  0  0  0  3  0  0  0  0  0  0
  160.9670  211.4320  151.2160 N   0  0  0  0  0  1  0  0  0  0  0  0
  163.2570  210.3540  151.9560 O   0  0  0  0  0  0  0  0  0  0  0  0
  162.3720  209.7370  149.7610 O   0  0  0  0  0  0  0  0  0  0  0  0
  162.0040  210.0510  151.1830 S   0  0  0  0  0  0  0  0  0  0  0  0
  161.8340  204.8800  151.7840 C   0  0  0  0  0  2  0  0  0  0  0  0
  160.3300  203.1640  152.3800 O   0  0  0  0  0  0  0  0  0  0  0  0
  160.4120  203.5750  150.0690 C   0  0  0  0  0  1  0  0  0  0  0  0
  160.8160  203.8280  151.4790 C   0  0  0  0  0  0  0  0  0  0  0  0
  1 13  1  0  0  0  0
  2 25  1  1  0  0  0
  2  8  1  0  0  0  0
  3 11  2  0  0  0  0
  4 14  1  0  0  0  0
  5 16  1  0  0  0  0
  6  4  1  0  0  0  0
  7 20  2  0  0  0  0
  7 16  1  0  0  0  0
  8 18  1  6  0  0  0
  8 11  1  0  0  0  0
  9  7  1  0  0  0  0
 10 13  2  0  0  0  0
 11 17  1  0  0  0  0
 12  2  1  0  0  0  0
 12 19  1  0  0  0  0
 13 15  1  0  0  0  0
 14 15  1  0  0  0  0
 16  4  2  0  0  0  0
 17 21  1  6  0  0  0
 17 10  1  0  0  0  0
 18  5  1  0  0  0  0
 19 26  1  1  0  0  0
 19  3  1  0  0  0  0
 20  6  1  0  0  0  0
 21  1  2  0  0  0  0
 24 25  2  0  0  0  0
 25 22  1  0  0  0  0
 25 23  2  0  0  0  0
 28 29  1  0  0  0  0
 29 26  1  0  0  0  0
 29 27  2  0  0  0  0
M  END
>  <MODEL>
2

>  <REMARK>
 VINA RESULT:      -5.9      1.217      1.316
  Name = 
  3 active torsions:
  status: ('A' for Active; 'I' for Inactive)
    1  A    between atoms: C_2  and  S_21
    2  A    between atoms: C_22  and  C_26
    3  A    between atoms: C_26  and  C_27
                            x       y       z     vdW  Elec       q    Type
                         _______ _______ _______ _____ _____    ______ ____

>  <TORSDO>
F 3

$$$$
=
 OpenBabel11072413493D

 29 32  0  0  1  0  0  0  0  0999 V2000
  157.3510  214.2540  137.0520 C   0  0  0  0  0  3  0  0  0  0  0  0
  159.5250  210.4520  139.5660 C   0  0  2  0  0  3  0  0  0  0  0  0
  160.0680  213.0930  140.6200 C   0  0  0  0  0  3  0  0  0  0  0  0
  154.2750  211.9020  137.7940 C   0  0  0  0  0  0  0  0  0  0  0  0
  156.7000  211.2010  137.9440 C   0  0  0  0  0  2  0  0  0  0  0  0
  152.9430  211.3320  138.1560 C   0  0  0  0  0  2  0  0  0  0  0  0
  154.5570  209.8580  138.6440 C   0  0  0  0  0  0  0  0  0  0  0  0
  158.7250  211.6680  139.0490 C   0  0  2  0  0  3  0  0  0  0  0  0
  155.2340  208.6230  139.1220 C   0  0  0  0  0  1  0  0  0  0  0  0
  157.1450  214.3720  139.3720 N   0  0  0  0  0  0  0  0  0  0  0  0
  159.1300  213.0120  139.6650 C   0  0  0  0  0  0  0  0  0  0  0  0
  160.9000  210.8370  140.1000 C   0  0  0  0  0  2  0  0  0  0  0  0
  156.4970  214.3300  138.2630 C   0  0  0  0  0  0  0  0  0  0  0  0
  154.4690  213.2810  137.2410 C   0  0  0  0  0  2  0  0  0  0  0  0
  155.0850  214.1330  138.2440 N   0  0  0  0  0  2  0  0  0  0  0  0
  155.2220  211.0200  138.0880 C   0  0  0  0  0  0  0  0  0  0  0  0
  158.5750  214.3090  139.1390 C   0  0  1  0  0  3  0  0  0  0  0  0
  157.3020  211.4270  139.2510 N   0  0  0  0  0  2  0  0  0  0  0  0
  160.7240  211.8760  141.1940 C   0  0  1  0  0  3  0  0  0  0  0  0
  153.2780  210.0150  138.6900 N   0  0  0  0  0  0  0  0  0  0  0  0
  158.7530  214.3950  137.6230 C   0  0  0  0  0  3  0  0  0  0  0  0
  160.8660  208.0390  138.7690 N   0  0  0  0  0  1  0  0  0  0  0  0
  158.3820  208.5490  138.0430 O   0  0  0  0  0  0  0  0  0  0  0  0
  160.1590  209.8750  137.0110 O   0  0  0  0  0  0  0  0  0  0  0  0
  159.7040  209.2230  138.2840 S   0  0  0  0  0  0  0  0  0  0  0  0
  162.0680  212.2600  141.7930 C   0  0  0  0  0  2  0  0  0  0  0  0
  160.9130  212.3070  143.8480 O   0  0  0  0  0  0  0  0  0  0  0  0
  163.0690  213.2300  143.9660 C   0  0  0  0  0  1  0  0  0  0  0  0
  161.9420  212.5720  143.2490 C   0  0  0  0  0  0  0  0  0  0  0  0
  1 21  2  0  0  0  0
  1 13  1  0  0  0  0
  2 25  1  6  0  0  0
  2 12  1  0  0  0  0
  3 19  1  0  0  0  0
  4 16  2  0  0  0  0
  4  6  1  0  0  0  0
  5 16  1  0  0  0  0
  5 18  1  0  0  0  0
  6 20  1  0  0  0  0
  7 20  2  0  0  0  0
  7  9  1  0  0  0  0
  8 18  1  1  0  0  0
  8  2  1  0  0  0  0
  8 11  1  0  0  0  0
 11  3  2  0  0  0  0
 12 19  1  0  0  0  0
 13 10  2  0  0  0  0
 14  4  1  0  0  0  0
 14 15  1  0  0  0  0
 15 13  1  0  0  0  0
 16  7  1  0  0  0  0
 17 21  1  6  0  0  0
 17 10  1  0  0  0  0
 17 11  1  0  0  0  0
 19 26  1  6  0  0  0
 23 25  2  0  0  0  0
 24 25  2  0  0  0  0
 25 22  1  0  0  0  0
 26 29  1  0  0  0  0
 29 27  2  0  0  0  0
 29 28  1  0  0  0  0
M  END
>  <MODEL>
3

>  <REMARK>
 VINA RESULT:      -4.2     12.916     15.823
  Name = 
  3 active torsions:
  status: ('A' for Active; 'I' for Inactive)
    1  A    between atoms: C_2  and  S_21
    2  A    between atoms: C_22  and  C_26
    3  A    between atoms: C_26  and  C_27
                            x       y       z     vdW  Elec       q    Type
                         _______ _______ _______ _____ _____    ______ ____

>  <TORSDO>
F 3

$$$$
=
 OpenBabel11072413493D

 29 32  0  0  1  0  0  0  0  0999 V2000
  160.3410  214.1070  151.4270 C   0  0  0  0  0  3  0  0  0  0  0  0
  159.2710  210.4640  154.7570 C   0  0  2  0  0  3  0  0  0  0  0  0
  157.0240  212.1130  153.9740 C   0  0  0  0  0  3  0  0  0  0  0  0
  161.7810  210.9090  149.6280 C   0  0  0  0  0  0  0  0  0  0  0  0
  161.1920  211.0440  152.0830 C   0  0  0  0  0  2  0  0  0  0  0  0
  162.1680  209.8510  148.6480 C   0  0  0  0  0  3  0  0  0  0  0  0
  161.9090  208.9450  150.6800 C   0  0  0  0  0  0  0  0  0  0  0  0
  159.4090  211.4400  153.5670 C   0  0  2  0  0  3  0  0  0  0  0  0
  161.8530  207.9370  151.7730 C   0  0  0  0  0  1  0  0  0  0  0  0
  158.4260  212.8690  150.9400 N   0  0  0  0  0  0  0  0  0  0  0  0
  158.1580  212.2750  153.2750 C   0  0  0  0  0  0  0  0  0  0  0  0
  158.2100  210.9040  155.7590 C   0  0  0  0  0  2  0  0  0  0  0  0
  159.5750  213.2380  150.5000 C   0  0  0  0  0  0  0  0  0  0  0  0
  161.5540  212.3430  149.2590 C   0  0  0  0  0  2  0  0  0  0  0  0
  160.1350  212.6520  149.3280 N   0  0  0  0  0  2  0  0  0  0  0  0
  161.6310  210.3610  150.8270 C   0  0  1  0  0  3  0  0  0  0  0  0
  158.1860  213.3960  152.2700 C   0  0  1  0  0  3  0  0  0  0  0  0
  159.8090  210.6950  152.3800 N   0  0  0  0  0  2  0  0  0  0  0  0
  156.8870  211.0600  155.0290 C   0  0  1  0  0  3  0  0  0  0  0  0
  162.2120  208.6410  149.4640 N   0  0  0  0  0  0  0  0  0  0  0  0
  159.3500  214.3460  152.5560 C   0  0  0  0  0  3  0  0  0  0  0  0
  160.5650  209.9040  157.2610 N   0  0  0  0  0  1  0  0  0  0  0  0
  161.6050  209.1370  154.9620 O   0  0  0  0  0  0  0  0  0  0  0  0
  161.6410  211.5270  155.4800 O   0  0  0  0  0  0  0  0  0  0  0  0
  160.8370  210.2640  155.5930 S   0  0  0  0  0  0  0  0  0  0  0  0
  155.7820  211.4530  155.9970 C   0  0  0  0  0  2  0  0  0  0  0  0
  154.7490  209.4370  155.3400 O   0  0  0  0  0  0  0  0  0  0  0  0
  153.7770  210.4090  157.2450 C   0  0  0  0  0  1  0  0  0  0  0  0
  154.7720  210.3600  156.1390 C   0  0  0  0  0  0  0  0  0  0  0  0
  1 21  2  0  0  0  0
  2 25  1  1  0  0  0
  2 12  1  0  0  0  0
  3 19  1  0  0  0  0
  4 16  1  0  0  0  0
  5 18  1  0  0  0  0
  6 20  1  0  0  0  0
  6  4  2  0  0  0  0
  7 16  1  0  0  0  0
  7  9  1  0  0  0  0
  8 18  1  6  0  0  0
  8  2  1  0  0  0  0
 10 17  1  0  0  0  0
 11  8  1  0  0  0  0
 11  3  2  0  0  0  0
 13 10  2  0  0  0  0
 13  1  1  0  0  0  0
 14 15  1  0  0  0  0
 14  4  1  0  0  0  0
 15 13  1  0  0  0  0
 16  5  1  6  0  0  0
 17 21  1  1  0  0  0
 17 11  1  0  0  0  0
 19 12  1  0  0  0  0
 19 26  1  1  0  0  0
 20  7  2  0  0  0  0
 23 25  2  0  0  0  0
 24 25  2  0  0  0  0
 25 22  1  0  0  0  0
 26 29  1  0  0  0  0
 27 29  2  0  0  0  0
 29 28  1  0  0  0  0
M  END
>  <MODEL>
4

>  <REMARK>
 VINA RESULT:      -4.2      3.217      6.802
  Name = 
  3 active torsions:
  status: ('A' for Active; 'I' for Inactive)
    1  A    between atoms: C_2  and  S_21
    2  A    between atoms: C_22  and  C_26
    3  A    between atoms: C_26  and  C_27
                            x       y       z     vdW  Elec       q    Type
                         _______ _______ _______ _____ _____    ______ ____

>  <TORSDO>
F 3

$$$$
