=
 OpenBabel11072413113D

 34 36  0  0  1  0  0  0  0  0999 V2000
  160.2060  211.5300  153.8230 C   0  0  0  0  0  2  0  0  0  0  0  0
  159.7760  210.3660  154.5940 N   0  0  1  0  0  0  0  0  0  0  0  0
  161.5440  209.7310  152.6010 C   0  0  2  0  0  3  0  0  0  0  0  0
  160.9570  209.6370  155.0880 C   0  0  0  0  0  2  0  0  0  0  0  0
  162.0550  209.4720  154.0220 C   0  0  0  0  0  2  0  0  0  0  0  0
  160.8300  211.0850  152.4960 C   0  0  0  0  0  2  0  0  0  0  0  0
  159.4650  213.3290  155.5170 C   0  0  0  0  0  2  0  0  0  0  0  0
  158.9190  210.8430  155.6890 C   0  0  1  0  0  3  0  0  0  0  0  0
  156.7810  211.9540  154.7150 C   0  0  0  0  0  0  0  0  0  0  0  0
  157.5040  213.1910  154.2470 C   0  0  2  0  0  3  0  0  0  0  0  0
  158.1180  213.8590  155.3830 N   0  0  0  0  0  2  0  0  0  0  0  0
  159.4580  212.0880  156.3990 C   0  0  0  0  0  2  0  0  0  0  0  0
  155.5370  211.8410  154.5440 O   0  0  0  0  0  0  0  0  0  0  0  0
  157.4850  210.8880  155.3670 N   0  0  0  0  0  2  0  0  0  0  0  0
  156.5880  214.1590  153.5040 C   0  0  0  0  0  2  0  0  0  0  0  0
  156.8570  214.1310  152.0040 C   0  0  0  0  0  2  0  0  0  0  0  0
  155.8680  214.1500  149.7130 C   0  0  0  0  0  1  0  0  0  0  0  0
  155.5720  214.2390  151.1980 C   0  0  0  0  0  2  0  0  0  0  0  0
  160.6430  208.6650  152.1860 N   0  0  0  0  0  2  0  0  0  0  0  0
  160.4250  205.8230  150.4250 C   0  0  0  0  0  2  0  0  0  0  0  0
  161.4950  206.8840  150.6780 C   0  0  1  0  0  3  0  0  0  0  0  0
  160.6020  204.6140  151.3660 C   0  0  2  0  0  3  0  0  0  0  0  0
  160.8610  206.4270  153.1250 C   0  0  0  0  0  2  0  0  0  0  0  0
  161.4050  207.9020  149.7260 O   0  0  0  0  0  1  0  0  0  0  0  0
  161.2190  204.9980  152.7260 C   0  0  0  0  0  2  0  0  0  0  0  0
  161.4270  207.4380  152.1190 C   0  0  2  0  0  3  0  0  0  0  0  0
  162.0280  202.6920  151.6510 O   0  0  0  0  0  1  0  0  0  0  0  0
  161.4360  203.5190  150.6920 C   0  0  1  0  0  3  0  0  0  0  0  0
  160.5880  202.6850  149.7260 C   0  0  2  0  0  3  0  0  0  0  0  0
  160.4940  201.3580  150.1560 O   0  0  0  0  0  1  0  0  0  0  0  0
  161.7240  203.8150  147.9060 N   0  0  0  0  0  2  0  0  0  0  0  0
  161.1240  202.7500  148.3310 C   0  0  0  0  0  0  0  0  0  0  0  0
  160.7510  201.8010  146.1880 O   0  0  0  0  0  0  0  0  0  0  0  0
  160.8890  201.6210  147.4280 C   0  0  0  0  0  3  0  0  0  0  0  0
  2  1  1  1  0  0  0
  2  4  1  0  0  0  0
  2  8  1  0  0  0  0
  3 19  1  1  0  0  0
  3  5  1  0  0  0  0
  5  4  1  0  0  0  0
  6  3  1  0  0  0  0
  6  1  1  0  0  0  0
  7 12  1  0  0  0  0
  8 12  1  6  0  0  0
  9 14  1  0  0  0  0
 10 15  1  1  0  0  0
 10  9  1  0  0  0  0
 10 11  1  0  0  0  0
 11  7  1  0  0  0  0
 13  9  2  0  0  0  0
 14  8  1  0  0  0  0
 16 15  1  0  0  0  0
 17 18  1  0  0  0  0
 18 16  1  0  0  0  0
 20 21  1  0  0  0  0
 20 22  1  0  0  0  0
 21 24  1  6  0  0  0
 21 26  1  0  0  0  0
 22 28  1  6  0  0  0
 22 25  1  0  0  0  0
 25 23  1  0  0  0  0
 26 19  1  6  0  0  0
 26 23  1  0  0  0  0
 28 27  1  1  0  0  0
 29 30  1  1  0  0  0
 29 28  1  0  0  0  0
 31 32  2  0  0  0  0
 32 29  1  0  0  0  0
 33 34  2  0  0  0  0
 34 32  1  0  0  0  0
M  END
>  <MODEL>
1

>  <REMARK>
 VINA RESULT:      -6.8      0.000      0.000
  Name = 
  10 active torsions:
  status: ('A' for Active; 'I' for Inactive)
    1  A    between atoms: C_7  and  C_33
    2  A    between atoms: CA_8  and  C_12
    3  A    between atoms: CA_8  and  C_23
    4  A    between atoms: C_9  and  N_10
    5  A    between atoms: C_11  and  N_21
    6  A    between atoms: C_12  and  C_33
    7  A    between atoms: C_18  and  C_27
    8  A    between atoms: C_20  and  C_27
    9  A    between atoms: C_20  and  C_32
   10  A    between atoms: N_21  and  C_34
                            x       y       z     vdW  Elec       q    Type
                         _______ _______ _______ _____ _____    ______ ____

>  <TORSDO>
F 10

$$$$
=
 OpenBabel11072413113D

 34 36  0  0  1  0  0  0  0  0999 V2000
  160.8550  211.0480  155.2040 C   0  0  0  0  0  2  0  0  0  0  0  0
  159.7110  210.1440  155.2960 N   0  0  1  0  0  0  0  0  0  0  0  0
  161.8590  209.0180  154.0240 C   0  0  2  0  0  3  0  0  0  0  0  0
  160.1350  208.8720  155.9060 C   0  0  0  0  0  2  0  0  0  0  0  0
  161.4670  208.3460  155.3440 C   0  0  0  0  0  2  0  0  0  0  0  0
  161.8400  210.5480  154.1420 C   0  0  0  0  0  2  0  0  0  0  0  0
  159.3730  213.2260  155.6270 C   0  0  0  0  0  2  0  0  0  0  0  0
  158.6680  210.8180  156.0830 C   0  0  1  0  0  3  0  0  0  0  0  0
  156.8500  211.7800  154.4960 C   0  0  0  0  0  0  0  0  0  0  0  0
  157.7220  212.9050  154.0000 C   0  0  2  0  0  3  0  0  0  0  0  0
  158.1170  213.7490  155.1160 N   0  0  0  0  0  2  0  0  0  0  0  0
  159.1110  212.1580  156.6790 C   0  0  0  0  0  2  0  0  0  0  0  0
  155.6660  211.6610  154.0790 O   0  0  0  0  0  0  0  0  0  0  0  0
  157.3400  210.8310  155.4540 N   0  0  0  0  0  2  0  0  0  0  0  0
  157.0380  213.7460  152.9250 C   0  0  0  0  0  2  0  0  0  0  0  0
  157.9720  214.0010  151.7490 C   0  0  0  0  0  2  0  0  0  0  0  0
  160.0350  213.2890  150.5360 C   0  0  0  0  0  1  0  0  0  0  0  0
  159.1380  213.0240  151.7310 C   0  0  0  0  0  2  0  0  0  0  0  0
  160.9630  208.5950  152.9570 N   0  0  0  0  0  2  0  0  0  0  0  0
  160.9050  207.4370  149.8130 C   0  0  0  0  0  2  0  0  0  0  0  0
  161.9800  207.8750  150.8070 C   0  0  1  0  0  3  0  0  0  0  0  0
  160.7220  205.9060  149.8270 C   0  0  2  0  0  3  0  0  0  0  0  0
  160.7170  206.2500  152.3430 C   0  0  0  0  0  2  0  0  0  0  0  0
  162.2300  209.2430  150.6790 O   0  0  0  0  0  1  0  0  0  0  0  0
  161.0170  205.2780  151.2040 C   0  0  0  0  0  2  0  0  0  0  0  0
  161.6120  207.4920  152.2590 C   0  0  2  0  0  3  0  0  0  0  0  0
  161.2340  203.9000  148.5910 O   0  0  0  0  0  1  0  0  0  0  0  0
  161.5830  205.2450  148.7450 C   0  0  1  0  0  3  0  0  0  0  0  0
  161.4590  205.9800  147.4060 C   0  0  2  0  0  3  0  0  0  0  0  0
  160.1220  206.2530  147.1040 O   0  0  0  0  0  1  0  0  0  0  0  0
  163.3620  204.9170  146.3440 N   0  0  0  0  0  2  0  0  0  0  0  0
  162.1030  205.2080  146.2960 C   0  0  0  0  0  0  0  0  0  0  0  0
  161.3690  205.5460  144.0650 O   0  0  0  0  0  0  0  0  0  0  0  0
  161.3040  204.8600  145.1190 C   0  0  0  0  0  3  0  0  0  0  0  0
  2  1  1  1  0  0  0
  2  4  1  0  0  0  0
  2  8  1  0  0  0  0
  3 19  1  6  0  0  0
  3  6  1  0  0  0  0
  3  5  1  0  0  0  0
  5  4  1  0  0  0  0
  6  1  1  0  0  0  0
  7 12  1  0  0  0  0
  8 12  1  6  0  0  0
  9 14  1  0  0  0  0
 10 15  1  6  0  0  0
 10  9  1  0  0  0  0
 10 11  1  0  0  0  0
 11  7  1  0  0  0  0
 13  9  2  0  0  0  0
 14  8  1  0  0  0  0
 16 15  1  0  0  0  0
 17 18  1  0  0  0  0
 18 16  1  0  0  0  0
 20 22  1  0  0  0  0
 20 21  1  0  0  0  0
 21 24  1  1  0  0  0
 21 26  1  0  0  0  0
 22 28  1  6  0  0  0
 22 25  1  0  0  0  0
 25 23  1  0  0  0  0
 26 23  1  0  0  0  0
 26 19  1  6  0  0  0
 28 27  1  6  0  0  0
 29 30  1  6  0  0  0
 29 28  1  0  0  0  0
 32 31  2  0  0  0  0
 32 29  1  0  0  0  0
 33 34  2  0  0  0  0
 34 32  1  0  0  0  0
M  END
>  <MODEL>
2

>  <REMARK>
 VINA RESULT:      -6.8      1.895      2.353
  Name = 
  10 active torsions:
  status: ('A' for Active; 'I' for Inactive)
    1  A    between atoms: C_7  and  C_33
    2  A    between atoms: CA_8  and  C_12
    3  A    between atoms: CA_8  and  C_23
    4  A    between atoms: C_9  and  N_10
    5  A    between atoms: C_11  and  N_21
    6  A    between atoms: C_12  and  C_33
    7  A    between atoms: C_18  and  C_27
    8  A    between atoms: C_20  and  C_27
    9  A    between atoms: C_20  and  C_32
   10  A    between atoms: N_21  and  C_34
                            x       y       z     vdW  Elec       q    Type
                         _______ _______ _______ _____ _____    ______ ____

>  <TORSDO>
F 10

$$$$
=
 OpenBabel11072413113D

 34 36  0  0  1  0  0  0  0  0999 V2000
  161.0510  211.8880  151.0540 C   0  0  0  0  0  2  0  0  0  0  0  0
  160.3350  211.2670  152.1660 N   0  0  1  0  0  0  0  0  0  0  0  0
  162.1300  209.5760  150.9770 C   0  0  2  0  0  3  0  0  0  0  0  0
  161.3020  210.6970  153.1200 C   0  0  0  0  0  2  0  0  0  0  0  0
  162.4440  209.9270  152.4350 C   0  0  0  0  0  2  0  0  0  0  0  0
  161.7020  210.8130  150.1780 C   0  0  0  0  0  2  0  0  0  0  0  0
  157.7280  210.7470  153.7970 C   0  0  0  0  0  2  0  0  0  0  0  0
  159.4840  212.2950  152.7840 C   0  0  1  0  0  3  0  0  0  0  0  0
  159.9020  212.3630  155.3470 C   0  0  0  0  0  0  0  0  0  0  0  0
  159.1700  211.0720  155.6110 C   0  0  2  0  0  3  0  0  0  0  0  0
  157.7870  211.1930  155.1790 N   0  0  0  0  0  2  0  0  0  0  0  0
  158.0030  211.9110  152.8550 C   0  0  0  0  0  2  0  0  0  0  0  0
  160.4090  213.0130  156.3010 O   0  0  0  0  0  0  0  0  0  0  0  0
  160.0300  212.8810  154.0160 N   0  0  0  0  0  2  0  0  0  0  0  0
  159.2250  210.6570  157.0790 C   0  0  0  0  0  2  0  0  0  0  0  0
  160.0290  209.3760  157.2600 C   0  0  0  0  0  2  0  0  0  0  0  0
  159.9910  207.0760  156.2920 C   0  0  0  0  0  1  0  0  0  0  0  0
  160.0830  208.5570  155.9800 C   0  0  0  0  0  2  0  0  0  0  0  0
  161.0850  208.5630  150.9160 N   0  0  0  0  0  2  0  0  0  0  0  0
  160.4330  205.4800  149.7770 C   0  0  0  0  0  2  0  0  0  0  0  0
  161.6220  206.4390  149.7420 C   0  0  1  0  0  3  0  0  0  0  0  0
  160.5690  204.4620  150.9270 C   0  0  2  0  0  3  0  0  0  0  0  0
  161.1600  206.5370  152.2670 C   0  0  0  0  0  2  0  0  0  0  0  0
  161.5510  207.2590  148.6130 O   0  0  0  0  0  1  0  0  0  0  0  0
  161.3370  205.0260  152.1400 C   0  0  0  0  0  2  0  0  0  0  0  0
  161.7340  207.2640  151.0450 C   0  0  2  0  0  3  0  0  0  0  0  0
  161.5970  202.3610  151.5140 O   0  0  0  0  0  1  0  0  0  0  0  0
  161.2280  203.1690  150.4340 C   0  0  1  0  0  3  0  0  0  0  0  0
  160.3040  202.3960  149.4870 C   0  0  2  0  0  3  0  0  0  0  0  0
  159.7000  201.3190  150.1410 O   0  0  0  0  0  1  0  0  0  0  0  0
  161.5560  200.7450  148.2270 N   0  0  0  0  0  2  0  0  0  0  0  0
  161.0360  201.9290  148.2680 C   0  0  0  0  0  0  0  0  0  0  0  0
  161.9140  203.9070  147.2950 O   0  0  0  0  0  0  0  0  0  0  0  0
  161.2260  202.8620  147.1540 C   0  0  0  0  0  3  0  0  0  0  0  0
  2  1  1  6  0  0  0
  2  8  1  0  0  0  0
  2  4  1  0  0  0  0
  3 19  1  1  0  0  0
  3  5  1  0  0  0  0
  5  4  1  0  0  0  0
  6  3  1  0  0  0  0
  6  1  1  0  0  0  0
  7 11  1  0  0  0  0
  8 12  1  1  0  0  0
  8 14  1  0  0  0  0
  9 10  1  0  0  0  0
  9 13  2  0  0  0  0
 10 15  1  1  0  0  0
 11 10  1  0  0  0  0
 12  7  1  0  0  0  0
 14  9  1  0  0  0  0
 15 16  1  0  0  0  0
 18 17  1  0  0  0  0
 18 16  1  0  0  0  0
 20 22  1  0  0  0  0
 21 24  1  6  0  0  0
 21 20  1  0  0  0  0
 21 26  1  0  0  0  0
 22 28  1  6  0  0  0
 22 25  1  0  0  0  0
 25 23  1  0  0  0  0
 26 19  1  6  0  0  0
 26 23  1  0  0  0  0
 28 27  1  1  0  0  0
 29 30  1  1  0  0  0
 29 28  1  0  0  0  0
 31 32  2  0  0  0  0
 32 29  1  0  0  0  0
 34 33  2  0  0  0  0
 34 32  1  0  0  0  0
M  END
>  <MODEL>
3

>  <REMARK>
 VINA RESULT:      -6.8      1.979      3.615
  Name = 
  10 active torsions:
  status: ('A' for Active; 'I' for Inactive)
    1  A    between atoms: C_7  and  C_33
    2  A    between atoms: CA_8  and  C_12
    3  A    between atoms: CA_8  and  C_23
    4  A    between atoms: C_9  and  N_10
    5  A    between atoms: C_11  and  N_21
    6  A    between atoms: C_12  and  C_33
    7  A    between atoms: C_18  and  C_27
    8  A    between atoms: C_20  and  C_27
    9  A    between atoms: C_20  and  C_32
   10  A    between atoms: N_21  and  C_34
                            x       y       z     vdW  Elec       q    Type
                         _______ _______ _______ _____ _____    ______ ____

>  <TORSDO>
F 10

$$$$
=
 OpenBabel11072413113D

 34 36  0  0  1  0  0  0  0  0999 V2000
  162.7730  213.2040  147.6840 C   0  0  0  0  0  2  0  0  0  0  0  0
  161.4760  212.9390  147.0650 N   0  0  1  0  0  0  0  0  0  0  0  0
  162.0420  211.2280  149.1270 C   0  0  2  0  0  3  0  0  0  0  0  0
  160.4280  212.9240  148.0990 C   0  0  0  0  0  2  0  0  0  0  0  0
  160.8350  212.1420  149.3610 C   0  0  0  0  0  2  0  0  0  0  0  0
  163.2200  211.9960  148.5130 C   0  0  0  0  0  2  0  0  0  0  0  0
  163.0420  213.2680  144.3880 C   0  0  0  0  0  2  0  0  0  0  0  0
  161.2420  213.9770  146.0500 C   0  0  1  0  0  3  0  0  0  0  0  0
  159.9570  212.9630  144.0320 C   0  0  0  0  0  0  0  0  0  0  0  0
  161.1510  212.2030  143.5130 C   0  0  2  0  0  3  0  0  0  0  0  0
  162.2230  213.1320  143.1940 N   0  0  0  0  0  2  0  0  0  0  0  0
  162.5000  214.3790  145.2750 C   0  0  0  0  0  2  0  0  0  0  0  0
  158.8550  212.9130  143.4200 O   0  0  0  0  0  0  0  0  0  0  0  0
  160.0480  213.7620  145.2200 N   0  0  0  0  0  2  0  0  0  0  0  0
  160.8170  211.3510  142.2910 C   0  0  0  0  0  2  0  0  0  0  0  0
  161.4620  211.9160  141.0320 C   0  0  0  0  0  2  0  0  0  0  0  0
  162.7890  211.3770  138.9870 C   0  0  0  0  0  1  0  0  0  0  0  0
  162.3960  210.9100  140.3760 C   0  0  0  0  0  2  0  0  0  0  0  0
  161.6740  210.1160  148.2620 N   0  0  0  0  0  2  0  0  0  0  0  0
  160.6620  207.0250  149.0650 C   0  0  0  0  0  2  0  0  0  0  0  0
  161.7430  207.6340  148.1730 C   0  0  1  0  0  3  0  0  0  0  0  0
  161.2290  206.6340  150.4450 C   0  0  2  0  0  3  0  0  0  0  0  0
  162.2660  208.9480  150.3170 C   0  0  0  0  0  2  0  0  0  0  0  0
  161.2460  207.8490  146.8850 O   0  0  0  0  0  1  0  0  0  0  0  0
  162.3930  207.5410  150.8930 C   0  0  0  0  0  2  0  0  0  0  0  0
  162.3320  208.9260  148.7840 C   0  0  2  0  0  3  0  0  0  0  0  0
  162.2120  204.8250  151.6980 O   0  0  0  0  0  1  0  0  0  0  0  0
  161.6620  205.1650  150.4580 C   0  0  1  0  0  3  0  0  0  0  0  0
  160.4910  204.2330  150.1260 C   0  0  2  0  0  3  0  0  0  0  0  0
  160.0810  203.5180  151.2550 O   0  0  0  0  0  1  0  0  0  0  0  0
  161.4280  203.7380  147.9450 N   0  0  0  0  0  2  0  0  0  0  0  0
  160.8340  203.3000  149.0070 C   0  0  0  0  0  0  0  0  0  0  0  0
  161.2610  200.9740  149.2000 O   0  0  0  0  0  0  0  0  0  0  0  0
  160.4140  201.9000  149.0980 C   0  0  0  0  0  3  0  0  0  0  0  0
  1  6  1  0  0  0  0
  2  1  1  1  0  0  0
  2  4  1  0  0  0  0
  3 19  1  6  0  0  0
  3  5  1  0  0  0  0
  4  5  1  0  0  0  0
  6  3  1  0  0  0  0
  7 12  1  0  0  0  0
  8 12  1  6  0  0  0
  8  2  1  0  0  0  0
  9 14  1  0  0  0  0
 10 15  1  6  0  0  0
 10  9  1  0  0  0  0
 11 10  1  0  0  0  0
 11  7  1  0  0  0  0
 13  9  2  0  0  0  0
 14  8  1  0  0  0  0
 16 15  1  0  0  0  0
 17 18  1  0  0  0  0
 18 16  1  0  0  0  0
 20 22  1  0  0  0  0
 21 24  1  6  0  0  0
 21 26  1  0  0  0  0
 21 20  1  0  0  0  0
 22 28  1  6  0  0  0
 22 25  1  0  0  0  0
 23 25  1  0  0  0  0
 26 19  1  6  0  0  0
 26 23  1  0  0  0  0
 28 27  1  1  0  0  0
 29 28  1  0  0  0  0
 29 30  1  1  0  0  0
 31 32  2  0  0  0  0
 32 34  1  0  0  0  0
 32 29  1  0  0  0  0
 34 33  2  0  0  0  0
M  END
>  <MODEL>
4

>  <REMARK>
 VINA RESULT:      -6.7      6.054      7.775
  Name = 
  10 active torsions:
  status: ('A' for Active; 'I' for Inactive)
    1  A    between atoms: C_7  and  C_33
    2  A    between atoms: CA_8  and  C_12
    3  A    between atoms: CA_8  and  C_23
    4  A    between atoms: C_9  and  N_10
    5  A    between atoms: C_11  and  N_21
    6  A    between atoms: C_12  and  C_33
    7  A    between atoms: C_18  and  C_27
    8  A    between atoms: C_20  and  C_27
    9  A    between atoms: C_20  and  C_32
   10  A    between atoms: N_21  and  C_34
                            x       y       z     vdW  Elec       q    Type
                         _______ _______ _______ _____ _____    ______ ____

>  <TORSDO>
F 10

$$$$
=
 OpenBabel11072413113D

 34 36  0  0  1  0  0  0  0  0999 V2000
  160.4420  212.3490  153.4980 C   0  0  0  0  0  2  0  0  0  0  0  0
  159.6460  212.2700  152.2750 N   0  0  1  0  0  0  0  0  0  0  0  0
  160.5050  209.8210  153.1470 C   0  0  2  0  0  3  0  0  0  0  0  0
  158.5440  211.3120  152.4650 C   0  0  0  0  0  2  0  0  0  0  0  0
  158.9850  210.0130  153.1620 C   0  0  0  0  0  2  0  0  0  0  0  0
  161.2350  211.0540  153.6970 C   0  0  0  0  0  2  0  0  0  0  0  0
  160.3150  213.9160  149.7110 C   0  0  0  0  0  2  0  0  0  0  0  0
  159.1600  213.6240  151.9670 C   0  0  1  0  0  3  0  0  0  0  0  0
  157.2610  213.4970  150.1980 C   0  0  0  0  0  0  0  0  0  0  0  0
  158.1940  213.1730  149.0590 C   0  0  2  0  0  3  0  0  0  0  0  0
  159.1590  214.2470  148.8940 N   0  0  0  0  0  2  0  0  0  0  0  0
  160.1330  214.4530  151.1240 C   0  0  0  0  0  2  0  0  0  0  0  0
  156.0230  213.6170  149.9920 O   0  0  0  0  0  0  0  0  0  0  0  0
  157.7580  213.6850  151.5310 N   0  0  0  0  0  2  0  0  0  0  0  0
  157.4530  212.9280  147.7480 C   0  0  0  0  0  2  0  0  0  0  0  0
  157.3860  214.1980  146.9080 C   0  0  0  0  0  2  0  0  0  0  0  0
  158.3650  212.5350  145.3240 C   0  0  0  0  0  1  0  0  0  0  0  0
  157.8810  213.9630  145.4890 C   0  0  0  0  0  2  0  0  0  0  0  0
  160.9650  209.5380  151.7950 N   0  0  0  0  0  2  0  0  0  0  0  0
  160.6600  206.6200  150.1760 C   0  0  0  0  0  2  0  0  0  0  0  0
  161.7810  207.6260  150.4330 C   0  0  1  0  0  3  0  0  0  0  0  0
  160.7090  205.4570  151.1870 C   0  0  2  0  0  3  0  0  0  0  0  0
  160.9910  207.3470  152.8600 C   0  0  0  0  0  2  0  0  0  0  0  0
  161.8060  208.5930  149.4240 O   0  0  0  0  0  1  0  0  0  0  0  0
  161.2770  205.8780  152.5580 C   0  0  0  0  0  2  0  0  0  0  0  0
  161.6720  208.2640  151.8370 C   0  0  2  0  0  3  0  0  0  0  0  0
  162.0610  203.5160  151.6540 O   0  0  0  0  0  1  0  0  0  0  0  0
  161.5060  204.2780  150.6210 C   0  0  1  0  0  3  0  0  0  0  0  0
  160.6340  203.3940  149.7230 C   0  0  2  0  0  3  0  0  0  0  0  0
  160.4260  202.1380  150.3010 O   0  0  0  0  0  1  0  0  0  0  0  0
  161.6550  204.2900  147.7140 N   0  0  0  0  0  2  0  0  0  0  0  0
  161.2250  203.2520  148.3550 C   0  0  0  0  0  0  0  0  0  0  0  0
  160.6650  201.7420  146.6120 O   0  0  0  0  0  0  0  0  0  0  0  0
  161.2330  201.9320  147.7200 C   0  0  0  0  0  3  0  0  0  0  0  0
  1  6  1  0  0  0  0
  2  4  1  1  0  0  0
  2  1  1  0  0  0  0
  3 19  1  6  0  0  0
  3  5  1  0  0  0  0
  3  6  1  0  0  0  0
  4  5  1  0  0  0  0
  7 12  1  0  0  0  0
  8 12  1  6  0  0  0
  8  2  1  0  0  0  0
  9 14  1  0  0  0  0
 10 15  1  6  0  0  0
 10  9  1  0  0  0  0
 11 10  1  0  0  0  0
 11  7  1  0  0  0  0
 13  9  2  0  0  0  0
 14  8  1  0  0  0  0
 16 15  1  0  0  0  0
 17 18  1  0  0  0  0
 18 16  1  0  0  0  0
 20 21  1  0  0  0  0
 20 22  1  0  0  0  0
 21 24  1  6  0  0  0
 21 26  1  0  0  0  0
 22 28  1  6  0  0  0
 22 25  1  0  0  0  0
 25 23  1  0  0  0  0
 26 19  1  6  0  0  0
 26 23  1  0  0  0  0
 28 27  1  1  0  0  0
 29 30  1  1  0  0  0
 29 28  1  0  0  0  0
 31 32  2  0  0  0  0
 32 29  1  0  0  0  0
 33 34  2  0  0  0  0
 34 32  1  0  0  0  0
M  END
>  <MODEL>
5

>  <REMARK>
 VINA RESULT:      -6.7      2.568      3.461
  Name = 
  10 active torsions:
  status: ('A' for Active; 'I' for Inactive)
    1  A    between atoms: C_7  and  C_33
    2  A    between atoms: CA_8  and  C_12
    3  A    between atoms: CA_8  and  C_23
    4  A    between atoms: C_9  and  N_10
    5  A    between atoms: C_11  and  N_21
    6  A    between atoms: C_12  and  C_33
    7  A    between atoms: C_18  and  C_27
    8  A    between atoms: C_20  and  C_27
    9  A    between atoms: C_20  and  C_32
   10  A    between atoms: N_21  and  C_34
                            x       y       z     vdW  Elec       q    Type
                         _______ _______ _______ _____ _____    ______ ____

>  <TORSDO>
F 10

$$$$
=
 OpenBabel11072413113D

 34 36  0  0  1  0  0  0  0  0999 V2000
  159.7720  211.5160  154.0090 C   0  0  0  0  0  2  0  0  0  0  0  0
  159.9030  210.7120  155.2210 N   0  0  1  0  0  0  0  0  0  0  0  0
  161.9090  210.2500  153.4170 C   0  0  2  0  0  3  0  0  0  0  0  0
  161.2440  210.9010  155.7980 C   0  0  0  0  0  2  0  0  0  0  0  0
  162.3660  210.8620  154.7450 C   0  0  0  0  0  2  0  0  0  0  0  0
  160.6380  210.9290  152.8900 C   0  0  0  0  0  2  0  0  0  0  0  0
  159.2210  213.6400  156.0510 C   0  0  0  0  0  2  0  0  0  0  0  0
  158.8360  211.1200  156.1480 C   0  0  1  0  0  3  0  0  0  0  0  0
  156.8230  212.0750  154.8110 C   0  0  0  0  0  0  0  0  0  0  0  0
  157.5230  213.3630  154.4650 C   0  0  2  0  0  3  0  0  0  0  0  0
  157.8820  214.0700  155.6830 N   0  0  0  0  0  2  0  0  0  0  0  0
  159.1520  212.3980  156.9300 C   0  0  0  0  0  2  0  0  0  0  0  0
  155.6380  211.8710  154.4300 O   0  0  0  0  0  0  0  0  0  0  0  0
  157.4800  211.0600  155.5840 N   0  0  0  0  0  2  0  0  0  0  0  0
  156.6810  214.2640  153.5660 C   0  0  0  0  0  2  0  0  0  0  0  0
  157.3370  214.4530  152.2040 C   0  0  0  0  0  2  0  0  0  0  0  0
  159.2220  213.5600  150.8320 C   0  0  0  0  0  1  0  0  0  0  0  0
  158.7940  214.0170  152.2140 C   0  0  0  0  0  2  0  0  0  0  0  0
  161.6760  208.8210  153.5730 N   0  0  0  0  0  2  0  0  0  0  0  0
  161.6480  206.0100  151.7500 C   0  0  0  0  0  2  0  0  0  0  0  0
  160.6090  206.8640  152.4750 C   0  0  1  0  0  3  0  0  0  0  0  0
  161.7140  206.3630  150.2500 C   0  0  2  0  0  3  0  0  0  0  0  0
  161.7430  208.7420  151.1390 C   0  0  0  0  0  2  0  0  0  0  0  0
  160.4640  206.4340  153.7970 O   0  0  0  0  0  1  0  0  0  0  0  0
  161.3700  207.8390  149.9660 C   0  0  0  0  0  2  0  0  0  0  0  0
  160.9450  208.3710  152.3960 C   0  0  2  0  0  3  0  0  0  0  0  0
  160.0850  206.1670  148.4840 O   0  0  0  0  0  1  0  0  0  0  0  0
  160.8050  205.4370  149.4340 C   0  0  1  0  0  3  0  0  0  0  0  0
  161.6090  204.3270  148.7490 C   0  0  2  0  0  3  0  0  0  0  0  0
  161.6600  204.5220  147.3660 O   0  0  0  0  0  1  0  0  0  0  0  0
  160.7980  202.6420  150.2940 N   0  0  0  0  0  2  0  0  0  0  0  0
  161.0560  202.9730  149.0700 C   0  0  0  0  0  0  0  0  0  0  0  0
  160.7320  200.7760  148.2350 O   0  0  0  0  0  0  0  0  0  0  0  0
  160.8890  202.0010  147.9870 C   0  0  0  0  0  3  0  0  0  0  0  0
  2  1  1  6  0  0  0
  2  4  1  0  0  0  0
  2  8  1  0  0  0  0
  3 19  1  1  0  0  0
  3  5  1  0  0  0  0
  5  4  1  0  0  0  0
  6  3  1  0  0  0  0
  6  1  1  0  0  0  0
  7 12  1  0  0  0  0
  8 12  1  6  0  0  0
  9 14  1  0  0  0  0
 10 15  1  6  0  0  0
 10  9  1  0  0  0  0
 10 11  1  0  0  0  0
 11  7  1  0  0  0  0
 13  9  2  0  0  0  0
 14  8  1  0  0  0  0
 16 18  1  0  0  0  0
 16 15  1  0  0  0  0
 17 18  1  0  0  0  0
 20 21  1  0  0  0  0
 21 24  1  1  0  0  0
 22 28  1  6  0  0  0
 22 20  1  0  0  0  0
 23 26  1  0  0  0  0
 25 22  1  0  0  0  0
 25 23  1  0  0  0  0
 26 21  1  0  0  0  0
 26 19  1  1  0  0  0
 28 27  1  6  0  0  0
 29 30  1  6  0  0  0
 29 32  1  0  0  0  0
 29 28  1  0  0  0  0
 32 31  2  0  0  0  0
 34 33  2  0  0  0  0
 34 32  1  0  0  0  0
M  END
>  <MODEL>
6

>  <REMARK>
 VINA RESULT:      -5.8      1.573      2.204
  Name = 
  10 active torsions:
  status: ('A' for Active; 'I' for Inactive)
    1  A    between atoms: C_7  and  C_33
    2  A    between atoms: CA_8  and  C_12
    3  A    between atoms: CA_8  and  C_23
    4  A    between atoms: C_9  and  N_10
    5  A    between atoms: C_11  and  N_21
    6  A    between atoms: C_12  and  C_33
    7  A    between atoms: C_18  and  C_27
    8  A    between atoms: C_20  and  C_27
    9  A    between atoms: C_20  and  C_32
   10  A    between atoms: N_21  and  C_34
                            x       y       z     vdW  Elec       q    Type
                         _______ _______ _______ _____ _____    ______ ____

>  <TORSDO>
F 10

$$$$
=
 OpenBabel11072413113D

 34 36  0  0  1  0  0  0  0  0999 V2000
  159.8550  210.5080  153.7020 C   0  0  0  0  0  2  0  0  0  0  0  0
  160.5270  209.6030  154.6320 N   0  0  1  0  0  0  0  0  0  0  0  0
  161.8070  209.7950  152.2190 C   0  0  2  0  0  3  0  0  0  0  0  0
  161.9410  209.9920  154.7640 C   0  0  0  0  0  2  0  0  0  0  0  0
  162.6070  210.3180  153.4160 C   0  0  0  0  0  2  0  0  0  0  0  0
  160.3440  210.2560  152.2720 C   0  0  0  0  0  2  0  0  0  0  0  0
  160.6830  211.9260  156.7070 C   0  0  0  0  0  2  0  0  0  0  0  0
  159.8100  209.6640  155.9150 C   0  0  1  0  0  3  0  0  0  0  0  0
  157.7910  211.2880  155.7220 C   0  0  0  0  0  0  0  0  0  0  0  0
  158.6480  212.5280  155.7200 C   0  0  2  0  0  3  0  0  0  0  0  0
  159.4160  212.5960  156.9520 N   0  0  0  0  0  2  0  0  0  0  0  0
  160.5570  210.4380  157.0040 C   0  0  0  0  0  2  0  0  0  0  0  0
  156.5350  211.3820  155.6610 O   0  0  0  0  0  0  0  0  0  0  0  0
  158.3800  209.9820  155.8020 N   0  0  0  0  0  2  0  0  0  0  0  0
  157.8310  213.8040  155.5410 C   0  0  0  0  0  2  0  0  0  0  0  0
  158.1020  214.4470  154.1870 C   0  0  0  0  0  2  0  0  0  0  0  0
  158.0190  213.2810  151.9810 C   0  0  0  0  0  1  0  0  0  0  0  0
  157.1950  213.8850  153.1030 C   0  0  0  0  0  2  0  0  0  0  0  0
  161.8630  208.3400  152.1710 N   0  0  0  0  0  2  0  0  0  0  0  0
  162.0190  205.6650  150.1600 C   0  0  0  0  0  2  0  0  0  0  0  0
  160.9280  206.3910  150.9450 C   0  0  1  0  0  3  0  0  0  0  0  0
  162.0480  206.1230  148.6870 C   0  0  2  0  0  3  0  0  0  0  0  0
  161.9150  208.4310  149.7360 C   0  0  0  0  0  2  0  0  0  0  0  0
  160.8250  205.8630  152.2340 O   0  0  0  0  0  1  0  0  0  0  0  0
  161.5970  207.5860  148.5050 C   0  0  0  0  0  2  0  0  0  0  0  0
  161.1560  207.9200  150.9670 C   0  0  2  0  0  3  0  0  0  0  0  0
  160.2780  205.9270  147.0620 O   0  0  0  0  0  1  0  0  0  0  0  0
  161.2010  205.1920  147.8120 C   0  0  1  0  0  3  0  0  0  0  0  0
  162.0780  204.3440  146.8860 C   0  0  2  0  0  3  0  0  0  0  0  0
  163.0500  205.1270  146.2560 O   0  0  0  0  0  1  0  0  0  0  0  0
  160.8920  204.1910  144.7760 N   0  0  0  0  0  2  0  0  0  0  0  0
  161.2560  203.6100  145.8740 C   0  0  0  0  0  0  0  0  0  0  0  0
  160.0910  201.6060  145.3640 O   0  0  0  0  0  0  0  0  0  0  0  0
  160.8010  202.2520  146.1810 C   0  0  0  0  0  3  0  0  0  0  0  0
  2  1  1  6  0  0  0
  2  4  1  0  0  0  0
  2  8  1  0  0  0  0
  3 19  1  1  0  0  0
  3  6  1  0  0  0  0
  3  5  1  0  0  0  0
  5  4  1  0  0  0  0
  6  1  1  0  0  0  0
  7 11  1  0  0  0  0
  7 12  1  0  0  0  0
  8 12  1  1  0  0  0
  9 14  1  0  0  0  0
 10 15  1  1  0  0  0
 10  9  1  0  0  0  0
 10 11  1  0  0  0  0
 13  9  2  0  0  0  0
 14  8  1  0  0  0  0
 16 15  1  0  0  0  0
 17 18  1  0  0  0  0
 18 16  1  0  0  0  0
 20 21  1  0  0  0  0
 21 26  1  0  0  0  0
 21 24  1  1  0  0  0
 22 28  1  6  0  0  0
 22 20  1  0  0  0  0
 23 26  1  0  0  0  0
 25 22  1  0  0  0  0
 25 23  1  0  0  0  0
 26 19  1  1  0  0  0
 28 27  1  6  0  0  0
 29 30  1  6  0  0  0
 29 28  1  0  0  0  0
 31 32  2  0  0  0  0
 32 34  1  0  0  0  0
 32 29  1  0  0  0  0
 33 34  2  0  0  0  0
M  END
>  <MODEL>
7

>  <REMARK>
 VINA RESULT:      -5.7      2.037      2.703
  Name = 
  10 active torsions:
  status: ('A' for Active; 'I' for Inactive)
    1  A    between atoms: C_7  and  C_33
    2  A    between atoms: CA_8  and  C_12
    3  A    between atoms: CA_8  and  C_23
    4  A    between atoms: C_9  and  N_10
    5  A    between atoms: C_11  and  N_21
    6  A    between atoms: C_12  and  C_33
    7  A    between atoms: C_18  and  C_27
    8  A    between atoms: C_20  and  C_27
    9  A    between atoms: C_20  and  C_32
   10  A    between atoms: N_21  and  C_34
                            x       y       z     vdW  Elec       q    Type
                         _______ _______ _______ _____ _____    ______ ____

>  <TORSDO>
F 10

$$$$
=
 OpenBabel11072413113D

 34 36  0  0  1  0  0  0  0  0999 V2000
  162.1920  209.8900  150.2790 C   0  0  0  0  0  2  0  0  0  0  0  0
  161.5580  209.5760  151.5570 N   0  0  1  0  0  0  0  0  0  0  0  0
  161.8660  207.3790  149.9530 C   0  0  2  0  0  3  0  0  0  0  0  0
  162.2930  208.4840  152.2180 C   0  0  0  0  0  2  0  0  0  0  0  0
  162.6640  207.3390  151.2600 C   0  0  0  0  0  2  0  0  0  0  0  0
  161.9560  208.7540  149.2790 C   0  0  0  0  0  2  0  0  0  0  0  0
  159.1200  210.6870  153.1530 C   0  0  0  0  0  2  0  0  0  0  0  0
  161.5430  210.8050  152.3650 C   0  0  1  0  0  3  0  0  0  0  0  0
  161.6660  210.2030  154.8900 C   0  0  0  0  0  0  0  0  0  0  0  0
  160.2450  209.7030  154.9520 C   0  0  2  0  0  3  0  0  0  0  0  0
  159.3320  210.7730  154.5880 N   0  0  0  0  0  2  0  0  0  0  0  0
  160.1770  211.4960  152.4140 C   0  0  0  0  0  2  0  0  0  0  0  0
  162.3860  210.2040  155.9250 O   0  0  0  0  0  0  0  0  0  0  0  0
  162.2240  210.6920  153.6620 N   0  0  0  0  0  2  0  0  0  0  0  0
  159.8800  209.1480  156.3260 C   0  0  0  0  0  2  0  0  0  0  0  0
  160.1400  207.6490  156.4020 C   0  0  0  0  0  2  0  0  0  0  0  0
  161.1840  206.3400  154.5500 C   0  0  0  0  0  1  0  0  0  0  0  0
  159.9010  206.9650  155.0640 C   0  0  0  0  0  2  0  0  0  0  0  0
  160.4720  207.0420  150.2030 N   0  0  0  0  0  2  0  0  0  0  0  0
  161.6380  203.9020  150.2570 C   0  0  0  0  0  2  0  0  0  0  0  0
  160.2670  204.5700  150.3480 C   0  0  1  0  0  3  0  0  0  0  0  0
  161.9390  203.4340  148.8180 C   0  0  2  0  0  3  0  0  0  0  0  0
  161.1030  205.7590  148.2300 C   0  0  0  0  0  2  0  0  0  0  0  0
  159.9550  204.8570  151.6790 O   0  0  0  0  0  1  0  0  0  0  0  0
  161.2700  204.3200  147.7480 C   0  0  0  0  0  2  0  0  0  0  0  0
  160.1790  205.8270  149.4530 C   0  0  2  0  0  3  0  0  0  0  0  0
  161.2150  201.3820  149.8550 O   0  0  0  0  0  1  0  0  0  0  0  0
  161.5320  201.9690  148.6270 C   0  0  1  0  0  3  0  0  0  0  0  0
  160.3520  201.8380  147.6580 C   0  0  2  0  0  3  0  0  0  0  0  0
  159.2640  201.2100  148.2720 O   0  0  0  0  0  1  0  0  0  0  0  0
  160.3970  201.5630  145.2490 N   0  0  0  0  0  2  0  0  0  0  0  0
  160.7450  201.1110  146.4110 C   0  0  0  0  0  0  0  0  0  0  0  0
  161.2110  198.8810  145.7480 O   0  0  0  0  0  0  0  0  0  0  0  0
  161.4600  199.8390  146.5280 C   0  0  0  0  0  3  0  0  0  0  0  0
  2  1  1  6  0  0  0
  2  4  1  0  0  0  0
  2  8  1  0  0  0  0
  3 19  1  1  0  0  0
  3  5  1  0  0  0  0
  5  4  1  0  0  0  0
  6  3  1  0  0  0  0
  6  1  1  0  0  0  0
  7 11  1  0  0  0  0
  8 12  1  1  0  0  0
  8 14  1  0  0  0  0
  9 10  1  0  0  0  0
  9 13  2  0  0  0  0
 10 15  1  1  0  0  0
 11 10  1  0  0  0  0
 12  7  1  0  0  0  0
 14  9  1  0  0  0  0
 15 16  1  0  0  0  0
 17 18  1  0  0  0  0
 18 16  1  0  0  0  0
 20 21  1  0  0  0  0
 21 24  1  1  0  0  0
 22 28  1  1  0  0  0
 22 20  1  0  0  0  0
 23 26  1  0  0  0  0
 25 23  1  0  0  0  0
 25 22  1  0  0  0  0
 26 19  1  1  0  0  0
 26 21  1  0  0  0  0
 28 27  1  1  0  0  0
 29 30  1  1  0  0  0
 29 28  1  0  0  0  0
 31 32  2  0  0  0  0
 32 34  1  0  0  0  0
 32 29  1  0  0  0  0
 33 34  2  0  0  0  0
M  END
>  <MODEL>
8

>  <REMARK>
 VINA RESULT:      -5.6      2.854      4.680
  Name = 
  10 active torsions:
  status: ('A' for Active; 'I' for Inactive)
    1  A    between atoms: C_7  and  C_33
    2  A    between atoms: CA_8  and  C_12
    3  A    between atoms: CA_8  and  C_23
    4  A    between atoms: C_9  and  N_10
    5  A    between atoms: C_11  and  N_21
    6  A    between atoms: C_12  and  C_33
    7  A    between atoms: C_18  and  C_27
    8  A    between atoms: C_20  and  C_27
    9  A    between atoms: C_20  and  C_32
   10  A    between atoms: N_21  and  C_34
                            x       y       z     vdW  Elec       q    Type
                         _______ _______ _______ _____ _____    ______ ____

>  <TORSDO>
F 10

$$$$
=
 OpenBabel11072413113D

 34 36  0  0  1  0  0  0  0  0999 V2000
  159.5440  211.6830  155.1090 C   0  0  0  0  0  2  0  0  0  0  0  0
  159.7360  212.3540  153.8260 N   0  0  1  0  0  0  0  0  0  0  0  0
  160.1220  209.6480  153.6790 C   0  0  2  0  0  3  0  0  0  0  0  0
  158.8950  211.7120  152.8020 C   0  0  0  0  0  2  0  0  0  0  0  0
  158.9390  210.1750  152.8610 C   0  0  0  0  0  2  0  0  0  0  0  0
  160.1730  210.2860  155.0740 C   0  0  0  0  0  2  0  0  0  0  0  0
  157.0600  213.7270  153.0020 C   0  0  0  0  0  2  0  0  0  0  0  0
  159.4030  213.7750  154.0080 C   0  0  1  0  0  3  0  0  0  0  0  0
  157.7820  214.0500  156.0200 C   0  0  0  0  0  0  0  0  0  0  0  0
  156.5950  213.4850  155.2830 C   0  0  2  0  0  3  0  0  0  0  0  0
  156.3130  214.2980  154.1110 N   0  0  0  0  0  2  0  0  0  0  0  0
  158.4560  214.3300  152.9410 C   0  0  0  0  0  2  0  0  0  0  0  0
  157.6600  214.4510  157.2100 O   0  0  0  0  0  0  0  0  0  0  0  0
  159.0660  214.1520  155.3880 N   0  0  0  0  0  2  0  0  0  0  0  0
  155.3520  213.3860  156.1620 C   0  0  0  0  0  2  0  0  0  0  0  0
  155.3140  212.0620  156.9150 C   0  0  0  0  0  2  0  0  0  0  0  0
  155.2270  210.4100  155.0460 C   0  0  0  0  0  1  0  0  0  0  0  0
  156.0710  210.9690  156.1750 C   0  0  0  0  0  2  0  0  0  0  0  0
  161.3730  209.8970  152.9770 N   0  0  0  0  0  2  0  0  0  0  0  0
  160.8830  207.4160  150.7790 C   0  0  0  0  0  2  0  0  0  0  0  0
  162.0650  208.2750  151.2270 C   0  0  1  0  0  3  0  0  0  0  0  0
  160.8620  206.0630  151.5190 C   0  0  2  0  0  3  0  0  0  0  0  0
  161.2640  207.5320  153.5510 C   0  0  0  0  0  2  0  0  0  0  0  0
  162.1470  209.4310  150.4470 O   0  0  0  0  0  1  0  0  0  0  0  0
  161.4580  206.1470  152.9390 C   0  0  0  0  0  2  0  0  0  0  0  0
  161.9990  208.6030  152.7360 C   0  0  2  0  0  3  0  0  0  0  0  0
  162.0270  203.9530  151.5330 O   0  0  0  0  0  1  0  0  0  0  0  0
  161.5830  204.9860  150.7020 C   0  0  1  0  0  3  0  0  0  0  0  0
  160.6810  204.4240  149.5970 C   0  0  2  0  0  3  0  0  0  0  0  0
  160.4290  203.0640  149.7970 O   0  0  0  0  0  1  0  0  0  0  0  0
  161.9090  203.7160  147.6300 N   0  0  0  0  0  2  0  0  0  0  0  0
  161.2670  204.6590  148.2400 C   0  0  0  0  0  0  0  0  0  0  0  0
  160.5880  206.1780  146.5490 O   0  0  0  0  0  0  0  0  0  0  0  0
  161.1730  205.9960  147.6490 C   0  0  0  0  0  3  0  0  0  0  0  0
  2  4  1  6  0  0  0
  2  8  1  0  0  0  0
  2  1  1  0  0  0  0
  3 19  1  6  0  0  0
  3  6  1  0  0  0  0
  4  5  1  0  0  0  0
  5  3  1  0  0  0  0
  6  1  1  0  0  0  0
  7 11  1  0  0  0  0
  8 12  1  6  0  0  0
  8 14  1  0  0  0  0
  9 13  2  0  0  0  0
 10  9  1  0  0  0  0
 10 15  1  1  0  0  0
 11 10  1  0  0  0  0
 12  7  1  0  0  0  0
 14  9  1  0  0  0  0
 15 16  1  0  0  0  0
 17 18  1  0  0  0  0
 18 16  1  0  0  0  0
 20 21  1  0  0  0  0
 20 22  1  0  0  0  0
 21 24  1  6  0  0  0
 21 26  1  0  0  0  0
 22 28  1  6  0  0  0
 22 25  1  0  0  0  0
 25 23  1  0  0  0  0
 26 19  1  6  0  0  0
 26 23  1  0  0  0  0
 28 27  1  1  0  0  0
 29 30  1  1  0  0  0
 29 28  1  0  0  0  0
 31 32  2  0  0  0  0
 32 29  1  0  0  0  0
 33 34  2  0  0  0  0
 34 32  1  0  0  0  0
M  END
>  <MODEL>
9

>  <REMARK>
 VINA RESULT:      -5.5      1.932      3.068
  Name = 
  10 active torsions:
  status: ('A' for Active; 'I' for Inactive)
    1  A    between atoms: C_7  and  C_33
    2  A    between atoms: CA_8  and  C_12
    3  A    between atoms: CA_8  and  C_23
    4  A    between atoms: C_9  and  N_10
    5  A    between atoms: C_11  and  N_21
    6  A    between atoms: C_12  and  C_33
    7  A    between atoms: C_18  and  C_27
    8  A    between atoms: C_20  and  C_27
    9  A    between atoms: C_20  and  C_32
   10  A    between atoms: N_21  and  C_34
                            x       y       z     vdW  Elec       q    Type
                         _______ _______ _______ _____ _____    ______ ____

>  <TORSDO>
F 10

$$$$
