=
 OpenBabel11072410313D

 32 36  0  0  1  0  0  0  0  0999 V2000
  162.7330  207.4670  150.6820 C   0  0  0  0  0  2  0  0  0  0  0  0
  161.9340  210.2640  151.1340 C   0  0  0  0  0  3  0  0  0  0  0  0
  161.9260  207.9040  151.8110 N   0  0  0  0  0  0  0  0  0  0  0  0
  161.6040  209.1420  152.0360 C   0  0  0  0  0  3  0  0  0  0  0  0
  162.0320  207.7360  149.3870 C   0  0  0  0  0  0  0  0  0  0  0  0
  161.8140  208.9980  148.9990 C   0  0  0  0  0  3  0  0  0  0  0  0
  162.0690  210.2150  149.7980 C   0  0  0  0  0  0  0  0  0  0  0  0
  161.5390  205.3100  146.5230 C   0  0  0  0  0  3  0  0  0  0  0  0
  161.0830  205.4170  148.8480 C   0  0  0  0  0  0  0  0  0  0  0  0
  160.3310  205.2600  149.9330 C   0  0  0  0  0  2  0  0  0  0  0  0
  162.0330  206.6470  147.0820 C   0  0  0  0  0  3  0  0  0  0  0  0
  160.9700  204.5000  147.6920 C   0  0  2  0  0  3  0  0  0  0  0  0
  161.7020  206.6490  148.4970 N   0  0  0  0  0  0  0  0  0  0  0  0
  161.8180  203.2580  147.9340 C   0  0  0  0  0  2  0  0  0  0  0  0
  160.9870  202.0160  147.8450 C   0  0  0  0  0  0  0  0  0  0  0  0
  160.8680  201.4320  146.7370 O   0  0  0  0  0  0  0  0  0  0  0  0
  160.8150  201.5620  150.2470 C   0  0  0  0  0  2  0  0  0  0  0  0
  160.3150  201.4530  149.0230 C   0  0  0  0  0  3  0  0  0  0  0  0
  162.3430  211.4170  149.0690 N   0  0  0  0  0  2  0  0  0  0  0  0
  161.3870  212.5010  148.8750 C   0  0  0  0  0  2  0  0  0  0  0  0
  161.9570  213.5740  147.9540 C   0  0  0  0  0  2  0  0  0  0  0  0
  161.7700  213.0220  144.1810 C   0  0  0  0  0  0  0  0  0  0  0  0
  160.2540  212.9690  144.1280 C   0  0  1  0  0  3  0  0  0  0  0  0
  161.3280  213.5080  146.5720 C   0  0  1  0  0  3  0  0  0  0  0  0
  162.4060  213.2940  145.5060 C   0  0  0  0  0  2  0  0  0  0  0  0
  160.5930  211.6210  142.0080 C   0  0  0  0  0  2  0  0  0  0  0  0
  159.6780  212.5830  142.7580 C   0  0  0  0  0  2  0  0  0  0  0  0
  162.5380  212.6560  143.1440 C   0  0  0  0  0  3  0  0  0  0  0  0
  158.9880  212.9060  146.1140 C   0  0  0  0  0  2  0  0  0  0  0  0
  161.9460  212.2900  141.8140 C   0  0  0  0  0  2  0  0  0  0  0  0
  159.7480  212.0700  145.1710 N   0  0  2  0  0  0  0  0  0  0  0  0
  160.2820  212.3770  146.5330 C   0  0  1  0  0  3  0  0  0  0  0  0
  1  3  1  0  0  0  0
  2  4  1  0  0  0  0
  3  4  2  0  0  0  0
  5  1  1  0  0  0  0
  6  5  2  0  0  0  0
  6  7  1  0  0  0  0
  7  2  2  0  0  0  0
  8 11  2  0  0  0  0
  8 12  1  0  0  0  0
  9 10  2  0  0  0  0
 11 13  1  0  0  0  0
 12 14  1  1  0  0  0
 12  9  1  0  0  0  0
 13  9  1  0  0  0  0
 13  5  1  0  0  0  0
 15 14  1  0  0  0  0
 15 18  1  0  0  0  0
 16 15  2  0  0  0  0
 18 17  2  0  0  0  0
 19  7  1  0  0  0  0
 20 19  1  0  0  0  0
 21 20  1  0  0  0  0
 22 25  1  0  0  0  0
 23 27  1  6  0  0  0
 23 22  1  0  0  0  0
 23 31  1  0  0  0  0
 24 21  1  1  0  0  0
 25 24  1  0  0  0  0
 26 27  1  0  0  0  0
 28 22  2  0  0  0  0
 30 26  1  0  0  0  0
 30 28  1  0  0  0  0
 31 29  1  1  0  0  0
 31 32  1  0  0  0  0
 32 29  1  1  0  0  0
 32 24  1  0  0  0  0
M  END
>  <MODEL>
1

>  <REMARK>
 VINA RESULT:      -8.4      0.000      0.000
  Name = 
  8 active torsions:
  status: ('A' for Active; 'I' for Inactive)
    1  A    between atoms: C_8  and  C_32
    2  A    between atoms: C_17  and  C_20
    3  A    between atoms: C_17  and  C_31
    4  A    between atoms: N_19  and  C_21
    5  A    between atoms: N_19  and  C_27
    6  A    between atoms: C_20  and  C_24
    7  A    between atoms: C_21  and  C_32
    8  A    between atoms: C_25  and  N_29
                            x       y       z     vdW  Elec       q    Type
                         _______ _______ _______ _____ _____    ______ ____

>  <TORSDO>
F 8

$$$$
=
 OpenBabel11072410313D

 32 36  0  0  1  0  0  0  0  0999 V2000
  162.2910  210.3100  152.3650 C   0  0  0  0  0  2  0  0  0  0  0  0
  162.1280  207.6330  151.1490 C   0  0  0  0  0  3  0  0  0  0  0  0
  162.3250  210.0700  150.9290 N   0  0  0  0  0  0  0  0  0  0  0  0
  162.2930  208.8900  150.3910 C   0  0  0  0  0  3  0  0  0  0  0  0
  160.9950  209.8500  152.9530 C   0  0  0  0  0  0  0  0  0  0  0  0
  160.6940  208.5470  152.9620 C   0  0  0  0  0  3  0  0  0  0  0  0
  161.4610  207.4680  152.3050 C   0  0  0  0  0  0  0  0  0  0  0  0
  158.3420  212.3270  154.0280 C   0  0  0  0  0  3  0  0  0  0  0  0
  160.1570  211.1500  154.9980 C   0  0  0  0  0  0  0  0  0  0  0  0
  161.2390  211.0270  155.7600 C   0  0  0  0  0  2  0  0  0  0  0  0
  159.0160  211.4570  152.9650 C   0  0  0  0  0  3  0  0  0  0  0  0
  159.0620  212.0790  155.3560 C   0  0  2  0  0  3  0  0  0  0  0  0
  160.1250  210.7870  153.6220 N   0  0  0  0  0  0  0  0  0  0  0  0
  158.1220  211.4080  156.3490 C   0  0  0  0  0  2  0  0  0  0  0  0
  156.8300  212.1580  156.4540 C   0  0  0  0  0  0  0  0  0  0  0  0
  156.8300  213.3220  156.9330 O   0  0  0  0  0  0  0  0  0  0  0  0
  155.4900  210.3670  155.4530 C   0  0  0  0  0  2  0  0  0  0  0  0
  155.5610  211.5740  155.9990 C   0  0  0  0  0  3  0  0  0  0  0  0
  161.3570  206.1610  152.8810 N   0  0  0  0  0  2  0  0  0  0  0  0
  161.8570  204.9410  152.2580 C   0  0  0  0  0  2  0  0  0  0  0  0
  160.7740  204.2710  151.4210 C   0  0  0  0  0  2  0  0  0  0  0  0
  161.0720  202.5970  148.0030 C   0  0  0  0  0  0  0  0  0  0  0  0
  161.6180  203.8250  147.3000 C   0  0  1  0  0  3  0  0  0  0  0  0
  161.2220  204.0850  149.9810 C   0  0  1  0  0  3  0  0  0  0  0  0
  160.8180  202.6980  149.4730 C   0  0  0  0  0  2  0  0  0  0  0  0
  160.6780  202.7710  145.1950 C   0  0  0  0  0  2  0  0  0  0  0  0
  161.7550  203.6790  145.7770 C   0  0  0  0  0  2  0  0  0  0  0  0
  160.6440  201.5160  147.3340 C   0  0  0  0  0  3  0  0  0  0  0  0
  161.6680  205.9110  148.3960 C   0  0  0  0  0  2  0  0  0  0  0  0
  160.7970  201.3990  145.8450 C   0  0  0  0  0  2  0  0  0  0  0  0
  160.8020  204.9980  147.6330 N   0  0  2  0  0  0  0  0  0  0  0  0
  160.6120  205.1930  149.1030 C   0  0  1  0  0  3  0  0  0  0  0  0
  1  5  1  0  0  0  0
  2  7  2  0  0  0  0
  3  1  1  0  0  0  0
  4  3  2  0  0  0  0
  4  2  1  0  0  0  0
  5  6  2  0  0  0  0
  5 13  1  0  0  0  0
  7 19  1  0  0  0  0
  7  6  1  0  0  0  0
  8 12  1  0  0  0  0
  9 12  1  0  0  0  0
  9 10  2  0  0  0  0
 11 13  1  0  0  0  0
 11  8  2  0  0  0  0
 12 14  1  1  0  0  0
 13  9  1  0  0  0  0
 14 15  1  0  0  0  0
 15 16  2  0  0  0  0
 17 18  2  0  0  0  0
 18 15  1  0  0  0  0
 20 19  1  0  0  0  0
 21 20  1  0  0  0  0
 22 25  1  0  0  0  0
 23 27  1  6  0  0  0
 23 31  1  0  0  0  0
 23 22  1  0  0  0  0
 24 21  1  1  0  0  0
 25 24  1  0  0  0  0
 26 27  1  0  0  0  0
 26 30  1  0  0  0  0
 28 22  2  0  0  0  0
 30 28  1  0  0  0  0
 31 29  1  1  0  0  0
 31 32  1  0  0  0  0
 32 29  1  1  0  0  0
 32 24  1  0  0  0  0
M  END
>  <MODEL>
2

>  <REMARK>
 VINA RESULT:      -8.2      5.487      9.320
  Name = 
  8 active torsions:
  status: ('A' for Active; 'I' for Inactive)
    1  A    between atoms: C_8  and  C_32
    2  A    between atoms: C_17  and  C_20
    3  A    between atoms: C_17  and  C_31
    4  A    between atoms: N_19  and  C_21
    5  A    between atoms: N_19  and  C_27
    6  A    between atoms: C_20  and  C_24
    7  A    between atoms: C_21  and  C_32
    8  A    between atoms: C_25  and  N_29
                            x       y       z     vdW  Elec       q    Type
                         _______ _______ _______ _____ _____    ______ ____

>  <TORSDO>
F 8

$$$$
=
 OpenBabel11072410313D

 32 36  0  0  1  0  0  0  0  0999 V2000
  160.4270  206.1840  149.2930 C   0  0  0  0  0  2  0  0  0  0  0  0
  161.9220  207.7320  151.3020 C   0  0  0  0  0  3  0  0  0  0  0  0
  161.3860  207.2270  148.9600 N   0  0  0  0  0  0  0  0  0  0  0  0
  162.0180  207.9380  149.8420 C   0  0  0  0  0  3  0  0  0  0  0  0
  161.0900  205.0610  150.0260 C   0  0  0  0  0  0  0  0  0  0  0  0
  161.5900  205.2690  151.2490 C   0  0  0  0  0  3  0  0  0  0  0  0
  161.6950  206.5710  151.9410 C   0  0  0  0  0  0  0  0  0  0  0  0
  160.8020  201.3610  149.2800 C   0  0  0  0  0  3  0  0  0  0  0  0
  161.3740  203.3560  148.1330 C   0  0  0  0  0  0  0  0  0  0  0  0
  162.1070  204.1010  147.3120 C   0  0  0  0  0  2  0  0  0  0  0  0
  160.7010  202.5500  150.2380 C   0  0  0  0  0  3  0  0  0  0  0  0
  161.1910  201.9050  147.9030 C   0  0  2  0  0  3  0  0  0  0  0  0
  161.0850  203.7270  149.4760 N   0  0  0  0  0  0  0  0  0  0  0  0
  160.0600  201.6800  146.9080 C   0  0  0  0  0  2  0  0  0  0  0  0
  160.4720  200.7190  145.8370 C   0  0  0  0  0  0  0  0  0  0  0  0
  160.0630  200.8960  144.6600 O   0  0  0  0  0  0  0  0  0  0  0  0
  161.3290  198.4650  145.4000 C   0  0  0  0  0  2  0  0  0  0  0  0
  161.3520  199.5780  146.1220 C   0  0  0  0  0  3  0  0  0  0  0  0
  161.6830  206.5420  153.3720 N   0  0  0  0  0  2  0  0  0  0  0  0
  160.6810  207.1980  154.2050 C   0  0  0  0  0  2  0  0  0  0  0  0
  161.3370  207.9650  155.3470 C   0  0  0  0  0  2  0  0  0  0  0  0
  160.3000  211.3120  153.8290 C   0  0  0  0  0  0  0  0  0  0  0  0
  159.8950  211.9380  155.1500 C   0  0  1  0  0  3  0  0  0  0  0  0
  160.9600  209.4380  155.3130 C   0  0  1  0  0  3  0  0  0  0  0  0
  160.8710  209.9310  153.8660 C   0  0  0  0  0  2  0  0  0  0  0  0
  158.4110  213.4320  153.7380 C   0  0  0  0  0  2  0  0  0  0  0  0
  159.2220  213.3130  155.0230 C   0  0  0  0  0  2  0  0  0  0  0  0
  159.9960  211.8670  152.6470 C   0  0  0  0  0  3  0  0  0  0  0  0
  159.7850  210.6350  157.1110 C   0  0  0  0  0  2  0  0  0  0  0  0
  159.3440  213.2170  152.5540 C   0  0  0  0  0  2  0  0  0  0  0  0
  159.0380  211.0130  155.9010 N   0  0  2  0  0  0  0  0  0  0  0  0
  159.6230  209.6460  156.0500 C   0  0  1  0  0  3  0  0  0  0  0  0
  1  5  1  0  0  0  0
  2  7  2  0  0  0  0
  3  1  1  0  0  0  0
  3  4  2  0  0  0  0
  4  2  1  0  0  0  0
  5  6  2  0  0  0  0
  6  7  1  0  0  0  0
  7 19  1  0  0  0  0
  8 11  2  0  0  0  0
  9 13  1  0  0  0  0
 10  9  2  0  0  0  0
 12 14  1  6  0  0  0
 12  9  1  0  0  0  0
 12  8  1  0  0  0  0
 13  5  1  0  0  0  0
 13 11  1  0  0  0  0
 15 18  1  0  0  0  0
 15 14  1  0  0  0  0
 16 15  2  0  0  0  0
 17 18  2  0  0  0  0
 19 20  1  0  0  0  0
 20 21  1  0  0  0  0
 22 25  1  0  0  0  0
 22 23  1  0  0  0  0
 23 27  1  6  0  0  0
 23 31  1  0  0  0  0
 24 21  1  6  0  0  0
 24 32  1  0  0  0  0
 25 24  1  0  0  0  0
 26 27  1  0  0  0  0
 28 22  2  0  0  0  0
 30 28  1  0  0  0  0
 30 26  1  0  0  0  0
 31 32  1  0  0  0  0
 31 29  1  1  0  0  0
 32 29  1  1  0  0  0
M  END
>  <MODEL>
3

>  <REMARK>
 VINA RESULT:      -8.1      4.784      7.221
  Name = 
  8 active torsions:
  status: ('A' for Active; 'I' for Inactive)
    1  A    between atoms: C_8  and  C_32
    2  A    between atoms: C_17  and  C_20
    3  A    between atoms: C_17  and  C_31
    4  A    between atoms: N_19  and  C_21
    5  A    between atoms: N_19  and  C_27
    6  A    between atoms: C_20  and  C_24
    7  A    between atoms: C_21  and  C_32
    8  A    between atoms: C_25  and  N_29
                            x       y       z     vdW  Elec       q    Type
                         _______ _______ _______ _____ _____    ______ ____

>  <TORSDO>
F 8

$$$$
=
 OpenBabel11072410313D

 32 36  0  0  1  0  0  0  0  0999 V2000
  160.4290  206.4610  148.8860 C   0  0  0  0  0  2  0  0  0  0  0  0
  161.6130  208.5040  150.6450 C   0  0  0  0  0  3  0  0  0  0  0  0
  161.4340  207.4190  148.4490 N   0  0  0  0  0  0  0  0  0  0  0  0
  161.9290  208.3460  149.2110 C   0  0  0  0  0  3  0  0  0  0  0  0
  160.9670  205.5760  149.9650 C   0  0  0  0  0  0  0  0  0  0  0  0
  161.2770  206.0950  151.1580 C   0  0  0  0  0  3  0  0  0  0  0  0
  161.2850  207.5300  151.5120 C   0  0  0  0  0  0  0  0  0  0  0  0
  160.9000  201.7970  150.1860 C   0  0  0  0  0  3  0  0  0  0  0  0
  161.3280  203.4650  148.5560 C   0  0  0  0  0  0  0  0  0  0  0  0
  162.0000  204.0180  147.5510 C   0  0  0  0  0  2  0  0  0  0  0  0
  160.7390  203.1830  150.8150 C   0  0  0  0  0  3  0  0  0  0  0  0
  161.2320  201.9960  148.7040 C   0  0  2  0  0  3  0  0  0  0  0  0
  161.0360  204.1470  149.7700 N   0  0  0  0  0  0  0  0  0  0  0  0
  160.1020  201.4620  147.8340 C   0  0  0  0  0  2  0  0  0  0  0  0
  160.6360  200.8670  146.5690 C   0  0  0  0  0  0  0  0  0  0  0  0
  161.4850  199.9400  146.6330 O   0  0  0  0  0  0  0  0  0  0  0  0
  160.3070  202.5890  144.8570 C   0  0  0  0  0  2  0  0  0  0  0  0
  160.1830  201.3280  145.2500 C   0  0  0  0  0  3  0  0  0  0  0  0
  161.0570  207.8550  152.8880 N   0  0  0  0  0  2  0  0  0  0  0  0
  160.8960  206.8710  153.9530 C   0  0  0  0  0  2  0  0  0  0  0  0
  161.1000  207.5110  155.3220 C   0  0  0  0  0  2  0  0  0  0  0  0
  159.1170  210.7350  155.8150 C   0  0  0  0  0  0  0  0  0  0  0  0
  160.3120  211.6550  155.6460 C   0  0  1  0  0  3  0  0  0  0  0  0
  160.8090  209.0020  155.2850 C   0  0  1  0  0  3  0  0  0  0  0  0
  159.3450  209.2680  155.6470 C   0  0  0  0  0  2  0  0  0  0  0  0
  158.9600  213.3050  157.0140 C   0  0  0  0  0  2  0  0  0  0  0  0
  160.0220  213.1350  155.9340 C   0  0  0  0  0  2  0  0  0  0  0  0
  157.9370  211.1690  156.2820 C   0  0  0  0  0  3  0  0  0  0  0  0
  162.4950  210.7750  155.5370 C   0  0  0  0  0  2  0  0  0  0  0  0
  157.6800  212.6240  156.5490 C   0  0  0  0  0  2  0  0  0  0  0  0
  161.4300  211.1790  156.4680 N   0  0  2  0  0  0  0  0  0  0  0  0
  161.7580  209.7370  156.2520 C   0  0  1  0  0  3  0  0  0  0  0  0
  1  5  1  0  0  0  0
  2  7  2  0  0  0  0
  3  1  1  0  0  0  0
  3  4  2  0  0  0  0
  4  2  1  0  0  0  0
  5  6  2  0  0  0  0
  6  7  1  0  0  0  0
  7 19  1  0  0  0  0
  8 11  2  0  0  0  0
  9 12  1  0  0  0  0
  9 13  1  0  0  0  0
 10  9  2  0  0  0  0
 12 14  1  6  0  0  0
 12  8  1  0  0  0  0
 13  5  1  0  0  0  0
 13 11  1  0  0  0  0
 15 16  2  0  0  0  0
 15 14  1  0  0  0  0
 17 18  2  0  0  0  0
 18 15  1  0  0  0  0
 19 20  1  0  0  0  0
 20 21  1  0  0  0  0
 22 28  2  0  0  0  0
 23 22  1  0  0  0  0
 23 27  1  1  0  0  0
 23 31  1  0  0  0  0
 24 21  1  1  0  0  0
 24 25  1  0  0  0  0
 24 32  1  0  0  0  0
 25 22  1  0  0  0  0
 27 26  1  0  0  0  0
 28 30  1  0  0  0  0
 30 26  1  0  0  0  0
 31 29  1  6  0  0  0
 32 29  1  6  0  0  0
 32 31  1  0  0  0  0
M  END
>  <MODEL>
4

>  <REMARK>
 VINA RESULT:      -7.9      4.407      8.034
  Name = 
  8 active torsions:
  status: ('A' for Active; 'I' for Inactive)
    1  A    between atoms: C_8  and  C_32
    2  A    between atoms: C_17  and  C_20
    3  A    between atoms: C_17  and  C_31
    4  A    between atoms: N_19  and  C_21
    5  A    between atoms: N_19  and  C_27
    6  A    between atoms: C_20  and  C_24
    7  A    between atoms: C_21  and  C_32
    8  A    between atoms: C_25  and  N_29
                            x       y       z     vdW  Elec       q    Type
                         _______ _______ _______ _____ _____    ______ ____

>  <TORSDO>
F 8

$$$$
=
 OpenBabel11072410313D

 32 36  0  0  1  0  0  0  0  0999 V2000
  162.3380  206.5430  152.1310 C   0  0  0  0  0  2  0  0  0  0  0  0
  160.9140  208.3670  153.9520 C   0  0  0  0  0  3  0  0  0  0  0  0
  161.6040  206.1010  153.3080 N   0  0  0  0  0  0  0  0  0  0  0  0
  161.0080  206.9040  154.1350 C   0  0  0  0  0  3  0  0  0  0  0  0
  161.4240  207.2080  151.1500 C   0  0  0  0  0  0  0  0  0  0  0  0
  160.8390  208.3680  151.4680 C   0  0  0  0  0  3  0  0  0  0  0  0
  160.8770  209.0350  152.7860 C   0  0  0  0  0  0  0  0  0  0  0  0
  161.3120  206.4800  147.4370 C   0  0  0  0  0  3  0  0  0  0  0  0
  160.8580  205.3540  149.4740 C   0  0  0  0  0  0  0  0  0  0  0  0
  160.1470  204.5750  150.2820 C   0  0  0  0  0  2  0  0  0  0  0  0
  161.5870  207.4180  148.6150 C   0  0  0  0  0  3  0  0  0  0  0  0
  160.8870  205.1260  148.0120 C   0  0  2  0  0  3  0  0  0  0  0  0
  161.2680  206.6720  149.8200 N   0  0  0  0  0  0  0  0  0  0  0  0
  161.9250  204.0630  147.6770 C   0  0  0  0  0  2  0  0  0  0  0  0
  161.2840  202.8690  147.0420 C   0  0  0  0  0  0  0  0  0  0  0  0
  161.3200  202.7420  145.7900 O   0  0  0  0  0  0  0  0  0  0  0  0
  161.2940  201.0150  148.6440 C   0  0  0  0  0  2  0  0  0  0  0  0
  160.6210  201.8320  147.8440 C   0  0  0  0  0  3  0  0  0  0  0  0
  160.7320  210.4600  152.7910 N   0  0  0  0  0  2  0  0  0  0  0  0
  159.4530  211.1600  152.7550 C   0  0  0  0  0  2  0  0  0  0  0  0
  159.6550  212.6700  152.8160 C   0  0  0  0  0  2  0  0  0  0  0  0
  160.1080  213.3620  149.0890 C   0  0  0  0  0  0  0  0  0  0  0  0
  158.7900  214.0980  148.9290 C   0  0  1  0  0  3  0  0  0  0  0  0
  159.4000  213.3180  151.4650 C   0  0  1  0  0  3  0  0  0  0  0  0
  160.4760  212.8960  150.4610 C   0  0  0  0  0  2  0  0  0  0  0  0
  158.9560  213.4140  146.4930 C   0  0  0  0  0  2  0  0  0  0  0  0
  158.4320  214.4530  147.4780 C   0  0  0  0  0  2  0  0  0  0  0  0
  160.8410  212.9640  148.0400 C   0  0  0  0  0  3  0  0  0  0  0  0
  157.2160  214.1320  150.6810 C   0  0  0  0  0  2  0  0  0  0  0  0
  160.4690  213.3330  146.6320 C   0  0  0  0  0  2  0  0  0  0  0  0
  157.7080  213.3280  149.5520 N   0  0  2  0  0  0  0  0  0  0  0  0
  157.9950  212.9300  150.9640 C   0  0  1  0  0  3  0  0  0  0  0  0
  1  3  1  0  0  0  0
  2  4  1  0  0  0  0
  3  4  2  0  0  0  0
  5  6  2  0  0  0  0
  5  1  1  0  0  0  0
  6  7  1  0  0  0  0
  7 19  1  0  0  0  0
  7  2  2  0  0  0  0
  8 12  1  0  0  0  0
  8 11  2  0  0  0  0
  9 13  1  0  0  0  0
  9 10  2  0  0  0  0
 11 13  1  0  0  0  0
 12 14  1  1  0  0  0
 12  9  1  0  0  0  0
 13  5  1  0  0  0  0
 15 14  1  0  0  0  0
 15 18  1  0  0  0  0
 16 15  2  0  0  0  0
 18 17  2  0  0  0  0
 20 19  1  0  0  0  0
 20 21  1  0  0  0  0
 22 25  1  0  0  0  0
 23 27  1  6  0  0  0
 23 22  1  0  0  0  0
 23 31  1  0  0  0  0
 24 21  1  1  0  0  0
 25 24  1  0  0  0  0
 26 30  1  0  0  0  0
 26 27  1  0  0  0  0
 28 22  2  0  0  0  0
 30 28  1  0  0  0  0
 31 29  1  1  0  0  0
 31 32  1  0  0  0  0
 32 29  1  1  0  0  0
 32 24  1  0  0  0  0
M  END
>  <MODEL>
5

>  <REMARK>
 VINA RESULT:      -7.7      2.429      3.676
  Name = 
  8 active torsions:
  status: ('A' for Active; 'I' for Inactive)
    1  A    between atoms: C_8  and  C_32
    2  A    between atoms: C_17  and  C_20
    3  A    between atoms: C_17  and  C_31
    4  A    between atoms: N_19  and  C_21
    5  A    between atoms: N_19  and  C_27
    6  A    between atoms: C_20  and  C_24
    7  A    between atoms: C_21  and  C_32
    8  A    between atoms: C_25  and  N_29
                            x       y       z     vdW  Elec       q    Type
                         _______ _______ _______ _____ _____    ______ ____

>  <TORSDO>
F 8

$$$$
=
 OpenBabel11072410313D

 32 36  0  0  1  0  0  0  0  0999 V2000
  159.3220  209.3480  155.7120 C   0  0  0  0  0  2  0  0  0  0  0  0
  161.4080  207.5600  154.6530 C   0  0  0  0  0  3  0  0  0  0  0  0
  160.4280  208.8360  156.5080 N   0  0  0  0  0  0  0  0  0  0  0  0
  161.3270  208.0170  156.0560 C   0  0  0  0  0  3  0  0  0  0  0  0
  159.8220  210.1930  154.5820 C   0  0  0  0  0  0  0  0  0  0  0  0
  160.5340  209.6330  153.5980 C   0  0  0  0  0  3  0  0  0  0  0  0
  161.0280  208.2410  153.5590 C   0  0  0  0  0  0  0  0  0  0  0  0
  158.5230  213.6210  153.6380 C   0  0  0  0  0  3  0  0  0  0  0  0
  159.5670  212.5760  155.4930 C   0  0  0  0  0  0  0  0  0  0  0  0
  160.4410  212.4950  156.4900 C   0  0  0  0  0  2  0  0  0  0  0  0
  158.7810  212.1470  153.3180 C   0  0  0  0  0  3  0  0  0  0  0  0
  158.9930  213.8730  155.0740 C   0  0  2  0  0  3  0  0  0  0  0  0
  159.4380  211.5810  154.4840 N   0  0  0  0  0  0  0  0  0  0  0  0
  157.8060  214.2230  155.9620 C   0  0  0  0  0  2  0  0  0  0  0  0
  156.5700  213.5090  155.5120 C   0  0  0  0  0  0  0  0  0  0  0  0
  155.8720  214.0050  154.5900 O   0  0  0  0  0  0  0  0  0  0  0  0
  155.9940  211.1300  155.3920 C   0  0  0  0  0  2  0  0  0  0  0  0
  156.1570  212.2330  156.1110 C   0  0  0  0  0  3  0  0  0  0  0  0
  161.2250  207.6650  152.2630 N   0  0  0  0  0  2  0  0  0  0  0  0
  161.7980  206.3440  152.0240 C   0  0  0  0  0  2  0  0  0  0  0  0
  160.7900  205.4270  151.3410 C   0  0  0  0  0  2  0  0  0  0  0  0
  161.1920  203.2060  148.2610 C   0  0  0  0  0  0  0  0  0  0  0  0
  161.7130  204.3140  147.3650 C   0  0  1  0  0  3  0  0  0  0  0  0
  161.2670  205.0130  149.9580 C   0  0  1  0  0  3  0  0  0  0  0  0
  160.9120  203.5480  149.6900 C   0  0  0  0  0  2  0  0  0  0  0  0
  160.8370  202.8870  145.4610 C   0  0  0  0  0  2  0  0  0  0  0  0
  161.8770  203.9150  145.8910 C   0  0  0  0  0  2  0  0  0  0  0  0
  160.8070  202.0150  147.7820 C   0  0  0  0  0  3  0  0  0  0  0  0
  161.6840  206.5560  148.0890 C   0  0  0  0  0  2  0  0  0  0  0  0
  160.9870  201.6500  146.3360 C   0  0  0  0  0  2  0  0  0  0  0  0
  160.8570  205.5000  147.4840 N   0  0  2  0  0  0  0  0  0  0  0  0
  160.6380  205.9360  148.8970 C   0  0  1  0  0  3  0  0  0  0  0  0
  1  3  1  0  0  0  0
  2  4  1  0  0  0  0
  4  3  2  0  0  0  0
  5  1  1  0  0  0  0
  6  5  2  0  0  0  0
  7  6  1  0  0  0  0
  7  2  2  0  0  0  0
  8 12  1  0  0  0  0
  9 10  2  0  0  0  0
 11  8  2  0  0  0  0
 11 13  1  0  0  0  0
 12  9  1  0  0  0  0
 12 14  1  1  0  0  0
 13  5  1  0  0  0  0
 13  9  1  0  0  0  0
 15 14  1  0  0  0  0
 15 18  1  0  0  0  0
 16 15  2  0  0  0  0
 17 18  2  0  0  0  0
 19  7  1  0  0  0  0
 20 19  1  0  0  0  0
 21 20  1  0  0  0  0
 22 25  1  0  0  0  0
 23 27  1  6  0  0  0
 23 31  1  0  0  0  0
 23 22  1  0  0  0  0
 24 21  1  1  0  0  0
 25 24  1  0  0  0  0
 26 27  1  0  0  0  0
 26 30  1  0  0  0  0
 28 22  2  0  0  0  0
 30 28  1  0  0  0  0
 31 29  1  6  0  0  0
 31 32  1  0  0  0  0
 32 29  1  6  0  0  0
 32 24  1  0  0  0  0
M  END
>  <MODEL>
6

>  <REMARK>
 VINA RESULT:      -7.7      5.651      9.566
  Name = 
  8 active torsions:
  status: ('A' for Active; 'I' for Inactive)
    1  A    between atoms: C_8  and  C_32
    2  A    between atoms: C_17  and  C_20
    3  A    between atoms: C_17  and  C_31
    4  A    between atoms: N_19  and  C_21
    5  A    between atoms: N_19  and  C_27
    6  A    between atoms: C_20  and  C_24
    7  A    between atoms: C_21  and  C_32
    8  A    between atoms: C_25  and  N_29
                            x       y       z     vdW  Elec       q    Type
                         _______ _______ _______ _____ _____    ______ ____

>  <TORSDO>
F 8

$$$$
=
 OpenBabel11072410313D

 32 36  0  0  1  0  0  0  0  0999 V2000
  160.4620  206.6140  148.6290 C   0  0  0  0  0  2  0  0  0  0  0  0
  162.0370  208.6720  150.0250 C   0  0  0  0  0  3  0  0  0  0  0  0
  161.3970  207.5070  147.9610 N   0  0  0  0  0  0  0  0  0  0  0  0
  162.0640  208.4420  148.5660 C   0  0  0  0  0  3  0  0  0  0  0  0
  161.1670  205.7510  149.6280 C   0  0  0  0  0  0  0  0  0  0  0  0
  161.7210  206.3050  150.7120 C   0  0  0  0  0  3  0  0  0  0  0  0
  161.8490  207.7520  150.9860 C   0  0  0  0  0  0  0  0  0  0  0  0
  160.8400  201.9980  150.0020 C   0  0  0  0  0  3  0  0  0  0  0  0
  161.4230  203.5620  148.3180 C   0  0  0  0  0  0  0  0  0  0  0  0
  162.1560  204.0250  147.3120 C   0  0  0  0  0  2  0  0  0  0  0  0
  160.7560  203.4170  150.5690 C   0  0  0  0  0  3  0  0  0  0  0  0
  161.2250  202.1100  148.5240 C   0  0  2  0  0  3  0  0  0  0  0  0
  161.1450  204.3140  149.4940 N   0  0  0  0  0  0  0  0  0  0  0  0
  160.0850  201.6150  147.6440 C   0  0  0  0  0  2  0  0  0  0  0  0
  160.6110  200.9440  146.4140 C   0  0  0  0  0  0  0  0  0  0  0  0
  160.4510  201.4970  145.2940 O   0  0  0  0  0  0  0  0  0  0  0  0
  161.2150  198.7400  145.5300 C   0  0  0  0  0  2  0  0  0  0  0  0
  161.3210  199.6600  146.4790 C   0  0  0  0  0  3  0  0  0  0  0  0
  161.9040  208.1430  152.3620 N   0  0  0  0  0  2  0  0  0  0  0  0
  160.7780  208.6920  153.1110 C   0  0  0  0  0  2  0  0  0  0  0  0
  160.5430  210.1540  152.7500 C   0  0  0  0  0  2  0  0  0  0  0  0
  157.7900  211.9290  154.7120 C   0  0  0  0  0  0  0  0  0  0  0  0
  158.5360  211.9100  156.0340 C   0  0  1  0  0  3  0  0  0  0  0  0
  159.9020  210.9120  153.9000 C   0  0  1  0  0  3  0  0  0  0  0  0
  158.4930  211.3710  153.5160 C   0  0  0  0  0  2  0  0  0  0  0  0
  156.2340  212.0700  157.0840 C   0  0  0  0  0  2  0  0  0  0  0  0
  157.7140  212.4020  157.2340 C   0  0  0  0  0  2  0  0  0  0  0  0
  156.4910  212.2460  154.6240 C   0  0  0  0  0  3  0  0  0  0  0  0
  160.5340  210.6850  156.2660 C   0  0  0  0  0  2  0  0  0  0  0  0
  155.7150  212.7310  155.8150 C   0  0  0  0  0  2  0  0  0  0  0  0
  159.0680  210.5680  156.2900 N   0  0  2  0  0  0  0  0  0  0  0  0
  159.8670  210.0160  155.1530 C   0  0  1  0  0  3  0  0  0  0  0  0
  1  5  1  0  0  0  0
  2  7  2  0  0  0  0
  3  4  2  0  0  0  0
  3  1  1  0  0  0  0
  4  2  1  0  0  0  0
  5  6  2  0  0  0  0
  6  7  1  0  0  0  0
  7 19  1  0  0  0  0
  8 11  2  0  0  0  0
  9 12  1  0  0  0  0
  9 13  1  0  0  0  0
 10  9  2  0  0  0  0
 12 14  1  6  0  0  0
 12  8  1  0  0  0  0
 13  5  1  0  0  0  0
 13 11  1  0  0  0  0
 15 18  1  0  0  0  0
 15 14  1  0  0  0  0
 16 15  2  0  0  0  0
 17 18  2  0  0  0  0
 19 20  1  0  0  0  0
 21 20  1  0  0  0  0
 22 23  1  0  0  0  0
 23 31  1  0  0  0  0
 23 27  1  1  0  0  0
 24 21  1  6  0  0  0
 24 32  1  0  0  0  0
 25 24  1  0  0  0  0
 25 22  1  0  0  0  0
 26 27  1  0  0  0  0
 28 22  2  0  0  0  0
 28 30  1  0  0  0  0
 30 26  1  0  0  0  0
 31 29  1  1  0  0  0
 32 29  1  1  0  0  0
 32 31  1  0  0  0  0
M  END
>  <MODEL>
7

>  <REMARK>
 VINA RESULT:      -7.5      4.126      7.674
  Name = 
  8 active torsions:
  status: ('A' for Active; 'I' for Inactive)
    1  A    between atoms: C_8  and  C_32
    2  A    between atoms: C_17  and  C_20
    3  A    between atoms: C_17  and  C_31
    4  A    between atoms: N_19  and  C_21
    5  A    between atoms: N_19  and  C_27
    6  A    between atoms: C_20  and  C_24
    7  A    between atoms: C_21  and  C_32
    8  A    between atoms: C_25  and  N_29
                            x       y       z     vdW  Elec       q    Type
                         _______ _______ _______ _____ _____    ______ ____

>  <TORSDO>
F 8

$$$$
=
 OpenBabel11072410313D

 32 36  0  0  1  0  0  0  0  0999 V2000
  161.9900  210.3370  153.7200 C   0  0  0  0  0  2  0  0  0  0  0  0
  159.6970  212.0360  154.4440 C   0  0  0  0  0  3  0  0  0  0  0  0
  161.6430  210.6860  155.0910 N   0  0  0  0  0  0  0  0  0  0  0  0
  160.6570  211.4670  155.4120 C   0  0  0  0  0  3  0  0  0  0  0  0
  160.8890  209.5560  153.0730 C   0  0  0  0  0  0  0  0  0  0  0  0
  159.7090  210.1410  152.8370 C   0  0  0  0  0  3  0  0  0  0  0  0
  159.2950  211.4870  153.2850 C   0  0  0  0  0  0  0  0  0  0  0  0
  161.2660  205.8330  152.5020 C   0  0  0  0  0  3  0  0  0  0  0  0
  161.5280  207.8450  151.2740 C   0  0  0  0  0  0  0  0  0  0  0  0
  162.1500  208.6680  150.4380 C   0  0  0  0  0  2  0  0  0  0  0  0
  160.9290  207.0280  153.3970 C   0  0  0  0  0  3  0  0  0  0  0  0
  161.6040  206.3760  151.1110 C   0  0  2  0  0  3  0  0  0  0  0  0
  161.1320  208.2190  152.5890 N   0  0  0  0  0  0  0  0  0  0  0  0
  160.5640  205.9150  150.0980 C   0  0  0  0  0  2  0  0  0  0  0  0
  161.2180  205.3850  148.8610 C   0  0  0  0  0  0  0  0  0  0  0  0
  161.8040  206.1820  148.0830 O   0  0  0  0  0  0  0  0  0  0  0  0
  160.8310  203.0290  149.4120 C   0  0  0  0  0  2  0  0  0  0  0  0
  161.2050  203.9520  148.5360 C   0  0  0  0  0  3  0  0  0  0  0  0
  158.3120  212.1560  152.4880 N   0  0  0  0  0  2  0  0  0  0  0  0
  158.2120  213.6050  152.3430 C   0  0  0  0  0  2  0  0  0  0  0  0
  157.5690  213.9780  151.0120 C   0  0  0  0  0  2  0  0  0  0  0  0
  158.3280  212.9690  147.4090 C   0  0  0  0  0  0  0  0  0  0  0  0
  159.8340  212.9330  147.5950 C   0  0  1  0  0  3  0  0  0  0  0  0
  158.3850  213.4600  149.8390 C   0  0  1  0  0  3  0  0  0  0  0  0
  157.4920  213.2750  148.6100 C   0  0  0  0  0  2  0  0  0  0  0  0
  159.9320  213.3360  145.0940 C   0  0  0  0  0  2  0  0  0  0  0  0
  160.6290  212.7160  146.2990 C   0  0  0  0  0  2  0  0  0  0  0  0
  157.7510  212.9230  146.2000 C   0  0  0  0  0  3  0  0  0  0  0  0
  160.8160  213.7310  149.5820 C   0  0  0  0  0  2  0  0  0  0  0  0
  158.5550  212.7020  144.9500 C   0  0  0  0  0  2  0  0  0  0  0  0
  160.2840  214.1510  148.2770 N   0  0  2  0  0  0  0  0  0  0  0  0
  159.5390  214.4360  149.5410 C   0  0  1  0  0  3  0  0  0  0  0  0
  1  3  1  0  0  0  0
  2  4  1  0  0  0  0
  3  4  2  0  0  0  0
  5  1  1  0  0  0  0
  6  5  2  0  0  0  0
  6  7  1  0  0  0  0
  7  2  2  0  0  0  0
  8 11  2  0  0  0  0
  9 13  1  0  0  0  0
 10  9  2  0  0  0  0
 12 14  1  6  0  0  0
 12  9  1  0  0  0  0
 12  8  1  0  0  0  0
 13  5  1  0  0  0  0
 13 11  1  0  0  0  0
 15 14  1  0  0  0  0
 16 15  2  0  0  0  0
 18 15  1  0  0  0  0
 18 17  2  0  0  0  0
 19  7  1  0  0  0  0
 20 19  1  0  0  0  0
 21 20  1  0  0  0  0
 22 23  1  0  0  0  0
 22 25  1  0  0  0  0
 23 27  1  6  0  0  0
 23 31  1  0  0  0  0
 24 21  1  1  0  0  0
 25 24  1  0  0  0  0
 26 27  1  0  0  0  0
 28 22  2  0  0  0  0
 30 26  1  0  0  0  0
 30 28  1  0  0  0  0
 31 32  1  0  0  0  0
 31 29  1  1  0  0  0
 32 29  1  1  0  0  0
 32 24  1  0  0  0  0
M  END
>  <MODEL>
8

>  <REMARK>
 VINA RESULT:      -7.5      2.813      4.426
  Name = 
  8 active torsions:
  status: ('A' for Active; 'I' for Inactive)
    1  A    between atoms: C_8  and  C_32
    2  A    between atoms: C_17  and  C_20
    3  A    between atoms: C_17  and  C_31
    4  A    between atoms: N_19  and  C_21
    5  A    between atoms: N_19  and  C_27
    6  A    between atoms: C_20  and  C_24
    7  A    between atoms: C_21  and  C_32
    8  A    between atoms: C_25  and  N_29
                            x       y       z     vdW  Elec       q    Type
                         _______ _______ _______ _____ _____    ______ ____

>  <TORSDO>
F 8

$$$$
=
 OpenBabel11072410313D

 32 36  0  0  1  0  0  0  0  0999 V2000
  162.2550  206.2070  151.9370 C   0  0  0  0  0  2  0  0  0  0  0  0
  161.2150  208.2590  153.7740 C   0  0  0  0  0  3  0  0  0  0  0  0
  161.4050  205.9120  153.0820 N   0  0  0  0  0  0  0  0  0  0  0  0
  160.9770  206.8080  153.9170 C   0  0  0  0  0  3  0  0  0  0  0  0
  161.5430  207.0810  150.9540 C   0  0  0  0  0  0  0  0  0  0  0  0
  161.2190  208.3350  151.2900 C   0  0  0  0  0  3  0  0  0  0  0  0
  161.3640  208.9450  152.6280 C   0  0  0  0  0  0  0  0  0  0  0  0
  161.1670  206.5950  147.2180 C   0  0  0  0  0  3  0  0  0  0  0  0
  160.9730  205.3030  149.1970 C   0  0  0  0  0  0  0  0  0  0  0  0
  160.3930  204.4180  150.0010 C   0  0  0  0  0  2  0  0  0  0  0  0
  161.4720  207.4710  148.4350 C   0  0  0  0  0  3  0  0  0  0  0  0
  160.8940  205.1760  147.7250 C   0  0  2  0  0  3  0  0  0  0  0  0
  161.3130  206.6230  149.6040 N   0  0  0  0  0  0  0  0  0  0  0  0
  161.9750  204.2230  147.2310 C   0  0  0  0  0  2  0  0  0  0  0  0
  161.4720  203.3830  146.0990 C   0  0  0  0  0  0  0  0  0  0  0  0
  161.4600  203.8590  144.9340 O   0  0  0  0  0  0  0  0  0  0  0  0
  160.8310  201.4930  147.5220 C   0  0  0  0  0  2  0  0  0  0  0  0
  161.0020  202.0070  146.3110 C   0  0  0  0  0  3  0  0  0  0  0  0
  161.5380  210.3660  152.6710 N   0  0  0  0  0  2  0  0  0  0  0  0
  160.4490  211.3290  152.8030 C   0  0  0  0  0  2  0  0  0  0  0  0
  160.0010  211.4520  154.2540 C   0  0  0  0  0  2  0  0  0  0  0  0
  156.6430  212.3560  155.8290 C   0  0  0  0  0  0  0  0  0  0  0  0
  156.3130  213.4450  154.8250 C   0  0  1  0  0  3  0  0  0  0  0  0
  158.6170  212.0720  154.3560 C   0  0  1  0  0  3  0  0  0  0  0  0
  157.9090  211.5880  155.6250 C   0  0  0  0  0  2  0  0  0  0  0  0
  154.8450  214.3910  156.6620 C   0  0  0  0  0  2  0  0  0  0  0  0
  155.0530  214.2570  155.1580 C   0  0  0  0  0  2  0  0  0  0  0  0
  155.9500  212.1920  156.9660 C   0  0  0  0  0  3  0  0  0  0  0  0
  157.9250  214.1640  153.2650 C   0  0  0  0  0  2  0  0  0  0  0  0
  154.7170  212.9970  157.2610 C   0  0  0  0  0  2  0  0  0  0  0  0
  157.4680  214.3330  154.6530 N   0  0  2  0  0  0  0  0  0  0  0  0
  158.7380  213.6080  154.3430 C   0  0  1  0  0  3  0  0  0  0  0  0
  1  3  1  0  0  0  0
  2  4  1  0  0  0  0
  3  4  2  0  0  0  0
  5  6  2  0  0  0  0
  5  1  1  0  0  0  0
  6  7  1  0  0  0  0
  7 19  1  0  0  0  0
  7  2  2  0  0  0  0
  8 12  1  0  0  0  0
  8 11  2  0  0  0  0
  9 13  1  0  0  0  0
  9 10  2  0  0  0  0
 11 13  1  0  0  0  0
 12 14  1  6  0  0  0
 12  9  1  0  0  0  0
 13  5  1  0  0  0  0
 15 18  1  0  0  0  0
 15 14  1  0  0  0  0
 16 15  2  0  0  0  0
 18 17  2  0  0  0  0
 19 20  1  0  0  0  0
 20 21  1  0  0  0  0
 22 28  2  0  0  0  0
 23 27  1  1  0  0  0
 23 22  1  0  0  0  0
 24 21  1  1  0  0  0
 24 25  1  0  0  0  0
 25 22  1  0  0  0  0
 26 30  1  0  0  0  0
 27 26  1  0  0  0  0
 28 30  1  0  0  0  0
 31 29  1  6  0  0  0
 31 23  1  0  0  0  0
 32 29  1  6  0  0  0
 32 24  1  0  0  0  0
 32 31  1  0  0  0  0
M  END
>  <MODEL>
9

>  <REMARK>
 VINA RESULT:      -7.4      4.646      7.574
  Name = 
  8 active torsions:
  status: ('A' for Active; 'I' for Inactive)
    1  A    between atoms: C_8  and  C_32
    2  A    between atoms: C_17  and  C_20
    3  A    between atoms: C_17  and  C_31
    4  A    between atoms: N_19  and  C_21
    5  A    between atoms: N_19  and  C_27
    6  A    between atoms: C_20  and  C_24
    7  A    between atoms: C_21  and  C_32
    8  A    between atoms: C_25  and  N_29
                            x       y       z     vdW  Elec       q    Type
                         _______ _______ _______ _____ _____    ______ ____

>  <TORSDO>
F 8

$$$$
