=
 OpenBabel11072412133D

 31 35  0  0  1  0  0  0  0  0999 V2000
  159.4600  209.8420  138.2320 C   0  0  2  0  0  3  0  0  0  0  0  0
  158.0810  213.9000  143.7950 O   0  0  0  0  0  1  0  0  0  0  0  0
  161.2690  211.7850  141.0490 C   0  0  2  0  0  3  0  0  0  0  0  0
  161.2580  213.1790  140.8170 O   0  0  0  0  0  0  0  0  0  0  0  0
  160.1650  211.1300  140.2330 C   0  0  1  0  0  3  0  0  0  0  0  0
  158.3950  210.9060  137.8600 C   0  0  2  0  0  3  0  0  0  0  0  0
  160.6070  207.7850  137.4910 C   0  0  0  0  0  2  0  0  0  0  0  0
  159.3930  212.2600  139.7890 N   0  0  0  0  0  0  0  0  0  0  0  0
  159.6850  211.8210  143.0680 C   0  0  1  0  0  3  0  0  0  0  0  0
  159.9970  213.4870  140.2650 C   0  0  1  0  0  3  0  0  0  0  0  0
  160.6310  214.4530  143.6850 O   0  0  0  0  0  0  0  0  0  0  0  0
  162.4540  209.3150  140.2590 O   0  0  0  0  0  0  0  0  0  0  0  0
  160.6800  210.3700  139.0070 C   0  0  1  0  0  3  0  0  0  0  0  0
  159.5850  211.3840  144.3750 F   0  0  0  0  0  0  0  0  0  0  0  0
  158.5930  212.2140  138.6010 C   0  0  0  0  0  0  0  0  0  0  0  0
  158.0860  213.2720  138.1420 O   0  0  0  0  0  0  0  0  0  0  0  0
  159.9250  209.0610  137.0110 C   0  0  0  0  0  2  0  0  0  0  0  0
  161.6180  209.2250  139.3210 C   0  0  0  0  0  0  0  0  0  0  0  0
  159.0850  214.1790  141.2820 C   0  0  0  0  0  2  0  0  0  0  0  0
  159.3340  213.6080  143.0020 P   0  0  2  0  0  0  0  0  0  0  0  0
  161.0880  211.5010  142.5430 C   0  0  0  0  0  2  0  0  0  0  0  0
  161.6630  208.0840  138.4560 N   0  0  0  0  0  2  0  0  0  0  0  0
  156.7050  209.8960  139.4500 C   0  0  0  0  0  2  0  0  0  0  0  0
  154.5000  211.0550  138.0030 C   0  0  0  0  0  2  0  0  0  0  0  0
  156.9500  210.3550  138.0010 C   0  0  1  0  0  0  0  0  0  0  0  0
  155.9340  211.4640  137.6740 C   0  0  0  0  0  2  0  0  0  0  0  0
  155.3300  209.4360  139.6440 N   0  0  0  0  0  2  0  0  0  0  0  0
  156.7450  209.1790  137.0460 C   0  0  0  0  0  1  0  0  0  0  0  0
  154.4290  210.5690  139.4480 C   0  0  2  0  0  3  0  0  0  0  0  0
  153.0030  210.1860  139.8230 C   0  0  0  0  0  2  0  0  0  0  0  0
  152.9730  208.9160  140.5320 N   0  0  0  0  0  1  0  0  0  0  0  0
  1 17  1  6  0  0  0
  1 13  1  0  0  0  0
  3 21  1  1  0  0  0
  4  3  1  0  0  0  0
  5  8  1  6  0  0  0
  5  3  1  0  0  0  0
  6 25  1  0  0  0  0
  6  1  1  0  0  0  0
  6 15  1  1  0  0  0
  7 22  1  0  0  0  0
  8 10  1  0  0  0  0
  9 14  1  1  0  0  0
 10  4  1  0  0  0  0
 10 19  1  1  0  0  0
 13 18  1  1  0  0  0
 13  5  1  0  0  0  0
 15  8  1  0  0  0  0
 16 15  2  0  0  0  0
 17  7  1  0  0  0  0
 18 12  2  0  0  0  0
 19 20  1  0  0  0  0
 20  9  1  0  0  0  0
 20 11  2  1  0  0  0
 20  2  1  0  0  0  0
 21  9  1  0  0  0  0
 22 18  1  0  0  0  0
 23 27  1  0  0  0  0
 24 29  1  0  0  0  0
 25 28  1  6  0  0  0
 25 23  1  0  0  0  0
 26 25  1  0  0  0  0
 26 24  1  0  0  0  0
 29 27  1  0  0  0  0
 29 30  1  6  0  0  0
 30 31  1  0  0  0  0
M  END
>  <MODEL>
1

>  <REMARK>
 VINA RESULT:      -4.4      0.000      0.000
  Name = 
  2 active torsions:
  status: ('A' for Active; 'I' for Inactive)
    1  A    between atoms: C_7  and  C_16
    2  A    between atoms: C_13  and  C_24
                            x       y       z     vdW  Elec       q    Type
                         _______ _______ _______ _____ _____    ______ ____

>  <TORSDO>
F 2

$$$$
=
 OpenBabel11072412133D

 31 35  0  0  1  0  0  0  0  0999 V2000
  161.6930  207.2030  151.9930 C   0  0  2  0  0  3  0  0  0  0  0  0
  158.1550  213.2650  151.7490 O   0  0  0  0  0  0  0  0  0  0  0  0
  160.1930  209.8960  154.3330 C   0  0  2  0  0  3  0  0  0  0  0  0
  160.9730  211.0750  154.3470 O   0  0  0  0  0  0  0  0  0  0  0  0
  160.5110  209.0960  153.0800 C   0  0  1  0  0  3  0  0  0  0  0  0
  162.3230  208.1410  150.9290 C   0  0  2  0  0  3  0  0  0  0  0  0
  161.6720  204.9090  152.9050 C   0  0  0  0  0  2  0  0  0  0  0  0
  161.2720  210.0330  152.2970 N   0  0  0  0  0  0  0  0  0  0  0  0
  158.1730  210.9050  153.1130 C   0  0  1  0  0  3  0  0  0  0  0  0
  161.4270  211.2740  153.0260 C   0  0  1  0  0  3  0  0  0  0  0  0
  158.8240  213.4450  154.2670 O   0  0  0  0  0  1  0  0  0  0  0  0
  160.0510  207.2020  155.2560 O   0  0  0  0  0  0  0  0  0  0  0  0
  161.3760  207.8590  153.3480 C   0  0  1  0  0  3  0  0  0  0  0  0
  156.8020  211.0380  153.2140 F   0  0  0  0  0  0  0  0  0  0  0  0
  162.2170  209.6050  151.3080 C   0  0  0  0  0  0  0  0  0  0  0  0
  162.9970  210.4430  150.7790 O   0  0  0  0  0  0  0  0  0  0  0  0
  162.5370  205.9550  152.2110 C   0  0  0  0  0  2  0  0  0  0  0  0
  160.7490  206.8380  154.2730 C   0  0  0  0  0  0  0  0  0  0  0  0
  160.6710  212.4090  152.3300 C   0  0  0  0  0  2  0  0  0  0  0  0
  158.9190  212.5460  152.8370 P   0  0  2  0  0  0  0  0  0  0  0  0
  158.7050  210.2520  154.3920 C   0  0  0  0  0  2  0  0  0  0  0  0
  161.0660  205.4500  154.1200 N   0  0  0  0  0  2  0  0  0  0  0  0
  162.8750  207.2040  148.6450 C   0  0  0  0  0  2  0  0  0  0  0  0
  160.1490  206.3770  148.2130 C   0  0  0  0  0  2  0  0  0  0  0  0
  161.7760  207.8530  149.5050 C   0  0  1  0  0  0  0  0  0  0  0  0
  160.5930  206.8720  149.5880 C   0  0  0  0  0  2  0  0  0  0  0  0
  162.3790  206.8490  147.3150 N   0  0  0  0  0  2  0  0  0  0  0  0
  161.3120  209.1550  148.8510 C   0  0  0  0  0  1  0  0  0  0  0  0
  161.3530  205.8190  147.4610 C   0  0  2  0  0  3  0  0  0  0  0  0
  160.9410  205.2820  146.0960 C   0  0  0  0  0  2  0  0  0  0  0  0
  160.1990  206.2820  145.3450 N   0  0  0  0  0  1  0  0  0  0  0  0
  1 17  1  1  0  0  0
  1 13  1  0  0  0  0
  3  4  1  0  0  0  0
  3 21  1  6  0  0  0
  5  8  1  6  0  0  0
  5 13  1  0  0  0  0
  5  3  1  0  0  0  0
  6 15  1  1  0  0  0
  6  1  1  0  0  0  0
  7 22  1  0  0  0  0
  8 10  1  0  0  0  0
  9 14  1  1  0  0  0
  9 21  1  0  0  0  0
 10 19  1  6  0  0  0
 10  4  1  0  0  0  0
 13 18  1  1  0  0  0
 15  8  1  0  0  0  0
 16 15  2  0  0  0  0
 17  7  1  0  0  0  0
 18 12  2  0  0  0  0
 19 20  1  0  0  0  0
 20  2  2  6  0  0  0
 20  9  1  0  0  0  0
 20 11  1  0  0  0  0
 22 18  1  0  0  0  0
 23 25  1  0  0  0  0
 24 26  1  0  0  0  0
 25 28  1  6  0  0  0
 25 26  1  0  0  0  0
 25  6  1  0  0  0  0
 27 29  1  0  0  0  0
 27 23  1  0  0  0  0
 29 30  1  6  0  0  0
 29 24  1  0  0  0  0
 31 30  1  0  0  0  0
M  END
>  <MODEL>
2

>  <REMARK>
 VINA RESULT:      -4.2     10.102     12.779
  Name = 
  2 active torsions:
  status: ('A' for Active; 'I' for Inactive)
    1  A    between atoms: C_7  and  C_16
    2  A    between atoms: C_13  and  C_24
                            x       y       z     vdW  Elec       q    Type
                         _______ _______ _______ _____ _____    ______ ____

>  <TORSDO>
F 2

$$$$
=
 OpenBabel11072412133D

 31 35  0  0  1  0  0  0  0  0999 V2000
  161.1120  213.0450  140.8280 C   0  0  2  0  0  3  0  0  0  0  0  0
  155.6860  210.7400  137.0110 O   0  0  0  0  0  0  0  0  0  0  0  0
  157.3970  213.8540  140.1010 C   0  0  2  0  0  3  0  0  0  0  0  0
  157.2280  214.4530  138.8320 O   0  0  0  0  0  0  0  0  0  0  0  0
  158.7280  213.1210  140.1380 C   0  0  1  0  0  3  0  0  0  0  0  0
  161.5740  212.7450  139.3780 C   0  0  2  0  0  3  0  0  0  0  0  0
  161.8620  213.5860  143.1170 C   0  0  0  0  0  2  0  0  0  0  0  0
  159.1190  213.1140  138.7540 N   0  0  0  0  0  0  0  0  0  0  0  0
  156.2480  211.6340  139.5230 C   0  0  1  0  0  3  0  0  0  0  0  0
  158.1300  213.8110  137.9590 C   0  0  1  0  0  3  0  0  0  0  0  0
  154.6190  213.0400  137.6330 O   0  0  0  0  0  1  0  0  0  0  0  0
  158.2860  214.3020  142.7730 O   0  0  0  0  0  0  0  0  0  0  0  0
  159.8040  213.8470  140.9520 C   0  0  1  0  0  3  0  0  0  0  0  0
  155.2600  210.7760  139.9680 F   0  0  0  0  0  0  0  0  0  0  0  0
  160.4920  213.0180  138.3520 C   0  0  0  0  0  0  0  0  0  0  0  0
  160.8100  213.2060  137.1470 O   0  0  0  0  0  0  0  0  0  0  0  0
  162.2080  213.7210  141.6390 C   0  0  0  0  0  2  0  0  0  0  0  0
  159.4650  214.0440  142.4140 C   0  0  0  0  0  0  0  0  0  0  0  0
  157.4140  212.8410  137.0150 C   0  0  0  0  0  2  0  0  0  0  0  0
  155.9620  212.0200  137.7640 P   0  0  2  0  0  0  0  0  0  0  0  0
  156.2360  212.8980  140.3880 C   0  0  0  0  0  2  0  0  0  0  0  0
  160.5140  214.0830  143.3880 N   0  0  0  0  0  2  0  0  0  0  0  0
  161.7290  210.4510  140.4350 C   0  0  0  0  0  2  0  0  0  0  0  0
  162.0390  209.1790  137.8680 C   0  0  0  0  0  2  0  0  0  0  0  0
  162.1750  211.3200  139.2440 C   0  0  1  0  0  0  0  0  0  0  0  0
  161.6640  210.6560  137.9530 C   0  0  0  0  0  2  0  0  0  0  0  0
  162.2150  209.0760  140.3100 N   0  0  0  0  0  2  0  0  0  0  0  0
  163.7010  211.3980  139.2060 C   0  0  0  0  0  1  0  0  0  0  0  0
  161.5870  208.4670  139.1400 C   0  0  2  0  0  3  0  0  0  0  0  0
  161.9150  206.9800  139.0760 C   0  0  0  0  0  2  0  0  0  0  0  0
  162.7800  206.5880  140.1770 N   0  0  0  0  0  1  0  0  0  0  0  0
  1 13  1  0  0  0  0
  1 17  1  6  0  0  0
  3  5  1  0  0  0  0
  3 21  1  6  0  0  0
  4  3  1  0  0  0  0
  5  8  1  6  0  0  0
  5 13  1  0  0  0  0
  6 15  1  6  0  0  0
  6  1  1  0  0  0  0
  7 22  1  0  0  0  0
  9 14  1  1  0  0  0
  9 21  1  0  0  0  0
 10 19  1  1  0  0  0
 10  8  1  0  0  0  0
 10  4  1  0  0  0  0
 11 20  1  0  0  0  0
 13 18  1  1  0  0  0
 15  8  1  0  0  0  0
 16 15  2  0  0  0  0
 17  7  1  0  0  0  0
 18 12  2  0  0  0  0
 18 22  1  0  0  0  0
 19 20  1  0  0  0  0
 20  2  2  6  0  0  0
 20  9  1  0  0  0  0
 24 26  1  0  0  0  0
 24 29  1  0  0  0  0
 25 28  1  6  0  0  0
 25  6  1  0  0  0  0
 25 23  1  0  0  0  0
 26 25  1  0  0  0  0
 27 23  1  0  0  0  0
 29 30  1  6  0  0  0
 29 27  1  0  0  0  0
 30 31  1  0  0  0  0
M  END
>  <MODEL>
3

>  <REMARK>
 VINA RESULT:      -4.2      3.185      6.181
  Name = 
  2 active torsions:
  status: ('A' for Active; 'I' for Inactive)
    1  A    between atoms: C_7  and  C_16
    2  A    between atoms: C_13  and  C_24
                            x       y       z     vdW  Elec       q    Type
                         _______ _______ _______ _____ _____    ______ ____

>  <TORSDO>
F 2

$$$$
=
 OpenBabel11072412133D

 31 35  0  0  1  0  0  0  0  0999 V2000
  158.7060  212.9670  153.4050 C   0  0  2  0  0  3  0  0  0  0  0  0
  160.1550  207.2790  157.2600 O   0  0  0  0  0  1  0  0  0  0  0  0
  161.5200  210.3740  153.9840 C   0  0  2  0  0  3  0  0  0  0  0  0
  162.2030  210.6020  155.2000 O   0  0  0  0  0  0  0  0  0  0  0  0
  160.1640  211.0580  154.0320 C   0  0  1  0  0  3  0  0  0  0  0  0
  158.3070  213.2140  154.8840 C   0  0  2  0  0  3  0  0  0  0  0  0
  158.5560  213.8370  151.0990 C   0  0  0  0  0  2  0  0  0  0  0  0
  160.0410  211.4100  155.4220 N   0  0  0  0  0  0  0  0  0  0  0  0
  160.3850  208.1870  154.7010 C   0  0  1  0  0  3  0  0  0  0  0  0
  161.2320  211.0050  156.1400 C   0  0  1  0  0  3  0  0  0  0  0  0
  162.6020  207.6800  156.4420 O   0  0  0  0  0  0  0  0  0  0  0  0
  161.1870  211.2970  151.3070 O   0  0  0  0  0  0  0  0  0  0  0  0
  160.0930  212.3370  153.1910 C   0  0  1  0  0  3  0  0  0  0  0  0
  160.2040  206.8770  154.2990 F   0  0  0  0  0  0  0  0  0  0  0  0
  159.2190  212.4990  155.8610 C   0  0  0  0  0  0  0  0  0  0  0  0
  159.2840  212.8960  157.0550 O   0  0  0  0  0  0  0  0  0  0  0  0
  158.5820  214.2340  152.5700 C   0  0  0  0  0  2  0  0  0  0  0  0
  160.3370  212.1340  151.7110 C   0  0  0  0  0  0  0  0  0  0  0  0
  160.9090  209.8900  157.1370 C   0  0  0  0  0  2  0  0  0  0  0  0
  160.9960  208.2110  156.4190 P   0  0  2  0  0  0  0  0  0  0  0  0
  161.3660  208.8700  153.7430 C   0  0  0  0  0  2  0  0  0  0  0  0
  159.7050  212.9980  150.7610 N   0  0  0  0  0  2  0  0  0  0  0  0
  156.5780  211.3870  155.1540 C   0  0  0  0  0  2  0  0  0  0  0  0
  154.9840  213.0160  156.9170 C   0  0  0  0  0  2  0  0  0  0  0  0
  156.8060  212.9090  155.1380 C   0  0  1  0  0  0  0  0  0  0  0  0
  156.3840  213.4690  156.5080 C   0  0  0  0  0  2  0  0  0  0  0  0
  155.1860  211.0540  155.4640 N   0  0  0  0  0  2  0  0  0  0  0  0
  155.9500  213.5460  154.0430 C   0  0  0  0  0  1  0  0  0  0  0  0
  154.8950  211.4950  156.8250 C   0  0  2  0  0  3  0  0  0  0  0  0
  153.5200  211.0040  157.2610 C   0  0  0  0  0  2  0  0  0  0  0  0
  153.4610  209.5510  157.2610 N   0  0  0  0  0  1  0  0  0  0  0  0
  1 17  1  6  0  0  0
  1  6  1  0  0  0  0
  3 21  1  1  0  0  0
  3  5  1  0  0  0  0
  3  4  1  0  0  0  0
  4 10  1  0  0  0  0
  5  8  1  1  0  0  0
  6 25  1  0  0  0  0
  6 15  1  1  0  0  0
  7 17  1  0  0  0  0
  8 15  1  0  0  0  0
  8 10  1  0  0  0  0
  9 14  1  6  0  0  0
  9 20  1  0  0  0  0
 10 19  1  1  0  0  0
 12 18  2  0  0  0  0
 13 18  1  6  0  0  0
 13  1  1  0  0  0  0
 13  5  1  0  0  0  0
 15 16  2  0  0  0  0
 20 11  2  1  0  0  0
 20 19  1  0  0  0  0
 20  2  1  0  0  0  0
 21  9  1  0  0  0  0
 22  7  1  0  0  0  0
 22 18  1  0  0  0  0
 23 27  1  0  0  0  0
 25 28  1  6  0  0  0
 25 23  1  0  0  0  0
 25 26  1  0  0  0  0
 26 24  1  0  0  0  0
 27 29  1  0  0  0  0
 29 24  1  0  0  0  0
 29 30  1  6  0  0  0
 30 31  1  0  0  0  0
M  END
>  <MODEL>
4

>  <REMARK>
 VINA RESULT:      -3.7     12.724     15.547
  Name = 
  2 active torsions:
  status: ('A' for Active; 'I' for Inactive)
    1  A    between atoms: C_7  and  C_16
    2  A    between atoms: C_13  and  C_24
                            x       y       z     vdW  Elec       q    Type
                         _______ _______ _______ _____ _____    ______ ____

>  <TORSDO>
F 2

$$$$
=
 OpenBabel11072412133D

 31 35  0  0  1  0  0  0  0  0999 V2000
  161.4230  206.0520  151.4950 C   0  0  2  0  0  3  0  0  0  0  0  0
  159.2360  212.6660  150.6110 O   0  0  0  0  0  0  0  0  0  0  0  0
  160.9760  209.3510  153.4680 C   0  0  2  0  0  3  0  0  0  0  0  0
  161.9720  210.3000  153.1400 O   0  0  0  0  0  0  0  0  0  0  0  0
  160.8830  208.3150  152.3590 C   0  0  1  0  0  3  0  0  0  0  0  0
  162.0240  206.6380  150.1900 C   0  0  2  0  0  3  0  0  0  0  0  0
  161.0980  203.9970  152.8240 C   0  0  0  0  0  2  0  0  0  0  0  0
  161.6610  208.9130  151.3080 N   0  0  0  0  0  0  0  0  0  0  0  0
  159.0180  210.6090  152.3860 C   0  0  1  0  0  3  0  0  0  0  0  0
  162.2030  210.1790  151.7540 C   0  0  1  0  0  3  0  0  0  0  0  0
  160.3840  213.0690  152.9210 O   0  0  0  0  0  1  0  0  0  0  0  0
  160.4530  206.9430  154.9020 O   0  0  0  0  0  0  0  0  0  0  0  0
  161.5060  206.9660  152.7300 C   0  0  1  0  0  3  0  0  0  0  0  0
  157.7470  211.0780  152.6590 F   0  0  0  0  0  0  0  0  0  0  0  0
  162.2970  208.1260  150.2910 C   0  0  0  0  0  0  0  0  0  0  0  0
  163.1210  208.6630  149.5030 O   0  0  0  0  0  0  0  0  0  0  0  0
  162.0160  204.6880  151.8230 C   0  0  0  0  0  2  0  0  0  0  0  0
  160.8650  206.2770  153.9160 C   0  0  0  0  0  0  0  0  0  0  0  0
  161.5830  211.3390  150.9710 C   0  0  0  0  0  2  0  0  0  0  0  0
  160.0230  211.9640  151.6930 P   0  0  2  0  0  0  0  0  0  0  0  0
  159.6310  210.0540  153.6740 C   0  0  0  0  0  2  0  0  0  0  0  0
  160.8540  204.8470  153.9880 N   0  0  0  0  0  2  0  0  0  0  0  0
  161.3800  207.3280  147.8430 C   0  0  0  0  0  2  0  0  0  0  0  0
  160.9810  204.5900  147.0390 C   0  0  0  0  0  2  0  0  0  0  0  0
  161.1740  206.2720  148.9440 C   0  0  1  0  0  0  0  0  0  0  0  0
  161.6230  204.9100  148.3870 C   0  0  0  0  0  2  0  0  0  0  0  0
  160.6520  206.9820  146.6210 N   0  0  0  0  0  2  0  0  0  0  0  0
  159.6940  206.2050  149.3220 C   0  0  0  0  0  1  0  0  0  0  0  0
  161.2180  205.7510  146.0760 C   0  0  2  0  0  3  0  0  0  0  0  0
  160.6210  205.4520  144.7070 C   0  0  0  0  0  2  0  0  0  0  0  0
  160.4560  204.0200  144.5110 N   0  0  0  0  0  1  0  0  0  0  0  0
  1 17  1  1  0  0  0
  1 13  1  0  0  0  0
  3 21  1  6  0  0  0
  4  3  1  0  0  0  0
  5  8  1  6  0  0  0
  5 13  1  0  0  0  0
  5  3  1  0  0  0  0
  6 15  1  1  0  0  0
  6  1  1  0  0  0  0
  7 22  1  0  0  0  0
  8 10  1  0  0  0  0
  9 14  1  1  0  0  0
  9 21  1  0  0  0  0
 10 19  1  6  0  0  0
 10  4  1  0  0  0  0
 13 18  1  1  0  0  0
 15  8  1  0  0  0  0
 16 15  2  0  0  0  0
 17  7  1  0  0  0  0
 18 22  1  0  0  0  0
 18 12  2  0  0  0  0
 19 20  1  0  0  0  0
 20  2  2  6  0  0  0
 20  9  1  0  0  0  0
 20 11  1  0  0  0  0
 23 25  1  0  0  0  0
 24 26  1  0  0  0  0
 25 28  1  1  0  0  0
 25  6  1  0  0  0  0
 26 25  1  0  0  0  0
 27 23  1  0  0  0  0
 29 30  1  6  0  0  0
 29 27  1  0  0  0  0
 29 24  1  0  0  0  0
 31 30  1  0  0  0  0
M  END
>  <MODEL>
5

>  <REMARK>
 VINA RESULT:      -3.6      9.811     12.275
  Name = 
  2 active torsions:
  status: ('A' for Active; 'I' for Inactive)
    1  A    between atoms: C_7  and  C_16
    2  A    between atoms: C_13  and  C_24
                            x       y       z     vdW  Elec       q    Type
                         _______ _______ _______ _____ _____    ______ ____

>  <TORSDO>
F 2

$$$$
=
 OpenBabel11072412133D

 31 35  0  0  1  0  0  0  0  0999 V2000
  159.8760  212.9860  151.3490 C   0  0  2  0  0  3  0  0  0  0  0  0
  160.4530  206.3130  153.4610 O   0  0  0  0  0  1  0  0  0  0  0  0
  162.1320  209.8760  150.8800 C   0  0  2  0  0  3  0  0  0  0  0  0
  162.9540  209.6470  152.0080 O   0  0  0  0  0  0  0  0  0  0  0  0
  160.9570  210.7520  151.2830 C   0  0  1  0  0  3  0  0  0  0  0  0
  159.6700  212.8960  152.8840 C   0  0  2  0  0  3  0  0  0  0  0  0
  159.7050  214.4500  149.3680 C   0  0  0  0  0  2  0  0  0  0  0  0
  161.0350  210.7370  152.7190 N   0  0  0  0  0  0  0  0  0  0  0  0
  160.6370  207.8140  151.1940 C   0  0  1  0  0  3  0  0  0  0  0  0
  162.1740  209.9510  153.1430 C   0  0  1  0  0  3  0  0  0  0  0  0
  162.8470  206.4770  152.4320 O   0  0  0  0  0  0  0  0  0  0  0  0
  161.7600  211.5220  148.5820 O   0  0  0  0  0  0  0  0  0  0  0  0
  161.0780  212.1990  150.7970 C   0  0  1  0  0  3  0  0  0  0  0  0
  160.1530  206.7120  150.5150 F   0  0  0  0  0  0  0  0  0  0  0  0
  160.4980  211.7970  153.5210 C   0  0  0  0  0  0  0  0  0  0  0  0
  160.7510  211.8440  154.7540 O   0  0  0  0  0  0  0  0  0  0  0  0
  159.9440  214.4300  150.8740 C   0  0  0  0  0  2  0  0  0  0  0  0
  161.1410  212.3580  149.2920 C   0  0  0  0  0  0  0  0  0  0  0  0
  161.7180  208.6860  153.8740 C   0  0  0  0  0  2  0  0  0  0  0  0
  161.3910  207.2710  152.7630 P   0  0  2  0  0  0  0  0  0  0  0  0
  161.6490  208.5420  150.3040 C   0  0  0  0  0  2  0  0  0  0  0  0
  160.6200  213.5420  148.6790 N   0  0  0  0  0  2  0  0  0  0  0  0
  157.9640  213.3020  154.7080 C   0  0  0  0  0  2  0  0  0  0  0  0
  155.8850  213.8330  152.7840 C   0  0  0  0  0  2  0  0  0  0  0  0
  158.1680  212.8060  153.2640 C   0  0  1  0  0  0  0  0  0  0  0  0
  157.3370  213.7040  152.3300 C   0  0  0  0  0  2  0  0  0  0  0  0
  156.5490  213.3010  155.0820 N   0  0  0  0  0  2  0  0  0  0  0  0
  157.6850  211.3610  153.1430 C   0  0  0  0  0  1  0  0  0  0  0  0
  155.8470  214.2720  154.2450 C   0  0  2  0  0  3  0  0  0  0  0  0
  154.4110  214.4450  154.7230 C   0  0  0  0  0  2  0  0  0  0  0  0
  154.3410  214.4510  156.1760 N   0  0  0  0  0  1  0  0  0  0  0  0
  1 17  1  1  0  0  0
  1  6  1  0  0  0  0
  3 21  1  1  0  0  0
  3  5  1  0  0  0  0
  3  4  1  0  0  0  0
  4 10  1  0  0  0  0
  5  8  1  1  0  0  0
  6 25  1  0  0  0  0
  6 15  1  6  0  0  0
  7 17  1  0  0  0  0
  8 10  1  0  0  0  0
  8 15  1  0  0  0  0
  9 14  1  6  0  0  0
  9 20  1  0  0  0  0
 10 19  1  6  0  0  0
 12 18  2  0  0  0  0
 13 18  1  6  0  0  0
 13  5  1  0  0  0  0
 13  1  1  0  0  0  0
 15 16  2  0  0  0  0
 20 11  2  6  0  0  0
 20  2  1  0  0  0  0
 20 19  1  0  0  0  0
 21  9  1  0  0  0  0
 22 18  1  0  0  0  0
 22  7  1  0  0  0  0
 23 27  1  0  0  0  0
 24 29  1  0  0  0  0
 25 28  1  6  0  0  0
 25 23  1  0  0  0  0
 26 24  1  0  0  0  0
 26 25  1  0  0  0  0
 29 30  1  1  0  0  0
 29 27  1  0  0  0  0
 30 31  1  0  0  0  0
M  END
>  <MODEL>
6

>  <REMARK>
 VINA RESULT:      -3.5     10.537     13.408
  Name = 
  2 active torsions:
  status: ('A' for Active; 'I' for Inactive)
    1  A    between atoms: C_7  and  C_16
    2  A    between atoms: C_13  and  C_24
                            x       y       z     vdW  Elec       q    Type
                         _______ _______ _______ _____ _____    ______ ____

>  <TORSDO>
F 2

$$$$
=
 OpenBabel11072412133D

 31 35  0  0  1  0  0  0  0  0999 V2000
  159.6980  212.9440  151.6290 C   0  0  2  0  0  3  0  0  0  0  0  0
  160.5870  206.2380  153.5170 O   0  0  0  0  0  1  0  0  0  0  0  0
  161.9950  209.9080  150.9240 C   0  0  2  0  0  3  0  0  0  0  0  0
  162.8970  209.6730  151.9870 O   0  0  0  0  0  0  0  0  0  0  0  0
  160.8280  210.7420  151.4290 C   0  0  1  0  0  3  0  0  0  0  0  0
  159.6010  212.8100  153.1720 C   0  0  2  0  0  3  0  0  0  0  0  0
  159.3550  214.4520  149.7050 C   0  0  0  0  0  2  0  0  0  0  0  0
  161.0040  210.6930  152.8560 N   0  0  0  0  0  0  0  0  0  0  0  0
  160.5770  207.7990  151.2840 C   0  0  1  0  0  3  0  0  0  0  0  0
  162.1900  209.9280  153.1810 C   0  0  1  0  0  3  0  0  0  0  0  0
  162.9000  206.4920  152.3320 O   0  0  0  0  0  0  0  0  0  0  0  0
  161.4240  211.6010  148.7020 O   0  0  0  0  0  0  0  0  0  0  0  0
  160.8790  212.2040  150.9750 C   0  0  1  0  0  3  0  0  0  0  0  0
  160.0750  206.7030  150.6100 F   0  0  0  0  0  0  0  0  0  0  0  0
  160.4980  211.7180  153.7210 C   0  0  0  0  0  0  0  0  0  0  0  0
  160.8330  211.7400  154.9350 O   0  0  0  0  0  0  0  0  0  0  0  0
  159.6970  214.4010  151.1890 C   0  0  0  0  0  2  0  0  0  0  0  0
  160.8350  212.4020  149.4750 C   0  0  0  0  0  0  0  0  0  0  0  0
  161.8170  208.6330  153.9070 C   0  0  0  0  0  2  0  0  0  0  0  0
  161.4500  207.2380  152.7830 P   0  0  2  0  0  0  0  0  0  0  0  0
  161.5070  208.5770  150.3470 C   0  0  0  0  0  2  0  0  0  0  0  0
  160.2430  213.5870  148.9310 N   0  0  0  0  0  2  0  0  0  0  0  0
  157.8820  211.2380  154.1600 C   0  0  0  0  0  2  0  0  0  0  0  0
  156.5080  213.4040  155.4730 C   0  0  0  0  0  2  0  0  0  0  0  0
  158.1310  212.6700  153.6500 C   0  0  1  0  0  0  0  0  0  0  0  0
  157.8640  213.6430  154.8120 C   0  0  0  0  0  2  0  0  0  0  0  0
  156.5260  211.0830  154.6890 N   0  0  0  0  0  2  0  0  0  0  0  0
  157.1750  212.9790  152.4980 C   0  0  0  0  0  1  0  0  0  0  0  0
  156.3880  211.9350  155.8680 C   0  0  2  0  0  3  0  0  0  0  0  0
  155.0590  211.6670  156.5630 C   0  0  0  0  0  2  0  0  0  0  0  0
  154.5850  212.8530  157.2600 N   0  0  0  0  0  1  0  0  0  0  0  0
  1 17  1  1  0  0  0
  1  6  1  0  0  0  0
  3 21  1  1  0  0  0
  3  5  1  0  0  0  0
  3  4  1  0  0  0  0
  4 10  1  0  0  0  0
  5  8  1  1  0  0  0
  6 25  1  0  0  0  0
  6 15  1  6  0  0  0
  7 17  1  0  0  0  0
  8 10  1  0  0  0  0
  8 15  1  0  0  0  0
  9 14  1  6  0  0  0
  9 20  1  0  0  0  0
 10 19  1  6  0  0  0
 12 18  2  0  0  0  0
 13 18  1  6  0  0  0
 13  5  1  0  0  0  0
 13  1  1  0  0  0  0
 15 16  2  0  0  0  0
 20 11  2  6  0  0  0
 20  2  1  0  0  0  0
 20 19  1  0  0  0  0
 21  9  1  0  0  0  0
 22 18  1  0  0  0  0
 22  7  1  0  0  0  0
 23 27  1  0  0  0  0
 24 29  1  0  0  0  0
 25 28  1  6  0  0  0
 25 23  1  0  0  0  0
 25 26  1  0  0  0  0
 26 24  1  0  0  0  0
 27 29  1  0  0  0  0
 29 30  1  6  0  0  0
 30 31  1  0  0  0  0
M  END
>  <MODEL>
7

>  <REMARK>
 VINA RESULT:      -3.3     10.829     13.765
  Name = 
  2 active torsions:
  status: ('A' for Active; 'I' for Inactive)
    1  A    between atoms: C_7  and  C_16
    2  A    between atoms: C_13  and  C_24
                            x       y       z     vdW  Elec       q    Type
                         _______ _______ _______ _____ _____    ______ ____

>  <TORSDO>
F 2

$$$$
=
 OpenBabel11072412133D

 31 35  0  0  1  0  0  0  0  0999 V2000
  160.5270  212.2270  151.0310 C   0  0  2  0  0  3  0  0  0  0  0  0
  160.1770  205.4080  152.6740 O   0  0  0  0  0  1  0  0  0  0  0  0
  162.2350  208.8530  150.2100 C   0  0  2  0  0  3  0  0  0  0  0  0
  163.0770  208.4190  151.2610 O   0  0  0  0  0  0  0  0  0  0  0  0
  161.2380  209.8660  150.7490 C   0  0  1  0  0  3  0  0  0  0  0  0
  160.4020  212.0580  152.5690 C   0  0  2  0  0  3  0  0  0  0  0  0
  160.4690  213.8410  149.1640 C   0  0  0  0  0  2  0  0  0  0  0  0
  161.3980  209.7340  152.1730 N   0  0  0  0  0  0  0  0  0  0  0  0
  160.4570  207.0250  150.4990 C   0  0  1  0  0  3  0  0  0  0  0  0
  162.4240  208.7550  152.4650 C   0  0  1  0  0  3  0  0  0  0  0  0
  162.5010  205.2800  151.4910 O   0  0  0  0  0  0  0  0  0  0  0  0
  161.9880  210.6990  148.0520 O   0  0  0  0  0  0  0  0  0  0  0  0
  161.5550  211.3090  150.3470 C   0  0  1  0  0  3  0  0  0  0  0  0
  159.7670  206.0620  149.7870 F   0  0  0  0  0  0  0  0  0  0  0  0
  161.0830  210.8030  153.0750 C   0  0  0  0  0  0  0  0  0  0  0  0
  161.4140  210.7200  154.2880 O   0  0  0  0  0  0  0  0  0  0  0  0
  160.7920  213.6750  150.6440 C   0  0  0  0  0  2  0  0  0  0  0  0
  161.5520  211.5660  148.8560 C   0  0  0  0  0  0  0  0  0  0  0  0
  161.8200  207.5240  153.1460 C   0  0  0  0  0  2  0  0  0  0  0  0
  161.2090  206.2610  151.9740 P   0  0  2  0  0  0  0  0  0  0  0  0
  161.5160  207.6530  149.5870 C   0  0  0  0  0  2  0  0  0  0  0  0
  161.1870  212.8570  148.3560 N   0  0  0  0  0  2  0  0  0  0  0  0
  158.5790  210.9680  153.9430 C   0  0  0  0  0  2  0  0  0  0  0  0
  157.3810  213.5150  154.5600 C   0  0  0  0  0  2  0  0  0  0  0  0
  158.9290  212.1700  153.0470 C   0  0  1  0  0  0  0  0  0  0  0  0
  158.7450  213.4530  153.8770 C   0  0  0  0  0  2  0  0  0  0  0  0
  157.2190  211.0720  154.4750 N   0  0  0  0  0  2  0  0  0  0  0  0
  157.9900  212.2050  151.8410 C   0  0  0  0  0  1  0  0  0  0  0  0
  157.1540  212.2340  155.3580 C   0  0  2  0  0  3  0  0  0  0  0  0
  155.8140  212.2760  156.0820 C   0  0  0  0  0  2  0  0  0  0  0  0
  155.2050  213.5930  155.9780 N   0  0  0  0  0  1  0  0  0  0  0  0
  1 17  1  1  0  0  0
  1  6  1  0  0  0  0
  3 21  1  1  0  0  0
  3  5  1  0  0  0  0
  3  4  1  0  0  0  0
  4 10  1  0  0  0  0
  5  8  1  1  0  0  0
  6 25  1  0  0  0  0
  6 15  1  6  0  0  0
  7 17  1  0  0  0  0
  8 10  1  0  0  0  0
  8 15  1  0  0  0  0
  9 14  1  6  0  0  0
  9 20  1  0  0  0  0
 10 19  1  6  0  0  0
 12 18  2  0  0  0  0
 13 18  1  6  0  0  0
 13  5  1  0  0  0  0
 13  1  1  0  0  0  0
 15 16  2  0  0  0  0
 20 11  2  6  0  0  0
 20  2  1  0  0  0  0
 20 19  1  0  0  0  0
 21  9  1  0  0  0  0
 22 18  1  0  0  0  0
 22  7  1  0  0  0  0
 23 27  1  0  0  0  0
 24 29  1  0  0  0  0
 25 28  1  6  0  0  0
 25 26  1  0  0  0  0
 25 23  1  0  0  0  0
 26 24  1  0  0  0  0
 27 29  1  0  0  0  0
 29 30  1  6  0  0  0
 31 30  1  0  0  0  0
M  END
>  <MODEL>
8

>  <REMARK>
 VINA RESULT:      -1.6     10.381     13.284
  Name = 
  2 active torsions:
  status: ('A' for Active; 'I' for Inactive)
    1  A    between atoms: C_7  and  C_16
    2  A    between atoms: C_13  and  C_24
                            x       y       z     vdW  Elec       q    Type
                         _______ _______ _______ _____ _____    ______ ____

>  <TORSDO>
F 2

$$$$
=
 OpenBabel11072412133D

 31 35  0  0  1  0  0  0  0  0999 V2000
  161.5190  208.1260  150.7930 C   0  0  2  0  0  3  0  0  0  0  0  0
  159.9940  212.6950  145.6820 O   0  0  0  0  0  0  0  0  0  0  0  0
  161.2490  211.9340  150.1570 C   0  0  2  0  0  3  0  0  0  0  0  0
  162.3440  212.4220  149.4080 O   0  0  0  0  0  0  0  0  0  0  0  0
  161.1320  210.4320  149.9580 C   0  0  1  0  0  3  0  0  0  0  0  0
  162.2500  207.7210  149.4850 C   0  0  2  0  0  3  0  0  0  0  0  0
  160.9280  207.4130  153.0820 C   0  0  0  0  0  2  0  0  0  0  0  0
  162.0250  210.1920  148.8560 N   0  0  0  0  0  0  0  0  0  0  0  0
  159.4830  212.2630  148.3240 C   0  0  1  0  0  3  0  0  0  0  0  0
  162.6500  211.4330  148.4490 C   0  0  1  0  0  3  0  0  0  0  0  0
  161.0290  214.4520  147.3130 O   0  0  0  0  0  1  0  0  0  0  0  0
  160.4240  211.0230  152.7300 O   0  0  0  0  0  0  0  0  0  0  0  0
  161.6070  209.6160  151.1650 C   0  0  1  0  0  3  0  0  0  0  0  0
  158.2450  212.8340  148.1010 F   0  0  0  0  0  0  0  0  0  0  0  0
  162.6480  208.9190  148.6450 C   0  0  0  0  0  0  0  0  0  0  0  0
  163.5650  208.8010  147.7880 O   0  0  0  0  0  0  0  0  0  0  0  0
  161.9650  207.2730  151.9730 C   0  0  0  0  0  2  0  0  0  0  0  0
  160.8340  209.8680  152.4420 C   0  0  0  0  0  0  0  0  0  0  0  0
  162.1860  211.8390  147.0480 C   0  0  0  0  0  2  0  0  0  0  0  0
  160.6470  212.8270  147.0390 P   0  0  2  0  0  0  0  0  0  0  0  0
  159.9630  212.6450  149.7270 C   0  0  0  0  0  2  0  0  0  0  0  0
  160.6900  208.8180  153.4050 N   0  0  0  0  0  2  0  0  0  0  0  0
  161.5570  206.9710  147.1700 C   0  0  0  0  0  2  0  0  0  0  0  0
  161.4370  204.2120  147.9900 C   0  0  0  0  0  2  0  0  0  0  0  0
  161.4490  206.6660  148.6760 C   0  0  1  0  0  0  0  0  0  0  0  0
  162.0340  205.2640  148.9210 C   0  0  0  0  0  2  0  0  0  0  0  0
  160.8750  205.9570  146.3650 N   0  0  0  0  0  2  0  0  0  0  0  0
  159.9800  206.6860  149.1000 C   0  0  0  0  0  1  0  0  0  0  0  0
  161.5650  204.6820  146.5440 C   0  0  2  0  0  3  0  0  0  0  0  0
  161.0090  203.6380  145.5830 C   0  0  0  0  0  2  0  0  0  0  0  0
  160.2030  204.2610  144.5450 N   0  0  0  0  0  1  0  0  0  0  0  0
  1 13  1  0  0  0  0
  1 17  1  1  0  0  0
  3 21  1  6  0  0  0
  4  3  1  0  0  0  0
  5  8  1  6  0  0  0
  5  3  1  0  0  0  0
  5 13  1  0  0  0  0
  6 15  1  6  0  0  0
  6  1  1  0  0  0  0
  7 22  1  0  0  0  0
  9 14  1  6  0  0  0
  9 21  1  0  0  0  0
 10 19  1  6  0  0  0
 10  8  1  0  0  0  0
 10  4  1  0  0  0  0
 13 18  1  1  0  0  0
 15  8  1  0  0  0  0
 16 15  2  0  0  0  0
 17  7  1  0  0  0  0
 18 12  2  0  0  0  0
 18 22  1  0  0  0  0
 20  2  2  6  0  0  0
 20 19  1  0  0  0  0
 20 11  1  0  0  0  0
 20  9  1  0  0  0  0
 23 25  1  0  0  0  0
 24 26  1  0  0  0  0
 25 26  1  0  0  0  0
 25 28  1  1  0  0  0
 25  6  1  0  0  0  0
 27 29  1  0  0  0  0
 27 23  1  0  0  0  0
 29 30  1  6  0  0  0
 29 24  1  0  0  0  0
 31 30  1  0  0  0  0
M  END
>  <MODEL>
9

>  <REMARK>
 VINA RESULT:      -1.5      8.286     10.848
  Name = 
  2 active torsions:
  status: ('A' for Active; 'I' for Inactive)
    1  A    between atoms: C_7  and  C_16
    2  A    between atoms: C_13  and  C_24
                            x       y       z     vdW  Elec       q    Type
                         _______ _______ _______ _____ _____    ______ ____

>  <TORSDO>
F 2

$$$$
