=
 OpenBabel11072414213D

 62 67  0  0  1  0  0  0  0  0999 V2000
  159.1160  214.0290  151.7750 F   0  0  0  0  0  0  0  0  0  0  0  0
  159.4280  211.9500  153.6110 N   0  0  0  0  0  1  0  0  0  0  0  0
  160.7460  210.6930  152.0130 C   0  0  0  0  0  2  0  0  0  0  0  0
  160.8250  214.0920  149.6840 O   0  0  0  0  0  0  0  0  0  0  0  0
  161.0480  210.5170  150.5280 C   0  0  1  0  0  3  0  0  0  0  0  0
  159.6160  211.6950  152.1930 C   0  0  2  0  0  3  0  0  0  0  0  0
  159.8860  212.9540  151.4930 N   0  0  0  0  0  0  0  0  0  0  0  0
  160.7340  213.0120  150.3340 C   0  0  0  0  0  0  0  0  0  0  0  0
  161.5910  211.8300  149.9490 C   0  0  2  0  0  3  0  0  0  0  0  0
  163.1260  209.2740  151.2880 C   0  0  0  0  0  1  0  0  0  0  0  0
  161.9930  209.3250  150.2670 C   0  0  1  0  0  3  0  0  0  0  0  0
  161.6680  208.3060  147.3900 O   0  0  0  0  0  0  0  0  0  0  0  0
  161.7060  207.1450  147.8860 C   0  0  0  0  0  0  0  0  0  0  0  0
  161.2440  208.0130  150.1880 C   0  0  0  0  0  0  0  0  0  0  0  0
  160.2280  207.8210  150.9100 O   0  0  0  0  0  0  0  0  0  0  0  0
  161.6790  206.9640  149.3120 N   0  0  0  0  0  0  0  0  0  0  0  0
  162.9900  205.4300  146.8170 O   0  0  0  0  0  1  0  0  0  0  0  0
  161.7050  205.9520  146.9780 C   0  0  2  0  0  3  0  0  0  0  0  0
  159.6540  206.2230  145.7860 O   0  0  0  0  0  1  0  0  0  0  0  0
  161.0390  206.2710  145.6360 C   0  0  2  0  0  3  0  0  0  0  0  0
  161.2830  205.6330  143.3610 O   0  0  0  0  0  0  0  0  0  0  0  0
  161.4570  205.3420  144.5340 C   0  0  0  0  0  3  0  0  0  0  0  0
  161.9920  205.6600  149.8940 C   0  0  0  0  0  2  0  0  0  0  0  0
  160.8240  202.5950  150.2050 C   0  0  2  0  0  0  0  0  0  0  0  0
  160.6990  204.9320  150.2690 C   0  0  1  0  0  3  0  0  0  0  0  0
  159.8240  201.4650  150.1190 C   0  0  0  0  0  2  0  0  0  0  0  0
  160.5090  203.7820  149.3170 C   0  0  0  0  0  2  0  0  0  0  0  0
  161.2680  201.2380  149.6860 C   0  0  1  0  0  3  0  0  0  0  0  0
  161.1730  202.9220  151.5160 O   0  0  0  0  0  0  0  0  0  0  0  0
  160.7390  204.2520  151.6500 C   0  0  1  0  0  3  0  0  0  0  0  0
  161.1810  206.3350  152.7370 F   0  0  0  0  0  0  0  0  0  0  0  0
  161.4740  204.9840  152.7750 C   0  0  0  0  0  0  0  0  0  0  0  0
  161.0530  204.4740  153.9910 F   0  0  0  0  0  0  0  0  0  0  0  0
  162.8390  204.7990  152.6620 F   0  0  0  0  0  0  0  0  0  0  0  0
  161.3440  201.2000  148.1690 C   0  0  0  0  0  2  0  0  0  0  0  0
  161.7240  199.9250  147.7530 O   0  0  0  0  0  1  0  0  0  0  0  0
  161.8400  211.7630  148.4400 C   0  0  0  0  0  2  0  0  0  0  0  0
  160.5540  211.8250  147.6190 C   0  0  0  0  0  2  0  0  0  0  0  0
  158.7990  214.4030  147.4510 O   0  0  0  0  0  0  0  0  0  0  0  0
  161.8170  213.3860  146.1270 C   0  0  2  0  0  3  0  0  0  0  0  0
  161.6480  214.2600  144.8760 C   0  0  0  0  0  2  0  0  0  0  0  0
  160.5580  213.0170  146.7790 N   0  0  0  0  0  0  0  0  0  0  0  0
  158.5840  213.4720  145.2640 C   0  0  0  0  0  2  0  0  0  0  0  0
  160.6870  213.6950  143.8290 C   0  0  2  0  0  3  0  0  0  0  0  0
  159.3220  213.7030  146.5430 C   0  0  0  0  0  0  0  0  0  0  0  0
  159.2560  214.1700  144.0860 C   0  0  0  0  0  2  0  0  0  0  0  0
  162.7160  214.1070  147.1140 C   0  0  0  0  0  1  0  0  0  0  0  0
  160.7700  212.2950  143.7530 O   0  0  0  0  0  0  0  0  0  0  0  0
  161.6460  213.2790  141.7790 C   0  0  0  0  0  2  0  0  0  0  0  0
  160.7480  212.1170  141.3870 C   0  0  2  0  0  3  0  0  0  0  0  0
  161.5860  212.0390  142.6520 C   0  0  2  0  0  3  0  0  0  0  0  0
  159.4230  210.3870  139.2830 O   0  0  0  0  0  0  0  0  0  0  0  0
  162.7270  211.4720  140.0410 C   0  0  0  0  0  1  0  0  0  0  0  0
  160.6090  210.1920  139.6670 C   0  0  0  0  0  0  0  0  0  0  0  0
  161.3200  211.2520  140.3460 N   0  0  0  0  0  0  0  0  0  0  0  0
  161.2560  208.8800  139.4060 C   0  0  0  0  0  0  0  0  0  0  0  0
  161.4070  208.3770  138.1010 C   0  0  0  0  0  0  0  0  0  0  0  0
  161.6940  208.1300  140.4540 N   0  0  0  0  0  0  0  0  0  0  0  0
  162.4320  206.4250  139.0100 N   0  0  0  0  0  0  0  0  0  0  0  0
  160.9970  209.0730  137.0110 F   0  0  0  0  0  0  0  0  0  0  0  0
  162.0080  207.1300  137.9290 C   0  0  0  0  0  3  0  0  0  0  0  0
  162.2800  206.9200  140.2670 C   0  0  0  0  0  3  0  0  0  0  0  0
  3  6  1  0  0  0  0
  4  8  2  0  0  0  0
  5 11  1  1  0  0  0
  5  3  1  0  0  0  0
  6  2  1  1  0  0  0
  7  1  1  0  0  0  0
  7  6  1  0  0  0  0
  8  7  1  0  0  0  0
  9 37  1  6  0  0  0
  9  8  1  0  0  0  0
  9  5  1  0  0  0  0
 11 10  1  1  0  0  0
 12 13  2  0  0  0  0
 13 16  1  0  0  0  0
 14 11  1  0  0  0  0
 14 15  2  0  0  0  0
 16 23  1  0  0  0  0
 16 14  1  0  0  0  0
 18 17  1  6  0  0  0
 18 13  1  0  0  0  0
 20 19  1  1  0  0  0
 20 18  1  0  0  0  0
 21 22  2  0  0  0  0
 22 20  1  0  0  0  0
 24 27  1  6  0  0  0
 24 29  1  0  0  0  0
 25 23  1  6  0  0  0
 25 30  1  0  0  0  0
 26 24  1  0  0  0  0
 27 25  1  0  0  0  0
 28 35  1  6  0  0  0
 28 26  1  0  0  0  0
 28 24  1  0  0  0  0
 29 30  1  0  0  0  0
 30 32  1  1  0  0  0
 31 32  1  0  0  0  0
 32 33  1  0  0  0  0
 34 32  1  0  0  0  0
 36 35  1  0  0  0  0
 38 37  1  0  0  0  0
 40 42  1  0  0  0  0
 40 47  1  1  0  0  0
 41 40  1  0  0  0  0
 42 38  1  0  0  0  0
 43 45  1  0  0  0  0
 44 48  1  1  0  0  0
 44 46  1  0  0  0  0
 44 41  1  0  0  0  0
 45 42  1  0  0  0  0
 45 39  2  0  0  0  0
 46 43  1  0  0  0  0
 49 51  1  0  0  0  0
 50 55  1  6  0  0  0
 50 49  1  0  0  0  0
 50 51  1  0  0  0  0
 51 48  1  1  0  0  0
 52 54  2  0  0  0  0
 53 55  1  0  0  0  0
 54 55  1  0  0  0  0
 56 54  1  0  0  0  0
 56 58  1  0  0  0  0
 57 56  2  0  0  0  0
 59 62  1  0  0  0  0
 60 57  1  0  0  0  0
 61 57  1  0  0  0  0
 61 59  2  0  0  0  0
 62 58  2  0  0  0  0
M  END
>  <MODEL>
1

>  <REMARK>
 VINA RESULT:      -6.2      0.000      0.000
  Name = 
  16 active torsions:
  status: ('A' for Active; 'I' for Inactive)
    1  A    between atoms: C_1  and  C_48
    2  A    between atoms: C_1  and  C_62
    3  A    between atoms: C_6  and  C_44
    4  A    between atoms: C_8  and  C_41
    5  A    between atoms: C_11  and  C_15
    6  A    between atoms: C_15  and  C_59
    7  A    between atoms: C_16  and  C_59
    8  A    between atoms: C_17  and  C_35
    9  A    between atoms: C_18  and  C_24
   10  A    between atoms: C_18  and  N_57
   11  A    between atoms: C_19  and  N_56
   12  A    between atoms: N_20  and  C_48
   13  A    between atoms: C_23  and  O_52
   14  A    between atoms: C_32  and  O_52
   15  A    between atoms: C_35  and  C_38
   16  A    between atoms: C_39  and  C_51
                            x       y       z     vdW  Elec       q    Type
                         _______ _______ _______ _____ _____    ______ ____

>  <TORSDO>
F 16

$$$$
=
 OpenBabel11072414213D

 62 67  0  0  1  0  0  0  0  0999 V2000
  160.3940  211.0540  153.3870 F   0  0  0  0  0  0  0  0  0  0  0  0
  161.2690  208.4600  153.9260 N   0  0  0  0  0  1  0  0  0  0  0  0
  161.7160  208.0860  151.5750 C   0  0  0  0  0  2  0  0  0  0  0  0
  161.0960  212.1200  151.0060 O   0  0  0  0  0  0  0  0  0  0  0  0
  161.3680  208.5490  150.1620 C   0  0  1  0  0  3  0  0  0  0  0  0
  160.8400  208.8110  152.5840 C   0  0  2  0  0  3  0  0  0  0  0  0
  160.8960  210.2660  152.4100 N   0  0  0  0  0  0  0  0  0  0  0  0
  161.1960  210.8680  151.1400 C   0  0  0  0  0  0  0  0  0  0  0  0
  161.7260  210.0320  150.0000 C   0  0  2  0  0  3  0  0  0  0  0  0
  163.1780  206.8410  149.6610 C   0  0  0  0  0  1  0  0  0  0  0  0
  162.0280  207.6630  149.0850 C   0  0  1  0  0  3  0  0  0  0  0  0
  163.0900  206.5460  146.4310 O   0  0  0  0  0  0  0  0  0  0  0  0
  162.3490  205.5470  146.6520 C   0  0  0  0  0  0  0  0  0  0  0  0
  161.0190  206.7960  148.3660 C   0  0  0  0  0  0  0  0  0  0  0  0
  159.8070  207.1420  148.3200 O   0  0  0  0  0  0  0  0  0  0  0  0
  161.4120  205.5660  147.7420 N   0  0  0  0  0  0  0  0  0  0  0  0
  163.7020  204.1150  145.2900 O   0  0  0  0  0  1  0  0  0  0  0  0
  162.3990  204.3700  145.7250 C   0  0  2  0  0  3  0  0  0  0  0  0
  161.4340  205.8640  144.1330 O   0  0  0  0  0  1  0  0  0  0  0  0
  161.4230  204.5360  144.5560 C   0  0  2  0  0  3  0  0  0  0  0  0
  159.2070  203.8690  144.0230 O   0  0  0  0  0  0  0  0  0  0  0  0
  160.0200  204.1290  144.8970 C   0  0  0  0  0  3  0  0  0  0  0  0
  160.7530  204.3320  148.1660 C   0  0  0  0  0  2  0  0  0  0  0  0
  161.2750  203.1270  151.1870 C   0  0  2  0  0  0  0  0  0  0  0  0
  161.7450  203.4410  148.9150 C   0  0  1  0  0  3  0  0  0  0  0  0
  162.0630  202.6880  152.3990 C   0  0  0  0  0  2  0  0  0  0  0  0
  162.0210  204.0620  150.2580 C   0  0  0  0  0  2  0  0  0  0  0  0
  160.7920  203.5120  152.5760 C   0  0  1  0  0  3  0  0  0  0  0  0
  160.6130  202.0750  150.5510 O   0  0  0  0  0  0  0  0  0  0  0  0
  161.1950  202.0480  149.2710 C   0  0  1  0  0  3  0  0  0  0  0  0
  160.1500  202.1630  147.1240 F   0  0  0  0  0  0  0  0  0  0  0  0
  160.2880  201.3640  148.2450 C   0  0  0  0  0  0  0  0  0  0  0  0
  160.8640  200.1650  147.8660 F   0  0  0  0  0  0  0  0  0  0  0  0
  159.0440  201.1100  148.7930 F   0  0  0  0  0  0  0  0  0  0  0  0
  161.1600  204.9410  152.9340 C   0  0  0  0  0  2  0  0  0  0  0  0
  160.4790  205.3210  154.0910 O   0  0  0  0  0  1  0  0  0  0  0  0
  161.3290  210.5980  148.6340 C   0  0  0  0  0  2  0  0  0  0  0  0
  162.4010  211.4970  148.0240 C   0  0  0  0  0  2  0  0  0  0  0  0
  159.9000  213.2440  148.6930 O   0  0  0  0  0  0  0  0  0  0  0  0
  162.6250  213.5410  146.5980 C   0  0  2  0  0  3  0  0  0  0  0  0
  161.8490  214.3960  145.5880 C   0  0  0  0  0  2  0  0  0  0  0  0
  161.7820  212.6750  147.4270 N   0  0  0  0  0  0  0  0  0  0  0  0
  159.4470  212.4970  146.4720 C   0  0  0  0  0  2  0  0  0  0  0  0
  160.8970  213.6100  144.6850 C   0  0  2  0  0  3  0  0  0  0  0  0
  160.3710  212.8720  147.5850 C   0  0  0  0  0  0  0  0  0  0  0  0
  159.5100  213.4960  145.3200 C   0  0  0  0  0  2  0  0  0  0  0  0
  163.4530  214.4530  147.4850 C   0  0  0  0  0  1  0  0  0  0  0  0
  161.4250  212.3540  144.3460 O   0  0  0  0  0  0  0  0  0  0  0  0
  160.7440  213.3390  142.2970 C   0  0  0  0  0  2  0  0  0  0  0  0
  160.6490  211.8280  142.1660 C   0  0  2  0  0  3  0  0  0  0  0  0
  161.7590  212.4530  142.9960 C   0  0  2  0  0  3  0  0  0  0  0  0
  159.2860  211.0750  139.5680 O   0  0  0  0  0  0  0  0  0  0  0  0
  162.6300  211.4590  140.7230 C   0  0  0  0  0  1  0  0  0  0  0  0
  160.4220  210.6280  139.8870 C   0  0  0  0  0  0  0  0  0  0  0  0
  161.1940  211.3080  140.9030 N   0  0  0  0  0  0  0  0  0  0  0  0
  160.9510  209.4180  139.2050 C   0  0  0  0  0  0  0  0  0  0  0  0
  160.8600  209.2580  137.8100 C   0  0  0  0  0  0  0  0  0  0  0  0
  161.5160  208.4270  139.9450 N   0  0  0  0  0  0  0  0  0  0  0  0
  161.9200  207.1320  138.0220 N   0  0  0  0  0  0  0  0  0  0  0  0
  160.3130  210.2080  137.0110 F   0  0  0  0  0  0  0  0  0  0  0  0
  161.3610  208.0890  137.2370 C   0  0  0  0  0  3  0  0  0  0  0  0
  162.0010  207.2970  139.3690 C   0  0  0  0  0  3  0  0  0  0  0  0
  3  6  1  0  0  0  0
  4  8  2  0  0  0  0
  5 11  1  6  0  0  0
  5  3  1  0  0  0  0
  6  2  1  1  0  0  0
  7  6  1  0  0  0  0
  7  1  1  0  0  0  0
  8  7  1  0  0  0  0
  9 37  1  6  0  0  0
  9  5  1  0  0  0  0
  9  8  1  0  0  0  0
 11 10  1  1  0  0  0
 12 13  2  0  0  0  0
 13 16  1  0  0  0  0
 14 11  1  0  0  0  0
 15 14  2  0  0  0  0
 16 23  1  0  0  0  0
 16 14  1  0  0  0  0
 18 17  1  6  0  0  0
 18 13  1  0  0  0  0
 20 19  1  1  0  0  0
 20 22  1  0  0  0  0
 20 18  1  0  0  0  0
 21 22  2  0  0  0  0
 24 27  1  6  0  0  0
 24 26  1  0  0  0  0
 24 28  1  0  0  0  0
 25 23  1  1  0  0  0
 25 30  1  0  0  0  0
 25 27  1  0  0  0  0
 26 28  1  0  0  0  0
 28 35  1  6  0  0  0
 29 24  1  0  0  0  0
 30 32  1  6  0  0  0
 30 29  1  0  0  0  0
 31 32  1  0  0  0  0
 32 34  1  0  0  0  0
 33 32  1  0  0  0  0
 35 36  1  0  0  0  0
 38 37  1  0  0  0  0
 40 42  1  0  0  0  0
 40 47  1  1  0  0  0
 41 40  1  0  0  0  0
 42 45  1  0  0  0  0
 42 38  1  0  0  0  0
 43 45  1  0  0  0  0
 44 48  1  1  0  0  0
 44 46  1  0  0  0  0
 44 41  1  0  0  0  0
 45 39  2  0  0  0  0
 46 43  1  0  0  0  0
 49 51  1  0  0  0  0
 50 55  1  6  0  0  0
 50 49  1  0  0  0  0
 50 51  1  0  0  0  0
 51 48  1  1  0  0  0
 52 54  2  0  0  0  0
 53 55  1  0  0  0  0
 54 55  1  0  0  0  0
 56 54  1  0  0  0  0
 56 58  1  0  0  0  0
 57 56  2  0  0  0  0
 59 62  1  0  0  0  0
 60 57  1  0  0  0  0
 61 57  1  0  0  0  0
 61 59  2  0  0  0  0
 62 58  2  0  0  0  0
M  END
>  <MODEL>
2

>  <REMARK>
 VINA RESULT:      -3.9      2.117      2.914
  Name = 
  16 active torsions:
  status: ('A' for Active; 'I' for Inactive)
    1  A    between atoms: C_1  and  C_48
    2  A    between atoms: C_1  and  C_62
    3  A    between atoms: C_6  and  C_44
    4  A    between atoms: C_8  and  C_41
    5  A    between atoms: C_11  and  C_15
    6  A    between atoms: C_15  and  C_59
    7  A    between atoms: C_16  and  C_59
    8  A    between atoms: C_17  and  C_35
    9  A    between atoms: C_18  and  C_24
   10  A    between atoms: C_18  and  N_57
   11  A    between atoms: C_19  and  N_56
   12  A    between atoms: N_20  and  C_48
   13  A    between atoms: C_23  and  O_52
   14  A    between atoms: C_32  and  O_52
   15  A    between atoms: C_35  and  C_38
   16  A    between atoms: C_39  and  C_51
                            x       y       z     vdW  Elec       q    Type
                         _______ _______ _______ _____ _____    ______ ____

>  <TORSDO>
F 16

$$$$
