=
 OpenBabel11072413503D

 29 31  0  0  1  0  0  0  0  0999 V2000
  160.6930  203.1700  151.1110 N   0  0  0  0  0  0  0  0  0  0  0  0
  161.4440  205.2550  153.9530 F   0  0  0  0  0  0  0  0  0  0  0  0
  161.1790  204.8910  152.6720 C   0  0  0  0  0  0  0  0  0  0  0  0
  160.6770  204.0550  150.1140 N   0  0  0  0  0  0  0  0  0  0  0  0
  160.9120  205.3780  150.3230 C   0  0  0  0  0  0  0  0  0  0  0  0
  160.9390  203.5510  152.3880 C   0  0  0  0  0  3  0  0  0  0  0  0
  161.1730  205.8350  151.6320 C   0  0  0  0  0  0  0  0  0  0  0  0
  160.2780  211.4790  152.6840 C   0  0  0  0  0  1  0  0  0  0  0  0
  162.5510  207.9700  151.1910 C   0  0  0  0  0  2  0  0  0  0  0  0
  162.0520  209.1810  150.4110 C   0  0  0  0  0  2  0  0  0  0  0  0
  161.4390  207.2660  151.9220 C   0  0  0  0  0  0  0  0  0  0  0  0
  160.9390  209.3180  153.2540 C   0  0  0  0  0  2  0  0  0  0  0  0
  161.8230  210.3690  151.3380 C   0  0  0  0  0  2  0  0  0  0  0  0
  160.7310  207.8840  152.8770 C   0  0  0  0  0  3  0  0  0  0  0  0
  160.6110  210.1810  152.1270 N   0  0  0  0  0  0  0  0  0  0  0  0
  160.8350  206.3250  149.1610 C   0  0  2  0  0  3  0  0  0  0  0  0
  159.5290  206.3880  148.6680 O   0  0  0  0  0  1  0  0  0  0  0  0
  163.0410  206.3350  148.2570 O   0  0  0  0  0  0  0  0  0  0  0  0
  161.8400  205.9970  148.0850 C   0  0  0  0  0  0  0  0  0  0  0  0
  160.9560  203.5510  145.3080 C   0  0  0  0  0  3  0  0  0  0  0  0
  161.4440  205.4210  146.7850 C   0  0  0  0  0  0  0  0  0  0  0  0
  161.1980  206.3000  145.7210 C   0  0  0  0  0  3  0  0  0  0  0  0
  161.3270  204.0280  146.5700 C   0  0  0  0  0  0  0  0  0  0  0  0
  160.6960  204.4380  144.2620 C   0  0  0  0  0  3  0  0  0  0  0  0
  160.8210  205.8130  144.4670 C   0  0  0  0  0  3  0  0  0  0  0  0
  161.6740  203.0300  147.6250 C   0  0  0  0  0  2  0  0  0  0  0  0
  161.1240  200.6340  148.1730 C   0  0  0  0  0  3  0  0  0  0  0  0
  161.5240  200.7770  149.3580 O   0  0  0  0  0  0  0  0  0  0  0  0
  161.1650  201.7210  147.2480 N   0  0  0  0  0  2  0  0  0  0  0  0
  1  6  1  0  0  0  0
  3  2  1  0  0  0  0
  4  5  1  0  0  0  0
  4  1  2  0  0  0  0
  5  7  2  0  0  0  0
  6  3  2  0  0  0  0
  7 11  1  0  0  0  0
  7  3  1  0  0  0  0
  9 11  1  0  0  0  0
 10  9  1  0  0  0  0
 10 13  1  0  0  0  0
 11 14  2  0  0  0  0
 13 15  1  0  0  0  0
 14 12  1  0  0  0  0
 15  8  1  0  0  0  0
 15 12  1  0  0  0  0
 16 17  1  6  0  0  0
 16  5  1  0  0  0  0
 19 18  2  0  0  0  0
 19 16  1  0  0  0  0
 20 23  1  0  0  0  0
 21 19  1  0  0  0  0
 22 21  1  0  0  0  0
 23 21  2  0  0  0  0
 23 26  1  0  0  0  0
 24 25  1  0  0  0  0
 24 20  2  0  0  0  0
 25 22  2  0  0  0  0
 27 28  2  0  0  0  0
 29 26  1  0  0  0  0
 29 27  1  0  0  0  0
M  END
>  <MODEL>
1

>  <REMARK>
 VINA RESULT:      -7.7      0.000      0.000
  Name = 
  6 active torsions:
  status: ('A' for Active; 'I' for Inactive)
    1  A    between atoms: C_5  and  C_20
    2  A    between atoms: C_5  and  N_23
    3  A    between atoms: C_8  and  C_14
    4  A    between atoms: C_8  and  C_19
    5  A    between atoms: C_12  and  C_19
    6  A    between atoms: C_16  and  C_26
                            x       y       z     vdW  Elec       q    Type
                         _______ _______ _______ _____ _____    ______ ____

>  <TORSDO>
F 6

$$$$
=
 OpenBabel11072413503D

 29 31  0  0  1  0  0  0  0  0999 V2000
  162.2580  209.7750  148.7250 N   0  0  0  0  0  0  0  0  0  0  0  0
  161.3600  211.3140  151.8580 F   0  0  0  0  0  0  0  0  0  0  0  0
  161.6160  210.3500  150.9370 C   0  0  0  0  0  0  0  0  0  0  0  0
  162.1130  208.4790  149.0010 N   0  0  0  0  0  0  0  0  0  0  0  0
  161.7140  208.0450  150.2270 C   0  0  0  0  0  0  0  0  0  0  0  0
  162.0190  210.7260  149.6600 C   0  0  0  0  0  3  0  0  0  0  0  0
  161.4520  208.9890  151.2430 C   0  0  0  0  0  0  0  0  0  0  0  0
  161.2520  208.4720  157.0270 C   0  0  0  0  0  1  0  0  0  0  0  0
  160.6160  207.1430  152.8380 C   0  0  0  0  0  2  0  0  0  0  0  0
  161.4590  206.4870  153.9260 C   0  0  0  0  0  2  0  0  0  0  0  0
  161.0120  208.5760  152.5980 C   0  0  0  0  0  0  0  0  0  0  0  0
  160.4560  209.1840  154.9550 C   0  0  0  0  0  2  0  0  0  0  0  0
  160.9900  206.9160  155.3110 C   0  0  0  0  0  2  0  0  0  0  0  0
  160.9080  209.4990  153.5630 C   0  0  0  0  0  3  0  0  0  0  0  0
  161.4060  208.2840  155.5960 N   0  0  0  0  0  0  0  0  0  0  0  0
  161.6150  206.5690  150.4820 C   0  0  2  0  0  3  0  0  0  0  0  0
  162.8830  206.0260  150.7080 O   0  0  0  0  0  1  0  0  0  0  0  0
  160.0670  206.5020  148.6690 O   0  0  0  0  0  0  0  0  0  0  0  0
  160.8680  205.8470  149.3880 C   0  0  0  0  0  0  0  0  0  0  0  0
  161.5050  202.3730  147.9720 C   0  0  0  0  0  3  0  0  0  0  0  0
  160.9360  204.3820  149.2200 C   0  0  0  0  0  0  0  0  0  0  0  0
  160.4160  203.5760  150.2420 C   0  0  0  0  0  3  0  0  0  0  0  0
  161.4800  203.7690  148.0690 C   0  0  0  0  0  0  0  0  0  0  0  0
  160.9990  201.5820  149.0060 C   0  0  0  0  0  3  0  0  0  0  0  0
  160.4500  202.1840  150.1390 C   0  0  0  0  0  3  0  0  0  0  0  0
  161.9580  204.5630  146.8970 C   0  0  0  0  0  2  0  0  0  0  0  0
  160.7610  204.6280  144.6820 C   0  0  0  0  0  3  0  0  0  0  0  0
  160.4410  205.8340  144.8510 O   0  0  0  0  0  0  0  0  0  0  0  0
  161.5240  203.9270  145.6640 N   0  0  0  0  0  2  0  0  0  0  0  0
  1  4  2  0  0  0  0
  1  6  1  0  0  0  0
  3  7  1  0  0  0  0
  3  2  1  0  0  0  0
  4  5  1  0  0  0  0
  5 16  1  0  0  0  0
  5  7  2  0  0  0  0
  6  3  2  0  0  0  0
  7 11  1  0  0  0  0
  9 10  1  0  0  0  0
 10 13  1  0  0  0  0
 11  9  1  0  0  0  0
 11 14  2  0  0  0  0
 12 15  1  0  0  0  0
 13 15  1  0  0  0  0
 14 12  1  0  0  0  0
 15  8  1  0  0  0  0
 16 17  1  6  0  0  0
 18 19  2  0  0  0  0
 19 16  1  0  0  0  0
 20 23  2  0  0  0  0
 20 24  1  0  0  0  0
 21 19  1  0  0  0  0
 21 22  2  0  0  0  0
 23 21  1  0  0  0  0
 24 25  2  0  0  0  0
 25 22  1  0  0  0  0
 26 23  1  0  0  0  0
 27 28  2  0  0  0  0
 27 29  1  0  0  0  0
 29 26  1  0  0  0  0
M  END
>  <MODEL>
2

>  <REMARK>
 VINA RESULT:      -7.7      2.552      4.451
  Name = 
  6 active torsions:
  status: ('A' for Active; 'I' for Inactive)
    1  A    between atoms: C_5  and  C_20
    2  A    between atoms: C_5  and  N_23
    3  A    between atoms: C_8  and  C_14
    4  A    between atoms: C_8  and  C_19
    5  A    between atoms: C_12  and  C_19
    6  A    between atoms: C_16  and  C_26
                            x       y       z     vdW  Elec       q    Type
                         _______ _______ _______ _____ _____    ______ ____

>  <TORSDO>
F 6

$$$$
=
 OpenBabel11072413503D

 29 31  0  0  1  0  0  0  0  0999 V2000
  160.5530  201.7410  150.7210 N   0  0  0  0  0  0  0  0  0  0  0  0
  160.5390  201.7490  147.1160 F   0  0  0  0  0  0  0  0  0  0  0  0
  160.7230  202.1740  148.3930 C   0  0  0  0  0  0  0  0  0  0  0  0
  161.0210  202.9580  150.9990 N   0  0  0  0  0  0  0  0  0  0  0  0
  161.3540  203.8420  150.0200 C   0  0  0  0  0  0  0  0  0  0  0  0
  160.3940  201.3220  149.4420 C   0  0  0  0  0  3  0  0  0  0  0  0
  161.2100  203.4620  148.6690 C   0  0  0  0  0  0  0  0  0  0  0  0
  161.2850  205.9280  143.4080 C   0  0  0  0  0  1  0  0  0  0  0  0
  162.9950  204.7620  147.3360 C   0  0  0  0  0  2  0  0  0  0  0  0
  163.4800  204.3880  145.9390 C   0  0  0  0  0  2  0  0  0  0  0  0
  161.5540  204.3840  147.5580 C   0  0  0  0  0  0  0  0  0  0  0  0
  160.8180  205.8680  145.6900 C   0  0  0  0  0  2  0  0  0  0  0  0
  162.9890  205.3950  144.9050 C   0  0  0  0  0  2  0  0  0  0  0  0
  160.5720  204.9150  146.8190 C   0  0  0  0  0  3  0  0  0  0  0  0
  161.5700  205.2040  144.6340 N   0  0  0  0  0  0  0  0  0  0  0  0
  161.9150  205.1800  150.4060 C   0  0  2  0  0  3  0  0  0  0  0  0
  162.3980  205.1470  151.7160 O   0  0  0  0  0  1  0  0  0  0  0  0
  159.7310  206.0100  149.9290 O   0  0  0  0  0  0  0  0  0  0  0  0
  160.9310  206.3000  150.1830 C   0  0  0  0  0  0  0  0  0  0  0  0
  161.7880  209.8890  151.1130 C   0  0  0  0  0  3  0  0  0  0  0  0
  161.3480  207.7150  150.1160 C   0  0  0  0  0  0  0  0  0  0  0  0
  161.6930  208.2420  148.8630 C   0  0  0  0  0  3  0  0  0  0  0  0
  161.3900  208.5540  151.2520 C   0  0  0  0  0  0  0  0  0  0  0  0
  162.1460  210.3960  149.8630 C   0  0  0  0  0  3  0  0  0  0  0  0
  162.0940  209.5730  148.7360 C   0  0  0  0  0  3  0  0  0  0  0  0
  160.9390  208.0920  152.5980 C   0  0  0  0  0  2  0  0  0  0  0  0
  160.9560  209.1350  154.8900 C   0  0  0  0  0  3  0  0  0  0  0  0
  161.2840  208.0430  155.4230 O   0  0  0  0  0  0  0  0  0  0  0  0
  160.7680  209.2360  153.4790 N   0  0  0  0  0  2  0  0  0  0  0  0
  1  4  1  0  0  0  0
  2  3  1  0  0  0  0
  3  7  2  0  0  0  0
  3  6  1  0  0  0  0
  5 16  1  0  0  0  0
  5  4  2  0  0  0  0
  6  1  2  0  0  0  0
  7  5  1  0  0  0  0
  8 15  1  0  0  0  0
  9 11  1  0  0  0  0
 10  9  1  0  0  0  0
 11  7  1  0  0  0  0
 12 14  1  0  0  0  0
 13 10  1  0  0  0  0
 14 11  2  0  0  0  0
 15 13  1  0  0  0  0
 15 12  1  0  0  0  0
 16 17  1  1  0  0  0
 18 19  2  0  0  0  0
 19 16  1  0  0  0  0
 20 23  1  0  0  0  0
 21 19  1  0  0  0  0
 21 23  2  0  0  0  0
 22 21  1  0  0  0  0
 23 26  1  0  0  0  0
 24 20  2  0  0  0  0
 25 22  2  0  0  0  0
 25 24  1  0  0  0  0
 26 29  1  0  0  0  0
 27 28  2  0  0  0  0
 29 27  1  0  0  0  0
M  END
>  <MODEL>
3

>  <REMARK>
 VINA RESULT:      -7.3      2.589      6.556
  Name = 
  6 active torsions:
  status: ('A' for Active; 'I' for Inactive)
    1  A    between atoms: C_5  and  C_20
    2  A    between atoms: C_5  and  N_23
    3  A    between atoms: C_8  and  C_14
    4  A    between atoms: C_8  and  C_19
    5  A    between atoms: C_12  and  C_19
    6  A    between atoms: C_16  and  C_26
                            x       y       z     vdW  Elec       q    Type
                         _______ _______ _______ _____ _____    ______ ____

>  <TORSDO>
F 6

$$$$
=
 OpenBabel11072413503D

 29 31  0  0  1  0  0  0  0  0999 V2000
  162.6240  209.4190  157.1850 N   0  0  0  0  0  0  0  0  0  0  0  0
  160.9410  212.5470  156.5730 F   0  0  0  0  0  0  0  0  0  0  0  0
  161.2410  211.2250  156.5050 C   0  0  0  0  0  0  0  0  0  0  0  0
  161.9470  208.5820  156.4000 N   0  0  0  0  0  0  0  0  0  0  0  0
  160.9050  209.0000  155.6310 C   0  0  0  0  0  0  0  0  0  0  0  0
  162.3000  210.7330  157.2600 C   0  0  0  0  0  3  0  0  0  0  0  0
  160.5210  210.3570  155.6670 C   0  0  0  0  0  0  0  0  0  0  0  0
  157.4300  213.7560  152.1100 C   0  0  0  0  0  1  0  0  0  0  0  0
  158.0020  210.8510  155.4170 C   0  0  0  0  0  2  0  0  0  0  0  0
  157.3800  212.2420  155.4710 C   0  0  0  0  0  2  0  0  0  0  0  0
  159.3970  210.8730  154.8480 C   0  0  0  0  0  0  0  0  0  0  0  0
  158.5590  211.8010  152.6870 C   0  0  0  0  0  2  0  0  0  0  0  0
  156.8810  212.6680  154.0950 C   0  0  0  0  0  2  0  0  0  0  0  0
  159.6310  211.2830  153.5950 C   0  0  0  0  0  3  0  0  0  0  0  0
  157.9970  213.0300  153.2310 N   0  0  0  0  0  0  0  0  0  0  0  0
  160.1590  207.9940  154.8030 C   0  0  2  0  0  3  0  0  0  0  0  0
  159.4160  207.1420  155.6240 O   0  0  0  0  0  1  0  0  0  0  0  0
  161.6860  206.2320  154.2980 O   0  0  0  0  0  0  0  0  0  0  0  0
  161.0660  207.2390  153.8630 C   0  0  0  0  0  0  0  0  0  0  0  0
  161.6290  207.3850  150.1030 C   0  0  0  0  0  3  0  0  0  0  0  0
  161.3590  207.7170  152.4970 C   0  0  0  0  0  0  0  0  0  0  0  0
  161.6980  209.0660  152.3280 C   0  0  0  0  0  3  0  0  0  0  0  0
  161.3320  206.8660  151.3680 C   0  0  0  0  0  0  0  0  0  0  0  0
  161.9480  208.7350  149.9470 C   0  0  0  0  0  3  0  0  0  0  0  0
  161.9870  209.5750  151.0600 C   0  0  0  0  0  3  0  0  0  0  0  0
  161.0800  205.3990  151.4860 C   0  0  0  0  0  2  0  0  0  0  0  0
  160.8060  203.4320  149.9370 C   0  0  0  0  0  3  0  0  0  0  0  0
  161.0280  202.6200  150.8730 O   0  0  0  0  0  0  0  0  0  0  0  0
  160.8130  204.8400  150.1690 N   0  0  0  0  0  2  0  0  0  0  0  0
  1  6  1  0  0  0  0
  3  2  1  0  0  0  0
  3  6  2  0  0  0  0
  4  1  2  0  0  0  0
  5  7  2  0  0  0  0
  5  4  1  0  0  0  0
  7  3  1  0  0  0  0
  8 15  1  0  0  0  0
  9 10  1  0  0  0  0
 11  9  1  0  0  0  0
 11  7  1  0  0  0  0
 12 15  1  0  0  0  0
 12 14  1  0  0  0  0
 13 10  1  0  0  0  0
 14 11  2  0  0  0  0
 15 13  1  0  0  0  0
 16 17  1  1  0  0  0
 16  5  1  0  0  0  0
 19 18  2  0  0  0  0
 19 16  1  0  0  0  0
 20 23  1  0  0  0  0
 21 19  1  0  0  0  0
 22 21  1  0  0  0  0
 23 26  1  0  0  0  0
 23 21  2  0  0  0  0
 24 20  2  0  0  0  0
 24 25  1  0  0  0  0
 25 22  2  0  0  0  0
 27 29  1  0  0  0  0
 27 28  2  0  0  0  0
 29 26  1  0  0  0  0
M  END
>  <MODEL>
4

>  <REMARK>
 VINA RESULT:      -7.2      3.486      6.209
  Name = 
  6 active torsions:
  status: ('A' for Active; 'I' for Inactive)
    1  A    between atoms: C_5  and  C_20
    2  A    between atoms: C_5  and  N_23
    3  A    between atoms: C_8  and  C_14
    4  A    between atoms: C_8  and  C_19
    5  A    between atoms: C_12  and  C_19
    6  A    between atoms: C_16  and  C_26
                            x       y       z     vdW  Elec       q    Type
                         _______ _______ _______ _____ _____    ______ ____

>  <TORSDO>
F 6

$$$$
=
 OpenBabel11072413503D

 29 31  0  0  1  0  0  0  0  0999 V2000
  162.5930  209.4710  157.0810 N   0  0  0  0  0  0  0  0  0  0  0  0
  160.8030  212.5660  156.6270 F   0  0  0  0  0  0  0  0  0  0  0  0
  161.1730  211.2700  156.4630 C   0  0  0  0  0  0  0  0  0  0  0  0
  162.0150  208.6800  156.1760 N   0  0  0  0  0  0  0  0  0  0  0  0
  161.0100  209.1220  155.3720 C   0  0  0  0  0  0  0  0  0  0  0  0
  162.2000  210.7570  157.2480 C   0  0  0  0  0  3  0  0  0  0  0  0
  160.5570  210.4530  155.5000 C   0  0  0  0  0  0  0  0  0  0  0  0
  157.6290  213.9390  151.8900 C   0  0  0  0  0  1  0  0  0  0  0  0
  158.0540  210.9750  155.1680 C   0  0  0  0  0  2  0  0  0  0  0  0
  157.4420  212.3710  155.2220 C   0  0  0  0  0  2  0  0  0  0  0  0
  159.4680  210.9920  154.6500 C   0  0  0  0  0  0  0  0  0  0  0  0
  158.7190  211.9640  152.4750 C   0  0  0  0  0  2  0  0  0  0  0  0
  156.9980  212.8230  153.8360 C   0  0  0  0  0  2  0  0  0  0  0  0
  159.7520  211.4200  153.4130 C   0  0  0  0  0  3  0  0  0  0  0  0
  158.1480  213.1890  153.0190 N   0  0  0  0  0  0  0  0  0  0  0  0
  160.3750  208.1660  154.4050 C   0  0  2  0  0  3  0  0  0  0  0  0
  159.9550  207.0100  155.0680 O   0  0  0  0  0  1  0  0  0  0  0  0
  162.0040  208.7790  152.7750 O   0  0  0  0  0  0  0  0  0  0  0  0
  161.2680  207.8620  153.2290 C   0  0  0  0  0  0  0  0  0  0  0  0
  161.1200  205.2420  150.4730 C   0  0  0  0  0  3  0  0  0  0  0  0
  161.2100  206.5770  152.5050 C   0  0  0  0  0  0  0  0  0  0  0  0
  161.1590  205.3960  153.2590 C   0  0  0  0  0  3  0  0  0  0  0  0
  161.1830  206.4950  151.0940 C   0  0  0  0  0  0  0  0  0  0  0  0
  161.0870  204.0740  151.2360 C   0  0  0  0  0  3  0  0  0  0  0  0
  161.1020  204.1500  152.6300 C   0  0  0  0  0  3  0  0  0  0  0  0
  161.1310  207.7110  150.2290 C   0  0  0  0  0  2  0  0  0  0  0  0
  162.3630  207.4510  148.0470 C   0  0  0  0  0  3  0  0  0  0  0  0
  161.3180  207.0590  147.4640 O   0  0  0  0  0  0  0  0  0  0  0  0
  162.3450  207.7990  149.4310 N   0  0  0  0  0  2  0  0  0  0  0  0
  1  6  1  0  0  0  0
  3  2  1  0  0  0  0
  3  6  2  0  0  0  0
  4  1  2  0  0  0  0
  5  7  2  0  0  0  0
  5  4  1  0  0  0  0
  7  3  1  0  0  0  0
  8 15  1  0  0  0  0
  9 10  1  0  0  0  0
 11  9  1  0  0  0  0
 11  7  1  0  0  0  0
 12 15  1  0  0  0  0
 12 14  1  0  0  0  0
 13 10  1  0  0  0  0
 14 11  2  0  0  0  0
 15 13  1  0  0  0  0
 16 17  1  1  0  0  0
 16  5  1  0  0  0  0
 18 19  2  0  0  0  0
 19 16  1  0  0  0  0
 20 23  2  0  0  0  0
 20 24  1  0  0  0  0
 21 19  1  0  0  0  0
 21 22  2  0  0  0  0
 23 21  1  0  0  0  0
 24 25  2  0  0  0  0
 25 22  1  0  0  0  0
 26 23  1  0  0  0  0
 27 29  1  0  0  0  0
 28 27  2  0  0  0  0
 29 26  1  0  0  0  0
M  END
>  <MODEL>
5

>  <REMARK>
 VINA RESULT:      -7.2      3.600      6.391
  Name = 
  6 active torsions:
  status: ('A' for Active; 'I' for Inactive)
    1  A    between atoms: C_5  and  C_20
    2  A    between atoms: C_5  and  N_23
    3  A    between atoms: C_8  and  C_14
    4  A    between atoms: C_8  and  C_19
    5  A    between atoms: C_12  and  C_19
    6  A    between atoms: C_16  and  C_26
                            x       y       z     vdW  Elec       q    Type
                         _______ _______ _______ _____ _____    ______ ____

>  <TORSDO>
F 6

$$$$
=
 OpenBabel11072413503D

 29 31  0  0  1  0  0  0  0  0999 V2000
  160.8470  202.8520  151.6780 N   0  0  0  0  0  0  0  0  0  0  0  0
  160.4790  202.2410  148.1450 F   0  0  0  0  0  0  0  0  0  0  0  0
  160.8010  202.8700  149.3050 C   0  0  0  0  0  0  0  0  0  0  0  0
  161.3780  204.0740  151.6950 N   0  0  0  0  0  0  0  0  0  0  0  0
  161.6420  204.7600  150.5500 C   0  0  0  0  0  0  0  0  0  0  0  0
  160.5500  202.2280  150.5130 C   0  0  0  0  0  3  0  0  0  0  0  0
  161.3540  204.1610  149.3050 C   0  0  0  0  0  0  0  0  0  0  0  0
  160.8550  205.8270  143.7610 C   0  0  0  0  0  1  0  0  0  0  0  0
  163.0360  205.0000  147.5380 C   0  0  0  0  0  2  0  0  0  0  0  0
  163.2400  204.3690  146.1650 C   0  0  0  0  0  2  0  0  0  0  0  0
  161.6170  204.8600  148.0230 C   0  0  0  0  0  0  0  0  0  0  0  0
  160.7620  206.1550  146.0660 C   0  0  0  0  0  2  0  0  0  0  0  0
  162.7070  205.2780  145.0640 C   0  0  0  0  0  2  0  0  0  0  0  0
  160.5960  205.4140  147.3570 C   0  0  0  0  0  3  0  0  0  0  0  0
  161.2500  205.2510  145.0330 N   0  0  0  0  0  0  0  0  0  0  0  0
  162.2810  206.1150  150.6420 C   0  0  2  0  0  3  0  0  0  0  0  0
  163.2660  206.1240  151.6320 O   0  0  0  0  0  1  0  0  0  0  0  0
  160.4560  207.4570  149.8960 O   0  0  0  0  0  0  0  0  0  0  0  0
  161.2670  207.2160  150.8300 C   0  0  0  0  0  0  0  0  0  0  0  0
  161.7350  210.2300  153.1040 C   0  0  0  0  0  3  0  0  0  0  0  0
  161.2800  208.1080  152.0060 C   0  0  0  0  0  0  0  0  0  0  0  0
  160.8310  207.5930  153.2300 C   0  0  0  0  0  3  0  0  0  0  0  0
  161.7440  209.4420  151.9470 C   0  0  0  0  0  0  0  0  0  0  0  0
  161.2690  209.7100  154.3130 C   0  0  0  0  0  3  0  0  0  0  0  0
  160.8200  208.3900  154.3770 C   0  0  0  0  0  3  0  0  0  0  0  0
  162.3310  210.0250  150.7040 C   0  0  0  0  0  2  0  0  0  0  0  0
  161.7830  211.8280  149.0340 C   0  0  0  0  0  3  0  0  0  0  0  0
  162.6960  211.4380  148.2600 O   0  0  0  0  0  0  0  0  0  0  0  0
  161.5390  211.1660  150.2750 N   0  0  0  0  0  2  0  0  0  0  0  0
  1  4  1  0  0  0  0
  2  3  1  0  0  0  0
  3  6  1  0  0  0  0
  5 16  1  0  0  0  0
  5  4  2  0  0  0  0
  6  1  2  0  0  0  0
  7  3  2  0  0  0  0
  7  5  1  0  0  0  0
  8 15  1  0  0  0  0
  9 11  1  0  0  0  0
 10  9  1  0  0  0  0
 11  7  1  0  0  0  0
 12 14  1  0  0  0  0
 13 10  1  0  0  0  0
 14 11  2  0  0  0  0
 15 13  1  0  0  0  0
 15 12  1  0  0  0  0
 16 19  1  0  0  0  0
 16 17  1  1  0  0  0
 18 19  2  0  0  0  0
 19 21  1  0  0  0  0
 20 24  1  0  0  0  0
 21 22  2  0  0  0  0
 22 25  1  0  0  0  0
 23 21  1  0  0  0  0
 23 20  2  0  0  0  0
 24 25  2  0  0  0  0
 26 23  1  0  0  0  0
 27 29  1  0  0  0  0
 28 27  2  0  0  0  0
 29 26  1  0  0  0  0
M  END
>  <MODEL>
6

>  <REMARK>
 VINA RESULT:      -7.0      2.438      7.078
  Name = 
  6 active torsions:
  status: ('A' for Active; 'I' for Inactive)
    1  A    between atoms: C_5  and  C_20
    2  A    between atoms: C_5  and  N_23
    3  A    between atoms: C_8  and  C_14
    4  A    between atoms: C_8  and  C_19
    5  A    between atoms: C_12  and  C_19
    6  A    between atoms: C_16  and  C_26
                            x       y       z     vdW  Elec       q    Type
                         _______ _______ _______ _____ _____    ______ ____

>  <TORSDO>
F 6

$$$$
=
 OpenBabel11072413503D

 29 31  0  0  1  0  0  0  0  0999 V2000
  162.3290  210.9600  149.5070 N   0  0  0  0  0  0  0  0  0  0  0  0
  162.4990  207.6600  148.0670 F   0  0  0  0  0  0  0  0  0  0  0  0
  162.2100  208.6570  148.9420 C   0  0  0  0  0  0  0  0  0  0  0  0
  161.7090  210.7260  150.6640 N   0  0  0  0  0  0  0  0  0  0  0  0
  161.3150  209.4760  151.0300 C   0  0  0  0  0  0  0  0  0  0  0  0
  162.5920  209.9580  148.6330 C   0  0  0  0  0  3  0  0  0  0  0  0
  161.5620  208.3920  150.1600 C   0  0  0  0  0  0  0  0  0  0  0  0
  161.8770  202.8610  151.9130 C   0  0  0  0  0  1  0  0  0  0  0  0
  160.2230  206.2630  149.5890 C   0  0  0  0  0  2  0  0  0  0  0  0
  160.8330  204.9650  149.0710 C   0  0  0  0  0  2  0  0  0  0  0  0
  161.1590  207.0070  150.5050 C   0  0  0  0  0  0  0  0  0  0  0  0
  161.2120  205.0870  152.1010 C   0  0  0  0  0  2  0  0  0  0  0  0
  160.7670  203.8720  150.1310 C   0  0  0  0  0  2  0  0  0  0  0  0
  161.5800  206.4690  151.6570 C   0  0  0  0  0  3  0  0  0  0  0  0
  161.7590  204.1050  151.1740 N   0  0  0  0  0  0  0  0  0  0  0  0
  160.5820  209.2920  152.3270 C   0  0  2  0  0  3  0  0  0  0  0  0
  159.5170  210.1910  152.4170 O   0  0  0  0  0  1  0  0  0  0  0  0
  162.6600  209.8390  153.3630 O   0  0  0  0  0  0  0  0  0  0  0  0
  161.5010  209.3680  153.5200 C   0  0  0  0  0  0  0  0  0  0  0  0
  161.0810  208.8100  157.2600 C   0  0  0  0  0  3  0  0  0  0  0  0
  161.1450  208.7860  154.8290 C   0  0  0  0  0  0  0  0  0  0  0  0
  160.5040  207.5390  154.8440 C   0  0  0  0  0  3  0  0  0  0  0  0
  161.4410  209.4230  156.0550 C   0  0  0  0  0  0  0  0  0  0  0  0
  160.4280  207.5750  157.2600 C   0  0  0  0  0  3  0  0  0  0  0  0
  160.1440  206.9370  156.0520 C   0  0  0  0  0  3  0  0  0  0  0  0
  162.2110  210.7010  156.1200 C   0  0  0  0  0  2  0  0  0  0  0  0
  160.4340  212.4640  156.4030 C   0  0  0  0  0  3  0  0  0  0  0  0
  160.0820  212.3520  155.1990 O   0  0  0  0  0  0  0  0  0  0  0  0
  161.4920  211.6670  156.9360 N   0  0  0  0  0  2  0  0  0  0  0  0
  1  4  1  0  0  0  0
  2  3  1  0  0  0  0
  3  7  2  0  0  0  0
  4  5  2  0  0  0  0
  5 16  1  0  0  0  0
  6  3  1  0  0  0  0
  6  1  2  0  0  0  0
  7 11  1  0  0  0  0
  7  5  1  0  0  0  0
  9 11  1  0  0  0  0
 10  9  1  0  0  0  0
 10 13  1  0  0  0  0
 11 14  2  0  0  0  0
 13 15  1  0  0  0  0
 14 12  1  0  0  0  0
 15  8  1  0  0  0  0
 15 12  1  0  0  0  0
 16 17  1  1  0  0  0
 16 19  1  0  0  0  0
 18 19  2  0  0  0  0
 19 21  1  0  0  0  0
 20 24  1  0  0  0  0
 21 22  2  0  0  0  0
 21 23  1  0  0  0  0
 22 25  1  0  0  0  0
 23 26  1  0  0  0  0
 23 20  2  0  0  0  0
 25 24  2  0  0  0  0
 26 29  1  0  0  0  0
 27 29  1  0  0  0  0
 28 27  2  0  0  0  0
M  END
>  <MODEL>
7

>  <REMARK>
 VINA RESULT:      -6.6      3.556      8.471
  Name = 
  6 active torsions:
  status: ('A' for Active; 'I' for Inactive)
    1  A    between atoms: C_5  and  C_20
    2  A    between atoms: C_5  and  N_23
    3  A    between atoms: C_8  and  C_14
    4  A    between atoms: C_8  and  C_19
    5  A    between atoms: C_12  and  C_19
    6  A    between atoms: C_16  and  C_26
                            x       y       z     vdW  Elec       q    Type
                         _______ _______ _______ _____ _____    ______ ____

>  <TORSDO>
F 6

$$$$
=
 OpenBabel11072413503D

 29 31  0  0  1  0  0  0  0  0999 V2000
  162.2660  210.3080  148.3430 N   0  0  0  0  0  0  0  0  0  0  0  0
  161.1940  212.5330  150.9680 F   0  0  0  0  0  0  0  0  0  0  0  0
  161.5340  211.3850  150.3280 C   0  0  0  0  0  0  0  0  0  0  0  0
  162.1980  209.1190  148.9420 N   0  0  0  0  0  0  0  0  0  0  0  0
  161.7970  208.9870  150.2360 C   0  0  0  0  0  0  0  0  0  0  0  0
  161.9440  211.4490  149.0010 C   0  0  0  0  0  3  0  0  0  0  0  0
  161.4500  210.1400  150.9720 C   0  0  0  0  0  0  0  0  0  0  0  0
  158.9370  211.5380  156.0210 C   0  0  0  0  0  1  0  0  0  0  0  0
  161.9700  209.5810  153.4360 C   0  0  0  0  0  2  0  0  0  0  0  0
  162.1830  210.6160  154.5360 C   0  0  0  0  0  2  0  0  0  0  0  0
  161.0030  210.0590  152.3850 C   0  0  0  0  0  0  0  0  0  0  0  0
  159.1810  210.2740  154.0790 C   0  0  0  0  0  2  0  0  0  0  0  0
  161.0170  210.6160  155.5160 C   0  0  0  0  0  2  0  0  0  0  0  0
  159.7300  210.3450  152.6870 C   0  0  0  0  0  3  0  0  0  0  0  0
  159.8470  211.2540  154.9260 N   0  0  0  0  0  0  0  0  0  0  0  0
  161.7860  207.6220  150.8600 C   0  0  2  0  0  3  0  0  0  0  0  0
  163.0820  207.2360  151.2130 O   0  0  0  0  0  1  0  0  0  0  0  0
  160.4280  206.9990  149.0020 O   0  0  0  0  0  0  0  0  0  0  0  0
  161.0990  206.5990  149.9910 C   0  0  0  0  0  0  0  0  0  0  0  0
  161.1580  202.8020  149.7650 C   0  0  0  0  0  3  0  0  0  0  0  0
  161.0660  205.1640  150.3360 C   0  0  0  0  0  0  0  0  0  0  0  0
  160.8660  204.8120  151.6780 C   0  0  0  0  0  3  0  0  0  0  0  0
  161.2070  204.1430  149.3690 C   0  0  0  0  0  0  0  0  0  0  0  0
  160.9760  202.4650  151.1080 C   0  0  0  0  0  3  0  0  0  0  0  0
  160.8250  203.4710  152.0640 C   0  0  0  0  0  3  0  0  0  0  0  0
  161.3190  204.4410  147.9100 C   0  0  0  0  0  2  0  0  0  0  0  0
  161.2070  203.1190  145.7690 C   0  0  0  0  0  3  0  0  0  0  0  0
  160.8140  204.1270  145.1260 O   0  0  0  0  0  0  0  0  0  0  0  0
  161.4840  203.2010  147.1670 N   0  0  0  0  0  2  0  0  0  0  0  0
  1  4  2  0  0  0  0
  1  6  1  0  0  0  0
  3  2  1  0  0  0  0
  3  7  1  0  0  0  0
  4  5  1  0  0  0  0
  5 16  1  0  0  0  0
  5  7  2  0  0  0  0
  6  3  2  0  0  0  0
  7 11  1  0  0  0  0
  9 10  1  0  0  0  0
 10 13  1  0  0  0  0
 11 14  2  0  0  0  0
 11  9  1  0  0  0  0
 12 15  1  0  0  0  0
 14 12  1  0  0  0  0
 15 13  1  0  0  0  0
 15  8  1  0  0  0  0
 16 17  1  6  0  0  0
 18 19  2  0  0  0  0
 19 21  1  0  0  0  0
 19 16  1  0  0  0  0
 20 24  1  0  0  0  0
 21 22  2  0  0  0  0
 22 25  1  0  0  0  0
 23 20  2  0  0  0  0
 23 21  1  0  0  0  0
 24 25  2  0  0  0  0
 26 23  1  0  0  0  0
 27 29  1  0  0  0  0
 28 27  2  0  0  0  0
 29 26  1  0  0  0  0
M  END
>  <MODEL>
8

>  <REMARK>
 VINA RESULT:      -6.6      2.579      4.815
  Name = 
  6 active torsions:
  status: ('A' for Active; 'I' for Inactive)
    1  A    between atoms: C_5  and  C_20
    2  A    between atoms: C_5  and  N_23
    3  A    between atoms: C_8  and  C_14
    4  A    between atoms: C_8  and  C_19
    5  A    between atoms: C_12  and  C_19
    6  A    between atoms: C_16  and  C_26
                            x       y       z     vdW  Elec       q    Type
                         _______ _______ _______ _____ _____    ______ ____

>  <TORSDO>
F 6

$$$$
=
 OpenBabel11072413503D

 29 31  0  0  1  0  0  0  0  0999 V2000
  160.4760  206.9360  155.1050 N   0  0  0  0  0  0  0  0  0  0  0  0
  160.5360  210.5370  155.2510 F   0  0  0  0  0  0  0  0  0  0  0  0
  160.6100  209.2790  154.7460 C   0  0  0  0  0  0  0  0  0  0  0  0
  160.7790  206.7050  153.8280 N   0  0  0  0  0  0  0  0  0  0  0  0
  161.0190  207.7170  152.9510 C   0  0  0  0  0  0  0  0  0  0  0  0
  160.3850  208.1980  155.5910 C   0  0  0  0  0  3  0  0  0  0  0  0
  160.9380  209.0530  153.3980 C   0  0  0  0  0  0  0  0  0  0  0  0
  160.0440  213.2610  149.4920 C   0  0  0  0  0  1  0  0  0  0  0  0
  162.4390  210.2070  151.6470 C   0  0  0  0  0  2  0  0  0  0  0  0
  162.1280  210.2930  150.1570 C   0  0  0  0  0  2  0  0  0  0  0  0
  161.1910  210.1980  152.4900 C   0  0  0  0  0  0  0  0  0  0  0  0
  160.5230  212.4420  151.6210 C   0  0  0  0  0  2  0  0  0  0  0  0
  161.7720  211.7200  149.7580 C   0  0  0  0  0  2  0  0  0  0  0  0
  160.3420  211.2340  152.4880 C   0  0  0  0  0  3  0  0  0  0  0  0
  160.4320  212.0640  150.2170 N   0  0  0  0  0  0  0  0  0  0  0  0
  161.3120  207.3850  151.5160 C   0  0  2  0  0  3  0  0  0  0  0  0
  160.1290  207.3380  150.7750 O   0  0  0  0  0  1  0  0  0  0  0  0
  163.3410  206.1500  151.7220 O   0  0  0  0  0  0  0  0  0  0  0  0
  162.1300  206.1260  151.3750 C   0  0  0  0  0  0  0  0  0  0  0  0
  160.9680  203.6200  148.7580 C   0  0  0  0  0  3  0  0  0  0  0  0
  161.6050  204.9140  150.7170 C   0  0  0  0  0  0  0  0  0  0  0  0
  161.1940  203.8480  151.5300 C   0  0  0  0  0  3  0  0  0  0  0  0
  161.4820  204.7970  149.3140 C   0  0  0  0  0  0  0  0  0  0  0  0
  160.5790  202.5600  149.5790 C   0  0  0  0  0  3  0  0  0  0  0  0
  160.6880  202.6750  150.9650 C   0  0  0  0  0  3  0  0  0  0  0  0
  161.8020  205.9280  148.3930 C   0  0  0  0  0  2  0  0  0  0  0  0
  160.7260  206.1890  146.1300 C   0  0  0  0  0  3  0  0  0  0  0  0
  161.8030  205.8990  145.5460 O   0  0  0  0  0  0  0  0  0  0  0  0
  160.6490  206.2200  147.5550 N   0  0  0  0  0  2  0  0  0  0  0  0
  1  6  1  0  0  0  0
  3  2  1  0  0  0  0
  3  6  2  0  0  0  0
  4  1  2  0  0  0  0
  5  7  2  0  0  0  0
  5  4  1  0  0  0  0
  7  3  1  0  0  0  0
  8 15  1  0  0  0  0
  9 11  1  0  0  0  0
 10  9  1  0  0  0  0
 11  7  1  0  0  0  0
 12 14  1  0  0  0  0
 13 10  1  0  0  0  0
 13 15  1  0  0  0  0
 14 11  2  0  0  0  0
 15 12  1  0  0  0  0
 16 17  1  6  0  0  0
 16  5  1  0  0  0  0
 19 16  1  0  0  0  0
 19 18  2  0  0  0  0
 20 23  2  0  0  0  0
 20 24  1  0  0  0  0
 21 19  1  0  0  0  0
 21 22  2  0  0  0  0
 23 21  1  0  0  0  0
 24 25  2  0  0  0  0
 25 22  1  0  0  0  0
 26 23  1  0  0  0  0
 27 29  1  0  0  0  0
 28 27  2  0  0  0  0
 29 26  1  0  0  0  0
M  END
>  <MODEL>
9

>  <REMARK>
 VINA RESULT:      -6.5      2.529      4.270
  Name = 
  6 active torsions:
  status: ('A' for Active; 'I' for Inactive)
    1  A    between atoms: C_5  and  C_20
    2  A    between atoms: C_5  and  N_23
    3  A    between atoms: C_8  and  C_14
    4  A    between atoms: C_8  and  C_19
    5  A    between atoms: C_12  and  C_19
    6  A    between atoms: C_16  and  C_26
                            x       y       z     vdW  Elec       q    Type
                         _______ _______ _______ _____ _____    ______ ____

>  <TORSDO>
F 6

$$$$
