=
 OpenBabel11072410513D

 40 45  0  0  1  0  0  0  0  0999 V2000
  160.5210  206.0820  148.9720 C   0  0  0  0  0  2  0  0  0  0  0  0
  161.2490  207.8950  147.5080 O   0  0  0  0  0  0  0  0  0  0  0  0
  160.9990  204.1580  150.5000 C   0  0  0  0  0  3  0  0  0  0  0  0
  162.4960  207.7750  149.6030 C   0  0  0  0  0  2  0  0  0  0  0  0
  161.6880  208.5930  150.6240 C   0  0  1  0  0  3  0  0  0  0  0  0
  162.2540  206.9480  147.2090 C   0  0  1  0  0  3  0  0  0  0  0  0
  161.6410  207.0510  148.5600 C   0  0  1  0  0  0  0  0  0  0  0  0
  161.2640  204.4800  152.8870 C   0  0  0  0  0  3  0  0  0  0  0  0
  160.7530  205.5250  150.3420 C   0  0  0  0  0  0  0  0  0  0  0  0
  161.2510  203.6350  151.7720 C   0  0  0  0  0  0  0  0  0  0  0  0
  160.7660  206.3740  151.4650 C   0  0  0  0  0  0  0  0  0  0  0  0
  161.0250  205.8480  152.7340 C   0  0  0  0  0  3  0  0  0  0  0  0
  160.5260  207.8460  151.2990 C   0  0  0  0  0  2  0  0  0  0  0  0
  161.5570  201.9240  151.9660 Cl  0  0  0  0  0  0  0  0  0  0  0  0
  162.5840  209.1140  151.6430 N   0  0  0  0  0  2  0  0  0  0  0  0
  162.0130  210.2970  152.1290 N   0  0  0  0  0  2  0  0  0  0  0  0
  160.9990  208.6010  155.3750 C   0  0  0  0  0  2  0  0  0  0  0  0
  157.7470  213.1180  152.0940 O   0  0  0  0  0  0  0  0  0  0  0  0
  159.6780  213.0020  155.1360 C   0  0  0  0  0  0  0  0  0  0  0  0
  158.7600  213.4790  154.1560 N   0  0  0  0  0  2  0  0  0  0  0  0
  159.9500  213.7130  156.1380 O   0  0  0  0  0  0  0  0  0  0  0  0
  161.8690  209.3590  154.3650 C   0  0  0  0  0  2  0  0  0  0  0  0
  159.6110  209.2080  155.6020 C   0  0  0  0  0  2  0  0  0  0  0  0
  159.4180  211.6050  152.6870 N   0  0  0  0  0  0  0  0  0  0  0  0
  161.0810  209.9200  153.1800 C   0  0  1  0  0  3  0  0  0  0  0  0
  160.2380  211.1100  153.5680 C   0  0  0  0  0  0  0  0  0  0  0  0
  159.6390  210.6820  156.0200 C   0  0  0  0  0  2  0  0  0  0  0  0
  160.2840  211.6360  154.9990 C   0  0  2  0  0  3  0  0  0  0  0  0
  158.5930  212.7440  152.9470 C   0  0  0  0  0  0  0  0  0  0  0  0
  161.6730  205.8170  146.3500 C   0  0  1  0  0  3  0  0  0  0  0  0
  159.9980  204.5830  144.1870 C   0  0  0  0  0  1  0  0  0  0  0  0
  161.3160  205.8850  142.7020 O   0  0  0  0  0  0  0  0  0  0  0  0
  161.0930  205.5510  143.8940 C   0  0  0  0  0  0  0  0  0  0  0  0
  161.9050  206.0910  144.9390 N   0  0  0  0  0  2  0  0  0  0  0  0
  163.3290  204.4340  147.5680 O   0  0  0  0  0  0  0  0  0  0  0  0
  162.2130  204.4220  146.7080 C   0  0  2  0  0  0  0  0  0  0  0  0
  163.5650  204.0610  146.2250 C   0  0  0  0  0  2  0  0  0  0  0  0
  161.2120  203.2950  147.0020 C   0  0  0  0  0  3  0  0  0  0  0  0
  161.0810  202.3710  145.8050 C   0  0  0  0  0  1  0  0  0  0  0  0
  161.5420  202.4760  148.2430 C   0  0  0  0  0  1  0  0  0  0  0  0
  1  9  1  0  0  0  0
  2  7  1  0  0  0  0
  3 10  1  0  0  0  0
  4  5  1  0  0  0  0
  5 13  1  0  0  0  0
  5 15  1  1  0  0  0
  6 30  1  6  0  0  0
  6  2  1  0  0  0  0
  6  7  1  0  0  0  0
  7  1  1  1  0  0  0
  7  4  1  0  0  0  0
  9  3  2  0  0  0  0
  9 11  1  0  0  0  0
 10 14  1  0  0  0  0
 10  8  2  0  0  0  0
 11 12  2  0  0  0  0
 12  8  1  0  0  0  0
 13 11  1  0  0  0  0
 15 16  1  0  0  0  0
 17 23  1  0  0  0  0
 18 29  2  0  0  0  0
 19 21  2  0  0  0  0
 20 19  1  0  0  0  0
 22 17  1  0  0  0  0
 23 27  1  0  0  0  0
 24 29  1  0  0  0  0
 24 26  2  0  0  0  0
 25 16  1  6  0  0  0
 25 26  1  0  0  0  0
 25 22  1  0  0  0  0
 26 28  1  0  0  0  0
 28 19  1  0  0  0  0
 28 27  1  1  0  0  0
 29 20  1  0  0  0  0
 30 34  1  6  0  0  0
 30 36  1  0  0  0  0
 32 33  2  0  0  0  0
 33 31  1  0  0  0  0
 33 34  1  0  0  0  0
 36 38  1  1  0  0  0
 36 35  1  0  0  0  0
 37 36  1  0  0  0  0
 37 35  1  0  0  0  0
 38 40  1  0  0  0  0
 39 38  1  0  0  0  0
M  END
>  <MODEL>
1

>  <REMARK>
 VINA RESULT:      -7.0      0.000      0.000
  Name = 
  7 active torsions:
  status: ('A' for Active; 'I' for Inactive)
    1  A    between atoms: N_1  and  C_13
    2  A    between atoms: N_1  and  N_34
    3  A    between atoms: C_6  and  C_12
    4  A    between atoms: C_6  and  C_17
    5  A    between atoms: C_6  and  N_38
    6  A    between atoms: C_7  and  C_12
    7  A    between atoms: C_30  and  N_34
                            x       y       z     vdW  Elec       q    Type
                         _______ _______ _______ _____ _____    ______ ____

>  <TORSDO>
F 7

$$$$
=
 OpenBabel11072410513D

 40 45  0  0  1  0  0  0  0  0999 V2000
  162.3040  210.3360  150.7280 C   0  0  0  0  0  2  0  0  0  0  0  0
  162.3820  209.6180  148.3950 O   0  0  0  0  0  0  0  0  0  0  0  0
  161.0480  210.9160  152.8130 C   0  0  0  0  0  3  0  0  0  0  0  0
  160.8460  208.3070  149.7670 C   0  0  0  0  0  2  0  0  0  0  0  0
  161.6920  207.1870  150.3970 C   0  0  1  0  0  3  0  0  0  0  0  0
  161.2010  210.3930  148.3530 C   0  0  1  0  0  3  0  0  0  0  0  0
  161.5990  209.6240  149.5620 C   0  0  1  0  0  0  0  0  0  0  0  0
  160.5230  209.2360  154.4780 C   0  0  0  0  0  3  0  0  0  0  0  0
  161.7080  209.9520  152.0470 C   0  0  0  0  0  0  0  0  0  0  0  0
  160.4590  210.5590  154.0300 C   0  0  0  0  0  0  0  0  0  0  0  0
  161.7740  208.6210  152.4980 C   0  0  0  0  0  0  0  0  0  0  0  0
  161.1780  208.2670  153.7130 C   0  0  0  0  0  3  0  0  0  0  0  0
  162.4610  207.5760  151.6700 C   0  0  0  0  0  2  0  0  0  0  0  0
  159.6330  211.7690  154.9870 Cl  0  0  0  0  0  0  0  0  0  0  0  0
  160.8440  206.0410  150.6760 N   0  0  0  0  0  2  0  0  0  0  0  0
  160.5010  205.4720  149.4420 N   0  0  0  0  0  2  0  0  0  0  0  0
  160.8720  201.8240  150.4400 C   0  0  0  0  0  2  0  0  0  0  0  0
  163.4870  204.8120  145.3440 O   0  0  0  0  0  0  0  0  0  0  0  0
  160.8060  202.4630  145.8840 C   0  0  0  0  0  0  0  0  0  0  0  0
  161.8030  203.2150  145.1970 N   0  0  0  0  0  2  0  0  0  0  0  0
  160.0240  201.7210  145.2360 O   0  0  0  0  0  0  0  0  0  0  0  0
  160.1890  203.1550  150.1040 C   0  0  0  0  0  2  0  0  0  0  0  0
  161.8600  201.3290  149.3800 C   0  0  0  0  0  2  0  0  0  0  0  0
  162.2530  204.4520  147.2880 N   0  0  0  0  0  0  0  0  0  0  0  0
  161.1100  204.1530  149.3980 C   0  0  1  0  0  3  0  0  0  0  0  0
  161.3820  203.7620  147.9650 C   0  0  0  0  0  0  0  0  0  0  0  0
  161.2550  201.2050  147.9770 C   0  0  0  0  0  2  0  0  0  0  0  0
  160.7200  202.5190  147.3810 C   0  0  2  0  0  3  0  0  0  0  0  0
  162.5650  204.1770  145.9200 C   0  0  0  0  0  0  0  0  0  0  0  0
  161.5470  211.8850  148.4260 C   0  0  1  0  0  3  0  0  0  0  0  0
  163.0810  214.4530  148.1850 C   0  0  0  0  0  1  0  0  0  0  0  0
  163.4150  213.8060  145.9250 O   0  0  0  0  0  0  0  0  0  0  0  0
  162.8950  213.5230  147.0340 C   0  0  0  0  0  0  0  0  0  0  0  0
  162.1230  212.3270  147.1650 N   0  0  0  0  0  2  0  0  0  0  0  0
  160.7020  213.9260  149.5480 O   0  0  0  0  0  0  0  0  0  0  0  0
  160.3560  212.7830  148.8010 C   0  0  2  0  0  0  0  0  0  0  0  0
  160.0060  212.9040  150.2340 C   0  0  0  0  0  2  0  0  0  0  0  0
  159.2610  213.0340  147.7530 C   0  0  0  0  0  3  0  0  0  0  0  0
  157.8850  212.9430  148.3860 C   0  0  0  0  0  1  0  0  0  0  0  0
  159.3940  214.3610  147.0160 C   0  0  0  0  0  1  0  0  0  0  0  0
  1  9  1  0  0  0  0
  2  7  1  0  0  0  0
  3 10  1  0  0  0  0
  4  5  1  0  0  0  0
  5 15  1  1  0  0  0
  5 13  1  0  0  0  0
  6  2  1  0  0  0  0
  6 30  1  1  0  0  0
  6  7  1  0  0  0  0
  7  4  1  1  0  0  0
  7  1  1  0  0  0  0
  9 11  1  0  0  0  0
  9  3  2  0  0  0  0
 10  8  2  0  0  0  0
 10 14  1  0  0  0  0
 11 12  2  0  0  0  0
 12  8  1  0  0  0  0
 13 11  1  0  0  0  0
 16 15  1  0  0  0  0
 18 29  2  0  0  0  0
 19 28  1  0  0  0  0
 20 19  1  0  0  0  0
 20 29  1  0  0  0  0
 21 19  2  0  0  0  0
 22 17  1  0  0  0  0
 23 17  1  0  0  0  0
 24 26  2  0  0  0  0
 25 16  1  6  0  0  0
 25 22  1  0  0  0  0
 26 25  1  0  0  0  0
 27 23  1  0  0  0  0
 28 26  1  0  0  0  0
 28 27  1  1  0  0  0
 29 24  1  0  0  0  0
 30 34  1  6  0  0  0
 30 36  1  0  0  0  0
 32 33  2  0  0  0  0
 33 34  1  0  0  0  0
 33 31  1  0  0  0  0
 35 37  1  0  0  0  0
 36 38  1  6  0  0  0
 36 35  1  0  0  0  0
 36 37  1  0  0  0  0
 38 39  1  0  0  0  0
 40 38  1  0  0  0  0
M  END
>  <MODEL>
2

>  <REMARK>
 VINA RESULT:      -6.9      3.681      8.811
  Name = 
  7 active torsions:
  status: ('A' for Active; 'I' for Inactive)
    1  A    between atoms: N_1  and  C_13
    2  A    between atoms: N_1  and  N_34
    3  A    between atoms: C_6  and  C_12
    4  A    between atoms: C_6  and  C_17
    5  A    between atoms: C_6  and  N_38
    6  A    between atoms: C_7  and  C_12
    7  A    between atoms: C_30  and  N_34
                            x       y       z     vdW  Elec       q    Type
                         _______ _______ _______ _____ _____    ______ ____

>  <TORSDO>
F 7

$$$$
=
 OpenBabel11072410513D

 40 45  0  0  1  0  0  0  0  0999 V2000
  162.4730  210.3190  151.1590 C   0  0  0  0  0  2  0  0  0  0  0  0
  162.5620  209.8620  148.7630 O   0  0  0  0  0  0  0  0  0  0  0  0
  161.2070  210.7830  153.2680 C   0  0  0  0  0  3  0  0  0  0  0  0
  160.8640  208.5620  149.9400 C   0  0  0  0  0  2  0  0  0  0  0  0
  161.5790  207.3020  150.4570 C   0  0  1  0  0  3  0  0  0  0  0  0
  161.4610  210.7470  148.7810 C   0  0  1  0  0  3  0  0  0  0  0  0
  161.7440  209.8130  149.9040 C   0  0  1  0  0  0  0  0  0  0  0  0
  160.4700  208.9880  154.7170 C   0  0  0  0  0  3  0  0  0  0  0  0
  161.7990  209.8510  152.4120 C   0  0  0  0  0  0  0  0  0  0  0  0
  160.5450  210.3530  154.4220 C   0  0  0  0  0  0  0  0  0  0  0  0
  161.7230  208.4770  152.7100 C   0  0  0  0  0  0  0  0  0  0  0  0
  161.0560  208.0500  153.8620 C   0  0  0  0  0  3  0  0  0  0  0  0
  162.3370  207.4700  151.7840 C   0  0  0  0  0  2  0  0  0  0  0  0
  159.8060  211.5220  155.4910 Cl  0  0  0  0  0  0  0  0  0  0  0  0
  160.6160  206.2200  150.5840 N   0  0  0  0  0  2  0  0  0  0  0  0
  160.4480  205.6660  149.3080 N   0  0  0  0  0  2  0  0  0  0  0  0
  160.8070  202.0720  150.4900 C   0  0  0  0  0  2  0  0  0  0  0  0
  163.4560  204.7960  145.2650 O   0  0  0  0  0  0  0  0  0  0  0  0
  160.7680  202.4820  145.9070 C   0  0  0  0  0  0  0  0  0  0  0  0
  161.7700  203.1970  145.1890 N   0  0  0  0  0  2  0  0  0  0  0  0
  159.9890  201.7090  145.2920 O   0  0  0  0  0  0  0  0  0  0  0  0
  160.1280  203.3860  150.0830 C   0  0  0  0  0  2  0  0  0  0  0  0
  161.8000  201.5230  149.4610 C   0  0  0  0  0  2  0  0  0  0  0  0
  162.2110  204.5360  147.2180 N   0  0  0  0  0  0  0  0  0  0  0  0
  161.0550  204.3450  149.3340 C   0  0  1  0  0  3  0  0  0  0  0  0
  161.3350  203.8820  147.9240 C   0  0  0  0  0  0  0  0  0  0  0  0
  161.2030  201.3290  148.0630 C   0  0  0  0  0  2  0  0  0  0  0  0
  160.6730  202.6120  147.3990 C   0  0  2  0  0  3  0  0  0  0  0  0
  162.5300  204.1930  145.8670 C   0  0  0  0  0  0  0  0  0  0  0  0
  161.9430  212.1810  149.0330 C   0  0  1  0  0  3  0  0  0  0  0  0
  160.6940  212.2610  146.3050 C   0  0  0  0  0  1  0  0  0  0  0  0
  162.7320  213.2700  145.6220 O   0  0  0  0  0  0  0  0  0  0  0  0
  162.0710  212.7680  146.5670 C   0  0  0  0  0  0  0  0  0  0  0  0
  162.6590  212.6790  147.8670 N   0  0  0  0  0  2  0  0  0  0  0  0
  160.8110  214.3540  148.6660 O   0  0  0  0  0  0  0  0  0  0  0  0
  160.8190  213.1600  149.4130 C   0  0  2  0  0  0  0  0  0  0  0  0
  161.2050  214.4530  150.0200 C   0  0  0  0  0  2  0  0  0  0  0  0
  159.4180  212.5990  149.7060 C   0  0  0  0  0  3  0  0  0  0  0  0
  159.1450  212.5980  151.1980 C   0  0  0  0  0  1  0  0  0  0  0  0
  158.2920  213.3260  148.9820 C   0  0  0  0  0  1  0  0  0  0  0  0
  1  9  1  0  0  0  0
  2  6  1  0  0  0  0
  2  7  1  0  0  0  0
  3 10  1  0  0  0  0
  4  5  1  0  0  0  0
  5 15  1  1  0  0  0
  5 13  1  0  0  0  0
  6 30  1  1  0  0  0
  6  7  1  0  0  0  0
  7  4  1  1  0  0  0
  7  1  1  0  0  0  0
  9 11  1  0  0  0  0
  9  3  2  0  0  0  0
 10  8  2  0  0  0  0
 10 14  1  0  0  0  0
 11 12  2  0  0  0  0
 12  8  1  0  0  0  0
 13 11  1  0  0  0  0
 16 15  1  0  0  0  0
 18 29  2  0  0  0  0
 19 28  1  0  0  0  0
 20 29  1  0  0  0  0
 20 19  1  0  0  0  0
 21 19  2  0  0  0  0
 22 17  1  0  0  0  0
 23 17  1  0  0  0  0
 24 26  2  0  0  0  0
 25 16  1  6  0  0  0
 25 22  1  0  0  0  0
 26 25  1  0  0  0  0
 27 23  1  0  0  0  0
 28 26  1  0  0  0  0
 28 27  1  1  0  0  0
 29 24  1  0  0  0  0
 30 34  1  6  0  0  0
 30 36  1  0  0  0  0
 31 33  1  0  0  0  0
 32 33  2  0  0  0  0
 33 34  1  0  0  0  0
 35 36  1  0  0  0  0
 35 37  1  0  0  0  0
 36 38  1  1  0  0  0
 36 37  1  0  0  0  0
 38 39  1  0  0  0  0
 40 38  1  0  0  0  0
M  END
>  <MODEL>
3

>  <REMARK>
 VINA RESULT:      -6.9      3.419      8.715
  Name = 
  7 active torsions:
  status: ('A' for Active; 'I' for Inactive)
    1  A    between atoms: N_1  and  C_13
    2  A    between atoms: N_1  and  N_34
    3  A    between atoms: C_6  and  C_12
    4  A    between atoms: C_6  and  C_17
    5  A    between atoms: C_6  and  N_38
    6  A    between atoms: C_7  and  C_12
    7  A    between atoms: C_30  and  N_34
                            x       y       z     vdW  Elec       q    Type
                         _______ _______ _______ _____ _____    ______ ____

>  <TORSDO>
F 7

$$$$
=
 OpenBabel11072410513D

 40 45  0  0  1  0  0  0  0  0999 V2000
  160.4960  208.5470  152.0890 C   0  0  0  0  0  2  0  0  0  0  0  0
  160.3090  207.0340  153.9960 O   0  0  0  0  0  0  0  0  0  0  0  0
  161.8330  209.7050  150.3180 C   0  0  0  0  0  3  0  0  0  0  0  0
  161.6870  206.1520  152.1850 C   0  0  0  0  0  2  0  0  0  0  0  0
  160.7180  205.4500  151.2190 C   0  0  1  0  0  3  0  0  0  0  0  0
  161.5750  207.5950  154.2770 C   0  0  1  0  0  3  0  0  0  0  0  0
  161.0980  207.3780  152.8860 C   0  0  1  0  0  0  0  0  0  0  0  0
  162.1660  208.7080  148.1350 C   0  0  0  0  0  3  0  0  0  0  0  0
  161.0530  208.6100  150.7010 C   0  0  0  0  0  0  0  0  0  0  0  0
  162.3870  209.7550  149.0350 C   0  0  0  0  0  0  0  0  0  0  0  0
  160.8310  207.5560  149.7940 C   0  0  0  0  0  0  0  0  0  0  0  0
  161.3910  207.6080  148.5140 C   0  0  0  0  0  3  0  0  0  0  0  0
  160.0140  206.3670  150.2060 C   0  0  0  0  0  2  0  0  0  0  0  0
  163.3620  211.1280  148.5600 Cl  0  0  0  0  0  0  0  0  0  0  0  0
  161.4240  204.3970  150.5080 N   0  0  0  0  0  2  0  0  0  0  0  0
  160.4630  203.6630  149.7990 N   0  0  0  0  0  2  0  0  0  0  0  0
  161.3270  200.0480  149.0050 C   0  0  0  0  0  2  0  0  0  0  0  0
  162.7270  205.3040  145.5170 O   0  0  0  0  0  0  0  0  0  0  0  0
  160.4020  202.5600  145.2620 C   0  0  0  0  0  0  0  0  0  0  0  0
  161.1910  203.6810  144.8710 N   0  0  0  0  0  2  0  0  0  0  0  0
  159.5870  202.0550  144.4470 O   0  0  0  0  0  0  0  0  0  0  0  0
  160.4800  201.2690  149.3840 C   0  0  0  0  0  2  0  0  0  0  0  0
  162.1520  200.2190  147.7260 C   0  0  0  0  0  2  0  0  0  0  0  0
  161.8920  203.9550  147.2250 N   0  0  0  0  0  0  0  0  0  0  0  0
  161.1700  202.6040  149.0970 C   0  0  1  0  0  3  0  0  0  0  0  0
  161.2190  202.9140  147.6190 C   0  0  0  0  0  0  0  0  0  0  0  0
  161.3230  200.6140  146.4990 C   0  0  0  0  0  2  0  0  0  0  0  0
  160.5760  201.9540  146.6230 C   0  0  2  0  0  3  0  0  0  0  0  0
  161.9810  204.3470  145.8520 C   0  0  0  0  0  0  0  0  0  0  0  0
  161.4140  209.0390  154.7690 C   0  0  1  0  0  3  0  0  0  0  0  0
  160.8370  211.6750  153.4560 C   0  0  0  0  0  1  0  0  0  0  0  0
  158.5570  211.0330  153.6270 O   0  0  0  0  0  0  0  0  0  0  0  0
  159.7560  210.7320  153.8610 C   0  0  0  0  0  0  0  0  0  0  0  0
  160.0550  209.5010  154.5240 N   0  0  0  0  0  2  0  0  0  0  0  0
  162.2900  208.0880  156.8820 O   0  0  0  0  0  0  0  0  0  0  0  0
  161.7740  209.2370  156.2510 C   0  0  2  0  0  0  0  0  0  0  0  0
  160.9880  208.4890  157.2590 C   0  0  0  0  0  2  0  0  0  0  0  0
  162.4620  210.5430  156.6770 C   0  0  0  0  0  3  0  0  0  0  0  0
  163.4880  210.9680  155.6430 C   0  0  0  0  0  1  0  0  0  0  0  0
  161.5020  211.6950  156.9450 C   0  0  0  0  0  1  0  0  0  0  0  0
  2  6  1  0  0  0  0
  3  9  1  0  0  0  0
  4  7  1  0  0  0  0
  5 15  1  6  0  0  0
  5  4  1  0  0  0  0
  6 30  1  6  0  0  0
  7  1  1  6  0  0  0
  7  2  1  0  0  0  0
  7  6  1  0  0  0  0
  8 12  2  0  0  0  0
  8 10  1  0  0  0  0
  9  1  1  0  0  0  0
 10  3  2  0  0  0  0
 11 13  1  0  0  0  0
 11  9  2  0  0  0  0
 12 11  1  0  0  0  0
 13  5  1  0  0  0  0
 14 10  1  0  0  0  0
 16 15  1  0  0  0  0
 17 22  1  0  0  0  0
 18 29  2  0  0  0  0
 19 28  1  0  0  0  0
 20 19  1  0  0  0  0
 20 29  1  0  0  0  0
 21 19  2  0  0  0  0
 23 17  1  0  0  0  0
 24 26  2  0  0  0  0
 25 22  1  0  0  0  0
 25 16  1  1  0  0  0
 26 25  1  0  0  0  0
 27 23  1  0  0  0  0
 28 27  1  6  0  0  0
 28 26  1  0  0  0  0
 29 24  1  0  0  0  0
 30 34  1  1  0  0  0
 30 36  1  0  0  0  0
 31 33  1  0  0  0  0
 32 33  2  0  0  0  0
 33 34  1  0  0  0  0
 35 37  1  0  0  0  0
 36 38  1  1  0  0  0
 36 35  1  0  0  0  0
 36 37  1  0  0  0  0
 38 40  1  0  0  0  0
 39 38  1  0  0  0  0
M  END
>  <MODEL>
4

>  <REMARK>
 VINA RESULT:      -6.3      3.025      9.812
  Name = 
  7 active torsions:
  status: ('A' for Active; 'I' for Inactive)
    1  A    between atoms: N_1  and  C_13
    2  A    between atoms: N_1  and  N_34
    3  A    between atoms: C_6  and  C_12
    4  A    between atoms: C_6  and  C_17
    5  A    between atoms: C_6  and  N_38
    6  A    between atoms: C_7  and  C_12
    7  A    between atoms: C_30  and  N_34
                            x       y       z     vdW  Elec       q    Type
                         _______ _______ _______ _____ _____    ______ ____

>  <TORSDO>
F 7

$$$$
=
 OpenBabel11072410513D

 40 45  0  0  1  0  0  0  0  0999 V2000
  160.4960  205.9880  149.1460 C   0  0  0  0  0  2  0  0  0  0  0  0
  161.2120  207.8810  147.7800 O   0  0  0  0  0  0  0  0  0  0  0  0
  160.9870  204.0050  150.5930 C   0  0  0  0  0  3  0  0  0  0  0  0
  162.4260  207.6870  149.8890 C   0  0  0  0  0  2  0  0  0  0  0  0
  161.5840  208.4420  150.9320 C   0  0  1  0  0  3  0  0  0  0  0  0
  162.2410  206.9680  147.4550 C   0  0  1  0  0  3  0  0  0  0  0  0
  161.6040  206.9960  148.7990 C   0  0  1  0  0  0  0  0  0  0  0  0
  161.2060  204.2210  152.9960 C   0  0  0  0  0  3  0  0  0  0  0  0
  160.7170  205.3720  150.4930 C   0  0  0  0  0  0  0  0  0  0  0  0
  161.2280  203.4280  151.8430 C   0  0  0  0  0  0  0  0  0  0  0  0
  160.6940  206.1690  151.6530 C   0  0  0  0  0  0  0  0  0  0  0  0
  160.9420  205.5900  152.9020 C   0  0  0  0  0  3  0  0  0  0  0  0
  160.4270  207.6420  151.5520 C   0  0  0  0  0  2  0  0  0  0  0  0
  161.5650  201.7160  151.9640 Cl  0  0  0  0  0  0  0  0  0  0  0  0
  162.4530  208.9320  151.9890 N   0  0  0  0  0  2  0  0  0  0  0  0
  162.5100  210.3260  151.8630 N   0  0  0  0  0  2  0  0  0  0  0  0
  158.9250  211.3210  152.6330 C   0  0  0  0  0  2  0  0  0  0  0  0
  163.8330  210.7010  156.7880 O   0  0  0  0  0  0  0  0  0  0  0  0
  160.8710  208.8170  155.9670 C   0  0  0  0  0  0  0  0  0  0  0  0
  162.0070  209.2640  156.7030 N   0  0  0  0  0  2  0  0  0  0  0  0
  160.1980  207.8420  156.3870 O   0  0  0  0  0  0  0  0  0  0  0  0
  160.0970  210.5100  152.0680 C   0  0  0  0  0  2  0  0  0  0  0  0
  159.0180  211.6140  154.1340 C   0  0  0  0  0  2  0  0  0  0  0  0
  162.6260  210.7060  154.7950 N   0  0  0  0  0  0  0  0  0  0  0  0
  161.4470  210.8730  152.6890 C   0  0  1  0  0  3  0  0  0  0  0  0
  161.5800  210.3570  154.1020 C   0  0  0  0  0  0  0  0  0  0  0  0
  159.1830  210.3620  155.0010 C   0  0  0  0  0  2  0  0  0  0  0  0
  160.4520  209.5370  154.7190 C   0  0  2  0  0  3  0  0  0  0  0  0
  162.8570  210.2530  156.1310 C   0  0  0  0  0  0  0  0  0  0  0  0
  161.6970  205.8670  146.5360 C   0  0  1  0  0  3  0  0  0  0  0  0
  160.0660  204.7360  144.2840 C   0  0  0  0  0  1  0  0  0  0  0  0
  161.4170  206.1000  142.8880 O   0  0  0  0  0  0  0  0  0  0  0  0
  161.1690  205.7140  144.0580 C   0  0  0  0  0  0  0  0  0  0  0  0
  161.9590  206.2040  145.1440 N   0  0  0  0  0  2  0  0  0  0  0  0
  163.3410  204.4550  147.7360 O   0  0  0  0  0  0  0  0  0  0  0  0
  162.2480  204.4660  146.8470 C   0  0  2  0  0  0  0  0  0  0  0  0
  163.6160  204.1430  146.3840 C   0  0  0  0  0  2  0  0  0  0  0  0
  161.2560  203.3130  147.0680 C   0  0  0  0  0  3  0  0  0  0  0  0
  161.1450  202.4570  145.8200 C   0  0  0  0  0  1  0  0  0  0  0  0
  161.5830  202.4280  148.2640 C   0  0  0  0  0  1  0  0  0  0  0  0
  1  9  1  0  0  0  0
  2  7  1  0  0  0  0
  3 10  1  0  0  0  0
  4  5  1  0  0  0  0
  5 13  1  0  0  0  0
  5 15  1  1  0  0  0
  6 30  1  6  0  0  0
  6  2  1  0  0  0  0
  6  7  1  0  0  0  0
  7  1  1  1  0  0  0
  7  4  1  0  0  0  0
  9  3  2  0  0  0  0
  9 11  1  0  0  0  0
 10 14  1  0  0  0  0
 10  8  2  0  0  0  0
 11 12  2  0  0  0  0
 12  8  1  0  0  0  0
 13 11  1  0  0  0  0
 16 15  1  0  0  0  0
 17 23  1  0  0  0  0
 19 21  2  0  0  0  0
 19 20  1  0  0  0  0
 22 17  1  0  0  0  0
 22 25  1  0  0  0  0
 23 27  1  0  0  0  0
 24 29  1  0  0  0  0
 25 16  1  6  0  0  0
 25 26  1  0  0  0  0
 26 28  1  0  0  0  0
 26 24  2  0  0  0  0
 28 27  1  1  0  0  0
 28 19  1  0  0  0  0
 29 20  1  0  0  0  0
 29 18  2  0  0  0  0
 30 34  1  6  0  0  0
 30 36  1  0  0  0  0
 32 33  2  0  0  0  0
 33 31  1  0  0  0  0
 33 34  1  0  0  0  0
 36 38  1  1  0  0  0
 36 35  1  0  0  0  0
 37 36  1  0  0  0  0
 37 35  1  0  0  0  0
 38 40  1  0  0  0  0
 39 38  1  0  0  0  0
M  END
>  <MODEL>
5

>  <REMARK>
 VINA RESULT:      -5.9      1.799      2.515
  Name = 
  7 active torsions:
  status: ('A' for Active; 'I' for Inactive)
    1  A    between atoms: N_1  and  C_13
    2  A    between atoms: N_1  and  N_34
    3  A    between atoms: C_6  and  C_12
    4  A    between atoms: C_6  and  C_17
    5  A    between atoms: C_6  and  N_38
    6  A    between atoms: C_7  and  C_12
    7  A    between atoms: C_30  and  N_34
                            x       y       z     vdW  Elec       q    Type
                         _______ _______ _______ _____ _____    ______ ____

>  <TORSDO>
F 7

$$$$
=
 OpenBabel11072410513D

 40 45  0  0  1  0  0  0  0  0999 V2000
  162.4060  210.3930  150.5500 C   0  0  0  0  0  2  0  0  0  0  0  0
  162.5540  210.6770  148.1300 O   0  0  0  0  0  0  0  0  0  0  0  0
  161.1120  209.9060  152.6360 C   0  0  0  0  0  3  0  0  0  0  0  0
  161.2650  208.7170  148.8040 C   0  0  0  0  0  2  0  0  0  0  0  0
  162.2850  207.5800  148.9800 C   0  0  1  0  0  3  0  0  0  0  0  0
  161.2660  211.2190  148.3420 C   0  0  1  0  0  3  0  0  0  0  0  0
  161.8000  210.1030  149.1670 C   0  0  1  0  0  0  0  0  0  0  0  0
  160.8840  207.6470  153.4800 C   0  0  0  0  0  3  0  0  0  0  0  0
  161.9000  209.4340  151.5830 C   0  0  0  0  0  0  0  0  0  0  0  0
  160.6070  209.0130  153.5860 C   0  0  0  0  0  0  0  0  0  0  0  0
  162.1800  208.0590  151.4770 C   0  0  0  0  0  0  0  0  0  0  0  0
  161.6680  207.1690  152.4260 C   0  0  0  0  0  3  0  0  0  0  0  0
  163.0070  207.5430  150.3370 C   0  0  0  0  0  2  0  0  0  0  0  0
  159.6210  209.6070  154.9030 Cl  0  0  0  0  0  0  0  0  0  0  0  0
  161.6300  206.3030  148.7470 N   0  0  0  0  0  2  0  0  0  0  0  0
  162.3670  205.6360  147.7590 N   0  0  0  0  0  2  0  0  0  0  0  0
  160.9030  204.4260  144.4680 C   0  0  0  0  0  2  0  0  0  0  0  0
  159.6310  202.2200  150.4060 O   0  0  0  0  0  0  0  0  0  0  0  0
  161.4890  201.0550  147.5440 C   0  0  0  0  0  0  0  0  0  0  0  0
  160.8000  201.0210  148.7910 N   0  0  0  0  0  2  0  0  0  0  0  0
  162.0740  200.0230  147.1250 O   0  0  0  0  0  0  0  0  0  0  0  0
  161.9590  204.8340  145.5030 C   0  0  0  0  0  2  0  0  0  0  0  0
  159.8980  203.3810  144.9600 C   0  0  0  0  0  2  0  0  0  0  0  0
  160.5630  203.4780  148.6790 N   0  0  0  0  0  0  0  0  0  0  0  0
  161.4140  204.9170  146.9300 C   0  0  1  0  0  3  0  0  0  0  0  0
  161.1500  203.5510  147.5190 C   0  0  0  0  0  0  0  0  0  0  0  0
  160.5460  202.1010  145.4980 C   0  0  0  0  0  2  0  0  0  0  0  0
  161.4750  202.3010  146.7090 C   0  0  2  0  0  3  0  0  0  0  0  0
  160.2900  202.2360  149.3330 C   0  0  0  0  0  0  0  0  0  0  0  0
  161.3770  212.5940  149.0120 C   0  0  1  0  0  3  0  0  0  0  0  0
  161.3680  212.7780  146.0160 C   0  0  0  0  0  1  0  0  0  0  0  0
  163.1130  214.3600  146.3090 O   0  0  0  0  0  0  0  0  0  0  0  0
  162.3070  213.5680  146.8620 C   0  0  0  0  0  0  0  0  0  0  0  0
  162.3210  213.4300  148.2840 N   0  0  0  0  0  2  0  0  0  0  0  0
  159.0520  212.9330  148.2260 O   0  0  0  0  0  0  0  0  0  0  0  0
  160.0330  213.3270  149.1570 C   0  0  2  0  0  0  0  0  0  0  0  0
  159.6110  214.2210  148.0550 C   0  0  0  0  0  2  0  0  0  0  0  0
  159.4820  213.5900  150.5670 C   0  0  0  0  0  3  0  0  0  0  0  0
  157.9850  213.3450  150.6100 C   0  0  0  0  0  1  0  0  0  0  0  0
  160.1610  212.7790  151.6640 C   0  0  0  0  0  1  0  0  0  0  0  0
  1  9  1  0  0  0  0
  2  6  1  0  0  0  0
  2  7  1  0  0  0  0
  3 10  1  0  0  0  0
  4  5  1  0  0  0  0
  5 15  1  1  0  0  0
  5 13  1  0  0  0  0
  6 30  1  1  0  0  0
  6  7  1  0  0  0  0
  7  4  1  6  0  0  0
  7  1  1  0  0  0  0
  8 10  2  0  0  0  0
  9  3  2  0  0  0  0
 10 14  1  0  0  0  0
 11  9  1  0  0  0  0
 11 12  2  0  0  0  0
 12  8  1  0  0  0  0
 13 11  1  0  0  0  0
 16 15  1  0  0  0  0
 17 23  1  0  0  0  0
 17 22  1  0  0  0  0
 19 20  1  0  0  0  0
 20 29  1  0  0  0  0
 21 19  2  0  0  0  0
 22 25  1  0  0  0  0
 23 27  1  0  0  0  0
 24 29  1  0  0  0  0
 25 26  1  0  0  0  0
 25 16  1  1  0  0  0
 26 24  2  0  0  0  0
 28 27  1  6  0  0  0
 28 26  1  0  0  0  0
 28 19  1  0  0  0  0
 29 18  2  0  0  0  0
 30 34  1  6  0  0  0
 30 36  1  0  0  0  0
 31 33  1  0  0  0  0
 32 33  2  0  0  0  0
 33 34  1  0  0  0  0
 35 36  1  0  0  0  0
 36 38  1  1  0  0  0
 37 35  1  0  0  0  0
 37 36  1  0  0  0  0
 38 39  1  0  0  0  0
 38 40  1  0  0  0  0
M  END
>  <MODEL>
6

>  <REMARK>
 VINA RESULT:      -5.9      3.564      9.013
  Name = 
  7 active torsions:
  status: ('A' for Active; 'I' for Inactive)
    1  A    between atoms: N_1  and  C_13
    2  A    between atoms: N_1  and  N_34
    3  A    between atoms: C_6  and  C_12
    4  A    between atoms: C_6  and  C_17
    5  A    between atoms: C_6  and  N_38
    6  A    between atoms: C_7  and  C_12
    7  A    between atoms: C_30  and  N_34
                            x       y       z     vdW  Elec       q    Type
                         _______ _______ _______ _____ _____    ______ ____

>  <TORSDO>
F 7

$$$$
=
 OpenBabel11072410513D

 40 45  0  0  1  0  0  0  0  0999 V2000
  162.6060  207.7230  149.9670 C   0  0  0  0  0  2  0  0  0  0  0  0
  162.0280  205.6650  151.1460 O   0  0  0  0  0  0  0  0  0  0  0  0
  161.9810  209.7570  148.6490 C   0  0  0  0  0  3  0  0  0  0  0  0
  160.5550  207.5380  151.6770 C   0  0  0  0  0  2  0  0  0  0  0  0
  161.2360  208.2970  152.8290 C   0  0  1  0  0  3  0  0  0  0  0  0
  161.0720  205.6040  150.1070 C   0  0  1  0  0  3  0  0  0  0  0  0
  161.5290  206.8950  150.6870 C   0  0  1  0  0  0  0  0  0  0  0  0
  161.4470  211.8520  149.7410 C   0  0  0  0  0  3  0  0  0  0  0  0
  162.2280  209.1700  149.8930 C   0  0  0  0  0  0  0  0  0  0  0  0
  161.5940  211.0980  148.5720 C   0  0  0  0  0  0  0  0  0  0  0  0
  162.0810  209.9300  151.0690 C   0  0  0  0  0  0  0  0  0  0  0  0
  161.6870  211.2690  150.9880 C   0  0  0  0  0  3  0  0  0  0  0  0
  162.3220  209.3000  152.4090 C   0  0  0  0  0  2  0  0  0  0  0  0
  161.2860  211.8290  147.0130 Cl  0  0  0  0  0  0  0  0  0  0  0  0
  160.2250  208.9820  153.6180 N   0  0  0  0  0  2  0  0  0  0  0  0
  160.3520  208.5250  154.9370 N   0  0  0  0  0  2  0  0  0  0  0  0
  161.8940  211.3610  156.9420 C   0  0  0  0  0  2  0  0  0  0  0  0
  155.7270  210.6970  155.1340 O   0  0  0  0  0  0  0  0  0  0  0  0
  158.5210  212.7450  154.1350 C   0  0  0  0  0  0  0  0  0  0  0  0
  157.1740  212.3020  154.2720 N   0  0  0  0  0  2  0  0  0  0  0  0
  158.7820  213.7400  153.4100 O   0  0  0  0  0  0  0  0  0  0  0  0
  161.7020  210.3480  155.8070 C   0  0  0  0  0  2  0  0  0  0  0  0
  160.6540  212.2020  157.2610 C   0  0  0  0  0  2  0  0  0  0  0  0
  158.0020  210.2630  155.3940 N   0  0  0  0  0  0  0  0  0  0  0  0
  160.3180  209.6960  155.7980 C   0  0  1  0  0  3  0  0  0  0  0  0
  159.2440  210.6470  155.3280 C   0  0  0  0  0  0  0  0  0  0  0  0
  160.0860  212.9530  156.0520 C   0  0  0  0  0  2  0  0  0  0  0  0
  159.6210  212.0580  154.8900 C   0  0  2  0  0  3  0  0  0  0  0  0
  156.9130  211.0780  154.9530 C   0  0  0  0  0  0  0  0  0  0  0  0
  161.7580  205.2440  148.7830 C   0  0  1  0  0  3  0  0  0  0  0  0
  159.9150  203.2970  150.1320 C   0  0  0  0  0  1  0  0  0  0  0  0
  161.2670  201.6270  149.1220 O   0  0  0  0  0  0  0  0  0  0  0  0
  161.0660  202.8560  149.2940 C   0  0  0  0  0  0  0  0  0  0  0  0
  161.9550  203.8040  148.6970 N   0  0  0  0  0  2  0  0  0  0  0  0
  160.8860  207.1450  147.4540 O   0  0  0  0  0  0  0  0  0  0  0  0
  161.0080  205.7440  147.5360 C   0  0  2  0  0  0  0  0  0  0  0  0
  159.7060  206.4190  147.7380 C   0  0  0  0  0  2  0  0  0  0  0  0
  161.2810  205.0630  146.1860 C   0  0  0  0  0  3  0  0  0  0  0  0
  160.4820  205.7280  145.0810 C   0  0  0  0  0  1  0  0  0  0  0  0
  162.7520  205.0190  145.7950 C   0  0  0  0  0  1  0  0  0  0  0  0
  3  9  1  0  0  0  0
  4  5  1  0  0  0  0
  5 15  1  6  0  0  0
  6 30  1  6  0  0  0
  6  7  1  0  0  0  0
  6  2  1  0  0  0  0
  7  1  1  6  0  0  0
  7  2  1  0  0  0  0
  7  4  1  0  0  0  0
  8 12  2  0  0  0  0
  9  1  1  0  0  0  0
  9 11  2  0  0  0  0
 10  3  2  0  0  0  0
 10  8  1  0  0  0  0
 11 13  1  0  0  0  0
 12 11  1  0  0  0  0
 13  5  1  0  0  0  0
 14 10  1  0  0  0  0
 15 16  1  0  0  0  0
 17 23  1  0  0  0  0
 19 20  1  0  0  0  0
 19 28  1  0  0  0  0
 20 29  1  0  0  0  0
 21 19  2  0  0  0  0
 22 17  1  0  0  0  0
 25 16  1  6  0  0  0
 25 22  1  0  0  0  0
 26 24  2  0  0  0  0
 26 25  1  0  0  0  0
 27 23  1  0  0  0  0
 28 26  1  0  0  0  0
 28 27  1  1  0  0  0
 29 18  2  0  0  0  0
 29 24  1  0  0  0  0
 30 34  1  6  0  0  0
 32 33  2  0  0  0  0
 33 31  1  0  0  0  0
 34 33  1  0  0  0  0
 35 36  1  0  0  0  0
 35 37  1  0  0  0  0
 36 38  1  6  0  0  0
 36 37  1  0  0  0  0
 36 30  1  0  0  0  0
 39 38  1  0  0  0  0
 40 38  1  0  0  0  0
M  END
>  <MODEL>
7

>  <REMARK>
 VINA RESULT:      -5.3      2.819      4.376
  Name = 
  7 active torsions:
  status: ('A' for Active; 'I' for Inactive)
    1  A    between atoms: N_1  and  C_13
    2  A    between atoms: N_1  and  N_34
    3  A    between atoms: C_6  and  C_12
    4  A    between atoms: C_6  and  C_17
    5  A    between atoms: C_6  and  N_38
    6  A    between atoms: C_7  and  C_12
    7  A    between atoms: C_30  and  N_34
                            x       y       z     vdW  Elec       q    Type
                         _______ _______ _______ _____ _____    ______ ____

>  <TORSDO>
F 7

$$$$
=
 OpenBabel11072410513D

 40 45  0  0  1  0  0  0  0  0999 V2000
  161.9610  210.8090  150.5040 C   0  0  0  0  0  2  0  0  0  0  0  0
  162.5280  210.0230  148.2630 O   0  0  0  0  0  0  0  0  0  0  0  0
  160.3320  211.1430  152.3750 C   0  0  0  0  0  3  0  0  0  0  0  0
  161.2040  208.4260  149.5490 C   0  0  0  0  0  2  0  0  0  0  0  0
  162.2140  207.5970  150.3620 C   0  0  1  0  0  3  0  0  0  0  0  0
  161.2060  210.4590  148.0200 C   0  0  1  0  0  3  0  0  0  0  0  0
  161.6210  209.8810  149.3260 C   0  0  1  0  0  0  0  0  0  0  0  0
  160.0310  209.4670  154.0980 C   0  0  0  0  0  3  0  0  0  0  0  0
  161.3100  210.3480  151.7720 C   0  0  0  0  0  0  0  0  0  0  0  0
  159.6950  210.7040  153.5400 C   0  0  0  0  0  0  0  0  0  0  0  0
  161.6490  209.1030  152.3350 C   0  0  0  0  0  0  0  0  0  0  0  0
  161.0050  208.6660  153.4970 C   0  0  0  0  0  3  0  0  0  0  0  0
  162.6820  208.2350  151.6800 C   0  0  0  0  0  2  0  0  0  0  0  0
  158.4710  211.7020  154.2920 Cl  0  0  0  0  0  0  0  0  0  0  0  0
  161.6520  206.2850  150.6340 N   0  0  0  0  0  2  0  0  0  0  0  0
  161.0990  205.8170  149.4340 N   0  0  0  0  0  2  0  0  0  0  0  0
  160.7300  202.1380  150.3110 C   0  0  0  0  0  2  0  0  0  0  0  0
  163.8320  204.7030  145.2580 O   0  0  0  0  0  0  0  0  0  0  0  0
  160.7350  202.9330  145.7790 C   0  0  0  0  0  0  0  0  0  0  0  0
  161.8550  203.4890  145.0960 N   0  0  0  0  0  2  0  0  0  0  0  0
  159.8090  202.3890  145.1240 O   0  0  0  0  0  0  0  0  0  0  0  0
  160.3290  203.5910  150.0300 C   0  0  0  0  0  2  0  0  0  0  0  0
  161.5810  201.4890  149.2160 C   0  0  0  0  0  2  0  0  0  0  0  0
  162.5770  204.5360  147.2140 N   0  0  0  0  0  0  0  0  0  0  0  0
  161.4250  204.4040  149.3370 C   0  0  1  0  0  3  0  0  0  0  0  0
  161.5920  204.0150  147.8870 C   0  0  0  0  0  0  0  0  0  0  0  0
  160.9450  201.5390  147.8230 C   0  0  0  0  0  2  0  0  0  0  0  0
  160.6810  202.9540  147.2780 C   0  0  2  0  0  3  0  0  0  0  0  0
  162.8070  204.2510  145.8320 C   0  0  0  0  0  0  0  0  0  0  0  0
  161.1510  211.9920  148.0110 C   0  0  1  0  0  3  0  0  0  0  0  0
  159.5020  214.3970  148.7210 C   0  0  0  0  0  1  0  0  0  0  0  0
  160.1760  213.9510  150.9530 O   0  0  0  0  0  0  0  0  0  0  0  0
  160.2500  213.6130  149.7440 C   0  0  0  0  0  0  0  0  0  0  0  0
  161.0640  212.4970  149.3740 N   0  0  0  0  0  2  0  0  0  0  0  0
  163.5970  212.1530  147.6520 O   0  0  0  0  0  0  0  0  0  0  0  0
  162.3330  212.6540  147.2830 C   0  0  2  0  0  0  0  0  0  0  0  0
  163.2780  213.4590  148.0900 C   0  0  0  0  0  2  0  0  0  0  0  0
  162.1990  212.9630  145.7840 C   0  0  0  0  0  3  0  0  0  0  0  0
  160.7610  212.7940  145.3300 C   0  0  0  0  0  1  0  0  0  0  0  0
  162.6990  214.3460  145.3850 C   0  0  0  0  0  1  0  0  0  0  0  0
  1  9  1  0  0  0  0
  2  7  1  0  0  0  0
  3 10  1  0  0  0  0
  4  5  1  0  0  0  0
  5 15  1  1  0  0  0
  5 13  1  0  0  0  0
  6 30  1  1  0  0  0
  6  2  1  0  0  0  0
  6  7  1  0  0  0  0
  7  4  1  1  0  0  0
  7  1  1  0  0  0  0
  9 11  1  0  0  0  0
  9  3  2  0  0  0  0
 10  8  2  0  0  0  0
 10 14  1  0  0  0  0
 11 12  2  0  0  0  0
 12  8  1  0  0  0  0
 13 11  1  0  0  0  0
 16 15  1  0  0  0  0
 18 29  2  0  0  0  0
 19 28  1  0  0  0  0
 20 19  1  0  0  0  0
 20 29  1  0  0  0  0
 21 19  2  0  0  0  0
 22 17  1  0  0  0  0
 23 17  1  0  0  0  0
 24 26  2  0  0  0  0
 25 16  1  6  0  0  0
 25 22  1  0  0  0  0
 26 25  1  0  0  0  0
 27 23  1  0  0  0  0
 28 27  1  1  0  0  0
 28 26  1  0  0  0  0
 29 24  1  0  0  0  0
 30 34  1  1  0  0  0
 31 33  1  0  0  0  0
 33 32  2  0  0  0  0
 34 33  1  0  0  0  0
 35 37  1  0  0  0  0
 36 38  1  6  0  0  0
 36 35  1  0  0  0  0
 36 30  1  0  0  0  0
 36 37  1  0  0  0  0
 39 38  1  0  0  0  0
 40 38  1  0  0  0  0
M  END
>  <MODEL>
8

>  <REMARK>
 VINA RESULT:      -4.4      3.633      8.777
  Name = 
  7 active torsions:
  status: ('A' for Active; 'I' for Inactive)
    1  A    between atoms: N_1  and  C_13
    2  A    between atoms: N_1  and  N_34
    3  A    between atoms: C_6  and  C_12
    4  A    between atoms: C_6  and  C_17
    5  A    between atoms: C_6  and  N_38
    6  A    between atoms: C_7  and  C_12
    7  A    between atoms: C_30  and  N_34
                            x       y       z     vdW  Elec       q    Type
                         _______ _______ _______ _____ _____    ______ ____

>  <TORSDO>
F 7

$$$$
=
 OpenBabel11072410513D

 40 45  0  0  1  0  0  0  0  0999 V2000
  161.9540  211.1430  150.2920 C   0  0  0  0  0  2  0  0  0  0  0  0
  161.6340  210.0290  152.4420 O   0  0  0  0  0  0  0  0  0  0  0  0
  161.2020  211.7170  147.9750 C   0  0  0  0  0  3  0  0  0  0  0  0
  159.6390  211.1820  151.6350 C   0  0  0  0  0  2  0  0  0  0  0  0
  159.7610  212.6340  152.1280 C   0  0  1  0  0  3  0  0  0  0  0  0
  161.0450  209.0620  151.5970 C   0  0  1  0  0  3  0  0  0  0  0  0
  160.9760  210.5170  151.3000 C   0  0  1  0  0  0  0  0  0  0  0  0
  159.8670  213.6900  147.5340 C   0  0  0  0  0  3  0  0  0  0  0  0
  161.2470  212.0490  149.3320 C   0  0  0  0  0  0  0  0  0  0  0  0
  160.5150  212.5380  147.0760 C   0  0  0  0  0  0  0  0  0  0  0  0
  160.5960  213.2080  149.7920 C   0  0  0  0  0  0  0  0  0  0  0  0
  159.9050  214.0240  148.8910 C   0  0  0  0  0  3  0  0  0  0  0  0
  160.6210  213.5590  151.2510 C   0  0  0  0  0  2  0  0  0  0  0  0
  160.4610  212.1200  145.3790 Cl  0  0  0  0  0  0  0  0  0  0  0  0
  158.4330  213.2060  152.2750 N   0  0  0  0  0  2  0  0  0  0  0  0
  158.5090  214.1670  153.2930 N   0  0  0  0  0  2  0  0  0  0  0  0
  155.4260  212.7290  154.9850 C   0  0  0  0  0  2  0  0  0  0  0  0
  161.4710  212.8840  157.2600 O   0  0  0  0  0  0  0  0  0  0  0  0
  159.2680  210.3720  155.9060 C   0  0  0  0  0  0  0  0  0  0  0  0
  160.3750  210.9420  156.6000 N   0  0  0  0  0  2  0  0  0  0  0  0
  159.1960  209.1240  155.7610 O   0  0  0  0  0  0  0  0  0  0  0  0
  156.4750  212.9840  153.8960 C   0  0  0  0  0  2  0  0  0  0  0  0
  156.0030  212.3120  156.3410 C   0  0  0  0  0  2  0  0  0  0  0  0
  159.6470  213.1770  155.8390 N   0  0  0  0  0  0  0  0  0  0  0  0
  157.7470  213.6540  154.4200 C   0  0  1  0  0  3  0  0  0  0  0  0
  158.6010  212.7040  155.2260 C   0  0  0  0  0  0  0  0  0  0  0  0
  156.9190  211.0850  156.2760 C   0  0  0  0  0  2  0  0  0  0  0  0
  158.1670  211.2520  155.3920 C   0  0  2  0  0  3  0  0  0  0  0  0
  160.5320  212.3580  156.6070 C   0  0  0  0  0  0  0  0  0  0  0  0
  162.1310  208.3200  150.8090 C   0  0  1  0  0  3  0  0  0  0  0  0
  160.8190  207.3140  153.3130 C   0  0  0  0  0  1  0  0  0  0  0  0
  162.6650  205.8270  153.4430 O   0  0  0  0  0  0  0  0  0  0  0  0
  162.1100  206.7620  152.8120 C   0  0  0  0  0  0  0  0  0  0  0  0
  162.7360  207.2890  151.6400 N   0  0  0  0  0  2  0  0  0  0  0  0
  162.6560  207.3960  148.5700 O   0  0  0  0  0  0  0  0  0  0  0  0
  161.6340  207.7030  149.4900 C   0  0  2  0  0  0  0  0  0  0  0  0
  161.8170  208.4880  148.2480 C   0  0  0  0  0  2  0  0  0  0  0  0
  160.5080  206.6600  149.5400 C   0  0  0  0  0  3  0  0  0  0  0  0
  160.1030  206.2430  148.1390 C   0  0  0  0  0  1  0  0  0  0  0  0
  160.8400  205.4210  150.3630 C   0  0  0  0  0  1  0  0  0  0  0  0
  3  9  1  0  0  0  0
  4  5  1  0  0  0  0
  5 15  1  6  0  0  0
  6 30  1  6  0  0  0
  6  2  1  0  0  0  0
  7  1  1  6  0  0  0
  7  6  1  0  0  0  0
  7  4  1  0  0  0  0
  7  2  1  0  0  0  0
  8 12  2  0  0  0  0
  9 11  2  0  0  0  0
  9  1  1  0  0  0  0
 10  8  1  0  0  0  0
 10  3  2  0  0  0  0
 11 13  1  0  0  0  0
 12 11  1  0  0  0  0
 13  5  1  0  0  0  0
 14 10  1  0  0  0  0
 15 16  1  0  0  0  0
 17 23  1  0  0  0  0
 19 20  1  0  0  0  0
 20 29  1  0  0  0  0
 21 19  2  0  0  0  0
 22 25  1  0  0  0  0
 22 17  1  0  0  0  0
 24 29  1  0  0  0  0
 25 16  1  6  0  0  0
 25 26  1  0  0  0  0
 26 28  1  0  0  0  0
 26 24  2  0  0  0  0
 27 23  1  0  0  0  0
 28 19  1  0  0  0  0
 28 27  1  1  0  0  0
 29 18  2  0  0  0  0
 30 34  1  1  0  0  0
 33 31  1  0  0  0  0
 33 32  2  0  0  0  0
 34 33  1  0  0  0  0
 35 36  1  0  0  0  0
 36 38  1  1  0  0  0
 36 30  1  0  0  0  0
 37 35  1  0  0  0  0
 37 36  1  0  0  0  0
 38 40  1  0  0  0  0
 39 38  1  0  0  0  0
M  END
>  <MODEL>
9

>  <REMARK>
 VINA RESULT:      -4.3      3.472      6.324
  Name = 
  7 active torsions:
  status: ('A' for Active; 'I' for Inactive)
    1  A    between atoms: N_1  and  C_13
    2  A    between atoms: N_1  and  N_34
    3  A    between atoms: C_6  and  C_12
    4  A    between atoms: C_6  and  C_17
    5  A    between atoms: C_6  and  N_38
    6  A    between atoms: C_7  and  C_12
    7  A    between atoms: C_30  and  N_34
                            x       y       z     vdW  Elec       q    Type
                         _______ _______ _______ _____ _____    ______ ____

>  <TORSDO>
F 7

$$$$
