=
 OpenBabel11072410543D

 40 43  0  0  1  0  0  0  0  0999 V2000
  161.0910  206.7100  149.3100 C   0  0  0  0  0  2  0  0  0  0  0  0
  161.7990  209.1450  150.7370 C   0  0  0  0  0  0  0  0  0  0  0  0
  162.1150  209.0230  149.4810 N   0  0  0  0  0  0  0  0  0  0  0  0
  161.1150  208.0120  151.4950 C   0  0  1  0  0  3  0  0  0  0  0  0
  162.2910  207.7520  147.5380 O   0  0  0  0  0  0  0  0  0  0  0  0
  161.9630  210.4870  151.3640 C   0  0  0  0  0  1  0  0  0  0  0  0
  161.3370  206.6500  150.8120 C   0  0  1  0  0  3  0  0  0  0  0  0
  161.8820  207.8310  148.7240 C   0  0  0  0  0  0  0  0  0  0  0  0
  160.6270  206.9540  153.7680 C   0  0  0  0  0  2  0  0  0  0  0  0
  161.2060  208.8670  155.1800 C   0  0  2  0  0  3  0  0  0  0  0  0
  161.5050  209.2210  153.7260 C   0  0  0  0  0  2  0  0  0  0  0  0
  161.5040  207.9000  152.9780 C   0  0  2  0  0  3  0  0  0  0  0  0
  159.5990  207.0250  156.0470 C   0  0  0  0  0  1  0  0  0  0  0  0
  160.8180  207.3790  155.2070 C   0  0  1  0  0  3  0  0  0  0  0  0
  159.8060  212.1600  155.1850 C   0  0  2  0  0  0  0  0  0  0  0  0
  160.2620  212.3510  153.8780 O   0  0  0  0  0  1  0  0  0  0  0  0
  160.7870  211.2500  155.9080 C   0  0  0  0  0  2  0  0  0  0  0  0
  160.2130  209.8420  155.8370 C   0  0  1  0  0  3  0  0  0  0  0  0
  158.8870  209.9360  155.0950 C   0  0  0  0  0  2  0  0  0  0  0  0
  158.4840  211.3950  155.1380 C   0  0  1  0  0  3  0  0  0  0  0  0
  159.6850  213.4970  155.8690 C   0  0  0  0  0  0  0  0  0  0  0  0
  159.0490  214.4340  155.3200 O   0  0  0  0  0  0  0  0  0  0  0  0
  160.2100  213.6860  157.1440 O   0  0  0  0  0  1  0  0  0  0  0  0
  157.7190  211.6170  156.2920 O   0  0  0  0  0  0  0  0  0  0  0  0
  156.1420  212.7760  154.3470 O   0  0  0  0  0  0  0  0  0  0  0  0
  156.1250  211.8350  155.7520 P   0  0  0  0  0  0  0  0  0  0  0  0
  155.3140  212.5470  156.8130 O   0  0  0  0  0  1  0  0  0  0  0  0
  155.4160  210.3380  155.4090 O   0  0  0  0  0  1  0  0  0  0  0  0
  160.5540  205.6200  151.4170 O   0  0  0  0  0  0  0  0  0  0  0  0
  161.0080  204.3120  151.6300 C   0  0  0  0  0  0  0  0  0  0  0  0
  161.1370  203.8520  152.7980 O   0  0  0  0  0  0  0  0  0  0  0  0
  161.3790  203.4770  150.4470 C   0  0  2  0  0  3  0  0  0  0  0  0
  161.0580  203.1580  147.9780 C   0  0  0  0  0  2  0  0  0  0  0  0
  161.3740  201.1690  149.4520 C   0  0  0  0  0  2  0  0  0  0  0  0
  161.7230  201.5090  151.7830 O   0  0  0  0  0  1  0  0  0  0  0  0
  160.6920  204.0100  149.1890 C   0  0  0  0  0  2  0  0  0  0  0  0
  160.6560  201.7070  148.2170 C   0  0  2  0  0  3  0  0  0  0  0  0
  161.0210  202.0030  150.6810 C   0  0  1  0  0  3  0  0  0  0  0  0
  161.0220  200.8780  147.0000 C   0  0  0  0  0  2  0  0  0  0  0  0
  160.6810  201.5620  145.8330 O   0  0  0  0  0  1  0  0  0  0  0  0
  1  7  1  0  0  0  0
  2  6  1  0  0  0  0
  3  2  2  0  0  0  0
  4  2  1  6  0  0  0
  4 12  1  0  0  0  0
  5  8  2  0  0  0  0
  7 29  1  1  0  0  0
  7  4  1  0  0  0  0
  8  1  1  0  0  0  0
  8  3  1  0  0  0  0
  9 14  1  0  0  0  0
 10 11  1  6  0  0  0
 10 14  1  0  0  0  0
 10 18  1  0  0  0  0
 12 11  1  1  0  0  0
 12  9  1  0  0  0  0
 14 13  1  1  0  0  0
 15 16  1  6  0  0  0
 15 21  1  0  0  0  0
 15 17  1  0  0  0  0
 18 19  1  6  0  0  0
 18 17  1  0  0  0  0
 19 20  1  0  0  0  0
 20 15  1  0  0  0  0
 20 24  1  1  0  0  0
 21 23  1  0  0  0  0
 22 21  2  0  0  0  0
 25 26  2  0  0  0  0
 26 24  1  0  0  0  0
 26 27  1  0  0  0  0
 28 26  1  0  0  0  0
 29 30  1  0  0  0  0
 30 31  2  0  0  0  0
 32 38  1  0  0  0  0
 32 30  1  1  0  0  0
 33 37  1  0  0  0  0
 33 36  1  0  0  0  0
 34 38  1  0  0  0  0
 36 32  1  0  0  0  0
 37 39  1  6  0  0  0
 37 34  1  0  0  0  0
 38 35  1  1  0  0  0
 40 39  1  0  0  0  0
M  END
>  <MODEL>
1

>  <REMARK>
 VINA RESULT:      -8.5      0.000      0.000
  Name = 
  9 active torsions:
  status: ('A' for Active; 'I' for Inactive)
    1  A    between atoms: C_1  and  C_2
    2  A    between atoms: C_1  and  O_37
    3  A    between atoms: C_5  and  C_6
    4  A    between atoms: C_7  and  C_35
    5  A    between atoms: O_14  and  P_24
    6  A    between atoms: O_14  and  C_32
    7  A    between atoms: C_18  and  C_33
    8  A    between atoms: C_21  and  C_27
    9  A    between atoms: C_34  and  O_37
                            x       y       z     vdW  Elec       q    Type
                         _______ _______ _______ _____ _____    ______ ____

>  <TORSDO>
F 9

$$$$
=
 OpenBabel11072410543D

 40 43  0  0  1  0  0  0  0  0999 V2000
  159.2090  212.7260  153.4270 C   0  0  0  0  0  2  0  0  0  0  0  0
  160.1120  210.1680  154.4800 C   0  0  0  0  0  0  0  0  0  0  0  0
  159.7310  211.1010  155.3020 N   0  0  0  0  0  0  0  0  0  0  0  0
  160.1510  210.4070  152.9740 C   0  0  1  0  0  3  0  0  0  0  0  0
  159.0770  213.2930  155.7360 O   0  0  0  0  0  0  0  0  0  0  0  0
  160.3380  208.8040  155.0370 C   0  0  0  0  0  1  0  0  0  0  0  0
  160.2190  211.9070  152.6340 C   0  0  1  0  0  3  0  0  0  0  0  0
  159.3520  212.4150  154.8790 C   0  0  0  0  0  0  0  0  0  0  0  0
  161.4650  210.1270  150.8010 C   0  0  0  0  0  2  0  0  0  0  0  0
  161.8360  207.7100  150.9230 C   0  0  2  0  0  3  0  0  0  0  0  0
  161.1230  208.1620  152.1930 C   0  0  0  0  0  2  0  0  0  0  0  0
  161.2790  209.6720  152.2320 C   0  0  2  0  0  3  0  0  0  0  0  0
  161.9110  208.9450  148.6430 C   0  0  0  0  0  1  0  0  0  0  0  0
  162.1980  208.9820  150.1370 C   0  0  1  0  0  3  0  0  0  0  0  0
  161.6880  205.6190  148.0230 C   0  0  2  0  0  0  0  0  0  0  0  0
  163.0550  205.8180  147.8150 O   0  0  0  0  0  1  0  0  0  0  0  0
  161.1090  206.8780  148.6510 C   0  0  0  0  0  2  0  0  0  0  0  0
  161.0520  206.6330  150.1520 C   0  0  1  0  0  3  0  0  0  0  0  0
  161.5740  205.2230  150.3960 C   0  0  0  0  0  2  0  0  0  0  0  0
  161.5030  204.5120  149.0610 C   0  0  1  0  0  3  0  0  0  0  0  0
  161.0250  205.3040  146.7070 C   0  0  0  0  0  0  0  0  0  0  0  0
  160.1570  206.0830  146.2320 O   0  0  0  0  0  1  0  0  0  0  0  0
  161.4180  204.1910  145.9690 O   0  0  0  0  0  0  0  0  0  0  0  0
  160.2470  203.9000  148.9430 O   0  0  0  0  0  0  0  0  0  0  0  0
  161.1950  202.0620  150.7700 O   0  0  0  0  0  1  0  0  0  0  0  0
  160.5120  202.2490  149.2340 P   0  0  0  0  0  0  0  0  0  0  0  0
  161.4620  201.6880  148.1990 O   0  0  0  0  0  0  0  0  0  0  0  0
  159.0470  201.4040  149.1730 O   0  0  0  0  0  1  0  0  0  0  0  0
  160.0770  212.1400  151.2320 O   0  0  0  0  0  0  0  0  0  0  0  0
  160.0580  213.4120  150.6460 C   0  0  0  0  0  0  0  0  0  0  0  0
  160.1690  214.4520  151.3520 O   0  0  0  0  0  0  0  0  0  0  0  0
  159.8650  213.5220  149.1680 C   0  0  2  0  0  3  0  0  0  0  0  0
  158.1960  213.3730  147.3000 C   0  0  0  0  0  2  0  0  0  0  0  0
  160.5530  212.6490  146.9140 C   0  0  0  0  0  2  0  0  0  0  0  0
  162.1220  212.8470  148.6940 O   0  0  0  0  0  1  0  0  0  0  0  0
  158.4010  213.2710  148.8080 C   0  0  0  0  0  2  0  0  0  0  0  0
  159.0890  212.3690  146.5800 C   0  0  2  0  0  3  0  0  0  0  0  0
  160.7860  212.5490  148.4190 C   0  0  1  0  0  3  0  0  0  0  0  0
  158.8670  212.4820  145.0830 C   0  0  0  0  0  2  0  0  0  0  0  0
  160.0540  212.2180  144.4000 O   0  0  0  0  0  1  0  0  0  0  0  0
  1  8  1  0  0  0  0
  2  6  1  0  0  0  0
  2  3  2  0  0  0  0
  4  2  1  1  0  0  0
  7 29  1  6  0  0  0
  7  4  1  0  0  0  0
  7  1  1  0  0  0  0
  8  3  1  0  0  0  0
  8  5  2  0  0  0  0
 10 11  1  1  0  0  0
 11 12  1  0  0  0  0
 12  9  1  6  0  0  0
 12  4  1  0  0  0  0
 14 13  1  6  0  0  0
 14  9  1  0  0  0  0
 14 10  1  0  0  0  0
 15 16  1  6  0  0  0
 15 17  1  0  0  0  0
 15 20  1  0  0  0  0
 18 17  1  6  0  0  0
 18 19  1  0  0  0  0
 18 10  1  0  0  0  0
 20 24  1  6  0  0  0
 20 19  1  0  0  0  0
 21 15  1  0  0  0  0
 22 21  1  0  0  0  0
 23 21  2  0  0  0  0
 24 26  1  0  0  0  0
 26 25  1  0  0  0  0
 27 26  2  0  0  0  0
 28 26  1  0  0  0  0
 30 29  1  0  0  0  0
 30 31  2  0  0  0  0
 32 30  1  1  0  0  0
 33 36  1  0  0  0  0
 34 38  1  0  0  0  0
 36 32  1  0  0  0  0
 37 39  1  6  0  0  0
 37 34  1  0  0  0  0
 37 33  1  0  0  0  0
 38 35  1  6  0  0  0
 38 32  1  0  0  0  0
 40 39  1  0  0  0  0
M  END
>  <MODEL>
2

>  <REMARK>
 VINA RESULT:      -7.1      3.816      9.451
  Name = 
  9 active torsions:
  status: ('A' for Active; 'I' for Inactive)
    1  A    between atoms: C_1  and  C_2
    2  A    between atoms: C_1  and  O_37
    3  A    between atoms: C_5  and  C_6
    4  A    between atoms: C_7  and  C_35
    5  A    between atoms: O_14  and  P_24
    6  A    between atoms: O_14  and  C_32
    7  A    between atoms: C_18  and  C_33
    8  A    between atoms: C_21  and  C_27
    9  A    between atoms: C_34  and  O_37
                            x       y       z     vdW  Elec       q    Type
                         _______ _______ _______ _____ _____    ______ ____

>  <TORSDO>
F 9

$$$$
=
 OpenBabel11072410543D

 40 43  0  0  1  0  0  0  0  0999 V2000
  160.9360  210.2900  152.9630 C   0  0  0  0  0  2  0  0  0  0  0  0
  161.9300  208.4610  150.9290 C   0  0  0  0  0  0  0  0  0  0  0  0
  161.8890  209.7370  150.6800 N   0  0  0  0  0  0  0  0  0  0  0  0
  161.4120  207.8960  152.2480 C   0  0  1  0  0  3  0  0  0  0  0  0
  161.2540  211.9050  151.2430 O   0  0  0  0  0  0  0  0  0  0  0  0
  162.6600  207.5900  149.9650 C   0  0  0  0  0  1  0  0  0  0  0  0
  160.4230  208.8560  152.9330 C   0  0  1  0  0  3  0  0  0  0  0  0
  161.3400  210.6990  151.5860 C   0  0  0  0  0  0  0  0  0  0  0  0
  161.5690  205.4130  152.8270 C   0  0  0  0  0  2  0  0  0  0  0  0
  160.5750  204.5100  150.7810 C   0  0  2  0  0  3  0  0  0  0  0  0
  160.5170  206.0330  150.7250 C   0  0  0  0  0  2  0  0  0  0  0  0
  160.7710  206.5020  152.1460 C   0  0  2  0  0  3  0  0  0  0  0  0
  162.1530  203.0540  152.2370 C   0  0  0  0  0  1  0  0  0  0  0  0
  161.0810  204.1340  152.1840 C   0  0  1  0  0  3  0  0  0  0  0  0
  160.6100  202.0350  148.1960 C   0  0  2  0  0  0  0  0  0  0  0  0
  159.2280  201.8810  148.3310 O   0  0  0  0  0  1  0  0  0  0  0  0
  161.1900  202.3860  149.5580 C   0  0  0  0  0  2  0  0  0  0  0  0
  161.3420  203.9000  149.5930 C   0  0  1  0  0  3  0  0  0  0  0  0
  160.8740  204.4290  148.2440 C   0  0  0  0  0  2  0  0  0  0  0  0
  160.8860  203.2430  147.3010 C   0  0  1  0  0  3  0  0  0  0  0  0
  161.2020  200.7600  147.6560 C   0  0  0  0  0  0  0  0  0  0  0  0
  161.8700  200.0030  148.4090 O   0  0  0  0  0  1  0  0  0  0  0  0
  160.9550  200.3690  146.3440 O   0  0  0  0  0  0  0  0  0  0  0  0
  162.1490  203.1600  146.6990 O   0  0  0  0  0  0  0  0  0  0  0  0
  160.8410  204.5140  144.6810 O   0  0  0  0  0  0  0  0  0  0  0  0
  162.2380  204.4790  145.6340 P   0  0  0  0  0  0  0  0  0  0  0  0
  163.4460  204.3350  144.7340 O   0  0  0  0  0  1  0  0  0  0  0  0
  162.3510  205.9250  146.5050 O   0  0  0  0  0  1  0  0  0  0  0  0
  160.0760  208.4110  154.2460 O   0  0  0  0  0  0  0  0  0  0  0  0
  160.7680  208.7800  155.4070 C   0  0  0  0  0  0  0  0  0  0  0  0
  161.7890  208.1410  155.7840 O   0  0  0  0  0  0  0  0  0  0  0  0
  160.2530  209.9240  156.2200 C   0  0  2  0  0  3  0  0  0  0  0  0
  158.3070  211.4640  156.5930 C   0  0  0  0  0  2  0  0  0  0  0  0
  160.6330  212.3050  156.9260 C   0  0  0  0  0  2  0  0  0  0  0  0
  162.4540  210.8050  156.6090 O   0  0  0  0  0  1  0  0  0  0  0  0
  158.8370  210.2920  155.7740 C   0  0  0  0  0  2  0  0  0  0  0  0
  159.2310  212.6680  156.4440 C   0  0  2  0  0  3  0  0  0  0  0  0
  161.1900  211.1350  156.1190 C   0  0  1  0  0  3  0  0  0  0  0  0
  158.6830  213.8250  157.2610 C   0  0  0  0  0  2  0  0  0  0  0  0
  157.2890  213.7960  157.2580 O   0  0  0  0  0  1  0  0  0  0  0  0
  3  2  2  0  0  0  0
  3  8  1  0  0  0  0
  4  2  1  6  0  0  0
  4  7  1  0  0  0  0
  5  8  2  0  0  0  0
  6  2  1  0  0  0  0
  7  1  1  0  0  0  0
  7 29  1  1  0  0  0
  8  1  1  0  0  0  0
 10 11  1  6  0  0  0
 10 14  1  0  0  0  0
 12 11  1  6  0  0  0
 12  4  1  0  0  0  0
 12  9  1  0  0  0  0
 14 13  1  6  0  0  0
 14  9  1  0  0  0  0
 15 16  1  1  0  0  0
 15 17  1  0  0  0  0
 17 18  1  0  0  0  0
 18 19  1  6  0  0  0
 18 10  1  0  0  0  0
 20 24  1  1  0  0  0
 20 15  1  0  0  0  0
 20 19  1  0  0  0  0
 21 15  1  0  0  0  0
 21 22  1  0  0  0  0
 23 21  2  0  0  0  0
 25 26  2  0  0  0  0
 26 28  1  0  0  0  0
 26 24  1  0  0  0  0
 27 26  1  0  0  0  0
 29 30  1  0  0  0  0
 30 31  2  0  0  0  0
 32 30  1  6  0  0  0
 36 32  1  0  0  0  0
 36 33  1  0  0  0  0
 37 33  1  0  0  0  0
 37 34  1  0  0  0  0
 37 39  1  1  0  0  0
 38 32  1  0  0  0  0
 38 35  1  1  0  0  0
 38 34  1  0  0  0  0
 40 39  1  0  0  0  0
M  END
>  <MODEL>
3

>  <REMARK>
 VINA RESULT:      -6.9      2.971     10.317
  Name = 
  9 active torsions:
  status: ('A' for Active; 'I' for Inactive)
    1  A    between atoms: C_1  and  C_2
    2  A    between atoms: C_1  and  O_37
    3  A    between atoms: C_5  and  C_6
    4  A    between atoms: C_7  and  C_35
    5  A    between atoms: O_14  and  P_24
    6  A    between atoms: O_14  and  C_32
    7  A    between atoms: C_18  and  C_33
    8  A    between atoms: C_21  and  C_27
    9  A    between atoms: C_34  and  O_37
                            x       y       z     vdW  Elec       q    Type
                         _______ _______ _______ _____ _____    ______ ____

>  <TORSDO>
F 9

$$$$
=
 OpenBabel11072410543D

 40 43  0  0  1  0  0  0  0  0999 V2000
  161.2260  211.5160  151.3180 C   0  0  0  0  0  2  0  0  0  0  0  0
  162.0390  209.2410  149.6940 C   0  0  0  0  0  0  0  0  0  0  0  0
  161.9740  210.4240  149.1550 N   0  0  0  0  0  0  0  0  0  0  0  0
  161.6400  209.0120  151.1480 C   0  0  1  0  0  3  0  0  0  0  0  0
  161.3890  212.6760  149.2450 O   0  0  0  0  0  0  0  0  0  0  0  0
  162.6820  208.1550  148.9020 C   0  0  0  0  0  1  0  0  0  0  0  0
  160.7140  210.1250  151.6700 C   0  0  1  0  0  3  0  0  0  0  0  0
  161.5060  211.5820  149.8540 C   0  0  0  0  0  0  0  0  0  0  0  0
  161.8330  206.7450  152.3110 C   0  0  0  0  0  2  0  0  0  0  0  0
  160.7120  205.3820  150.6150 C   0  0  2  0  0  3  0  0  0  0  0  0
  160.6500  206.8450  150.1890 C   0  0  0  0  0  2  0  0  0  0  0  0
  160.9930  207.6460  151.4320 C   0  0  2  0  0  3  0  0  0  0  0  0
  162.3790  204.3050  152.2850 C   0  0  0  0  0  1  0  0  0  0  0  0
  161.3060  205.3550  152.0340 C   0  0  1  0  0  3  0  0  0  0  0  0
  160.6010  202.3310  148.7490 C   0  0  2  0  0  0  0  0  0  0  0  0
  159.2350  202.2210  149.0180 O   0  0  0  0  0  1  0  0  0  0  0  0
  161.2700  203.0150  149.9310 C   0  0  0  0  0  2  0  0  0  0  0  0
  161.4020  204.4870  149.5700 C   0  0  1  0  0  3  0  0  0  0  0  0
  160.8320  204.6570  148.1670 C   0  0  0  0  0  2  0  0  0  0  0  0
  160.7950  203.2700  147.5590 C   0  0  1  0  0  3  0  0  0  0  0  0
  161.1720  200.9570  148.5100 C   0  0  0  0  0  0  0  0  0  0  0  0
  161.6690  200.3030  149.4640 O   0  0  0  0  0  1  0  0  0  0  0  0
  161.0900  200.3690  147.2510 O   0  0  0  0  0  0  0  0  0  0  0  0
  162.0140  203.0310  146.9080 O   0  0  0  0  0  0  0  0  0  0  0  0
  163.5560  203.9790  144.8250 O   0  0  0  0  0  1  0  0  0  0  0  0
  162.1410  204.2330  145.7160 P   0  0  0  0  0  0  0  0  0  0  0  0
  162.2040  205.5980  146.3640 O   0  0  0  0  0  1  0  0  0  0  0  0
  160.8100  204.1630  144.6740 O   0  0  0  0  0  0  0  0  0  0  0  0
  160.4850  210.0070  153.0760 O   0  0  0  0  0  0  0  0  0  0  0  0
  160.0930  211.0710  153.8980 C   0  0  0  0  0  0  0  0  0  0  0  0
  160.9040  211.5980  154.7090 O   0  0  0  0  0  0  0  0  0  0  0  0
  158.6790  211.5520  153.8290 C   0  0  2  0  0  3  0  0  0  0  0  0
  157.1800  213.4200  153.0790 C   0  0  0  0  0  2  0  0  0  0  0  0
  156.6190  212.1350  155.1440 C   0  0  0  0  0  2  0  0  0  0  0  0
  158.0360  210.3390  155.8020 O   0  0  0  0  0  1  0  0  0  0  0  0
  158.6190  212.9180  153.1470 C   0  0  0  0  0  2  0  0  0  0  0  0
  156.5900  213.5110  154.4820 C   0  0  2  0  0  3  0  0  0  0  0  0
  158.0500  211.6110  155.2280 C   0  0  1  0  0  3  0  0  0  0  0  0
  155.1620  214.0170  154.3940 C   0  0  0  0  0  2  0  0  0  0  0  0
  154.7220  213.9820  153.0720 O   0  0  0  0  0  1  0  0  0  0  0  0
  1  7  1  0  0  0  0
  3  2  2  0  0  0  0
  3  8  1  0  0  0  0
  4  2  1  6  0  0  0
  4 12  1  0  0  0  0
  4  7  1  0  0  0  0
  5  8  2  0  0  0  0
  6  2  1  0  0  0  0
  7 29  1  1  0  0  0
  8  1  1  0  0  0  0
 10 11  1  6  0  0  0
 10 14  1  0  0  0  0
 12 11  1  6  0  0  0
 12  9  1  0  0  0  0
 14 13  1  6  0  0  0
 14  9  1  0  0  0  0
 15 16  1  1  0  0  0
 15 17  1  0  0  0  0
 18 19  1  6  0  0  0
 18 17  1  0  0  0  0
 18 10  1  0  0  0  0
 20 24  1  1  0  0  0
 20 19  1  0  0  0  0
 20 15  1  0  0  0  0
 21 15  1  0  0  0  0
 21 22  1  0  0  0  0
 23 21  2  0  0  0  0
 25 26  1  0  0  0  0
 26 27  1  0  0  0  0
 26 24  1  0  0  0  0
 28 26  2  0  0  0  0
 29 30  1  0  0  0  0
 30 31  2  0  0  0  0
 32 30  1  1  0  0  0
 32 38  1  0  0  0  0
 33 36  1  0  0  0  0
 33 37  1  0  0  0  0
 34 38  1  0  0  0  0
 36 32  1  0  0  0  0
 37 39  1  6  0  0  0
 37 34  1  0  0  0  0
 38 35  1  6  0  0  0
 40 39  1  0  0  0  0
M  END
>  <MODEL>
4

>  <REMARK>
 VINA RESULT:      -6.4      3.117     10.169
  Name = 
  9 active torsions:
  status: ('A' for Active; 'I' for Inactive)
    1  A    between atoms: C_1  and  C_2
    2  A    between atoms: C_1  and  O_37
    3  A    between atoms: C_5  and  C_6
    4  A    between atoms: C_7  and  C_35
    5  A    between atoms: O_14  and  P_24
    6  A    between atoms: O_14  and  C_32
    7  A    between atoms: C_18  and  C_33
    8  A    between atoms: C_21  and  C_27
    9  A    between atoms: C_34  and  O_37
                            x       y       z     vdW  Elec       q    Type
                         _______ _______ _______ _____ _____    ______ ____

>  <TORSDO>
F 9

$$$$
=
 OpenBabel11072410543D

 40 43  0  0  1  0  0  0  0  0999 V2000
  160.3670  208.5180  155.5230 C   0  0  0  0  0  2  0  0  0  0  0  0
  160.8360  206.2020  153.8240 C   0  0  0  0  0  0  0  0  0  0  0  0
  160.6840  206.0370  155.1060 N   0  0  0  0  0  0  0  0  0  0  0  0
  160.8320  207.5940  153.2000 C   0  0  1  0  0  3  0  0  0  0  0  0
  160.4760  206.8940  157.2610 O   0  0  0  0  0  0  0  0  0  0  0  0
  160.8350  204.9850  152.9650 C   0  0  0  0  0  1  0  0  0  0  0  0
  161.1590  208.6860  154.2340 C   0  0  1  0  0  3  0  0  0  0  0  0
  160.5320  207.1230  156.0260 C   0  0  0  0  0  0  0  0  0  0  0  0
  161.2970  208.8160  151.0050 C   0  0  0  0  0  2  0  0  0  0  0  0
  162.2660  206.9450  149.7580 C   0  0  2  0  0  3  0  0  0  0  0  0
  161.9730  206.4870  151.1830 C   0  0  0  0  0  2  0  0  0  0  0  0
  161.7590  207.7580  151.9840 C   0  0  2  0  0  3  0  0  0  0  0  0
  161.2060  208.9580  148.5100 C   0  0  0  0  0  1  0  0  0  0  0  0
  161.9960  208.4590  149.7120 C   0  0  1  0  0  3  0  0  0  0  0  0
  162.5660  205.0240  146.7550 C   0  0  2  0  0  0  0  0  0  0  0  0
  163.9430  204.9190  146.9640 O   0  0  0  0  0  1  0  0  0  0  0  0
  162.0950  206.3610  147.3060 C   0  0  0  0  0  2  0  0  0  0  0  0
  161.5450  206.0920  148.6990 C   0  0  1  0  0  3  0  0  0  0  0  0
  161.6710  204.5950  148.9490 C   0  0  0  0  0  2  0  0  0  0  0  0
  161.8580  203.9560  147.5890 C   0  0  1  0  0  3  0  0  0  0  0  0
  162.2770  204.9020  145.2810 C   0  0  0  0  0  0  0  0  0  0  0  0
  162.6380  203.8740  144.6480 O   0  0  0  0  0  1  0  0  0  0  0  0
  161.5450  205.8840  144.6220 O   0  0  0  0  0  0  0  0  0  0  0  0
  160.5970  203.6430  147.0620 O   0  0  0  0  0  0  0  0  0  0  0  0
  159.4890  201.5550  148.4860 O   0  0  0  0  0  1  0  0  0  0  0  0
  160.4640  201.9540  147.1630 P   0  0  0  0  0  0  0  0  0  0  0  0
  161.8330  201.3390  147.3560 O   0  0  0  0  0  1  0  0  0  0  0  0
  159.7620  201.3390  145.7520 O   0  0  0  0  0  0  0  0  0  0  0  0
  160.9820  209.9980  153.6940 O   0  0  0  0  0  0  0  0  0  0  0  0
  160.9690  211.1670  154.4640 C   0  0  0  0  0  0  0  0  0  0  0  0
  161.9010  211.4190  155.2760 O   0  0  0  0  0  0  0  0  0  0  0  0
  159.8080  212.1000  154.3360 C   0  0  2  0  0  3  0  0  0  0  0  0
  157.5950  212.7680  155.3140 C   0  0  0  0  0  2  0  0  0  0  0  0
  157.9550  212.9170  152.8480 C   0  0  0  0  0  2  0  0  0  0  0  0
  160.0820  212.3210  151.9590 O   0  0  0  0  0  1  0  0  0  0  0  0
  158.7870  211.8250  155.4410 C   0  0  0  0  0  2  0  0  0  0  0  0
  156.9410  212.6050  153.9460 C   0  0  2  0  0  3  0  0  0  0  0  0
  159.1590  211.9840  152.9510 C   0  0  1  0  0  3  0  0  0  0  0  0
  155.7550  213.5450  153.8410 C   0  0  0  0  0  2  0  0  0  0  0  0
  155.2490  213.8220  155.1110 O   0  0  0  0  0  1  0  0  0  0  0  0
  1  8  1  0  0  0  0
  2  3  2  0  0  0  0
  3  8  1  0  0  0  0
  4  2  1  1  0  0  0
  4  7  1  0  0  0  0
  6  2  1  0  0  0  0
  7 29  1  6  0  0  0
  7  1  1  0  0  0  0
  8  5  2  0  0  0  0
 10 11  1  1  0  0  0
 11 12  1  0  0  0  0
 12  9  1  6  0  0  0
 12  4  1  0  0  0  0
 14 13  1  6  0  0  0
 14 10  1  0  0  0  0
 14  9  1  0  0  0  0
 15 16  1  1  0  0  0
 15 17  1  0  0  0  0
 15 20  1  0  0  0  0
 18 17  1  6  0  0  0
 18 19  1  0  0  0  0
 18 10  1  0  0  0  0
 20 24  1  6  0  0  0
 20 19  1  0  0  0  0
 21 15  1  0  0  0  0
 22 21  1  0  0  0  0
 23 21  2  0  0  0  0
 24 26  1  0  0  0  0
 26 27  1  0  0  0  0
 26 25  1  0  0  0  0
 28 26  2  0  0  0  0
 29 30  1  0  0  0  0
 30 31  2  0  0  0  0
 32 30  1  6  0  0  0
 32 36  1  0  0  0  0
 33 36  1  0  0  0  0
 34 38  1  0  0  0  0
 34 37  1  0  0  0  0
 37 39  1  1  0  0  0
 37 33  1  0  0  0  0
 38 35  1  6  0  0  0
 38 32  1  0  0  0  0
 39 40  1  0  0  0  0
M  END
>  <MODEL>
5

>  <REMARK>
 VINA RESULT:      -6.4      3.332     10.310
  Name = 
  9 active torsions:
  status: ('A' for Active; 'I' for Inactive)
    1  A    between atoms: C_1  and  C_2
    2  A    between atoms: C_1  and  O_37
    3  A    between atoms: C_5  and  C_6
    4  A    between atoms: C_7  and  C_35
    5  A    between atoms: O_14  and  P_24
    6  A    between atoms: O_14  and  C_32
    7  A    between atoms: C_18  and  C_33
    8  A    between atoms: C_21  and  C_27
    9  A    between atoms: C_34  and  O_37
                            x       y       z     vdW  Elec       q    Type
                         _______ _______ _______ _____ _____    ______ ____

>  <TORSDO>
F 9

$$$$
=
 OpenBabel11072410543D

 40 43  0  0  1  0  0  0  0  0999 V2000
  160.8340  204.8230  147.3360 C   0  0  0  0  0  2  0  0  0  0  0  0
  162.0380  207.3120  148.2440 C   0  0  0  0  0  0  0  0  0  0  0  0
  162.1470  206.9650  146.9940 N   0  0  0  0  0  0  0  0  0  0  0  0
  161.3410  206.4100  149.2570 C   0  0  1  0  0  3  0  0  0  0  0  0
  161.8750  205.4140  145.2780 O   0  0  0  0  0  0  0  0  0  0  0  0
  162.4560  208.6930  148.6170 C   0  0  0  0  0  1  0  0  0  0  0  0
  161.2910  204.9470  148.7830 C   0  0  1  0  0  3  0  0  0  0  0  0
  161.6590  205.7220  146.4780 C   0  0  0  0  0  0  0  0  0  0  0  0
  161.3150  205.4550  151.6270 C   0  0  0  0  0  2  0  0  0  0  0  0
  161.7740  207.5270  152.8470 C   0  0  2  0  0  3  0  0  0  0  0  0
  161.8270  207.8160  151.3510 C   0  0  0  0  0  2  0  0  0  0  0  0
  161.9290  206.4600  150.6770 C   0  0  2  0  0  3  0  0  0  0  0  0
  160.5900  205.5380  154.0180 C   0  0  0  0  0  1  0  0  0  0  0  0
  161.6230  206.0030  153.0020 C   0  0  1  0  0  3  0  0  0  0  0  0
  161.2110  210.2500  155.0990 C   0  0  2  0  0  0  0  0  0  0  0  0
  162.5130  210.7030  154.8700 O   0  0  0  0  0  1  0  0  0  0  0  0
  161.2040  208.7320  154.9930 C   0  0  0  0  0  2  0  0  0  0  0  0
  160.7380  208.3930  153.5850 C   0  0  1  0  0  3  0  0  0  0  0  0
  160.4490  209.7110  152.8780 C   0  0  0  0  0  2  0  0  0  0  0  0
  160.3090  210.7510  153.9710 C   0  0  1  0  0  3  0  0  0  0  0  0
  160.7570  210.7100  156.4600 C   0  0  0  0  0  0  0  0  0  0  0  0
  161.2370  211.7590  156.9660 O   0  0  0  0  0  0  0  0  0  0  0  0
  159.7520  210.0270  157.1360 O   0  0  0  0  0  1  0  0  0  0  0  0
  158.9670  210.8060  154.3710 O   0  0  0  0  0  0  0  0  0  0  0  0
  158.5250  212.5100  152.2460 O   0  0  0  0  0  0  0  0  0  0  0  0
  158.4180  212.3490  153.9260 P   0  0  0  0  0  0  0  0  0  0  0  0
  159.2760  213.4100  154.5800 O   0  0  0  0  0  1  0  0  0  0  0  0
  156.8070  212.5540  154.4010 O   0  0  0  0  0  1  0  0  0  0  0  0
  160.4870  204.1380  149.6440 O   0  0  0  0  0  0  0  0  0  0  0  0
  160.4560  202.7380  149.6020 C   0  0  0  0  0  0  0  0  0  0  0  0
  160.0270  202.0690  150.5820 O   0  0  0  0  0  0  0  0  0  0  0  0
  160.9790  202.0430  148.3860 C   0  0  2  0  0  3  0  0  0  0  0  0
  160.4590  201.3640  146.0270 C   0  0  0  0  0  2  0  0  0  0  0  0
  161.8830  199.8920  147.4530 C   0  0  0  0  0  2  0  0  0  0  0  0
  162.3960  200.5880  149.6710 O   0  0  0  0  0  1  0  0  0  0  0  0
  159.9370  202.0790  147.2690 C   0  0  0  0  0  2  0  0  0  0  0  0
  160.8140  199.9200  146.3630 C   0  0  2  0  0  3  0  0  0  0  0  0
  161.3830  200.5980  148.7110 C   0  0  1  0  0  3  0  0  0  0  0  0
  161.3260  199.2250  145.1150 C   0  0  0  0  0  2  0  0  0  0  0  0
  161.2250  197.8420  145.2600 O   0  0  0  0  0  1  0  0  0  0  0  0
  1  7  1  0  0  0  0
  2  6  1  0  0  0  0
  3  2  2  0  0  0  0
  4  2  1  6  0  0  0
  4 12  1  0  0  0  0
  5  8  2  0  0  0  0
  7  4  1  0  0  0  0
  7 29  1  1  0  0  0
  8  3  1  0  0  0  0
  8  1  1  0  0  0  0
  9 14  1  0  0  0  0
 10 11  1  6  0  0  0
 10 14  1  0  0  0  0
 10 18  1  0  0  0  0
 12 11  1  1  0  0  0
 12  9  1  0  0  0  0
 14 13  1  1  0  0  0
 15 16  1  6  0  0  0
 15 21  1  0  0  0  0
 17 15  1  0  0  0  0
 18 19  1  6  0  0  0
 18 17  1  0  0  0  0
 19 20  1  0  0  0  0
 20 24  1  1  0  0  0
 20 15  1  0  0  0  0
 21 22  2  0  0  0  0
 21 23  1  0  0  0  0
 25 26  2  0  0  0  0
 26 24  1  0  0  0  0
 26 28  1  0  0  0  0
 26 27  1  0  0  0  0
 30 29  1  0  0  0  0
 30 31  2  0  0  0  0
 32 38  1  0  0  0  0
 32 30  1  1  0  0  0
 33 37  1  0  0  0  0
 33 36  1  0  0  0  0
 34 38  1  0  0  0  0
 36 32  1  0  0  0  0
 37 39  1  6  0  0  0
 37 34  1  0  0  0  0
 38 35  1  1  0  0  0
 39 40  1  0  0  0  0
M  END
>  <MODEL>
6

>  <REMARK>
 VINA RESULT:      -6.2      1.941      2.917
  Name = 
  9 active torsions:
  status: ('A' for Active; 'I' for Inactive)
    1  A    between atoms: C_1  and  C_2
    2  A    between atoms: C_1  and  O_37
    3  A    between atoms: C_5  and  C_6
    4  A    between atoms: C_7  and  C_35
    5  A    between atoms: O_14  and  P_24
    6  A    between atoms: O_14  and  C_32
    7  A    between atoms: C_18  and  C_33
    8  A    between atoms: C_21  and  C_27
    9  A    between atoms: C_34  and  O_37
                            x       y       z     vdW  Elec       q    Type
                         _______ _______ _______ _____ _____    ______ ____

>  <TORSDO>
F 9

$$$$
=
 OpenBabel11072410543D

 40 43  0  0  1  0  0  0  0  0999 V2000
  161.1160  211.3830  151.5320 C   0  0  0  0  0  2  0  0  0  0  0  0
  162.0040  209.1420  149.9010 C   0  0  0  0  0  0  0  0  0  0  0  0
  161.9520  210.3340  149.3800 N   0  0  0  0  0  0  0  0  0  0  0  0
  161.5520  208.8850  151.3350 C   0  0  1  0  0  3  0  0  0  0  0  0
  161.3490  212.5800  149.4870 O   0  0  0  0  0  0  0  0  0  0  0  0
  162.6830  208.0730  149.1160 C   0  0  0  0  0  1  0  0  0  0  0  0
  160.6000  209.9840  151.8410 C   0  0  1  0  0  3  0  0  0  0  0  0
  161.4500  211.4770  150.0810 C   0  0  0  0  0  0  0  0  0  0  0  0
  161.7260  206.5930  152.4500 C   0  0  0  0  0  2  0  0  0  0  0  0
  160.6540  205.2650  150.6950 C   0  0  2  0  0  3  0  0  0  0  0  0
  160.5970  206.7370  150.3010 C   0  0  0  0  0  2  0  0  0  0  0  0
  160.9050  207.5110  151.5710 C   0  0  2  0  0  3  0  0  0  0  0  0
  162.2830  204.1560  152.3830 C   0  0  0  0  0  1  0  0  0  0  0  0
  161.2120  205.2080  152.1280 C   0  0  1  0  0  3  0  0  0  0  0  0
  160.6150  202.2470  148.7740 C   0  0  2  0  0  0  0  0  0  0  0  0
  159.2450  202.1170  149.0140 O   0  0  0  0  0  1  0  0  0  0  0  0
  161.2530  202.9170  149.9810 C   0  0  0  0  0  2  0  0  0  0  0  0
  161.3740  204.3970  149.6480 C   0  0  1  0  0  3  0  0  0  0  0  0
  160.8290  204.5850  148.2380 C   0  0  0  0  0  2  0  0  0  0  0  0
  160.8210  203.2090  147.6050 C   0  0  1  0  0  3  0  0  0  0  0  0
  161.2060  200.8840  148.5220 C   0  0  0  0  0  0  0  0  0  0  0  0
  161.6170  200.1840  149.4840 O   0  0  0  0  0  1  0  0  0  0  0  0
  161.2370  200.3560  147.2350 O   0  0  0  0  0  0  0  0  0  0  0  0
  162.0540  202.9960  146.9730 O   0  0  0  0  0  0  0  0  0  0  0  0
  163.5830  203.9510  144.8840 O   0  0  0  0  0  1  0  0  0  0  0  0
  162.1850  204.2130  145.7980 P   0  0  0  0  0  0  0  0  0  0  0  0
  162.2780  205.5680  146.4660 O   0  0  0  0  0  1  0  0  0  0  0  0
  160.8390  204.1810  144.7730 O   0  0  0  0  0  0  0  0  0  0  0  0
  160.3190  209.8400  153.2350 O   0  0  0  0  0  0  0  0  0  0  0  0
  160.8630  210.6590  154.2330 C   0  0  0  0  0  0  0  0  0  0  0  0
  162.1110  210.7240  154.4090 O   0  0  0  0  0  0  0  0  0  0  0  0
  159.9360  211.4300  155.1170 C   0  0  2  0  0  3  0  0  0  0  0  0
  158.4220  211.2990  157.1130 C   0  0  0  0  0  2  0  0  0  0  0  0
  157.8470  212.8220  155.2210 C   0  0  0  0  0  2  0  0  0  0  0  0
  159.3290  212.9570  153.3630 O   0  0  0  0  0  1  0  0  0  0  0  0
  159.3750  210.5230  156.2110 C   0  0  0  0  0  2  0  0  0  0  0  0
  157.2820  211.8880  156.2880 C   0  0  2  0  0  3  0  0  0  0  0  0
  158.8030  212.0670  154.3010 C   0  0  1  0  0  3  0  0  0  0  0  0
  156.3420  212.6510  157.2040 C   0  0  0  0  0  2  0  0  0  0  0  0
  156.4340  214.0190  156.9520 O   0  0  0  0  0  1  0  0  0  0  0  0
  1  7  1  0  0  0  0
  3  2  2  0  0  0  0
  3  8  1  0  0  0  0
  4  2  1  6  0  0  0
  4 12  1  0  0  0  0
  4  7  1  0  0  0  0
  5  8  2  0  0  0  0
  6  2  1  0  0  0  0
  7 29  1  1  0  0  0
  8  1  1  0  0  0  0
 10 11  1  6  0  0  0
 10 14  1  0  0  0  0
 12 11  1  6  0  0  0
 12  9  1  0  0  0  0
 14 13  1  6  0  0  0
 14  9  1  0  0  0  0
 15 16  1  1  0  0  0
 15 17  1  0  0  0  0
 18 19  1  6  0  0  0
 18 17  1  0  0  0  0
 18 10  1  0  0  0  0
 20 24  1  1  0  0  0
 20 19  1  0  0  0  0
 20 15  1  0  0  0  0
 21 15  1  0  0  0  0
 21 22  1  0  0  0  0
 23 21  2  0  0  0  0
 25 26  1  0  0  0  0
 26 27  1  0  0  0  0
 26 24  1  0  0  0  0
 28 26  2  0  0  0  0
 29 30  1  0  0  0  0
 30 31  2  0  0  0  0
 32 30  1  6  0  0  0
 32 36  1  0  0  0  0
 34 37  1  0  0  0  0
 36 33  1  0  0  0  0
 37 33  1  0  0  0  0
 37 39  1  1  0  0  0
 38 35  1  6  0  0  0
 38 32  1  0  0  0  0
 38 34  1  0  0  0  0
 40 39  1  0  0  0  0
M  END
>  <MODEL>
7

>  <REMARK>
 VINA RESULT:      -6.1      3.037     10.255
  Name = 
  9 active torsions:
  status: ('A' for Active; 'I' for Inactive)
    1  A    between atoms: C_1  and  C_2
    2  A    between atoms: C_1  and  O_37
    3  A    between atoms: C_5  and  C_6
    4  A    between atoms: C_7  and  C_35
    5  A    between atoms: O_14  and  P_24
    6  A    between atoms: O_14  and  C_32
    7  A    between atoms: C_18  and  C_33
    8  A    between atoms: C_21  and  C_27
    9  A    between atoms: C_34  and  O_37
                            x       y       z     vdW  Elec       q    Type
                         _______ _______ _______ _____ _____    ______ ____

>  <TORSDO>
F 9

$$$$
=
 OpenBabel11072410543D

 40 43  0  0  1  0  0  0  0  0999 V2000
  160.0280  208.6090  155.6340 C   0  0  0  0  0  2  0  0  0  0  0  0
  160.9140  206.4900  153.8460 C   0  0  0  0  0  0  0  0  0  0  0  0
  160.6500  206.2120  155.0900 N   0  0  0  0  0  0  0  0  0  0  0  0
  160.8260  207.9180  153.3190 C   0  0  1  0  0  3  0  0  0  0  0  0
  160.1310  206.8740  157.2610 O   0  0  0  0  0  0  0  0  0  0  0  0
  161.1320  205.3490  152.9130 C   0  0  0  0  0  1  0  0  0  0  0  0
  160.9260  208.9540  154.4530 C   0  0  1  0  0  3  0  0  0  0  0  0
  160.2890  207.2020  156.0580 C   0  0  0  0  0  0  0  0  0  0  0  0
  161.2450  208.9580  151.0240 C   0  0  0  0  0  2  0  0  0  0  0  0
  163.0120  207.4420  150.2670 C   0  0  2  0  0  3  0  0  0  0  0  0
  162.6330  207.0790  151.6990 C   0  0  0  0  0  2  0  0  0  0  0  0
  161.8500  208.2680  152.2260 C   0  0  2  0  0  3  0  0  0  0  0  0
  161.5790  208.7620  148.5530 C   0  0  0  0  0  1  0  0  0  0  0  0
  162.2530  208.7340  149.9180 C   0  0  1  0  0  3  0  0  0  0  0  0
  160.9910  204.6690  149.2510 C   0  0  2  0  0  0  0  0  0  0  0  0
  159.9040  205.2160  149.9360 O   0  0  0  0  0  1  0  0  0  0  0  0
  162.2650  205.0440  149.9930 C   0  0  0  0  0  2  0  0  0  0  0  0
  162.8390  206.2650  149.2900 C   0  0  1  0  0  3  0  0  0  0  0  0
  161.9140  206.5870  148.1230 C   0  0  0  0  0  2  0  0  0  0  0  0
  161.0950  205.3360  147.8800 C   0  0  1  0  0  3  0  0  0  0  0  0
  160.8230  203.1750  149.1630 C   0  0  0  0  0  0  0  0  0  0  0  0
  160.5090  202.5110  150.1870 O   0  0  0  0  0  1  0  0  0  0  0  0
  160.9380  202.5230  147.9390 O   0  0  0  0  0  0  0  0  0  0  0  0
  161.7770  204.5240  146.9620 O   0  0  0  0  0  0  0  0  0  0  0  0
  160.0720  206.2100  145.5970 O   0  0  0  0  0  1  0  0  0  0  0  0
  161.3220  205.0850  145.4260 P   0  0  0  0  0  0  0  0  0  0  0  0
  160.8350  203.9300  144.5790 O   0  0  0  0  0  0  0  0  0  0  0  0
  162.6370  205.8280  144.6640 O   0  0  0  0  0  1  0  0  0  0  0  0
  160.6660  210.2790  153.9850 O   0  0  0  0  0  0  0  0  0  0  0  0
  160.6320  211.4100  154.8110 C   0  0  0  0  0  0  0  0  0  0  0  0
  161.5050  211.5860  155.7060 O   0  0  0  0  0  0  0  0  0  0  0  0
  159.5180  212.3920  154.6420 C   0  0  2  0  0  3  0  0  0  0  0  0
  157.3210  213.1810  155.5630 C   0  0  0  0  0  2  0  0  0  0  0  0
  157.7320  213.2600  153.1020 C   0  0  0  0  0  2  0  0  0  0  0  0
  159.8440  212.5470  152.2660 O   0  0  0  0  0  1  0  0  0  0  0  0
  158.4660  212.1890  155.7320 C   0  0  0  0  0  2  0  0  0  0  0  0
  156.6850  213.0180  154.1870 C   0  0  2  0  0  3  0  0  0  0  0  0
  158.8890  212.2750  153.2470 C   0  0  1  0  0  3  0  0  0  0  0  0
  155.5450  214.0090  154.0400 C   0  0  0  0  0  2  0  0  0  0  0  0
  154.6140  213.5370  153.1150 O   0  0  0  0  0  1  0  0  0  0  0  0
  1  8  1  0  0  0  0
  2  3  2  0  0  0  0
  3  8  1  0  0  0  0
  4  2  1  1  0  0  0
  4  7  1  0  0  0  0
  6  2  1  0  0  0  0
  7 29  1  6  0  0  0
  7  1  1  0  0  0  0
  8  5  2  0  0  0  0
 10 11  1  1  0  0  0
 11 12  1  0  0  0  0
 12  9  1  6  0  0  0
 12  4  1  0  0  0  0
 14 13  1  6  0  0  0
 14 10  1  0  0  0  0
 14  9  1  0  0  0  0
 15 16  1  1  0  0  0
 15 17  1  0  0  0  0
 18 19  1  6  0  0  0
 18 17  1  0  0  0  0
 18 10  1  0  0  0  0
 20 24  1  6  0  0  0
 20 19  1  0  0  0  0
 20 15  1  0  0  0  0
 21 15  1  0  0  0  0
 21 22  1  0  0  0  0
 23 21  2  0  0  0  0
 26 25  1  0  0  0  0
 26 24  1  0  0  0  0
 27 26  2  0  0  0  0
 28 26  1  0  0  0  0
 29 30  1  0  0  0  0
 30 31  2  0  0  0  0
 32 30  1  6  0  0  0
 32 36  1  0  0  0  0
 33 36  1  0  0  0  0
 34 38  1  0  0  0  0
 34 37  1  0  0  0  0
 37 39  1  6  0  0  0
 37 33  1  0  0  0  0
 38 35  1  6  0  0  0
 38 32  1  0  0  0  0
 40 39  1  0  0  0  0
M  END
>  <MODEL>
8

>  <REMARK>
 VINA RESULT:      -5.8      3.142      9.987
  Name = 
  9 active torsions:
  status: ('A' for Active; 'I' for Inactive)
    1  A    between atoms: C_1  and  C_2
    2  A    between atoms: C_1  and  O_37
    3  A    between atoms: C_5  and  C_6
    4  A    between atoms: C_7  and  C_35
    5  A    between atoms: O_14  and  P_24
    6  A    between atoms: O_14  and  C_32
    7  A    between atoms: C_18  and  C_33
    8  A    between atoms: C_21  and  C_27
    9  A    between atoms: C_34  and  O_37
                            x       y       z     vdW  Elec       q    Type
                         _______ _______ _______ _____ _____    ______ ____

>  <TORSDO>
F 9

$$$$
