=
 OpenBabel11072412413D

 31 38  0  0  1  0  0  0  0  0999 V2000
  160.5630  207.3770  154.4070 C   0  0  0  0  0  3  0  0  0  0  0  0
  161.0560  208.1790  149.5960 O   0  0  0  0  0  0  0  0  0  0  0  0
  161.5960  208.3180  150.8780 C   0  0  1  0  0  3  0  0  0  0  0  0
  162.0310  208.5990  148.6550 C   0  0  0  0  0  2  0  0  0  0  0  0
  160.8570  207.9190  153.1530 C   0  0  0  0  0  0  0  0  0  0  0  0
  160.4050  206.0270  151.4740 C   0  0  2  0  0  3  0  0  0  0  0  0
  161.9600  210.7690  151.1830 C   0  0  0  0  0  2  0  0  0  0  0  0
  162.5320  205.6090  153.0730 O   0  0  0  0  0  0  0  0  0  0  0  0
  161.1110  204.0150  150.2220 C   0  0  0  0  0  0  0  0  0  0  0  0
  161.0360  209.6040  151.4900 C   0  0  2  0  0  3  0  0  0  0  0  0
  160.5060  210.1670  153.9610 C   0  0  0  0  0  3  0  0  0  0  0  0
  160.0830  205.5120  148.8950 N   0  0  0  0  0  0  0  0  0  0  0  0
  161.2390  203.5210  148.8280 C   0  0  0  0  0  3  0  0  0  0  0  0
  161.9410  205.9270  151.8340 C   0  0  2  0  0  0  0  0  0  0  0  0
  162.7330  202.7470  151.5130 O   0  0  0  0  0  0  0  0  0  0  0  0
  159.8830  210.5670  156.3490 C   0  0  0  0  0  1  0  0  0  0  0  0
  160.8450  209.2810  152.9360 C   0  0  0  0  0  0  0  0  0  0  0  0
  160.2520  208.2570  155.4550 C   0  0  0  0  0  3  0  0  0  0  0  0
  160.4670  205.1710  150.2040 C   0  0  0  0  0  0  0  0  0  0  0  0
  161.6400  204.6480  152.6070 C   0  0  1  0  0  3  0  0  0  0  0  0
  162.8130  209.9000  148.9750 C   0  0  0  0  0  2  0  0  0  0  0  0
  161.9130  203.7000  151.4470 C   0  0  0  0  0  0  0  0  0  0  0  0
  161.1970  207.2370  151.8780 C   0  0  1  0  0  0  0  0  0  0  0  0
  160.2280  209.6470  155.2340 C   0  0  0  0  0  0  0  0  0  0  0  0
  161.9960  210.9920  149.6690 C   0  0  0  0  0  2  0  0  0  0  0  0
  160.5030  204.5100  147.9930 N   0  0  0  0  0  0  0  0  0  0  0  0
  162.8440  205.1630  147.1850 C   0  0  0  0  0  2  0  0  0  0  0  0
  162.2200  204.2510  146.1260 C   0  0  0  0  0  2  0  0  0  0  0  0
  161.3440  205.1590  146.9650 C   0  0  0  0  0  0  0  0  0  0  0  0
  160.3780  205.9890  144.9470 O   0  0  0  0  0  1  0  0  0  0  0  0
  160.7730  206.3610  146.2320 C   0  0  0  0  0  2  0  0  0  0  0  0
  1 18  1  0  0  0  0
  3  2  1  6  0  0  0
  3 10  1  0  0  0  0
  3 23  1  0  0  0  0
  4 21  1  0  0  0  0
  4  2  1  0  0  0  0
  5  1  2  0  0  0  0
  6 19  1  6  0  0  0
  6 14  1  0  0  0  0
  6 23  1  0  0  0  0
  9 22  1  0  0  0  0
 10  7  1  1  0  0  0
 10 17  1  0  0  0  0
 11 24  1  0  0  0  0
 12 19  2  0  0  0  0
 13  9  2  0  0  0  0
 14 23  1  0  0  0  0
 14 20  1  0  0  0  0
 14  8  1  6  0  0  0
 17  5  1  0  0  0  0
 17 11  2  0  0  0  0
 19  9  1  0  0  0  0
 20 22  1  6  0  0  0
 20  8  1  0  0  0  0
 21 25  1  0  0  0  0
 22 15  2  0  0  0  0
 23  5  1  1  0  0  0
 24 18  2  0  0  0  0
 24 16  1  0  0  0  0
 25  7  1  0  0  0  0
 26 13  1  0  0  0  0
 26 12  1  0  0  0  0
 28 29  1  0  0  0  0
 28 27  1  0  0  0  0
 29 27  1  0  0  0  0
 29 26  1  0  0  0  0
 30 31  1  0  0  0  0
 31 29  1  0  0  0  0
M  END
>  <MODEL>
1

>  <REMARK>
 VINA RESULT:      -6.6      0.000      0.000
  Name = 
  2 active torsions:
  status: ('A' for Active; 'I' for Inactive)
    1  A    between atoms: C_26  and  C_31
    2  A    between atoms: N_30  and  C_31
                            x       y       z     vdW  Elec       q    Type
                         _______ _______ _______ _____ _____    ______ ____

>  <TORSDO>
F 2

$$$$
=
 OpenBabel11072412413D

 31 38  0  0  1  0  0  0  0  0999 V2000
  160.9730  208.0800  151.1360 C   0  0  0  0  0  3  0  0  0  0  0  0
  159.5140  210.1110  155.3530 O   0  0  0  0  0  0  0  0  0  0  0  0
  160.5700  209.6050  154.5880 C   0  0  1  0  0  3  0  0  0  0  0  0
  160.0550  210.7020  156.5240 C   0  0  0  0  0  2  0  0  0  0  0  0
  160.8130  208.4350  152.4790 C   0  0  0  0  0  0  0  0  0  0  0  0
  159.2590  210.4810  152.4580 C   0  0  2  0  0  3  0  0  0  0  0  0
  161.5830  207.7920  155.9730 C   0  0  0  0  0  2  0  0  0  0  0  0
  161.7080  210.9360  151.4310 O   0  0  0  0  0  0  0  0  0  0  0  0
  158.8710  212.9170  152.2800 C   0  0  0  0  0  0  0  0  0  0  0  0
  160.6420  208.0940  154.8220 C   0  0  2  0  0  3  0  0  0  0  0  0
  161.3750  206.2040  153.2110 C   0  0  0  0  0  3  0  0  0  0  0  0
  157.7480  212.0120  154.0060 N   0  0  0  0  0  2  0  0  0  0  0  0
  158.2680  214.0390  153.0430 C   0  0  0  0  0  2  0  0  0  0  0  0
  160.7320  211.0570  152.4400 C   0  0  2  0  0  0  0  0  0  0  0  0
  160.5500  213.9330  150.8480 O   0  0  0  0  0  0  0  0  0  0  0  0
  161.9530  204.4350  151.5410 C   0  0  0  0  0  1  0  0  0  0  0  0
  161.0240  207.5260  153.4940 C   0  0  0  0  0  0  0  0  0  0  0  0
  161.3570  206.7640  150.8390 C   0  0  0  0  0  3  0  0  0  0  0  0
  158.5680  211.7800  152.8870 C   0  0  0  0  0  0  0  0  0  0  0  0
  160.5070  211.4870  150.9960 C   0  0  1  0  0  3  0  0  0  0  0  0
  161.1760  209.9210  157.2610 C   0  0  0  0  0  2  0  0  0  0  0  0
  160.0270  212.8940  151.3270 C   0  0  0  0  0  0  0  0  0  0  0  0
  160.4030  209.7310  153.0770 C   0  0  1  0  0  0  0  0  0  0  0  0
  161.5610  205.8300  151.8720 C   0  0  0  0  0  0  0  0  0  0  0  0
  161.0140  208.4000  157.2580 C   0  0  0  0  0  2  0  0  0  0  0  0
  157.4940  213.3940  154.1400 N   0  0  2  0  0  0  0  0  0  0  0  0
  156.9100  214.4530  156.3980 C   0  0  0  0  0  2  0  0  0  0  0  0
  157.3680  213.0170  156.6580 C   0  0  0  0  0  2  0  0  0  0  0  0
  157.9350  213.8000  155.4910 C   0  0  0  0  0  0  0  0  0  0  0  0
  159.7090  214.2680  157.0170 O   0  0  0  0  0  1  0  0  0  0  0  0
  159.3710  214.2640  155.6640 C   0  0  0  0  0  2  0  0  0  0  0  0
  1  5  1  0  0  0  0
  2  4  1  0  0  0  0
  3 10  1  0  0  0  0
  3  2  1  1  0  0  0
  4 21  1  0  0  0  0
  5 17  2  0  0  0  0
  6 19  1  1  0  0  0
  6 23  1  0  0  0  0
  7 25  1  0  0  0  0
  9 19  2  0  0  0  0
  9 13  1  0  0  0  0
 10  7  1  1  0  0  0
 11 17  1  0  0  0  0
 12 26  1  0  0  0  0
 14  8  1  1  0  0  0
 14  6  1  0  0  0  0
 14 23  1  0  0  0  0
 15 22  2  0  0  0  0
 16 24  1  0  0  0  0
 17 10  1  0  0  0  0
 18  1  2  0  0  0  0
 18 24  1  0  0  0  0
 19 12  1  0  0  0  0
 20 22  1  1  0  0  0
 20  8  1  0  0  0  0
 20 14  1  0  0  0  0
 22  9  1  0  0  0  0
 23  5  1  6  0  0  0
 23  3  1  0  0  0  0
 24 11  2  0  0  0  0
 25 21  1  0  0  0  0
 26 13  1  6  0  0  0
 26 29  1  0  0  0  0
 27 28  1  0  0  0  0
 29 31  1  0  0  0  0
 29 27  1  0  0  0  0
 29 28  1  0  0  0  0
 31 30  1  0  0  0  0
M  END
>  <MODEL>
2

>  <REMARK>
 VINA RESULT:      -6.5      3.984      8.504
  Name = 
  2 active torsions:
  status: ('A' for Active; 'I' for Inactive)
    1  A    between atoms: C_26  and  C_31
    2  A    between atoms: N_30  and  C_31
                            x       y       z     vdW  Elec       q    Type
                         _______ _______ _______ _____ _____    ______ ____

>  <TORSDO>
F 2

$$$$
=
 OpenBabel11072412413D

 31 38  0  0  1  0  0  0  0  0999 V2000
  159.6050  210.3380  155.0230 C   0  0  0  0  0  3  0  0  0  0  0  0
  161.7950  210.3660  150.6370 O   0  0  0  0  0  0  0  0  0  0  0  0
  160.8980  209.7370  151.5060 C   0  0  1  0  0  3  0  0  0  0  0  0
  161.7130  209.7280  149.3730 C   0  0  0  0  0  2  0  0  0  0  0  0
  160.2240  209.9810  153.8220 C   0  0  0  0  0  0  0  0  0  0  0  0
  160.3370  212.1490  152.4470 C   0  0  2  0  0  3  0  0  0  0  0  0
  161.7480  207.4030  151.7600 C   0  0  0  0  0  2  0  0  0  0  0  0
  157.8470  211.1790  152.7890 O   0  0  0  0  0  0  0  0  0  0  0  0
  159.3470  213.7840  150.8780 C   0  0  0  0  0  0  0  0  0  0  0  0
  161.6950  208.7800  152.3960 C   0  0  2  0  0  3  0  0  0  0  0  0
  161.2710  208.0620  154.8470 C   0  0  0  0  0  3  0  0  0  0  0  0
  161.4590  213.2530  150.3160 N   0  0  0  0  0  0  0  0  0  0  0  0
  159.6220  214.4220  149.5660 C   0  0  0  0  0  3  0  0  0  0  0  0
  158.9970  211.4320  152.0130 C   0  0  2  0  0  0  0  0  0  0  0  0
  156.9320  213.8430  151.1370 O   0  0  0  0  0  0  0  0  0  0  0  0
  160.8690  207.5450  157.2610 C   0  0  0  0  0  1  0  0  0  0  0  0
  161.0260  208.8620  153.7300 C   0  0  0  0  0  0  0  0  0  0  0  0
  159.8160  209.5240  156.1460 C   0  0  0  0  0  3  0  0  0  0  0  0
  160.4200  213.1040  151.2510 C   0  0  0  0  0  0  0  0  0  0  0  0
  158.2200  212.5190  152.7480 C   0  0  1  0  0  3  0  0  0  0  0  0
  161.6610  208.1770  149.3620 C   0  0  0  0  0  2  0  0  0  0  0  0
  158.0510  213.4300  151.5390 C   0  0  0  0  0  0  0  0  0  0  0  0
  160.1940  210.6550  152.4990 C   0  0  1  0  0  0  0  0  0  0  0  0
  160.6420  208.3890  156.0580 C   0  0  0  0  0  0  0  0  0  0  0  0
  162.5100  207.4940  150.4350 C   0  0  0  0  0  2  0  0  0  0  0  0
  161.0400  214.0900  149.2580 N   0  0  0  0  0  0  0  0  0  0  0  0
  162.1500  213.9130  146.9570 C   0  0  0  0  0  2  0  0  0  0  0  0
  162.5600  212.6840  147.7700 C   0  0  0  0  0  2  0  0  0  0  0  0
  161.2120  213.3360  147.9980 C   0  0  0  0  0  0  0  0  0  0  0  0
  160.2050  212.2750  146.1120 O   0  0  0  0  0  1  0  0  0  0  0  0
  160.0200  212.5570  147.4660 C   0  0  0  0  0  2  0  0  0  0  0  0
  1 18  1  0  0  0  0
  3  2  1  6  0  0  0
  3 10  1  0  0  0  0
  3 23  1  0  0  0  0
  4  2  1  0  0  0  0
  5  1  2  0  0  0  0
  6 19  1  6  0  0  0
  6 23  1  0  0  0  0
  9 19  1  0  0  0  0
  9 22  1  0  0  0  0
 10  7  1  6  0  0  0
 10 17  1  0  0  0  0
 11 24  1  0  0  0  0
 12 19  2  0  0  0  0
 13  9  2  0  0  0  0
 14  6  1  0  0  0  0
 14 23  1  0  0  0  0
 14 20  1  0  0  0  0
 14  8  1  6  0  0  0
 15 22  2  0  0  0  0
 17  5  1  0  0  0  0
 17 11  2  0  0  0  0
 20 22  1  6  0  0  0
 20  8  1  0  0  0  0
 21  4  1  0  0  0  0
 21 25  1  0  0  0  0
 23  5  1  1  0  0  0
 24 18  2  0  0  0  0
 24 16  1  0  0  0  0
 25  7  1  0  0  0  0
 26 13  1  0  0  0  0
 26 12  1  0  0  0  0
 27 28  1  0  0  0  0
 27 29  1  0  0  0  0
 28 29  1  0  0  0  0
 29 26  1  0  0  0  0
 30 31  1  0  0  0  0
 31 29  1  0  0  0  0
M  END
>  <MODEL>
3

>  <REMARK>
 VINA RESULT:      -5.2      3.761      6.492
  Name = 
  2 active torsions:
  status: ('A' for Active; 'I' for Inactive)
    1  A    between atoms: C_26  and  C_31
    2  A    between atoms: N_30  and  C_31
                            x       y       z     vdW  Elec       q    Type
                         _______ _______ _______ _____ _____    ______ ____

>  <TORSDO>
F 2

$$$$
=
 OpenBabel11072412413D

 31 38  0  0  1  0  0  0  0  0999 V2000
  160.8490  203.9560  145.8200 C   0  0  0  0  0  3  0  0  0  0  0  0
  160.6430  203.9350  150.7190 O   0  0  0  0  0  0  0  0  0  0  0  0
  161.2920  203.4930  149.5610 C   0  0  1  0  0  3  0  0  0  0  0  0
  161.4150  203.5390  151.8410 C   0  0  0  0  0  2  0  0  0  0  0  0
  160.8990  203.6010  147.1720 C   0  0  0  0  0  0  0  0  0  0  0  0
  160.5980  205.8020  148.4620 C   0  0  2  0  0  3  0  0  0  0  0  0
  161.2520  201.0000  149.6870 C   0  0  0  0  0  2  0  0  0  0  0  0
  162.9340  205.6030  147.1350 O   0  0  0  0  0  0  0  0  0  0  0  0
  161.5000  207.8670  149.4800 C   0  0  0  0  0  0  0  0  0  0  0  0
  160.5890  202.2230  149.0800 C   0  0  2  0  0  3  0  0  0  0  0  0
  160.2530  201.3290  146.6730 C   0  0  0  0  0  3  0  0  0  0  0  0
  160.0810  206.8010  150.8610 N   0  0  0  0  0  2  0  0  0  0  0  0
  161.5540  208.5700  150.7870 C   0  0  0  0  0  2  0  0  0  0  0  0
  162.1590  205.5990  148.3120 C   0  0  2  0  0  0  0  0  0  0  0  0
  163.4560  208.6260  148.2550 O   0  0  0  0  0  0  0  0  0  0  0  0
  159.8450  200.6220  144.3090 C   0  0  0  0  0  1  0  0  0  0  0  0
  160.6230  202.3160  147.5890 C   0  0  0  0  0  0  0  0  0  0  0  0
  160.5110  202.9660  144.8860 C   0  0  0  0  0  3  0  0  0  0  0  0
  160.6650  206.8450  149.5830 C   0  0  0  0  0  0  0  0  0  0  0  0
  162.1770  206.7560  147.3190 C   0  0  1  0  0  3  0  0  0  0  0  0
  161.9880  202.0960  151.8360 C   0  0  0  0  0  2  0  0  0  0  0  0
  162.4800  207.8370  148.3480 C   0  0  0  0  0  0  0  0  0  0  0  0
  161.2060  204.4330  148.3630 C   0  0  1  0  0  0  0  0  0  0  0  0
  160.2170  201.6570  145.3090 C   0  0  0  0  0  0  0  0  0  0  0  0
  161.0750  201.0400  151.2080 C   0  0  0  0  0  2  0  0  0  0  0  0
  160.5650  207.8670  151.6500 N   0  0  2  0  0  0  0  0  0  0  0  0
  160.9770  205.7960  153.1000 C   0  0  0  0  0  2  0  0  0  0  0  0
  162.3390  206.3560  152.6850 C   0  0  0  0  0  2  0  0  0  0  0  0
  161.1560  207.2840  152.8730 C   0  0  0  0  0  0  0  0  0  0  0  0
  160.5220  207.5200  155.1620 O   0  0  0  0  0  1  0  0  0  0  0  0
  161.2070  208.1490  154.1220 C   0  0  0  0  0  2  0  0  0  0  0  0
  1  5  1  0  0  0  0
  2  4  1  0  0  0  0
  3  2  1  1  0  0  0
  5 17  2  0  0  0  0
  6 19  1  1  0  0  0
  7 25  1  0  0  0  0
  9 19  2  0  0  0  0
  9 13  1  0  0  0  0
 10  3  1  0  0  0  0
 10  7  1  6  0  0  0
 11 17  1  0  0  0  0
 12 26  1  0  0  0  0
 14  8  1  1  0  0  0
 14 23  1  0  0  0  0
 14  6  1  0  0  0  0
 15 22  2  0  0  0  0
 16 24  1  0  0  0  0
 17 10  1  0  0  0  0
 18 24  1  0  0  0  0
 18  1  2  0  0  0  0
 19 12  1  0  0  0  0
 20  8  1  6  0  0  0
 20 14  1  0  0  0  0
 20 22  1  0  0  0  0
 21  4  1  0  0  0  0
 22  9  1  0  0  0  0
 23  5  1  6  0  0  0
 23  6  1  0  0  0  0
 23  3  1  0  0  0  0
 24 11  2  0  0  0  0
 25 21  1  0  0  0  0
 26 13  1  6  0  0  0
 26 29  1  0  0  0  0
 28 29  1  0  0  0  0
 28 27  1  0  0  0  0
 29 27  1  0  0  0  0
 29 31  1  0  0  0  0
 31 30  1  0  0  0  0
M  END
>  <MODEL>
4

>  <REMARK>
 VINA RESULT:      -5.1      2.237      7.757
  Name = 
  2 active torsions:
  status: ('A' for Active; 'I' for Inactive)
    1  A    between atoms: C_26  and  C_31
    2  A    between atoms: N_30  and  C_31
                            x       y       z     vdW  Elec       q    Type
                         _______ _______ _______ _____ _____    ______ ____

>  <TORSDO>
F 2

$$$$
=
 OpenBabel11072412413D

 31 38  0  0  1  0  0  0  0  0999 V2000
  161.2510  200.9540  148.7400 C   0  0  0  0  0  3  0  0  0  0  0  0
  161.7450  205.7200  147.7040 O   0  0  0  0  0  0  0  0  0  0  0  0
  160.9420  204.5770  147.6520 C   0  0  1  0  0  3  0  0  0  0  0  0
  160.9730  206.8280  147.2700 C   0  0  0  0  0  2  0  0  0  0  0  0
  161.2030  202.2170  148.1440 C   0  0  0  0  0  0  0  0  0  0  0  0
  162.0850  203.8430  149.9270 C   0  0  2  0  0  3  0  0  0  0  0  0
  160.4090  204.2490  145.2350 C   0  0  0  0  0  2  0  0  0  0  0  0
  159.6900  202.7530  150.5050 O   0  0  0  0  0  0  0  0  0  0  0  0
  161.7520  205.3040  151.8950 C   0  0  0  0  0  0  0  0  0  0  0  0
  161.3000  203.8040  146.3810 C   0  0  2  0  0  3  0  0  0  0  0  0
  161.2710  201.2540  145.9310 C   0  0  0  0  0  3  0  0  0  0  0  0
  162.9660  206.3150  150.2940 N   0  0  0  0  0  0  0  0  0  0  0  0
  161.9430  206.7140  152.3190 C   0  0  0  0  0  3  0  0  0  0  0  0
  160.5130  203.8230  150.1010 C   0  0  2  0  0  0  0  0  0  0  0  0
  159.9550  204.4450  153.2860 O   0  0  0  0  0  0  0  0  0  0  0  0
  161.3590  198.7730  145.6360 C   0  0  0  0  0  1  0  0  0  0  0  0
  161.1970  202.3660  146.7730 C   0  0  0  0  0  0  0  0  0  0  0  0
  161.2930  199.8270  147.9060 C   0  0  0  0  0  3  0  0  0  0  0  0
  162.3310  205.1340  150.7170 C   0  0  0  0  0  0  0  0  0  0  0  0
  160.7040  203.0610  151.4070 C   0  0  1  0  0  3  0  0  0  0  0  0
  160.0810  206.6240  146.0160 C   0  0  0  0  0  2  0  0  0  0  0  0
  160.7250  204.2930  152.3020 C   0  0  0  0  0  0  0  0  0  0  0  0
  161.1710  203.5640  148.7690 C   0  0  1  0  0  0  0  0  0  0  0  0
  161.2990  199.9760  146.5070 C   0  0  0  0  0  0  0  0  0  0  0  0
  160.6830  205.7250  144.9340 C   0  0  0  0  0  2  0  0  0  0  0  0
  162.7920  207.3290  151.2610 N   0  0  0  0  0  0  0  0  0  0  0  0
  160.8490  208.9940  151.1590 C   0  0  0  0  0  2  0  0  0  0  0  0
  162.1410  209.7920  151.3510 C   0  0  0  0  0  2  0  0  0  0  0  0
  162.1570  208.4820  150.5890 C   0  0  0  0  0  0  0  0  0  0  0  0
  161.9610  209.8950  148.6760 O   0  0  0  0  0  1  0  0  0  0  0  0
  162.3280  208.6130  149.0850 C   0  0  0  0  0  2  0  0  0  0  0  0
  3  2  1  1  0  0  0
  3 23  1  0  0  0  0
  4  2  1  0  0  0  0
  5  1  1  0  0  0  0
  6 14  1  0  0  0  0
  6 19  1  6  0  0  0
  9 22  1  0  0  0  0
  9 13  2  0  0  0  0
 10  7  1  6  0  0  0
 10 17  1  0  0  0  0
 10  3  1  0  0  0  0
 11 24  2  0  0  0  0
 11 17  1  0  0  0  0
 12 19  2  0  0  0  0
 12 26  1  0  0  0  0
 14  8  1  1  0  0  0
 14 20  1  0  0  0  0
 16 24  1  0  0  0  0
 17  5  2  0  0  0  0
 18  1  2  0  0  0  0
 19  9  1  0  0  0  0
 20  8  1  1  0  0  0
 20 22  1  0  0  0  0
 21  4  1  0  0  0  0
 22 15  2  0  0  0  0
 23  5  1  6  0  0  0
 23  6  1  0  0  0  0
 23 14  1  0  0  0  0
 24 18  1  0  0  0  0
 25  7  1  0  0  0  0
 25 21  1  0  0  0  0
 26 13  1  0  0  0  0
 27 28  1  0  0  0  0
 29 27  1  0  0  0  0
 29 26  1  0  0  0  0
 29 28  1  0  0  0  0
 30 31  1  0  0  0  0
 31 29  1  0  0  0  0
M  END
>  <MODEL>
5

>  <REMARK>
 VINA RESULT:      -4.2      2.326      6.945
  Name = 
  2 active torsions:
  status: ('A' for Active; 'I' for Inactive)
    1  A    between atoms: C_26  and  C_31
    2  A    between atoms: N_30  and  C_31
                            x       y       z     vdW  Elec       q    Type
                         _______ _______ _______ _____ _____    ______ ____

>  <TORSDO>
F 2

$$$$
=
 OpenBabel11072412413D

 31 38  0  0  1  0  0  0  0  0999 V2000
  161.8410  208.5170  149.3960 C   0  0  0  0  0  3  0  0  0  0  0  0
  161.5800  203.6500  149.9310 O   0  0  0  0  0  0  0  0  0  0  0  0
  161.0010  204.8990  150.1790 C   0  0  1  0  0  3  0  0  0  0  0  0
  160.6690  202.6460  150.3500 C   0  0  0  0  0  2  0  0  0  0  0  0
  161.6280  207.2210  149.8770 C   0  0  0  0  0  0  0  0  0  0  0  0
  162.0290  205.6770  147.8640 C   0  0  2  0  0  3  0  0  0  0  0  0
  160.7750  205.0450  152.6610 C   0  0  0  0  0  2  0  0  0  0  0  0
  159.8210  207.2070  147.6670 O   0  0  0  0  0  0  0  0  0  0  0  0
  161.2510  204.5160  145.8240 C   0  0  0  0  0  0  0  0  0  0  0  0
  161.6140  205.4570  151.4660 C   0  0  2  0  0  3  0  0  0  0  0  0
  162.0820  207.9120  152.1460 C   0  0  0  0  0  3  0  0  0  0  0  0
  162.4170  203.1470  147.1750 N   0  0  0  0  0  2  0  0  0  0  0  0
  161.1460  203.1490  145.2540 C   0  0  0  0  0  2  0  0  0  0  0  0
  160.4760  205.9770  147.8750 C   0  0  2  0  0  0  0  0  0  0  0  0
  159.5070  205.8090  144.7320 O   0  0  0  0  0  0  0  0  0  0  0  0
  162.6370  210.2960  152.6530 C   0  0  0  0  0  1  0  0  0  0  0  0
  161.7300  206.9270  151.2210 C   0  0  0  0  0  0  0  0  0  0  0  0
  162.1630  209.5230  150.3190 C   0  0  0  0  0  3  0  0  0  0  0  0
  161.9640  204.4570  146.9370 C   0  0  0  0  0  0  0  0  0  0  0  0
  160.6710  206.8350  146.6300 C   0  0  1  0  0  3  0  0  0  0  0  0
  159.9550  202.8570  151.7110 C   0  0  0  0  0  2  0  0  0  0  0  0
  160.3850  205.7220  145.6300 C   0  0  0  0  0  0  0  0  0  0  0  0
  161.2960  205.9760  149.1400 C   0  0  1  0  0  0  0  0  0  0  0  0
  162.2800  209.2230  151.6890 C   0  0  0  0  0  0  0  0  0  0  0  0
  160.8100  203.5200  152.7940 C   0  0  0  0  0  2  0  0  0  0  0  0
  161.9720  202.2890  146.1470 N   0  0  2  0  0  0  0  0  0  0  0  0
  161.6440  200.7410  148.1610 C   0  0  0  0  0  2  0  0  0  0  0  0
  160.3590  201.5520  147.9790 C   0  0  0  0  0  2  0  0  0  0  0  0
  161.2110  201.1910  146.7790 C   0  0  0  0  0  0  0  0  0  0  0  0
  161.4400  198.9770  145.9160 O   0  0  0  0  0  1  0  0  0  0  0  0
  160.6310  200.1140  145.8780 C   0  0  0  0  0  2  0  0  0  0  0  0
  1  5  2  0  0  0  0
  1 18  1  0  0  0  0
  2  4  1  0  0  0  0
  3  2  1  6  0  0  0
  3 10  1  0  0  0  0
  4 21  1  0  0  0  0
  5 17  1  0  0  0  0
  6 19  1  1  0  0  0
  6 14  1  0  0  0  0
  6 23  1  0  0  0  0
  7 25  1  0  0  0  0
  9 19  2  0  0  0  0
 10  7  1  1  0  0  0
 13  9  1  0  0  0  0
 14  8  1  6  0  0  0
 14 23  1  0  0  0  0
 15 22  2  0  0  0  0
 17 10  1  0  0  0  0
 17 11  2  0  0  0  0
 18 24  2  0  0  0  0
 19 12  1  0  0  0  0
 20 22  1  6  0  0  0
 20  8  1  0  0  0  0
 20 14  1  0  0  0  0
 21 25  1  0  0  0  0
 22  9  1  0  0  0  0
 23  5  1  1  0  0  0
 23  3  1  0  0  0  0
 24 11  1  0  0  0  0
 24 16  1  0  0  0  0
 26 13  1  6  0  0  0
 26 29  1  0  0  0  0
 26 12  1  0  0  0  0
 28 27  1  0  0  0  0
 29 28  1  0  0  0  0
 29 27  1  0  0  0  0
 31 30  1  0  0  0  0
 31 29  1  0  0  0  0
M  END
>  <MODEL>
6

>  <REMARK>
 VINA RESULT:      -3.7      2.222      5.180
  Name = 
  2 active torsions:
  status: ('A' for Active; 'I' for Inactive)
    1  A    between atoms: C_26  and  C_31
    2  A    between atoms: N_30  and  C_31
                            x       y       z     vdW  Elec       q    Type
                         _______ _______ _______ _____ _____    ______ ____

>  <TORSDO>
F 2

$$$$
=
 OpenBabel11072412413D

 31 38  0  0  1  0  0  0  0  0999 V2000
  161.4760  206.9680  147.3780 C   0  0  0  0  0  3  0  0  0  0  0  0
  160.5140  205.2650  151.8740 O   0  0  0  0  0  0  0  0  0  0  0  0
  161.3500  205.2350  150.7520 C   0  0  1  0  0  3  0  0  0  0  0  0
  161.1160  204.4900  152.8980 C   0  0  0  0  0  2  0  0  0  0  0  0
  161.3280  206.1690  148.5150 C   0  0  0  0  0  0  0  0  0  0  0  0
  160.7550  207.7960  150.4180 C   0  0  2  0  0  3  0  0  0  0  0  0
  161.3760  202.8530  150.0060 C   0  0  0  0  0  2  0  0  0  0  0  0
  163.2740  208.0160  149.4880 O   0  0  0  0  0  0  0  0  0  0  0  0
  161.4160  209.3640  152.2130 C   0  0  0  0  0  0  0  0  0  0  0  0
  160.7740  204.2240  149.7590 C   0  0  2  0  0  3  0  0  0  0  0  0
  160.8460  204.2220  147.1710 C   0  0  0  0  0  3  0  0  0  0  0  0
  159.8380  207.9170  152.9020 N   0  0  0  0  0  2  0  0  0  0  0  0
  161.2420  209.5720  153.6730 C   0  0  0  0  0  2  0  0  0  0  0  0
  162.3260  207.6240  150.4550 C   0  0  2  0  0  0  0  0  0  0  0  0
  163.5110  210.4560  151.6460 O   0  0  0  0  0  0  0  0  0  0  0  0
  160.8340  204.3810  144.6760 C   0  0  0  0  0  1  0  0  0  0  0  0
  161.0350  204.8240  148.4160 C   0  0  0  0  0  0  0  0  0  0  0  0
  161.3210  206.3690  146.1190 C   0  0  0  0  0  3  0  0  0  0  0  0
  160.6110  208.3870  151.8250 C   0  0  0  0  0  0  0  0  0  0  0  0
  162.4580  209.0510  149.9360 C   0  0  1  0  0  3  0  0  0  0  0  0
  161.7320  203.1260  152.4880 C   0  0  0  0  0  2  0  0  0  0  0  0
  162.5600  209.7050  151.3080 C   0  0  0  0  0  0  0  0  0  0  0  0
  161.4180  206.5320  149.9520 C   0  0  1  0  0  0  0  0  0  0  0  0
  161.0110  205.0000  146.0150 C   0  0  0  0  0  0  0  0  0  0  0  0
  160.9650  202.3710  151.4000 C   0  0  0  0  0  2  0  0  0  0  0  0
  160.1570  208.6350  154.0750 N   0  0  2  0  0  0  0  0  0  0  0  0
  161.8460  206.8730  154.8500 C   0  0  0  0  0  2  0  0  0  0  0  0
  161.8140  207.9860  155.9000 C   0  0  0  0  0  2  0  0  0  0  0  0
  160.5710  207.6540  155.1000 C   0  0  0  0  0  0  0  0  0  0  0  0
  159.8150  206.8740  157.2250 O   0  0  0  0  0  1  0  0  0  0  0  0
  159.4820  206.9260  155.8710 C   0  0  0  0  0  2  0  0  0  0  0  0
  1  5  1  0  0  0  0
  2  4  1  0  0  0  0
  3  2  1  1  0  0  0
  6 14  1  0  0  0  0
  6 19  1  1  0  0  0
  7 25  1  0  0  0  0
  9 13  1  0  0  0  0
 10  7  1  6  0  0  0
 10  3  1  0  0  0  0
 11 17  1  0  0  0  0
 12 26  1  0  0  0  0
 14  8  1  1  0  0  0
 16 24  1  0  0  0  0
 17  5  2  0  0  0  0
 17 10  1  0  0  0  0
 18  1  2  0  0  0  0
 19  9  2  0  0  0  0
 19 12  1  0  0  0  0
 20  8  1  6  0  0  0
 20 14  1  0  0  0  0
 20 22  1  0  0  0  0
 21  4  1  0  0  0  0
 22 15  2  0  0  0  0
 22  9  1  0  0  0  0
 23  5  1  6  0  0  0
 23  6  1  0  0  0  0
 23 14  1  0  0  0  0
 23  3  1  0  0  0  0
 24 18  1  0  0  0  0
 24 11  2  0  0  0  0
 25 21  1  0  0  0  0
 26 13  1  6  0  0  0
 26 29  1  0  0  0  0
 27 29  1  0  0  0  0
 27 28  1  0  0  0  0
 29 31  1  0  0  0  0
 29 28  1  0  0  0  0
 31 30  1  0  0  0  0
M  END
>  <MODEL>
7

>  <REMARK>
 VINA RESULT:      -3.6      2.283      7.395
  Name = 
  2 active torsions:
  status: ('A' for Active; 'I' for Inactive)
    1  A    between atoms: C_26  and  C_31
    2  A    between atoms: N_30  and  C_31
                            x       y       z     vdW  Elec       q    Type
                         _______ _______ _______ _____ _____    ______ ____

>  <TORSDO>
F 2

$$$$
=
 OpenBabel11072412413D

 31 38  0  0  1  0  0  0  0  0999 V2000
  161.8300  211.5370  150.0050 C   0  0  0  0  0  3  0  0  0  0  0  0
  158.1170  213.6080  152.4480 O   0  0  0  0  0  0  0  0  0  0  0  0
  158.5240  212.7650  151.4090 C   0  0  1  0  0  3  0  0  0  0  0  0
  156.7060  213.5230  152.5640 C   0  0  0  0  0  2  0  0  0  0  0  0
  160.6220  212.1410  150.3660 C   0  0  0  0  0  0  0  0  0  0  0  0
  160.5910  212.1160  152.9340 C   0  0  2  0  0  3  0  0  0  0  0  0
  157.5170  213.7290  149.3380 C   0  0  0  0  0  2  0  0  0  0  0  0
  160.3660  209.6840  151.7970 O   0  0  0  0  0  0  0  0  0  0  0  0
  160.1130  211.0100  155.0940 C   0  0  0  0  0  0  0  0  0  0  0  0
  158.7810  213.6280  150.1720 C   0  0  2  0  0  3  0  0  0  0  0  0
  160.4890  213.3030  148.2530 C   0  0  0  0  0  3  0  0  0  0  0  0
  159.3590  213.1290  155.0510 N   0  0  0  0  0  0  0  0  0  0  0  0
  159.3310  211.2200  156.3390 C   0  0  0  0  0  3  0  0  0  0  0  0
  159.8420  210.8000  152.4810 C   0  0  2  0  0  0  0  0  0  0  0  0
  160.3580  208.6030  154.8790 O   0  0  0  0  0  0  0  0  0  0  0  0
  162.2700  212.9890  146.5260 C   0  0  0  0  0  1  0  0  0  0  0  0
  159.9580  212.9910  149.5060 C   0  0  0  0  0  0  0  0  0  0  0  0
  162.3590  211.8150  148.7360 C   0  0  0  0  0  3  0  0  0  0  0  0
  160.0750  212.1230  154.3780 C   0  0  0  0  0  0  0  0  0  0  0  0
  161.0360  209.9930  152.9780 C   0  0  1  0  0  3  0  0  0  0  0  0
  155.8820  213.5420  151.2490 C   0  0  0  0  0  2  0  0  0  0  0  0
  160.4860  209.7490  154.3770 C   0  0  0  0  0  0  0  0  0  0  0  0
  159.8500  212.0440  151.6300 C   0  0  1  0  0  0  0  0  0  0  0  0
  161.6900  212.6920  147.8620 C   0  0  0  0  0  0  0  0  0  0  0  0
  156.4390  214.4510  150.1510 C   0  0  0  0  0  2  0  0  0  0  0  0
  158.8980  212.6440  156.2940 N   0  0  0  0  0  0  0  0  0  0  0  0
  156.5800  211.7030  155.7470 C   0  0  0  0  0  2  0  0  0  0  0  0
  156.6550  211.9140  157.2610 C   0  0  0  0  0  2  0  0  0  0  0  0
  157.4310  212.8170  156.3240 C   0  0  0  0  0  0  0  0  0  0  0  0
  155.4850  214.1790  156.0910 O   0  0  0  0  0  1  0  0  0  0  0  0
  156.8760  214.2250  156.1790 C   0  0  0  0  0  2  0  0  0  0  0  0
  1  5  1  0  0  0  0
  2  4  1  0  0  0  0
  3 23  1  0  0  0  0
  3  2  1  1  0  0  0
  6 19  1  1  0  0  0
  7 25  1  0  0  0  0
  9 13  2  0  0  0  0
 10  7  1  6  0  0  0
 10  3  1  0  0  0  0
 11 17  1  0  0  0  0
 12 26  1  0  0  0  0
 14  8  1  1  0  0  0
 14  6  1  0  0  0  0
 14 20  1  0  0  0  0
 16 24  1  0  0  0  0
 17 10  1  0  0  0  0
 17  5  2  0  0  0  0
 18  1  2  0  0  0  0
 19 12  2  0  0  0  0
 19  9  1  0  0  0  0
 20  8  1  6  0  0  0
 20 22  1  0  0  0  0
 21  4  1  0  0  0  0
 22 15  2  0  0  0  0
 22  9  1  0  0  0  0
 23  5  1  6  0  0  0
 23 14  1  0  0  0  0
 23  6  1  0  0  0  0
 24 11  2  0  0  0  0
 24 18  1  0  0  0  0
 25 21  1  0  0  0  0
 26 29  1  0  0  0  0
 26 13  1  0  0  0  0
 27 29  1  0  0  0  0
 27 28  1  0  0  0  0
 29 28  1  0  0  0  0
 30 31  1  0  0  0  0
 31 29  1  0  0  0  0
M  END
>  <MODEL>
8

>  <REMARK>
 VINA RESULT:      -3.6      5.237      8.678
  Name = 
  2 active torsions:
  status: ('A' for Active; 'I' for Inactive)
    1  A    between atoms: C_26  and  C_31
    2  A    between atoms: N_30  and  C_31
                            x       y       z     vdW  Elec       q    Type
                         _______ _______ _______ _____ _____    ______ ____

>  <TORSDO>
F 2

$$$$
