=
 OpenBabel11072411043D

 30 32  0  0  1  0  0  0  0  0999 V2000
  161.7830  206.7870  150.6880 C   0  0  0  0  0  0  0  0  0  0  0  0
  161.4130  206.4840  154.1720 O   0  0  0  0  0  1  0  0  0  0  0  0
  160.8540  204.7120  152.7380 C   0  0  0  0  0  3  0  0  0  0  0  0
  161.1930  205.8610  149.9180 C   0  0  0  0  0  3  0  0  0  0  0  0
  161.0360  204.4220  150.2390 C   0  0  0  0  0  0  0  0  0  0  0  0
  161.5430  205.8330  152.9530 C   0  0  0  0  0  0  0  0  0  0  0  0
  162.4940  206.3780  151.9420 C   0  0  0  0  0  2  0  0  0  0  0  0
  160.8410  203.9450  151.4770 C   0  0  0  0  0  3  0  0  0  0  0  0
  161.3430  202.0870  149.5350 C   0  0  0  0  0  3  0  0  0  0  0  0
  160.9030  203.4490  149.1110 C   0  0  2  0  0  3  0  0  0  0  0  0
  161.6690  203.9090  147.9600 N   0  0  0  0  0  0  0  0  0  0  0  0
  162.5690  204.1200  145.5010 Cl  0  0  0  0  0  0  0  0  0  0  0  0
  160.9080  202.1080  146.4720 C   0  0  0  0  0  0  0  0  0  0  0  0
  161.2430  201.0310  148.7320 C   0  0  0  0  0  3  0  0  0  0  0  0
  160.7660  201.0860  147.3370 C   0  0  0  0  0  3  0  0  0  0  0  0
  161.6680  203.3430  146.7890 C   0  0  0  0  0  0  0  0  0  0  0  0
  159.8040  200.8060  144.6640 C   0  0  0  0  0  1  0  0  0  0  0  0
  160.3890  201.9980  145.1750 O   0  0  0  0  0  0  0  0  0  0  0  0
  162.0080  209.1830  151.1740 C   0  0  0  0  0  3  0  0  0  0  0  0
  160.6910  211.2550  151.1940 C   0  0  0  0  0  1  0  0  0  0  0  0
  161.8270  208.2070  150.2610 C   0  0  0  0  0  0  0  0  0  0  0  0
  161.5520  209.9970  148.4590 C   0  0  0  0  0  2  0  0  0  0  0  0
  162.0410  210.6480  150.8410 C   0  0  2  0  0  3  0  0  0  0  0  0
  162.4180  210.8610  149.3670 C   0  0  2  0  0  3  0  0  0  0  0  0
  161.8040  208.5240  148.7780 C   0  0  0  0  0  2  0  0  0  0  0  0
  162.4780  212.3260  148.9320 C   0  0  0  0  0  2  0  0  0  0  0  0
  160.8370  213.7520  146.8880 C   0  0  0  0  0  1  0  0  0  0  0  0
  162.9250  212.4590  147.5510 N   0  0  0  0  0  2  0  0  0  0  0  0
  162.5960  213.2190  145.3810 O   0  0  0  0  0  0  0  0  0  0  0  0
  162.1550  213.1380  146.5570 C   0  0  0  0  0  0  0  0  0  0  0  0
  1  7  1  0  0  0  0
  3  6  2  0  0  0  0
  4  5  1  0  0  0  0
  4  1  2  0  0  0  0
  5  8  2  0  0  0  0
  6  2  1  0  0  0  0
  7  6  1  0  0  0  0
  8  3  1  0  0  0  0
 10  9  1  0  0  0  0
 10  5  1  1  0  0  0
 11 10  1  0  0  0  0
 12 16  1  0  0  0  0
 13 16  1  0  0  0  0
 13 15  2  0  0  0  0
 14  9  2  0  0  0  0
 15 14  1  0  0  0  0
 16 11  2  0  0  0  0
 17 18  1  0  0  0  0
 18 13  1  0  0  0  0
 21  1  1  0  0  0  0
 21 19  2  0  0  0  0
 22 25  1  0  0  0  0
 22 24  1  0  0  0  0
 23 19  1  0  0  0  0
 23 20  1  6  0  0  0
 24 26  1  6  0  0  0
 24 23  1  0  0  0  0
 25 21  1  0  0  0  0
 28 26  1  0  0  0  0
 29 30  2  0  0  0  0
 30 27  1  0  0  0  0
 30 28  1  0  0  0  0
M  END
>  <MODEL>
1

>  <REMARK>
 VINA RESULT:      -8.9      0.000      0.000
  Name = 
  5 active torsions:
  status: ('A' for Active; 'I' for Inactive)
    1  A    between atoms: C_5  and  C_7
    2  A    between atoms: O_6  and  C_18
    3  A    between atoms: C_9  and  C_19
    4  A    between atoms: C_10  and  N_21
    5  A    between atoms: C_10  and  C_26
                            x       y       z     vdW  Elec       q    Type
                         _______ _______ _______ _____ _____    ______ ____

>  <TORSDO>
F 5

$$$$
=
 OpenBabel11072411043D

 30 32  0  0  1  0  0  0  0  0999 V2000
  161.7640  206.9910  150.7680 C   0  0  0  0  0  0  0  0  0  0  0  0
  161.4200  206.5900  154.2440 O   0  0  0  0  0  1  0  0  0  0  0  0
  160.8530  204.8580  152.7660 C   0  0  0  0  0  3  0  0  0  0  0  0
  161.1690  206.0860  149.9760 C   0  0  0  0  0  3  0  0  0  0  0  0
  161.0160  204.6380  150.2590 C   0  0  0  0  0  0  0  0  0  0  0  0
  161.5420  205.9730  153.0070 C   0  0  0  0  0  0  0  0  0  0  0  0
  162.4850  206.5480  152.0040 C   0  0  0  0  0  2  0  0  0  0  0  0
  160.8320  204.1260  151.4840 C   0  0  0  0  0  3  0  0  0  0  0  0
  161.2180  202.3030  149.5170 C   0  0  0  0  0  3  0  0  0  0  0  0
  160.8760  203.6970  149.1050 C   0  0  2  0  0  3  0  0  0  0  0  0
  161.7160  204.1340  147.9970 N   0  0  0  0  0  0  0  0  0  0  0  0
  162.7310  204.3390  145.5830 Cl  0  0  0  0  0  0  0  0  0  0  0  0
  160.9170  202.4100  146.4400 C   0  0  0  0  0  0  0  0  0  0  0  0
  161.0920  201.2710  148.6870 C   0  0  0  0  0  3  0  0  0  0  0  0
  160.6790  201.3810  147.2750 C   0  0  0  0  0  3  0  0  0  0  0  0
  161.7330  203.5920  146.8150 C   0  0  0  0  0  0  0  0  0  0  0  0
  159.7060  201.2610  144.5970 C   0  0  0  0  0  1  0  0  0  0  0  0
  160.4480  202.3560  145.1200 O   0  0  0  0  0  0  0  0  0  0  0  0
  161.8860  208.7700  149.0810 C   0  0  0  0  0  3  0  0  0  0  0  0
  163.4040  210.5180  148.2610 C   0  0  0  0  0  1  0  0  0  0  0  0
  161.8020  208.4230  150.3800 C   0  0  0  0  0  0  0  0  0  0  0  0
  161.9560  210.8930  151.0120 C   0  0  0  0  0  2  0  0  0  0  0  0
  161.9550  210.1910  148.5940 C   0  0  2  0  0  3  0  0  0  0  0  0
  161.3570  211.1510  149.6350 C   0  0  2  0  0  3  0  0  0  0  0  0
  161.6040  209.4750  151.4560 C   0  0  0  0  0  2  0  0  0  0  0  0
  161.3820  212.6240  149.2280 C   0  0  0  0  0  2  0  0  0  0  0  0
  162.3340  213.6070  146.5770 C   0  0  0  0  0  1  0  0  0  0  0  0
  160.4550  212.8960  148.1370 N   0  0  0  0  0  2  0  0  0  0  0  0
  160.0400  213.5820  145.9570 O   0  0  0  0  0  0  0  0  0  0  0  0
  160.8900  213.3660  146.8590 C   0  0  0  0  0  0  0  0  0  0  0  0
  1  7  1  0  0  0  0
  3  6  2  0  0  0  0
  4  5  1  0  0  0  0
  4  1  2  0  0  0  0
  5  8  2  0  0  0  0
  6  2  1  0  0  0  0
  7  6  1  0  0  0  0
  8  3  1  0  0  0  0
 10  9  1  0  0  0  0
 10  5  1  1  0  0  0
 11 10  1  0  0  0  0
 12 16  1  0  0  0  0
 13 16  1  0  0  0  0
 13 15  2  0  0  0  0
 14  9  2  0  0  0  0
 15 14  1  0  0  0  0
 16 11  2  0  0  0  0
 17 18  1  0  0  0  0
 18 13  1  0  0  0  0
 19 21  2  0  0  0  0
 21  1  1  0  0  0  0
 21 25  1  0  0  0  0
 22 25  1  0  0  0  0
 23 20  1  1  0  0  0
 23 19  1  0  0  0  0
 23 24  1  0  0  0  0
 24 26  1  6  0  0  0
 24 22  1  0  0  0  0
 27 30  1  0  0  0  0
 28 26  1  0  0  0  0
 29 30  2  0  0  0  0
 30 28  1  0  0  0  0
M  END
>  <MODEL>
2

>  <REMARK>
 VINA RESULT:      -7.6      0.839      1.456
  Name = 
  5 active torsions:
  status: ('A' for Active; 'I' for Inactive)
    1  A    between atoms: C_5  and  C_7
    2  A    between atoms: O_6  and  C_18
    3  A    between atoms: C_9  and  C_19
    4  A    between atoms: C_10  and  N_21
    5  A    between atoms: C_10  and  C_26
                            x       y       z     vdW  Elec       q    Type
                         _______ _______ _______ _____ _____    ______ ____

>  <TORSDO>
F 5

$$$$
=
 OpenBabel11072411043D

 30 32  0  0  1  0  0  0  0  0999 V2000
  161.1990  209.0890  151.5080 C   0  0  0  0  0  0  0  0  0  0  0  0
  161.9940  211.1930  148.8050 O   0  0  0  0  0  1  0  0  0  0  0  0
  160.8690  212.0200  150.6900 C   0  0  0  0  0  3  0  0  0  0  0  0
  160.3240  209.5470  152.4140 C   0  0  0  0  0  3  0  0  0  0  0  0
  160.1850  210.9520  152.8700 C   0  0  0  0  0  0  0  0  0  0  0  0
  161.6650  211.0980  150.1490 C   0  0  0  0  0  0  0  0  0  0  0  0
  162.2590  209.9970  150.9620 C   0  0  0  0  0  2  0  0  0  0  0  0
  160.3830  212.0200  152.0840 C   0  0  0  0  0  3  0  0  0  0  0  0
  160.1810  210.2490  155.2250 C   0  0  0  0  0  3  0  0  0  0  0  0
  159.6170  211.2080  154.2290 C   0  0  2  0  0  3  0  0  0  0  0  0
  158.1630  211.1230  154.1890 N   0  0  0  0  0  0  0  0  0  0  0  0
  155.6440  211.3500  154.8970 Cl  0  0  0  0  0  0  0  0  0  0  0  0
  157.8520  211.8150  156.5260 C   0  0  0  0  0  0  0  0  0  0  0  0
  159.8920  210.3260  156.5210 C   0  0  0  0  0  3  0  0  0  0  0  0
  158.9490  211.2960  157.1100 C   0  0  0  0  0  3  0  0  0  0  0  0
  157.3720  211.4030  155.1830 C   0  0  0  0  0  0  0  0  0  0  0  0
  157.0600  214.1310  156.9620 C   0  0  0  0  0  1  0  0  0  0  0  0
  157.0600  212.7340  157.2290 O   0  0  0  0  0  0  0  0  0  0  0  0
  161.0990  206.6960  152.0460 C   0  0  0  0  0  3  0  0  0  0  0  0
  162.5020  204.6800  152.0390 C   0  0  0  0  0  1  0  0  0  0  0  0
  161.1950  207.6600  151.1090 C   0  0  0  0  0  0  0  0  0  0  0  0
  161.4570  205.8480  149.3280 C   0  0  0  0  0  2  0  0  0  0  0  0
  161.1110  205.2240  151.7420 C   0  0  2  0  0  3  0  0  0  0  0  0
  160.6730  204.9670  150.2920 C   0  0  2  0  0  3  0  0  0  0  0  0
  161.1580  207.3150  149.6320 C   0  0  0  0  0  2  0  0  0  0  0  0
  160.6530  203.4920  149.8870 C   0  0  0  0  0  2  0  0  0  0  0  0
  161.1580  200.8280  148.6410 C   0  0  0  0  0  1  0  0  0  0  0  0
  160.7490  203.3310  148.4410 N   0  0  0  0  0  2  0  0  0  0  0  0
  161.0620  201.9910  146.5710 O   0  0  0  0  0  0  0  0  0  0  0  0
  160.9900  202.0650  147.8240 C   0  0  0  0  0  0  0  0  0  0  0  0
  1  4  2  0  0  0  0
  2  6  1  0  0  0  0
  3  8  1  0  0  0  0
  4  5  1  0  0  0  0
  6  3  2  0  0  0  0
  6  7  1  0  0  0  0
  7  1  1  0  0  0  0
  8  5  2  0  0  0  0
  9 14  2  0  0  0  0
 10  5  1  6  0  0  0
 10  9  1  0  0  0  0
 11 10  1  0  0  0  0
 11 16  2  0  0  0  0
 12 16  1  0  0  0  0
 13 15  2  0  0  0  0
 13 18  1  0  0  0  0
 14 15  1  0  0  0  0
 16 13  1  0  0  0  0
 17 18  1  0  0  0  0
 21  1  1  0  0  0  0
 21 19  2  0  0  0  0
 22 25  1  0  0  0  0
 22 24  1  0  0  0  0
 23 20  1  6  0  0  0
 23 19  1  0  0  0  0
 24 26  1  6  0  0  0
 24 23  1  0  0  0  0
 25 21  1  0  0  0  0
 28 26  1  0  0  0  0
 29 30  2  0  0  0  0
 30 28  1  0  0  0  0
 30 27  1  0  0  0  0
M  END
>  <MODEL>
3

>  <REMARK>
 VINA RESULT:      -7.4      4.406      9.736
  Name = 
  5 active torsions:
  status: ('A' for Active; 'I' for Inactive)
    1  A    between atoms: C_5  and  C_7
    2  A    between atoms: O_6  and  C_18
    3  A    between atoms: C_9  and  C_19
    4  A    between atoms: C_10  and  N_21
    5  A    between atoms: C_10  and  C_26
                            x       y       z     vdW  Elec       q    Type
                         _______ _______ _______ _____ _____    ______ ____

>  <TORSDO>
F 5

$$$$
=
 OpenBabel11072411043D

 30 32  0  0  1  0  0  0  0  0999 V2000
  160.4950  208.8310  153.5260 C   0  0  0  0  0  0  0  0  0  0  0  0
  162.4310  209.2370  156.4330 O   0  0  0  0  0  1  0  0  0  0  0  0
  161.3850  211.0720  155.4110 C   0  0  0  0  0  3  0  0  0  0  0  0
  160.1620  209.9350  152.8420 C   0  0  0  0  0  3  0  0  0  0  0  0
  159.8490  211.2650  153.4200 C   0  0  0  0  0  0  0  0  0  0  0  0
  161.4400  209.7560  155.6120 C   0  0  0  0  0  0  0  0  0  0  0  0
  160.4320  208.8270  155.0220 C   0  0  0  0  0  2  0  0  0  0  0  0
  160.4310  211.7620  154.5200 C   0  0  0  0  0  3  0  0  0  0  0  0
  159.7880  213.1150  151.8030 C   0  0  0  0  0  3  0  0  0  0  0  0
  158.9690  212.1910  152.6420 C   0  0  2  0  0  3  0  0  0  0  0  0
  158.1020  212.9370  153.5460 N   0  0  0  0  0  0  0  0  0  0  0  0
  156.1430  214.4530  154.4180 Cl  0  0  0  0  0  0  0  0  0  0  0  0
  156.8360  214.0410  151.7540 C   0  0  0  0  0  0  0  0  0  0  0  0
  159.2320  213.9790  150.9580 C   0  0  0  0  0  3  0  0  0  0  0  0
  157.7790  214.1780  150.8020 C   0  0  0  0  0  3  0  0  0  0  0  0
  157.1500  213.7390  153.1730 C   0  0  0  0  0  0  0  0  0  0  0  0
  154.9930  214.2810  150.1020 C   0  0  0  0  0  1  0  0  0  0  0  0
  155.4890  214.2640  151.4350 O   0  0  0  0  0  0  0  0  0  0  0  0
  161.2710  207.6160  151.5390 C   0  0  0  0  0  3  0  0  0  0  0  0
  160.4500  206.0970  149.7920 C   0  0  0  0  0  1  0  0  0  0  0  0
  160.8320  207.5740  152.8120 C   0  0  0  0  0  0  0  0  0  0  0  0
  160.8730  205.0230  152.7020 C   0  0  0  0  0  2  0  0  0  0  0  0
  161.6120  206.3980  150.7270 C   0  0  2  0  0  3  0  0  0  0  0  0
  161.9540  205.2130  151.6450 C   0  0  2  0  0  3  0  0  0  0  0  0
  160.8080  206.2680  153.5840 C   0  0  0  0  0  2  0  0  0  0  0  0
  162.3170  203.9230  150.9090 C   0  0  0  0  0  2  0  0  0  0  0  0
  161.2110  202.8270  148.3640 C   0  0  0  0  0  1  0  0  0  0  0  0
  161.2070  202.9780  150.9030 N   0  0  0  0  0  2  0  0  0  0  0  0
  159.7060  201.6270  149.7560 O   0  0  0  0  0  0  0  0  0  0  0  0
  160.6640  202.4400  149.6960 C   0  0  0  0  0  0  0  0  0  0  0  0
  1  7  1  0  0  0  0
  3  6  2  0  0  0  0
  4  5  1  0  0  0  0
  4  1  2  0  0  0  0
  5  8  2  0  0  0  0
  6  2  1  0  0  0  0
  7  6  1  0  0  0  0
  8  3  1  0  0  0  0
  9 10  1  0  0  0  0
 10  5  1  1  0  0  0
 10 11  1  0  0  0  0
 13 16  1  0  0  0  0
 14  9  2  0  0  0  0
 15 14  1  0  0  0  0
 15 13  2  0  0  0  0
 16 11  2  0  0  0  0
 16 12  1  0  0  0  0
 17 18  1  0  0  0  0
 18 13  1  0  0  0  0
 19 21  2  0  0  0  0
 21  1  1  0  0  0  0
 21 25  1  0  0  0  0
 22 25  1  0  0  0  0
 23 20  1  1  0  0  0
 23 19  1  0  0  0  0
 23 24  1  0  0  0  0
 24 26  1  6  0  0  0
 24 22  1  0  0  0  0
 27 30  1  0  0  0  0
 28 26  1  0  0  0  0
 30 29  2  0  0  0  0
 30 28  1  0  0  0  0
M  END
>  <MODEL>
4

>  <REMARK>
 VINA RESULT:      -7.0      4.626      9.621
  Name = 
  5 active torsions:
  status: ('A' for Active; 'I' for Inactive)
    1  A    between atoms: C_5  and  C_7
    2  A    between atoms: O_6  and  C_18
    3  A    between atoms: C_9  and  C_19
    4  A    between atoms: C_10  and  N_21
    5  A    between atoms: C_10  and  C_26
                            x       y       z     vdW  Elec       q    Type
                         _______ _______ _______ _____ _____    ______ ____

>  <TORSDO>
F 5

$$$$
=
 OpenBabel11072411043D

 30 32  0  0  1  0  0  0  0  0999 V2000
  161.3380  207.7690  150.0400 C   0  0  0  0  0  0  0  0  0  0  0  0
  161.9560  208.2210  153.4710 O   0  0  0  0  0  1  0  0  0  0  0  0
  162.3310  209.9560  151.9370 C   0  0  0  0  0  3  0  0  0  0  0  0
  161.8300  208.6860  149.1940 C   0  0  0  0  0  3  0  0  0  0  0  0
  161.9500  210.1420  149.4510 C   0  0  0  0  0  0  0  0  0  0  0  0
  161.7070  208.8190  152.2440 C   0  0  0  0  0  0  0  0  0  0  0  0
  160.7070  208.1980  151.3280 C   0  0  0  0  0  2  0  0  0  0  0  0
  162.2170  210.6740  150.6520 C   0  0  0  0  0  3  0  0  0  0  0  0
  163.1610  211.9570  148.3180 C   0  0  0  0  0  3  0  0  0  0  0  0
  161.9570  211.0740  148.2810 C   0  0  2  0  0  3  0  0  0  0  0  0
  160.7320  211.8640  148.2620 N   0  0  0  0  0  0  0  0  0  0  0  0
  158.8170  213.4530  147.4210 Cl  0  0  0  0  0  0  0  0  0  0  0  0
  161.2290  212.9620  146.1210 C   0  0  0  0  0  0  0  0  0  0  0  0
  163.4350  212.8170  147.3420 C   0  0  0  0  0  3  0  0  0  0  0  0
  162.5720  213.0520  146.1690 C   0  0  0  0  0  3  0  0  0  0  0  0
  160.3880  212.6830  147.3130 C   0  0  0  0  0  0  0  0  0  0  0  0
  159.9260  212.2010  144.1450 C   0  0  0  0  0  1  0  0  0  0  0  0
  160.5580  213.2150  144.9170 O   0  0  0  0  0  0  0  0  0  0  0  0
  160.8320  205.4170  150.5280 C   0  0  0  0  0  3  0  0  0  0  0  0
  161.9550  203.2820  150.9890 C   0  0  0  0  0  1  0  0  0  0  0  0
  161.3220  206.3320  149.6680 C   0  0  0  0  0  0  0  0  0  0  0  0
  161.9680  204.4390  148.0800 C   0  0  0  0  0  2  0  0  0  0  0  0
  160.7970  203.9400  150.2520 C   0  0  2  0  0  3  0  0  0  0  0  0
  160.8300  203.6700  148.7390 C   0  0  2  0  0  3  0  0  0  0  0  0
  161.7330  205.9370  148.2630 C   0  0  0  0  0  2  0  0  0  0  0  0
  160.7970  202.1890  148.3570 C   0  0  0  0  0  2  0  0  0  0  0  0
  161.5810  199.7410  146.8430 C   0  0  0  0  0  1  0  0  0  0  0  0
  160.4250  202.0030  146.9600 N   0  0  0  0  0  2  0  0  0  0  0  0
  160.4370  200.7360  145.0140 O   0  0  0  0  0  0  0  0  0  0  0  0
  160.7890  200.8380  146.2170 C   0  0  0  0  0  0  0  0  0  0  0  0
  1  7  1  0  0  0  0
  3  6  2  0  0  0  0
  4  5  1  0  0  0  0
  4  1  2  0  0  0  0
  5  8  2  0  0  0  0
  6  2  1  0  0  0  0
  7  6  1  0  0  0  0
  8  3  1  0  0  0  0
 10  9  1  0  0  0  0
 10  5  1  1  0  0  0
 11 10  1  0  0  0  0
 13 15  2  0  0  0  0
 13 16  1  0  0  0  0
 14  9  2  0  0  0  0
 15 14  1  0  0  0  0
 16 12  1  0  0  0  0
 16 11  2  0  0  0  0
 17 18  1  0  0  0  0
 18 13  1  0  0  0  0
 21  1  1  0  0  0  0
 21 19  2  0  0  0  0
 22 25  1  0  0  0  0
 22 24  1  0  0  0  0
 23 19  1  0  0  0  0
 23 20  1  1  0  0  0
 24 26  1  1  0  0  0
 24 23  1  0  0  0  0
 25 21  1  0  0  0  0
 28 26  1  0  0  0  0
 29 30  2  0  0  0  0
 30 27  1  0  0  0  0
 30 28  1  0  0  0  0
M  END
>  <MODEL>
5

>  <REMARK>
 VINA RESULT:      -7.0      2.382      8.541
  Name = 
  5 active torsions:
  status: ('A' for Active; 'I' for Inactive)
    1  A    between atoms: C_5  and  C_7
    2  A    between atoms: O_6  and  C_18
    3  A    between atoms: C_9  and  C_19
    4  A    between atoms: C_10  and  N_21
    5  A    between atoms: C_10  and  C_26
                            x       y       z     vdW  Elec       q    Type
                         _______ _______ _______ _____ _____    ______ ____

>  <TORSDO>
F 5

$$$$
=
 OpenBabel11072411043D

 30 32  0  0  1  0  0  0  0  0999 V2000
  161.9060  207.3730  150.7010 C   0  0  0  0  0  0  0  0  0  0  0  0
  161.3230  207.2570  154.1670 O   0  0  0  0  0  1  0  0  0  0  0  0
  160.9860  205.3650  152.8210 C   0  0  0  0  0  3  0  0  0  0  0  0
  161.4340  206.3620  149.9580 C   0  0  0  0  0  3  0  0  0  0  0  0
  161.3560  204.9360  150.3630 C   0  0  0  0  0  0  0  0  0  0  0  0
  161.5800  206.5440  153.0050 C   0  0  0  0  0  0  0  0  0  0  0  0
  162.5570  207.0940  152.0210 C   0  0  0  0  0  2  0  0  0  0  0  0
  161.1120  204.5230  151.6150 C   0  0  0  0  0  3  0  0  0  0  0  0
  161.2100  204.5120  147.9460 C   0  0  0  0  0  3  0  0  0  0  0  0
  161.3670  203.8900  149.2950 C   0  0  2  0  0  3  0  0  0  0  0  0
  160.3180  202.9090  149.5420 N   0  0  0  0  0  0  0  0  0  0  0  0
  158.8910  200.7100  149.3870 Cl  0  0  0  0  0  0  0  0  0  0  0  0
  160.9680  201.4390  147.6840 C   0  0  0  0  0  0  0  0  0  0  0  0
  161.2710  203.7960  146.8270 C   0  0  0  0  0  3  0  0  0  0  0  0
  161.4250  202.3290  146.7820 C   0  0  0  0  0  3  0  0  0  0  0  0
  160.1400  201.8190  148.8560 C   0  0  0  0  0  0  0  0  0  0  0  0
  161.2530  199.4580  146.2090 C   0  0  0  0  0  1  0  0  0  0  0  0
  161.2050  200.0710  147.4910 O   0  0  0  0  0  0  0  0  0  0  0  0
  161.9530  209.8040  151.0400 C   0  0  0  0  0  3  0  0  0  0  0  0
  160.5070  211.7810  150.8660 C   0  0  0  0  0  1  0  0  0  0  0  0
  161.8800  208.7640  150.1860 C   0  0  0  0  0  0  0  0  0  0  0  0
  161.5810  210.4160  148.2610 C   0  0  0  0  0  2  0  0  0  0  0  0
  161.9090  211.2450  150.6150 C   0  0  2  0  0  3  0  0  0  0  0  0
  162.3440  211.3920  149.1480 C   0  0  2  0  0  3  0  0  0  0  0  0
  161.9110  208.9870  148.6850 C   0  0  0  0  0  2  0  0  0  0  0  0
  162.3330  212.8270  148.6230 C   0  0  0  0  0  2  0  0  0  0  0  0
  160.4300  213.7560  146.5200 C   0  0  0  0  0  1  0  0  0  0  0  0
  162.7170  212.8880  147.2180 N   0  0  0  0  0  2  0  0  0  0  0  0
  162.2140  213.3610  145.0010 O   0  0  0  0  0  0  0  0  0  0  0  0
  161.8220  213.3310  146.1960 C   0  0  0  0  0  0  0  0  0  0  0  0
  1  7  1  0  0  0  0
  3  6  2  0  0  0  0
  4  5  1  0  0  0  0
  4  1  2  0  0  0  0
  5  8  2  0  0  0  0
  6  2  1  0  0  0  0
  7  6  1  0  0  0  0
  8  3  1  0  0  0  0
  9 10  1  0  0  0  0
 10 11  1  0  0  0  0
 10  5  1  1  0  0  0
 13 16  1  0  0  0  0
 14  9  2  0  0  0  0
 15 14  1  0  0  0  0
 15 13  2  0  0  0  0
 16 12  1  0  0  0  0
 16 11  2  0  0  0  0
 17 18  1  0  0  0  0
 18 13  1  0  0  0  0
 21  1  1  0  0  0  0
 21 19  2  0  0  0  0
 22 25  1  0  0  0  0
 22 24  1  0  0  0  0
 23 20  1  6  0  0  0
 23 19  1  0  0  0  0
 24 26  1  6  0  0  0
 24 23  1  0  0  0  0
 25 21  1  0  0  0  0
 28 26  1  0  0  0  0
 29 30  2  0  0  0  0
 30 27  1  0  0  0  0
 30 28  1  0  0  0  0
M  END
>  <MODEL>
6

>  <REMARK>
 VINA RESULT:      -6.9      1.570      1.848
  Name = 
  5 active torsions:
  status: ('A' for Active; 'I' for Inactive)
    1  A    between atoms: C_5  and  C_7
    2  A    between atoms: O_6  and  C_18
    3  A    between atoms: C_9  and  C_19
    4  A    between atoms: C_10  and  N_21
    5  A    between atoms: C_10  and  C_26
                            x       y       z     vdW  Elec       q    Type
                         _______ _______ _______ _____ _____    ______ ____

>  <TORSDO>
F 5

$$$$
=
 OpenBabel11072411043D

 30 32  0  0  1  0  0  0  0  0999 V2000
  161.6570  208.2350  150.5690 C   0  0  0  0  0  0  0  0  0  0  0  0
  161.2910  208.0770  154.0620 O   0  0  0  0  0  1  0  0  0  0  0  0
  160.8190  206.2170  152.7120 C   0  0  0  0  0  3  0  0  0  0  0  0
  161.1130  207.2480  149.8420 C   0  0  0  0  0  3  0  0  0  0  0  0
  161.0220  205.8190  150.2300 C   0  0  0  0  0  0  0  0  0  0  0  0
  161.4550  207.3770  152.8750 C   0  0  0  0  0  0  0  0  0  0  0  0
  162.3830  207.9180  151.8400 C   0  0  0  0  0  2  0  0  0  0  0  0
  160.8450  205.3920  151.4880 C   0  0  0  0  0  3  0  0  0  0  0  0
  160.9780  203.4140  149.7260 C   0  0  0  0  0  3  0  0  0  0  0  0
  160.9370  204.7910  149.1480 C   0  0  2  0  0  3  0  0  0  0  0  0
  162.0150  204.9840  148.1860 N   0  0  0  0  0  0  0  0  0  0  0  0
  163.4530  204.7870  145.9970 Cl  0  0  0  0  0  0  0  0  0  0  0  0
  161.2360  203.2350  146.6480 C   0  0  0  0  0  0  0  0  0  0  0  0
  160.8360  202.3280  148.9710 C   0  0  0  0  0  3  0  0  0  0  0  0
  160.6970  202.3440  147.5020 C   0  0  0  0  0  3  0  0  0  0  0  0
  162.1510  204.3230  147.0750 C   0  0  0  0  0  0  0  0  0  0  0  0
  160.2880  204.0710  144.5070 C   0  0  0  0  0  1  0  0  0  0  0  0
  161.0010  203.1070  145.2720 O   0  0  0  0  0  0  0  0  0  0  0  0
  161.9640  209.9070  148.7970 C   0  0  0  0  0  3  0  0  0  0  0  0
  163.4420  211.7620  148.1620 C   0  0  0  0  0  1  0  0  0  0  0  0
  161.6370  209.6350  150.0760 C   0  0  0  0  0  0  0  0  0  0  0  0
  161.4070  212.1410  150.5110 C   0  0  0  0  0  2  0  0  0  0  0  0
  161.9950  211.2920  148.2150 C   0  0  2  0  0  3  0  0  0  0  0  0
  161.0960  212.2410  149.0230 C   0  0  2  0  0  3  0  0  0  0  0  0
  161.1090  210.7220  150.9930 C   0  0  0  0  0  2  0  0  0  0  0  0
  161.0620  213.6790  148.5060 C   0  0  0  0  0  2  0  0  0  0  0  0
  160.3000  213.3710  145.6370 C   0  0  0  0  0  1  0  0  0  0  0  0
  159.7360  214.0460  148.0240 N   0  0  0  0  0  2  0  0  0  0  0  0
  158.1900  214.2400  146.3020 O   0  0  0  0  0  0  0  0  0  0  0  0
  159.3500  213.9060  146.6550 C   0  0  0  0  0  0  0  0  0  0  0  0
  1  7  1  0  0  0  0
  3  6  2  0  0  0  0
  4  5  1  0  0  0  0
  4  1  2  0  0  0  0
  5  8  2  0  0  0  0
  6  2  1  0  0  0  0
  7  6  1  0  0  0  0
  8  3  1  0  0  0  0
 10  9  1  0  0  0  0
 10  5  1  1  0  0  0
 11 10  1  0  0  0  0
 12 16  1  0  0  0  0
 13 16  1  0  0  0  0
 13 15  2  0  0  0  0
 14  9  2  0  0  0  0
 15 14  1  0  0  0  0
 16 11  2  0  0  0  0
 17 18  1  0  0  0  0
 18 13  1  0  0  0  0
 19 21  2  0  0  0  0
 21  1  1  0  0  0  0
 21 25  1  0  0  0  0
 22 25  1  0  0  0  0
 23 20  1  1  0  0  0
 23 19  1  0  0  0  0
 23 24  1  0  0  0  0
 24 26  1  6  0  0  0
 24 22  1  0  0  0  0
 27 30  1  0  0  0  0
 28 26  1  0  0  0  0
 29 30  2  0  0  0  0
 30 28  1  0  0  0  0
M  END
>  <MODEL>
7

>  <REMARK>
 VINA RESULT:      -6.9      1.661      2.215
  Name = 
  5 active torsions:
  status: ('A' for Active; 'I' for Inactive)
    1  A    between atoms: C_5  and  C_7
    2  A    between atoms: O_6  and  C_18
    3  A    between atoms: C_9  and  C_19
    4  A    between atoms: C_10  and  N_21
    5  A    between atoms: C_10  and  C_26
                            x       y       z     vdW  Elec       q    Type
                         _______ _______ _______ _____ _____    ______ ____

>  <TORSDO>
F 5

$$$$
=
 OpenBabel11072411043D

 30 32  0  0  1  0  0  0  0  0999 V2000
  160.4510  208.7250  154.0330 C   0  0  0  0  0  0  0  0  0  0  0  0
  162.3320  207.6460  156.8000 O   0  0  0  0  0  1  0  0  0  0  0  0
  161.0970  209.6390  156.8820 C   0  0  0  0  0  3  0  0  0  0  0  0
  160.0020  209.9890  154.0420 C   0  0  0  0  0  3  0  0  0  0  0  0
  159.5490  210.7520  155.2310 C   0  0  0  0  0  0  0  0  0  0  0  0
  161.2920  208.4380  156.3370 C   0  0  0  0  0  0  0  0  0  0  0  0
  160.3880  207.8980  155.2800 C   0  0  0  0  0  2  0  0  0  0  0  0
  160.0760  210.6160  156.4560 C   0  0  0  0  0  3  0  0  0  0  0  0
  159.2370  213.1900  155.2580 C   0  0  0  0  0  3  0  0  0  0  0  0
  158.5760  211.8700  155.0330 C   0  0  2  0  0  3  0  0  0  0  0  0
  157.4320  211.7010  155.9190 N   0  0  0  0  0  0  0  0  0  0  0  0
  155.0480  212.0060  156.9790 Cl  0  0  0  0  0  0  0  0  0  0  0  0
  156.1820  213.6100  155.0070 C   0  0  0  0  0  0  0  0  0  0  0  0
  158.5990  214.3400  155.0620 C   0  0  0  0  0  3  0  0  0  0  0  0
  157.1790  214.4530  154.6780 C   0  0  0  0  0  3  0  0  0  0  0  0
  156.3650  212.4450  155.9090 C   0  0  0  0  0  0  0  0  0  0  0  0
  154.5180  213.8680  153.1770 C   0  0  0  0  0  1  0  0  0  0  0  0
  154.8800  213.8630  154.5530 O   0  0  0  0  0  0  0  0  0  0  0  0
  160.8410  206.7640  152.6090 C   0  0  0  0  0  3  0  0  0  0  0  0
  162.6730  205.4230  151.6730 C   0  0  0  0  0  1  0  0  0  0  0  0
  160.9190  208.1000  152.7720 C   0  0  0  0  0  0  0  0  0  0  0  0
  162.0880  208.2690  150.5070 C   0  0  0  0  0  2  0  0  0  0  0  0
  161.3120  206.0390  151.3800 C   0  0  2  0  0  3  0  0  0  0  0  0
  161.3410  206.9850  150.1690 C   0  0  2  0  0  3  0  0  0  0  0  0
  161.3520  208.9990  151.6290 C   0  0  0  0  0  2  0  0  0  0  0  0
  161.8080  206.3360  148.8660 C   0  0  0  0  0  2  0  0  0  0  0  0
  162.3460  205.4060  146.0820 C   0  0  0  0  0  1  0  0  0  0  0  0
  160.8180  206.4840  147.8070 N   0  0  0  0  0  2  0  0  0  0  0  0
  160.1600  206.2000  145.5980 O   0  0  0  0  0  0  0  0  0  0  0  0
  161.0550  206.0450  146.4680 C   0  0  0  0  0  0  0  0  0  0  0  0
  1  4  2  0  0  0  0
  1  7  1  0  0  0  0
  4  5  1  0  0  0  0
  5  8  2  0  0  0  0
  6  2  1  0  0  0  0
  6  3  2  0  0  0  0
  7  6  1  0  0  0  0
  8  3  1  0  0  0  0
 10  5  1  1  0  0  0
 10  9  1  0  0  0  0
 10 11  1  0  0  0  0
 13 16  1  0  0  0  0
 14  9  2  0  0  0  0
 15 13  2  0  0  0  0
 15 14  1  0  0  0  0
 16 11  2  0  0  0  0
 16 12  1  0  0  0  0
 17 18  1  0  0  0  0
 18 13  1  0  0  0  0
 19 21  2  0  0  0  0
 21  1  1  0  0  0  0
 22 25  1  0  0  0  0
 23 20  1  1  0  0  0
 23 19  1  0  0  0  0
 24 26  1  6  0  0  0
 24 22  1  0  0  0  0
 24 23  1  0  0  0  0
 25 21  1  0  0  0  0
 27 30  1  0  0  0  0
 28 26  1  0  0  0  0
 29 30  2  0  0  0  0
 30 28  1  0  0  0  0
M  END
>  <MODEL>
8

>  <REMARK>
 VINA RESULT:      -6.6      5.389      9.534
  Name = 
  5 active torsions:
  status: ('A' for Active; 'I' for Inactive)
    1  A    between atoms: C_5  and  C_7
    2  A    between atoms: O_6  and  C_18
    3  A    between atoms: C_9  and  C_19
    4  A    between atoms: C_10  and  N_21
    5  A    between atoms: C_10  and  C_26
                            x       y       z     vdW  Elec       q    Type
                         _______ _______ _______ _____ _____    ______ ____

>  <TORSDO>
F 5

$$$$
=
 OpenBabel11072411043D

 30 32  0  0  1  0  0  0  0  0999 V2000
  160.8030  207.7930  151.5930 C   0  0  0  0  0  0  0  0  0  0  0  0
  162.1770  205.8290  154.1660 O   0  0  0  0  0  1  0  0  0  0  0  0
  161.4680  208.0280  154.5720 C   0  0  0  0  0  3  0  0  0  0  0  0
  160.6800  209.1100  151.8150 C   0  0  0  0  0  3  0  0  0  0  0  0
  160.3520  209.7550  153.1110 C   0  0  0  0  0  0  0  0  0  0  0  0
  161.3960  206.9250  153.8280 C   0  0  0  0  0  0  0  0  0  0  0  0
  160.4580  206.8140  152.6730 C   0  0  0  0  0  2  0  0  0  0  0  0
  160.7480  209.2890  154.3030 C   0  0  0  0  0  3  0  0  0  0  0  0
  160.2010  211.9140  151.9450 C   0  0  0  0  0  3  0  0  0  0  0  0
  159.6990  211.1000  153.0920 C   0  0  2  0  0  3  0  0  0  0  0  0
  159.9270  211.7860  154.3570 N   0  0  0  0  0  0  0  0  0  0  0  0
  159.7050  213.5270  156.3110 Cl  0  0  0  0  0  0  0  0  0  0  0  0
  158.5070  213.7140  153.8050 C   0  0  0  0  0  0  0  0  0  0  0  0
  159.7110  213.1180  151.6670 C   0  0  0  0  0  3  0  0  0  0  0  0
  158.6900  213.8120  152.4750 C   0  0  0  0  0  3  0  0  0  0  0  0
  159.3970  212.9240  154.6940 C   0  0  0  0  0  0  0  0  0  0  0  0
  156.2460  213.8640  154.8310 C   0  0  0  0  0  1  0  0  0  0  0  0
  157.4800  214.4420  154.4210 O   0  0  0  0  0  0  0  0  0  0  0  0
  160.4950  206.2740  149.6900 C   0  0  0  0  0  3  0  0  0  0  0  0
  161.5810  204.3780  148.5690 C   0  0  0  0  0  1  0  0  0  0  0  0
  161.1840  207.2870  150.2510 C   0  0  0  0  0  0  0  0  0  0  0  0
  162.7830  207.2530  148.2600 C   0  0  0  0  0  2  0  0  0  0  0  0
  160.8210  205.6790  148.3490 C   0  0  2  0  0  3  0  0  0  0  0  0
  161.6030  206.6810  147.4850 C   0  0  2  0  0  3  0  0  0  0  0  0
  162.2630  208.0180  149.4760 C   0  0  0  0  0  2  0  0  0  0  0  0
  161.9810  206.1650  146.0970 C   0  0  0  0  0  2  0  0  0  0  0  0
  161.5810  203.3280  145.2610 C   0  0  0  0  0  1  0  0  0  0  0  0
  160.8070  205.7500  145.3390 N   0  0  0  0  0  2  0  0  0  0  0  0
  159.5610  204.1020  144.2790 O   0  0  0  0  0  0  0  0  0  0  0  0
  160.5960  204.3970  144.9300 C   0  0  0  0  0  0  0  0  0  0  0  0
  1  4  2  0  0  0  0
  1  7  1  0  0  0  0
  4  5  1  0  0  0  0
  5  8  2  0  0  0  0
  6  2  1  0  0  0  0
  6  3  2  0  0  0  0
  7  6  1  0  0  0  0
  8  3  1  0  0  0  0
  9 10  1  0  0  0  0
 10  5  1  1  0  0  0
 10 11  1  0  0  0  0
 11 16  2  0  0  0  0
 13 18  1  0  0  0  0
 13 16  1  0  0  0  0
 14  9  2  0  0  0  0
 14 15  1  0  0  0  0
 15 13  2  0  0  0  0
 16 12  1  0  0  0  0
 18 17  1  0  0  0  0
 19 21  2  0  0  0  0
 21  1  1  0  0  0  0
 22 25  1  0  0  0  0
 23 20  1  1  0  0  0
 23 19  1  0  0  0  0
 24 26  1  6  0  0  0
 24 22  1  0  0  0  0
 24 23  1  0  0  0  0
 25 21  1  0  0  0  0
 28 26  1  0  0  0  0
 29 30  2  0  0  0  0
 30 27  1  0  0  0  0
 30 28  1  0  0  0  0
M  END
>  <MODEL>
9

>  <REMARK>
 VINA RESULT:      -6.6      4.258      8.892
  Name = 
  5 active torsions:
  status: ('A' for Active; 'I' for Inactive)
    1  A    between atoms: C_5  and  C_7
    2  A    between atoms: O_6  and  C_18
    3  A    between atoms: C_9  and  C_19
    4  A    between atoms: C_10  and  N_21
    5  A    between atoms: C_10  and  C_26
                            x       y       z     vdW  Elec       q    Type
                         _______ _______ _______ _____ _____    ______ ____

>  <TORSDO>
F 5

$$$$
