=
 OpenBabel11072414183D

 34 37  0  0  1  0  0  0  0  0999 V2000
  161.5930  210.4700  151.7290 C   0  0  0  0  0  3  0  0  0  0  0  0
  161.3150  208.8610  155.1150 C   0  0  0  0  0  2  0  0  0  0  0  0
  161.9430  208.7490  150.0460 C   0  0  0  0  0  0  0  0  0  0  0  0
  161.7290  206.4010  150.6810 C   0  0  0  0  0  3  0  0  0  0  0  0
  161.1030  207.1430  153.3160 C   0  0  0  0  0  0  0  0  0  0  0  0
  160.8790  204.7950  153.8840 O   0  0  0  0  0  1  0  0  0  0  0  0
  161.8880  210.0990  150.4170 C   0  0  0  0  0  3  0  0  0  0  0  0
  161.3690  208.1370  152.3480 C   0  0  0  0  0  0  0  0  0  0  0  0
  161.6820  207.7600  151.0160 C   0  0  0  0  0  0  0  0  0  0  0  0
  161.4670  205.4230  151.6420 C   0  0  0  0  0  3  0  0  0  0  0  0
  161.3320  209.5000  152.7050 C   0  0  0  0  0  0  0  0  0  0  0  0
  160.6820  207.5330  154.7100 C   0  0  0  0  0  2  0  0  0  0  0  0
  161.1500  205.7880  152.9510 C   0  0  0  0  0  0  0  0  0  0  0  0
  161.0740  209.8630  154.0800 N   0  0  0  0  0  0  0  0  0  0  0  0
  160.6200  211.1880  154.5230 C   0  0  2  0  0  3  0  0  0  0  0  0
  161.7670  211.5230  156.6460 O   0  0  0  0  0  1  0  0  0  0  0  0
  160.5180  211.3460  156.0470 C   0  0  1  0  0  3  0  0  0  0  0  0
  157.2480  211.8870  157.2610 O   0  0  0  0  0  0  0  0  0  0  0  0
  160.0470  213.7980  156.4860 N   0  0  0  0  0  1  0  0  0  0  0  0
  159.5880  212.4490  156.4390 C   0  0  0  0  0  0  0  0  0  0  0  0
  158.3880  212.1630  156.8620 C   0  0  0  0  0  0  0  0  0  0  0  0
  158.4050  210.9350  153.6830 O   0  0  0  0  0  0  0  0  0  0  0  0
  159.4240  211.6750  153.7630 C   0  0  0  0  0  0  0  0  0  0  0  0
  158.2560  213.5100  152.6060 C   0  0  0  0  0  1  0  0  0  0  0  0
  159.4250  212.9450  153.1800 O   0  0  0  0  0  0  0  0  0  0  0  0
  162.2420  208.3530  148.6950 N   0  0  0  0  0  2  0  0  0  0  0  0
  161.6210  207.3320  147.8990 C   0  0  0  0  0  3  0  0  0  0  0  0
  162.3050  206.4360  147.1890 C   0  0  0  0  0  3  0  0  0  0  0  0
  161.5670  204.0380  146.8750 C   0  0  0  0  0  2  0  0  0  0  0  0
  160.7790  204.7180  144.2390 C   0  0  0  0  0  2  0  0  0  0  0  0
  161.6510  205.4260  146.4110 N   0  0  0  0  0  0  0  0  0  0  0  0
  160.3520  203.5320  144.8650 O   0  0  0  0  0  0  0  0  0  0  0  0
  161.4220  203.1050  145.6730 C   0  0  0  0  0  2  0  0  0  0  0  0
  160.8510  205.8540  145.2590 C   0  0  0  0  0  2  0  0  0  0  0  0
  1 11  1  0  0  0  0
  3  7  1  0  0  0  0
  3  9  2  0  0  0  0
  4  9  1  0  0  0  0
  4 10  2  0  0  0  0
  5 12  1  0  0  0  0
  7  1  2  0  0  0  0
  8 11  2  0  0  0  0
  8  5  1  0  0  0  0
  9  8  1  0  0  0  0
 10 13  1  0  0  0  0
 11 14  1  0  0  0  0
 12  2  1  0  0  0  0
 13  5  2  0  0  0  0
 13  6  1  0  0  0  0
 14 15  1  0  0  0  0
 14  2  1  0  0  0  0
 15 23  1  6  0  0  0
 15 17  1  0  0  0  0
 17 20  1  0  0  0  0
 17 16  1  6  0  0  0
 20 19  1  0  0  0  0
 20 21  2  0  0  0  0
 21 18  2  0  0  0  0
 22 23  2  0  0  0  0
 24 25  1  0  0  0  0
 25 23  1  0  0  0  0
 26  3  1  0  0  0  0
 27 26  1  0  0  0  0
 28 27  2  0  0  0  0
 30 32  1  0  0  0  0
 30 34  1  0  0  0  0
 31 29  1  0  0  0  0
 31 28  1  0  0  0  0
 32 33  1  0  0  0  0
 33 29  1  0  0  0  0
 34 31  1  0  0  0  0
M  END
>  <MODEL>
1

>  <REMARK>
 VINA RESULT:      -7.4      0.000      0.000
  Name = 
  8 active torsions:
  status: ('A' for Active; 'I' for Inactive)
    1  A    between atoms: C_7  and  N_28
    2  A    between atoms: C_11  and  C_25
    3  A    between atoms: C_11  and  CA_29
    4  A    between atoms: N_13  and  C_32
    5  A    between atoms: C_20  and  O_21
    6  A    between atoms: C_20  and  C_25
    7  A    between atoms: C_24  and  N_28
    8  A    between atoms: C_25  and  N_33
                            x       y       z     vdW  Elec       q    Type
                         _______ _______ _______ _____ _____    ______ ____

>  <TORSDO>
F 8

$$$$
=
 OpenBabel11072414183D

 34 37  0  0  1  0  0  0  0  0999 V2000
  160.2490  208.3160  154.8930 C   0  0  0  0  0  3  0  0  0  0  0  0
  159.8220  211.5660  153.0540 C   0  0  0  0  0  2  0  0  0  0  0  0
  161.1750  206.6510  153.3810 C   0  0  0  0  0  0  0  0  0  0  0  0
  161.9620  207.3480  151.1780 C   0  0  0  0  0  3  0  0  0  0  0  0
  161.2730  210.0110  151.7460 C   0  0  0  0  0  0  0  0  0  0  0  0
  162.0920  210.6510  149.5550 O   0  0  0  0  0  1  0  0  0  0  0  0
  160.6060  206.9970  154.6140 C   0  0  0  0  0  3  0  0  0  0  0  0
  161.0440  209.0030  152.7090 C   0  0  0  0  0  0  0  0  0  0  0  0
  161.3960  207.6590  152.4220 C   0  0  0  0  0  0  0  0  0  0  0  0
  162.1840  208.3480  150.2300 C   0  0  0  0  0  3  0  0  0  0  0  0
  160.4610  209.3290  153.9500 C   0  0  0  0  0  0  0  0  0  0  0  0
  160.9860  211.4540  152.0740 C   0  0  0  0  0  2  0  0  0  0  0  0
  161.8470  209.6730  150.5100 C   0  0  0  0  0  0  0  0  0  0  0  0
  160.0510  210.6930  154.2010 N   0  0  0  0  0  0  0  0  0  0  0  0
  159.8080  211.2590  155.5340 C   0  0  2  0  0  3  0  0  0  0  0  0
  159.0830  213.4430  154.7340 O   0  0  0  0  0  1  0  0  0  0  0  0
  158.7500  212.3720  155.5660 C   0  0  1  0  0  3  0  0  0  0  0  0
  155.7910  213.3100  153.8850 O   0  0  0  0  0  0  0  0  0  0  0  0
  157.0160  210.5230  155.5650 N   0  0  0  0  0  1  0  0  0  0  0  0
  157.3830  211.8620  155.2410 C   0  0  0  0  0  0  0  0  0  0  0  0
  156.5660  212.6030  154.5450 C   0  0  0  0  0  0  0  0  0  0  0  0
  161.0280  212.3580  157.2610 O   0  0  0  0  0  0  0  0  0  0  0  0
  161.0750  211.5820  156.2670 C   0  0  0  0  0  0  0  0  0  0  0  0
  163.2720  210.6130  156.8180 C   0  0  0  0  0  1  0  0  0  0  0  0
  162.2850  211.0050  155.8750 O   0  0  0  0  0  0  0  0  0  0  0  0
  161.5520  205.2940  153.0840 N   0  0  0  0  0  2  0  0  0  0  0  0
  161.5470  204.6170  151.8170 C   0  0  0  0  0  3  0  0  0  0  0  0
  160.7720  203.5680  151.5490 C   0  0  0  0  0  3  0  0  0  0  0  0
  160.5020  201.4890  150.1340 C   0  0  0  0  0  2  0  0  0  0  0  0
  161.4810  202.9710  147.9250 C   0  0  0  0  0  2  0  0  0  0  0  0
  160.7890  202.9200  150.2700 N   0  0  0  0  0  0  0  0  0  0  0  0
  160.8150  201.7420  147.7650 O   0  0  0  0  0  0  0  0  0  0  0  0
  161.1750  200.9500  148.8730 C   0  0  0  0  0  2  0  0  0  0  0  0
  160.8530  203.7630  149.0720 C   0  0  0  0  0  2  0  0  0  0  0  0
  2 14  1  0  0  0  0
  3  7  2  0  0  0  0
  4  9  1  0  0  0  0
  5 12  1  0  0  0  0
  5  8  1  0  0  0  0
  6 13  1  0  0  0  0
  7  1  1  0  0  0  0
  8 11  1  0  0  0  0
  9  8  2  0  0  0  0
  9  3  1  0  0  0  0
 10 13  1  0  0  0  0
 10  4  2  0  0  0  0
 11 14  1  0  0  0  0
 11  1  2  0  0  0  0
 12  2  1  0  0  0  0
 13  5  2  0  0  0  0
 14 15  1  0  0  0  0
 15 17  1  0  0  0  0
 15 23  1  6  0  0  0
 17 16  1  6  0  0  0
 18 21  2  0  0  0  0
 20 19  1  0  0  0  0
 20 17  1  0  0  0  0
 21 20  2  0  0  0  0
 23 22  2  0  0  0  0
 25 23  1  0  0  0  0
 25 24  1  0  0  0  0
 26  3  1  0  0  0  0
 27 26  1  0  0  0  0
 28 27  2  0  0  0  0
 29 31  1  0  0  0  0
 30 34  1  0  0  0  0
 31 28  1  0  0  0  0
 32 30  1  0  0  0  0
 32 33  1  0  0  0  0
 33 29  1  0  0  0  0
 34 31  1  0  0  0  0
M  END
>  <MODEL>
2

>  <REMARK>
 VINA RESULT:      -7.4      2.582      4.065
  Name = 
  8 active torsions:
  status: ('A' for Active; 'I' for Inactive)
    1  A    between atoms: C_7  and  N_28
    2  A    between atoms: C_11  and  C_25
    3  A    between atoms: C_11  and  CA_29
    4  A    between atoms: N_13  and  C_32
    5  A    between atoms: C_20  and  O_21
    6  A    between atoms: C_20  and  C_25
    7  A    between atoms: C_24  and  N_28
    8  A    between atoms: C_25  and  N_33
                            x       y       z     vdW  Elec       q    Type
                         _______ _______ _______ _____ _____    ______ ____

>  <TORSDO>
F 8

$$$$
=
 OpenBabel11072414183D

 34 37  0  0  1  0  0  0  0  0999 V2000
  161.4510  210.1470  152.3900 C   0  0  0  0  0  3  0  0  0  0  0  0
  161.0770  207.9030  155.3830 C   0  0  0  0  0  2  0  0  0  0  0  0
  161.9720  208.7990  150.4340 C   0  0  0  0  0  0  0  0  0  0  0  0
  161.8410  206.3670  150.5930 C   0  0  0  0  0  3  0  0  0  0  0  0
  161.0440  206.5590  153.2790 C   0  0  0  0  0  0  0  0  0  0  0  0
  160.9050  204.1390  153.3730 O   0  0  0  0  0  1  0  0  0  0  0  0
  161.8320  210.0490  151.0520 C   0  0  0  0  0  3  0  0  0  0  0  0
  161.3100  207.7310  152.5360 C   0  0  0  0  0  0  0  0  0  0  0  0
  161.7100  207.6320  151.1790 C   0  0  0  0  0  0  0  0  0  0  0  0
  161.5770  205.2110  151.3310 C   0  0  0  0  0  3  0  0  0  0  0  0
  161.1880  208.9970  153.1450 C   0  0  0  0  0  0  0  0  0  0  0  0
  160.5330  206.6550  154.6940 C   0  0  0  0  0  2  0  0  0  0  0  0
  161.1760  205.3030  152.6650 C   0  0  0  0  0  0  0  0  0  0  0  0
  160.8420  209.0760  154.5470 N   0  0  0  0  0  0  0  0  0  0  0  0
  160.3020  210.2720  155.2070 C   0  0  2  0  0  3  0  0  0  0  0  0
  158.7070  210.5840  153.3920 O   0  0  0  0  0  1  0  0  0  0  0  0
  159.5760  211.2440  154.2640 C   0  0  1  0  0  3  0  0  0  0  0  0
  156.8870  211.7080  156.5020 O   0  0  0  0  0  0  0  0  0  0  0  0
  159.3410  213.6580  154.9980 N   0  0  0  0  0  1  0  0  0  0  0  0
  158.8540  212.3190  155.0090 C   0  0  0  0  0  0  0  0  0  0  0  0
  157.8460  212.0080  155.7760 C   0  0  0  0  0  0  0  0  0  0  0  0
  160.8970  211.3240  157.2600 O   0  0  0  0  0  0  0  0  0  0  0  0
  161.2880  210.9190  156.1310 C   0  0  0  0  0  0  0  0  0  0  0  0
  163.6820  210.9780  156.7110 C   0  0  0  0  0  1  0  0  0  0  0  0
  162.6300  211.0420  155.7600 O   0  0  0  0  0  0  0  0  0  0  0  0
  162.3600  208.6850  149.0520 N   0  0  0  0  0  2  0  0  0  0  0  0
  162.2760  207.5420  148.1870 C   0  0  0  0  0  3  0  0  0  0  0  0
  161.1800  207.2180  147.5020 C   0  0  0  0  0  3  0  0  0  0  0  0
  161.5700  204.7510  147.1050 C   0  0  0  0  0  2  0  0  0  0  0  0
  160.9730  205.1870  144.3680 C   0  0  0  0  0  2  0  0  0  0  0  0
  161.1340  206.0730  146.6430 N   0  0  0  0  0  0  0  0  0  0  0  0
  160.9940  203.8980  144.9340 O   0  0  0  0  0  0  0  0  0  0  0  0
  162.0110  203.9100  145.9080 C   0  0  0  0  0  2  0  0  0  0  0  0
  160.4100  206.1920  145.3730 C   0  0  0  0  0  2  0  0  0  0  0  0
  1 11  1  0  0  0  0
  3  7  1  0  0  0  0
  3  9  2  0  0  0  0
  4  9  1  0  0  0  0
  4 10  2  0  0  0  0
  5 12  1  0  0  0  0
  7  1  2  0  0  0  0
  8 11  2  0  0  0  0
  8  5  1  0  0  0  0
  9  8  1  0  0  0  0
 10 13  1  0  0  0  0
 11 14  1  0  0  0  0
 12  2  1  0  0  0  0
 13  5  2  0  0  0  0
 13  6  1  0  0  0  0
 14 15  1  0  0  0  0
 14  2  1  0  0  0  0
 15 23  1  6  0  0  0
 17 16  1  1  0  0  0
 17 20  1  0  0  0  0
 17 15  1  0  0  0  0
 19 20  1  0  0  0  0
 20 21  2  0  0  0  0
 21 18  2  0  0  0  0
 23 22  2  0  0  0  0
 25 23  1  0  0  0  0
 25 24  1  0  0  0  0
 26  3  1  0  0  0  0
 27 26  1  0  0  0  0
 28 27  2  0  0  0  0
 30 32  1  0  0  0  0
 30 34  1  0  0  0  0
 31 29  1  0  0  0  0
 31 28  1  0  0  0  0
 32 33  1  0  0  0  0
 33 29  1  0  0  0  0
 34 31  1  0  0  0  0
M  END
>  <MODEL>
3

>  <REMARK>
 VINA RESULT:      -7.0      1.047      2.089
  Name = 
  8 active torsions:
  status: ('A' for Active; 'I' for Inactive)
    1  A    between atoms: C_7  and  N_28
    2  A    between atoms: C_11  and  C_25
    3  A    between atoms: C_11  and  CA_29
    4  A    between atoms: N_13  and  C_32
    5  A    between atoms: C_20  and  O_21
    6  A    between atoms: C_20  and  C_25
    7  A    between atoms: C_24  and  N_28
    8  A    between atoms: C_25  and  N_33
                            x       y       z     vdW  Elec       q    Type
                         _______ _______ _______ _____ _____    ______ ____

>  <TORSDO>
F 8

$$$$
=
 OpenBabel11072414183D

 34 37  0  0  1  0  0  0  0  0999 V2000
  161.2560  210.7050  151.8400 C   0  0  0  0  0  3  0  0  0  0  0  0
  160.2810  210.7720  155.4700 C   0  0  0  0  0  2  0  0  0  0  0  0
  161.9470  208.4530  151.2340 C   0  0  0  0  0  0  0  0  0  0  0  0
  161.6060  206.6330  152.8250 C   0  0  0  0  0  3  0  0  0  0  0  0
  160.4470  208.4170  154.6580 C   0  0  0  0  0  0  0  0  0  0  0  0
  160.1100  206.5670  156.1900 O   0  0  0  0  0  1  0  0  0  0  0  0
  161.8170  209.8140  150.9260 C   0  0  0  0  0  3  0  0  0  0  0  0
  160.9080  208.8900  153.4090 C   0  0  0  0  0  0  0  0  0  0  0  0
  161.4900  207.9870  152.4830 C   0  0  0  0  0  0  0  0  0  0  0  0
  161.1490  206.1710  154.0610 C   0  0  0  0  0  3  0  0  0  0  0  0
  160.7980  210.2570  153.0860 C   0  0  0  0  0  0  0  0  0  0  0  0
  159.7460  209.3500  155.6130 C   0  0  0  0  0  2  0  0  0  0  0  0
  160.5690  207.0540  154.9730 C   0  0  0  0  0  0  0  0  0  0  0  0
  160.2600  211.1740  154.0660 N   0  0  0  0  0  0  0  0  0  0  0  0
  159.7250  212.5060  153.7590 C   0  0  2  0  0  3  0  0  0  0  0  0
  159.1350  214.4530  155.0990 O   0  0  0  0  0  1  0  0  0  0  0  0
  158.8450  213.1070  154.8650 C   0  0  1  0  0  3  0  0  0  0  0  0
  156.2180  210.8020  155.3560 O   0  0  0  0  0  0  0  0  0  0  0  0
  156.6220  213.9860  154.0210 N   0  0  0  0  0  1  0  0  0  0  0  0
  157.3880  212.9260  154.5880 C   0  0  0  0  0  0  0  0  0  0  0  0
  156.7860  211.8380  154.9820 C   0  0  0  0  0  0  0  0  0  0  0  0
  158.2540  211.7650  152.0380 O   0  0  0  0  0  0  0  0  0  0  0  0
  159.1410  212.5930  152.3810 C   0  0  0  0  0  0  0  0  0  0  0  0
  158.8010  213.9360  150.3440 C   0  0  0  0  0  1  0  0  0  0  0  0
  159.5510  213.5980  151.5010 O   0  0  0  0  0  0  0  0  0  0  0  0
  162.5200  207.5220  150.2970 N   0  0  0  0  0  2  0  0  0  0  0  0
  162.1450  207.2770  148.9320 C   0  0  0  0  0  3  0  0  0  0  0  0
  162.1760  206.0700  148.3680 C   0  0  0  0  0  3  0  0  0  0  0  0
  160.7190  206.6480  146.3830 C   0  0  0  0  0  2  0  0  0  0  0  0
  161.8180  204.4080  145.0370 C   0  0  0  0  0  2  0  0  0  0  0  0
  161.7890  205.8610  147.0050 N   0  0  0  0  0  0  0  0  0  0  0  0
  161.1100  205.4170  144.3570 O   0  0  0  0  0  0  0  0  0  0  0  0
  160.1000  205.8520  145.2350 C   0  0  0  0  0  2  0  0  0  0  0  0
  162.6480  205.0190  146.1660 C   0  0  0  0  0  2  0  0  0  0  0  0
  1 11  1  0  0  0  0
  2 12  1  0  0  0  0
  3  9  2  0  0  0  0
  4 10  2  0  0  0  0
  5 13  2  0  0  0  0
  5 12  1  0  0  0  0
  7  3  1  0  0  0  0
  7  1  2  0  0  0  0
  8  5  1  0  0  0  0
  9  4  1  0  0  0  0
  9  8  1  0  0  0  0
 10 13  1  0  0  0  0
 11  8  2  0  0  0  0
 11 14  1  0  0  0  0
 13  6  1  0  0  0  0
 14  2  1  0  0  0  0
 15 23  1  6  0  0  0
 15 14  1  0  0  0  0
 15 17  1  0  0  0  0
 17 16  1  6  0  0  0
 19 20  1  0  0  0  0
 20 17  1  0  0  0  0
 20 21  2  0  0  0  0
 21 18  2  0  0  0  0
 22 23  2  0  0  0  0
 24 25  1  0  0  0  0
 25 23  1  0  0  0  0
 26  3  1  0  0  0  0
 27 26  1  0  0  0  0
 28 27  2  0  0  0  0
 29 31  1  0  0  0  0
 30 34  1  0  0  0  0
 31 28  1  0  0  0  0
 32 30  1  0  0  0  0
 32 33  1  0  0  0  0
 33 29  1  0  0  0  0
 34 31  1  0  0  0  0
M  END
>  <MODEL>
4

>  <REMARK>
 VINA RESULT:      -7.0      1.713      2.212
  Name = 
  8 active torsions:
  status: ('A' for Active; 'I' for Inactive)
    1  A    between atoms: C_7  and  N_28
    2  A    between atoms: C_11  and  C_25
    3  A    between atoms: C_11  and  CA_29
    4  A    between atoms: N_13  and  C_32
    5  A    between atoms: C_20  and  O_21
    6  A    between atoms: C_20  and  C_25
    7  A    between atoms: C_24  and  N_28
    8  A    between atoms: C_25  and  N_33
                            x       y       z     vdW  Elec       q    Type
                         _______ _______ _______ _____ _____    ______ ____

>  <TORSDO>
F 8

$$$$
=
 OpenBabel11072414183D

 34 37  0  0  1  0  0  0  0  0999 V2000
  161.7480  207.8100  148.7330 C   0  0  0  0  0  3  0  0  0  0  0  0
  160.4550  204.2940  149.0440 C   0  0  0  0  0  2  0  0  0  0  0  0
  161.8880  208.8150  150.9440 C   0  0  0  0  0  0  0  0  0  0  0  0
  161.5410  207.4150  152.9130 C   0  0  0  0  0  3  0  0  0  0  0  0
  161.1520  205.1650  151.2780 C   0  0  0  0  0  0  0  0  0  0  0  0
  160.8400  203.8170  153.2710 O   0  0  0  0  0  1  0  0  0  0  0  0
  161.9560  208.9230  149.5480 C   0  0  0  0  0  3  0  0  0  0  0  0
  161.4180  206.4240  150.6940 C   0  0  0  0  0  0  0  0  0  0  0  0
  161.6170  207.5590  151.5220 C   0  0  0  0  0  0  0  0  0  0  0  0
  161.2770  206.1690  153.4850 C   0  0  0  0  0  3  0  0  0  0  0  0
  161.4780  206.5550  149.2920 C   0  0  0  0  0  0  0  0  0  0  0  0
  161.0280  203.9370  150.4130 C   0  0  0  0  0  2  0  0  0  0  0  0
  161.0880  205.0480  152.6760 C   0  0  0  0  0  0  0  0  0  0  0  0
  161.2100  205.4010  148.4630 N   0  0  0  0  0  0  0  0  0  0  0  0
  161.6080  205.2740  147.0560 C   0  0  2  0  0  3  0  0  0  0  0  0
  160.3110  206.9590  145.8680 O   0  0  0  0  0  1  0  0  0  0  0  0
  160.4910  205.5860  146.0490 C   0  0  1  0  0  3  0  0  0  0  0  0
  159.3310  202.8570  144.1360 O   0  0  0  0  0  0  0  0  0  0  0  0
  161.5810  205.4810  143.7630 N   0  0  0  0  0  1  0  0  0  0  0  0
  160.7090  204.9090  144.7350 C   0  0  0  0  0  0  0  0  0  0  0  0
  160.0020  203.8570  144.4250 C   0  0  0  0  0  0  0  0  0  0  0  0
  163.3780  204.0490  146.0320 O   0  0  0  0  0  0  0  0  0  0  0  0
  162.3610  204.0080  146.7780 C   0  0  0  0  0  0  0  0  0  0  0  0
  161.2060  201.8350  146.6540 C   0  0  0  0  0  1  0  0  0  0  0  0
  161.9620  202.8040  147.3650 O   0  0  0  0  0  0  0  0  0  0  0  0
  162.1050  209.9550  151.7960 N   0  0  0  0  0  2  0  0  0  0  0  0
  161.1680  210.9650  152.2020 C   0  0  0  0  0  3  0  0  0  0  0  0
  159.9860  210.6910  152.7490 C   0  0  0  0  0  3  0  0  0  0  0  0
  158.3010  211.6250  154.3880 C   0  0  0  0  0  2  0  0  0  0  0  0
  157.7620  213.6900  152.5220 C   0  0  0  0  0  2  0  0  0  0  0  0
  159.0770  211.7250  153.1480 N   0  0  0  0  0  0  0  0  0  0  0  0
  157.3590  213.7740  153.8680 O   0  0  0  0  0  0  0  0  0  0  0  0
  157.0290  212.4640  154.2630 C   0  0  0  0  0  2  0  0  0  0  0  0
  159.1220  212.9990  152.4240 C   0  0  0  0  0  2  0  0  0  0  0  0
  1 11  2  0  0  0  0
  1  7  1  0  0  0  0
  2 12  1  0  0  0  0
  3  9  1  0  0  0  0
  3 26  1  0  0  0  0
  4 10  1  0  0  0  0
  5 13  1  0  0  0  0
  7  3  2  0  0  0  0
  8  5  2  0  0  0  0
  8  9  1  0  0  0  0
  9  4  2  0  0  0  0
 11  8  1  0  0  0  0
 12  5  1  0  0  0  0
 13  6  1  0  0  0  0
 13 10  2  0  0  0  0
 14  2  1  0  0  0  0
 14 11  1  0  0  0  0
 15 23  1  1  0  0  0
 15 14  1  0  0  0  0
 17 16  1  6  0  0  0
 17 15  1  0  0  0  0
 18 21  2  0  0  0  0
 19 20  1  0  0  0  0
 20 17  1  0  0  0  0
 21 20  2  0  0  0  0
 22 23  2  0  0  0  0
 23 25  1  0  0  0  0
 24 25  1  0  0  0  0
 26 27  1  0  0  0  0
 27 28  2  0  0  0  0
 28 31  1  0  0  0  0
 30 32  1  0  0  0  0
 31 29  1  0  0  0  0
 32 33  1  0  0  0  0
 33 29  1  0  0  0  0
 34 30  1  0  0  0  0
 34 31  1  0  0  0  0
M  END
>  <MODEL>
5

>  <REMARK>
 VINA RESULT:      -6.9      2.130      9.406
  Name = 
  8 active torsions:
  status: ('A' for Active; 'I' for Inactive)
    1  A    between atoms: C_7  and  N_28
    2  A    between atoms: C_11  and  C_25
    3  A    between atoms: C_11  and  CA_29
    4  A    between atoms: N_13  and  C_32
    5  A    between atoms: C_20  and  O_21
    6  A    between atoms: C_20  and  C_25
    7  A    between atoms: C_24  and  N_28
    8  A    between atoms: C_25  and  N_33
                            x       y       z     vdW  Elec       q    Type
                         _______ _______ _______ _____ _____    ______ ____

>  <TORSDO>
F 8

$$$$
=
 OpenBabel11072414183D

 34 37  0  0  1  0  0  0  0  0999 V2000
  160.8410  207.0720  153.7240 C   0  0  0  0  0  3  0  0  0  0  0  0
  160.4450  210.6490  152.6390 C   0  0  0  0  0  2  0  0  0  0  0  0
  161.3970  205.7020  151.7920 C   0  0  0  0  0  0  0  0  0  0  0  0
  161.9250  206.7910  149.6720 C   0  0  0  0  0  3  0  0  0  0  0  0
  161.5560  209.3150  150.8450 C   0  0  0  0  0  0  0  0  0  0  0  0
  162.1130  210.3440  148.7200 O   0  0  0  0  0  1  0  0  0  0  0  0
  161.0400  205.8200  153.1420 C   0  0  0  0  0  3  0  0  0  0  0  0
  161.3790  208.1460  151.6180 C   0  0  0  0  0  0  0  0  0  0  0  0
  161.5690  206.8710  151.0240 C   0  0  0  0  0  0  0  0  0  0  0  0
  162.0980  207.9490  148.9120 C   0  0  0  0  0  3  0  0  0  0  0  0
  161.0070  208.2430  152.9740 C   0  0  0  0  0  0  0  0  0  0  0  0
  161.4450  210.6750  151.4880 C   0  0  0  0  0  2  0  0  0  0  0  0
  161.9200  209.2060  149.4930 C   0  0  0  0  0  0  0  0  0  0  0  0
  160.7560  209.5480  153.5460 N   0  0  0  0  0  0  0  0  0  0  0  0
  160.7530  209.8420  154.9840 C   0  0  2  0  0  3  0  0  0  0  0  0
  159.6820  208.7460  156.8780 O   0  0  0  0  0  1  0  0  0  0  0  0
  159.4490  209.4670  155.7050 C   0  0  1  0  0  3  0  0  0  0  0  0
  156.8780  211.4090  154.2650 O   0  0  0  0  0  0  0  0  0  0  0  0
  158.6410  211.2990  157.2590 N   0  0  0  0  0  1  0  0  0  0  0  0
  158.5960  210.6620  155.9850 C   0  0  0  0  0  0  0  0  0  0  0  0
  157.7130  211.0460  155.1050 C   0  0  0  0  0  0  0  0  0  0  0  0
  160.8460  212.1950  154.6210 O   0  0  0  0  0  0  0  0  0  0  0  0
  161.2650  211.2150  155.2960 C   0  0  0  0  0  0  0  0  0  0  0  0
  162.9120  210.3410  156.9060 C   0  0  0  0  0  1  0  0  0  0  0  0
  162.1700  211.4120  156.3420 O   0  0  0  0  0  0  0  0  0  0  0  0
  161.6100  204.4160  151.1820 N   0  0  0  0  0  2  0  0  0  0  0  0
  161.1050  203.9200  149.9320 C   0  0  0  0  0  3  0  0  0  0  0  0
  161.8860  203.4550  148.9580 C   0  0  0  0  0  3  0  0  0  0  0  0
  160.7380  201.6310  147.6340 C   0  0  0  0  0  2  0  0  0  0  0  0
  161.2270  203.1470  145.2890 C   0  0  0  0  0  2  0  0  0  0  0  0
  161.3470  202.9620  147.7250 N   0  0  0  0  0  0  0  0  0  0  0  0
  160.3040  202.0850  145.3150 O   0  0  0  0  0  0  0  0  0  0  0  0
  160.8340  201.1230  146.1960 C   0  0  0  0  0  2  0  0  0  0  0  0
  161.1890  203.9070  146.6150 C   0  0  0  0  0  2  0  0  0  0  0  0
  2 14  1  0  0  0  0
  3  7  2  0  0  0  0
  4  9  1  0  0  0  0
  5 12  1  0  0  0  0
  5  8  1  0  0  0  0
  6 13  1  0  0  0  0
  7  1  1  0  0  0  0
  8 11  1  0  0  0  0
  9  8  2  0  0  0  0
  9  3  1  0  0  0  0
 10 13  1  0  0  0  0
 10  4  2  0  0  0  0
 11 14  1  0  0  0  0
 11  1  2  0  0  0  0
 12  2  1  0  0  0  0
 13  5  2  0  0  0  0
 14 15  1  0  0  0  0
 15 23  1  6  0  0  0
 15 17  1  0  0  0  0
 17 20  1  0  0  0  0
 17 16  1  1  0  0  0
 18 21  2  0  0  0  0
 20 19  1  0  0  0  0
 21 20  2  0  0  0  0
 22 23  2  0  0  0  0
 23 25  1  0  0  0  0
 25 24  1  0  0  0  0
 26  3  1  0  0  0  0
 27 26  1  0  0  0  0
 28 27  2  0  0  0  0
 29 31  1  0  0  0  0
 30 32  1  0  0  0  0
 30 34  1  0  0  0  0
 31 28  1  0  0  0  0
 32 33  1  0  0  0  0
 33 29  1  0  0  0  0
 34 31  1  0  0  0  0
M  END
>  <MODEL>
6

>  <REMARK>
 VINA RESULT:      -6.7      2.080      3.480
  Name = 
  8 active torsions:
  status: ('A' for Active; 'I' for Inactive)
    1  A    between atoms: C_7  and  N_28
    2  A    between atoms: C_11  and  C_25
    3  A    between atoms: C_11  and  CA_29
    4  A    between atoms: N_13  and  C_32
    5  A    between atoms: C_20  and  O_21
    6  A    between atoms: C_20  and  C_25
    7  A    between atoms: C_24  and  N_28
    8  A    between atoms: C_25  and  N_33
                            x       y       z     vdW  Elec       q    Type
                         _______ _______ _______ _____ _____    ______ ____

>  <TORSDO>
F 8

$$$$
=
 OpenBabel11072414183D

 34 37  0  0  1  0  0  0  0  0999 V2000
  161.4620  206.6580  148.0040 C   0  0  0  0  0  3  0  0  0  0  0  0
  160.1430  203.8660  150.1480 C   0  0  0  0  0  2  0  0  0  0  0  0
  161.9590  208.5830  149.4050 C   0  0  0  0  0  0  0  0  0  0  0  0
  161.8770  208.3420  151.8330 C   0  0  0  0  0  3  0  0  0  0  0  0
  161.1900  205.6320  151.5680 C   0  0  0  0  0  0  0  0  0  0  0  0
  161.1480  205.4440  153.9860 O   0  0  0  0  0  1  0  0  0  0  0  0
  161.8190  207.9990  148.1390 C   0  0  0  0  0  3  0  0  0  0  0  0
  161.3970  206.4230  150.4160 C   0  0  0  0  0  0  0  0  0  0  0  0
  161.7470  207.7910  150.5520 C   0  0  0  0  0  0  0  0  0  0  0  0
  161.6710  207.5560  152.9690 C   0  0  0  0  0  3  0  0  0  0  0  0
  161.2470  205.8580  149.1340 C   0  0  0  0  0  0  0  0  0  0  0  0
  160.9050  204.1570  151.4370 C   0  0  0  0  0  2  0  0  0  0  0  0
  161.3340  206.2070  152.8410 C   0  0  0  0  0  0  0  0  0  0  0  0
  160.8280  204.4790  149.0130 N   0  0  0  0  0  0  0  0  0  0  0  0
  161.0070  203.6540  147.8130 C   0  0  2  0  0  3  0  0  0  0  0  0
  161.0110  201.7390  149.3190 O   0  0  0  0  0  1  0  0  0  0  0  0
  161.4780  202.2190  148.0930 C   0  0  1  0  0  3  0  0  0  0  0  0
  159.8650  202.1560  144.9550 O   0  0  0  0  0  0  0  0  0  0  0  0
  161.5790  199.9320  147.0060 N   0  0  0  0  0  1  0  0  0  0  0  0
  161.1140  201.2790  146.9900 C   0  0  0  0  0  0  0  0  0  0  0  0
  160.4750  201.7270  145.9450 C   0  0  0  0  0  0  0  0  0  0  0  0
  163.0280  204.3750  146.7780 O   0  0  0  0  0  0  0  0  0  0  0  0
  161.7680  204.3600  146.7310 C   0  0  0  0  0  0  0  0  0  0  0  0
  161.7730  205.4500  144.5220 C   0  0  0  0  0  1  0  0  0  0  0  0
  161.0910  204.9640  145.6690 O   0  0  0  0  0  0  0  0  0  0  0  0
  162.3310  209.9650  149.5580 N   0  0  0  0  0  2  0  0  0  0  0  0
  162.2470  211.0290  148.5970 C   0  0  0  0  0  3  0  0  0  0  0  0
  161.1390  211.3160  147.9150 C   0  0  0  0  0  3  0  0  0  0  0  0
  162.3120  213.0260  146.4660 C   0  0  0  0  0  2  0  0  0  0  0  0
  159.7720  214.1410  145.8810 C   0  0  0  0  0  2  0  0  0  0  0  0
  161.0890  212.3900  146.9680 N   0  0  0  0  0  0  0  0  0  0  0  0
  160.9170  214.4440  145.1190 O   0  0  0  0  0  0  0  0  0  0  0  0
  161.9990  214.4530  146.0190 C   0  0  0  0  0  2  0  0  0  0  0  0
  159.8060  212.6770  146.3180 C   0  0  0  0  0  2  0  0  0  0  0  0
  1  7  2  0  0  0  0
  1 11  1  0  0  0  0
  2 12  1  0  0  0  0
  3 26  1  0  0  0  0
  3  9  2  0  0  0  0
  4 10  2  0  0  0  0
  5 13  2  0  0  0  0
  7  3  1  0  0  0  0
  8  9  1  0  0  0  0
  8  5  1  0  0  0  0
  9  4  1  0  0  0  0
 11  8  2  0  0  0  0
 12  5  1  0  0  0  0
 13 10  1  0  0  0  0
 13  6  1  0  0  0  0
 14 11  1  0  0  0  0
 14  2  1  0  0  0  0
 15 23  1  6  0  0  0
 15 17  1  0  0  0  0
 15 14  1  0  0  0  0
 17 16  1  1  0  0  0
 18 21  2  0  0  0  0
 20 19  1  0  0  0  0
 20 17  1  0  0  0  0
 21 20  2  0  0  0  0
 23 22  2  0  0  0  0
 24 25  1  0  0  0  0
 25 23  1  0  0  0  0
 27 26  1  0  0  0  0
 28 27  2  0  0  0  0
 29 31  1  0  0  0  0
 30 34  1  0  0  0  0
 31 28  1  0  0  0  0
 32 30  1  0  0  0  0
 32 33  1  0  0  0  0
 33 29  1  0  0  0  0
 34 31  1  0  0  0  0
M  END
>  <MODEL>
7

>  <REMARK>
 VINA RESULT:      -6.7      3.950      8.833
  Name = 
  8 active torsions:
  status: ('A' for Active; 'I' for Inactive)
    1  A    between atoms: C_7  and  N_28
    2  A    between atoms: C_11  and  C_25
    3  A    between atoms: C_11  and  CA_29
    4  A    between atoms: N_13  and  C_32
    5  A    between atoms: C_20  and  O_21
    6  A    between atoms: C_20  and  C_25
    7  A    between atoms: C_24  and  N_28
    8  A    between atoms: C_25  and  N_33
                            x       y       z     vdW  Elec       q    Type
                         _______ _______ _______ _____ _____    ______ ____

>  <TORSDO>
F 8

$$$$
=
 OpenBabel11072414183D

 34 37  0  0  1  0  0  0  0  0999 V2000
  161.5820  206.7300  148.0030 C   0  0  0  0  0  3  0  0  0  0  0  0
  160.3490  203.2190  148.5310 C   0  0  0  0  0  2  0  0  0  0  0  0
  161.7540  207.8550  150.1530 C   0  0  0  0  0  0  0  0  0  0  0  0
  161.4700  206.5580  152.2020 C   0  0  0  0  0  3  0  0  0  0  0  0
  161.0800  204.2180  150.6990 C   0  0  0  0  0  0  0  0  0  0  0  0
  160.8310  202.9750  152.7670 O   0  0  0  0  0  1  0  0  0  0  0  0
  161.7910  207.8870  148.7520 C   0  0  0  0  0  3  0  0  0  0  0  0
  161.3150  205.4470  150.0420 C   0  0  0  0  0  0  0  0  0  0  0  0
  161.5150  206.6280  150.8030 C   0  0  0  0  0  0  0  0  0  0  0  0
  161.2370  205.3420  152.8450 C   0  0  0  0  0  3  0  0  0  0  0  0
  161.3420  205.5030  148.6340 C   0  0  0  0  0  0  0  0  0  0  0  0
  160.9560  202.9430  149.9040 C   0  0  0  0  0  2  0  0  0  0  0  0
  161.0470  204.1760  152.1020 C   0  0  0  0  0  0  0  0  0  0  0  0
  161.0740  204.3030  147.8740 N   0  0  0  0  0  0  0  0  0  0  0  0
  161.4440  204.1050  146.4670 C   0  0  2  0  0  3  0  0  0  0  0  0
  161.5840  201.7630  147.1230 O   0  0  0  0  0  1  0  0  0  0  0  0
  161.5230  202.6340  146.0330 C   0  0  1  0  0  3  0  0  0  0  0  0
  159.7790  199.8020  144.8510 O   0  0  0  0  0  0  0  0  0  0  0  0
  159.5950  203.2570  144.5110 N   0  0  0  0  0  1  0  0  0  0  0  0
  160.4020  202.2540  145.1210 C   0  0  0  0  0  0  0  0  0  0  0  0
  160.0800  200.9970  144.9820 C   0  0  0  0  0  0  0  0  0  0  0  0
  163.7520  204.6940  146.5470 O   0  0  0  0  0  0  0  0  0  0  0  0
  162.6170  204.9410  146.0530 C   0  0  0  0  0  0  0  0  0  0  0  0
  161.5860  205.8280  143.9990 C   0  0  0  0  0  1  0  0  0  0  0  0
  162.4630  205.9580  145.1080 O   0  0  0  0  0  0  0  0  0  0  0  0
  161.9720  209.0420  150.9370 N   0  0  0  0  0  2  0  0  0  0  0  0
  161.0150  209.8280  151.6630 C   0  0  0  0  0  3  0  0  0  0  0  0
  161.1820  210.2020  152.9310 C   0  0  0  0  0  3  0  0  0  0  0  0
  160.4730  211.5370  154.9580 C   0  0  0  0  0  2  0  0  0  0  0  0
  157.8750  211.6950  153.8350 C   0  0  0  0  0  2  0  0  0  0  0  0
  160.2080  210.9920  153.6230 N   0  0  0  0  0  0  0  0  0  0  0  0
  158.2860  212.5310  154.8910 O   0  0  0  0  0  0  0  0  0  0  0  0
  159.1500  211.7600  155.6910 C   0  0  0  0  0  2  0  0  0  0  0  0
  159.0370  211.4560  152.8720 C   0  0  0  0  0  2  0  0  0  0  0  0
  1 11  2  0  0  0  0
  1  7  1  0  0  0  0
  2 12  1  0  0  0  0
  3  9  1  0  0  0  0
  3 26  1  0  0  0  0
  4 10  1  0  0  0  0
  5 13  1  0  0  0  0
  7  3  2  0  0  0  0
  8  5  2  0  0  0  0
  8  9  1  0  0  0  0
  9  4  2  0  0  0  0
 11  8  1  0  0  0  0
 12  5  1  0  0  0  0
 13  6  1  0  0  0  0
 13 10  2  0  0  0  0
 14  2  1  0  0  0  0
 14 11  1  0  0  0  0
 15 23  1  1  0  0  0
 15 14  1  0  0  0  0
 17 15  1  0  0  0  0
 17 16  1  1  0  0  0
 18 21  2  0  0  0  0
 19 20  1  0  0  0  0
 20 17  1  0  0  0  0
 21 20  2  0  0  0  0
 23 22  2  0  0  0  0
 24 25  1  0  0  0  0
 25 23  1  0  0  0  0
 26 27  1  0  0  0  0
 27 28  2  0  0  0  0
 28 31  1  0  0  0  0
 29 33  1  0  0  0  0
 30 32  1  0  0  0  0
 31 29  1  0  0  0  0
 32 33  1  0  0  0  0
 34 31  1  0  0  0  0
 34 30  1  0  0  0  0
M  END
>  <MODEL>
8

>  <REMARK>
 VINA RESULT:      -6.6      1.962      9.751
  Name = 
  8 active torsions:
  status: ('A' for Active; 'I' for Inactive)
    1  A    between atoms: C_7  and  N_28
    2  A    between atoms: C_11  and  C_25
    3  A    between atoms: C_11  and  CA_29
    4  A    between atoms: N_13  and  C_32
    5  A    between atoms: C_20  and  O_21
    6  A    between atoms: C_20  and  C_25
    7  A    between atoms: C_24  and  N_28
    8  A    between atoms: C_25  and  N_33
                            x       y       z     vdW  Elec       q    Type
                         _______ _______ _______ _____ _____    ______ ____

>  <TORSDO>
F 8

$$$$
=
 OpenBabel11072414183D

 34 37  0  0  1  0  0  0  0  0999 V2000
  161.0190  204.4970  149.9490 C   0  0  0  0  0  3  0  0  0  0  0  0
  162.2110  206.7500  147.1870 C   0  0  0  0  0  2  0  0  0  0  0  0
  161.1930  205.6670  152.0740 C   0  0  0  0  0  0  0  0  0  0  0  0
  161.7320  208.0490  152.0830 C   0  0  0  0  0  3  0  0  0  0  0  0
  161.8310  208.0630  149.2760 C   0  0  0  0  0  0  0  0  0  0  0  0
  162.3380  210.4340  149.3430 O   0  0  0  0  0  1  0  0  0  0  0  0
  160.9550  204.4960  151.3420 C   0  0  0  0  0  3  0  0  0  0  0  0
  161.5400  206.8640  149.9650 C   0  0  0  0  0  0  0  0  0  0  0  0
  161.4870  206.8600  151.3830 C   0  0  0  0  0  0  0  0  0  0  0  0
  162.0190  209.2300  151.3970 C   0  0  0  0  0  3  0  0  0  0  0  0
  161.3110  205.6730  149.2470 C   0  0  0  0  0  0  0  0  0  0  0  0
  161.8010  208.1000  147.7690 C   0  0  0  0  0  2  0  0  0  0  0  0
  162.0640  209.2420  150.0020 C   0  0  0  0  0  0  0  0  0  0  0  0
  161.4310  205.6830  147.8060 N   0  0  0  0  0  0  0  0  0  0  0  0
  160.8560  204.6690  146.9140 C   0  0  2  0  0  3  0  0  0  0  0  0
  162.8340  203.4160  147.5840 O   0  0  0  0  0  1  0  0  0  0  0  0
  161.7210  203.4110  146.7420 C   0  0  1  0  0  3  0  0  0  0  0  0
  160.0090  200.9450  144.8860 O   0  0  0  0  0  0  0  0  0  0  0  0
  160.8100  201.5580  148.2130 N   0  0  0  0  0  1  0  0  0  0  0  0
  160.9320  202.1540  146.9240 C   0  0  0  0  0  0  0  0  0  0  0  0
  160.4590  201.5320  145.8800 C   0  0  0  0  0  0  0  0  0  0  0  0
  159.5070  206.1970  145.6810 O   0  0  0  0  0  0  0  0  0  0  0  0
  160.3390  205.2500  145.6330 C   0  0  0  0  0  0  0  0  0  0  0  0
  161.5800  205.5700  143.5290 C   0  0  0  0  0  1  0  0  0  0  0  0
  160.7970  204.7710  144.4030 O   0  0  0  0  0  0  0  0  0  0  0  0
  161.1250  205.6810  153.5120 N   0  0  0  0  0  2  0  0  0  0  0  0
  161.2830  206.7910  154.4090 C   0  0  0  0  0  3  0  0  0  0  0  0
  160.3680  207.7480  154.5600 C   0  0  0  0  0  3  0  0  0  0  0  0
  159.5190  209.8570  155.6670 C   0  0  0  0  0  2  0  0  0  0  0  0
  162.1010  210.2060  156.7830 C   0  0  0  0  0  2  0  0  0  0  0  0
  160.5560  208.8390  155.4690 N   0  0  0  0  0  0  0  0  0  0  0  0
  160.9790  210.9080  157.2600 O   0  0  0  0  0  0  0  0  0  0  0  0
  160.1640  211.1590  156.1400 C   0  0  0  0  0  2  0  0  0  0  0  0
  161.7000  208.7850  156.3830 C   0  0  0  0  0  2  0  0  0  0  0  0
  1  7  1  0  0  0  0
  2 12  1  0  0  0  0
  2 14  1  0  0  0  0
  3 26  1  0  0  0  0
  5  8  2  0  0  0  0
  5 13  1  0  0  0  0
  6 13  1  0  0  0  0
  7  3  2  0  0  0  0
  8  9  1  0  0  0  0
  9  3  1  0  0  0  0
  9  4  2  0  0  0  0
 10  4  1  0  0  0  0
 11  1  2  0  0  0  0
 11  8  1  0  0  0  0
 12  5  1  0  0  0  0
 13 10  2  0  0  0  0
 14 11  1  0  0  0  0
 15 23  1  6  0  0  0
 15 14  1  0  0  0  0
 17 15  1  0  0  0  0
 17 20  1  0  0  0  0
 17 16  1  1  0  0  0
 18 21  2  0  0  0  0
 20 19  1  0  0  0  0
 21 20  2  0  0  0  0
 23 22  2  0  0  0  0
 24 25  1  0  0  0  0
 25 23  1  0  0  0  0
 26 27  1  0  0  0  0
 27 28  2  0  0  0  0
 28 31  1  0  0  0  0
 29 33  1  0  0  0  0
 30 32  1  0  0  0  0
 31 29  1  0  0  0  0
 31 34  1  0  0  0  0
 33 32  1  0  0  0  0
 34 30  1  0  0  0  0
M  END
>  <MODEL>
9

>  <REMARK>
 VINA RESULT:      -6.5      2.429      9.844
  Name = 
  8 active torsions:
  status: ('A' for Active; 'I' for Inactive)
    1  A    between atoms: C_7  and  N_28
    2  A    between atoms: C_11  and  C_25
    3  A    between atoms: C_11  and  CA_29
    4  A    between atoms: N_13  and  C_32
    5  A    between atoms: C_20  and  O_21
    6  A    between atoms: C_20  and  C_25
    7  A    between atoms: C_24  and  N_28
    8  A    between atoms: C_25  and  N_33
                            x       y       z     vdW  Elec       q    Type
                         _______ _______ _______ _____ _____    ______ ____

>  <TORSDO>
F 8

$$$$
