=
 OpenBabel11072414243D

 26 28  0  0  1  0  0  0  0  0999 V2000
  161.4140  205.0290  150.3980 C   0  0  2  0  0  3  0  0  0  0  0  0
  161.1000  207.4820  153.3110 C   0  0  0  0  0  0  0  0  0  0  0  0
  161.5730  208.7080  151.2640 C   0  0  0  0  0  3  0  0  0  0  0  0
  161.1200  206.2890  152.5720 C   0  0  0  0  0  3  0  0  0  0  0  0
  161.3300  208.7020  152.6400 C   0  0  0  0  0  0  0  0  0  0  0  0
  161.5910  207.5130  150.5420 C   0  0  0  0  0  3  0  0  0  0  0  0
  161.3130  209.9140  153.3190 O   0  0  0  0  0  1  0  0  0  0  0  0
  161.3560  206.2990  151.1910 C   0  0  0  0  0  0  0  0  0  0  0  0
  159.7970  206.8560  155.1980 O   0  0  0  0  0  0  0  0  0  0  0  0
  160.8420  207.4150  154.7660 C   0  0  0  0  0  0  0  0  0  0  0  0
  161.7390  207.9560  155.6790 O   0  0  0  0  0  1  0  0  0  0  0  0
  160.3140  206.0700  148.3660 C   0  0  0  0  0  3  0  0  0  0  0  0
  160.2620  206.2900  146.9860 C   0  0  0  0  0  3  0  0  0  0  0  0
  162.2580  204.9410  146.7000 C   0  0  0  0  0  0  0  0  0  0  0  0
  161.3270  205.2730  148.9170 C   0  0  0  0  0  0  0  0  0  0  0  0
  162.3000  204.7190  148.0790 C   0  0  0  0  0  3  0  0  0  0  0  0
  161.2320  205.7310  146.1480 C   0  0  0  0  0  0  0  0  0  0  0  0
  163.5080  204.2230  145.6950 Cl  0  0  0  0  0  0  0  0  0  0  0  0
  160.7250  204.8180  144.0300 O   0  0  0  0  0  1  0  0  0  0  0  0
  161.1460  205.9780  144.6800 C   0  0  0  0  0  2  0  0  0  0  0  0
  160.3940  204.0130  150.9150 C   0  0  0  0  0  2  0  0  0  0  0  0
  162.0010  202.5260  151.7820 O   0  0  0  0  0  0  0  0  0  0  0  0
  161.0080  202.6570  151.0840 C   0  0  0  0  0  0  0  0  0  0  0  0
  160.4720  201.4840  150.3220 C   0  0  0  0  0  3  0  0  0  0  0  0
  160.0130  201.9290  148.9440 C   0  0  0  0  0  2  0  0  0  0  0  0
  161.3350  201.2120  149.1000 C   0  0  0  0  0  2  0  0  0  0  0  0
  1 21  1  1  0  0  0
  1  8  1  0  0  0  0
  2 10  1  0  0  0  0
  3  5  2  0  0  0  0
  4  2  2  0  0  0  0
  5  2  1  0  0  0  0
  5  7  1  0  0  0  0
  6  8  2  0  0  0  0
  6  3  1  0  0  0  0
  8  4  1  0  0  0  0
 10  9  2  0  0  0  0
 10 11  1  0  0  0  0
 12 15  1  0  0  0  0
 13 12  2  0  0  0  0
 14 16  1  0  0  0  0
 15  1  1  0  0  0  0
 16 15  2  0  0  0  0
 17 14  2  0  0  0  0
 17 13  1  0  0  0  0
 18 14  1  0  0  0  0
 19 20  1  0  0  0  0
 20 17  1  0  0  0  0
 21 23  1  0  0  0  0
 23 22  2  0  0  0  0
 24 23  1  0  0  0  0
 25 26  1  0  0  0  0
 25 24  1  0  0  0  0
 26 24  1  0  0  0  0
M  END
>  <MODEL>
1

>  <REMARK>
 VINA RESULT:      -8.2      0.000      0.000
  Name = 
  7 active torsions:
  status: ('A' for Active; 'I' for Inactive)
    1  A    between atoms: C_2  and  C_9
    2  A    between atoms: C_4  and  C_14
    3  A    between atoms: C_8  and  C_14
    4  A    between atoms: C_8  and  C_26
    5  A    between atoms: C_18  and  C_26
    6  A    between atoms: C_20  and  C_26
    7  A    between atoms: C_22  and  C_25
                            x       y       z     vdW  Elec       q    Type
                         _______ _______ _______ _____ _____    ______ ____

>  <TORSDO>
F 7

$$$$
=
 OpenBabel11072414243D

 26 28  0  0  1  0  0  0  0  0999 V2000
  161.4230  204.6650  150.7790 C   0  0  2  0  0  3  0  0  0  0  0  0
  161.3710  208.1940  152.2420 C   0  0  0  0  0  0  0  0  0  0  0  0
  160.9800  206.5740  154.0140 C   0  0  0  0  0  3  0  0  0  0  0  0
  161.4780  207.1340  151.3290 C   0  0  0  0  0  3  0  0  0  0  0  0
  161.1190  207.9020  153.5990 C   0  0  0  0  0  0  0  0  0  0  0  0
  161.0870  205.5290  153.0950 C   0  0  0  0  0  3  0  0  0  0  0  0
  161.0130  208.9110  154.5480 O   0  0  0  0  0  1  0  0  0  0  0  0
  161.3450  205.8030  151.7490 C   0  0  0  0  0  0  0  0  0  0  0  0
  162.5210  209.8930  151.0400 O   0  0  0  0  0  0  0  0  0  0  0  0
  161.5240  209.5790  151.7460 C   0  0  0  0  0  0  0  0  0  0  0  0
  160.5770  210.5540  152.0380 O   0  0  0  0  0  1  0  0  0  0  0  0
  160.2680  206.0620  149.0070 C   0  0  0  0  0  3  0  0  0  0  0  0
  160.1230  206.4690  147.6770 C   0  0  0  0  0  3  0  0  0  0  0  0
  161.9430  204.9990  147.0350 C   0  0  0  0  0  0  0  0  0  0  0  0
  161.2380  205.1120  149.3550 C   0  0  0  0  0  0  0  0  0  0  0  0
  162.0770  204.5910  148.3650 C   0  0  0  0  0  3  0  0  0  0  0  0
  160.9590  205.9430  146.6870 C   0  0  0  0  0  0  0  0  0  0  0  0
  163.0270  204.3140  145.8340 Cl  0  0  0  0  0  0  0  0  0  0  0  0
  160.2980  205.3330  144.5040 O   0  0  0  0  0  1  0  0  0  0  0  0
  160.7770  206.3910  145.2760 C   0  0  0  0  0  2  0  0  0  0  0  0
  160.4880  203.5270  151.1920 C   0  0  0  0  0  2  0  0  0  0  0  0
  162.2410  202.0290  151.6710 O   0  0  0  0  0  0  0  0  0  0  0  0
  161.1720  202.1970  151.1060 C   0  0  0  0  0  0  0  0  0  0  0  0
  160.6040  201.1090  150.2470 C   0  0  0  0  0  3  0  0  0  0  0  0
  159.9020  201.7140  149.0430 C   0  0  0  0  0  2  0  0  0  0  0  0
  161.2780  201.1080  148.8840 C   0  0  0  0  0  2  0  0  0  0  0  0
  1 21  1  1  0  0  0
  1  8  1  0  0  0  0
  2  5  1  0  0  0  0
  4  8  1  0  0  0  0
  4  2  2  0  0  0  0
  5  3  2  0  0  0  0
  5  7  1  0  0  0  0
  6  3  1  0  0  0  0
  8  6  2  0  0  0  0
  9 10  2  0  0  0  0
 10 11  1  0  0  0  0
 10  2  1  0  0  0  0
 12 15  1  0  0  0  0
 13 12  2  0  0  0  0
 14 16  1  0  0  0  0
 15  1  1  0  0  0  0
 16 15  2  0  0  0  0
 17 14  2  0  0  0  0
 17 13  1  0  0  0  0
 18 14  1  0  0  0  0
 19 20  1  0  0  0  0
 20 17  1  0  0  0  0
 23 21  1  0  0  0  0
 23 22  2  0  0  0  0
 24 23  1  0  0  0  0
 25 24  1  0  0  0  0
 26 25  1  0  0  0  0
 26 24  1  0  0  0  0
M  END
>  <MODEL>
2

>  <REMARK>
 VINA RESULT:      -8.2      0.919      2.025
  Name = 
  7 active torsions:
  status: ('A' for Active; 'I' for Inactive)
    1  A    between atoms: C_2  and  C_9
    2  A    between atoms: C_4  and  C_14
    3  A    between atoms: C_8  and  C_14
    4  A    between atoms: C_8  and  C_26
    5  A    between atoms: C_18  and  C_26
    6  A    between atoms: C_20  and  C_26
    7  A    between atoms: C_22  and  C_25
                            x       y       z     vdW  Elec       q    Type
                         _______ _______ _______ _____ _____    ______ ____

>  <TORSDO>
F 7

$$$$
=
 OpenBabel11072414243D

 26 28  0  0  1  0  0  0  0  0999 V2000
  161.5500  206.0640  148.7630 C   0  0  2  0  0  3  0  0  0  0  0  0
  160.9850  202.2880  148.6170 C   0  0  0  0  0  0  0  0  0  0  0  0
  160.5790  203.0830  150.8800 C   0  0  0  0  0  3  0  0  0  0  0  0
  161.2730  203.6060  148.2310 C   0  0  0  0  0  3  0  0  0  0  0  0
  160.6340  202.0330  149.9600 C   0  0  0  0  0  0  0  0  0  0  0  0
  160.8700  204.3890  150.4820 C   0  0  0  0  0  3  0  0  0  0  0  0
  160.3290  200.7490  150.3960 O   0  0  0  0  0  1  0  0  0  0  0  0
  161.2100  204.6590  149.1550 C   0  0  0  0  0  0  0  0  0  0  0  0
  161.6310  200.1230  147.8770 O   0  0  0  0  0  1  0  0  0  0  0  0
  161.0620  201.2150  147.6020 C   0  0  0  0  0  0  0  0  0  0  0  0
  160.5080  201.3820  146.3380 O   0  0  0  0  0  0  0  0  0  0  0  0
  161.8120  208.3700  149.7820 C   0  0  0  0  0  3  0  0  0  0  0  0
  161.7860  209.2250  150.8880 C   0  0  0  0  0  3  0  0  0  0  0  0
  161.1840  207.3560  152.3120 C   0  0  0  0  0  0  0  0  0  0  0  0
  161.5400  207.0040  149.9360 C   0  0  0  0  0  0  0  0  0  0  0  0
  161.2190  206.5060  151.2030 C   0  0  0  0  0  3  0  0  0  0  0  0
  161.4710  208.7240  152.1550 C   0  0  0  0  0  0  0  0  0  0  0  0
  160.7720  206.6750  153.8780 Cl  0  0  0  0  0  0  0  0  0  0  0  0
  160.1620  210.1270  153.5310 O   0  0  0  0  0  1  0  0  0  0  0  0
  161.4580  209.6590  153.3170 C   0  0  0  0  0  2  0  0  0  0  0  0
  160.6820  206.5320  147.5940 C   0  0  0  0  0  2  0  0  0  0  0  0
  162.5170  206.2100  146.1520 O   0  0  0  0  0  0  0  0  0  0  0  0
  161.3020  206.1810  146.2760 C   0  0  0  0  0  0  0  0  0  0  0  0
  160.4380  205.8960  145.0860 C   0  0  0  0  0  3  0  0  0  0  0  0
  161.3040  205.5090  143.8990 C   0  0  0  0  0  2  0  0  0  0  0  0
  160.5710  204.4380  144.6760 C   0  0  0  0  0  2  0  0  0  0  0  0
  1 21  1  6  0  0  0
  1  8  1  0  0  0  0
  1 15  1  0  0  0  0
  2  5  1  0  0  0  0
  4  2  2  0  0  0  0
  4  8  1  0  0  0  0
  5  7  1  0  0  0  0
  5  3  2  0  0  0  0
  6  3  1  0  0  0  0
  8  6  2  0  0  0  0
 10  9  1  0  0  0  0
 10  2  1  0  0  0  0
 11 10  2  0  0  0  0
 12 15  2  0  0  0  0
 12 13  1  0  0  0  0
 13 17  2  0  0  0  0
 14 18  1  0  0  0  0
 15 16  1  0  0  0  0
 16 14  2  0  0  0  0
 17 14  1  0  0  0  0
 17 20  1  0  0  0  0
 20 19  1  0  0  0  0
 22 23  2  0  0  0  0
 23 21  1  0  0  0  0
 24 23  1  0  0  0  0
 25 26  1  0  0  0  0
 25 24  1  0  0  0  0
 26 24  1  0  0  0  0
M  END
>  <MODEL>
3

>  <REMARK>
 VINA RESULT:      -7.9      2.452      6.905
  Name = 
  7 active torsions:
  status: ('A' for Active; 'I' for Inactive)
    1  A    between atoms: C_2  and  C_9
    2  A    between atoms: C_4  and  C_14
    3  A    between atoms: C_8  and  C_14
    4  A    between atoms: C_8  and  C_26
    5  A    between atoms: C_18  and  C_26
    6  A    between atoms: C_20  and  C_26
    7  A    between atoms: C_22  and  C_25
                            x       y       z     vdW  Elec       q    Type
                         _______ _______ _______ _____ _____    ______ ____

>  <TORSDO>
F 7

$$$$
=
 OpenBabel11072414243D

 26 28  0  0  1  0  0  0  0  0999 V2000
  161.4530  205.9060  150.0100 C   0  0  2  0  0  3  0  0  0  0  0  0
  160.9670  202.2260  149.1030 C   0  0  0  0  0  0  0  0  0  0  0  0
  160.8270  202.4920  151.5170 C   0  0  0  0  0  3  0  0  0  0  0  0
  161.1730  203.6090  148.9860 C   0  0  0  0  0  3  0  0  0  0  0  0
  160.7930  201.6690  150.3880 C   0  0  0  0  0  0  0  0  0  0  0  0
  161.0340  203.8670  151.3850 C   0  0  0  0  0  3  0  0  0  0  0  0
  160.5760  200.3080  150.5630 O   0  0  0  0  0  1  0  0  0  0  0  0
  161.1990  204.4330  150.1200 C   0  0  0  0  0  0  0  0  0  0  0  0
  160.3070  201.7960  146.8600 O   0  0  0  0  0  0  0  0  0  0  0  0
  160.9450  201.4020  147.8740 C   0  0  0  0  0  0  0  0  0  0  0  0
  161.6250  200.1920  147.8090 O   0  0  0  0  0  1  0  0  0  0  0  0
  161.5010  205.9670  152.5430 C   0  0  0  0  0  3  0  0  0  0  0  0
  161.3390  206.6540  153.7500 C   0  0  0  0  0  3  0  0  0  0  0  0
  160.7510  208.6620  152.5220 C   0  0  0  0  0  0  0  0  0  0  0  0
  161.2750  206.6170  151.3230 C   0  0  0  0  0  0  0  0  0  0  0  0
  160.9080  207.9660  151.3190 C   0  0  0  0  0  3  0  0  0  0  0  0
  160.9660  208.0030  153.7460 C   0  0  0  0  0  0  0  0  0  0  0  0
  160.2910  210.3560  152.4570 Cl  0  0  0  0  0  0  0  0  0  0  0  0
  161.7200  208.2240  155.9720 O   0  0  0  0  0  1  0  0  0  0  0  0
  160.7940  208.7070  155.0480 C   0  0  0  0  0  2  0  0  0  0  0  0
  160.6440  206.5170  148.8650 C   0  0  0  0  0  2  0  0  0  0  0  0
  162.5350  207.3870  147.7630 O   0  0  0  0  0  0  0  0  0  0  0  0
  161.4970  206.7540  147.6560 C   0  0  0  0  0  0  0  0  0  0  0  0
  161.0330  206.3060  146.3040 C   0  0  0  0  0  3  0  0  0  0  0  0
  162.2280  205.9240  145.4470 C   0  0  0  0  0  2  0  0  0  0  0  0
  161.3840  204.8430  146.0850 C   0  0  0  0  0  2  0  0  0  0  0  0
  1 21  1  6  0  0  0
  1  8  1  0  0  0  0
  1 15  1  0  0  0  0
  2  5  1  0  0  0  0
  4  2  2  0  0  0  0
  4  8  1  0  0  0  0
  5  7  1  0  0  0  0
  5  3  2  0  0  0  0
  6  3  1  0  0  0  0
  8  6  2  0  0  0  0
  9 10  2  0  0  0  0
 10  2  1  0  0  0  0
 11 10  1  0  0  0  0
 12 13  1  0  0  0  0
 14 17  1  0  0  0  0
 15 12  2  0  0  0  0
 16 15  1  0  0  0  0
 16 14  2  0  0  0  0
 17 13  2  0  0  0  0
 17 20  1  0  0  0  0
 18 14  1  0  0  0  0
 20 19  1  0  0  0  0
 23 22  2  0  0  0  0
 23 21  1  0  0  0  0
 24 23  1  0  0  0  0
 25 26  1  0  0  0  0
 25 24  1  0  0  0  0
 26 24  1  0  0  0  0
M  END
>  <MODEL>
4

>  <REMARK>
 VINA RESULT:      -7.8      2.654      7.149
  Name = 
  7 active torsions:
  status: ('A' for Active; 'I' for Inactive)
    1  A    between atoms: C_2  and  C_9
    2  A    between atoms: C_4  and  C_14
    3  A    between atoms: C_8  and  C_14
    4  A    between atoms: C_8  and  C_26
    5  A    between atoms: C_18  and  C_26
    6  A    between atoms: C_20  and  C_26
    7  A    between atoms: C_22  and  C_25
                            x       y       z     vdW  Elec       q    Type
                         _______ _______ _______ _____ _____    ______ ____

>  <TORSDO>
F 7

$$$$
=
 OpenBabel11072414243D

 26 28  0  0  1  0  0  0  0  0999 V2000
  161.0330  206.5710  148.8680 C   0  0  2  0  0  3  0  0  0  0  0  0
  161.2290  208.1460  152.3430 C   0  0  0  0  0  0  0  0  0  0  0  0
  162.2430  209.6430  150.7150 C   0  0  0  0  0  3  0  0  0  0  0  0
  160.9460  207.2460  151.3040 C   0  0  0  0  0  3  0  0  0  0  0  0
  161.8860  209.3570  152.0360 C   0  0  0  0  0  0  0  0  0  0  0  0
  161.9560  208.7370  149.6920 C   0  0  0  0  0  3  0  0  0  0  0  0
  162.1820  210.2890  153.0230 O   0  0  0  0  0  1  0  0  0  0  0  0
  161.2990  207.5390  149.9800 C   0  0  0  0  0  0  0  0  0  0  0  0
  160.9780  206.6080  154.1390 O   0  0  0  0  0  0  0  0  0  0  0  0
  160.8310  207.7900  153.7230 C   0  0  0  0  0  0  0  0  0  0  0  0
  160.3000  208.7430  154.5840 O   0  0  0  0  0  1  0  0  0  0  0  0
  160.9210  204.8380  150.7140 C   0  0  0  0  0  3  0  0  0  0  0  0
  160.8580  203.5060  151.1350 C   0  0  0  0  0  3  0  0  0  0  0  0
  160.8730  202.7800  148.8200 C   0  0  0  0  0  0  0  0  0  0  0  0
  160.9760  205.1480  149.3480 C   0  0  0  0  0  0  0  0  0  0  0  0
  160.9440  204.1140  148.4070 C   0  0  0  0  0  3  0  0  0  0  0  0
  160.8310  202.4730  150.1920 C   0  0  0  0  0  0  0  0  0  0  0  0
  160.8320  201.5230  147.5930 Cl  0  0  0  0  0  0  0  0  0  0  0  0
  159.4780  200.5640  150.5100 O   0  0  0  0  0  1  0  0  0  0  0  0
  160.7710  201.0620  150.6710 C   0  0  0  0  0  2  0  0  0  0  0  0
  162.0060  206.7890  147.7070 C   0  0  0  0  0  2  0  0  0  0  0  0
  160.1860  206.5780  146.2260 O   0  0  0  0  0  0  0  0  0  0  0  0
  161.3840  206.4180  146.3950 C   0  0  0  0  0  0  0  0  0  0  0  0
  162.2050  205.7570  145.3300 C   0  0  0  0  0  3  0  0  0  0  0  0
  163.1070  204.7040  145.9510 C   0  0  0  0  0  2  0  0  0  0  0  0
  161.8470  204.2840  145.2270 C   0  0  0  0  0  2  0  0  0  0  0  0
  1 21  1  6  0  0  0
  1 15  1  0  0  0  0
  1  8  1  0  0  0  0
  2 10  1  0  0  0  0
  3  5  2  0  0  0  0
  4  2  2  0  0  0  0
  5  2  1  0  0  0  0
  5  7  1  0  0  0  0
  6  8  2  0  0  0  0
  6  3  1  0  0  0  0
  8  4  1  0  0  0  0
 10  9  2  0  0  0  0
 10 11  1  0  0  0  0
 12 13  1  0  0  0  0
 14 17  1  0  0  0  0
 15 12  2  0  0  0  0
 16 14  2  0  0  0  0
 16 15  1  0  0  0  0
 17 20  1  0  0  0  0
 17 13  2  0  0  0  0
 18 14  1  0  0  0  0
 19 20  1  0  0  0  0
 22 23  2  0  0  0  0
 23 21  1  0  0  0  0
 24 25  1  0  0  0  0
 24 23  1  0  0  0  0
 26 24  1  0  0  0  0
 26 25  1  0  0  0  0
M  END
>  <MODEL>
5

>  <REMARK>
 VINA RESULT:      -7.2      1.636      4.130
  Name = 
  7 active torsions:
  status: ('A' for Active; 'I' for Inactive)
    1  A    between atoms: C_2  and  C_9
    2  A    between atoms: C_4  and  C_14
    3  A    between atoms: C_8  and  C_14
    4  A    between atoms: C_8  and  C_26
    5  A    between atoms: C_18  and  C_26
    6  A    between atoms: C_20  and  C_26
    7  A    between atoms: C_22  and  C_25
                            x       y       z     vdW  Elec       q    Type
                         _______ _______ _______ _____ _____    ______ ____

>  <TORSDO>
F 7

$$$$
=
 OpenBabel11072414243D

 26 28  0  0  1  0  0  0  0  0999 V2000
  160.9630  205.2090  150.5090 C   0  0  2  0  0  3  0  0  0  0  0  0
  161.4130  204.7030  146.7490 C   0  0  0  0  0  0  0  0  0  0  0  0
  160.4250  206.8870  147.1620 C   0  0  0  0  0  3  0  0  0  0  0  0
  161.4400  204.4800  148.1340 C   0  0  0  0  0  3  0  0  0  0  0  0
  160.8980  205.9240  146.2660 C   0  0  0  0  0  0  0  0  0  0  0  0
  160.4560  206.6510  148.5370 C   0  0  0  0  0  3  0  0  0  0  0  0
  160.8560  206.2040  144.9050 O   0  0  0  0  0  1  0  0  0  0  0  0
  160.9710  205.4500  149.0310 C   0  0  0  0  0  0  0  0  0  0  0  0
  163.0300  203.7970  145.2600 O   0  0  0  0  0  0  0  0  0  0  0  0
  161.9240  203.6480  145.8470 C   0  0  0  0  0  0  0  0  0  0  0  0
  161.2060  202.4770  145.6350 O   0  0  0  0  0  1  0  0  0  0  0  0
  161.7540  207.6100  150.7010 C   0  0  0  0  0  3  0  0  0  0  0  0
  161.9550  208.7710  151.4530 C   0  0  0  0  0  3  0  0  0  0  0  0
  161.0230  207.6660  153.4000 C   0  0  0  0  0  0  0  0  0  0  0  0
  161.2010  206.4680  151.2960 C   0  0  0  0  0  0  0  0  0  0  0  0
  160.8310  206.5060  152.6440 C   0  0  0  0  0  3  0  0  0  0  0  0
  161.5900  208.8060  152.8020 C   0  0  0  0  0  0  0  0  0  0  0  0
  160.5360  207.6580  155.0890 Cl  0  0  0  0  0  0  0  0  0  0  0  0
  160.6530  210.8150  153.6180 O   0  0  0  0  0  1  0  0  0  0  0  0
  161.8230  210.0570  153.5800 C   0  0  0  0  0  2  0  0  0  0  0  0
  161.9040  204.0630  150.8840 C   0  0  0  0  0  2  0  0  0  0  0  0
  160.4560  202.8470  152.2880 O   0  0  0  0  0  0  0  0  0  0  0  0
  161.1410  202.8340  151.2780 C   0  0  0  0  0  0  0  0  0  0  0  0
  161.2970  201.5650  150.4980 C   0  0  0  0  0  3  0  0  0  0  0  0
  159.9300  200.9950  150.1600 C   0  0  0  0  0  2  0  0  0  0  0  0
  160.7210  201.7320  149.1010 C   0  0  0  0  0  2  0  0  0  0  0  0
  1 21  1  6  0  0  0
  1 15  1  0  0  0  0
  2  4  1  0  0  0  0
  3  6  2  0  0  0  0
  4  8  2  0  0  0  0
  5  2  2  0  0  0  0
  5  3  1  0  0  0  0
  6  8  1  0  0  0  0
  7  5  1  0  0  0  0
  8  1  1  0  0  0  0
  9 10  2  0  0  0  0
 10  2  1  0  0  0  0
 11 10  1  0  0  0  0
 12 15  2  0  0  0  0
 12 13  1  0  0  0  0
 13 17  2  0  0  0  0
 14 18  1  0  0  0  0
 15 16  1  0  0  0  0
 16 14  2  0  0  0  0
 17 14  1  0  0  0  0
 17 20  1  0  0  0  0
 20 19  1  0  0  0  0
 21 23  1  0  0  0  0
 23 22  2  0  0  0  0
 24 23  1  0  0  0  0
 25 24  1  0  0  0  0
 26 25  1  0  0  0  0
 26 24  1  0  0  0  0
M  END
>  <MODEL>
6

>  <REMARK>
 VINA RESULT:      -7.2      2.481      6.525
  Name = 
  7 active torsions:
  status: ('A' for Active; 'I' for Inactive)
    1  A    between atoms: C_2  and  C_9
    2  A    between atoms: C_4  and  C_14
    3  A    between atoms: C_8  and  C_14
    4  A    between atoms: C_8  and  C_26
    5  A    between atoms: C_18  and  C_26
    6  A    between atoms: C_20  and  C_26
    7  A    between atoms: C_22  and  C_25
                            x       y       z     vdW  Elec       q    Type
                         _______ _______ _______ _____ _____    ______ ____

>  <TORSDO>
F 7

$$$$
=
 OpenBabel11072414243D

 26 28  0  0  1  0  0  0  0  0999 V2000
  161.1670  207.3110  150.3080 C   0  0  2  0  0  3  0  0  0  0  0  0
  160.7610  208.9100  153.7550 C   0  0  0  0  0  0  0  0  0  0  0  0
  161.2650  206.5440  154.0120 C   0  0  0  0  0  3  0  0  0  0  0  0
  160.8320  208.7500  152.3620 C   0  0  0  0  0  3  0  0  0  0  0  0
  160.9820  207.7880  154.5820 C   0  0  0  0  0  0  0  0  0  0  0  0
  161.3310  206.3990  152.6250 C   0  0  0  0  0  3  0  0  0  0  0  0
  160.9340  207.8900  155.9670 O   0  0  0  0  0  1  0  0  0  0  0  0
  161.1230  207.5020  151.7930 C   0  0  0  0  0  0  0  0  0  0  0  0
  159.2620  210.6550  154.3540 O   0  0  0  0  0  0  0  0  0  0  0  0
  160.4550  210.2490  154.3030 C   0  0  0  0  0  0  0  0  0  0  0  0
  161.4650  211.0780  154.7770 O   0  0  0  0  0  1  0  0  0  0  0  0
  160.5960  204.8940  150.8130 C   0  0  0  0  0  3  0  0  0  0  0  0
  160.4910  203.5570  150.4170 C   0  0  0  0  0  3  0  0  0  0  0  0
  161.2760  204.1570  148.2010 C   0  0  0  0  0  0  0  0  0  0  0  0
  161.0550  205.8650  149.9130 C   0  0  0  0  0  0  0  0  0  0  0  0
  161.3860  205.4900  148.6070 C   0  0  0  0  0  3  0  0  0  0  0  0
  160.8280  203.1830  149.1120 C   0  0  0  0  0  0  0  0  0  0  0  0
  161.7030  203.7450  146.5480 Cl  0  0  0  0  0  0  0  0  0  0  0  0
  161.1990  200.9390  149.7460 O   0  0  0  0  0  1  0  0  0  0  0  0
  160.7120  201.7480  148.7200 C   0  0  0  0  0  2  0  0  0  0  0  0
  162.3770  208.0220  149.7000 C   0  0  0  0  0  2  0  0  0  0  0  0
  161.2030  209.0130  147.9130 O   0  0  0  0  0  0  0  0  0  0  0  0
  161.9590  209.1880  148.8560 C   0  0  0  0  0  0  0  0  0  0  0  0
  162.5450  210.5450  149.1000 C   0  0  0  0  0  3  0  0  0  0  0  0
  161.8200  211.5800  148.2560 C   0  0  0  0  0  2  0  0  0  0  0  0
  161.5070  211.4600  149.7310 C   0  0  0  0  0  2  0  0  0  0  0  0
  1 21  1  1  0  0  0
  1  8  1  0  0  0  0
  2 10  1  0  0  0  0
  2  5  1  0  0  0  0
  3  5  2  0  0  0  0
  4  2  2  0  0  0  0
  5  7  1  0  0  0  0
  6  3  1  0  0  0  0
  8  4  1  0  0  0  0
  8  6  2  0  0  0  0
 10  9  2  0  0  0  0
 10 11  1  0  0  0  0
 13 12  1  0  0  0  0
 14 16  2  0  0  0  0
 14 17  1  0  0  0  0
 15  1  1  0  0  0  0
 15 12  2  0  0  0  0
 16 15  1  0  0  0  0
 17 13  2  0  0  0  0
 18 14  1  0  0  0  0
 20 17  1  0  0  0  0
 20 19  1  0  0  0  0
 22 23  2  0  0  0  0
 23 24  1  0  0  0  0
 23 21  1  0  0  0  0
 24 26  1  0  0  0  0
 25 24  1  0  0  0  0
 25 26  1  0  0  0  0
M  END
>  <MODEL>
7

>  <REMARK>
 VINA RESULT:      -7.1      2.090      4.953
  Name = 
  7 active torsions:
  status: ('A' for Active; 'I' for Inactive)
    1  A    between atoms: C_2  and  C_9
    2  A    between atoms: C_4  and  C_14
    3  A    between atoms: C_8  and  C_14
    4  A    between atoms: C_8  and  C_26
    5  A    between atoms: C_18  and  C_26
    6  A    between atoms: C_20  and  C_26
    7  A    between atoms: C_22  and  C_25
                            x       y       z     vdW  Elec       q    Type
                         _______ _______ _______ _____ _____    ______ ____

>  <TORSDO>
F 7

$$$$
=
 OpenBabel11072414243D

 26 28  0  0  1  0  0  0  0  0999 V2000
  161.1470  206.5840  151.1190 C   0  0  2  0  0  3  0  0  0  0  0  0
  161.4600  204.6950  147.8130 C   0  0  0  0  0  0  0  0  0  0  0  0
  160.8570  203.1390  149.5830 C   0  0  0  0  0  3  0  0  0  0  0  0
  161.4450  205.7350  148.7550 C   0  0  0  0  0  3  0  0  0  0  0  0
  161.1610  203.3840  148.2410 C   0  0  0  0  0  0  0  0  0  0  0  0
  160.8470  204.1830  150.5090 C   0  0  0  0  0  3  0  0  0  0  0  0
  161.1520  202.3170  147.3510 O   0  0  0  0  0  1  0  0  0  0  0  0
  161.1320  205.4870  150.0980 C   0  0  0  0  0  0  0  0  0  0  0  0
  160.8990  205.4400  145.6260 O   0  0  0  0  0  0  0  0  0  0  0  0
  161.7930  205.0110  146.4070 C   0  0  0  0  0  0  0  0  0  0  0  0
  163.0850  204.8510  145.9220 O   0  0  0  0  0  1  0  0  0  0  0  0
  161.9560  208.0500  149.2170 C   0  0  0  0  0  3  0  0  0  0  0  0
  162.2040  209.3140  148.6710 C   0  0  0  0  0  3  0  0  0  0  0  0
  161.3780  210.3480  150.7040 C   0  0  0  0  0  0  0  0  0  0  0  0
  161.4340  207.9280  150.5120 C   0  0  0  0  0  0  0  0  0  0  0  0
  161.1400  209.0820  151.2460 C   0  0  0  0  0  3  0  0  0  0  0  0
  161.9150  210.4660  149.4090 C   0  0  0  0  0  0  0  0  0  0  0  0
  160.9860  211.7620  151.6700 Cl  0  0  0  0  0  0  0  0  0  0  0  0
  161.5160  211.9190  147.5910 O   0  0  0  0  0  1  0  0  0  0  0  0
  162.1960  211.7990  148.8030 C   0  0  0  0  0  2  0  0  0  0  0  0
  162.0650  206.2300  152.2910 C   0  0  0  0  0  2  0  0  0  0  0  0
  161.0980  205.0900  154.1110 O   0  0  0  0  0  0  0  0  0  0  0  0
  161.3070  206.1700  153.5820 C   0  0  0  0  0  0  0  0  0  0  0  0
  160.7190  207.4150  154.1710 C   0  0  0  0  0  3  0  0  0  0  0  0
  160.1300  207.1120  155.5390 C   0  0  0  0  0  2  0  0  0  0  0  0
  161.4700  207.8060  155.4340 C   0  0  0  0  0  2  0  0  0  0  0  0
  1 21  1  1  0  0  0
  2  5  2  0  0  0  0
  2  4  1  0  0  0  0
  3  6  2  0  0  0  0
  4  8  2  0  0  0  0
  5  3  1  0  0  0  0
  7  5  1  0  0  0  0
  8  6  1  0  0  0  0
  8  1  1  0  0  0  0
  9 10  2  0  0  0  0
 10  2  1  0  0  0  0
 11 10  1  0  0  0  0
 12 15  1  0  0  0  0
 13 12  2  0  0  0  0
 13 17  1  0  0  0  0
 14 16  1  0  0  0  0
 14 18  1  0  0  0  0
 15  1  1  0  0  0  0
 15 16  2  0  0  0  0
 17 14  2  0  0  0  0
 19 20  1  0  0  0  0
 20 17  1  0  0  0  0
 21 23  1  0  0  0  0
 23 22  2  0  0  0  0
 23 24  1  0  0  0  0
 24 26  1  0  0  0  0
 24 25  1  0  0  0  0
 26 25  1  0  0  0  0
M  END
>  <MODEL>
8

>  <REMARK>
 VINA RESULT:      -6.8      2.904      6.579
  Name = 
  7 active torsions:
  status: ('A' for Active; 'I' for Inactive)
    1  A    between atoms: C_2  and  C_9
    2  A    between atoms: C_4  and  C_14
    3  A    between atoms: C_8  and  C_14
    4  A    between atoms: C_8  and  C_26
    5  A    between atoms: C_18  and  C_26
    6  A    between atoms: C_20  and  C_26
    7  A    between atoms: C_22  and  C_25
                            x       y       z     vdW  Elec       q    Type
                         _______ _______ _______ _____ _____    ______ ____

>  <TORSDO>
F 7

$$$$
=
 OpenBabel11072414243D

 26 28  0  0  1  0  0  0  0  0999 V2000
  161.6100  206.4110  150.0830 C   0  0  2  0  0  3  0  0  0  0  0  0
  161.1490  203.2520  147.9840 C   0  0  0  0  0  0  0  0  0  0  0  0
  160.7100  202.7450  150.3230 C   0  0  0  0  0  3  0  0  0  0  0  0
  161.4040  204.5840  148.3460 C   0  0  0  0  0  3  0  0  0  0  0  0
  160.7980  202.3280  148.9910 C   0  0  0  0  0  0  0  0  0  0  0  0
  160.9670  204.0730  150.6680 C   0  0  0  0  0  3  0  0  0  0  0  0
  160.5260  200.9990  148.6900 O   0  0  0  0  0  1  0  0  0  0  0  0
  161.3070  205.0010  149.6810 C   0  0  0  0  0  0  0  0  0  0  0  0
  161.8870  203.6050  145.7520 O   0  0  0  0  0  0  0  0  0  0  0  0
  161.2610  202.8660  146.5610 C   0  0  0  0  0  0  0  0  0  0  0  0
  160.6920  201.6890  146.0900 O   0  0  0  0  0  1  0  0  0  0  0  0
  161.5410  205.6450  152.4990 C   0  0  0  0  0  3  0  0  0  0  0  0
  161.3110  205.9020  153.8540 C   0  0  0  0  0  3  0  0  0  0  0  0
  160.7440  208.1990  153.3160 C   0  0  0  0  0  0  0  0  0  0  0  0
  161.3590  206.6560  151.5450 C   0  0  0  0  0  0  0  0  0  0  0  0
  160.9690  207.9330  151.9630 C   0  0  0  0  0  3  0  0  0  0  0  0
  160.9140  207.1780  154.2690 C   0  0  0  0  0  0  0  0  0  0  0  0
  160.2570  209.8210  153.7830 Cl  0  0  0  0  0  0  0  0  0  0  0  0
  161.7930  208.0150  156.2940 O   0  0  0  0  0  1  0  0  0  0  0  0
  160.6700  207.4200  155.7200 C   0  0  0  0  0  2  0  0  0  0  0  0
  160.9040  207.4080  149.1630 C   0  0  0  0  0  2  0  0  0  0  0  0
  162.9640  208.0930  148.2490 O   0  0  0  0  0  0  0  0  0  0  0  0
  161.8570  208.4360  148.6340 C   0  0  0  0  0  0  0  0  0  0  0  0
  161.4980  209.8900  148.6720 C   0  0  0  0  0  3  0  0  0  0  0  0
  162.0570  210.5280  149.9330 C   0  0  0  0  0  2  0  0  0  0  0  0
  162.7540  210.7440  148.6080 C   0  0  0  0  0  2  0  0  0  0  0  0
  1 21  1  6  0  0  0
  1 15  1  0  0  0  0
  2  4  2  0  0  0  0
  2  5  1  0  0  0  0
  3  6  1  0  0  0  0
  4  8  1  0  0  0  0
  5  3  2  0  0  0  0
  7  5  1  0  0  0  0
  8  1  1  0  0  0  0
  8  6  2  0  0  0  0
  9 10  2  0  0  0  0
 10  2  1  0  0  0  0
 11 10  1  0  0  0  0
 12 13  1  0  0  0  0
 13 17  2  0  0  0  0
 14 18  1  0  0  0  0
 14 17  1  0  0  0  0
 15 16  1  0  0  0  0
 15 12  2  0  0  0  0
 16 14  2  0  0  0  0
 17 20  1  0  0  0  0
 20 19  1  0  0  0  0
 22 23  2  0  0  0  0
 23 24  1  0  0  0  0
 23 21  1  0  0  0  0
 24 25  1  0  0  0  0
 26 24  1  0  0  0  0
 26 25  1  0  0  0  0
M  END
>  <MODEL>
9

>  <REMARK>
 VINA RESULT:      -6.7      2.944      7.772
  Name = 
  7 active torsions:
  status: ('A' for Active; 'I' for Inactive)
    1  A    between atoms: C_2  and  C_9
    2  A    between atoms: C_4  and  C_14
    3  A    between atoms: C_8  and  C_14
    4  A    between atoms: C_8  and  C_26
    5  A    between atoms: C_18  and  C_26
    6  A    between atoms: C_20  and  C_26
    7  A    between atoms: C_22  and  C_25
                            x       y       z     vdW  Elec       q    Type
                         _______ _______ _______ _____ _____    ______ ____

>  <TORSDO>
F 7

$$$$
