=
 OpenBabel11072413063D

 35 41  0  0  1  0  0  0  0  0999 V2000
  159.9500  211.4140  154.7520 N   0  0  0  0  0  2  0  0  0  0  0  0
  161.0240  208.0000  155.1590 C   0  0  2  0  0  3  0  0  0  0  0  0
  161.0640  210.7800  151.7400 C   0  0  0  0  0  2  0  0  0  0  0  0
  161.2810  207.4780  151.5170 O   0  0  0  0  0  0  0  0  0  0  0  0
  160.9070  210.3190  154.8820 C   0  0  1  0  0  3  0  0  0  0  0  0
  160.3030  209.1750  155.6570 C   0  0  2  0  0  3  0  0  0  0  0  0
  162.1240  210.1470  152.6300 C   0  0  0  0  0  2  0  0  0  0  0  0
  160.9440  208.1750  153.7240 N   0  0  0  0  0  0  0  0  0  0  0  0
  160.2350  206.9560  155.8780 C   0  0  0  0  0  2  0  0  0  0  0  0
  159.2200  211.2090  153.4980 C   0  0  2  0  0  3  0  0  0  0  0  0
  159.9520  210.1930  152.6160 C   0  0  2  0  0  3  0  0  0  0  0  0
  160.1000  207.6410  157.2610 C   0  0  0  0  0  2  0  0  0  0  0  0
  161.2100  207.1660  152.7360 C   0  0  0  0  0  0  0  0  0  0  0  0
  161.0120  209.6320  153.5170 C   0  0  1  0  0  0  0  0  0  0  0  0
  160.3760  209.0800  157.0900 N   0  0  0  0  0  2  0  0  0  0  0  0
  159.6920  213.1800  151.9190 C   0  0  0  0  0  3  0  0  0  0  0  0
  157.8030  213.3270  153.0000 C   0  0  0  0  0  0  0  0  0  0  0  0
  157.9320  214.4240  152.2410 N   0  0  0  0  0  0  0  0  0  0  0  0
  158.8930  212.5060  152.8200 C   0  0  0  0  0  0  0  0  0  0  0  0
  159.0660  214.3000  151.6120 O   0  0  0  0  0  0  0  0  0  0  0  0
  156.7040  213.0880  153.8710 N   0  0  0  0  0  1  0  0  0  0  0  0
  161.3810  205.7340  153.1300 C   0  0  0  0  0  2  0  0  0  0  0  0
  161.1750  204.8370  151.9520 C   0  0  0  0  0  0  0  0  0  0  0  0
  161.6930  205.2780  150.6030 C   0  0  0  0  0  2  0  0  0  0  0  0
  160.6570  203.6130  152.1480 C   0  0  0  0  0  3  0  0  0  0  0  0
  160.4040  202.6520  151.0170 C   0  0  0  0  0  2  0  0  0  0  0  0
  161.3170  202.9320  149.8300 C   0  0  0  0  0  2  0  0  0  0  0  0
  161.1910  204.4020  149.4520 C   0  0  2  0  0  3  0  0  0  0  0  0
  161.9980  204.6760  148.1940 C   0  0  0  0  0  2  0  0  0  0  0  0
  160.7840  205.1140  144.1850 C   0  0  0  0  0  2  0  0  0  0  0  0
  161.6010  203.7250  146.0860 C   0  0  0  0  0  2  0  0  0  0  0  0
  161.1230  204.7310  147.0340 N   0  0  0  0  0  0  0  0  0  0  0  0
  161.3030  206.0530  146.4360 C   0  0  0  0  0  2  0  0  0  0  0  0
  160.4140  206.1910  145.2020 C   0  0  0  0  0  2  0  0  0  0  0  0
  160.7290  203.7350  144.8330 C   0  0  0  0  0  2  0  0  0  0  0  0
  2  6  1  0  0  0  0
  2  9  1  6  0  0  0
  3  7  1  0  0  0  0
  4 13  2  0  0  0  0
  5  1  1  6  0  0  0
  5  6  1  0  0  0  0
  6 15  1  1  0  0  0
  8  2  1  0  0  0  0
  9 12  1  0  0  0  0
 10 19  1  6  0  0  0
 10  1  1  0  0  0  0
 11  3  1  6  0  0  0
 11 10  1  0  0  0  0
 11 14  1  0  0  0  0
 13 22  1  0  0  0  0
 13  8  1  0  0  0  0
 14  7  1  6  0  0  0
 14  8  1  0  0  0  0
 14  5  1  0  0  0  0
 15 12  1  0  0  0  0
 16 19  2  0  0  0  0
 17 21  1  0  0  0  0
 18 17  2  0  0  0  0
 19 17  1  0  0  0  0
 20 16  1  0  0  0  0
 20 18  1  0  0  0  0
 23 25  2  0  0  0  0
 23 22  1  0  0  0  0
 24 23  1  0  0  0  0
 26 25  1  0  0  0  0
 27 26  1  0  0  0  0
 28 29  1  6  0  0  0
 28 27  1  0  0  0  0
 28 24  1  0  0  0  0
 30 35  1  0  0  0  0
 30 34  1  0  0  0  0
 31 32  1  0  0  0  0
 32 29  1  0  0  0  0
 33 32  1  0  0  0  0
 34 33  1  0  0  0  0
 35 31  1  0  0  0  0
M  END
>  <MODEL>
1

>  <REMARK>
 VINA RESULT:      -9.5      0.000      0.000
  Name = 
  5 active torsions:
  status: ('A' for Active; 'I' for Inactive)
    1  A    between atoms: C_1  and  C_5
    2  A    between atoms: C_5  and  C_28
    3  A    between atoms: N_9  and  C_18
    4  A    between atoms: C_18  and  C_35
    5  A    between atoms: C_22  and  C_30
                            x       y       z     vdW  Elec       q    Type
                         _______ _______ _______ _____ _____    ______ ____

>  <TORSDO>
F 5

$$$$
=
 OpenBabel11072413063D

 35 41  0  0  1  0  0  0  0  0999 V2000
  158.4040  211.1180  156.1670 N   0  0  0  0  0  2  0  0  0  0  0  0
  160.7330  208.5880  155.0920 C   0  0  2  0  0  3  0  0  0  0  0  0
  159.2830  212.3220  153.2520 C   0  0  0  0  0  2  0  0  0  0  0  0
  160.7040  209.8120  151.6130 O   0  0  0  0  0  0  0  0  0  0  0  0
  159.7120  210.5490  155.8560 C   0  0  1  0  0  3  0  0  0  0  0  0
  159.6910  209.0500  156.0130 C   0  0  2  0  0  3  0  0  0  0  0  0
  160.6080  211.8460  153.8330 C   0  0  0  0  0  2  0  0  0  0  0  0
  160.4110  209.3100  153.8780 N   0  0  0  0  0  0  0  0  0  0  0  0
  160.4970  207.1220  155.2320 C   0  0  0  0  0  2  0  0  0  0  0  0
  157.6540  211.1940  154.9110 C   0  0  2  0  0  3  0  0  0  0  0  0
  158.5970  211.0310  153.7150 C   0  0  2  0  0  3  0  0  0  0  0  0
  160.2890  207.0380  156.7640 C   0  0  0  0  0  2  0  0  0  0  0  0
  160.9110  209.0130  152.5640 C   0  0  0  0  0  0  0  0  0  0  0  0
  159.8950  210.6110  154.3370 C   0  0  1  0  0  0  0  0  0  0  0  0
  159.9750  208.3920  157.2600 N   0  0  0  0  0  2  0  0  0  0  0  0
  155.6700  212.5810  154.0480 C   0  0  0  0  0  3  0  0  0  0  0  0
  156.9180  213.6120  155.5080 C   0  0  0  0  0  0  0  0  0  0  0  0
  155.9470  214.4530  155.1280 N   0  0  0  0  0  0  0  0  0  0  0  0
  156.7760  212.4100  154.8550 C   0  0  0  0  0  0  0  0  0  0  0  0
  155.2240  213.8040  154.2590 O   0  0  0  0  0  0  0  0  0  0  0  0
  157.9450  213.9500  156.4340 N   0  0  0  0  0  1  0  0  0  0  0  0
  161.6610  207.7470  152.2970 C   0  0  0  0  0  2  0  0  0  0  0  0
  161.7400  207.4830  150.8280 C   0  0  0  0  0  0  0  0  0  0  0  0
  161.2270  206.1660  150.2970 C   0  0  0  0  0  2  0  0  0  0  0  0
  162.1400  208.4710  150.0100 C   0  0  0  0  0  3  0  0  0  0  0  0
  162.2610  208.2880  148.5200 C   0  0  0  0  0  2  0  0  0  0  0  0
  161.3430  207.1810  148.0170 C   0  0  0  0  0  2  0  0  0  0  0  0
  161.6020  205.9210  148.8320 C   0  0  2  0  0  3  0  0  0  0  0  0
  160.7870  204.7710  148.2670 C   0  0  0  0  0  2  0  0  0  0  0  0
  160.7400  200.8000  149.6680 C   0  0  0  0  0  2  0  0  0  0  0  0
  160.8900  202.4680  147.8240 C   0  0  0  0  0  2  0  0  0  0  0  0
  161.2760  203.5030  148.7840 N   0  0  0  0  0  0  0  0  0  0  0  0
  160.5660  203.2590  150.0380 C   0  0  0  0  0  2  0  0  0  0  0  0
  161.0240  201.9360  150.6470 C   0  0  0  0  0  2  0  0  0  0  0  0
  161.3660  201.1030  148.3110 C   0  0  0  0  0  2  0  0  0  0  0  0
  2  9  1  6  0  0  0
  2  6  1  0  0  0  0
  3  7  1  0  0  0  0
  4 13  2  0  0  0  0
  5  6  1  0  0  0  0
  5  1  1  6  0  0  0
  6 15  1  1  0  0  0
  8 14  1  0  0  0  0
  8  2  1  0  0  0  0
  9 12  1  0  0  0  0
 10 19  1  6  0  0  0
 10  1  1  0  0  0  0
 11  3  1  1  0  0  0
 11 14  1  0  0  0  0
 11 10  1  0  0  0  0
 12 15  1  0  0  0  0
 13  8  1  0  0  0  0
 14  7  1  6  0  0  0
 14  5  1  0  0  0  0
 16 20  1  0  0  0  0
 16 19  2  0  0  0  0
 17 21  1  0  0  0  0
 18 17  2  0  0  0  0
 19 17  1  0  0  0  0
 20 18  1  0  0  0  0
 22 13  1  0  0  0  0
 23 22  1  0  0  0  0
 24 23  1  0  0  0  0
 25 23  2  0  0  0  0
 26 25  1  0  0  0  0
 27 26  1  0  0  0  0
 27 28  1  0  0  0  0
 28 29  1  6  0  0  0
 28 24  1  0  0  0  0
 29 32  1  0  0  0  0
 30 34  1  0  0  0  0
 31 35  1  0  0  0  0
 31 32  1  0  0  0  0
 32 33  1  0  0  0  0
 33 34  1  0  0  0  0
 35 30  1  0  0  0  0
M  END
>  <MODEL>
2

>  <REMARK>
 VINA RESULT:      -9.0      2.019      3.318
  Name = 
  5 active torsions:
  status: ('A' for Active; 'I' for Inactive)
    1  A    between atoms: C_1  and  C_5
    2  A    between atoms: C_5  and  C_28
    3  A    between atoms: N_9  and  C_18
    4  A    between atoms: C_18  and  C_35
    5  A    between atoms: C_22  and  C_30
                            x       y       z     vdW  Elec       q    Type
                         _______ _______ _______ _____ _____    ______ ____

>  <TORSDO>
F 5

$$$$
=
 OpenBabel11072413063D

 35 41  0  0  1  0  0  0  0  0999 V2000
  159.1570  211.8060  155.4920 N   0  0  0  0  0  2  0  0  0  0  0  0
  161.7410  209.3510  154.9670 C   0  0  2  0  0  3  0  0  0  0  0  0
  159.1820  211.6620  152.2220 C   0  0  0  0  0  2  0  0  0  0  0  0
  160.7850  208.8660  151.4380 O   0  0  0  0  0  0  0  0  0  0  0  0
  160.4760  211.3140  155.1050 C   0  0  1  0  0  3  0  0  0  0  0  0
  160.8160  210.0540  155.8610 C   0  0  2  0  0  3  0  0  0  0  0  0
  160.6640  211.6550  152.5700 C   0  0  0  0  0  2  0  0  0  0  0  0
  161.0440  209.4070  153.6990 N   0  0  0  0  0  0  0  0  0  0  0  0
  161.8650  208.0880  155.7520 C   0  0  0  0  0  2  0  0  0  0  0  0
  158.1850  211.2230  154.5650 C   0  0  2  0  0  3  0  0  0  0  0  0
  158.8980  210.6490  153.3370 C   0  0  2  0  0  3  0  0  0  0  0  0
  161.9740  208.6790  157.1790 C   0  0  0  0  0  2  0  0  0  0  0  0
  161.3400  208.6100  152.5400 C   0  0  0  0  0  0  0  0  0  0  0  0
  160.3500  210.7060  153.7050 C   0  0  1  0  0  0  0  0  0  0  0  0
  161.4690  210.0650  157.1430 N   0  0  0  0  0  2  0  0  0  0  0  0
  157.2000  213.4750  153.8180 C   0  0  0  0  0  3  0  0  0  0  0  0
  155.7110  211.9940  154.4060 C   0  0  0  0  0  0  0  0  0  0  0  0
  155.0650  213.1190  154.0690 N   0  0  0  0  0  0  0  0  0  0  0  0
  157.0670  212.1720  154.2540 C   0  0  0  0  0  0  0  0  0  0  0  0
  155.9840  213.9760  153.7240 O   0  0  0  0  0  0  0  0  0  0  0  0
  155.0640  210.8160  154.8730 N   0  0  0  0  0  1  0  0  0  0  0  0
  162.2860  207.4550  152.6240 C   0  0  0  0  0  2  0  0  0  0  0  0
  161.5840  206.1760  152.3000 C   0  0  0  0  0  0  0  0  0  0  0  0
  161.5520  205.7080  150.8640 C   0  0  0  0  0  2  0  0  0  0  0  0
  161.1190  205.4150  153.3050 C   0  0  0  0  0  3  0  0  0  0  0  0
  160.3880  204.1200  153.0680 C   0  0  0  0  0  2  0  0  0  0  0  0
  160.7740  203.4980  151.7310 C   0  0  0  0  0  2  0  0  0  0  0  0
  160.5900  204.5390  150.6350 C   0  0  2  0  0  3  0  0  0  0  0  0
  160.8510  203.9030  149.2800 C   0  0  0  0  0  2  0  0  0  0  0  0
  162.0430  205.9940  145.8240 C   0  0  0  0  0  2  0  0  0  0  0  0
  160.6400  205.7680  147.8700 C   0  0  0  0  0  2  0  0  0  0  0  0
  161.5990  204.8160  148.4300 N   0  0  0  0  0  0  0  0  0  0  0  0
  162.1480  204.0150  147.3370 C   0  0  0  0  0  2  0  0  0  0  0  0
  162.9500  204.9060  146.3910 C   0  0  0  0  0  2  0  0  0  0  0  0
  161.3590  206.7550  146.9550 C   0  0  0  0  0  2  0  0  0  0  0  0
  2  9  1  1  0  0  0
  2  6  1  0  0  0  0
  3  7  1  0  0  0  0
  4 13  2  0  0  0  0
  5  1  1  1  0  0  0
  5  6  1  0  0  0  0
  6 15  1  1  0  0  0
  8 14  1  0  0  0  0
  8  2  1  0  0  0  0
  9 12  1  0  0  0  0
 10 19  1  6  0  0  0
 10  1  1  0  0  0  0
 11  3  1  6  0  0  0
 11 14  1  0  0  0  0
 11 10  1  0  0  0  0
 13 22  1  0  0  0  0
 13  8  1  0  0  0  0
 14  7  1  6  0  0  0
 14  5  1  0  0  0  0
 15 12  1  0  0  0  0
 16 19  2  0  0  0  0
 17 21  1  0  0  0  0
 18 17  2  0  0  0  0
 19 17  1  0  0  0  0
 20 16  1  0  0  0  0
 20 18  1  0  0  0  0
 23 22  1  0  0  0  0
 23 25  2  0  0  0  0
 24 23  1  0  0  0  0
 26 25  1  0  0  0  0
 27 26  1  0  0  0  0
 28 29  1  6  0  0  0
 28 24  1  0  0  0  0
 28 27  1  0  0  0  0
 30 34  1  0  0  0  0
 30 35  1  0  0  0  0
 31 32  1  0  0  0  0
 32 29  1  0  0  0  0
 33 32  1  0  0  0  0
 34 33  1  0  0  0  0
 35 31  1  0  0  0  0
M  END
>  <MODEL>
3

>  <REMARK>
 VINA RESULT:      -8.6      1.615      2.193
  Name = 
  5 active torsions:
  status: ('A' for Active; 'I' for Inactive)
    1  A    between atoms: C_1  and  C_5
    2  A    between atoms: C_5  and  C_28
    3  A    between atoms: N_9  and  C_18
    4  A    between atoms: C_18  and  C_35
    5  A    between atoms: C_22  and  C_30
                            x       y       z     vdW  Elec       q    Type
                         _______ _______ _______ _____ _____    ______ ____

>  <TORSDO>
F 5

$$$$
=
 OpenBabel11072413063D

 35 41  0  0  1  0  0  0  0  0999 V2000
  160.5410  203.7760  149.5790 N   0  0  0  0  0  2  0  0  0  0  0  0
  161.2380  206.6180  151.6810 C   0  0  2  0  0  3  0  0  0  0  0  0
  160.7920  206.1340  147.3230 C   0  0  0  0  0  2  0  0  0  0  0  0
  162.3150  208.6750  148.8150 O   0  0  0  0  0  0  0  0  0  0  0  0
  160.2630  205.0370  150.2590 C   0  0  1  0  0  3  0  0  0  0  0  0
  161.1060  205.1690  151.5020 C   0  0  2  0  0  3  0  0  0  0  0  0
  159.9840  206.8070  148.4240 C   0  0  0  0  0  2  0  0  0  0  0  0
  161.6220  207.0570  150.3550 N   0  0  0  0  0  0  0  0  0  0  0  0
  162.2000  206.5980  152.8210 C   0  0  0  0  0  2  0  0  0  0  0  0
  161.5970  204.0350  148.5970 C   0  0  2  0  0  3  0  0  0  0  0  0
  161.7490  205.5420  148.3630 C   0  0  2  0  0  3  0  0  0  0  0  0
  161.5810  205.4530  153.6620 C   0  0  0  0  0  2  0  0  0  0  0  0
  162.1830  208.3370  150.0220 C   0  0  0  0  0  0  0  0  0  0  0  0
  160.9030  206.1590  149.4360 C   0  0  1  0  0  0  0  0  0  0  0  0
  160.6890  204.6700  152.7850 N   0  0  0  0  0  2  0  0  0  0  0  0
  161.4860  203.6910  146.0530 C   0  0  0  0  0  3  0  0  0  0  0  0
  161.0640  201.8990  147.2210 C   0  0  0  0  0  0  0  0  0  0  0  0
  160.9460  201.5840  145.9240 N   0  0  0  0  0  0  0  0  0  0  0  0
  161.4140  203.2230  147.3500 C   0  0  0  0  0  0  0  0  0  0  0  0
  161.2050  202.6750  145.2600 O   0  0  0  0  0  0  0  0  0  0  0  0
  160.8300  200.9830  148.2850 N   0  0  0  0  0  1  0  0  0  0  0  0
  162.6420  209.2760  151.0920 C   0  0  0  0  0  2  0  0  0  0  0  0
  161.5770  210.2770  151.4030 C   0  0  0  0  0  0  0  0  0  0  0  0
  161.3900  211.4530  150.4730 C   0  0  0  0  0  2  0  0  0  0  0  0
  160.7330  210.0360  152.4210 C   0  0  0  0  0  3  0  0  0  0  0  0
  159.6420  210.9970  152.8120 C   0  0  0  0  0  2  0  0  0  0  0  0
  159.2180  211.8690  151.6360 C   0  0  0  0  0  2  0  0  0  0  0  0
  160.4560  212.5250  151.0410 C   0  0  2  0  0  3  0  0  0  0  0  0
  160.0430  213.4950  149.9470 C   0  0  0  0  0  2  0  0  0  0  0  0
  161.3730  213.8790  145.9690 C   0  0  0  0  0  2  0  0  0  0  0  0
  161.5640  214.3900  148.4000 C   0  0  0  0  0  2  0  0  0  0  0  0
  160.7660  213.2070  148.7180 N   0  0  0  0  0  0  0  0  0  0  0  0
  159.7600  213.0320  147.6720 C   0  0  0  0  0  2  0  0  0  0  0  0
  160.4420  212.7270  146.3400 C   0  0  0  0  0  2  0  0  0  0  0  0
  162.3460  214.1600  147.1090 C   0  0  0  0  0  2  0  0  0  0  0  0
  2  9  1  1  0  0  0
  3  7  1  0  0  0  0
  4 13  2  0  0  0  0
  5  1  1  6  0  0  0
  5  6  1  0  0  0  0
  6  2  1  0  0  0  0
  6 15  1  1  0  0  0
  8  2  1  0  0  0  0
  9 12  1  0  0  0  0
 10 19  1  6  0  0  0
 10  1  1  0  0  0  0
 11  3  1  6  0  0  0
 11 10  1  0  0  0  0
 11 14  1  0  0  0  0
 13  8  1  0  0  0  0
 13 22  1  0  0  0  0
 14  7  1  6  0  0  0
 14  5  1  0  0  0  0
 14  8  1  0  0  0  0
 15 12  1  0  0  0  0
 16 19  2  0  0  0  0
 17 19  1  0  0  0  0
 17 21  1  0  0  0  0
 18 17  2  0  0  0  0
 20 18  1  0  0  0  0
 20 16  1  0  0  0  0
 22 23  1  0  0  0  0
 23 25  2  0  0  0  0
 24 28  1  0  0  0  0
 24 23  1  0  0  0  0
 25 26  1  0  0  0  0
 27 26  1  0  0  0  0
 28 29  1  6  0  0  0
 28 27  1  0  0  0  0
 30 34  1  0  0  0  0
 30 35  1  0  0  0  0
 31 32  1  0  0  0  0
 32 29  1  0  0  0  0
 33 32  1  0  0  0  0
 34 33  1  0  0  0  0
 35 31  1  0  0  0  0
M  END
>  <MODEL>
4

>  <REMARK>
 VINA RESULT:      -8.2      3.121      8.380
  Name = 
  5 active torsions:
  status: ('A' for Active; 'I' for Inactive)
    1  A    between atoms: C_1  and  C_5
    2  A    between atoms: C_5  and  C_28
    3  A    between atoms: N_9  and  C_18
    4  A    between atoms: C_18  and  C_35
    5  A    between atoms: C_22  and  C_30
                            x       y       z     vdW  Elec       q    Type
                         _______ _______ _______ _____ _____    ______ ____

>  <TORSDO>
F 5

$$$$
=
 OpenBabel11072413063D

 35 41  0  0  1  0  0  0  0  0999 V2000
  160.4730  203.6620  149.5270 N   0  0  0  0  0  2  0  0  0  0  0  0
  161.1930  206.4940  151.6350 C   0  0  2  0  0  3  0  0  0  0  0  0
  160.7340  206.0250  147.2770 C   0  0  0  0  0  2  0  0  0  0  0  0
  162.2760  208.5520  148.7730 O   0  0  0  0  0  0  0  0  0  0  0  0
  160.2040  204.9230  150.2110 C   0  0  1  0  0  3  0  0  0  0  0  0
  161.0510  205.0460  151.4520 C   0  0  2  0  0  3  0  0  0  0  0  0
  159.9330  206.7000  148.3820 C   0  0  0  0  0  2  0  0  0  0  0  0
  161.5770  206.9340  150.3100 N   0  0  0  0  0  0  0  0  0  0  0  0
  162.1570  206.4630  152.7730 C   0  0  0  0  0  2  0  0  0  0  0  0
  161.5280  203.9180  148.5430 C   0  0  2  0  0  3  0  0  0  0  0  0
  161.6890  205.4240  148.3130 C   0  0  2  0  0  3  0  0  0  0  0  0
  161.5330  205.3200  153.6120 C   0  0  0  0  0  2  0  0  0  0  0  0
  162.1450  208.2110  149.9790 C   0  0  0  0  0  0  0  0  0  0  0  0
  160.8490  206.0430  149.3900 C   0  0  1  0  0  0  0  0  0  0  0  0
  160.6340  204.5460  152.7350 N   0  0  0  0  0  2  0  0  0  0  0  0
  161.2960  203.6000  146.0040 C   0  0  0  0  0  3  0  0  0  0  0  0
  161.0860  201.7640  147.1610 C   0  0  0  0  0  0  0  0  0  0  0  0
  160.9170  201.4590  145.8680 N   0  0  0  0  0  0  0  0  0  0  0  0
  161.3370  203.1110  147.2930 C   0  0  0  0  0  0  0  0  0  0  0  0
  161.0500  202.5760  145.2100 O   0  0  0  0  0  0  0  0  0  0  0  0
  160.9880  200.8190  148.2200 N   0  0  0  0  0  1  0  0  0  0  0  0
  162.6120  209.1440  151.0510 C   0  0  0  0  0  2  0  0  0  0  0  0
  161.5550  210.1520  151.3670 C   0  0  0  0  0  0  0  0  0  0  0  0
  160.8030  210.0320  152.6710 C   0  0  0  0  0  2  0  0  0  0  0  0
  161.3950  211.2070  150.5500 C   0  0  0  0  0  3  0  0  0  0  0  0
  160.3460  212.2610  150.7850 C   0  0  0  0  0  2  0  0  0  0  0  0
  159.9640  212.3490  152.2580 C   0  0  0  0  0  2  0  0  0  0  0  0
  159.5860  210.9590  152.7500 C   0  0  2  0  0  3  0  0  0  0  0  0
  159.0830  211.0440  154.1810 C   0  0  0  0  0  2  0  0  0  0  0  0
  156.2330  213.6140  155.9160 C   0  0  0  0  0  2  0  0  0  0  0  0
  158.5870  212.8780  155.5590 C   0  0  0  0  0  2  0  0  0  0  0  0
  158.1890  212.1800  154.3360 N   0  0  0  0  0  0  0  0  0  0  0  0
  156.8470  211.6340  154.5300 C   0  0  0  0  0  2  0  0  0  0  0  0
  155.8420  212.7710  154.7050 C   0  0  0  0  0  2  0  0  0  0  0  0
  157.6790  214.0830  155.7900 C   0  0  0  0  0  2  0  0  0  0  0  0
  2  9  1  1  0  0  0
  3  7  1  0  0  0  0
  4 13  2  0  0  0  0
  5  1  1  6  0  0  0
  5  6  1  0  0  0  0
  6  2  1  0  0  0  0
  6 15  1  1  0  0  0
  8  2  1  0  0  0  0
  9 12  1  0  0  0  0
 10 19  1  6  0  0  0
 10  1  1  0  0  0  0
 11  3  1  6  0  0  0
 11 10  1  0  0  0  0
 11 14  1  0  0  0  0
 13  8  1  0  0  0  0
 13 22  1  0  0  0  0
 14  7  1  6  0  0  0
 14  5  1  0  0  0  0
 14  8  1  0  0  0  0
 15 12  1  0  0  0  0
 16 19  2  0  0  0  0
 17 19  1  0  0  0  0
 17 21  1  0  0  0  0
 18 17  2  0  0  0  0
 20 18  1  0  0  0  0
 20 16  1  0  0  0  0
 22 23  1  0  0  0  0
 23 24  1  0  0  0  0
 24 28  1  0  0  0  0
 25 26  1  0  0  0  0
 25 23  2  0  0  0  0
 26 27  1  0  0  0  0
 27 28  1  0  0  0  0
 28 29  1  1  0  0  0
 29 32  1  0  0  0  0
 31 35  1  0  0  0  0
 32 33  1  0  0  0  0
 32 31  1  0  0  0  0
 33 34  1  0  0  0  0
 34 30  1  0  0  0  0
 35 30  1  0  0  0  0
M  END
>  <MODEL>
5

>  <REMARK>
 VINA RESULT:      -8.1      2.543      9.361
  Name = 
  5 active torsions:
  status: ('A' for Active; 'I' for Inactive)
    1  A    between atoms: C_1  and  C_5
    2  A    between atoms: C_5  and  C_28
    3  A    between atoms: N_9  and  C_18
    4  A    between atoms: C_18  and  C_35
    5  A    between atoms: C_22  and  C_30
                            x       y       z     vdW  Elec       q    Type
                         _______ _______ _______ _____ _____    ______ ____

>  <TORSDO>
F 5

$$$$
=
 OpenBabel11072413063D

 35 41  0  0  1  0  0  0  0  0999 V2000
  160.4570  203.5950  149.5090 N   0  0  0  0  0  2  0  0  0  0  0  0
  161.2710  206.5220  151.4460 C   0  0  2  0  0  3  0  0  0  0  0  0
  160.7020  205.8310  147.1300 C   0  0  0  0  0  2  0  0  0  0  0  0
  162.3190  208.4070  148.4540 O   0  0  0  0  0  0  0  0  0  0  0  0
  160.2240  204.8950  150.1310 C   0  0  1  0  0  3  0  0  0  0  0  0
  161.1020  205.0700  151.3440 C   0  0  2  0  0  3  0  0  0  0  0  0
  159.9380  206.5770  148.2150 C   0  0  0  0  0  2  0  0  0  0  0  0
  161.6300  206.8850  150.0910 N   0  0  0  0  0  0  0  0  0  0  0  0
  162.2610  206.5360  152.5620 C   0  0  0  0  0  2  0  0  0  0  0  0
  161.4930  203.7800  148.4890 C   0  0  2  0  0  3  0  0  0  0  0  0
  161.6720  205.2690  148.1760 C   0  0  2  0  0  3  0  0  0  0  0  0
  161.6380  205.4500  153.4740 C   0  0  0  0  0  2  0  0  0  0  0  0
  162.2110  208.1330  149.6790 C   0  0  0  0  0  0  0  0  0  0  0  0
  160.8680  205.9590  149.2360 C   0  0  1  0  0  0  0  0  0  0  0  0
  160.7070  204.6450  152.6610 N   0  0  0  0  0  2  0  0  0  0  0  0
  161.0560  203.3440  145.9950 C   0  0  0  0  0  3  0  0  0  0  0  0
  161.1190  201.5440  147.2240 C   0  0  0  0  0  0  0  0  0  0  0  0
  160.8590  201.1750  145.9620 N   0  0  0  0  0  0  0  0  0  0  0  0
  161.2600  202.9110  147.2890 C   0  0  0  0  0  0  0  0  0  0  0  0
  160.8300  202.2720  145.2610 O   0  0  0  0  0  0  0  0  0  0  0  0
  161.2050  200.6360  148.3160 N   0  0  0  0  0  1  0  0  0  0  0  0
  162.7170  209.1140  150.6890 C   0  0  0  0  0  2  0  0  0  0  0  0
  161.6690  210.1310  151.0040 C   0  0  0  0  0  0  0  0  0  0  0  0
  160.9230  210.0250  152.3130 C   0  0  0  0  0  2  0  0  0  0  0  0
  161.5140  211.1820  150.1810 C   0  0  0  0  0  3  0  0  0  0  0  0
  160.4740  212.2460  150.4160 C   0  0  0  0  0  2  0  0  0  0  0  0
  160.0990  212.3460  151.8900 C   0  0  0  0  0  2  0  0  0  0  0  0
  159.7130  210.9610  152.3920 C   0  0  2  0  0  3  0  0  0  0  0  0
  159.2190  211.0580  153.8260 C   0  0  0  0  0  2  0  0  0  0  0  0
  161.3780  209.9250  157.2590 C   0  0  0  0  0  2  0  0  0  0  0  0
  159.2820  209.9890  155.9140 C   0  0  0  0  0  2  0  0  0  0  0  0
  160.0590  210.2610  154.7050 N   0  0  0  0  0  0  0  0  0  0  0  0
  161.2000  211.1000  155.0680 C   0  0  0  0  0  2  0  0  0  0  0  0
  162.1360  210.3320  155.9990 C   0  0  0  0  0  2  0  0  0  0  0  0
  160.1110  209.1600  156.8910 C   0  0  0  0  0  2  0  0  0  0  0  0
  2  9  1  1  0  0  0
  3  7  1  0  0  0  0
  4 13  2  0  0  0  0
  5  1  1  6  0  0  0
  5  6  1  0  0  0  0
  6  2  1  0  0  0  0
  6 15  1  1  0  0  0
  8  2  1  0  0  0  0
  9 12  1  0  0  0  0
 10 19  1  6  0  0  0
 10  1  1  0  0  0  0
 11  3  1  6  0  0  0
 11 10  1  0  0  0  0
 11 14  1  0  0  0  0
 13  8  1  0  0  0  0
 13 22  1  0  0  0  0
 14  7  1  6  0  0  0
 14  8  1  0  0  0  0
 14  5  1  0  0  0  0
 15 12  1  0  0  0  0
 16 19  2  0  0  0  0
 17 19  1  0  0  0  0
 17 21  1  0  0  0  0
 18 17  2  0  0  0  0
 20 18  1  0  0  0  0
 20 16  1  0  0  0  0
 22 23  1  0  0  0  0
 23 24  1  0  0  0  0
 24 28  1  0  0  0  0
 25 26  1  0  0  0  0
 25 23  2  0  0  0  0
 26 27  1  0  0  0  0
 27 28  1  0  0  0  0
 28 29  1  1  0  0  0
 29 32  1  0  0  0  0
 31 35  1  0  0  0  0
 32 33  1  0  0  0  0
 32 31  1  0  0  0  0
 33 34  1  0  0  0  0
 34 30  1  0  0  0  0
 35 30  1  0  0  0  0
M  END
>  <MODEL>
6

>  <REMARK>
 VINA RESULT:      -8.1      2.441      9.123
  Name = 
  5 active torsions:
  status: ('A' for Active; 'I' for Inactive)
    1  A    between atoms: C_1  and  C_5
    2  A    between atoms: C_5  and  C_28
    3  A    between atoms: N_9  and  C_18
    4  A    between atoms: C_18  and  C_35
    5  A    between atoms: C_22  and  C_30
                            x       y       z     vdW  Elec       q    Type
                         _______ _______ _______ _____ _____    ______ ____

>  <TORSDO>
F 5

$$$$
=
 OpenBabel11072413063D

 35 41  0  0  1  0  0  0  0  0999 V2000
  160.1110  213.7620  143.3310 N   0  0  0  0  0  2  0  0  0  0  0  0
  159.7390  213.4710  146.9030 C   0  0  2  0  0  3  0  0  0  0  0  0
  163.2450  213.4880  144.2330 C   0  0  0  0  0  2  0  0  0  0  0  0
  163.2100  212.3000  147.3300 O   0  0  0  0  0  0  0  0  0  0  0  0
  160.1850  214.1940  144.7240 C   0  0  1  0  0  3  0  0  0  0  0  0
  159.1540  213.4780  145.5590 C   0  0  2  0  0  3  0  0  0  0  0  0
  162.6770  214.4390  145.2770 C   0  0  0  0  0  2  0  0  0  0  0  0
  161.0860  213.0040  146.6490 N   0  0  0  0  0  0  0  0  0  0  0  0
  158.7130  212.6170  147.5690 C   0  0  0  0  0  2  0  0  0  0  0  0
  161.0450  212.6450  143.1720 C   0  0  2  0  0  3  0  0  0  0  0  0
  162.0120  212.5860  144.3590 C   0  0  2  0  0  3  0  0  0  0  0  0
  157.4290  213.2210  146.9480 C   0  0  0  0  0  2  0  0  0  0  0  0
  162.0060  212.5130  147.6370 C   0  0  0  0  0  0  0  0  0  0  0  0
  161.4410  213.5690  145.3360 C   0  0  1  0  0  0  0  0  0  0  0  0
  157.8140  213.9700  145.7350 N   0  0  0  0  0  2  0  0  0  0  0  0
  162.2960  213.7410  141.2130 C   0  0  0  0  0  3  0  0  0  0  0  0
  161.7950  211.6430  140.8970 C   0  0  0  0  0  0  0  0  0  0  0  0
  162.4150  212.0900  139.7970 N   0  0  0  0  0  0  0  0  0  0  0  0
  161.7060  212.6550  141.8260 C   0  0  0  0  0  0  0  0  0  0  0  0
  162.6990  213.3420  140.0230 O   0  0  0  0  0  0  0  0  0  0  0  0
  161.2920  210.3200  141.0430 N   0  0  0  0  0  1  0  0  0  0  0  0
  161.5530  212.2240  149.0330 C   0  0  0  0  0  2  0  0  0  0  0  0
  161.7500  210.7800  149.3600 C   0  0  0  0  0  0  0  0  0  0  0  0
  161.6340  209.7600  148.2520 C   0  0  0  0  0  2  0  0  0  0  0  0
  162.1540  210.4410  150.5960 C   0  0  0  0  0  3  0  0  0  0  0  0
  162.3630  209.0100  151.0150 C   0  0  0  0  0  2  0  0  0  0  0  0
  162.6770  208.1180  149.8200 C   0  0  0  0  0  2  0  0  0  0  0  0
  161.5990  208.3170  148.7640 C   0  0  2  0  0  3  0  0  0  0  0  0
  161.8240  207.3470  147.6170 C   0  0  0  0  0  2  0  0  0  0  0  0
  160.9150  203.3440  148.5560 C   0  0  0  0  0  2  0  0  0  0  0  0
  161.7840  205.0840  146.9990 C   0  0  0  0  0  2  0  0  0  0  0  0
  161.9930  205.9950  148.1240 N   0  0  0  0  0  0  0  0  0  0  0  0
  160.9270  205.7770  149.1000 C   0  0  0  0  0  2  0  0  0  0  0  0
  161.0330  204.3690  149.6810 C   0  0  0  0  0  2  0  0  0  0  0  0
  161.9370  203.6380  147.4640 C   0  0  0  0  0  2  0  0  0  0  0  0
  2  9  1  1  0  0  0
  3  7  1  0  0  0  0
  4 13  2  0  0  0  0
  5  1  1  6  0  0  0
  5 14  1  0  0  0  0
  5  6  1  0  0  0  0
  6 15  1  1  0  0  0
  6  2  1  0  0  0  0
  8  2  1  0  0  0  0
  8 13  1  0  0  0  0
 10 19  1  6  0  0  0
 10  1  1  0  0  0  0
 10 11  1  0  0  0  0
 11  3  1  6  0  0  0
 11 14  1  0  0  0  0
 12  9  1  0  0  0  0
 13 22  1  0  0  0  0
 14  7  1  1  0  0  0
 14  8  1  0  0  0  0
 15 12  1  0  0  0  0
 16 19  2  0  0  0  0
 17 21  1  0  0  0  0
 17 19  1  0  0  0  0
 18 20  1  0  0  0  0
 18 17  2  0  0  0  0
 20 16  1  0  0  0  0
 22 23  1  0  0  0  0
 23 25  2  0  0  0  0
 24 28  1  0  0  0  0
 24 23  1  0  0  0  0
 25 26  1  0  0  0  0
 27 26  1  0  0  0  0
 28 29  1  6  0  0  0
 28 27  1  0  0  0  0
 29 32  1  0  0  0  0
 30 34  1  0  0  0  0
 31 35  1  0  0  0  0
 31 32  1  0  0  0  0
 32 33  1  0  0  0  0
 33 34  1  0  0  0  0
 35 30  1  0  0  0  0
M  END
>  <MODEL>
7

>  <REMARK>
 VINA RESULT:      -7.9      5.926      8.866
  Name = 
  5 active torsions:
  status: ('A' for Active; 'I' for Inactive)
    1  A    between atoms: C_1  and  C_5
    2  A    between atoms: C_5  and  C_28
    3  A    between atoms: N_9  and  C_18
    4  A    between atoms: C_18  and  C_35
    5  A    between atoms: C_22  and  C_30
                            x       y       z     vdW  Elec       q    Type
                         _______ _______ _______ _____ _____    ______ ____

>  <TORSDO>
F 5

$$$$
=
 OpenBabel11072413063D

 35 41  0  0  1  0  0  0  0  0999 V2000
  160.2120  210.6860  138.5140 N   0  0  0  0  0  2  0  0  0  0  0  0
  159.7500  213.4030  140.8340 C   0  0  2  0  0  3  0  0  0  0  0  0
  163.1150  210.6730  140.0270 C   0  0  0  0  0  2  0  0  0  0  0  0
  162.7060  212.4280  142.8120 O   0  0  0  0  0  0  0  0  0  0  0  0
  160.4050  212.0260  139.0600 C   0  0  1  0  0  3  0  0  0  0  0  0
  159.2020  212.4510  139.8640 C   0  0  2  0  0  3  0  0  0  0  0  0
  162.8530  212.1580  139.8150 C   0  0  0  0  0  2  0  0  0  0  0  0
  160.8960  212.6860  141.3540 N   0  0  0  0  0  0  0  0  0  0  0  0
  158.5110  213.6130  141.6380 C   0  0  0  0  0  2  0  0  0  0  0  0
  160.7690  209.7370  139.4810 C   0  0  2  0  0  3  0  0  0  0  0  0
  161.6670  210.4660  140.4860 C   0  0  2  0  0  3  0  0  0  0  0  0
  157.4720  213.7070  140.4940 C   0  0  0  0  0  2  0  0  0  0  0  0
  161.6210  213.0130  142.5510 C   0  0  0  0  0  0  0  0  0  0  0  0
  161.4120  211.9170  140.2090 C   0  0  1  0  0  0  0  0  0  0  0  0
  158.0710  213.1200  139.2800 N   0  0  0  0  0  2  0  0  0  0  0  0
  161.5560  208.3780  137.4470 C   0  0  0  0  0  3  0  0  0  0  0  0
  161.9010  207.4030  139.3660 C   0  0  0  0  0  0  0  0  0  0  0  0
  162.3310  206.5790  138.4010 N   0  0  0  0  0  0  0  0  0  0  0  0
  161.4100  208.5600  138.8070 C   0  0  0  0  0  0  0  0  0  0  0  0
  162.1100  207.1940  137.2730 O   0  0  0  0  0  0  0  0  0  0  0  0
  161.9380  207.0880  140.7530 N   0  0  0  0  0  1  0  0  0  0  0  0
  161.0930  214.0270  143.5150 C   0  0  0  0  0  2  0  0  0  0  0  0
  160.5980  213.3620  144.7580 C   0  0  0  0  0  0  0  0  0  0  0  0
  161.5990  212.9530  145.8120 C   0  0  0  0  0  2  0  0  0  0  0  0
  159.2730  213.2670  144.9620 C   0  0  0  0  0  3  0  0  0  0  0  0
  158.6880  212.6010  146.1790 C   0  0  0  0  0  2  0  0  0  0  0  0
  159.6590  212.6310  147.3540 C   0  0  0  0  0  2  0  0  0  0  0  0
  160.9950  212.0590  146.8990 C   0  0  2  0  0  3  0  0  0  0  0  0
  161.9390  211.9660  148.0860 C   0  0  0  0  0  2  0  0  0  0  0  0
  162.2720  208.8290  150.8760 C   0  0  0  0  0  2  0  0  0  0  0  0
  161.9560  211.2360  150.3170 C   0  0  0  0  0  2  0  0  0  0  0  0
  161.5450  210.8730  148.9610 N   0  0  0  0  0  0  0  0  0  0  0  0
  162.3140  209.7020  148.5420 C   0  0  0  0  0  2  0  0  0  0  0  0
  161.9570  208.5040  149.4190 C   0  0  0  0  0  2  0  0  0  0  0  0
  161.5800  210.1230  151.2910 C   0  0  0  0  0  2  0  0  0  0  0  0
  1 10  1  0  0  0  0
  2  8  1  0  0  0  0
  2  9  1  1  0  0  0
  5  1  1  1  0  0  0
  5  6  1  0  0  0  0
  5 14  1  0  0  0  0
  6 15  1  6  0  0  0
  6  2  1  0  0  0  0
  7  3  1  0  0  0  0
  8 13  1  0  0  0  0
 10 19  1  6  0  0  0
 10 11  1  0  0  0  0
 11  3  1  6  0  0  0
 12  9  1  0  0  0  0
 13  4  2  0  0  0  0
 13 22  1  0  0  0  0
 14  7  1  6  0  0  0
 14 11  1  0  0  0  0
 14  8  1  0  0  0  0
 15 12  1  0  0  0  0
 16 19  2  0  0  0  0
 17 21  1  0  0  0  0
 18 17  2  0  0  0  0
 19 17  1  0  0  0  0
 20 16  1  0  0  0  0
 20 18  1  0  0  0  0
 22 23  1  0  0  0  0
 23 25  2  0  0  0  0
 23 24  1  0  0  0  0
 24 28  1  0  0  0  0
 25 26  1  0  0  0  0
 26 27  1  0  0  0  0
 28 27  1  0  0  0  0
 28 29  1  1  0  0  0
 29 32  1  0  0  0  0
 30 35  1  0  0  0  0
 31 35  1  0  0  0  0
 32 31  1  0  0  0  0
 33 32  1  0  0  0  0
 33 34  1  0  0  0  0
 34 30  1  0  0  0  0
M  END
>  <MODEL>
8

>  <REMARK>
 VINA RESULT:      -7.8      7.472     12.892
  Name = 
  5 active torsions:
  status: ('A' for Active; 'I' for Inactive)
    1  A    between atoms: C_1  and  C_5
    2  A    between atoms: C_5  and  C_28
    3  A    between atoms: N_9  and  C_18
    4  A    between atoms: C_18  and  C_35
    5  A    between atoms: C_22  and  C_30
                            x       y       z     vdW  Elec       q    Type
                         _______ _______ _______ _____ _____    ______ ____

>  <TORSDO>
F 5

$$$$
=
 OpenBabel11072413063D

 35 41  0  0  1  0  0  0  0  0999 V2000
  161.9170  206.5930  149.0470 N   0  0  0  0  0  2  0  0  0  0  0  0
  162.3120  209.7190  150.7930 C   0  0  2  0  0  3  0  0  0  0  0  0
  161.9540  205.5390  152.1450 C   0  0  0  0  0  2  0  0  0  0  0  0
  161.3910  208.2100  154.0300 O   0  0  0  0  0  0  0  0  0  0  0  0
  162.6150  207.6110  149.8260 C   0  0  1  0  0  3  0  0  0  0  0  0
  162.0330  208.9760  149.5610 C   0  0  2  0  0  3  0  0  0  0  0  0
  163.0670  206.5790  152.1310 C   0  0  0  0  0  2  0  0  0  0  0  0
  161.8610  208.7980  151.8160 N   0  0  0  0  0  0  0  0  0  0  0  0
  161.5620  210.9640  150.4570 C   0  0  0  0  0  2  0  0  0  0  0  0
  160.8310  206.0740  149.8810 C   0  0  2  0  0  3  0  0  0  0  0  0
  161.0440  206.4760  151.3440 C   0  0  2  0  0  3  0  0  0  0  0  0
  161.9800  211.1260  148.9750 C   0  0  0  0  0  2  0  0  0  0  0  0
  161.6110  209.1250  153.1920 C   0  0  0  0  0  0  0  0  0  0  0  0
  162.1740  207.4600  151.2850 C   0  0  1  0  0  0  0  0  0  0  0  0
  162.4940  209.8270  148.4970 N   0  0  0  0  0  2  0  0  0  0  0  0
  160.0800  203.7170  150.5750 C   0  0  0  0  0  3  0  0  0  0  0  0
  160.9350  203.8340  148.5720 C   0  0  0  0  0  0  0  0  0  0  0  0
  160.6140  202.5550  148.8100 N   0  0  0  0  0  0  0  0  0  0  0  0
  160.6050  204.6080  149.6610 C   0  0  0  0  0  0  0  0  0  0  0  0
  160.1080  202.5250  150.0110 O   0  0  0  0  0  0  0  0  0  0  0  0
  161.5470  204.2890  147.3710 N   0  0  0  0  0  1  0  0  0  0  0  0
  161.5800  210.5490  153.6490 C   0  0  0  0  0  2  0  0  0  0  0  0
  160.1770  210.9830  153.9210 C   0  0  0  0  0  0  0  0  0  0  0  0
  159.5610  212.0460  153.0410 C   0  0  0  0  0  2  0  0  0  0  0  0
  159.4600  210.3280  154.8490 C   0  0  0  0  0  3  0  0  0  0  0  0
  158.0450  210.7080  155.1960 C   0  0  0  0  0  2  0  0  0  0  0  0
  157.3570  211.4170  154.0360 C   0  0  0  0  0  2  0  0  0  0  0  0
  158.2310  212.5780  153.5830 C   0  0  2  0  0  3  0  0  0  0  0  0
  157.5080  213.3730  152.5100 C   0  0  0  0  0  2  0  0  0  0  0  0
  158.9200  214.4520  148.6920 C   0  0  0  0  0  2  0  0  0  0  0  0
  159.1150  214.4440  151.1760 C   0  0  0  0  0  2  0  0  0  0  0  0
  158.2240  213.2860  151.2470 N   0  0  0  0  0  0  0  0  0  0  0  0
  157.2230  213.4050  150.1880 C   0  0  0  0  0  2  0  0  0  0  0  0
  157.9000  213.3250  148.8210 C   0  0  0  0  0  2  0  0  0  0  0  0
  159.8950  214.4200  149.8640 C   0  0  0  0  0  2  0  0  0  0  0  0
  1 10  1  0  0  0  0
  2  9  1  6  0  0  0
  2  8  1  0  0  0  0
  5  1  1  6  0  0  0
  5 14  1  0  0  0  0
  6 15  1  6  0  0  0
  6  5  1  0  0  0  0
  6  2  1  0  0  0  0
  7  3  1  0  0  0  0
  8 13  1  0  0  0  0
 10 19  1  1  0  0  0
 10 11  1  0  0  0  0
 11  3  1  1  0  0  0
 12  9  1  0  0  0  0
 13 22  1  0  0  0  0
 13  4  2  0  0  0  0
 14 11  1  0  0  0  0
 14  8  1  0  0  0  0
 14  7  1  1  0  0  0
 15 12  1  0  0  0  0
 17 18  2  0  0  0  0
 17 19  1  0  0  0  0
 18 20  1  0  0  0  0
 19 16  2  0  0  0  0
 20 16  1  0  0  0  0
 21 17  1  0  0  0  0
 22 23  1  0  0  0  0
 23 25  2  0  0  0  0
 24 28  1  0  0  0  0
 24 23  1  0  0  0  0
 25 26  1  0  0  0  0
 27 26  1  0  0  0  0
 28 29  1  6  0  0  0
 28 27  1  0  0  0  0
 30 34  1  0  0  0  0
 30 35  1  0  0  0  0
 31 32  1  0  0  0  0
 32 29  1  0  0  0  0
 33 32  1  0  0  0  0
 34 33  1  0  0  0  0
 35 31  1  0  0  0  0
M  END
>  <MODEL>
9

>  <REMARK>
 VINA RESULT:      -7.7      2.689      8.381
  Name = 
  5 active torsions:
  status: ('A' for Active; 'I' for Inactive)
    1  A    between atoms: C_1  and  C_5
    2  A    between atoms: C_5  and  C_28
    3  A    between atoms: N_9  and  C_18
    4  A    between atoms: C_18  and  C_35
    5  A    between atoms: C_22  and  C_30
                            x       y       z     vdW  Elec       q    Type
                         _______ _______ _______ _____ _____    ______ ____

>  <TORSDO>
F 5

$$$$
