=
 OpenBabel11072413203D

 44 48  0  0  1  0  0  0  0  0999 V2000
  160.2070  211.9010  146.1940 C   0  0  0  0  0  3  0  0  0  0  0  0
  163.0110  212.2950  147.2570 C   0  0  0  0  0  3  0  0  0  0  0  0
  162.9340  213.2160  146.1100 C   0  0  0  0  0  3  0  0  0  0  0  0
  160.7990  212.4670  145.1870 N   0  0  0  0  0  0  0  0  0  0  0  0
  160.5670  212.1930  147.6110 C   0  0  0  0  0  2  0  0  0  0  0  0
  161.9660  211.7850  147.9230 C   0  0  0  0  0  0  0  0  0  0  0  0
  161.9160  213.3740  145.2480 C   0  0  0  0  0  0  0  0  0  0  0  0
  163.0190  214.4530  141.6380 S   0  0  0  0  0  0  0  0  0  0  0  0
  160.8880  214.4050  143.2240 C   0  0  0  0  0  2  0  0  0  0  0  0
  163.3660  214.3420  143.4230 C   0  0  0  0  0  2  0  0  0  0  0  0
  162.0580  214.4530  144.2040 C   0  0  2  0  0  3  0  0  0  0  0  0
  161.3500  213.8000  141.9110 C   0  0  2  0  0  3  0  0  0  0  0  0
  162.6870  211.8290  142.2030 O   0  0  0  0  0  1  0  0  0  0  0  0
  161.3840  212.2580  141.9280 C   0  0  2  0  0  3  0  0  0  0  0  0
  159.9610  213.6920  138.2180 F   0  0  0  0  0  0  0  0  0  0  0  0
  160.8540  211.5780  140.6470 C   0  0  1  0  0  0  0  0  0  0  0  0
  161.1980  210.2360  140.6420 F   0  0  0  0  0  0  0  0  0  0  0  0
  159.3480  211.6850  140.5010 C   0  0  0  0  0  2  0  0  0  0  0  0
  159.1320  211.5870  139.0100 C   0  0  2  0  0  3  0  0  0  0  0  0
  161.4230  212.2580  139.3920 C   0  0  2  0  0  3  0  0  0  0  0  0
  160.2880  212.3560  138.3820 C   0  0  2  0  0  3  0  0  0  0  0  0
  162.4850  211.5300  138.8540 O   0  0  0  0  0  1  0  0  0  0  0  0
  157.7590  212.0970  138.6000 C   0  0  0  0  0  3  0  0  0  0  0  0
  156.8600  211.0520  138.6200 O   0  0  0  0  0  0  0  0  0  0  0  0
  156.8780  211.9180  139.6440 O   0  0  0  0  0  0  0  0  0  0  0  0
  162.1720  211.0320  149.1690 C   0  0  0  0  0  3  0  0  0  0  0  0
  161.2400  210.2480  149.7040 C   0  0  0  0  0  3  0  0  0  0  0  0
  163.0070  209.4950  151.5550 O   0  0  0  0  0  0  0  0  0  0  0  0
  160.6650  209.6880  152.2350 O   0  0  0  0  0  0  0  0  0  0  0  0
  161.5850  209.2730  151.1230 S   0  0  0  0  0  0  0  0  0  0  0  0
  161.3070  207.5430  150.7360 C   0  0  2  0  0  3  0  0  0  0  0  0
  160.7990  207.3010  149.3340 C   0  0  0  0  0  3  0  0  0  0  0  0
  160.8120  206.1630  148.6150 C   0  0  0  0  0  3  0  0  0  0  0  0
  159.5000  201.9400  149.2530 O   0  0  0  0  0  1  0  0  0  0  0  0
  160.7070  202.5510  149.5890 C   0  0  2  0  0  3  0  0  0  0  0  0
  161.6640  203.9180  147.8210 C   0  0  0  0  0  2  0  0  0  0  0  0
  160.4590  204.0120  149.9270 C   0  0  0  0  0  2  0  0  0  0  0  0
  161.3480  204.8080  148.9930 C   0  0  2  0  0  3  0  0  0  0  0  0
  161.6430  202.5180  148.3920 C   0  0  0  0  0  2  0  0  0  0  0  0
  160.5210  206.9190  151.7080 O   0  0  0  0  0  0  0  0  0  0  0  0
  163.1700  206.1900  152.1220 O   0  0  0  0  0  0  0  0  0  0  0  0
  161.6110  206.9380  154.0830 O   0  0  0  0  0  1  0  0  0  0  0  0
  161.6090  206.1780  152.7770 P   0  0  0  0  0  0  0  0  0  0  0  0
  161.1320  204.5800  153.0670 O   0  0  0  0  0  1  0  0  0  0  0  0
  1  5  1  0  0  0  0
  2  6  2  0  0  0  0
  3  2  1  0  0  0  0
  4  7  1  0  0  0  0
  4  1  2  0  0  0  0
  5  6  1  0  0  0  0
  6 26  1  0  0  0  0
  7  3  2  0  0  0  0
  8 12  1  0  0  0  0
  8 10  1  0  0  0  0
  9 11  1  0  0  0  0
 10 11  1  0  0  0  0
 11  7  1  1  0  0  0
 12 14  1  1  0  0  0
 12  9  1  0  0  0  0
 14 13  1  6  0  0  0
 16 17  1  1  0  0  0
 16 14  1  0  0  0  0
 18 16  1  0  0  0  0
 19 23  1  1  0  0  0
 19 18  1  0  0  0  0
 20 22  1  6  0  0  0
 20 16  1  0  0  0  0
 21 15  1  1  0  0  0
 21 19  1  0  0  0  0
 21 20  1  0  0  0  0
 23 24  1  0  0  0  0
 23 25  1  0  0  0  0
 24 25  1  0  0  0  0
 26 27  2  0  0  0  0
 27 30  1  0  0  0  0
 30 28  2  0  0  0  0
 30 29  2  0  0  0  0
 31 32  1  6  0  0  0
 31 30  1  0  0  0  0
 31 40  1  0  0  0  0
 33 32  2  0  0  0  0
 35 34  1  6  0  0  0
 35 37  1  0  0  0  0
 36 39  1  0  0  0  0
 36 38  1  0  0  0  0
 38 33  1  6  0  0  0
 38 37  1  0  0  0  0
 39 35  1  0  0  0  0
 40 43  1  0  0  0  0
 41 43  2  0  0  0  0
 43 44  1  0  0  0  0
 43 42  1  0  0  0  0
M  END
>  <MODEL>
1

>  <REMARK>
 VINA RESULT:      -6.2      0.000      0.000
  Name = 
  11 active torsions:
  status: ('A' for Active; 'I' for Inactive)
    1  A    between atoms: C_1  and  C_24
    2  A    between atoms: C_2  and  C_38
    3  A    between atoms: C_6  and  C_30
    4  A    between atoms: C_8  and  S_42
    5  A    between atoms: C_11  and  C_41
    6  A    between atoms: C_17  and  C_20
    7  A    between atoms: C_24  and  O_39
    8  A    between atoms: C_24  and  S_42
    9  A    between atoms: P_27  and  O_39
   10  A    between atoms: C_37  and  C_44
   11  A    between atoms: C_41  and  C_43
                            x       y       z     vdW  Elec       q    Type
                         _______ _______ _______ _____ _____    ______ ____

>  <TORSDO>
F 11

$$$$
=
 OpenBabel11072413203D

 44 48  0  0  1  0  0  0  0  0999 V2000
  161.1920  207.6960  148.6860 C   0  0  0  0  0  3  0  0  0  0  0  0
  161.9240  209.6450  150.8800 C   0  0  0  0  0  3  0  0  0  0  0  0
  162.0000  208.3280  151.5360 C   0  0  0  0  0  3  0  0  0  0  0  0
  161.0140  206.9790  149.7530 N   0  0  0  0  0  0  0  0  0  0  0  0
  162.2320  208.7600  148.5930 C   0  0  0  0  0  2  0  0  0  0  0  0
  161.9810  209.8670  149.5600 C   0  0  0  0  0  0  0  0  0  0  0  0
  161.6980  207.1290  151.0110 C   0  0  0  0  0  0  0  0  0  0  0  0
  160.6780  203.4990  152.1060 S   0  0  0  0  0  0  0  0  0  0  0  0
  162.7260  204.8590  151.0990 C   0  0  0  0  0  2  0  0  0  0  0  0
  160.6510  205.2970  152.3970 C   0  0  0  0  0  2  0  0  0  0  0  0
  161.9450  205.9170  151.8750 C   0  0  2  0  0  3  0  0  0  0  0  0
  161.7920  203.7330  150.6950 C   0  0  2  0  0  3  0  0  0  0  0  0
  159.6720  203.5600  149.5840 O   0  0  0  0  0  1  0  0  0  0  0  0
  160.9740  204.0450  149.4250 C   0  0  2  0  0  3  0  0  0  0  0  0
  160.3240  204.9020  145.3390 F   0  0  0  0  0  0  0  0  0  0  0  0
  161.5850  203.5200  148.1080 C   0  0  1  0  0  0  0  0  0  0  0  0
  162.7730  202.8540  148.3660 F   0  0  0  0  0  0  0  0  0  0  0  0
  160.6610  202.5760  147.3620 C   0  0  0  0  0  2  0  0  0  0  0  0
  161.1050  202.7130  145.9260 C   0  0  2  0  0  3  0  0  0  0  0  0
  161.8470  204.6740  147.1290 C   0  0  2  0  0  3  0  0  0  0  0  0
  161.4400  204.1880  145.7450 C   0  0  2  0  0  3  0  0  0  0  0  0
  163.1910  205.0510  147.1310 O   0  0  0  0  0  1  0  0  0  0  0  0
  160.0540  202.1970  144.9550 C   0  0  0  0  0  3  0  0  0  0  0  0
  160.2060  200.8360  144.7990 O   0  0  0  0  0  0  0  0  0  0  0  0
  159.2380  201.2960  145.6050 O   0  0  0  0  0  0  0  0  0  0  0  0
  162.0890  211.2370  149.0380 C   0  0  0  0  0  3  0  0  0  0  0  0
  161.5200  211.6260  147.9010 C   0  0  0  0  0  3  0  0  0  0  0  0
  160.3780  214.0360  147.9340 O   0  0  0  0  0  0  0  0  0  0  0  0
  162.8220  213.9400  147.9320 O   0  0  0  0  0  0  0  0  0  0  0  0
  161.5740  213.3050  147.3910 S   0  0  0  0  0  0  0  0  0  0  0  0
  161.5980  213.3820  145.5980 C   0  0  2  0  0  3  0  0  0  0  0  0
  162.9750  213.5860  145.0120 C   0  0  0  0  0  3  0  0  0  0  0  0
  163.3460  213.6200  143.7180 C   0  0  0  0  0  3  0  0  0  0  0  0
  163.6760  212.7280  139.3520 O   0  0  0  0  0  1  0  0  0  0  0  0
  162.5850  213.2070  140.0760 C   0  0  2  0  0  3  0  0  0  0  0  0
  162.1650  212.0190  142.1560 C   0  0  0  0  0  2  0  0  0  0  0  0
  163.0810  214.0680  141.2270 C   0  0  0  0  0  2  0  0  0  0  0  0
  162.5010  213.4490  142.4840 C   0  0  2  0  0  3  0  0  0  0  0  0
  161.8260  212.0380  140.6820 C   0  0  0  0  0  2  0  0  0  0  0  0
  160.6640  214.2990  145.1110 O   0  0  0  0  0  0  0  0  0  0  0  0
  159.0410  213.7050  142.9350 O   0  0  0  0  0  0  0  0  0  0  0  0
  159.6800  211.9090  144.7240 O   0  0  0  0  0  1  0  0  0  0  0  0
  159.3500  213.3750  144.5660 P   0  0  0  0  0  0  0  0  0  0  0  0
  157.9740  213.7350  145.4840 O   0  0  0  0  0  1  0  0  0  0  0  0
  1  4  2  0  0  0  0
  2  3  1  0  0  0  0
  4  7  1  0  0  0  0
  5  1  1  0  0  0  0
  5  6  1  0  0  0  0
  6  2  2  0  0  0  0
  7  3  2  0  0  0  0
  8 10  1  0  0  0  0
  9 11  1  0  0  0  0
 11  7  1  6  0  0  0
 11 10  1  0  0  0  0
 12 14  1  6  0  0  0
 12  9  1  0  0  0  0
 12  8  1  0  0  0  0
 14 13  1  1  0  0  0
 16 17  1  1  0  0  0
 16 14  1  0  0  0  0
 18 16  1  0  0  0  0
 19 23  1  6  0  0  0
 19 18  1  0  0  0  0
 20 22  1  6  0  0  0
 20 16  1  0  0  0  0
 21 15  1  1  0  0  0
 21 19  1  0  0  0  0
 21 20  1  0  0  0  0
 23 25  1  0  0  0  0
 24 23  1  0  0  0  0
 24 25  1  0  0  0  0
 26  6  1  0  0  0  0
 27 26  2  0  0  0  0
 30 27  1  0  0  0  0
 30 29  2  0  0  0  0
 30 28  2  0  0  0  0
 31 32  1  1  0  0  0
 31 30  1  0  0  0  0
 33 32  2  0  0  0  0
 35 34  1  1  0  0  0
 35 39  1  0  0  0  0
 35 37  1  0  0  0  0
 36 38  1  0  0  0  0
 37 38  1  0  0  0  0
 38 33  1  1  0  0  0
 39 36  1  0  0  0  0
 40 31  1  0  0  0  0
 41 43  2  0  0  0  0
 43 42  1  0  0  0  0
 43 40  1  0  0  0  0
 43 44  1  0  0  0  0
M  END
>  <MODEL>
2

>  <REMARK>
 VINA RESULT:      -6.0      4.066     10.409
  Name = 
  11 active torsions:
  status: ('A' for Active; 'I' for Inactive)
    1  A    between atoms: C_1  and  C_24
    2  A    between atoms: C_2  and  C_38
    3  A    between atoms: C_6  and  C_30
    4  A    between atoms: C_8  and  S_42
    5  A    between atoms: C_11  and  C_41
    6  A    between atoms: C_17  and  C_20
    7  A    between atoms: C_24  and  O_39
    8  A    between atoms: C_24  and  S_42
    9  A    between atoms: P_27  and  O_39
   10  A    between atoms: C_37  and  C_44
   11  A    between atoms: C_41  and  C_43
                            x       y       z     vdW  Elec       q    Type
                         _______ _______ _______ _____ _____    ______ ____

>  <TORSDO>
F 11

$$$$
=
 OpenBabel11072413203D

 44 48  0  0  1  0  0  0  0  0999 V2000
  162.0330  210.5340  150.4160 C   0  0  0  0  0  3  0  0  0  0  0  0
  160.6850  209.0890  152.7050 C   0  0  0  0  0  3  0  0  0  0  0  0
  160.0970  210.4390  152.7430 C   0  0  0  0  0  3  0  0  0  0  0  0
  161.5710  211.5200  151.1220 N   0  0  0  0  0  0  0  0  0  0  0  0
  161.3470  209.2130  150.3280 C   0  0  0  0  0  2  0  0  0  0  0  0
  161.2910  208.5280  151.6510 C   0  0  0  0  0  0  0  0  0  0  0  0
  160.4110  211.4950  151.9740 C   0  0  0  0  0  0  0  0  0  0  0  0
  157.0800  213.2120  153.1450 S   0  0  0  0  0  0  0  0  0  0  0  0
  159.6970  213.2440  153.6020 C   0  0  0  0  0  2  0  0  0  0  0  0
  158.1220  212.5480  151.8070 C   0  0  0  0  0  2  0  0  0  0  0  0
  159.5940  212.7490  152.1610 C   0  0  2  0  0  3  0  0  0  0  0  0
  158.4100  212.9220  154.3420 C   0  0  2  0  0  3  0  0  0  0  0  0
  157.0110  211.0830  154.9880 O   0  0  0  0  0  1  0  0  0  0  0  0
  158.3490  211.4700  154.8550 C   0  0  2  0  0  3  0  0  0  0  0  0
  162.4420  211.1630  155.8560 F   0  0  0  0  0  0  0  0  0  0  0  0
  159.1150  211.2080  156.1700 C   0  0  1  0  0  0  0  0  0  0  0  0
  158.2790  211.4050  157.2570 F   0  0  0  0  0  0  0  0  0  0  0  0
  159.6840  209.8040  156.2540 C   0  0  0  0  0  2  0  0  0  0  0  0
  160.8580  209.9560  157.1900 C   0  0  2  0  0  3  0  0  0  0  0  0
  160.3340  212.1360  156.2850 C   0  0  2  0  0  3  0  0  0  0  0  0
  161.4800  211.3030  156.8430 C   0  0  2  0  0  3  0  0  0  0  0  0
  160.0730  213.2200  157.1250 O   0  0  0  0  0  1  0  0  0  0  0  0
  161.8240  208.7860  157.0830 C   0  0  0  0  0  3  0  0  0  0  0  0
  161.1340  207.6070  157.2600 O   0  0  0  0  0  0  0  0  0  0  0  0
  161.4610  207.9920  156.0180 O   0  0  0  0  0  0  0  0  0  0  0  0
  161.6650  207.1060  151.6740 C   0  0  0  0  0  3  0  0  0  0  0  0
  160.7900  206.1240  151.4800 C   0  0  0  0  0  3  0  0  0  0  0  0
  162.8080  204.3810  151.5410 O   0  0  0  0  0  0  0  0  0  0  0  0
  160.6740  203.6790  152.5080 O   0  0  0  0  0  0  0  0  0  0  0  0
  161.3140  204.4510  151.3910 S   0  0  0  0  0  0  0  0  0  0  0  0
  160.8060  203.7510  149.8190 C   0  0  2  0  0  3  0  0  0  0  0  0
  160.2250  202.3610  149.9250 C   0  0  0  0  0  3  0  0  0  0  0  0
  160.2510  201.3620  149.0220 C   0  0  0  0  0  3  0  0  0  0  0  0
  160.8380  198.6820  145.4960 O   0  0  0  0  0  1  0  0  0  0  0  0
  161.4260  199.9140  145.7770 C   0  0  2  0  0  3  0  0  0  0  0  0
  159.8670  201.6180  146.5360 C   0  0  0  0  0  2  0  0  0  0  0  0
  161.5820  200.0690  147.2810 C   0  0  0  0  0  2  0  0  0  0  0  0
  160.8510  201.3470  147.6420 C   0  0  2  0  0  3  0  0  0  0  0  0
  160.5140  201.0320  145.3000 C   0  0  0  0  0  2  0  0  0  0  0  0
  161.8230  203.8380  148.8650 O   0  0  0  0  0  0  0  0  0  0  0  0
  160.0700  205.9650  148.5190 O   0  0  0  0  0  1  0  0  0  0  0  0
  162.6330  206.1870  148.0550 O   0  0  0  0  0  1  0  0  0  0  0  0
  161.4770  205.2200  147.9450 P   0  0  0  0  0  0  0  0  0  0  0  0
  161.2650  204.7910  146.3210 O   0  0  0  0  0  0  0  0  0  0  0  0
  1  4  2  0  0  0  0
  2  3  1  0  0  0  0
  4  7  1  0  0  0  0
  5  1  1  0  0  0  0
  5  6  1  0  0  0  0
  6 26  1  0  0  0  0
  6  2  2  0  0  0  0
  7  3  2  0  0  0  0
  8 12  1  0  0  0  0
  9 12  1  0  0  0  0
 10 11  1  0  0  0  0
 10  8  1  0  0  0  0
 11  7  1  1  0  0  0
 11  9  1  0  0  0  0
 12 14  1  6  0  0  0
 14 13  1  1  0  0  0
 14 16  1  0  0  0  0
 16 18  1  0  0  0  0
 16 20  1  0  0  0  0
 16 17  1  1  0  0  0
 18 19  1  0  0  0  0
 19 23  1  6  0  0  0
 20 21  1  0  0  0  0
 20 22  1  1  0  0  0
 21 15  1  6  0  0  0
 21 19  1  0  0  0  0
 23 24  1  0  0  0  0
 25 23  1  0  0  0  0
 25 24  1  0  0  0  0
 27 26  2  0  0  0  0
 30 27  1  0  0  0  0
 30 28  2  0  0  0  0
 30 29  2  0  0  0  0
 31 32  1  1  0  0  0
 31 30  1  0  0  0  0
 33 32  2  0  0  0  0
 35 34  1  1  0  0  0
 35 37  1  0  0  0  0
 36 38  1  0  0  0  0
 37 38  1  0  0  0  0
 38 33  1  1  0  0  0
 39 35  1  0  0  0  0
 39 36  1  0  0  0  0
 40 31  1  0  0  0  0
 43 42  1  0  0  0  0
 43 41  1  0  0  0  0
 43 40  1  0  0  0  0
 44 43  2  0  0  0  0
M  END
>  <MODEL>
3

>  <REMARK>
 VINA RESULT:      -5.2      7.618     10.834
  Name = 
  11 active torsions:
  status: ('A' for Active; 'I' for Inactive)
    1  A    between atoms: C_1  and  C_24
    2  A    between atoms: C_2  and  C_38
    3  A    between atoms: C_6  and  C_30
    4  A    between atoms: C_8  and  S_42
    5  A    between atoms: C_11  and  C_41
    6  A    between atoms: C_17  and  C_20
    7  A    between atoms: C_24  and  O_39
    8  A    between atoms: C_24  and  S_42
    9  A    between atoms: P_27  and  O_39
   10  A    between atoms: C_37  and  C_44
   11  A    between atoms: C_41  and  C_43
                            x       y       z     vdW  Elec       q    Type
                         _______ _______ _______ _____ _____    ______ ____

>  <TORSDO>
F 11

$$$$
=
 OpenBabel11072413203D

 44 48  0  0  1  0  0  0  0  0999 V2000
  161.3200  212.3750  150.2600 C   0  0  0  0  0  3  0  0  0  0  0  0
  160.3770  210.7360  152.6210 C   0  0  0  0  0  3  0  0  0  0  0  0
  159.5950  211.9820  152.7180 C   0  0  0  0  0  3  0  0  0  0  0  0
  160.7650  213.2780  151.0100 N   0  0  0  0  0  0  0  0  0  0  0  0
  160.8380  210.9660  150.2040 C   0  0  0  0  0  2  0  0  0  0  0  0
  160.9830  210.2770  151.5180 C   0  0  0  0  0  0  0  0  0  0  0  0
  159.6880  213.0740  151.9430 C   0  0  0  0  0  0  0  0  0  0  0  0
  156.0580  214.2190  152.9090 S   0  0  0  0  0  0  0  0  0  0  0  0
  158.5830  214.4530  153.7030 C   0  0  0  0  0  2  0  0  0  0  0  0
  157.3190  213.8920  151.6360 C   0  0  0  0  0  2  0  0  0  0  0  0
  158.7060  214.1890  152.2030 C   0  0  2  0  0  3  0  0  0  0  0  0
  157.2720  213.8830  154.2130 C   0  0  2  0  0  3  0  0  0  0  0  0
  156.0700  211.8070  154.2910 O   0  0  0  0  0  1  0  0  0  0  0  0
  157.3350  212.3680  154.4960 C   0  0  2  0  0  3  0  0  0  0  0  0
  161.1860  212.2400  156.2280 F   0  0  0  0  0  0  0  0  0  0  0  0
  157.8710  211.9850  155.8930 C   0  0  1  0  0  0  0  0  0  0  0  0
  156.8350  211.9640  156.8120 F   0  0  0  0  0  0  0  0  0  0  0  0
  158.5550  210.6310  155.9130 C   0  0  0  0  0  2  0  0  0  0  0  0
  159.5160  210.7410  157.0710 C   0  0  2  0  0  3  0  0  0  0  0  0
  158.9480  212.9790  156.3550 C   0  0  2  0  0  3  0  0  0  0  0  0
  160.0510  212.1660  157.0190 C   0  0  2  0  0  3  0  0  0  0  0  0
  158.4290  213.9120  157.2550 O   0  0  0  0  0  1  0  0  0  0  0  0
  160.6000  209.6750  157.0120 C   0  0  0  0  0  3  0  0  0  0  0  0
  160.0120  208.4300  156.9550 O   0  0  0  0  0  0  0  0  0  0  0  0
  160.4890  208.9790  155.8280 O   0  0  0  0  0  0  0  0  0  0  0  0
  161.5690  208.9290  151.4960 C   0  0  0  0  0  3  0  0  0  0  0  0
  160.9300  207.8530  151.9460 C   0  0  0  0  0  3  0  0  0  0  0  0
  163.1220  206.3590  151.6730 O   0  0  0  0  0  0  0  0  0  0  0  0
  161.2780  205.4370  152.9900 O   0  0  0  0  0  0  0  0  0  0  0  0
  161.6270  206.2510  151.7770 S   0  0  0  0  0  0  0  0  0  0  0  0
  160.9500  205.4590  150.3160 C   0  0  2  0  0  3  0  0  0  0  0  0
  160.3980  206.4250  149.2950 C   0  0  0  0  0  3  0  0  0  0  0  0
  160.4900  206.3800  147.9520 C   0  0  0  0  0  3  0  0  0  0  0  0
  161.5610  205.5820  143.6880 O   0  0  0  0  0  1  0  0  0  0  0  0
  161.6020  204.7230  144.7860 C   0  0  2  0  0  3  0  0  0  0  0  0
  162.6170  205.6870  146.7740 C   0  0  0  0  0  2  0  0  0  0  0  0
  160.4930  205.0910  145.7590 C   0  0  0  0  0  2  0  0  0  0  0  0
  161.1800  205.3640  147.0820 C   0  0  2  0  0  3  0  0  0  0  0  0
  162.9220  204.8990  145.5190 C   0  0  0  0  0  2  0  0  0  0  0  0
  160.0410  204.4530  150.6510 O   0  0  0  0  0  0  0  0  0  0  0  0
  161.9420  203.2180  149.0460 O   0  0  0  0  0  0  0  0  0  0  0  0
  161.5330  202.4930  151.5240 O   0  0  0  0  0  1  0  0  0  0  0  0
  160.8170  202.9890  150.2890 P   0  0  0  0  0  0  0  0  0  0  0  0
  159.6740  201.8350  149.8100 O   0  0  0  0  0  1  0  0  0  0  0  0
  1  4  2  0  0  0  0
  2  3  1  0  0  0  0
  4  7  1  0  0  0  0
  5  1  1  0  0  0  0
  5  6  1  0  0  0  0
  6  2  2  0  0  0  0
  7  3  2  0  0  0  0
  8 12  1  0  0  0  0
  9 12  1  0  0  0  0
 10 11  1  0  0  0  0
 10  8  1  0  0  0  0
 11  7  1  1  0  0  0
 11  9  1  0  0  0  0
 12 14  1  6  0  0  0
 14 13  1  1  0  0  0
 14 16  1  0  0  0  0
 16 18  1  0  0  0  0
 16 20  1  0  0  0  0
 16 17  1  1  0  0  0
 18 19  1  0  0  0  0
 19 23  1  6  0  0  0
 20 21  1  0  0  0  0
 20 22  1  1  0  0  0
 21 15  1  6  0  0  0
 21 19  1  0  0  0  0
 24 23  1  0  0  0  0
 25 24  1  0  0  0  0
 25 23  1  0  0  0  0
 26  6  1  0  0  0  0
 26 27  2  0  0  0  0
 28 30  2  0  0  0  0
 30 27  1  0  0  0  0
 30 29  2  0  0  0  0
 31 32  1  6  0  0  0
 31 40  1  0  0  0  0
 31 30  1  0  0  0  0
 33 32  2  0  0  0  0
 35 34  1  6  0  0  0
 35 39  1  0  0  0  0
 35 37  1  0  0  0  0
 36 38  1  0  0  0  0
 37 38  1  0  0  0  0
 38 33  1  6  0  0  0
 39 36  1  0  0  0  0
 41 43  2  0  0  0  0
 43 40  1  0  0  0  0
 43 42  1  0  0  0  0
 44 43  1  0  0  0  0
M  END
>  <MODEL>
4

>  <REMARK>
 VINA RESULT:      -5.1      6.788     10.566
  Name = 
  11 active torsions:
  status: ('A' for Active; 'I' for Inactive)
    1  A    between atoms: C_1  and  C_24
    2  A    between atoms: C_2  and  C_38
    3  A    between atoms: C_6  and  C_30
    4  A    between atoms: C_8  and  S_42
    5  A    between atoms: C_11  and  C_41
    6  A    between atoms: C_17  and  C_20
    7  A    between atoms: C_24  and  O_39
    8  A    between atoms: C_24  and  S_42
    9  A    between atoms: P_27  and  O_39
   10  A    between atoms: C_37  and  C_44
   11  A    between atoms: C_41  and  C_43
                            x       y       z     vdW  Elec       q    Type
                         _______ _______ _______ _____ _____    ______ ____

>  <TORSDO>
F 11

$$$$
=
 OpenBabel11072413203D

 44 48  0  0  1  0  0  0  0  0999 V2000
  162.2780  209.1220  150.7440 C   0  0  0  0  0  3  0  0  0  0  0  0
  160.0980  209.1670  152.8390 C   0  0  0  0  0  3  0  0  0  0  0  0
  160.6490  207.8030  152.9300 C   0  0  0  0  0  3  0  0  0  0  0  0
  162.0730  207.8570  150.9450 N   0  0  0  0  0  0  0  0  0  0  0  0
  162.1230  210.1450  151.8160 C   0  0  0  0  0  2  0  0  0  0  0  0
  160.7170  210.2270  152.3060 C   0  0  0  0  0  0  0  0  0  0  0  0
  161.5990  207.2470  152.1610 C   0  0  0  0  0  0  0  0  0  0  0  0
  161.0190  203.3680  151.9880 S   0  0  0  0  0  0  0  0  0  0  0  0
  162.8140  205.2230  151.3590 C   0  0  0  0  0  2  0  0  0  0  0  0
  160.8790  204.9410  152.8950 C   0  0  0  0  0  2  0  0  0  0  0  0
  162.0460  205.8520  152.5190 C   0  0  2  0  0  3  0  0  0  0  0  0
  161.9340  204.2000  150.6630 C   0  0  2  0  0  3  0  0  0  0  0  0
  159.9480  203.8980  149.3490 O   0  0  0  0  0  1  0  0  0  0  0  0
  160.9480  204.8270  149.6570 C   0  0  2  0  0  3  0  0  0  0  0  0
  159.4530  205.8550  145.8410 F   0  0  0  0  0  0  0  0  0  0  0  0
  161.5920  205.3710  148.3630 C   0  0  1  0  0  0  0  0  0  0  0  0
  162.8510  205.8810  148.6340 F   0  0  0  0  0  0  0  0  0  0  0  0
  161.7270  204.3160  147.2810 C   0  0  0  0  0  2  0  0  0  0  0  0
  161.7290  205.1210  146.0040 C   0  0  2  0  0  3  0  0  0  0  0  0
  160.7180  206.4690  147.7370 C   0  0  2  0  0  3  0  0  0  0  0  0
  160.7240  206.2430  146.2320 C   0  0  2  0  0  3  0  0  0  0  0  0
  161.2060  207.7420  148.0350 O   0  0  0  0  0  1  0  0  0  0  0  0
  161.4240  204.2590  144.7890 C   0  0  0  0  0  3  0  0  0  0  0  0
  161.4220  202.9320  145.1600 O   0  0  0  0  0  0  0  0  0  0  0  0
  160.2510  203.5680  145.0050 O   0  0  0  0  0  0  0  0  0  0  0  0
  160.1450  211.5740  152.4470 C   0  0  0  0  0  3  0  0  0  0  0  0
  158.9110  211.7950  152.8910 C   0  0  0  0  0  3  0  0  0  0  0  0
  159.4490  214.4060  152.9660 O   0  0  0  0  0  0  0  0  0  0  0  0
  157.2380  213.7260  152.1700 O   0  0  0  0  0  0  0  0  0  0  0  0
  158.3250  213.4270  153.1610 S   0  0  0  0  0  0  0  0  0  0  0  0
  157.6630  213.5540  154.8250 C   0  0  2  0  0  3  0  0  0  0  0  0
  158.4640  214.4530  155.7360 C   0  0  0  0  0  3  0  0  0  0  0  0
  159.4670  214.1300  156.5740 C   0  0  0  0  0  3  0  0  0  0  0  0
  158.7310  209.7710  155.9250 O   0  0  0  0  0  1  0  0  0  0  0  0
  159.6520  210.3970  156.7650 C   0  0  2  0  0  3  0  0  0  0  0  0
  160.8830  212.2160  155.7230 C   0  0  0  0  0  2  0  0  0  0  0  0
  159.0730  211.7120  157.2600 C   0  0  0  0  0  2  0  0  0  0  0  0
  160.0700  212.7800  156.8560 C   0  0  2  0  0  3  0  0  0  0  0  0
  160.9120  210.7260  155.9820 C   0  0  0  0  0  2  0  0  0  0  0  0
  157.4280  212.2940  155.3810 O   0  0  0  0  0  0  0  0  0  0  0  0
  155.2900  212.1460  157.1480 O   0  0  0  0  0  1  0  0  0  0  0  0
  155.0960  213.3340  154.8280 O   0  0  0  0  0  1  0  0  0  0  0  0
  155.7430  212.1560  155.5180 P   0  0  0  0  0  0  0  0  0  0  0  0
  155.2220  210.7260  154.7790 O   0  0  0  0  0  0  0  0  0  0  0  0
  1  4  2  0  0  0  0
  1  5  1  0  0  0  0
  2  3  1  0  0  0  0
  4  7  1  0  0  0  0
  5  6  1  0  0  0  0
  6 26  1  0  0  0  0
  6  2  2  0  0  0  0
  7  3  2  0  0  0  0
  8 10  1  0  0  0  0
  9 11  1  0  0  0  0
 11  7  1  6  0  0  0
 11 10  1  0  0  0  0
 12 14  1  6  0  0  0
 12  9  1  0  0  0  0
 12  8  1  0  0  0  0
 14 13  1  6  0  0  0
 16 17  1  1  0  0  0
 16 14  1  0  0  0  0
 18 16  1  0  0  0  0
 19 23  1  6  0  0  0
 19 21  1  0  0  0  0
 19 18  1  0  0  0  0
 20 22  1  6  0  0  0
 20 16  1  0  0  0  0
 21 15  1  1  0  0  0
 21 20  1  0  0  0  0
 23 25  1  0  0  0  0
 23 24  1  0  0  0  0
 25 24  1  0  0  0  0
 26 27  2  0  0  0  0
 27 30  1  0  0  0  0
 28 30  2  0  0  0  0
 29 30  2  0  0  0  0
 30 31  1  0  0  0  0
 31 40  1  0  0  0  0
 31 32  1  1  0  0  0
 32 33  2  0  0  0  0
 35 34  1  6  0  0  0
 35 37  1  0  0  0  0
 36 39  1  0  0  0  0
 36 38  1  0  0  0  0
 38 33  1  6  0  0  0
 38 37  1  0  0  0  0
 39 35  1  0  0  0  0
 40 43  1  0  0  0  0
 42 43  1  0  0  0  0
 43 41  1  0  0  0  0
 44 43  2  0  0  0  0
M  END
>  <MODEL>
5

>  <REMARK>
 VINA RESULT:      -4.6      6.790      9.762
  Name = 
  11 active torsions:
  status: ('A' for Active; 'I' for Inactive)
    1  A    between atoms: C_1  and  C_24
    2  A    between atoms: C_2  and  C_38
    3  A    between atoms: C_6  and  C_30
    4  A    between atoms: C_8  and  S_42
    5  A    between atoms: C_11  and  C_41
    6  A    between atoms: C_17  and  C_20
    7  A    between atoms: C_24  and  O_39
    8  A    between atoms: C_24  and  S_42
    9  A    between atoms: P_27  and  O_39
   10  A    between atoms: C_37  and  C_44
   11  A    between atoms: C_41  and  C_43
                            x       y       z     vdW  Elec       q    Type
                         _______ _______ _______ _____ _____    ______ ____

>  <TORSDO>
F 11

$$$$
=
 OpenBabel11072413203D

 44 48  0  0  1  0  0  0  0  0999 V2000
  159.6990  212.3530  146.8000 C   0  0  0  0  0  3  0  0  0  0  0  0
  162.6700  212.1560  147.3280 C   0  0  0  0  0  3  0  0  0  0  0  0
  162.5750  213.0680  146.1750 C   0  0  0  0  0  3  0  0  0  0  0  0
  160.2000  212.7780  145.6810 N   0  0  0  0  0  0  0  0  0  0  0  0
  160.3650  212.5690  148.1160 C   0  0  0  0  0  2  0  0  0  0  0  0
  161.6840  211.8790  148.1900 C   0  0  0  0  0  0  0  0  0  0  0  0
  161.4700  213.4320  145.5030 C   0  0  0  0  0  0  0  0  0  0  0  0
  162.9000  214.3920  141.9740 S   0  0  0  0  0  0  0  0  0  0  0  0
  160.6050  214.2240  143.3030 C   0  0  0  0  0  2  0  0  0  0  0  0
  163.0350  214.4290  143.7900 C   0  0  0  0  0  2  0  0  0  0  0  0
  161.6370  214.4530  144.4050 C   0  0  2  0  0  3  0  0  0  0  0  0
  161.2790  213.5890  142.1000 C   0  0  2  0  0  3  0  0  0  0  0  0
  162.7370  211.7900  142.7290 O   0  0  0  0  0  1  0  0  0  0  0  0
  161.4570  212.0630  142.2350 C   0  0  2  0  0  3  0  0  0  0  0  0
  161.1670  213.0860  138.1460 F   0  0  0  0  0  0  0  0  0  0  0  0
  161.1970  211.2580  140.9430 C   0  0  1  0  0  0  0  0  0  0  0  0
  161.3880  209.9060  141.1770 F   0  0  0  0  0  0  0  0  0  0  0  0
  159.7950  211.4540  140.3970 C   0  0  0  0  0  2  0  0  0  0  0  0
  159.9500  211.1720  138.9230 C   0  0  2  0  0  3  0  0  0  0  0  0
  162.1300  211.7200  139.8140 C   0  0  2  0  0  3  0  0  0  0  0  0
  161.3000  211.7640  138.5380 C   0  0  2  0  0  3  0  0  0  0  0  0
  163.2110  210.8520  139.6570 O   0  0  0  0  0  1  0  0  0  0  0  0
  158.7850  211.7210  138.1140 C   0  0  0  0  0  3  0  0  0  0  0  0
  157.7600  210.8000  138.1090 O   0  0  0  0  0  0  0  0  0  0  0  0
  157.6860  211.8560  138.9330 O   0  0  0  0  0  0  0  0  0  0  0  0
  161.9560  211.1040  149.4100 C   0  0  0  0  0  3  0  0  0  0  0  0
  161.0950  211.0170  150.4200 C   0  0  0  0  0  3  0  0  0  0  0  0
  160.8330  208.6130  151.5450 O   0  0  0  0  0  0  0  0  0  0  0  0
  162.9020  209.8460  151.9720 O   0  0  0  0  0  0  0  0  0  0  0  0
  161.4170  209.9750  151.7960 S   0  0  0  0  0  0  0  0  0  0  0  0
  160.7050  210.7030  153.2730 C   0  0  2  0  0  3  0  0  0  0  0  0
  160.0720  212.0560  153.0460 C   0  0  0  0  0  3  0  0  0  0  0  0
  159.1130  212.6720  153.7630 C   0  0  0  0  0  3  0  0  0  0  0  0
  155.8110  213.8130  156.5480 O   0  0  0  0  0  1  0  0  0  0  0  0
  156.7780  212.8180  156.6850 C   0  0  2  0  0  3  0  0  0  0  0  0
  157.1010  211.4560  154.6970 C   0  0  0  0  0  2  0  0  0  0  0  0
  158.0620  213.2640  156.0030 C   0  0  0  0  0  2  0  0  0  0  0  0
  158.3850  212.1860  154.9880 C   0  0  2  0  0  3  0  0  0  0  0  0
  156.3090  211.5550  155.9820 C   0  0  0  0  0  2  0  0  0  0  0  0
  161.6130  210.7060  154.3340 O   0  0  0  0  0  0  0  0  0  0  0  0
  162.1640  209.3400  156.6900 O   0  0  0  0  0  1  0  0  0  0  0  0
  159.7470  209.4960  155.7060 O   0  0  0  0  0  1  0  0  0  0  0  0
  161.1980  209.3760  155.3010 P   0  0  0  0  0  0  0  0  0  0  0  0
  161.4120  207.9410  154.4280 O   0  0  0  0  0  0  0  0  0  0  0  0
  1  5  1  0  0  0  0
  2  6  2  0  0  0  0
  3  2  1  0  0  0  0
  4  1  2  0  0  0  0
  5  6  1  0  0  0  0
  6 26  1  0  0  0  0
  7  4  1  0  0  0  0
  7  3  2  0  0  0  0
  8 12  1  0  0  0  0
  8 10  1  0  0  0  0
  9 11  1  0  0  0  0
 10 11  1  0  0  0  0
 11  7  1  1  0  0  0
 12 14  1  1  0  0  0
 12  9  1  0  0  0  0
 14 13  1  6  0  0  0
 16 17  1  1  0  0  0
 16 14  1  0  0  0  0
 18 16  1  0  0  0  0
 19 23  1  6  0  0  0
 19 18  1  0  0  0  0
 20 22  1  6  0  0  0
 20 16  1  0  0  0  0
 21 15  1  1  0  0  0
 21 19  1  0  0  0  0
 21 20  1  0  0  0  0
 23 25  1  0  0  0  0
 24 23  1  0  0  0  0
 24 25  1  0  0  0  0
 26 27  2  0  0  0  0
 27 30  1  0  0  0  0
 28 30  2  0  0  0  0
 30 29  2  0  0  0  0
 30 31  1  0  0  0  0
 31 32  1  6  0  0  0
 31 40  1  0  0  0  0
 32 33  2  0  0  0  0
 35 34  1  6  0  0  0
 36 38  1  0  0  0  0
 36 39  1  0  0  0  0
 37 35  1  0  0  0  0
 38 33  1  6  0  0  0
 38 37  1  0  0  0  0
 39 35  1  0  0  0  0
 40 43  1  0  0  0  0
 43 42  1  0  0  0  0
 43 41  1  0  0  0  0
 44 43  2  0  0  0  0
M  END
>  <MODEL>
6

>  <REMARK>
 VINA RESULT:      -4.6      3.256      5.111
  Name = 
  11 active torsions:
  status: ('A' for Active; 'I' for Inactive)
    1  A    between atoms: C_1  and  C_24
    2  A    between atoms: C_2  and  C_38
    3  A    between atoms: C_6  and  C_30
    4  A    between atoms: C_8  and  S_42
    5  A    between atoms: C_11  and  C_41
    6  A    between atoms: C_17  and  C_20
    7  A    between atoms: C_24  and  O_39
    8  A    between atoms: C_24  and  S_42
    9  A    between atoms: P_27  and  O_39
   10  A    between atoms: C_37  and  C_44
   11  A    between atoms: C_41  and  C_43
                            x       y       z     vdW  Elec       q    Type
                         _______ _______ _______ _____ _____    ______ ____

>  <TORSDO>
F 11

$$$$
=
 OpenBabel11072413203D

 44 48  0  0  1  0  0  0  0  0999 V2000
  160.8940  207.4470  149.1220 C   0  0  0  0  0  3  0  0  0  0  0  0
  162.1950  209.4290  151.0000 C   0  0  0  0  0  3  0  0  0  0  0  0
  162.2040  208.1650  151.7570 C   0  0  0  0  0  3  0  0  0  0  0  0
  160.7930  206.8410  150.2650 N   0  0  0  0  0  0  0  0  0  0  0  0
  162.0320  208.3480  148.7850 C   0  0  0  0  0  2  0  0  0  0  0  0
  162.0750  209.5450  149.6720 C   0  0  0  0  0  0  0  0  0  0  0  0
  161.6760  206.9840  151.3940 C   0  0  0  0  0  0  0  0  0  0  0  0
  160.5760  203.4440  152.6860 S   0  0  0  0  0  0  0  0  0  0  0  0
  162.6510  204.6990  151.6000 C   0  0  0  0  0  2  0  0  0  0  0  0
  160.5920  205.2550  152.8800 C   0  0  0  0  0  2  0  0  0  0  0  0
  161.8990  205.8160  152.3210 C   0  0  2  0  0  3  0  0  0  0  0  0
  161.6880  203.5750  151.2600 C   0  0  2  0  0  3  0  0  0  0  0  0
  159.7960  204.6780  150.2800 O   0  0  0  0  0  1  0  0  0  0  0  0
  160.8720  203.8370  149.9790 C   0  0  2  0  0  3  0  0  0  0  0  0
  162.7970  200.6900  147.9190 F   0  0  0  0  0  0  0  0  0  0  0  0
  160.3750  202.5700  149.2500 C   0  0  1  0  0  0  0  0  0  0  0  0
  159.0660  202.2940  149.6110 F   0  0  0  0  0  0  0  0  0  0  0  0
  160.4370  202.6940  147.7390 C   0  0  0  0  0  2  0  0  0  0  0  0
  160.5600  201.2630  147.2740 C   0  0  2  0  0  3  0  0  0  0  0  0
  161.2650  201.3630  149.5850 C   0  0  2  0  0  3  0  0  0  0  0  0
  161.4670  200.5830  148.2920 C   0  0  2  0  0  3  0  0  0  0  0  0
  160.6760  200.5470  150.5520 O   0  0  0  0  0  1  0  0  0  0  0  0
  161.0660  201.1730  145.8430 C   0  0  0  0  0  3  0  0  0  0  0  0
  160.0290  200.8010  145.0150 O   0  0  0  0  0  0  0  0  0  0  0  0
  160.3950  202.0900  145.0640 O   0  0  0  0  0  0  0  0  0  0  0  0
  162.2730  210.8460  149.0160 C   0  0  0  0  0  3  0  0  0  0  0  0
  161.4830  211.2970  148.0460 C   0  0  0  0  0  3  0  0  0  0  0  0
  162.1020  213.8540  148.4850 O   0  0  0  0  0  0  0  0  0  0  0  0
  162.7630  212.8780  146.3410 O   0  0  0  0  0  0  0  0  0  0  0  0
  161.6890  212.9120  147.3890 S   0  0  0  0  0  0  0  0  0  0  0  0
  160.1480  213.4510  146.6430 C   0  0  2  0  0  3  0  0  0  0  0  0
  160.3270  214.4440  145.5190 C   0  0  0  0  0  3  0  0  0  0  0  0
  160.5710  214.2110  144.2150 C   0  0  0  0  0  3  0  0  0  0  0  0
  160.2480  212.3560  140.1630 O   0  0  0  0  0  1  0  0  0  0  0  0
  160.3860  211.7430  141.4080 C   0  0  2  0  0  3  0  0  0  0  0  0
  162.0880  212.7360  142.8320 C   0  0  0  0  0  2  0  0  0  0  0  0
  159.6920  212.5850  142.4670 C   0  0  0  0  0  2  0  0  0  0  0  0
  160.7520  212.8970  143.5050 C   0  0  2  0  0  3  0  0  0  0  0  0
  161.8570  211.6720  141.7800 C   0  0  0  0  0  2  0  0  0  0  0  0
  159.2350  213.8860  147.6060 O   0  0  0  0  0  0  0  0  0  0  0  0
  156.7080  213.0420  148.3930 O   0  0  0  0  0  1  0  0  0  0  0  0
  157.0910  214.4500  146.2230 O   0  0  0  0  0  1  0  0  0  0  0  0
  157.7140  213.3640  147.0700 P   0  0  0  0  0  0  0  0  0  0  0  0
  157.8830  211.9620  146.1360 O   0  0  0  0  0  0  0  0  0  0  0  0
  1  4  2  0  0  0  0
  2  3  1  0  0  0  0
  4  7  1  0  0  0  0
  5  1  1  0  0  0  0
  5  6  1  0  0  0  0
  6  2  2  0  0  0  0
  7  3  2  0  0  0  0
  8 10  1  0  0  0  0
  9 11  1  0  0  0  0
 11  7  1  6  0  0  0
 11 10  1  0  0  0  0
 12 14  1  6  0  0  0
 12  9  1  0  0  0  0
 12  8  1  0  0  0  0
 14 13  1  1  0  0  0
 16 20  1  0  0  0  0
 16 17  1  1  0  0  0
 16 14  1  0  0  0  0
 18 16  1  0  0  0  0
 19 23  1  6  0  0  0
 19 18  1  0  0  0  0
 19 21  1  0  0  0  0
 20 22  1  1  0  0  0
 21 15  1  6  0  0  0
 21 20  1  0  0  0  0
 24 25  1  0  0  0  0
 24 23  1  0  0  0  0
 25 23  1  0  0  0  0
 26  6  1  0  0  0  0
 27 26  2  0  0  0  0
 29 30  2  0  0  0  0
 30 27  1  0  0  0  0
 30 28  2  0  0  0  0
 31 32  1  6  0  0  0
 31 30  1  0  0  0  0
 31 40  1  0  0  0  0
 33 32  2  0  0  0  0
 35 34  1  6  0  0  0
 35 39  1  0  0  0  0
 35 37  1  0  0  0  0
 36 38  1  0  0  0  0
 37 38  1  0  0  0  0
 38 33  1  6  0  0  0
 39 36  1  0  0  0  0
 42 43  1  0  0  0  0
 43 40  1  0  0  0  0
 43 41  1  0  0  0  0
 44 43  2  0  0  0  0
M  END
>  <MODEL>
7

>  <REMARK>
 VINA RESULT:      -4.2      4.466     10.849
  Name = 
  11 active torsions:
  status: ('A' for Active; 'I' for Inactive)
    1  A    between atoms: C_1  and  C_24
    2  A    between atoms: C_2  and  C_38
    3  A    between atoms: C_6  and  C_30
    4  A    between atoms: C_8  and  S_42
    5  A    between atoms: C_11  and  C_41
    6  A    between atoms: C_17  and  C_20
    7  A    between atoms: C_24  and  O_39
    8  A    between atoms: C_24  and  S_42
    9  A    between atoms: P_27  and  O_39
   10  A    between atoms: C_37  and  C_44
   11  A    between atoms: C_41  and  C_43
                            x       y       z     vdW  Elec       q    Type
                         _______ _______ _______ _____ _____    ______ ____

>  <TORSDO>
F 11

$$$$
=
 OpenBabel11072413203D

 44 48  0  0  1  0  0  0  0  0999 V2000
  161.1330  207.2310  151.0610 C   0  0  0  0  0  3  0  0  0  0  0  0
  160.7610  206.9380  154.0480 C   0  0  0  0  0  3  0  0  0  0  0  0
  160.9450  205.5540  153.5760 C   0  0  0  0  0  3  0  0  0  0  0  0
  160.8290  205.9740  151.1720 N   0  0  0  0  0  0  0  0  0  0  0  0
  161.8880  207.9740  152.1090 C   0  0  0  0  0  2  0  0  0  0  0  0
  161.1330  208.0440  153.3920 C   0  0  0  0  0  0  0  0  0  0  0  0
  161.0810  205.1280  152.3100 C   0  0  0  0  0  0  0  0  0  0  0  0
  160.5690  201.8760  150.1700 S   0  0  0  0  0  0  0  0  0  0  0  0
  162.4880  203.4530  151.1120 C   0  0  0  0  0  2  0  0  0  0  0  0
  160.1110  202.9080  151.5990 C   0  0  0  0  0  2  0  0  0  0  0  0
  161.3430  203.6570  152.1030 C   0  0  2  0  0  3  0  0  0  0  0  0
  161.9280  203.0090  149.7730 C   0  0  2  0  0  3  0  0  0  0  0  0
  160.0220  204.2940  149.0840 O   0  0  0  0  0  1  0  0  0  0  0  0
  161.4050  204.1770  148.9130 C   0  0  2  0  0  3  0  0  0  0  0  0
  159.3150  205.0880  145.3550 F   0  0  0  0  0  0  0  0  0  0  0  0
  161.7540  204.0890  147.4110 C   0  0  1  0  0  0  0  0  0  0  0  0
  163.1230  203.9570  147.2460 F   0  0  0  0  0  0  0  0  0  0  0  0
  161.0740  202.9250  146.7130 C   0  0  0  0  0  2  0  0  0  0  0  0
  160.9930  203.3780  145.2750 C   0  0  2  0  0  3  0  0  0  0  0  0
  161.2650  205.3390  146.6620 C   0  0  2  0  0  3  0  0  0  0  0  0
  160.6830  204.8680  145.3370 C   0  0  2  0  0  3  0  0  0  0  0  0
  162.3070  206.2400  146.4380 O   0  0  0  0  0  1  0  0  0  0  0  0
  159.9770  202.5700  144.4830 C   0  0  0  0  0  3  0  0  0  0  0  0
  160.2480  201.2270  144.6290 O   0  0  0  0  0  0  0  0  0  0  0  0
  159.2550  201.7740  145.3460 O   0  0  0  0  0  0  0  0  0  0  0  0
  161.0710  209.3580  154.0500 C   0  0  0  0  0  3  0  0  0  0  0  0
  159.9780  209.8150  154.6530 C   0  0  0  0  0  3  0  0  0  0  0  0
  160.2300  211.0670  156.9940 O   0  0  0  0  0  0  0  0  0  0  0  0
  161.1160  212.1870  155.0080 O   0  0  0  0  0  0  0  0  0  0  0  0
  159.9980  211.3340  155.5330 S   0  0  0  0  0  0  0  0  0  0  0  0
  158.4370  212.1840  155.2880 C   0  0  2  0  0  3  0  0  0  0  0  0
  158.5830  213.5930  154.7620 C   0  0  0  0  0  3  0  0  0  0  0  0
  158.6450  214.0160  153.4850 C   0  0  0  0  0  3  0  0  0  0  0  0
  158.0090  214.4530  149.0840 O   0  0  0  0  0  1  0  0  0  0  0  0
  158.0450  213.2960  149.8610 C   0  0  2  0  0  3  0  0  0  0  0  0
  159.8930  213.2080  151.4390 C   0  0  0  0  0  2  0  0  0  0  0  0
  157.5040  213.6010  151.2490 C   0  0  0  0  0  2  0  0  0  0  0  0
  158.6040  213.2080  152.2150 C   0  0  2  0  0  3  0  0  0  0  0  0
  159.4860  212.8430  150.0280 C   0  0  0  0  0  2  0  0  0  0  0  0
  157.6300  212.1160  156.4270 O   0  0  0  0  0  0  0  0  0  0  0  0
  155.9890  211.1560  154.4010 O   0  0  0  0  0  0  0  0  0  0  0  0
  155.1890  211.3040  156.8860 O   0  0  0  0  0  1  0  0  0  0  0  0
  156.0360  212.0170  155.8570 P   0  0  0  0  0  0  0  0  0  0  0  0
  155.4150  213.5730  155.6130 O   0  0  0  0  0  1  0  0  0  0  0  0
  1  4  2  0  0  0  0
  1  5  1  0  0  0  0
  3  2  1  0  0  0  0
  4  7  1  0  0  0  0
  5  6  1  0  0  0  0
  6  2  2  0  0  0  0
  6 26  1  0  0  0  0
  7  3  2  0  0  0  0
  8 10  1  0  0  0  0
  9 11  1  0  0  0  0
 10 11  1  0  0  0  0
 11  7  1  6  0  0  0
 12 14  1  1  0  0  0
 12  8  1  0  0  0  0
 12  9  1  0  0  0  0
 14 13  1  6  0  0  0
 16 17  1  6  0  0  0
 16 14  1  0  0  0  0
 18 16  1  0  0  0  0
 19 23  1  6  0  0  0
 19 21  1  0  0  0  0
 19 18  1  0  0  0  0
 20 22  1  6  0  0  0
 20 16  1  0  0  0  0
 21 15  1  1  0  0  0
 21 20  1  0  0  0  0
 23 24  1  0  0  0  0
 23 25  1  0  0  0  0
 24 25  1  0  0  0  0
 26 27  2  0  0  0  0
 27 30  1  0  0  0  0
 29 30  2  0  0  0  0
 30 28  2  0  0  0  0
 31 32  1  1  0  0  0
 31 30  1  0  0  0  0
 31 40  1  0  0  0  0
 33 32  2  0  0  0  0
 35 34  1  6  0  0  0
 35 39  1  0  0  0  0
 35 37  1  0  0  0  0
 36 38  1  0  0  0  0
 37 38  1  0  0  0  0
 38 33  1  1  0  0  0
 39 36  1  0  0  0  0
 41 43  2  0  0  0  0
 43 40  1  0  0  0  0
 43 42  1  0  0  0  0
 44 43  1  0  0  0  0
M  END
>  <MODEL>
8

>  <REMARK>
 VINA RESULT:      -3.4      6.750     10.032
  Name = 
  11 active torsions:
  status: ('A' for Active; 'I' for Inactive)
    1  A    between atoms: C_1  and  C_24
    2  A    between atoms: C_2  and  C_38
    3  A    between atoms: C_6  and  C_30
    4  A    between atoms: C_8  and  S_42
    5  A    between atoms: C_11  and  C_41
    6  A    between atoms: C_17  and  C_20
    7  A    between atoms: C_24  and  O_39
    8  A    between atoms: C_24  and  S_42
    9  A    between atoms: P_27  and  O_39
   10  A    between atoms: C_37  and  C_44
   11  A    between atoms: C_41  and  C_43
                            x       y       z     vdW  Elec       q    Type
                         _______ _______ _______ _____ _____    ______ ____

>  <TORSDO>
F 11

$$$$
=
 OpenBabel11072413203D

 44 48  0  0  1  0  0  0  0  0999 V2000
  160.8020  206.7120  153.8640 C   0  0  0  0  0  3  0  0  0  0  0  0
  161.1080  206.2940  150.8840 C   0  0  0  0  0  3  0  0  0  0  0  0
  161.5040  207.6980  151.0870 C   0  0  0  0  0  3  0  0  0  0  0  0
  160.8200  207.9320  153.4210 N   0  0  0  0  0  0  0  0  0  0  0  0
  161.5620  205.6070  153.2140 C   0  0  0  0  0  2  0  0  0  0  0  0
  161.0810  205.3440  151.8270 C   0  0  0  0  0  0  0  0  0  0  0  0
  161.4790  208.4030  152.2300 C   0  0  0  0  0  0  0  0  0  0  0  0
  160.8330  212.2610  151.8910 S   0  0  0  0  0  0  0  0  0  0  0  0
  161.8910  210.4770  153.5510 C   0  0  0  0  0  2  0  0  0  0  0  0
  161.3180  210.6740  151.1390 C   0  0  0  0  0  2  0  0  0  0  0  0
  162.0210  209.8100  152.1840 C   0  0  2  0  0  3  0  0  0  0  0  0
  160.7470  211.4750  153.5220 C   0  0  2  0  0  3  0  0  0  0  0  0
  158.8020  210.5420  152.4700 O   0  0  0  0  0  1  0  0  0  0  0  0
  159.3630  210.8230  153.7200 C   0  0  2  0  0  3  0  0  0  0  0  0
  155.2150  210.5540  154.4730 F   0  0  0  0  0  0  0  0  0  0  0  0
  158.3740  211.6390  154.5810 C   0  0  1  0  0  0  0  0  0  0  0  0
  159.0660  212.4210  155.4920 F   0  0  0  0  0  0  0  0  0  0  0  0
  157.4810  212.5460  153.7550 C   0  0  0  0  0  2  0  0  0  0  0  0
  156.2540  212.7100  154.6190 C   0  0  2  0  0  3  0  0  0  0  0  0
  157.4090  210.7090  155.3320 C   0  0  2  0  0  3  0  0  0  0  0  0
  156.0290  211.3490  155.2650 C   0  0  2  0  0  3  0  0  0  0  0  0
  157.7960  210.5370  156.6610 O   0  0  0  0  0  1  0  0  0  0  0  0
  155.0620  213.2170  153.8220 C   0  0  0  0  0  3  0  0  0  0  0  0
  154.6860  214.4530  154.3010 O   0  0  0  0  0  0  0  0  0  0  0  0
  155.4110  214.3830  153.1750 O   0  0  0  0  0  0  0  0  0  0  0  0
  160.8540  203.9370  151.4630 C   0  0  0  0  0  3  0  0  0  0  0  0
  160.6200  203.5400  150.2160 C   0  0  0  0  0  3  0  0  0  0  0  0
  161.3460  201.0300  150.7520 O   0  0  0  0  0  0  0  0  0  0  0  0
  159.0540  201.4090  149.9850 O   0  0  0  0  0  0  0  0  0  0  0  0
  160.4840  201.8350  149.8200 S   0  0  0  0  0  0  0  0  0  0  0  0
  160.9880  201.5780  148.1170 C   0  0  2  0  0  3  0  0  0  0  0  0
  162.2280  202.3450  147.7230 C   0  0  0  0  0  3  0  0  0  0  0  0
  162.3300  203.5980  147.2400 C   0  0  0  0  0  3  0  0  0  0  0  0
  161.3830  207.9520  147.5600 O   0  0  0  0  0  1  0  0  0  0  0  0
  160.5350  206.8820  147.2800 C   0  0  2  0  0  3  0  0  0  0  0  0
  161.4060  205.3190  145.6340 C   0  0  0  0  0  2  0  0  0  0  0  0
  161.0260  205.6420  148.0110 C   0  0  0  0  0  2  0  0  0  0  0  0
  161.2390  204.5900  146.9400 C   0  0  2  0  0  3  0  0  0  0  0  0
  160.5780  206.5750  145.7920 C   0  0  0  0  0  2  0  0  0  0  0  0
  159.9260  201.7790  147.2310 O   0  0  0  0  0  0  0  0  0  0  0  0
  158.9540  200.5060  144.9610 O   0  0  0  0  0  1  0  0  0  0  0  0
  161.1900  201.8600  144.9450 O   0  0  0  0  0  0  0  0  0  0  0  0
  160.3480  200.9530  145.8110 P   0  0  0  0  0  0  0  0  0  0  0  0
  161.2420  199.5680  146.1960 O   0  0  0  0  0  1  0  0  0  0  0  0
  2  3  1  0  0  0  0
  2  6  2  0  0  0  0
  3  7  2  0  0  0  0
  4  1  2  0  0  0  0
  5  1  1  0  0  0  0
  6  5  1  0  0  0  0
  7  4  1  0  0  0  0
  8 12  1  0  0  0  0
 10  8  1  0  0  0  0
 10 11  1  0  0  0  0
 11  7  1  1  0  0  0
 11  9  1  0  0  0  0
 12  9  1  0  0  0  0
 12 14  1  6  0  0  0
 14 13  1  6  0  0  0
 14 16  1  0  0  0  0
 16 20  1  0  0  0  0
 16 17  1  1  0  0  0
 18 16  1  0  0  0  0
 18 19  1  0  0  0  0
 19 23  1  6  0  0  0
 19 21  1  0  0  0  0
 20 22  1  1  0  0  0
 21 15  1  6  0  0  0
 21 20  1  0  0  0  0
 23 24  1  0  0  0  0
 25 23  1  0  0  0  0
 25 24  1  0  0  0  0
 26  6  1  0  0  0  0
 27 26  2  0  0  0  0
 30 29  2  0  0  0  0
 30 27  1  0  0  0  0
 30 28  2  0  0  0  0
 31 32  1  6  0  0  0
 31 30  1  0  0  0  0
 33 32  2  0  0  0  0
 35 34  1  6  0  0  0
 35 37  1  0  0  0  0
 36 39  1  0  0  0  0
 36 38  1  0  0  0  0
 38 33  1  1  0  0  0
 38 37  1  0  0  0  0
 39 35  1  0  0  0  0
 40 31  1  0  0  0  0
 41 43  1  0  0  0  0
 42 43  2  0  0  0  0
 43 44  1  0  0  0  0
 43 40  1  0  0  0  0
M  END
>  <MODEL>
9

>  <REMARK>
 VINA RESULT:      -3.4      7.054     10.640
  Name = 
  11 active torsions:
  status: ('A' for Active; 'I' for Inactive)
    1  A    between atoms: C_1  and  C_24
    2  A    between atoms: C_2  and  C_38
    3  A    between atoms: C_6  and  C_30
    4  A    between atoms: C_8  and  S_42
    5  A    between atoms: C_11  and  C_41
    6  A    between atoms: C_17  and  C_20
    7  A    between atoms: C_24  and  O_39
    8  A    between atoms: C_24  and  S_42
    9  A    between atoms: P_27  and  O_39
   10  A    between atoms: C_37  and  C_44
   11  A    between atoms: C_41  and  C_43
                            x       y       z     vdW  Elec       q    Type
                         _______ _______ _______ _____ _____    ______ ____

>  <TORSDO>
F 11

$$$$
