=
 OpenBabel11072414263D

 47 51  0  0  1  0  0  0  0  0999 V2000
  161.0780  208.3830  152.9390 N   0  0  0  0  0  0  0  0  0  0  0  0
  159.9940  206.9020  155.7920 N   0  0  0  0  0  2  0  0  0  0  0  0
  160.7660  208.2800  154.2410 C   0  0  0  0  0  0  0  0  0  0  0  0
  159.7980  208.1560  156.2190 N   0  0  0  0  0  0  0  0  0  0  0  0
  160.6000  207.0200  154.5990 C   0  0  0  0  0  0  0  0  0  0  0  0
  160.2580  209.0280  155.2830 C   0  0  0  0  0  0  0  0  0  0  0  0
  160.8250  206.1620  153.5480 C   0  0  0  0  0  3  0  0  0  0  0  0
  161.1480  207.0770  152.5250 C   0  0  0  0  0  0  0  0  0  0  0  0
  161.5180  206.6540  151.1350 C   0  0  0  0  0  0  0  0  0  0  0  0
  162.4560  207.5420  150.3430 C   0  0  0  0  0  2  0  0  0  0  0  0
  160.9620  207.5640  150.0610 C   0  0  0  0  0  2  0  0  0  0  0  0
  162.3050  204.3950  151.2410 O   0  0  0  0  0  0  0  0  0  0  0  0
  161.4550  205.2060  150.7760 C   0  0  0  0  0  0  0  0  0  0  0  0
  160.4670  204.7740  149.8840 O   0  0  0  0  0  0  0  0  0  0  0  0
  160.7750  204.1900  148.6180 C   0  0  2  0  0  3  0  0  0  0  0  0
  161.1260  202.7020  148.8220 C   0  0  1  0  0  3  0  0  0  0  0  0
  158.9790  201.5250  149.3700 O   0  0  0  0  0  0  0  0  0  0  0  0
  160.6180  201.7110  150.9690 O   0  0  0  0  0  1  0  0  0  0  0  0
  160.2360  201.9560  149.7880 C   0  0  0  0  0  0  0  0  0  0  0  0
  161.3390  201.9940  147.6170 O   0  0  0  0  0  0  0  0  0  0  0  0
  161.5590  200.6380  147.9180 C   0  0  0  0  0  2  0  0  0  0  0  0
  161.5040  199.8930  146.7360 O   0  0  0  0  0  1  0  0  0  0  0  0
  161.9560  204.9340  148.0020 C   0  0  0  0  0  2  0  0  0  0  0  0
  161.5050  205.9460  147.1580 O   0  0  0  0  0  0  0  0  0  0  0  0
  162.5560  204.1210  145.3500 O   0  0  0  0  0  0  0  0  0  0  0  0
  161.6260  205.2860  145.6070 P   0  0  0  0  0  0  0  0  0  0  0  0
  160.7970  205.8540  144.4760 O   0  0  0  0  0  0  0  0  0  0  0  0
  160.1180  210.4440  155.4050 N   0  0  0  0  0  2  0  0  0  0  0  0
  159.4700  211.0880  156.5360 C   0  0  0  0  0  2  0  0  0  0  0  0
  157.1550  210.9610  155.5830 C   0  0  0  0  0  3  0  0  0  0  0  0
  155.9580  211.5680  155.1880 C   0  0  0  0  0  3  0  0  0  0  0  0
  156.8580  213.7290  155.8180 C   0  0  0  0  0  3  0  0  0  0  0  0
  158.2010  211.7380  156.1000 C   0  0  0  0  0  0  0  0  0  0  0  0
  155.8100  212.9510  155.3090 C   0  0  0  0  0  3  0  0  0  0  0  0
  158.0540  213.1240  156.2130 C   0  0  0  0  0  3  0  0  0  0  0  0
  161.1630  209.5590  152.0730 C   0  0  2  0  0  3  0  0  0  0  0  0
  162.6710  210.6050  153.6060 O   0  0  0  0  0  1  0  0  0  0  0  0
  162.4890  210.2830  152.2590 C   0  0  0  0  0  2  0  0  0  0  0  0
  159.9430  210.4700  152.2630 C   0  0  0  0  0  2  0  0  0  0  0  0
  158.8150  213.3860  150.5210 N   0  0  0  0  0  2  0  0  0  0  0  0
  160.2160  211.9560  152.0040 C   0  0  2  0  0  3  0  0  0  0  0  0
  158.9450  212.7300  151.7700 C   0  0  0  0  0  0  0  0  0  0  0  0
  161.1660  212.1720  150.8110 C   0  0  0  0  0  2  0  0  0  0  0  0
  160.9490  214.4530  149.3480 O   0  0  0  0  0  0  0  0  0  0  0  0
  160.2620  213.1450  149.6330 S   0  0  0  0  0  0  0  0  0  0  0  0
  158.0390  212.8000  152.6430 O   0  0  0  0  0  0  0  0  0  0  0  0
  160.0030  212.3750  148.3630 O   0  0  0  0  0  0  0  0  0  0  0  0
  1  3  1  0  0  0  0
  2  4  1  0  0  0  0
  3  5  2  0  0  0  0
  3  6  1  0  0  0  0
  5  2  1  0  0  0  0
  6 28  1  0  0  0  0
  6  4  2  0  0  0  0
  7  5  1  0  0  0  0
  8  1  1  0  0  0  0
  8  7  2  0  0  0  0
  9  8  1  0  0  0  0
 10  9  1  0  0  0  0
 11 10  1  0  0  0  0
 11  9  1  0  0  0  0
 13  9  1  0  0  0  0
 13 12  2  0  0  0  0
 14 13  1  0  0  0  0
 15 23  1  1  0  0  0
 15 16  1  0  0  0  0
 15 14  1  0  0  0  0
 16 20  1  6  0  0  0
 16 19  1  0  0  0  0
 17 19  2  0  0  0  0
 19 18  1  0  0  0  0
 20 21  1  0  0  0  0
 22 21  1  0  0  0  0
 24 23  1  0  0  0  0
 25 26  2  0  0  0  0
 26 24  1  0  0  0  0
 27 26  2  0  0  0  0
 28 29  1  0  0  0  0
 30 33  1  0  0  0  0
 31 34  1  0  0  0  0
 31 30  2  0  0  0  0
 32 35  1  0  0  0  0
 33 35  2  0  0  0  0
 33 29  1  0  0  0  0
 34 32  2  0  0  0  0
 36 38  1  1  0  0  0
 36 39  1  0  0  0  0
 36  1  1  0  0  0  0
 38 37  1  0  0  0  0
 40 42  1  0  0  0  0
 41 39  1  6  0  0  0
 42 41  1  0  0  0  0
 42 46  2  0  0  0  0
 43 41  1  0  0  0  0
 44 45  2  0  0  0  0
 45 40  1  0  0  0  0
 45 43  1  0  0  0  0
 47 45  2  0  0  0  0
M  END
>  <MODEL>
1

>  <REMARK>
 VINA RESULT:      -6.0      0.000      0.000
  Name = 
  18 active torsions:
  status: ('A' for Active; 'I' for Inactive)
    1  A    between atoms: C_2  and  N_3
    2  A    between atoms: C_2  and  C_38
    3  A    between atoms: C_2  and  C_42
    4  A    between atoms: C_4  and  C_42
    5  A    between atoms: C_6  and  C_32
    6  A    between atoms: C_6  and  N_37
    7  A    between atoms: C_13  and  O_33
    8  A    between atoms: O_14  and  C_17
    9  A    between atoms: O_14  and  C_44
   10  A    between atoms: C_17  and  C_23
   11  A    between atoms: O_19  and  P_22
   12  A    between atoms: O_19  and  C_34
   13  A    between atoms: C_23  and  C_35
   14  A    between atoms: C_26  and  N_37
   15  A    between atoms: C_27  and  C_45
   16  A    between atoms: O_33  and  C_45
   17  A    between atoms: C_34  and  C_44
   18  A    between atoms: C_44  and  C_45
                            x       y       z     vdW  Elec       q    Type
                         _______ _______ _______ _____ _____    ______ ____

>  <TORSDO>
F 18

$$$$
=
 OpenBabel11072414263D

 47 51  0  0  1  0  0  0  0  0999 V2000
  161.0710  208.4090  153.3850 N   0  0  0  0  0  0  0  0  0  0  0  0
  159.8110  206.9060  156.1520 N   0  0  0  0  0  2  0  0  0  0  0  0
  160.6990  208.2880  154.6690 C   0  0  0  0  0  0  0  0  0  0  0  0
  159.6420  208.1560  156.6000 N   0  0  0  0  0  0  0  0  0  0  0  0
  160.4730  207.0280  154.9890 C   0  0  0  0  0  0  0  0  0  0  0  0
  160.1730  209.0320  155.7060 C   0  0  0  0  0  0  0  0  0  0  0  0
  160.7120  206.1850  153.9290 C   0  0  0  0  0  3  0  0  0  0  0  0
  161.1110  207.1110  152.9430 C   0  0  0  0  0  0  0  0  0  0  0  0
  161.5260  206.7060  151.5600 C   0  0  0  0  0  0  0  0  0  0  0  0
  162.6230  207.5000  150.8800 C   0  0  0  0  0  2  0  0  0  0  0  0
  161.1680  207.7260  150.5010 C   0  0  0  0  0  2  0  0  0  0  0  0
  161.6210  204.3350  151.8820 O   0  0  0  0  0  0  0  0  0  0  0  0
  161.3090  205.2950  151.1210 C   0  0  0  0  0  0  0  0  0  0  0  0
  160.7980  205.0570  149.8410 O   0  0  0  0  0  0  0  0  0  0  0  0
  161.3630  204.0900  148.9550 C   0  0  2  0  0  3  0  0  0  0  0  0
  161.4880  204.7100  147.5480 C   0  0  1  0  0  3  0  0  0  0  0  0
  162.3210  207.0770  147.5220 O   0  0  0  0  0  1  0  0  0  0  0  0
  160.0680  206.6600  147.3660 O   0  0  0  0  0  0  0  0  0  0  0  0
  161.2410  206.1990  147.4750 C   0  0  0  0  0  0  0  0  0  0  0  0
  162.6530  204.3160  146.8510 O   0  0  0  0  0  0  0  0  0  0  0  0
  162.3040  203.9800  145.5320 C   0  0  0  0  0  2  0  0  0  0  0  0
  161.9730  205.1460  144.8340 O   0  0  0  0  0  1  0  0  0  0  0  0
  160.4560  202.8640  148.9150 C   0  0  0  0  0  2  0  0  0  0  0  0
  161.2100  201.6980  149.0310 O   0  0  0  0  0  0  0  0  0  0  0  0
  160.2700  201.6140  146.4220 O   0  0  0  0  0  0  0  0  0  0  0  0
  161.0650  200.9500  147.5230 P   0  0  0  0  0  0  0  0  0  0  0  0
  161.7400  199.6200  147.2720 O   0  0  0  0  0  0  0  0  0  0  0  0
  160.0790  210.4490  155.8560 N   0  0  0  0  0  2  0  0  0  0  0  0
  159.4670  211.0910  157.0080 C   0  0  0  0  0  2  0  0  0  0  0  0
  157.1460  211.1020  156.0590 C   0  0  0  0  0  3  0  0  0  0  0  0
  155.9780  211.7760  155.6880 C   0  0  0  0  0  3  0  0  0  0  0  0
  156.9800  213.8730  156.3800 C   0  0  0  0  0  3  0  0  0  0  0  0
  158.2290  211.8120  156.5960 C   0  0  0  0  0  0  0  0  0  0  0  0
  155.8960  213.1600  155.8510 C   0  0  0  0  0  3  0  0  0  0  0  0
  158.1480  213.2000  156.7520 C   0  0  0  0  0  3  0  0  0  0  0  0
  161.2350  209.6000  152.5510 C   0  0  2  0  0  3  0  0  0  0  0  0
  163.4510  210.3860  152.1110 O   0  0  0  0  0  1  0  0  0  0  0  0
  162.4030  210.4490  153.0330 C   0  0  0  0  0  2  0  0  0  0  0  0
  159.9200  210.3830  152.4460 C   0  0  0  0  0  2  0  0  0  0  0  0
  158.4910  213.2520  150.8540 N   0  0  0  0  0  2  0  0  0  0  0  0
  160.0940  211.8830  152.1810 C   0  0  2  0  0  3  0  0  0  0  0  0
  158.7710  212.5940  152.0770 C   0  0  0  0  0  0  0  0  0  0  0  0
  160.9150  212.1540  150.9060 C   0  0  0  0  0  2  0  0  0  0  0  0
  160.4500  214.4320  149.4980 O   0  0  0  0  0  0  0  0  0  0  0  0
  159.8570  213.0890  149.8300 S   0  0  0  0  0  0  0  0  0  0  0  0
  157.9490  212.6130  153.0330 O   0  0  0  0  0  0  0  0  0  0  0  0
  159.5160  212.3170  148.5820 O   0  0  0  0  0  0  0  0  0  0  0  0
  1  3  1  0  0  0  0
  2  4  1  0  0  0  0
  3  5  2  0  0  0  0
  3  6  1  0  0  0  0
  5  2  1  0  0  0  0
  6 28  1  0  0  0  0
  6  4  2  0  0  0  0
  7  5  1  0  0  0  0
  8  1  1  0  0  0  0
  8  7  2  0  0  0  0
  9  8  1  0  0  0  0
 10  9  1  0  0  0  0
 11 10  1  0  0  0  0
 11  9  1  0  0  0  0
 13  9  1  0  0  0  0
 13 12  2  0  0  0  0
 14 13  1  0  0  0  0
 15 23  1  6  0  0  0
 15 14  1  0  0  0  0
 16 20  1  1  0  0  0
 16 15  1  0  0  0  0
 18 19  2  0  0  0  0
 19 17  1  0  0  0  0
 19 16  1  0  0  0  0
 21 20  1  0  0  0  0
 22 21  1  0  0  0  0
 23 24  1  0  0  0  0
 25 26  2  0  0  0  0
 26 24  1  0  0  0  0
 27 26  2  0  0  0  0
 28 29  1  0  0  0  0
 30 33  1  0  0  0  0
 31 34  1  0  0  0  0
 31 30  2  0  0  0  0
 32 35  1  0  0  0  0
 33 35  2  0  0  0  0
 33 29  1  0  0  0  0
 34 32  2  0  0  0  0
 36 39  1  1  0  0  0
 36 38  1  0  0  0  0
 36  1  1  0  0  0  0
 37 38  1  0  0  0  0
 40 42  1  0  0  0  0
 41 39  1  6  0  0  0
 42 41  1  0  0  0  0
 42 46  2  0  0  0  0
 43 41  1  0  0  0  0
 44 45  2  0  0  0  0
 45 40  1  0  0  0  0
 45 43  1  0  0  0  0
 47 45  2  0  0  0  0
M  END
>  <MODEL>
2

>  <REMARK>
 VINA RESULT:      -5.9      1.143      2.498
  Name = 
  18 active torsions:
  status: ('A' for Active; 'I' for Inactive)
    1  A    between atoms: C_2  and  N_3
    2  A    between atoms: C_2  and  C_38
    3  A    between atoms: C_2  and  C_42
    4  A    between atoms: C_4  and  C_42
    5  A    between atoms: C_6  and  C_32
    6  A    between atoms: C_6  and  N_37
    7  A    between atoms: C_13  and  O_33
    8  A    between atoms: O_14  and  C_17
    9  A    between atoms: O_14  and  C_44
   10  A    between atoms: C_17  and  C_23
   11  A    between atoms: O_19  and  P_22
   12  A    between atoms: O_19  and  C_34
   13  A    between atoms: C_23  and  C_35
   14  A    between atoms: C_26  and  N_37
   15  A    between atoms: C_27  and  C_45
   16  A    between atoms: O_33  and  C_45
   17  A    between atoms: C_34  and  C_44
   18  A    between atoms: C_44  and  C_45
                            x       y       z     vdW  Elec       q    Type
                         _______ _______ _______ _____ _____    ______ ____

>  <TORSDO>
F 18

$$$$
=
 OpenBabel11072414263D

 47 51  0  0  1  0  0  0  0  0999 V2000
  161.4320  208.7580  151.9090 N   0  0  0  0  0  0  0  0  0  0  0  0
  162.0960  210.8750  149.3440 N   0  0  0  0  0  2  0  0  0  0  0  0
  161.8510  209.1370  150.6910 C   0  0  0  0  0  0  0  0  0  0  0  0
  162.0650  209.7700  148.5890 N   0  0  0  0  0  0  0  0  0  0  0  0
  161.9830  210.4470  150.6120 C   0  0  0  0  0  0  0  0  0  0  0  0
  161.9090  208.6820  149.3900 C   0  0  0  0  0  0  0  0  0  0  0  0
  161.6870  211.0590  151.8080 C   0  0  0  0  0  3  0  0  0  0  0  0
  161.3650  209.9390  152.6030 C   0  0  0  0  0  0  0  0  0  0  0  0
  160.9860  210.0450  154.0500 C   0  0  0  0  0  0  0  0  0  0  0  0
  161.9870  210.6580  155.0090 C   0  0  0  0  0  2  0  0  0  0  0  0
  161.8060  209.1500  154.9540 C   0  0  0  0  0  2  0  0  0  0  0  0
  159.0940  209.3660  155.3500 O   0  0  0  0  0  0  0  0  0  0  0  0
  159.5410  210.0960  154.4200 C   0  0  0  0  0  0  0  0  0  0  0  0
  158.6860  210.9300  153.6920 O   0  0  0  0  0  0  0  0  0  0  0  0
  158.4590  212.2950  154.0440 C   0  0  2  0  0  3  0  0  0  0  0  0
  156.9680  212.4860  154.3890 C   0  0  1  0  0  3  0  0  0  0  0  0
  155.5430  210.5220  155.0320 O   0  0  0  0  0  0  0  0  0  0  0  0
  156.7480  211.6330  156.6420 O   0  0  0  0  0  1  0  0  0  0  0  0
  156.4190  211.5320  155.4240 C   0  0  0  0  0  0  0  0  0  0  0  0
  156.6050  213.8290  154.6380 O   0  0  0  0  0  0  0  0  0  0  0  0
  155.2400  213.9940  154.3470 C   0  0  0  0  0  2  0  0  0  0  0  0
  154.9680  213.4360  153.0930 O   0  0  0  0  0  1  0  0  0  0  0  0
  158.8480  213.1830  152.8660 C   0  0  0  0  0  2  0  0  0  0  0  0
  158.5290  212.5600  151.6610 O   0  0  0  0  0  0  0  0  0  0  0  0
  157.8070  214.4470  149.7590 O   0  0  0  0  0  0  0  0  0  0  0  0
  158.9110  213.7050  150.4790 P   0  0  0  0  0  0  0  0  0  0  0  0
  160.3580  213.9960  150.1490 O   0  0  0  0  0  0  0  0  0  0  0  0
  161.7560  207.3570  148.8790 N   0  0  0  0  0  2  0  0  0  0  0  0
  160.6700  206.9620  147.9970 C   0  0  0  0  0  2  0  0  0  0  0  0
  162.4070  205.5020  146.9300 C   0  0  0  0  0  3  0  0  0  0  0  0
  162.9040  204.7920  145.8330 C   0  0  0  0  0  3  0  0  0  0  0  0
  161.0060  205.5250  144.5130 C   0  0  0  0  0  3  0  0  0  0  0  0
  161.2070  206.2190  146.8210 C   0  0  0  0  0  0  0  0  0  0  0  0
  162.2010  204.8020  144.6270 C   0  0  0  0  0  3  0  0  0  0  0  0
  160.5080  206.2340  145.6100 C   0  0  0  0  0  3  0  0  0  0  0  0
  160.9720  207.4570  152.3940 C   0  0  2  0  0  3  0  0  0  0  0  0
  160.3420  206.5610  154.5210 O   0  0  0  0  0  1  0  0  0  0  0  0
  161.3590  207.2460  153.8510 C   0  0  0  0  0  2  0  0  0  0  0  0
  161.4470  206.3270  151.4720 C   0  0  0  0  0  2  0  0  0  0  0  0
  161.2450  202.7550  151.3960 N   0  0  0  0  0  2  0  0  0  0  0  0
  160.4930  205.1300  151.3910 C   0  0  2  0  0  3  0  0  0  0  0  0
  161.0210  203.9370  152.1440 C   0  0  0  0  0  0  0  0  0  0  0  0
  160.2010  204.7200  149.9350 C   0  0  0  0  0  2  0  0  0  0  0  0
  159.6210  202.1210  149.3890 O   0  0  0  0  0  0  0  0  0  0  0  0
  160.7480  203.0380  149.7790 S   0  0  0  0  0  0  0  0  0  0  0  0
  161.2490  203.9800  153.3830 O   0  0  0  0  0  0  0  0  0  0  0  0
  161.9060  202.9200  148.8220 O   0  0  0  0  0  0  0  0  0  0  0  0
  1 36  1  0  0  0  0
  1  8  1  0  0  0  0
  2  5  1  0  0  0  0
  3  1  1  0  0  0  0
  4  2  1  0  0  0  0
  4  6  2  0  0  0  0
  5  3  2  0  0  0  0
  5  7  1  0  0  0  0
  6  3  1  0  0  0  0
  7  8  2  0  0  0  0
  8  9  1  0  0  0  0
  9 13  1  0  0  0  0
  9 11  1  0  0  0  0
  9 10  1  0  0  0  0
 11 10  1  0  0  0  0
 13 12  2  0  0  0  0
 14 15  1  0  0  0  0
 14 13  1  0  0  0  0
 15 23  1  6  0  0  0
 15 16  1  0  0  0  0
 16 20  1  1  0  0  0
 16 19  1  0  0  0  0
 17 19  2  0  0  0  0
 19 18  1  0  0  0  0
 21 20  1  0  0  0  0
 22 21  1  0  0  0  0
 24 23  1  0  0  0  0
 25 26  2  0  0  0  0
 26 24  1  0  0  0  0
 27 26  2  0  0  0  0
 28  6  1  0  0  0  0
 29 28  1  0  0  0  0
 31 30  2  0  0  0  0
 32 34  2  0  0  0  0
 32 35  1  0  0  0  0
 33 30  1  0  0  0  0
 33 29  1  0  0  0  0
 34 31  1  0  0  0  0
 35 33  2  0  0  0  0
 36 39  1  6  0  0  0
 36 38  1  0  0  0  0
 38 37  1  0  0  0  0
 40 42  1  0  0  0  0
 41 39  1  6  0  0  0
 41 42  1  0  0  0  0
 42 46  2  0  0  0  0
 43 41  1  0  0  0  0
 44 45  2  0  0  0  0
 45 43  1  0  0  0  0
 45 40  1  0  0  0  0
 47 45  2  0  0  0  0
M  END
>  <MODEL>
3

>  <REMARK>
 VINA RESULT:      -5.5      3.289      9.651
  Name = 
  18 active torsions:
  status: ('A' for Active; 'I' for Inactive)
    1  A    between atoms: C_2  and  N_3
    2  A    between atoms: C_2  and  C_38
    3  A    between atoms: C_2  and  C_42
    4  A    between atoms: C_4  and  C_42
    5  A    between atoms: C_6  and  C_32
    6  A    between atoms: C_6  and  N_37
    7  A    between atoms: C_13  and  O_33
    8  A    between atoms: O_14  and  C_17
    9  A    between atoms: O_14  and  C_44
   10  A    between atoms: C_17  and  C_23
   11  A    between atoms: O_19  and  P_22
   12  A    between atoms: O_19  and  C_34
   13  A    between atoms: C_23  and  C_35
   14  A    between atoms: C_26  and  N_37
   15  A    between atoms: C_27  and  C_45
   16  A    between atoms: O_33  and  C_45
   17  A    between atoms: C_34  and  C_44
   18  A    between atoms: C_44  and  C_45
                            x       y       z     vdW  Elec       q    Type
                         _______ _______ _______ _____ _____    ______ ____

>  <TORSDO>
F 18

$$$$
=
 OpenBabel11072414263D

 47 51  0  0  1  0  0  0  0  0999 V2000
  160.6110  210.3290  151.8830 N   0  0  0  0  0  0  0  0  0  0  0  0
  162.6410  210.7010  149.1910 N   0  0  0  0  0  2  0  0  0  0  0  0
  161.0640  210.8600  150.7360 C   0  0  0  0  0  0  0  0  0  0  0  0
  162.1370  211.9400  149.1400 N   0  0  0  0  0  0  0  0  0  0  0  0
  161.9510  210.0730  150.1570 C   0  0  0  0  0  0  0  0  0  0  0  0
  161.1670  212.0720  150.0840 C   0  0  0  0  0  0  0  0  0  0  0  0
  162.1410  208.9130  150.8720 C   0  0  0  0  0  3  0  0  0  0  0  0
  161.2500  209.1170  151.9460 C   0  0  0  0  0  0  0  0  0  0  0  0
  161.0390  208.1100  153.0360 C   0  0  0  0  0  0  0  0  0  0  0  0
  160.1670  208.5010  154.2120 C   0  0  0  0  0  2  0  0  0  0  0  0
  161.6810  208.5010  154.3500 C   0  0  0  0  0  2  0  0  0  0  0  0
  161.0560  205.7900  153.6320 O   0  0  0  0  0  0  0  0  0  0  0  0
  161.1760  206.6570  152.7190 C   0  0  0  0  0  0  0  0  0  0  0  0
  161.4840  206.2780  151.4090 O   0  0  0  0  0  0  0  0  0  0  0  0
  160.6710  205.3760  150.6580 C   0  0  2  0  0  3  0  0  0  0  0  0
  161.4230  204.0410  150.4890 C   0  0  1  0  0  3  0  0  0  0  0  0
  162.2450  202.0670  151.8030 O   0  0  0  0  0  0  0  0  0  0  0  0
  160.3590  203.1870  152.4870 O   0  0  0  0  0  1  0  0  0  0  0  0
  161.3020  203.0810  151.6490 C   0  0  0  0  0  0  0  0  0  0  0  0
  161.2080  203.4150  149.2390 O   0  0  0  0  0  0  0  0  0  0  0  0
  160.1810  202.4650  149.3750 C   0  0  0  0  0  2  0  0  0  0  0  0
  160.6720  201.2060  149.0170 O   0  0  0  0  0  1  0  0  0  0  0  0
  160.3730  205.9930  149.2950 C   0  0  0  0  0  2  0  0  0  0  0  0
  161.5050  206.6310  148.7920 O   0  0  0  0  0  0  0  0  0  0  0  0
  162.7230  205.2950  146.6870 O   0  0  0  0  0  0  0  0  0  0  0  0
  161.5760  206.1520  147.1730 P   0  0  0  0  0  0  0  0  0  0  0  0
  160.4860  206.5730  146.2120 O   0  0  0  0  0  0  0  0  0  0  0  0
  160.4920  213.3040  150.3390 N   0  0  0  0  0  2  0  0  0  0  0  0
  160.1790  214.2720  149.3000 C   0  0  0  0  0  2  0  0  0  0  0  0
  157.9380  213.3380  148.6720 C   0  0  0  0  0  3  0  0  0  0  0  0
  157.0600  212.7900  147.7320 C   0  0  0  0  0  3  0  0  0  0  0  0
  158.8070  212.8960  146.0540 C   0  0  0  0  0  3  0  0  0  0  0  0
  159.2480  213.6710  148.3020 C   0  0  0  0  0  0  0  0  0  0  0  0
  157.4950  212.5720  146.4230 C   0  0  0  0  0  3  0  0  0  0  0  0
  159.6850  213.4460  146.9930 C   0  0  0  0  0  3  0  0  0  0  0  0
  159.7840  210.9130  152.9390 C   0  0  2  0  0  3  0  0  0  0  0  0
  158.2230  212.4470  151.9730 O   0  0  0  0  0  1  0  0  0  0  0  0
  158.3590  211.1430  152.4540 C   0  0  0  0  0  2  0  0  0  0  0  0
  160.4380  212.1760  153.5150 C   0  0  0  0  0  2  0  0  0  0  0  0
  159.2130  210.9010  156.6260 N   0  0  0  0  0  2  0  0  0  0  0  0
  159.9550  212.5560  154.9190 C   0  0  2  0  0  3  0  0  0  0  0  0
  160.2960  211.5000  155.9370 C   0  0  0  0  0  0  0  0  0  0  0  0
  158.4380  212.8240  154.9570 C   0  0  0  0  0  2  0  0  0  0  0  0
  157.0720  212.3460  157.2580 O   0  0  0  0  0  0  0  0  0  0  0  0
  157.7620  211.6560  156.1110 S   0  0  0  0  0  0  0  0  0  0  0  0
  161.4880  211.1650  156.1750 O   0  0  0  0  0  0  0  0  0  0  0  0
  156.8450  210.6740  155.4310 O   0  0  0  0  0  0  0  0  0  0  0  0
  1  8  1  0  0  0  0
  1 36  1  0  0  0  0
  2  5  1  0  0  0  0
  3  1  1  0  0  0  0
  4  2  1  0  0  0  0
  4  6  2  0  0  0  0
  5  3  2  0  0  0  0
  5  7  1  0  0  0  0
  6 28  1  0  0  0  0
  6  3  1  0  0  0  0
  7  8  2  0  0  0  0
  8  9  1  0  0  0  0
  9 10  1  0  0  0  0
  9 11  1  0  0  0  0
 10 11  1  0  0  0  0
 13  9  1  0  0  0  0
 13 12  2  0  0  0  0
 14 13  1  0  0  0  0
 15 23  1  6  0  0  0
 15 14  1  0  0  0  0
 16 20  1  6  0  0  0
 16 15  1  0  0  0  0
 16 19  1  0  0  0  0
 19 17  2  0  0  0  0
 19 18  1  0  0  0  0
 20 21  1  0  0  0  0
 22 21  1  0  0  0  0
 24 23  1  0  0  0  0
 25 26  2  0  0  0  0
 26 24  1  0  0  0  0
 27 26  2  0  0  0  0
 29 28  1  0  0  0  0
 31 30  2  0  0  0  0
 32 34  2  0  0  0  0
 32 35  1  0  0  0  0
 33 30  1  0  0  0  0
 33 29  1  0  0  0  0
 34 31  1  0  0  0  0
 35 33  2  0  0  0  0
 36 38  1  6  0  0  0
 36 39  1  0  0  0  0
 37 38  1  0  0  0  0
 41 39  1  6  0  0  0
 41 43  1  0  0  0  0
 41 42  1  0  0  0  0
 42 46  2  0  0  0  0
 42 40  1  0  0  0  0
 43 45  1  0  0  0  0
 45 40  1  0  0  0  0
 45 44  2  0  0  0  0
 47 45  2  0  0  0  0
M  END
>  <MODEL>
4

>  <REMARK>
 VINA RESULT:      -5.4      2.718      5.278
  Name = 
  18 active torsions:
  status: ('A' for Active; 'I' for Inactive)
    1  A    between atoms: C_2  and  N_3
    2  A    between atoms: C_2  and  C_38
    3  A    between atoms: C_2  and  C_42
    4  A    between atoms: C_4  and  C_42
    5  A    between atoms: C_6  and  C_32
    6  A    between atoms: C_6  and  N_37
    7  A    between atoms: C_13  and  O_33
    8  A    between atoms: O_14  and  C_17
    9  A    between atoms: O_14  and  C_44
   10  A    between atoms: C_17  and  C_23
   11  A    between atoms: O_19  and  P_22
   12  A    between atoms: O_19  and  C_34
   13  A    between atoms: C_23  and  C_35
   14  A    between atoms: C_26  and  N_37
   15  A    between atoms: C_27  and  C_45
   16  A    between atoms: O_33  and  C_45
   17  A    between atoms: C_34  and  C_44
   18  A    between atoms: C_44  and  C_45
                            x       y       z     vdW  Elec       q    Type
                         _______ _______ _______ _____ _____    ______ ____

>  <TORSDO>
F 18

$$$$
=
 OpenBabel11072414263D

 47 51  0  0  1  0  0  0  0  0999 V2000
  161.2470  208.7600  151.0430 N   0  0  0  0  0  0  0  0  0  0  0  0
  162.5080  209.7740  148.0610 N   0  0  0  0  0  2  0  0  0  0  0  0
  161.4740  209.5870  150.0090 C   0  0  0  0  0  0  0  0  0  0  0  0
  162.2780  211.0080  148.5260 N   0  0  0  0  0  0  0  0  0  0  0  0
  161.9890  208.9420  148.9790 C   0  0  0  0  0  0  0  0  0  0  0  0
  161.6480  210.9270  149.7280 C   0  0  0  0  0  0  0  0  0  0  0  0
  162.1190  207.5970  149.2380 C   0  0  0  0  0  3  0  0  0  0  0  0
  161.6120  207.5320  150.5530 C   0  0  0  0  0  0  0  0  0  0  0  0
  161.4980  206.2510  151.3230 C   0  0  0  0  0  0  0  0  0  0  0  0
  161.3010  206.3330  152.8230 C   0  0  0  0  0  2  0  0  0  0  0  0
  162.6690  205.9980  152.2480 C   0  0  0  0  0  2  0  0  0  0  0  0
  159.9550  204.4510  150.9850 O   0  0  0  0  0  0  0  0  0  0  0  0
  161.0220  205.0220  150.6210 C   0  0  0  0  0  0  0  0  0  0  0  0
  161.7990  204.4920  149.5850 O   0  0  0  0  0  0  0  0  0  0  0  0
  161.2300  203.9760  148.3820 C   0  0  2  0  0  3  0  0  0  0  0  0
  161.3490  202.4390  148.3870 C   0  0  1  0  0  3  0  0  0  0  0  0
  161.1850  201.1370  150.5260 O   0  0  0  0  0  1  0  0  0  0  0  0
  159.2740  201.6760  149.3700 O   0  0  0  0  0  0  0  0  0  0  0  0
  160.5360  201.7310  149.4460 C   0  0  0  0  0  0  0  0  0  0  0  0
  161.2110  201.8490  147.1090 O   0  0  0  0  0  0  0  0  0  0  0  0
  160.8350  200.5040  147.2650 C   0  0  0  0  0  2  0  0  0  0  0  0
  161.5980  199.7120  146.4010 O   0  0  0  0  0  1  0  0  0  0  0  0
  161.9760  204.5620  147.1880 C   0  0  0  0  0  2  0  0  0  0  0  0
  161.2010  205.5340  146.5590 O   0  0  0  0  0  0  0  0  0  0  0  0
  160.5120  203.5500  144.7450 O   0  0  0  0  0  0  0  0  0  0  0  0
  161.0040  204.9610  144.9820 P   0  0  0  0  0  0  0  0  0  0  0  0
  161.3110  205.8620  143.8060 O   0  0  0  0  0  0  0  0  0  0  0  0
  161.3380  212.0720  150.5220 N   0  0  0  0  0  2  0  0  0  0  0  0
  161.0260  213.3750  149.9570 C   0  0  0  0  0  2  0  0  0  0  0  0
  158.6240  213.6710  150.6170 C   0  0  0  0  0  3  0  0  0  0  0  0
  157.2670  213.7580  150.2920 C   0  0  0  0  0  3  0  0  0  0  0  0
  157.8130  213.3920  147.9580 C   0  0  0  0  0  3  0  0  0  0  0  0
  159.5770  213.4510  149.6120 C   0  0  0  0  0  0  0  0  0  0  0  0
  156.8640  213.6210  148.9620 C   0  0  0  0  0  3  0  0  0  0  0  0
  159.1710  213.3060  148.2820 C   0  0  0  0  0  3  0  0  0  0  0  0
  160.8750  209.0500  152.4270 C   0  0  2  0  0  3  0  0  0  0  0  0
  159.4460  210.9650  152.3080 O   0  0  0  0  0  1  0  0  0  0  0  0
  159.4510  209.5830  152.5120 C   0  0  0  0  0  2  0  0  0  0  0  0
  161.9060  209.9710  153.0920 C   0  0  0  0  0  2  0  0  0  0  0  0
  159.8350  209.1570  155.8950 N   0  0  0  0  0  2  0  0  0  0  0  0
  161.7380  210.1210  154.6080 C   0  0  2  0  0  3  0  0  0  0  0  0
  161.0590  208.9240  155.2210 C   0  0  0  0  0  0  0  0  0  0  0  0
  160.9520  211.3930  154.9810 C   0  0  0  0  0  2  0  0  0  0  0  0
  159.4730  211.4090  157.2610 O   0  0  0  0  0  0  0  0  0  0  0  0
  159.5160  210.8420  155.8670 S   0  0  0  0  0  0  0  0  0  0  0  0
  161.5550  207.7680  155.1480 O   0  0  0  0  0  0  0  0  0  0  0  0
  158.2490  211.1480  155.1120 O   0  0  0  0  0  0  0  0  0  0  0  0
  1 36  1  0  0  0  0
  2  4  1  0  0  0  0
  2  5  1  0  0  0  0
  3  1  1  0  0  0  0
  4  6  2  0  0  0  0
  5  7  1  0  0  0  0
  5  3  2  0  0  0  0
  6  3  1  0  0  0  0
  6 28  1  0  0  0  0
  7  8  2  0  0  0  0
  8  1  1  0  0  0  0
  8  9  1  0  0  0  0
  9 11  1  0  0  0  0
  9 10  1  0  0  0  0
 11 10  1  0  0  0  0
 13 12  2  0  0  0  0
 13  9  1  0  0  0  0
 14 13  1  0  0  0  0
 15 23  1  6  0  0  0
 15 16  1  0  0  0  0
 15 14  1  0  0  0  0
 16 20  1  6  0  0  0
 16 19  1  0  0  0  0
 18 19  2  0  0  0  0
 19 17  1  0  0  0  0
 20 21  1  0  0  0  0
 22 21  1  0  0  0  0
 24 23  1  0  0  0  0
 25 26  2  0  0  0  0
 26 24  1  0  0  0  0
 27 26  2  0  0  0  0
 29 28  1  0  0  0  0
 31 30  1  0  0  0  0
 32 35  2  0  0  0  0
 32 34  1  0  0  0  0
 33 29  1  0  0  0  0
 33 30  2  0  0  0  0
 34 31  2  0  0  0  0
 35 33  1  0  0  0  0
 36 38  1  6  0  0  0
 36 39  1  0  0  0  0
 37 38  1  0  0  0  0
 41 39  1  6  0  0  0
 41 43  1  0  0  0  0
 41 42  1  0  0  0  0
 42 40  1  0  0  0  0
 43 45  1  0  0  0  0
 45 40  1  0  0  0  0
 45 44  2  0  0  0  0
 46 42  2  0  0  0  0
 47 45  2  0  0  0  0
M  END
>  <MODEL>
5

>  <REMARK>
 VINA RESULT:      -5.2      2.430      4.678
  Name = 
  18 active torsions:
  status: ('A' for Active; 'I' for Inactive)
    1  A    between atoms: C_2  and  N_3
    2  A    between atoms: C_2  and  C_38
    3  A    between atoms: C_2  and  C_42
    4  A    between atoms: C_4  and  C_42
    5  A    between atoms: C_6  and  C_32
    6  A    between atoms: C_6  and  N_37
    7  A    between atoms: C_13  and  O_33
    8  A    between atoms: O_14  and  C_17
    9  A    between atoms: O_14  and  C_44
   10  A    between atoms: C_17  and  C_23
   11  A    between atoms: O_19  and  P_22
   12  A    between atoms: O_19  and  C_34
   13  A    between atoms: C_23  and  C_35
   14  A    between atoms: C_26  and  N_37
   15  A    between atoms: C_27  and  C_45
   16  A    between atoms: O_33  and  C_45
   17  A    between atoms: C_34  and  C_44
   18  A    between atoms: C_44  and  C_45
                            x       y       z     vdW  Elec       q    Type
                         _______ _______ _______ _____ _____    ______ ____

>  <TORSDO>
F 18

$$$$
=
 OpenBabel11072414263D

 47 51  0  0  1  0  0  0  0  0999 V2000
  161.7120  207.7080  151.4250 N   0  0  0  0  0  0  0  0  0  0  0  0
  161.9490  210.2310  149.1710 N   0  0  0  0  0  2  0  0  0  0  0  0
  162.0170  208.3070  150.2640 C   0  0  0  0  0  0  0  0  0  0  0  0
  162.0430  209.2470  148.2680 N   0  0  0  0  0  0  0  0  0  0  0  0
  161.9560  209.6210  150.3680 C   0  0  0  0  0  0  0  0  0  0  0  0
  162.0810  208.0490  148.9090 C   0  0  0  0  0  0  0  0  0  0  0  0
  161.6290  210.0130  151.6460 C   0  0  0  0  0  3  0  0  0  0  0  0
  161.5080  208.7600  152.2820 C   0  0  0  0  0  0  0  0  0  0  0  0
  161.1830  208.6090  153.7380 C   0  0  0  0  0  0  0  0  0  0  0  0
  161.5860  207.3230  154.4310 C   0  0  0  0  0  2  0  0  0  0  0  0
  160.1400  207.5470  154.0140 C   0  0  0  0  0  2  0  0  0  0  0  0
  162.0300  210.4260  155.0470 O   0  0  0  0  0  0  0  0  0  0  0  0
  161.0180  209.8340  154.5750 C   0  0  0  0  0  0  0  0  0  0  0  0
  159.7260  210.2860  154.8630 O   0  0  0  0  0  0  0  0  0  0  0  0
  159.2960  211.6180  154.5830 C   0  0  2  0  0  3  0  0  0  0  0  0
  157.9990  211.9050  155.3660 C   0  0  1  0  0  3  0  0  0  0  0  0
  158.7820  213.7630  156.8600 O   0  0  0  0  0  1  0  0  0  0  0  0
  156.9510  214.0800  155.5090 O   0  0  0  0  0  0  0  0  0  0  0  0
  157.8700  213.3090  155.9090 C   0  0  0  0  0  0  0  0  0  0  0  0
  156.8260  211.4630  154.7130 O   0  0  0  0  0  0  0  0  0  0  0  0
  155.9790  210.8550  155.6560 C   0  0  0  0  0  2  0  0  0  0  0  0
  155.1070  209.9840  154.9950 O   0  0  0  0  0  1  0  0  0  0  0  0
  159.0510  211.7560  153.0830 C   0  0  0  0  0  2  0  0  0  0  0  0
  159.4000  213.0320  152.6480 O   0  0  0  0  0  0  0  0  0  0  0  0
  156.8610  214.0820  152.2600 O   0  0  0  0  0  0  0  0  0  0  0  0
  158.1200  213.5040  151.6520 P   0  0  0  0  0  0  0  0  0  0  0  0
  158.2360  213.3580  150.1510 O   0  0  0  0  0  0  0  0  0  0  0  0
  162.0970  206.7980  148.2200 N   0  0  0  0  0  2  0  0  0  0  0  0
  162.4420  206.6660  146.8140 C   0  0  0  0  0  2  0  0  0  0  0  0
  161.1280  205.4570  145.0530 C   0  0  0  0  0  3  0  0  0  0  0  0
  160.5860  204.2840  144.5200 C   0  0  0  0  0  3  0  0  0  0  0  0
  161.4770  203.0320  146.3950 C   0  0  0  0  0  3  0  0  0  0  0  0
  161.8500  205.4170  146.2540 C   0  0  0  0  0  0  0  0  0  0  0  0
  160.7640  203.0720  145.1900 C   0  0  0  0  0  3  0  0  0  0  0  0
  162.0200  204.2040  146.9290 C   0  0  0  0  0  3  0  0  0  0  0  0
  161.4650  206.2990  151.7310 C   0  0  2  0  0  3  0  0  0  0  0  0
  163.8280  205.9840  151.5330 O   0  0  0  0  0  1  0  0  0  0  0  0
  162.7130  205.6340  152.2970 C   0  0  0  0  0  2  0  0  0  0  0  0
  160.8880  205.5650  150.5140 C   0  0  0  0  0  2  0  0  0  0  0  0
  161.2070  202.2290  151.7720 N   0  0  0  0  0  2  0  0  0  0  0  0
  160.1280  204.2770  150.8510 C   0  0  2  0  0  3  0  0  0  0  0  0
  160.7450  203.5470  152.0140 C   0  0  0  0  0  0  0  0  0  0  0  0
  160.0390  203.3230  149.6450 C   0  0  0  0  0  2  0  0  0  0  0  0
  159.8930  200.6460  150.0880 O   0  0  0  0  0  0  0  0  0  0  0  0
  160.8350  201.8190  150.1490 S   0  0  0  0  0  0  0  0  0  0  0  0
  160.8430  204.0740  153.1550 O   0  0  0  0  0  0  0  0  0  0  0  0
  162.0850  201.5590  149.3490 O   0  0  0  0  0  0  0  0  0  0  0  0
  1 36  1  0  0  0  0
  1  8  1  0  0  0  0
  2  5  1  0  0  0  0
  3  5  2  0  0  0  0
  3  1  1  0  0  0  0
  4  6  2  0  0  0  0
  4  2  1  0  0  0  0
  5  7  1  0  0  0  0
  6  3  1  0  0  0  0
  7  8  2  0  0  0  0
  8  9  1  0  0  0  0
  9 11  1  0  0  0  0
  9 10  1  0  0  0  0
  9 13  1  0  0  0  0
 11 10  1  0  0  0  0
 13 14  1  0  0  0  0
 13 12  2  0  0  0  0
 15 23  1  6  0  0  0
 15 14  1  0  0  0  0
 15 16  1  0  0  0  0
 16 20  1  6  0  0  0
 16 19  1  0  0  0  0
 18 19  2  0  0  0  0
 19 17  1  0  0  0  0
 20 21  1  0  0  0  0
 22 21  1  0  0  0  0
 24 23  1  0  0  0  0
 26 25  2  0  0  0  0
 26 24  1  0  0  0  0
 27 26  2  0  0  0  0
 28  6  1  0  0  0  0
 29 28  1  0  0  0  0
 30 33  1  0  0  0  0
 31 30  2  0  0  0  0
 31 34  1  0  0  0  0
 32 35  1  0  0  0  0
 33 29  1  0  0  0  0
 33 35  2  0  0  0  0
 34 32  2  0  0  0  0
 36 39  1  6  0  0  0
 36 38  1  0  0  0  0
 37 38  1  0  0  0  0
 40 42  1  0  0  0  0
 41 39  1  6  0  0  0
 41 42  1  0  0  0  0
 42 46  2  0  0  0  0
 43 45  1  0  0  0  0
 43 41  1  0  0  0  0
 44 45  2  0  0  0  0
 45 40  1  0  0  0  0
 47 45  2  0  0  0  0
M  END
>  <MODEL>
6

>  <REMARK>
 VINA RESULT:      -5.0      3.412      9.938
  Name = 
  18 active torsions:
  status: ('A' for Active; 'I' for Inactive)
    1  A    between atoms: C_2  and  N_3
    2  A    between atoms: C_2  and  C_38
    3  A    between atoms: C_2  and  C_42
    4  A    between atoms: C_4  and  C_42
    5  A    between atoms: C_6  and  C_32
    6  A    between atoms: C_6  and  N_37
    7  A    between atoms: C_13  and  O_33
    8  A    between atoms: O_14  and  C_17
    9  A    between atoms: O_14  and  C_44
   10  A    between atoms: C_17  and  C_23
   11  A    between atoms: O_19  and  P_22
   12  A    between atoms: O_19  and  C_34
   13  A    between atoms: C_23  and  C_35
   14  A    between atoms: C_26  and  N_37
   15  A    between atoms: C_27  and  C_45
   16  A    between atoms: O_33  and  C_45
   17  A    between atoms: C_34  and  C_44
   18  A    between atoms: C_44  and  C_45
                            x       y       z     vdW  Elec       q    Type
                         _______ _______ _______ _____ _____    ______ ____

>  <TORSDO>
F 18

$$$$
=
 OpenBabel11072414263D

 47 51  0  0  1  0  0  0  0  0999 V2000
  160.8650  210.0990  151.6390 N   0  0  0  0  0  0  0  0  0  0  0  0
  162.5790  210.9670  148.8440 N   0  0  0  0  0  2  0  0  0  0  0  0
  161.1860  210.8270  150.5590 C   0  0  0  0  0  0  0  0  0  0  0  0
  162.0730  212.1870  149.0650 N   0  0  0  0  0  0  0  0  0  0  0  0
  162.0010  210.1690  149.7570 C   0  0  0  0  0  0  0  0  0  0  0  0
  161.2160  212.1360  150.1190 C   0  0  0  0  0  0  0  0  0  0  0  0
  162.2690  208.9060  150.2340 C   0  0  0  0  0  3  0  0  0  0  0  0
  161.5050  208.9060  151.4190 C   0  0  0  0  0  0  0  0  0  0  0  0
  161.4170  207.7220  152.3350 C   0  0  0  0  0  0  0  0  0  0  0  0
  160.4610  207.7950  153.5080 C   0  0  0  0  0  2  0  0  0  0  0  0
  161.9530  207.9950  153.7240 C   0  0  0  0  0  2  0  0  0  0  0  0
  162.6580  205.6750  152.4040 O   0  0  0  0  0  0  0  0  0  0  0  0
  161.7840  206.3720  151.8130 C   0  0  0  0  0  0  0  0  0  0  0  0
  161.1760  205.9130  150.6400 O   0  0  0  0  0  0  0  0  0  0  0  0
  161.5190  204.6680  150.0320 C   0  0  2  0  0  3  0  0  0  0  0  0
  161.2870  204.7690  148.5110 C   0  0  1  0  0  3  0  0  0  0  0  0
  160.1210  206.7330  147.4700 O   0  0  0  0  0  0  0  0  0  0  0  0
  162.3730  206.8460  147.9090 O   0  0  0  0  0  1  0  0  0  0  0  0
  161.3030  206.1710  147.9480 C   0  0  0  0  0  0  0  0  0  0  0  0
  162.0670  203.8670  147.7500 O   0  0  0  0  0  0  0  0  0  0  0  0
  161.5270  203.7760  146.4560 C   0  0  0  0  0  2  0  0  0  0  0  0
  162.5410  203.9990  145.5200 O   0  0  0  0  0  1  0  0  0  0  0  0
  160.6480  203.5670  150.6280 C   0  0  0  0  0  2  0  0  0  0  0  0
  161.3630  202.3740  150.7130 O   0  0  0  0  0  0  0  0  0  0  0  0
  161.5390  200.2740  148.9070 O   0  0  0  0  0  0  0  0  0  0  0  0
  160.7210  201.4080  149.4840 P   0  0  0  0  0  0  0  0  0  0  0  0
  159.3240  201.6720  148.9680 O   0  0  0  0  0  0  0  0  0  0  0  0
  160.5750  213.2930  150.6580 N   0  0  0  0  0  2  0  0  0  0  0  0
  160.1140  214.4030  149.8400 C   0  0  0  0  0  2  0  0  0  0  0  0
  157.8760  213.6250  149.0190 C   0  0  0  0  0  3  0  0  0  0  0  0
  157.0370  213.1720  147.9970 C   0  0  0  0  0  3  0  0  0  0  0  0
  158.8950  213.2690  146.4420 C   0  0  0  0  0  3  0  0  0  0  0  0
  159.2230  213.9040  148.7530 C   0  0  0  0  0  0  0  0  0  0  0  0
  157.5470  212.9980  146.7090 C   0  0  0  0  0  3  0  0  0  0  0  0
  159.7350  213.7220  147.4640 C   0  0  0  0  0  3  0  0  0  0  0  0
  160.1620  210.4760  152.8660 C   0  0  2  0  0  3  0  0  0  0  0  0
  158.4670  212.0190  152.1820 O   0  0  0  0  0  1  0  0  0  0  0  0
  158.6800  210.7040  152.6000 C   0  0  0  0  0  2  0  0  0  0  0  0
  160.8460  211.6700  153.5450 C   0  0  0  0  0  2  0  0  0  0  0  0
  159.1920  210.2270  156.3730 N   0  0  0  0  0  2  0  0  0  0  0  0
  160.4110  211.9080  154.9960 C   0  0  2  0  0  3  0  0  0  0  0  0
  160.4230  210.6370  155.8030 C   0  0  0  0  0  0  0  0  0  0  0  0
  159.0130  212.5490  155.0840 C   0  0  0  0  0  2  0  0  0  0  0  0
  157.4650  212.0430  157.2600 O   0  0  0  0  0  0  0  0  0  0  0  0
  158.0080  211.4120  156.0060 S   0  0  0  0  0  0  0  0  0  0  0  0
  161.4770  209.9670  155.9750 O   0  0  0  0  0  0  0  0  0  0  0  0
  156.9030  210.8390  155.1580 O   0  0  0  0  0  0  0  0  0  0  0  0
  1 36  1  0  0  0  0
  2  4  1  0  0  0  0
  2  5  1  0  0  0  0
  3  1  1  0  0  0  0
  4  6  2  0  0  0  0
  5  7  1  0  0  0  0
  5  3  2  0  0  0  0
  6  3  1  0  0  0  0
  6 28  1  0  0  0  0
  7  8  2  0  0  0  0
  8  1  1  0  0  0  0
  8  9  1  0  0  0  0
  9 10  1  0  0  0  0
  9 11  1  0  0  0  0
 10 11  1  0  0  0  0
 13  9  1  0  0  0  0
 13 12  2  0  0  0  0
 14 13  1  0  0  0  0
 15 23  1  1  0  0  0
 15 14  1  0  0  0  0
 16 20  1  6  0  0  0
 16 15  1  0  0  0  0
 17 19  2  0  0  0  0
 18 19  1  0  0  0  0
 19 16  1  0  0  0  0
 21 20  1  0  0  0  0
 22 21  1  0  0  0  0
 23 24  1  0  0  0  0
 25 26  2  0  0  0  0
 26 24  1  0  0  0  0
 27 26  2  0  0  0  0
 29 28  1  0  0  0  0
 31 30  2  0  0  0  0
 32 34  2  0  0  0  0
 32 35  1  0  0  0  0
 33 30  1  0  0  0  0
 33 29  1  0  0  0  0
 34 31  1  0  0  0  0
 35 33  2  0  0  0  0
 36 38  1  6  0  0  0
 36 39  1  0  0  0  0
 37 38  1  0  0  0  0
 41 39  1  6  0  0  0
 41 43  1  0  0  0  0
 41 42  1  0  0  0  0
 42 46  2  0  0  0  0
 42 40  1  0  0  0  0
 43 45  1  0  0  0  0
 45 40  1  0  0  0  0
 45 44  2  0  0  0  0
 47 45  2  0  0  0  0
M  END
>  <MODEL>
7

>  <REMARK>
 VINA RESULT:      -4.9      2.694      5.534
  Name = 
  18 active torsions:
  status: ('A' for Active; 'I' for Inactive)
    1  A    between atoms: C_2  and  N_3
    2  A    between atoms: C_2  and  C_38
    3  A    between atoms: C_2  and  C_42
    4  A    between atoms: C_4  and  C_42
    5  A    between atoms: C_6  and  C_32
    6  A    between atoms: C_6  and  N_37
    7  A    between atoms: C_13  and  O_33
    8  A    between atoms: O_14  and  C_17
    9  A    between atoms: O_14  and  C_44
   10  A    between atoms: C_17  and  C_23
   11  A    between atoms: O_19  and  P_22
   12  A    between atoms: O_19  and  C_34
   13  A    between atoms: C_23  and  C_35
   14  A    between atoms: C_26  and  N_37
   15  A    between atoms: C_27  and  C_45
   16  A    between atoms: O_33  and  C_45
   17  A    between atoms: C_34  and  C_44
   18  A    between atoms: C_44  and  C_45
                            x       y       z     vdW  Elec       q    Type
                         _______ _______ _______ _____ _____    ______ ____

>  <TORSDO>
F 18

$$$$
=
 OpenBabel11072414263D

 47 51  0  0  1  0  0  0  0  0999 V2000
  161.1440  210.0530  150.6400 N   0  0  0  0  0  0  0  0  0  0  0  0
  162.7340  211.3110  147.9200 N   0  0  0  0  0  2  0  0  0  0  0  0
  161.4810  210.9620  149.7110 C   0  0  0  0  0  0  0  0  0  0  0  0
  162.4360  212.5020  148.4540 N   0  0  0  0  0  0  0  0  0  0  0  0
  162.1210  210.4050  148.7010 C   0  0  0  0  0  0  0  0  0  0  0  0
  161.6700  212.3210  149.5620 C   0  0  0  0  0  0  0  0  0  0  0  0
  162.2350  209.0440  148.8620 C   0  0  0  0  0  3  0  0  0  0  0  0
  161.5790  208.8700  150.0990 C   0  0  0  0  0  0  0  0  0  0  0  0
  161.3890  207.5300  150.7430 C   0  0  0  0  0  0  0  0  0  0  0  0
  161.2640  207.4730  152.2520 C   0  0  0  0  0  2  0  0  0  0  0  0
  162.5730  207.0920  151.5790 C   0  0  0  0  0  2  0  0  0  0  0  0
  159.5640  206.4640  149.6170 O   0  0  0  0  0  0  0  0  0  0  0  0
  160.7840  206.4210  149.9480 C   0  0  0  0  0  0  0  0  0  0  0  0
  161.5760  205.3170  149.6150 O   0  0  0  0  0  0  0  0  0  0  0  0
  161.1070  204.2570  148.7810 C   0  0  2  0  0  3  0  0  0  0  0  0
  161.1120  202.9430  149.5880 C   0  0  1  0  0  3  0  0  0  0  0  0
  162.2800  202.7290  151.7990 O   0  0  0  0  0  1  0  0  0  0  0  0
  160.1510  203.5900  151.7120 O   0  0  0  0  0  0  0  0  0  0  0  0
  161.1420  203.1080  151.0890 C   0  0  0  0  0  0  0  0  0  0  0  0
  160.1430  202.0050  149.1610 O   0  0  0  0  0  0  0  0  0  0  0  0
  160.7720  200.7690  148.9360 C   0  0  0  0  0  2  0  0  0  0  0  0
  161.4510  200.8160  147.7140 O   0  0  0  0  0  1  0  0  0  0  0  0
  162.0240  204.1370  147.5680 C   0  0  0  0  0  2  0  0  0  0  0  0
  161.2800  203.8620  146.4220 O   0  0  0  0  0  0  0  0  0  0  0  0
  161.1410  205.3750  144.1000 O   0  0  0  0  0  0  0  0  0  0  0  0
  161.1910  205.3420  145.6120 P   0  0  0  0  0  0  0  0  0  0  0  0
  161.1500  206.6330  146.3980 O   0  0  0  0  0  0  0  0  0  0  0  0
  161.2560  213.3970  150.4050 N   0  0  0  0  0  2  0  0  0  0  0  0
  160.3520  214.4500  149.9700 C   0  0  0  0  0  2  0  0  0  0  0  0
  158.5150  213.3630  148.6530 C   0  0  0  0  0  3  0  0  0  0  0  0
  157.9140  213.0290  147.4360 C   0  0  0  0  0  3  0  0  0  0  0  0
  159.7290  214.1170  146.2530 C   0  0  0  0  0  3  0  0  0  0  0  0
  159.7200  214.0790  148.6710 C   0  0  0  0  0  0  0  0  0  0  0  0
  158.5210  213.4090  146.2370 C   0  0  0  0  0  3  0  0  0  0  0  0
  160.3310  214.4520  147.4690 C   0  0  0  0  0  3  0  0  0  0  0  0
  160.6080  210.2280  151.9900 C   0  0  2  0  0  3  0  0  0  0  0  0
  158.6350  211.0940  153.0270 O   0  0  0  0  0  1  0  0  0  0  0  0
  159.5800  211.3500  152.0310 C   0  0  0  0  0  2  0  0  0  0  0  0
  161.7390  210.4060  153.0110 C   0  0  0  0  0  2  0  0  0  0  0  0
  162.3100  209.1020  156.2950 N   0  0  0  0  0  2  0  0  0  0  0  0
  161.2740  210.4460  154.4720 C   0  0  2  0  0  3  0  0  0  0  0  0
  162.4120  210.2210  155.4310 C   0  0  0  0  0  0  0  0  0  0  0  0
  160.1620  209.4180  154.7550 C   0  0  0  0  0  2  0  0  0  0  0  0
  159.9410  208.3700  157.2530 O   0  0  0  0  0  0  0  0  0  0  0  0
  160.7980  208.3430  156.0160 S   0  0  0  0  0  0  0  0  0  0  0  0
  163.4090  210.9910  155.4750 O   0  0  0  0  0  0  0  0  0  0  0  0
  160.9770  206.9360  155.5060 O   0  0  0  0  0  0  0  0  0  0  0  0
  1 36  1  0  0  0  0
  2  4  1  0  0  0  0
  2  5  1  0  0  0  0
  3  1  1  0  0  0  0
  4  6  2  0  0  0  0
  5  7  1  0  0  0  0
  5  3  2  0  0  0  0
  6  3  1  0  0  0  0
  6 28  1  0  0  0  0
  7  8  2  0  0  0  0
  8  1  1  0  0  0  0
  8  9  1  0  0  0  0
  9 11  1  0  0  0  0
  9 10  1  0  0  0  0
 11 10  1  0  0  0  0
 12 13  2  0  0  0  0
 13  9  1  0  0  0  0
 14 13  1  0  0  0  0
 15 23  1  6  0  0  0
 15 16  1  0  0  0  0
 15 14  1  0  0  0  0
 16 20  1  1  0  0  0
 16 19  1  0  0  0  0
 19 18  2  0  0  0  0
 19 17  1  0  0  0  0
 21 20  1  0  0  0  0
 22 21  1  0  0  0  0
 24 23  1  0  0  0  0
 25 26  2  0  0  0  0
 26 27  2  0  0  0  0
 26 24  1  0  0  0  0
 29 28  1  0  0  0  0
 30 33  1  0  0  0  0
 31 30  2  0  0  0  0
 32 35  1  0  0  0  0
 33 29  1  0  0  0  0
 34 32  2  0  0  0  0
 34 31  1  0  0  0  0
 35 33  2  0  0  0  0
 36 38  1  6  0  0  0
 36 39  1  0  0  0  0
 38 37  1  0  0  0  0
 41 39  1  6  0  0  0
 41 43  1  0  0  0  0
 41 42  1  0  0  0  0
 42 46  2  0  0  0  0
 42 40  1  0  0  0  0
 43 45  1  0  0  0  0
 45 40  1  0  0  0  0
 45 44  2  0  0  0  0
 47 45  2  0  0  0  0
M  END
>  <MODEL>
8

>  <REMARK>
 VINA RESULT:      -4.8      2.795      5.499
  Name = 
  18 active torsions:
  status: ('A' for Active; 'I' for Inactive)
    1  A    between atoms: C_2  and  N_3
    2  A    between atoms: C_2  and  C_38
    3  A    between atoms: C_2  and  C_42
    4  A    between atoms: C_4  and  C_42
    5  A    between atoms: C_6  and  C_32
    6  A    between atoms: C_6  and  N_37
    7  A    between atoms: C_13  and  O_33
    8  A    between atoms: O_14  and  C_17
    9  A    between atoms: O_14  and  C_44
   10  A    between atoms: C_17  and  C_23
   11  A    between atoms: O_19  and  P_22
   12  A    between atoms: O_19  and  C_34
   13  A    between atoms: C_23  and  C_35
   14  A    between atoms: C_26  and  N_37
   15  A    between atoms: C_27  and  C_45
   16  A    between atoms: O_33  and  C_45
   17  A    between atoms: C_34  and  C_44
   18  A    between atoms: C_44  and  C_45
                            x       y       z     vdW  Elec       q    Type
                         _______ _______ _______ _____ _____    ______ ____

>  <TORSDO>
F 18

$$$$
=
 OpenBabel11072414263D

 47 51  0  0  1  0  0  0  0  0999 V2000
  161.7300  207.9340  151.6860 N   0  0  0  0  0  0  0  0  0  0  0  0
  161.8080  210.4690  149.4340 N   0  0  0  0  0  2  0  0  0  0  0  0
  162.0030  208.5540  150.5270 C   0  0  0  0  0  0  0  0  0  0  0  0
  161.9800  209.4950  148.5320 N   0  0  0  0  0  0  0  0  0  0  0  0
  161.8470  209.8610  150.6310 C   0  0  0  0  0  0  0  0  0  0  0  0
  162.0970  208.3020  149.1730 C   0  0  0  0  0  0  0  0  0  0  0  0
  161.4820  210.2270  151.9060 C   0  0  0  0  0  3  0  0  0  0  0  0
  161.4440  208.9680  152.5400 C   0  0  0  0  0  0  0  0  0  0  0  0
  161.1180  208.7940  153.9930 C   0  0  0  0  0  0  0  0  0  0  0  0
  161.2130  207.4030  154.5860 C   0  0  0  0  0  2  0  0  0  0  0  0
  159.8560  207.9920  154.2340 C   0  0  0  0  0  2  0  0  0  0  0  0
  162.3760  210.5500  155.0250 O   0  0  0  0  0  0  0  0  0  0  0  0
  161.2640  209.9590  154.9150 C   0  0  0  0  0  0  0  0  0  0  0  0
  160.1640  210.3550  155.6830 O   0  0  0  0  0  0  0  0  0  0  0  0
  158.9870  210.9210  155.1070 C   0  0  2  0  0  3  0  0  0  0  0  0
  159.2500  212.4040  154.7770 C   0  0  1  0  0  3  0  0  0  0  0  0
  160.7810  212.9810  156.6800 O   0  0  0  0  0  1  0  0  0  0  0  0
  158.9110  214.2580  156.2940 O   0  0  0  0  0  0  0  0  0  0  0  0
  159.6260  213.2710  155.9570 C   0  0  0  0  0  0  0  0  0  0  0  0
  160.0990  212.6010  153.6640 O   0  0  0  0  0  0  0  0  0  0  0  0
  159.3710  213.2350  152.6420 C   0  0  0  0  0  2  0  0  0  0  0  0
  158.4360  212.3360  152.1190 O   0  0  0  0  0  1  0  0  0  0  0  0
  157.8370  210.7960  156.1030 C   0  0  0  0  0  2  0  0  0  0  0  0
  156.6170  210.7480  155.4320 O   0  0  0  0  0  0  0  0  0  0  0  0
  154.9320  211.9840  157.2580 O   0  0  0  0  0  0  0  0  0  0  0  0
  155.7690  212.0930  156.0030 P   0  0  0  0  0  0  0  0  0  0  0  0
  155.8560  213.4110  155.2650 O   0  0  0  0  0  0  0  0  0  0  0  0
  162.2080  207.0560  148.4840 N   0  0  0  0  0  2  0  0  0  0  0  0
  162.7040  206.9380  147.1220 C   0  0  0  0  0  2  0  0  0  0  0  0
  162.3690  204.4810  146.7500 C   0  0  0  0  0  3  0  0  0  0  0  0
  161.7280  203.4160  146.1100 C   0  0  0  0  0  3  0  0  0  0  0  0
  160.4180  204.9950  144.8170 C   0  0  0  0  0  3  0  0  0  0  0  0
  162.0310  205.8030  146.4270 C   0  0  0  0  0  0  0  0  0  0  0  0
  160.7510  203.6750  145.1460 C   0  0  0  0  0  3  0  0  0  0  0  0
  161.0580  206.0610  145.4570 C   0  0  0  0  0  3  0  0  0  0  0  0
  161.5820  206.5100  151.9900 C   0  0  2  0  0  3  0  0  0  0  0  0
  163.7280  205.4570  152.0770 O   0  0  0  0  0  1  0  0  0  0  0  0
  162.7220  206.0160  152.8690 C   0  0  0  0  0  2  0  0  0  0  0  0
  161.4080  205.6890  150.7050 C   0  0  0  0  0  2  0  0  0  0  0  0
  160.8380  202.2140  151.3420 N   0  0  0  0  0  2  0  0  0  0  0  0
  160.3410  204.5930  150.7930 C   0  0  2  0  0  3  0  0  0  0  0  0
  160.6950  203.5430  151.8130 C   0  0  0  0  0  0  0  0  0  0  0  0
  160.0950  203.9130  149.4320 C   0  0  0  0  0  2  0  0  0  0  0  0
  159.2810  201.3210  149.3810 O   0  0  0  0  0  0  0  0  0  0  0  0
  160.4730  202.1950  149.6660 S   0  0  0  0  0  0  0  0  0  0  0  0
  160.8510  203.8240  153.0310 O   0  0  0  0  0  0  0  0  0  0  0  0
  161.6670  201.7740  148.8500 O   0  0  0  0  0  0  0  0  0  0  0  0
  1 36  1  0  0  0  0
  1  8  1  0  0  0  0
  2  5  1  0  0  0  0
  3  5  2  0  0  0  0
  3  1  1  0  0  0  0
  4  6  2  0  0  0  0
  4  2  1  0  0  0  0
  5  7  1  0  0  0  0
  6  3  1  0  0  0  0
  7  8  2  0  0  0  0
  8  9  1  0  0  0  0
  9 11  1  0  0  0  0
  9 10  1  0  0  0  0
  9 13  1  0  0  0  0
 11 10  1  0  0  0  0
 13 12  2  0  0  0  0
 13 14  1  0  0  0  0
 15 14  1  0  0  0  0
 15 23  1  1  0  0  0
 16 20  1  6  0  0  0
 16 15  1  0  0  0  0
 16 19  1  0  0  0  0
 19 18  2  0  0  0  0
 19 17  1  0  0  0  0
 21 20  1  0  0  0  0
 22 21  1  0  0  0  0
 24 26  1  0  0  0  0
 24 23  1  0  0  0  0
 26 25  2  0  0  0  0
 27 26  2  0  0  0  0
 28  6  1  0  0  0  0
 29 28  1  0  0  0  0
 31 30  2  0  0  0  0
 32 34  2  0  0  0  0
 32 35  1  0  0  0  0
 33 30  1  0  0  0  0
 33 29  1  0  0  0  0
 34 31  1  0  0  0  0
 35 33  2  0  0  0  0
 36 39  1  6  0  0  0
 36 38  1  0  0  0  0
 37 38  1  0  0  0  0
 40 42  1  0  0  0  0
 41 39  1  6  0  0  0
 41 42  1  0  0  0  0
 42 46  2  0  0  0  0
 43 45  1  0  0  0  0
 43 41  1  0  0  0  0
 44 45  2  0  0  0  0
 45 40  1  0  0  0  0
 47 45  2  0  0  0  0
M  END
>  <MODEL>
9

>  <REMARK>
 VINA RESULT:      -4.5      3.625     10.100
  Name = 
  18 active torsions:
  status: ('A' for Active; 'I' for Inactive)
    1  A    between atoms: C_2  and  N_3
    2  A    between atoms: C_2  and  C_38
    3  A    between atoms: C_2  and  C_42
    4  A    between atoms: C_4  and  C_42
    5  A    between atoms: C_6  and  C_32
    6  A    between atoms: C_6  and  N_37
    7  A    between atoms: C_13  and  O_33
    8  A    between atoms: O_14  and  C_17
    9  A    between atoms: O_14  and  C_44
   10  A    between atoms: C_17  and  C_23
   11  A    between atoms: O_19  and  P_22
   12  A    between atoms: O_19  and  C_34
   13  A    between atoms: C_23  and  C_35
   14  A    between atoms: C_26  and  N_37
   15  A    between atoms: C_27  and  C_45
   16  A    between atoms: O_33  and  C_45
   17  A    between atoms: C_34  and  C_44
   18  A    between atoms: C_44  and  C_45
                            x       y       z     vdW  Elec       q    Type
                         _______ _______ _______ _____ _____    ______ ____

>  <TORSDO>
F 18

$$$$
