=
 OpenBabel11072411513D

 32 38  0  0  1  0  0  0  0  0999 V2000
  162.4490  208.6040  150.7210 C   0  0  1  0  0  3  0  0  0  0  0  0
  162.2480  208.9730  149.2520 C   0  0  1  0  0  3  0  0  0  0  0  0
  160.5180  208.0170  151.9480 C   0  0  1  0  0  3  0  0  0  0  0  0
  162.2010  209.7380  151.6990 C   0  0  0  0  0  2  0  0  0  0  0  0
  161.5550  207.7730  148.6570 C   0  0  2  0  0  3  0  0  0  0  0  0
  161.0810  208.2290  153.3400 C   0  0  0  0  0  2  0  0  0  0  0  0
  160.8890  207.0820  149.8280 C   0  0  0  0  0  2  0  0  0  0  0  0
  160.9030  209.4120  152.4030 C   0  0  2  0  0  3  0  0  0  0  0  0
  161.5560  207.4960  151.0600 N   0  0  1  0  0  0  0  0  0  0  0  0
  162.5890  206.8460  148.0350 C   0  0  0  0  0  2  0  0  0  0  0  0
  162.6440  204.9790  146.3630 C   0  0  0  0  0  3  0  0  0  0  0  0
  161.9900  206.1040  146.8850 C   0  0  0  0  0  0  0  0  0  0  0  0
  160.2520  205.8610  145.2050 C   0  0  0  0  0  3  0  0  0  0  0  0
  160.7960  206.5470  146.3000 C   0  0  0  0  0  3  0  0  0  0  0  0
  160.9040  204.7330  144.6900 C   0  0  0  0  0  3  0  0  0  0  0  0
  162.1010  204.2940  145.2670 C   0  0  0  0  0  3  0  0  0  0  0  0
  161.4350  210.1040  149.1020 O   0  0  0  0  0  0  0  0  0  0  0  0
  162.2780  211.0640  148.5360 C   0  0  0  0  0  2  0  0  0  0  0  0
  160.2220  213.5800  147.0820 C   0  0  0  0  0  0  0  0  0  0  0  0
  160.9500  214.4100  147.8580 N   0  0  0  0  0  0  0  0  0  0  0  0
  161.7370  213.5750  148.5880 C   0  0  0  0  0  3  0  0  0  0  0  0
  159.7450  212.4220  145.0940 C   0  0  1  0  0  3  0  0  0  0  0  0
  160.3380  211.5490  146.1180 N   0  0  0  0  0  2  0  0  0  0  0  0
  160.5120  212.3130  147.2640 N   0  0  0  0  0  0  0  0  0  0  0  0
  159.7110  213.8490  145.7140 C   0  0  0  0  0  2  0  0  0  0  0  0
  161.4920  212.2750  148.1700 C   0  0  0  0  0  0  0  0  0  0  0  0
  160.5580  212.4120  143.8330 C   0  0  0  0  0  0  0  0  0  0  0  0
  162.1520  212.3900  141.5570 C   0  0  0  0  0  3  0  0  0  0  0  0
  162.6010  212.9550  142.7120 N   0  0  0  0  0  0  0  0  0  0  0  0
  160.8850  211.8080  141.5080 C   0  0  0  0  0  3  0  0  0  0  0  0
  161.8390  212.9750  143.8400 C   0  0  0  0  0  3  0  0  0  0  0  0
  160.0890  211.8150  142.6540 C   0  0  0  0  0  3  0  0  0  0  0  0
  1  9  1  0  0  0  0
  1  4  1  1  0  0  0
  2 17  1  1  0  0  0
  2  1  1  0  0  0  0
  3  8  1  0  0  0  0
  3  6  1  1  0  0  0
  5 10  1  1  0  0  0
  5  2  1  0  0  0  0
  5  7  1  0  0  0  0
  8  4  1  6  0  0  0
  8  6  1  0  0  0  0
  9  7  1  6  0  0  0
  9  3  1  0  0  0  0
 11 12  1  0  0  0  0
 12 10  1  0  0  0  0
 13 14  1  0  0  0  0
 14 12  2  0  0  0  0
 15 13  2  0  0  0  0
 15 16  1  0  0  0  0
 16 11  2  0  0  0  0
 18 17  1  0  0  0  0
 19 24  1  0  0  0  0
 19 20  2  0  0  0  0
 20 21  1  0  0  0  0
 22 27  1  6  0  0  0
 22 25  1  0  0  0  0
 22 23  1  0  0  0  0
 23 24  1  0  0  0  0
 24 26  1  0  0  0  0
 25 19  1  0  0  0  0
 26 18  1  0  0  0  0
 26 21  2  0  0  0  0
 27 31  1  0  0  0  0
 28 29  1  0  0  0  0
 29 31  2  0  0  0  0
 30 28  2  0  0  0  0
 30 32  1  0  0  0  0
 32 27  2  0  0  0  0
M  END
>  <MODEL>
1

>  <REMARK>
 VINA RESULT:      -8.0      0.000      0.000
  Name = 
  6 active torsions:
  status: ('A' for Active; 'I' for Inactive)
    1  A    between atoms: C_2  and  C_11
    2  A    between atoms: C_9  and  C_16
    3  A    between atoms: C_10  and  O_30
    4  A    between atoms: C_16  and  C_21
    5  A    between atoms: C_18  and  C_23
    6  A    between atoms: C_18  and  O_30
                            x       y       z     vdW  Elec       q    Type
                         _______ _______ _______ _____ _____    ______ ____

>  <TORSDO>
F 6

$$$$
=
 OpenBabel11072411513D

 32 38  0  0  1  0  0  0  0  0999 V2000
  162.1040  205.5710  151.0550 C   0  0  1  0  0  3  0  0  0  0  0  0
  161.6140  206.9890  150.7700 C   0  0  1  0  0  3  0  0  0  0  0  0
  160.4830  203.8540  151.0260 C   0  0  1  0  0  3  0  0  0  0  0  0
  161.9340  205.1180  152.4940 C   0  0  0  0  0  2  0  0  0  0  0  0
  160.9360  206.8880  149.4270 C   0  0  2  0  0  3  0  0  0  0  0  0
  161.2620  202.8160  151.8080 C   0  0  0  0  0  2  0  0  0  0  0  0
  160.5520  205.4300  149.2880 C   0  0  0  0  0  2  0  0  0  0  0  0
  160.8160  204.1000  152.4860 C   0  0  2  0  0  3  0  0  0  0  0  0
  161.3880  204.6370  150.1870 N   0  0  1  0  0  0  0  0  0  0  0  0
  161.9210  207.2650  148.3310 C   0  0  0  0  0  2  0  0  0  0  0  0
  162.6660  205.4020  146.8280 C   0  0  0  0  0  3  0  0  0  0  0  0
  161.7210  206.3910  147.1350 C   0  0  0  0  0  0  0  0  0  0  0  0
  160.4430  205.7680  145.1660 C   0  0  0  0  0  3  0  0  0  0  0  0
  160.6120  206.5750  146.3000 C   0  0  0  0  0  3  0  0  0  0  0  0
  161.3860  204.7770  144.8640 C   0  0  0  0  0  3  0  0  0  0  0  0
  162.4990  204.5960  145.6930 C   0  0  0  0  0  3  0  0  0  0  0  0
  160.6890  207.4260  151.7280 O   0  0  0  0  0  0  0  0  0  0  0  0
  160.7620  208.8200  151.6690 C   0  0  0  0  0  2  0  0  0  0  0  0
  161.5520  210.0300  154.9230 C   0  0  0  0  0  0  0  0  0  0  0  0
  162.6060  210.5900  154.2930 N   0  0  0  0  0  0  0  0  0  0  0  0
  162.5170  210.1230  153.0190 C   0  0  0  0  0  3  0  0  0  0  0  0
  159.3560  210.0110  155.7570 C   0  0  1  0  0  3  0  0  0  0  0  0
  159.4790  209.2620  154.4990 N   0  0  0  0  0  2  0  0  0  0  0  0
  160.8190  209.2770  154.1370 N   0  0  0  0  0  0  0  0  0  0  0  0
  160.7650  210.6080  156.0410 C   0  0  0  0  0  2  0  0  0  0  0  0
  161.3700  209.3490  152.9220 C   0  0  0  0  0  0  0  0  0  0  0  0
  158.3330  211.1040  155.6420 C   0  0  0  0  0  0  0  0  0  0  0  0
  156.4050  213.0810  155.3380 C   0  0  0  0  0  3  0  0  0  0  0  0
  156.9740  212.4960  154.2490 N   0  0  0  0  0  0  0  0  0  0  0  0
  156.7800  212.6870  156.6230 C   0  0  0  0  0  3  0  0  0  0  0  0
  157.9180  211.5220  154.3740 C   0  0  0  0  0  3  0  0  0  0  0  0
  157.7450  211.6890  156.7730 C   0  0  0  0  0  3  0  0  0  0  0  0
  1  4  1  1  0  0  0
  2  1  1  0  0  0  0
  2 17  1  1  0  0  0
  3  6  1  6  0  0  0
  3  8  1  0  0  0  0
  5 10  1  6  0  0  0
  5  2  1  0  0  0  0
  7  5  1  0  0  0  0
  8  6  1  6  0  0  0
  8  4  1  0  0  0  0
  9  7  1  6  0  0  0
  9  3  1  0  0  0  0
  9  1  1  0  0  0  0
 11 12  1  0  0  0  0
 12 10  1  0  0  0  0
 13 14  1  0  0  0  0
 14 12  2  0  0  0  0
 15 13  2  0  0  0  0
 15 16  1  0  0  0  0
 16 11  2  0  0  0  0
 18 17  1  0  0  0  0
 18 26  1  0  0  0  0
 19 25  1  0  0  0  0
 20 19  2  0  0  0  0
 21 20  1  0  0  0  0
 22 27  1  6  0  0  0
 22 25  1  0  0  0  0
 23 22  1  0  0  0  0
 24 23  1  0  0  0  0
 24 19  1  0  0  0  0
 26 21  2  0  0  0  0
 26 24  1  0  0  0  0
 27 32  1  0  0  0  0
 28 30  1  0  0  0  0
 29 31  1  0  0  0  0
 29 28  2  0  0  0  0
 30 32  2  0  0  0  0
 31 27  2  0  0  0  0
M  END
>  <MODEL>
2

>  <REMARK>
 VINA RESULT:      -7.6      4.968      7.596
  Name = 
  6 active torsions:
  status: ('A' for Active; 'I' for Inactive)
    1  A    between atoms: C_2  and  C_11
    2  A    between atoms: C_9  and  C_16
    3  A    between atoms: C_10  and  O_30
    4  A    between atoms: C_16  and  C_21
    5  A    between atoms: C_18  and  C_23
    6  A    between atoms: C_18  and  O_30
                            x       y       z     vdW  Elec       q    Type
                         _______ _______ _______ _____ _____    ______ ____

>  <TORSDO>
F 6

$$$$
=
 OpenBabel11072411513D

 32 38  0  0  1  0  0  0  0  0999 V2000
  162.4820  208.2480  150.4310 C   0  0  1  0  0  3  0  0  0  0  0  0
  162.2010  208.7130  149.0020 C   0  0  1  0  0  3  0  0  0  0  0  0
  160.6310  207.4970  151.6910 C   0  0  1  0  0  3  0  0  0  0  0  0
  162.2360  209.2990  151.4990 C   0  0  0  0  0  2  0  0  0  0  0  0
  161.5270  207.5320  148.3500 C   0  0  2  0  0  3  0  0  0  0  0  0
  161.2470  207.6320  153.0700 C   0  0  0  0  0  2  0  0  0  0  0  0
  160.9410  206.7320  149.4940 C   0  0  0  0  0  2  0  0  0  0  0  0
  160.9840  208.8710  152.2310 C   0  0  2  0  0  3  0  0  0  0  0  0
  161.6460  207.0840  150.7240 N   0  0  1  0  0  0  0  0  0  0  0  0
  162.5660  206.6940  147.6190 C   0  0  0  0  0  2  0  0  0  0  0  0
  162.1790  204.3710  146.7580 C   0  0  0  0  0  3  0  0  0  0  0  0
  161.8940  205.7420  146.6830 C   0  0  0  0  0  0  0  0  0  0  0  0
  160.3980  205.3200  144.8160 C   0  0  0  0  0  3  0  0  0  0  0  0
  161.0070  206.2150  145.7070 C   0  0  0  0  0  3  0  0  0  0  0  0
  160.6800  203.9500  144.8970 C   0  0  0  0  0  3  0  0  0  0  0  0
  161.5730  203.4770  145.8650 C   0  0  0  0  0  3  0  0  0  0  0  0
  161.3410  209.8180  148.9700 O   0  0  0  0  0  0  0  0  0  0  0  0
  162.0510  210.7890  148.2590 C   0  0  0  0  0  2  0  0  0  0  0  0
  159.9970  213.6970  148.2560 C   0  0  0  0  0  0  0  0  0  0  0  0
  159.4930  213.1550  147.1290 N   0  0  0  0  0  0  0  0  0  0  0  0
  160.2650  212.0570  146.9150 C   0  0  0  0  0  3  0  0  0  0  0  0
  160.0610  214.0730  150.5750 C   0  0  1  0  0  3  0  0  0  0  0  0
  161.0780  213.1050  150.1410 N   0  0  0  0  0  2  0  0  0  0  0  0
  160.9990  213.0130  148.7580 N   0  0  0  0  0  0  0  0  0  0  0  0
  159.2560  214.4530  149.2980 C   0  0  0  0  0  2  0  0  0  0  0  0
  161.1650  211.9500  147.9660 C   0  0  0  0  0  0  0  0  0  0  0  0
  159.1550  213.4820  151.6150 C   0  0  0  0  0  0  0  0  0  0  0  0
  157.3930  212.4350  153.4910 C   0  0  0  0  0  3  0  0  0  0  0  0
  157.1430  213.6360  152.9010 N   0  0  0  0  0  0  0  0  0  0  0  0
  158.5380  211.7120  153.1520 C   0  0  0  0  0  3  0  0  0  0  0  0
  157.9900  214.1670  151.9770 C   0  0  0  0  0  3  0  0  0  0  0  0
  159.4180  212.2380  152.2050 C   0  0  0  0  0  3  0  0  0  0  0  0
  1  9  1  0  0  0  0
  1  4  1  1  0  0  0
  2 17  1  1  0  0  0
  2  1  1  0  0  0  0
  3  8  1  0  0  0  0
  3  6  1  1  0  0  0
  5 10  1  1  0  0  0
  5  2  1  0  0  0  0
  5  7  1  0  0  0  0
  8  4  1  6  0  0  0
  8  6  1  0  0  0  0
  9  7  1  6  0  0  0
  9  3  1  0  0  0  0
 12 11  1  0  0  0  0
 12 10  1  0  0  0  0
 13 15  2  0  0  0  0
 13 14  1  0  0  0  0
 14 12  2  0  0  0  0
 15 16  1  0  0  0  0
 16 11  2  0  0  0  0
 18 17  1  0  0  0  0
 19 24  1  0  0  0  0
 19 25  1  0  0  0  0
 20 19  2  0  0  0  0
 21 20  1  0  0  0  0
 21 26  2  0  0  0  0
 22 27  1  1  0  0  0
 23 22  1  0  0  0  0
 24 23  1  0  0  0  0
 25 22  1  0  0  0  0
 26 18  1  0  0  0  0
 26 24  1  0  0  0  0
 27 31  2  0  0  0  0
 27 32  1  0  0  0  0
 29 28  2  0  0  0  0
 30 28  1  0  0  0  0
 31 29  1  0  0  0  0
 32 30  2  0  0  0  0
M  END
>  <MODEL>
3

>  <REMARK>
 VINA RESULT:      -7.5      2.253      4.895
  Name = 
  6 active torsions:
  status: ('A' for Active; 'I' for Inactive)
    1  A    between atoms: C_2  and  C_11
    2  A    between atoms: C_9  and  C_16
    3  A    between atoms: C_10  and  O_30
    4  A    between atoms: C_16  and  C_21
    5  A    between atoms: C_18  and  C_23
    6  A    between atoms: C_18  and  O_30
                            x       y       z     vdW  Elec       q    Type
                         _______ _______ _______ _____ _____    ______ ____

>  <TORSDO>
F 6

$$$$
=
 OpenBabel11072411513D

 32 38  0  0  1  0  0  0  0  0999 V2000
  160.6640  207.7780  152.1860 C   0  0  1  0  0  3  0  0  0  0  0  0
  160.8860  206.9620  153.4590 C   0  0  1  0  0  3  0  0  0  0  0  0
  162.5680  208.2320  150.8640 C   0  0  1  0  0  3  0  0  0  0  0  0
  160.9410  209.2640  152.3300 C   0  0  0  0  0  2  0  0  0  0  0  0
  161.5450  205.6930  152.9790 C   0  0  2  0  0  3  0  0  0  0  0  0
  162.0030  209.3990  150.0770 C   0  0  0  0  0  2  0  0  0  0  0  0
  162.1810  206.0570  151.6540 C   0  0  0  0  0  2  0  0  0  0  0  0
  162.2240  209.5290  151.5740 C   0  0  2  0  0  3  0  0  0  0  0  0
  161.5200  207.2470  151.1260 N   0  0  1  0  0  0  0  0  0  0  0  0
  160.4860  204.6220  152.7620 C   0  0  0  0  0  2  0  0  0  0  0  0
  160.5600  204.4500  150.2620 C   0  0  0  0  0  3  0  0  0  0  0  0
  160.7780  203.8550  151.5130 C   0  0  0  0  0  0  0  0  0  0  0  0
  161.4850  201.8110  150.4070 C   0  0  0  0  0  3  0  0  0  0  0  0
  161.2370  202.5330  151.5830 C   0  0  0  0  0  3  0  0  0  0  0  0
  161.2720  202.4100  149.1580 C   0  0  0  0  0  3  0  0  0  0  0  0
  160.8060  203.7270  149.0860 C   0  0  0  0  0  3  0  0  0  0  0  0
  161.7350  207.6170  154.3610 O   0  0  0  0  0  0  0  0  0  0  0  0
  160.9750  207.7370  155.5270 C   0  0  0  0  0  2  0  0  0  0  0  0
  160.9140  211.0930  156.7150 C   0  0  0  0  0  0  0  0  0  0  0  0
  162.2490  210.9220  156.8120 N   0  0  0  0  0  0  0  0  0  0  0  0
  162.4400  209.6150  156.4910 C   0  0  0  0  0  3  0  0  0  0  0  0
  158.9410  211.7330  155.6100 C   0  0  1  0  0  3  0  0  0  0  0  0
  159.1310  210.2750  155.6100 N   0  0  0  0  0  2  0  0  0  0  0  0
  160.2780  210.0060  156.3430 N   0  0  0  0  0  0  0  0  0  0  0  0
  160.1940  212.3290  156.3150 C   0  0  0  0  0  2  0  0  0  0  0  0
  161.2110  209.0700  156.1500 C   0  0  0  0  0  0  0  0  0  0  0  0
  158.8160  212.2660  154.2130 C   0  0  0  0  0  0  0  0  0  0  0  0
  158.5140  213.3260  151.6620 C   0  0  0  0  0  3  0  0  0  0  0  0
  157.4770  213.3370  152.5440 N   0  0  0  0  0  0  0  0  0  0  0  0
  159.7460  212.7870  152.0350 C   0  0  0  0  0  3  0  0  0  0  0  0
  157.6030  212.8260  153.8000 C   0  0  0  0  0  3  0  0  0  0  0  0
  159.8970  212.2610  153.3190 C   0  0  0  0  0  3  0  0  0  0  0  0
  1  4  1  1  0  0  0
  1  2  1  0  0  0  0
  2 17  1  1  0  0  0
  3  6  1  6  0  0  0
  3  9  1  0  0  0  0
  3  8  1  0  0  0  0
  5 10  1  6  0  0  0
  5  2  1  0  0  0  0
  7  5  1  0  0  0  0
  8  6  1  6  0  0  0
  8  4  1  0  0  0  0
  9  7  1  1  0  0  0
  9  1  1  0  0  0  0
 11 12  1  0  0  0  0
 12 14  2  0  0  0  0
 12 10  1  0  0  0  0
 13 14  1  0  0  0  0
 15 13  2  0  0  0  0
 16 15  1  0  0  0  0
 16 11  2  0  0  0  0
 17 18  1  0  0  0  0
 18 26  1  0  0  0  0
 19 20  2  0  0  0  0
 21 20  1  0  0  0  0
 22 27  1  6  0  0  0
 22 23  1  0  0  0  0
 22 25  1  0  0  0  0
 23 24  1  0  0  0  0
 24 19  1  0  0  0  0
 25 19  1  0  0  0  0
 26 24  1  0  0  0  0
 26 21  2  0  0  0  0
 28 30  2  0  0  0  0
 28 29  1  0  0  0  0
 29 31  2  0  0  0  0
 30 32  1  0  0  0  0
 31 27  1  0  0  0  0
 32 27  2  0  0  0  0
M  END
>  <MODEL>
4

>  <REMARK>
 VINA RESULT:      -7.3      5.121      7.575
  Name = 
  6 active torsions:
  status: ('A' for Active; 'I' for Inactive)
    1  A    between atoms: C_2  and  C_11
    2  A    between atoms: C_9  and  C_16
    3  A    between atoms: C_10  and  O_30
    4  A    between atoms: C_16  and  C_21
    5  A    between atoms: C_18  and  C_23
    6  A    between atoms: C_18  and  O_30
                            x       y       z     vdW  Elec       q    Type
                         _______ _______ _______ _____ _____    ______ ____

>  <TORSDO>
F 6

$$$$
=
 OpenBabel11072411513D

 32 38  0  0  1  0  0  0  0  0999 V2000
  162.4500  208.1190  150.1440 C   0  0  1  0  0  3  0  0  0  0  0  0
  162.1800  208.6440  148.7350 C   0  0  1  0  0  3  0  0  0  0  0  0
  160.5940  207.2940  151.3500 C   0  0  1  0  0  3  0  0  0  0  0  0
  162.1820  209.1180  151.2550 C   0  0  0  0  0  2  0  0  0  0  0  0
  161.5240  207.4870  148.0240 C   0  0  2  0  0  3  0  0  0  0  0  0
  161.1940  207.3740  152.7390 C   0  0  0  0  0  2  0  0  0  0  0  0
  160.9340  206.6320  149.1240 C   0  0  0  0  0  2  0  0  0  0  0  0
  160.9270  208.6460  151.9540 C   0  0  2  0  0  3  0  0  0  0  0  0
  161.6230  206.9350  150.3760 N   0  0  1  0  0  0  0  0  0  0  0  0
  162.5790  206.6930  147.2680 C   0  0  0  0  0  2  0  0  0  0  0  0
  161.9480  204.2710  147.1200 C   0  0  0  0  0  3  0  0  0  0  0  0
  161.9430  205.5500  146.5450 C   0  0  0  0  0  0  0  0  0  0  0  0
  160.7990  204.6580  144.5960 C   0  0  0  0  0  3  0  0  0  0  0  0
  161.3720  205.7400  145.2790 C   0  0  0  0  0  3  0  0  0  0  0  0
  160.7990  203.3830  145.1760 C   0  0  0  0  0  3  0  0  0  0  0  0
  161.3760  203.1890  146.4360 C   0  0  0  0  0  3  0  0  0  0  0  0
  161.3080  209.7420  148.7420 O   0  0  0  0  0  0  0  0  0  0  0  0
  162.0640  210.7880  148.2070 C   0  0  0  0  0  2  0  0  0  0  0  0
  160.0310  213.5400  147.2250 C   0  0  0  0  0  0  0  0  0  0  0  0
  160.4980  214.0950  148.3620 N   0  0  0  0  0  0  0  0  0  0  0  0
  161.2280  213.1040  148.9390 C   0  0  0  0  0  3  0  0  0  0  0  0
  160.0750  213.0960  144.9180 C   0  0  1  0  0  3  0  0  0  0  0  0
  160.5660  211.9610  145.7110 N   0  0  0  0  0  2  0  0  0  0  0  0
  160.4300  212.3020  147.0500 N   0  0  0  0  0  0  0  0  0  0  0  0
  159.7560  214.2270  145.9370 C   0  0  0  0  0  2  0  0  0  0  0  0
  161.2220  212.0100  148.0860 C   0  0  0  0  0  0  0  0  0  0  0  0
  161.1040  213.5520  143.9260 C   0  0  0  0  0  0  0  0  0  0  0  0
  162.9310  214.4340  142.0270 C   0  0  0  0  0  3  0  0  0  0  0  0
  161.6930  214.0090  141.6520 N   0  0  0  0  0  0  0  0  0  0  0  0
  163.2930  214.4380  143.3750 C   0  0  0  0  0  3  0  0  0  0  0  0
  160.7810  213.5760  142.5650 C   0  0  0  0  0  3  0  0  0  0  0  0
  162.3710  214.0000  144.3270 C   0  0  0  0  0  3  0  0  0  0  0  0
  1  9  1  0  0  0  0
  1  4  1  1  0  0  0
  2 17  1  1  0  0  0
  2  1  1  0  0  0  0
  3  8  1  0  0  0  0
  3  6  1  1  0  0  0
  5 10  1  1  0  0  0
  5  2  1  0  0  0  0
  5  7  1  0  0  0  0
  8  4  1  6  0  0  0
  8  6  1  0  0  0  0
  9  7  1  6  0  0  0
  9  3  1  0  0  0  0
 12 11  1  0  0  0  0
 12 10  1  0  0  0  0
 13 15  2  0  0  0  0
 13 14  1  0  0  0  0
 14 12  2  0  0  0  0
 15 16  1  0  0  0  0
 16 11  2  0  0  0  0
 18 17  1  0  0  0  0
 19 20  2  0  0  0  0
 20 21  1  0  0  0  0
 22 27  1  6  0  0  0
 22 23  1  0  0  0  0
 22 25  1  0  0  0  0
 23 24  1  0  0  0  0
 24 19  1  0  0  0  0
 24 26  1  0  0  0  0
 25 19  1  0  0  0  0
 26 18  1  0  0  0  0
 26 21  2  0  0  0  0
 27 32  1  0  0  0  0
 28 30  1  0  0  0  0
 29 28  2  0  0  0  0
 29 31  1  0  0  0  0
 30 32  2  0  0  0  0
 31 27  2  0  0  0  0
M  END
>  <MODEL>
5

>  <REMARK>
 VINA RESULT:      -7.1      1.064      1.404
  Name = 
  6 active torsions:
  status: ('A' for Active; 'I' for Inactive)
    1  A    between atoms: C_2  and  C_11
    2  A    between atoms: C_9  and  C_16
    3  A    between atoms: C_10  and  O_30
    4  A    between atoms: C_16  and  C_21
    5  A    between atoms: C_18  and  C_23
    6  A    between atoms: C_18  and  O_30
                            x       y       z     vdW  Elec       q    Type
                         _______ _______ _______ _____ _____    ______ ____

>  <TORSDO>
F 6

$$$$
=
 OpenBabel11072411513D

 32 38  0  0  1  0  0  0  0  0999 V2000
  157.4820  212.0250  154.1810 C   0  0  1  0  0  3  0  0  0  0  0  0
  158.5570  211.9650  153.0980 C   0  0  1  0  0  3  0  0  0  0  0  0
  157.9020  213.4380  156.0260 C   0  0  1  0  0  3  0  0  0  0  0  0
  157.7290  211.1140  155.3710 C   0  0  0  0  0  2  0  0  0  0  0  0
  158.7360  213.4000  152.6700 C   0  0  2  0  0  3  0  0  0  0  0  0
  156.9090  212.8230  156.9930 C   0  0  0  0  0  2  0  0  0  0  0  0
  158.2530  214.2250  153.8440 C   0  0  0  0  0  2  0  0  0  0  0  0
  158.1080  212.0190  156.5220 C   0  0  2  0  0  3  0  0  0  0  0  0
  157.3700  213.4010  154.6660 N   0  0  1  0  0  0  0  0  0  0  0  0
  157.8650  213.6800  151.4540 C   0  0  0  0  0  2  0  0  0  0  0  0
  158.0740  213.4930  148.9630 C   0  0  0  0  0  3  0  0  0  0  0  0
  158.6930  213.6570  150.2100 C   0  0  0  0  0  0  0  0  0  0  0  0
  160.8610  213.7190  149.1160 C   0  0  0  0  0  3  0  0  0  0  0  0
  160.0880  213.7650  150.2850 C   0  0  0  0  0  3  0  0  0  0  0  0
  160.2390  213.5600  147.8700 C   0  0  0  0  0  3  0  0  0  0  0  0
  158.8470  213.4440  147.7940 C   0  0  0  0  0  3  0  0  0  0  0  0
  159.7710  211.4700  153.5910 O   0  0  0  0  0  0  0  0  0  0  0  0
  160.3190  210.7630  152.5180 C   0  0  0  0  0  2  0  0  0  0  0  0
  161.7250  207.5240  152.9720 C   0  0  0  0  0  0  0  0  0  0  0  0
  160.7500  207.3960  153.8950 N   0  0  0  0  0  0  0  0  0  0  0  0
  160.1650  208.6230  153.9310 C   0  0  0  0  0  3  0  0  0  0  0  0
  162.6310  207.3200  150.8140 C   0  0  1  0  0  3  0  0  0  0  0  0
  162.2230  208.6980  151.1170 N   0  0  0  0  0  2  0  0  0  0  0  0
  161.7720  208.7180  152.4290 N   0  0  0  0  0  0  0  0  0  0  0  0
  162.2400  206.4720  152.0590 C   0  0  0  0  0  2  0  0  0  0  0  0
  160.7760  209.4210  152.9760 C   0  0  0  0  0  0  0  0  0  0  0  0
  161.9400  206.8040  149.5850 C   0  0  0  0  0  0  0  0  0  0  0  0
  160.7270  205.9090  147.2510 C   0  0  0  0  0  3  0  0  0  0  0  0
  161.2760  207.1530  147.3130 N   0  0  0  0  0  0  0  0  0  0  0  0
  160.7750  205.0650  148.3610 C   0  0  0  0  0  3  0  0  0  0  0  0
  161.8790  207.6120  148.4450 C   0  0  0  0  0  3  0  0  0  0  0  0
  161.3900  205.5150  149.5300 C   0  0  0  0  0  3  0  0  0  0  0  0
  1  9  1  0  0  0  0
  1  4  1  1  0  0  0
  2 17  1  1  0  0  0
  2  1  1  0  0  0  0
  3  8  1  0  0  0  0
  3  6  1  1  0  0  0
  5 10  1  6  0  0  0
  5  2  1  0  0  0  0
  5  7  1  0  0  0  0
  8  4  1  6  0  0  0
  8  6  1  0  0  0  0
  9  7  1  6  0  0  0
  9  3  1  0  0  0  0
 11 12  1  0  0  0  0
 12 14  2  0  0  0  0
 12 10  1  0  0  0  0
 13 14  1  0  0  0  0
 15 13  2  0  0  0  0
 16 15  1  0  0  0  0
 16 11  2  0  0  0  0
 18 26  1  0  0  0  0
 18 17  1  0  0  0  0
 19 20  2  0  0  0  0
 20 21  1  0  0  0  0
 22 27  1  6  0  0  0
 22 23  1  0  0  0  0
 22 25  1  0  0  0  0
 23 24  1  0  0  0  0
 24 19  1  0  0  0  0
 24 26  1  0  0  0  0
 25 19  1  0  0  0  0
 26 21  2  0  0  0  0
 28 29  2  0  0  0  0
 28 30  1  0  0  0  0
 29 31  1  0  0  0  0
 30 32  2  0  0  0  0
 31 27  2  0  0  0  0
 32 27  1  0  0  0  0
M  END
>  <MODEL>
6

>  <REMARK>
 VINA RESULT:      -6.6      3.605      7.936
  Name = 
  6 active torsions:
  status: ('A' for Active; 'I' for Inactive)
    1  A    between atoms: C_2  and  C_11
    2  A    between atoms: C_9  and  C_16
    3  A    between atoms: C_10  and  O_30
    4  A    between atoms: C_16  and  C_21
    5  A    between atoms: C_18  and  C_23
    6  A    between atoms: C_18  and  O_30
                            x       y       z     vdW  Elec       q    Type
                         _______ _______ _______ _____ _____    ______ ____

>  <TORSDO>
F 6

$$$$
=
 OpenBabel11072411513D

 32 38  0  0  1  0  0  0  0  0999 V2000
  160.4580  206.8210  150.6440 C   0  0  1  0  0  3  0  0  0  0  0  0
  161.0930  207.9670  151.4300 C   0  0  1  0  0  3  0  0  0  0  0  0
  161.8850  205.0600  149.9830 C   0  0  1  0  0  3  0  0  0  0  0  0
  160.6030  206.9300  149.1360 C   0  0  0  0  0  2  0  0  0  0  0  0
  161.7330  207.2950  152.6180 C   0  0  2  0  0  3  0  0  0  0  0  0
  161.0120  204.4820  148.8870 C   0  0  0  0  0  2  0  0  0  0  0  0
  161.9550  205.8610  152.1880 C   0  0  0  0  0  2  0  0  0  0  0  0
  161.6050  205.8720  148.7320 C   0  0  2  0  0  3  0  0  0  0  0  0
  161.0550  205.5590  151.0770 N   0  0  1  0  0  0  0  0  0  0  0  0
  160.7750  207.3330  153.8000 C   0  0  0  0  0  2  0  0  0  0  0  0
  161.5760  207.9950  156.0810 C   0  0  0  0  0  3  0  0  0  0  0  0
  161.2080  208.3720  154.7820 C   0  0  0  0  0  0  0  0  0  0  0  0
  161.5990  210.7000  155.3570 C   0  0  0  0  0  3  0  0  0  0  0  0
  161.2150  209.7270  154.4230 C   0  0  0  0  0  3  0  0  0  0  0  0
  161.9730  210.3200  156.6520 C   0  0  0  0  0  3  0  0  0  0  0  0
  161.9580  208.9690  157.0150 C   0  0  0  0  0  3  0  0  0  0  0  0
  162.0750  208.6330  150.6850 O   0  0  0  0  0  0  0  0  0  0  0  0
  161.9070  209.9800  151.0160 C   0  0  0  0  0  2  0  0  0  0  0  0
  161.4800  212.4210  148.4600 C   0  0  0  0  0  0  0  0  0  0  0  0
  161.6660  211.3700  147.6350 N   0  0  0  0  0  0  0  0  0  0  0  0
  161.9620  210.3400  148.4720 C   0  0  0  0  0  3  0  0  0  0  0  0
  160.1740  213.9090  149.7250 C   0  0  1  0  0  3  0  0  0  0  0  0
  160.8240  212.8910  150.5620 N   0  0  0  0  0  2  0  0  0  0  0  0
  161.6190  212.1160  149.7290 N   0  0  0  0  0  0  0  0  0  0  0  0
  160.5610  213.5700  148.2570 C   0  0  0  0  0  2  0  0  0  0  0  0
  161.8770  210.8060  149.7760 C   0  0  0  0  0  0  0  0  0  0  0  0
  158.6840  213.8860  149.8980 C   0  0  0  0  0  0  0  0  0  0  0  0
  155.9340  213.9130  150.2980 C   0  0  0  0  0  3  0  0  0  0  0  0
  156.7880  214.0900  151.3440 N   0  0  0  0  0  0  0  0  0  0  0  0
  156.4340  213.7230  149.0090 C   0  0  0  0  0  3  0  0  0  0  0  0
  158.1390  214.0840  151.1710 C   0  0  0  0  0  3  0  0  0  0  0  0
  157.8150  213.7160  148.8100 C   0  0  0  0  0  3  0  0  0  0  0  0
  1  4  1  6  0  0  0
  1  9  1  0  0  0  0
  1  2  1  0  0  0  0
  2 17  1  6  0  0  0
  2  5  1  0  0  0  0
  3  6  1  6  0  0  0
  3  9  1  0  0  0  0
  5 10  1  1  0  0  0
  7  5  1  0  0  0  0
  8  6  1  6  0  0  0
  8  4  1  0  0  0  0
  8  3  1  0  0  0  0
  9  7  1  1  0  0  0
 10 12  1  0  0  0  0
 11 16  1  0  0  0  0
 12 11  2  0  0  0  0
 13 15  1  0  0  0  0
 14 12  1  0  0  0  0
 14 13  2  0  0  0  0
 15 16  2  0  0  0  0
 17 18  1  0  0  0  0
 19 24  1  0  0  0  0
 20 19  2  0  0  0  0
 20 21  1  0  0  0  0
 21 26  2  0  0  0  0
 22 27  1  6  0  0  0
 22 23  1  0  0  0  0
 24 26  1  0  0  0  0
 24 23  1  0  0  0  0
 25 19  1  0  0  0  0
 25 22  1  0  0  0  0
 26 18  1  0  0  0  0
 27 31  1  0  0  0  0
 28 29  1  0  0  0  0
 30 28  2  0  0  0  0
 31 29  2  0  0  0  0
 32 30  1  0  0  0  0
 32 27  2  0  0  0  0
M  END
>  <MODEL>
7

>  <REMARK>
 VINA RESULT:      -6.4      3.205      6.734
  Name = 
  6 active torsions:
  status: ('A' for Active; 'I' for Inactive)
    1  A    between atoms: C_2  and  C_11
    2  A    between atoms: C_9  and  C_16
    3  A    between atoms: C_10  and  O_30
    4  A    between atoms: C_16  and  C_21
    5  A    between atoms: C_18  and  C_23
    6  A    between atoms: C_18  and  O_30
                            x       y       z     vdW  Elec       q    Type
                         _______ _______ _______ _____ _____    ______ ____

>  <TORSDO>
F 6

$$$$
=
 OpenBabel11072411513D

 32 38  0  0  1  0  0  0  0  0999 V2000
  162.2850  206.0270  151.1130 C   0  0  1  0  0  3  0  0  0  0  0  0
  161.9570  207.4960  150.8490 C   0  0  1  0  0  3  0  0  0  0  0  0
  160.4570  204.5400  151.2850 C   0  0  1  0  0  3  0  0  0  0  0  0
  162.2060  205.6110  152.5710 C   0  0  0  0  0  2  0  0  0  0  0  0
  161.1360  207.4750  149.5850 C   0  0  2  0  0  3  0  0  0  0  0  0
  161.1710  203.4130  152.0060 C   0  0  0  0  0  2  0  0  0  0  0  0
  160.5530  206.0800  149.5160 C   0  0  0  0  0  2  0  0  0  0  0  0
  160.9700  204.7500  152.6980 C   0  0  2  0  0  3  0  0  0  0  0  0
  161.3660  205.1890  150.3420 N   0  0  1  0  0  0  0  0  0  0  0  0
  162.0440  207.7100  148.3860 C   0  0  0  0  0  2  0  0  0  0  0  0
  160.6520  206.7420  146.5390 C   0  0  0  0  0  3  0  0  0  0  0  0
  161.7990  206.6690  147.3430 C   0  0  0  0  0  0  0  0  0  0  0  0
  162.4420  204.6130  146.2190 C   0  0  0  0  0  3  0  0  0  0  0  0
  162.6910  205.6000  147.1840 C   0  0  0  0  0  3  0  0  0  0  0  0
  161.2980  204.6930  145.4140 C   0  0  0  0  0  3  0  0  0  0  0  0
  160.4020  205.7550  145.5770 C   0  0  0  0  0  3  0  0  0  0  0  0
  161.2020  208.0590  151.8870 O   0  0  0  0  0  0  0  0  0  0  0  0
  162.1520  208.6430  152.7290 C   0  0  0  0  0  2  0  0  0  0  0  0
  160.0990  211.0000  154.4340 C   0  0  0  0  0  0  0  0  0  0  0  0
  161.2000  211.1820  155.1920 N   0  0  0  0  0  0  0  0  0  0  0  0
  162.0770  210.2500  154.7320 C   0  0  0  0  0  3  0  0  0  0  0  0
  158.6770  211.4750  152.6240 C   0  0  1  0  0  3  0  0  0  0  0  0
  159.4940  210.2760  152.3890 N   0  0  0  0  0  2  0  0  0  0  0  0
  160.2370  210.0490  153.5390 N   0  0  0  0  0  0  0  0  0  0  0  0
  159.1220  212.0330  154.0070 C   0  0  0  0  0  2  0  0  0  0  0  0
  161.4840  209.5860  153.6680 C   0  0  0  0  0  0  0  0  0  0  0  0
  158.8910  212.4990  151.5480 C   0  0  0  0  0  0  0  0  0  0  0  0
  159.2080  214.4530  149.5980 C   0  0  0  0  0  3  0  0  0  0  0  0
  157.9880  214.2240  150.1570 N   0  0  0  0  0  0  0  0  0  0  0  0
  160.3170  213.7110  150.0060 C   0  0  0  0  0  3  0  0  0  0  0  0
  157.8100  213.2740  151.1160 C   0  0  0  0  0  3  0  0  0  0  0  0
  160.1560  212.7340  150.9900 C   0  0  0  0  0  3  0  0  0  0  0  0
  1  4  1  1  0  0  0
  2  1  1  0  0  0  0
  2 17  1  1  0  0  0
  3  6  1  6  0  0  0
  3  8  1  0  0  0  0
  4  8  1  0  0  0  0
  5 10  1  6  0  0  0
  5  2  1  0  0  0  0
  7  5  1  0  0  0  0
  8  6  1  6  0  0  0
  9  7  1  6  0  0  0
  9  1  1  0  0  0  0
  9  3  1  0  0  0  0
 11 12  1  0  0  0  0
 12 10  1  0  0  0  0
 13 14  1  0  0  0  0
 14 12  2  0  0  0  0
 15 16  1  0  0  0  0
 15 13  2  0  0  0  0
 16 11  2  0  0  0  0
 17 18  1  0  0  0  0
 18 26  1  0  0  0  0
 19 20  2  0  0  0  0
 21 20  1  0  0  0  0
 22 27  1  6  0  0  0
 22 25  1  0  0  0  0
 23 22  1  0  0  0  0
 23 24  1  0  0  0  0
 24 26  1  0  0  0  0
 24 19  1  0  0  0  0
 25 19  1  0  0  0  0
 26 21  2  0  0  0  0
 28 30  2  0  0  0  0
 28 29  1  0  0  0  0
 29 31  2  0  0  0  0
 30 32  1  0  0  0  0
 31 27  1  0  0  0  0
 32 27  2  0  0  0  0
M  END
>  <MODEL>
8

>  <REMARK>
 VINA RESULT:      -6.1      3.862      5.653
  Name = 
  6 active torsions:
  status: ('A' for Active; 'I' for Inactive)
    1  A    between atoms: C_2  and  C_11
    2  A    between atoms: C_9  and  C_16
    3  A    between atoms: C_10  and  O_30
    4  A    between atoms: C_16  and  C_21
    5  A    between atoms: C_18  and  C_23
    6  A    between atoms: C_18  and  O_30
                            x       y       z     vdW  Elec       q    Type
                         _______ _______ _______ _____ _____    ______ ____

>  <TORSDO>
F 6

$$$$
=
 OpenBabel11072411513D

 32 38  0  0  1  0  0  0  0  0999 V2000
  160.5190  206.2820  148.5070 C   0  0  1  0  0  3  0  0  0  0  0  0
  160.8710  207.3850  149.5040 C   0  0  1  0  0  3  0  0  0  0  0  0
  162.3180  205.0480  147.6020 C   0  0  1  0  0  3  0  0  0  0  0  0
  160.6270  206.6890  147.0480 C   0  0  0  0  0  2  0  0  0  0  0  0
  161.6570  206.6800  150.5800 C   0  0  2  0  0  3  0  0  0  0  0  0
  161.6010  204.4880  146.3900 C   0  0  0  0  0  2  0  0  0  0  0  0
  162.2090  205.4370  149.9140 C   0  0  0  0  0  2  0  0  0  0  0  0
  161.8480  205.9820  146.5030 C   0  0  2  0  0  3  0  0  0  0  0  0
  161.3990  205.1370  148.7350 N   0  0  1  0  0  0  0  0  0  0  0  0
  160.7240  206.2820  151.7130 C   0  0  0  0  0  2  0  0  0  0  0  0
  160.9520  206.6710  154.1790 C   0  0  0  0  0  3  0  0  0  0  0  0
  160.9110  207.1960  152.8800 C   0  0  0  0  0  0  0  0  0  0  0  0
  161.1630  209.4350  153.7890 C   0  0  0  0  0  3  0  0  0  0  0  0
  161.0120  208.5810  152.6870 C   0  0  0  0  0  3  0  0  0  0  0  0
  161.2100  208.9070  155.0850 C   0  0  0  0  0  3  0  0  0  0  0  0
  161.1010  207.5260  155.2800 C   0  0  0  0  0  3  0  0  0  0  0  0
  161.6640  208.3830  148.9230 O   0  0  0  0  0  0  0  0  0  0  0  0
  161.6990  209.4000  149.8810 C   0  0  0  0  0  2  0  0  0  0  0  0
  161.9000  212.7780  148.7760 C   0  0  0  0  0  0  0  0  0  0  0  0
  162.3570  212.2190  147.6370 N   0  0  0  0  0  0  0  0  0  0  0  0
  162.4510  210.8950  147.9320 C   0  0  0  0  0  3  0  0  0  0  0  0
  160.2250  213.6230  150.1910 C   0  0  1  0  0  3  0  0  0  0  0  0
  160.6580  212.2750  150.5860 N   0  0  0  0  0  2  0  0  0  0  0  0
  161.6890  211.9050  149.7340 N   0  0  0  0  0  0  0  0  0  0  0  0
  161.0250  213.9710  148.9020 C   0  0  0  0  0  2  0  0  0  0  0  0
  161.9820  210.7060  149.2240 C   0  0  0  0  0  0  0  0  0  0  0  0
  158.7490  213.6650  149.9250 C   0  0  0  0  0  0  0  0  0  0  0  0
  156.0060  213.8200  149.5050 C   0  0  0  0  0  3  0  0  0  0  0  0
  156.5360  214.0930  150.7290 N   0  0  0  0  0  0  0  0  0  0  0  0
  156.8400  213.4660  148.4430 C   0  0  0  0  0  3  0  0  0  0  0  0
  157.8770  214.0260  150.9570 C   0  0  0  0  0  3  0  0  0  0  0  0
  158.2170  213.3950  148.6550 C   0  0  0  0  0  3  0  0  0  0  0  0
  1  4  1  6  0  0  0
  1  9  1  0  0  0  0
  1  2  1  0  0  0  0
  2 17  1  6  0  0  0
  2  5  1  0  0  0  0
  3  6  1  6  0  0  0
  3  9  1  0  0  0  0
  5 10  1  1  0  0  0
  7  5  1  0  0  0  0
  8  6  1  6  0  0  0
  8  4  1  0  0  0  0
  8  3  1  0  0  0  0
  9  7  1  1  0  0  0
 10 12  1  0  0  0  0
 11 16  1  0  0  0  0
 12 11  2  0  0  0  0
 13 15  1  0  0  0  0
 14 12  1  0  0  0  0
 14 13  2  0  0  0  0
 15 16  2  0  0  0  0
 17 18  1  0  0  0  0
 19 25  1  0  0  0  0
 19 24  1  0  0  0  0
 20 21  1  0  0  0  0
 20 19  2  0  0  0  0
 21 26  2  0  0  0  0
 22 27  1  6  0  0  0
 22 23  1  0  0  0  0
 24 23  1  0  0  0  0
 25 22  1  0  0  0  0
 26 24  1  0  0  0  0
 26 18  1  0  0  0  0
 27 31  1  0  0  0  0
 28 29  1  0  0  0  0
 29 31  2  0  0  0  0
 30 32  1  0  0  0  0
 30 28  2  0  0  0  0
 32 27  2  0  0  0  0
M  END
>  <MODEL>
9

>  <REMARK>
 VINA RESULT:      -6.0      2.960      6.200
  Name = 
  6 active torsions:
  status: ('A' for Active; 'I' for Inactive)
    1  A    between atoms: C_2  and  C_11
    2  A    between atoms: C_9  and  C_16
    3  A    between atoms: C_10  and  O_30
    4  A    between atoms: C_16  and  C_21
    5  A    between atoms: C_18  and  C_23
    6  A    between atoms: C_18  and  O_30
                            x       y       z     vdW  Elec       q    Type
                         _______ _______ _______ _____ _____    ______ ____

>  <TORSDO>
F 6

$$$$
