=
 OpenBabel11072412283D

 33 36  0  0  1  0  0  0  0  0999 V2000
  160.5400  207.4190  153.8280 O   0  0  0  0  0  0  0  0  0  0  0  0
  159.9400  209.7300  153.4180 C   0  0  0  0  0  0  0  0  0  0  0  0
  161.3430  207.8440  154.9210 C   0  0  0  0  0  2  0  0  0  0  0  0
  159.2970  210.7570  152.6930 N   0  0  0  0  0  0  0  0  0  0  0  0
  160.7700  209.0730  155.5690 C   0  0  0  0  0  0  0  0  0  0  0  0
  159.0460  211.7180  153.5280 C   0  0  0  0  0  0  0  0  0  0  0  0
  160.8930  209.2640  156.8070 O   0  0  0  0  0  0  0  0  0  0  0  0
  160.4470  208.4390  152.8360 C   0  0  1  0  0  3  0  0  0  0  0  0
  159.5100  211.4030  154.9430 C   0  0  2  0  0  0  0  0  0  0  0  0
  160.1100  210.0400  154.6820 C   0  0  0  0  0  0  0  0  0  0  0  0
  156.9560  213.0620  153.5230 C   0  0  0  0  0  1  0  0  0  0  0  0
  158.4080  213.0190  153.0610 C   0  0  0  0  0  0  0  0  0  0  0  0
  159.1110  214.2230  153.6760 C   0  0  0  0  0  1  0  0  0  0  0  0
  158.4930  213.1460  151.5230 C   0  0  2  0  0  3  0  0  0  0  0  0
  159.6150  213.9100  151.1380 O   0  0  0  0  0  0  0  0  0  0  0  0
  157.3700  213.7060  149.3670 C   0  0  0  0  0  2  0  0  0  0  0  0
  161.0530  214.1950  149.3840 O   0  0  0  0  0  1  0  0  0  0  0  0
  159.8250  213.6610  149.7680 C   0  0  2  0  0  3  0  0  0  0  0  0
  157.2260  213.7430  150.8850 C   0  0  0  0  0  2  0  0  0  0  0  0
  158.7090  214.3070  148.9470 C   0  0  0  0  0  2  0  0  0  0  0  0
  157.3580  210.3650  155.4600 O   0  0  0  0  0  1  0  0  0  0  0  0
  158.2660  211.3490  155.8550 C   0  0  0  0  0  2  0  0  0  0  0  0
  160.4700  212.3820  155.3060 O   0  0  0  0  0  0  0  0  0  0  0  0
  160.3900  212.6770  156.6750 C   0  0  0  0  0  1  0  0  0  0  0  0
  161.7660  208.6500  152.0990 C   0  0  0  0  0  2  0  0  0  0  0  0
  163.2520  207.6250  150.0440 O   0  0  0  0  0  0  0  0  0  0  0  0
  160.6140  205.6940  149.2860 C   0  0  0  0  0  2  0  0  0  0  0  0
  161.6290  204.6550  151.3420 C   0  0  0  0  0  0  0  0  0  0  0  0
  161.9720  203.5610  151.8600 O   0  0  0  0  0  0  0  0  0  0  0  0
  162.0480  207.3120  150.9030 P   0  0  1  0  0  0  0  0  0  0  0  0
  160.4510  204.6730  150.4080 C   0  0  0  0  0  2  0  0  0  0  0  0
  162.3000  205.8230  151.7190 O   0  0  0  0  0  0  0  0  0  0  0  0
  160.5940  207.1050  149.8460 C   0  0  0  0  0  2  0  0  0  0  0  0
  1  3  1  0  0  0  0
  2 10  2  0  0  0  0
  3  5  1  0  0  0  0
  4  2  1  0  0  0  0
  4  6  2  0  0  0  0
  5  7  2  0  0  0  0
  6  9  1  0  0  0  0
  8 25  1  1  0  0  0
  8  2  1  0  0  0  0
  8  1  1  0  0  0  0
  9 23  1  0  0  0  0
  9 22  1  1  0  0  0
 10  9  1  0  0  0  0
 10  5  1  0  0  0  0
 12 11  1  0  0  0  0
 12  6  1  0  0  0  0
 12 13  1  0  0  0  0
 14 12  1  1  0  0  0
 15 14  1  0  0  0  0
 16 19  1  0  0  0  0
 18 17  1  6  0  0  0
 18 15  1  0  0  0  0
 19 14  1  0  0  0  0
 20 16  1  0  0  0  0
 20 18  1  0  0  0  0
 21 22  1  0  0  0  0
 23 24  1  0  0  0  0
 27 33  1  0  0  0  0
 27 31  1  0  0  0  0
 28 32  1  0  0  0  0
 28 29  2  0  0  0  0
 30 26  2  6  0  0  0
 30 32  1  0  0  0  0
 30 25  1  0  0  0  0
 31 28  1  0  0  0  0
 33 30  1  0  0  0  0
M  END
>  <MODEL>
1

>  <REMARK>
 VINA RESULT:      -5.5      0.000      0.000
  Name = 
  6 active torsions:
  status: ('A' for Active; 'I' for Inactive)
    1  A    between atoms: C_7  and  C_13
    2  A    between atoms: O_10  and  C_32
    3  A    between atoms: P_12  and  C_21
    4  A    between atoms: C_13  and  C_26
    5  A    between atoms: C_21  and  C_31
    6  A    between atoms: C_30  and  C_32
                            x       y       z     vdW  Elec       q    Type
                         _______ _______ _______ _____ _____    ______ ____

>  <TORSDO>
F 6

$$$$
=
 OpenBabel11072412283D

 33 36  0  0  1  0  0  0  0  0999 V2000
  160.3010  207.5290  153.3850 O   0  0  0  0  0  0  0  0  0  0  0  0
  159.9930  209.9260  153.2270 C   0  0  0  0  0  0  0  0  0  0  0  0
  161.0840  207.7280  154.5550 C   0  0  0  0  0  2  0  0  0  0  0  0
  159.5140  211.0990  152.6030 N   0  0  0  0  0  0  0  0  0  0  0  0
  160.6170  208.9350  155.3200 C   0  0  0  0  0  0  0  0  0  0  0  0
  159.3270  211.9820  153.5350 C   0  0  0  0  0  0  0  0  0  0  0  0
  160.6900  208.9690  156.5750 O   0  0  0  0  0  0  0  0  0  0  0  0
  160.3820  208.6580  152.5180 C   0  0  1  0  0  3  0  0  0  0  0  0
  159.6700  211.4550  154.9210 C   0  0  2  0  0  0  0  0  0  0  0  0
  160.1240  210.0690  154.5260 C   0  0  0  0  0  0  0  0  0  0  0  0
  159.0140  214.2770  154.4340 C   0  0  0  0  0  1  0  0  0  0  0  0
  158.8690  213.3950  153.1990 C   0  0  0  0  0  0  0  0  0  0  0  0
  159.7380  214.0050  152.1060 C   0  0  0  0  0  1  0  0  0  0  0  0
  157.4050  213.3900  152.7040 C   0  0  2  0  0  3  0  0  0  0  0  0
  157.2610  214.1740  151.5400 O   0  0  0  0  0  0  0  0  0  0  0  0
  154.9830  213.7000  153.2140 C   0  0  0  0  0  2  0  0  0  0  0  0
  155.9360  214.3780  149.6880 O   0  0  0  0  0  1  0  0  0  0  0  0
  156.0290  213.8170  150.9600 C   0  0  2  0  0  3  0  0  0  0  0  0
  156.3960  213.8620  153.7660 C   0  0  0  0  0  2  0  0  0  0  0  0
  154.8790  214.3300  151.8280 C   0  0  0  0  0  2  0  0  0  0  0  0
  157.3320  210.7720  155.1320 O   0  0  0  0  0  1  0  0  0  0  0  0
  158.3770  211.4480  155.7650 C   0  0  0  0  0  2  0  0  0  0  0  0
  160.7120  212.2650  155.4400 O   0  0  0  0  0  0  0  0  0  0  0  0
  160.6430  212.3330  156.8390 C   0  0  0  0  0  1  0  0  0  0  0  0
  161.7570  208.7910  151.8710 C   0  0  0  0  0  2  0  0  0  0  0  0
  163.2740  207.6930  149.8780 O   0  0  0  0  0  0  0  0  0  0  0  0
  160.6590  205.7120  149.1710 C   0  0  0  0  0  2  0  0  0  0  0  0
  161.6570  204.7680  151.2800 C   0  0  0  0  0  0  0  0  0  0  0  0
  162.0010  203.6990  151.8480 O   0  0  0  0  0  0  0  0  0  0  0  0
  162.0620  207.4080  150.7350 P   0  0  1  0  0  0  0  0  0  0  0  0
  160.4900  204.7380  150.3320 C   0  0  0  0  0  2  0  0  0  0  0  0
  162.3150  205.9560  151.6160 O   0  0  0  0  0  0  0  0  0  0  0  0
  160.6230  207.1460  149.6710 C   0  0  0  0  0  2  0  0  0  0  0  0
  1  3  1  0  0  0  0
  2 10  2  0  0  0  0
  3  5  1  0  0  0  0
  4  2  1  0  0  0  0
  4  6  2  0  0  0  0
  5  7  2  0  0  0  0
  6  9  1  0  0  0  0
  8 25  1  1  0  0  0
  8  2  1  0  0  0  0
  8  1  1  0  0  0  0
  9 23  1  0  0  0  0
  9 22  1  1  0  0  0
 10  9  1  0  0  0  0
 10  5  1  0  0  0  0
 12  6  1  0  0  0  0
 12 11  1  0  0  0  0
 13 12  1  0  0  0  0
 14 12  1  1  0  0  0
 14 19  1  0  0  0  0
 15 14  1  0  0  0  0
 16 19  1  0  0  0  0
 18 17  1  6  0  0  0
 18 15  1  0  0  0  0
 18 20  1  0  0  0  0
 20 16  1  0  0  0  0
 21 22  1  0  0  0  0
 23 24  1  0  0  0  0
 27 33  1  0  0  0  0
 27 31  1  0  0  0  0
 28 32  1  0  0  0  0
 28 29  2  0  0  0  0
 30 26  2  6  0  0  0
 30 32  1  0  0  0  0
 30 25  1  0  0  0  0
 31 28  1  0  0  0  0
 33 30  1  0  0  0  0
M  END
>  <MODEL>
2

>  <REMARK>
 VINA RESULT:      -5.1      1.281      1.868
  Name = 
  6 active torsions:
  status: ('A' for Active; 'I' for Inactive)
    1  A    between atoms: C_7  and  C_13
    2  A    between atoms: O_10  and  C_32
    3  A    between atoms: P_12  and  C_21
    4  A    between atoms: C_13  and  C_26
    5  A    between atoms: C_21  and  C_31
    6  A    between atoms: C_30  and  C_32
                            x       y       z     vdW  Elec       q    Type
                         _______ _______ _______ _____ _____    ______ ____

>  <TORSDO>
F 6

$$$$
=
 OpenBabel11072412283D

 33 36  0  0  1  0  0  0  0  0999 V2000
  162.6640  206.7360  150.2480 O   0  0  0  0  0  0  0  0  0  0  0  0
  161.5040  207.4280  152.2600 C   0  0  0  0  0  0  0  0  0  0  0  0
  161.9580  207.7360  149.5240 C   0  0  0  0  0  2  0  0  0  0  0  0
  161.1810  207.3220  153.6300 N   0  0  0  0  0  0  0  0  0  0  0  0
  161.6600  208.9250  150.3930 C   0  0  0  0  0  0  0  0  0  0  0  0
  160.8530  208.5070  154.0420 C   0  0  0  0  0  0  0  0  0  0  0  0
  161.6300  210.0850  149.9080 O   0  0  0  0  0  0  0  0  0  0  0  0
  161.9030  206.2850  151.3670 C   0  0  1  0  0  3  0  0  0  0  0  0
  160.9370  209.5550  152.9410 C   0  0  2  0  0  0  0  0  0  0  0  0
  161.3650  208.6520  151.8070 C   0  0  0  0  0  0  0  0  0  0  0  0
  159.3660  207.6730  155.8480 C   0  0  0  0  0  1  0  0  0  0  0  0
  160.3840  208.7430  155.4710 C   0  0  0  0  0  0  0  0  0  0  0  0
  161.5430  208.6260  156.4520 C   0  0  0  0  0  1  0  0  0  0  0  0
  159.7680  210.1530  155.6160 C   0  0  2  0  0  3  0  0  0  0  0  0
  160.4180  210.8870  156.6310 O   0  0  0  0  0  0  0  0  0  0  0  0
  157.7360  211.5730  155.8900 C   0  0  0  0  0  2  0  0  0  0  0  0
  160.8620  213.0400  157.2610 O   0  0  0  0  0  1  0  0  0  0  0  0
  160.0680  212.2370  156.4430 C   0  0  2  0  0  3  0  0  0  0  0  0
  158.2540  210.1370  155.8880 C   0  0  0  0  0  2  0  0  0  0  0  0
  158.5960  212.4460  156.8000 C   0  0  0  0  0  2  0  0  0  0  0  0
  163.2450  210.3290  152.7130 O   0  0  0  0  0  1  0  0  0  0  0  0
  162.0210  210.5800  153.3360 C   0  0  0  0  0  2  0  0  0  0  0  0
  159.6390  210.1010  152.7700 O   0  0  0  0  0  0  0  0  0  0  0  0
  159.7040  211.4830  152.5440 C   0  0  0  0  0  1  0  0  0  0  0  0
  160.6860  205.4670  150.9460 C   0  0  0  0  0  2  0  0  0  0  0  0
  162.3460  203.3090  151.2110 O   0  0  0  0  0  0  0  0  0  0  0  0
  161.5590  202.4930  148.0530 C   0  0  0  0  0  2  0  0  0  0  0  0
  159.5390  201.8730  149.4220 C   0  0  0  0  0  0  0  0  0  0  0  0
  158.6810  200.9730  149.6100 O   0  0  0  0  0  0  0  0  0  0  0  0
  161.1930  203.8190  150.3760 P   0  0  1  0  0  0  0  0  0  0  0  0
  160.0960  202.0610  148.0380 C   0  0  0  0  0  2  0  0  0  0  0  0
  159.8800  202.7180  150.4830 O   0  0  0  0  0  0  0  0  0  0  0  0
  161.6950  203.8870  148.6390 C   0  0  0  0  0  2  0  0  0  0  0  0
  1  8  1  0  0  0  0
  2  4  1  0  0  0  0
  3  1  1  0  0  0  0
  3  5  1  0  0  0  0
  4  6  2  0  0  0  0
  5 10  1  0  0  0  0
  6 12  1  0  0  0  0
  7  5  2  0  0  0  0
  8 25  1  6  0  0  0
  8  2  1  0  0  0  0
  9 22  1  1  0  0  0
  9  6  1  0  0  0  0
 10  2  2  0  0  0  0
 10  9  1  0  0  0  0
 12 11  1  0  0  0  0
 12 13  1  0  0  0  0
 14 12  1  1  0  0  0
 14 19  1  0  0  0  0
 14 15  1  0  0  0  0
 16 20  1  0  0  0  0
 18 15  1  0  0  0  0
 18 20  1  0  0  0  0
 18 17  1  1  0  0  0
 19 16  1  0  0  0  0
 21 22  1  0  0  0  0
 23  9  1  0  0  0  0
 24 23  1  0  0  0  0
 27 33  1  0  0  0  0
 28 29  2  0  0  0  0
 28 32  1  0  0  0  0
 30 32  1  0  0  0  0
 30 25  1  0  0  0  0
 30 26  2  1  0  0  0
 31 27  1  0  0  0  0
 31 28  1  0  0  0  0
 33 30  1  0  0  0  0
M  END
>  <MODEL>
3

>  <REMARK>
 VINA RESULT:      -4.4      2.522      5.134
  Name = 
  6 active torsions:
  status: ('A' for Active; 'I' for Inactive)
    1  A    between atoms: C_7  and  C_13
    2  A    between atoms: O_10  and  C_32
    3  A    between atoms: P_12  and  C_21
    4  A    between atoms: C_13  and  C_26
    5  A    between atoms: C_21  and  C_31
    6  A    between atoms: C_30  and  C_32
                            x       y       z     vdW  Elec       q    Type
                         _______ _______ _______ _____ _____    ______ ____

>  <TORSDO>
F 6

$$$$
=
 OpenBabel11072412283D

 33 36  0  0  1  0  0  0  0  0999 V2000
  160.5730  205.7180  151.1930 O   0  0  0  0  0  0  0  0  0  0  0  0
  160.7360  207.8430  152.3450 C   0  0  0  0  0  0  0  0  0  0  0  0
  161.4210  205.1430  152.1780 C   0  0  0  0  0  2  0  0  0  0  0  0
  160.4750  209.2230  152.4910 N   0  0  0  0  0  0  0  0  0  0  0  0
  161.2280  205.8070  153.5130 C   0  0  0  0  0  0  0  0  0  0  0  0
  160.4970  209.4870  153.7610 C   0  0  0  0  0  0  0  0  0  0  0  0
  161.3510  205.1530  154.5800 O   0  0  0  0  0  0  0  0  0  0  0  0
  160.8430  207.1100  151.0360 C   0  0  1  0  0  3  0  0  0  0  0  0
  160.7800  208.2570  154.6120 C   0  0  2  0  0  0  0  0  0  0  0  0
  160.9390  207.2480  153.4970 C   0  0  0  0  0  0  0  0  0  0  0  0
  161.5770  211.3460  155.0060 C   0  0  0  0  0  1  0  0  0  0  0  0
  160.3140  210.9090  154.2720 C   0  0  0  0  0  0  0  0  0  0  0  0
  160.1060  211.8810  153.1180 C   0  0  0  0  0  1  0  0  0  0  0  0
  159.0850  210.9980  155.2060 C   0  0  2  0  0  3  0  0  0  0  0  0
  157.9130  211.2840  154.4740 O   0  0  0  0  0  0  0  0  0  0  0  0
  158.0360  211.9450  157.2610 C   0  0  0  0  0  2  0  0  0  0  0  0
  155.6450  211.0100  154.5740 O   0  0  0  0  0  1  0  0  0  0  0  0
  156.8260  210.9770  155.3140 C   0  0  2  0  0  3  0  0  0  0  0  0
  159.2460  212.0300  156.3360 C   0  0  0  0  0  2  0  0  0  0  0  0
  156.7440  211.9990  156.4490 C   0  0  0  0  0  2  0  0  0  0  0  0
  159.6830  206.8400  156.2750 O   0  0  0  0  0  1  0  0  0  0  0  0
  159.5420  207.9890  155.4940 C   0  0  0  0  0  2  0  0  0  0  0  0
  161.9780  208.4990  155.3300 O   0  0  0  0  0  0  0  0  0  0  0  0
  161.7750  208.3450  156.7090 C   0  0  0  0  0  1  0  0  0  0  0  0
  162.1940  207.3650  150.3730 C   0  0  0  0  0  2  0  0  0  0  0  0
  162.2460  208.7520  148.0170 O   0  0  0  0  0  0  0  0  0  0  0  0
  160.4500  206.2570  146.6710 C   0  0  0  0  0  2  0  0  0  0  0  0
  162.7880  205.3500  146.8900 C   0  0  0  0  0  0  0  0  0  0  0  0
  163.6830  204.7020  146.2880 O   0  0  0  0  0  0  0  0  0  0  0  0
  162.0260  207.3610  148.5650 P   0  0  1  0  0  0  0  0  0  0  0  0
  161.3480  205.0260  146.6030 C   0  0  0  0  0  2  0  0  0  0  0  0
  163.1620  206.2830  147.8610 O   0  0  0  0  0  0  0  0  0  0  0  0
  160.3770  206.7830  148.0930 C   0  0  0  0  0  2  0  0  0  0  0  0
  1  3  1  0  0  0  0
  2  4  1  0  0  0  0
  2 10  2  0  0  0  0
  3  5  1  0  0  0  0
  4  6  2  0  0  0  0
  5  7  2  0  0  0  0
  6 12  1  0  0  0  0
  6  9  1  0  0  0  0
  8 25  1  1  0  0  0
  8  1  1  0  0  0  0
  8  2  1  0  0  0  0
  9 23  1  0  0  0  0
  9 22  1  1  0  0  0
 10  5  1  0  0  0  0
 10  9  1  0  0  0  0
 12 11  1  0  0  0  0
 13 12  1  0  0  0  0
 14 12  1  6  0  0  0
 14 19  1  0  0  0  0
 15 14  1  0  0  0  0
 15 18  1  0  0  0  0
 18 17  1  6  0  0  0
 18 20  1  0  0  0  0
 19 16  1  0  0  0  0
 20 16  1  0  0  0  0
 22 21  1  0  0  0  0
 23 24  1  0  0  0  0
 27 33  1  0  0  0  0
 28 32  1  0  0  0  0
 29 28  2  0  0  0  0
 30 26  2  6  0  0  0
 30 25  1  0  0  0  0
 31 27  1  0  0  0  0
 31 28  1  0  0  0  0
 32 30  1  0  0  0  0
 33 30  1  0  0  0  0
M  END
>  <MODEL>
4

>  <REMARK>
 VINA RESULT:      -4.4      2.621      4.449
  Name = 
  6 active torsions:
  status: ('A' for Active; 'I' for Inactive)
    1  A    between atoms: C_7  and  C_13
    2  A    between atoms: O_10  and  C_32
    3  A    between atoms: P_12  and  C_21
    4  A    between atoms: C_13  and  C_26
    5  A    between atoms: C_21  and  C_31
    6  A    between atoms: C_30  and  C_32
                            x       y       z     vdW  Elec       q    Type
                         _______ _______ _______ _____ _____    ______ ____

>  <TORSDO>
F 6

$$$$
=
 OpenBabel11072412283D

 33 36  0  0  1  0  0  0  0  0999 V2000
  162.6930  207.3750  149.2290 O   0  0  0  0  0  0  0  0  0  0  0  0
  161.6480  207.7030  151.3900 C   0  0  0  0  0  0  0  0  0  0  0  0
  161.9680  208.4920  148.7330 C   0  0  0  0  0  2  0  0  0  0  0  0
  161.3950  207.3550  152.7350 N   0  0  0  0  0  0  0  0  0  0  0  0
  161.7330  209.5090  149.8150 C   0  0  0  0  0  0  0  0  0  0  0  0
  161.1060  208.4500  153.3680 C   0  0  0  0  0  0  0  0  0  0  0  0
  161.6970  210.7380  149.5470 O   0  0  0  0  0  0  0  0  0  0  0  0
  161.9830  206.7350  150.2880 C   0  0  1  0  0  3  0  0  0  0  0  0
  161.1510  209.6770  152.4690 C   0  0  2  0  0  0  0  0  0  0  0  0
  161.5060  208.9890  151.1710 C   0  0  0  0  0  0  0  0  0  0  0  0
  159.6520  207.3590  155.0610 C   0  0  0  0  0  1  0  0  0  0  0  0
  160.7150  208.4290  154.8390 C   0  0  0  0  0  0  0  0  0  0  0  0
  161.9070  208.0670  155.7160 C   0  0  0  0  0  1  0  0  0  0  0  0
  160.1920  209.8140  155.2830 C   0  0  2  0  0  3  0  0  0  0  0  0
  160.9770  210.3400  156.3310 O   0  0  0  0  0  0  0  0  0  0  0  0
  158.2730  211.2340  156.0060 C   0  0  0  0  0  2  0  0  0  0  0  0
  161.5920  212.3360  157.2600 O   0  0  0  0  0  1  0  0  0  0  0  0
  160.6800  211.7140  156.4100 C   0  0  2  0  0  3  0  0  0  0  0  0
  158.7130  209.8040  155.7090 C   0  0  0  0  0  2  0  0  0  0  0  0
  159.2640  211.9080  156.9520 C   0  0  0  0  0  2  0  0  0  0  0  0
  163.5160  210.2960  152.4350 O   0  0  0  0  0  1  0  0  0  0  0  0
  162.2700  210.6080  152.9830 C   0  0  0  0  0  2  0  0  0  0  0  0
  159.8550  210.2540  152.4670 O   0  0  0  0  0  0  0  0  0  0  0  0
  159.9300  211.6530  152.4070 C   0  0  0  0  0  1  0  0  0  0  0  0
  160.7330  206.0140  149.7930 C   0  0  0  0  0  2  0  0  0  0  0  0
  160.7030  203.5990  148.5100 O   0  0  0  0  0  0  0  0  0  0  0  0
  163.0670  204.8150  146.4620 C   0  0  0  0  0  2  0  0  0  0  0  0
  160.9240  205.9140  145.7310 C   0  0  0  0  0  0  0  0  0  0  0  0
  160.2370  206.2240  144.7230 O   0  0  0  0  0  0  0  0  0  0  0  0
  161.1080  205.0410  148.3060 P   0  0  1  0  0  0  0  0  0  0  0  0
  162.4220  205.8990  145.6050 C   0  0  0  0  0  2  0  0  0  0  0  0
  160.2750  205.6800  146.9470 O   0  0  0  0  0  0  0  0  0  0  0  0
  162.8770  205.1210  147.9380 C   0  0  0  0  0  2  0  0  0  0  0  0
  1  8  1  0  0  0  0
  2  4  1  0  0  0  0
  3  1  1  0  0  0  0
  3  5  1  0  0  0  0
  4  6  2  0  0  0  0
  5 10  1  0  0  0  0
  6 12  1  0  0  0  0
  7  5  2  0  0  0  0
  8 25  1  6  0  0  0
  8  2  1  0  0  0  0
  9 22  1  1  0  0  0
  9  6  1  0  0  0  0
 10  2  2  0  0  0  0
 10  9  1  0  0  0  0
 12 11  1  0  0  0  0
 12 13  1  0  0  0  0
 14 12  1  1  0  0  0
 14 19  1  0  0  0  0
 14 15  1  0  0  0  0
 15 18  1  0  0  0  0
 16 20  1  0  0  0  0
 18 20  1  0  0  0  0
 18 17  1  1  0  0  0
 19 16  1  0  0  0  0
 21 22  1  0  0  0  0
 23  9  1  0  0  0  0
 24 23  1  0  0  0  0
 27 33  1  0  0  0  0
 28 32  1  0  0  0  0
 29 28  2  0  0  0  0
 30 26  2  1  0  0  0
 30 25  1  0  0  0  0
 31 28  1  0  0  0  0
 31 27  1  0  0  0  0
 32 30  1  0  0  0  0
 33 30  1  0  0  0  0
M  END
>  <MODEL>
5

>  <REMARK>
 VINA RESULT:      -4.1      2.664      5.604
  Name = 
  6 active torsions:
  status: ('A' for Active; 'I' for Inactive)
    1  A    between atoms: C_7  and  C_13
    2  A    between atoms: O_10  and  C_32
    3  A    between atoms: P_12  and  C_21
    4  A    between atoms: C_13  and  C_26
    5  A    between atoms: C_21  and  C_31
    6  A    between atoms: C_30  and  C_32
                            x       y       z     vdW  Elec       q    Type
                         _______ _______ _______ _____ _____    ______ ____

>  <TORSDO>
F 6

$$$$
=
 OpenBabel11072412283D

 33 36  0  0  1  0  0  0  0  0999 V2000
  162.2220  206.0100  152.5970 O   0  0  0  0  0  0  0  0  0  0  0  0
  161.7250  205.5710  150.2670 C   0  0  0  0  0  0  0  0  0  0  0  0
  161.2010  205.0920  152.9650 C   0  0  0  0  0  2  0  0  0  0  0  0
  161.8930  205.7770  148.8800 N   0  0  0  0  0  0  0  0  0  0  0  0
  161.0690  203.9920  151.9480 C   0  0  0  0  0  0  0  0  0  0  0  0
  161.5810  204.6680  148.2850 C   0  0  0  0  0  0  0  0  0  0  0  0
  160.7410  202.8290  152.2970 O   0  0  0  0  0  0  0  0  0  0  0  0
  161.9380  206.6090  151.3340 C   0  0  1  0  0  3  0  0  0  0  0  0
  161.1680  203.5750  149.2600 C   0  0  2  0  0  0  0  0  0  0  0  0
  161.2980  204.3620  150.5440 C   0  0  0  0  0  0  0  0  0  0  0  0
  161.0050  205.8330  146.1680 C   0  0  0  0  0  1  0  0  0  0  0  0
  161.5910  204.5590  146.7660 C   0  0  0  0  0  0  0  0  0  0  0  0
  163.0130  204.4270  146.2370 C   0  0  0  0  0  1  0  0  0  0  0  0
  160.7880  203.3220  146.3040 C   0  0  2  0  0  3  0  0  0  0  0  0
  161.5820  202.1570  146.3450 O   0  0  0  0  0  0  0  0  0  0  0  0
  159.3120  202.2570  144.5990 C   0  0  0  0  0  2  0  0  0  0  0  0
  161.4000  199.8880  146.5560 O   0  0  0  0  0  1  0  0  0  0  0  0
  160.7010  201.0620  146.2810 C   0  0  2  0  0  3  0  0  0  0  0  0
  160.1790  203.4760  144.8990 C   0  0  0  0  0  2  0  0  0  0  0  0
  160.0850  200.9720  144.8840 C   0  0  0  0  0  2  0  0  0  0  0  0
  161.7170  201.2370  149.7150 O   0  0  0  0  0  1  0  0  0  0  0  0
  162.1900  202.4240  149.1520 C   0  0  0  0  0  2  0  0  0  0  0  0
  159.8320  203.2110  148.9530 O   0  0  0  0  0  0  0  0  0  0  0  0
  159.5650  201.8960  149.3610 C   0  0  0  0  0  1  0  0  0  0  0  0
  160.7570  207.5730  151.4050 C   0  0  0  0  0  2  0  0  0  0  0  0
  162.5950  209.5370  151.9010 O   0  0  0  0  0  0  0  0  0  0  0  0
  161.0200  210.0800  154.8140 C   0  0  0  0  0  2  0  0  0  0  0  0
  159.5260  211.0820  153.0540 C   0  0  0  0  0  0  0  0  0  0  0  0
  158.8310  212.0920  152.7700 O   0  0  0  0  0  0  0  0  0  0  0  0
  161.2170  209.0760  152.3160 P   0  0  1  0  0  0  0  0  0  0  0  0
  159.6530  210.6760  154.4960 C   0  0  0  0  0  2  0  0  0  0  0  0
  160.0810  210.3280  152.0160 O   0  0  0  0  0  0  0  0  0  0  0  0
  161.2020  208.7540  154.0960 C   0  0  0  0  0  2  0  0  0  0  0  0
  1  3  1  0  0  0  0
  2 10  2  0  0  0  0
  2  8  1  0  0  0  0
  4  2  1  0  0  0  0
  5  7  2  0  0  0  0
  5  3  1  0  0  0  0
  6  4  2  0  0  0  0
  6  9  1  0  0  0  0
  8 25  1  1  0  0  0
  8  1  1  0  0  0  0
  9 22  1  6  0  0  0
  9 10  1  0  0  0  0
 10  5  1  0  0  0  0
 11 12  1  0  0  0  0
 12  6  1  0  0  0  0
 13 12  1  0  0  0  0
 14 15  1  0  0  0  0
 14 12  1  6  0  0  0
 16 20  1  0  0  0  0
 16 19  1  0  0  0  0
 18 15  1  0  0  0  0
 18 17  1  6  0  0  0
 19 14  1  0  0  0  0
 20 18  1  0  0  0  0
 22 21  1  0  0  0  0
 23  9  1  0  0  0  0
 23 24  1  0  0  0  0
 25 30  1  0  0  0  0
 28 31  1  0  0  0  0
 29 28  2  0  0  0  0
 30 26  2  6  0  0  0
 30 33  1  0  0  0  0
 31 27  1  0  0  0  0
 32 30  1  0  0  0  0
 32 28  1  0  0  0  0
 33 27  1  0  0  0  0
M  END
>  <MODEL>
6

>  <REMARK>
 VINA RESULT:      -4.0      3.495      9.366
  Name = 
  6 active torsions:
  status: ('A' for Active; 'I' for Inactive)
    1  A    between atoms: C_7  and  C_13
    2  A    between atoms: O_10  and  C_32
    3  A    between atoms: P_12  and  C_21
    4  A    between atoms: C_13  and  C_26
    5  A    between atoms: C_21  and  C_31
    6  A    between atoms: C_30  and  C_32
                            x       y       z     vdW  Elec       q    Type
                         _______ _______ _______ _____ _____    ______ ____

>  <TORSDO>
F 6

$$$$
=
 OpenBabel11072412283D

 33 36  0  0  1  0  0  0  0  0999 V2000
  161.0740  206.1640  152.4460 O   0  0  0  0  0  0  0  0  0  0  0  0
  160.5760  208.5280  152.6120 C   0  0  0  0  0  0  0  0  0  0  0  0
  162.0430  206.3170  153.4750 C   0  0  0  0  0  2  0  0  0  0  0  0
  159.9090  209.7090  152.2160 N   0  0  0  0  0  0  0  0  0  0  0  0
  161.6420  207.3990  154.4390 C   0  0  0  0  0  0  0  0  0  0  0  0
  159.8350  210.4770  153.2580 C   0  0  0  0  0  0  0  0  0  0  0  0
  161.9410  207.3170  155.6580 O   0  0  0  0  0  0  0  0  0  0  0  0
  160.9160  207.3750  151.7090 C   0  0  1  0  0  3  0  0  0  0  0  0
  160.4620  209.8510  154.4960 C   0  0  2  0  0  0  0  0  0  0  0  0
  160.9330  208.5560  153.8750 C   0  0  0  0  0  0  0  0  0  0  0  0
  157.8480  211.8590  153.8190 C   0  0  0  0  0  1  0  0  0  0  0  0
  159.2260  211.8690  153.1670 C   0  0  0  0  0  0  0  0  0  0  0  0
  160.0730  212.8860  153.9230 C   0  0  0  0  0  1  0  0  0  0  0  0
  159.1270  212.3250  151.6940 C   0  0  2  0  0  3  0  0  0  0  0  0
  160.3690  212.8020  151.2260 O   0  0  0  0  0  0  0  0  0  0  0  0
  157.9520  213.6760  149.9560 C   0  0  0  0  0  2  0  0  0  0  0  0
  161.5560  213.0670  149.2900 O   0  0  0  0  0  1  0  0  0  0  0  0
  160.2890  212.8340  149.8210 C   0  0  2  0  0  3  0  0  0  0  0  0
  158.0460  213.3940  151.4530 C   0  0  0  0  0  2  0  0  0  0  0  0
  159.3390  213.9480  149.3800 C   0  0  0  0  0  2  0  0  0  0  0  0
  158.9860  208.3070  155.6830 O   0  0  0  0  0  1  0  0  0  0  0  0
  159.3510  209.6480  155.5470 C   0  0  0  0  0  2  0  0  0  0  0  0
  161.5230  210.6960  154.9110 O   0  0  0  0  0  0  0  0  0  0  0  0
  161.6530  210.6860  156.3070 C   0  0  0  0  0  1  0  0  0  0  0  0
  162.1360  207.6920  150.8500 C   0  0  0  0  0  2  0  0  0  0  0  0
  161.5800  208.8680  148.4440 O   0  0  0  0  0  0  0  0  0  0  0  0
  160.2010  205.9580  147.4990 C   0  0  0  0  0  2  0  0  0  0  0  0
  162.6870  205.5710  147.4220 C   0  0  0  0  0  0  0  0  0  0  0  0
  163.6140  205.0760  146.7300 O   0  0  0  0  0  0  0  0  0  0  0  0
  161.7370  207.5090  149.0870 P   0  0  1  0  0  0  0  0  0  0  0  0
  161.3250  204.9360  147.3630 C   0  0  0  0  0  2  0  0  0  0  0  0
  162.9760  206.6360  148.2810 O   0  0  0  0  0  0  0  0  0  0  0  0
  160.2040  206.5690  148.8890 C   0  0  0  0  0  2  0  0  0  0  0  0
  1  3  1  0  0  0  0
  2 10  2  0  0  0  0
  3  5  1  0  0  0  0
  4  2  1  0  0  0  0
  4  6  2  0  0  0  0
  5  7  2  0  0  0  0
  6  9  1  0  0  0  0
  8 25  1  1  0  0  0
  8  1  1  0  0  0  0
  8  2  1  0  0  0  0
  9 23  1  0  0  0  0
  9 22  1  1  0  0  0
 10  5  1  0  0  0  0
 10  9  1  0  0  0  0
 12  6  1  0  0  0  0
 12 11  1  0  0  0  0
 12 13  1  0  0  0  0
 14 12  1  1  0  0  0
 15 14  1  0  0  0  0
 16 19  1  0  0  0  0
 18 17  1  6  0  0  0
 18 15  1  0  0  0  0
 19 14  1  0  0  0  0
 20 18  1  0  0  0  0
 20 16  1  0  0  0  0
 22 21  1  0  0  0  0
 23 24  1  0  0  0  0
 27 33  1  0  0  0  0
 28 32  1  0  0  0  0
 29 28  2  0  0  0  0
 30 26  2  6  0  0  0
 30 25  1  0  0  0  0
 31 28  1  0  0  0  0
 31 27  1  0  0  0  0
 32 30  1  0  0  0  0
 33 30  1  0  0  0  0
M  END
>  <MODEL>
7

>  <REMARK>
 VINA RESULT:      -4.0      1.719      2.210
  Name = 
  6 active torsions:
  status: ('A' for Active; 'I' for Inactive)
    1  A    between atoms: C_7  and  C_13
    2  A    between atoms: O_10  and  C_32
    3  A    between atoms: P_12  and  C_21
    4  A    between atoms: C_13  and  C_26
    5  A    between atoms: C_21  and  C_31
    6  A    between atoms: C_30  and  C_32
                            x       y       z     vdW  Elec       q    Type
                         _______ _______ _______ _____ _____    ______ ____

>  <TORSDO>
F 6

$$$$
=
 OpenBabel11072412283D

 33 36  0  0  1  0  0  0  0  0999 V2000
  160.7910  207.1420  153.3240 O   0  0  0  0  0  0  0  0  0  0  0  0
  160.1000  209.4610  153.4210 C   0  0  0  0  0  0  0  0  0  0  0  0
  161.8110  207.4280  154.2720 C   0  0  0  0  0  2  0  0  0  0  0  0
  159.3070  210.5600  153.0230 N   0  0  0  0  0  0  0  0  0  0  0  0
  161.3830  208.5190  155.2140 C   0  0  0  0  0  0  0  0  0  0  0  0
  159.2370  211.3710  154.0330 C   0  0  0  0  0  0  0  0  0  0  0  0
  161.7720  208.5230  156.4110 O   0  0  0  0  0  0  0  0  0  0  0  0
  160.4770  208.2970  152.5480 C   0  0  1  0  0  3  0  0  0  0  0  0
  160.0000  210.8630  155.2480 C   0  0  2  0  0  0  0  0  0  0  0  0
  160.5390  209.5820  154.6530 C   0  0  0  0  0  0  0  0  0  0  0  0
  159.5220  213.8320  153.8550 C   0  0  0  0  0  1  0  0  0  0  0  0
  158.5040  212.7000  153.9260 C   0  0  0  0  0  0  0  0  0  0  0  0
  157.6720  212.7640  152.6510 C   0  0  0  0  0  1  0  0  0  0  0  0
  157.5550  212.8980  155.1300 C   0  0  2  0  0  3  0  0  0  0  0  0
  156.4300  212.0520  155.0330 O   0  0  0  0  0  0  0  0  0  0  0  0
  156.2620  214.4530  156.5910 C   0  0  0  0  0  2  0  0  0  0  0  0
  154.8660  211.0190  156.3420 O   0  0  0  0  0  1  0  0  0  0  0  0
  155.8370  212.0180  156.3090 C   0  0  2  0  0  3  0  0  0  0  0  0
  157.0860  214.3530  155.3100 C   0  0  0  0  0  2  0  0  0  0  0  0
  155.1880  213.3690  156.6160 C   0  0  0  0  0  2  0  0  0  0  0  0
  158.1870  209.4970  156.1540 O   0  0  0  0  0  1  0  0  0  0  0  0
  158.9860  210.6190  156.3850 C   0  0  0  0  0  2  0  0  0  0  0  0
  161.0090  211.8140  155.5480 O   0  0  0  0  0  0  0  0  0  0  0  0
  161.0000  212.1400  156.9120 C   0  0  0  0  0  1  0  0  0  0  0  0
  161.6030  208.6720  151.5890 C   0  0  0  0  0  2  0  0  0  0  0  0
  163.2120  207.5970  149.6560 O   0  0  0  0  0  0  0  0  0  0  0  0
  160.6840  205.5230  148.9030 C   0  0  0  0  0  2  0  0  0  0  0  0
  161.6500  204.6400  151.0530 C   0  0  0  0  0  0  0  0  0  0  0  0
  162.0120  203.5910  151.6450 O   0  0  0  0  0  0  0  0  0  0  0  0
  161.9850  207.2840  150.4820 P   0  0  1  0  0  0  0  0  0  0  0  0
  160.5130  204.5590  150.0730 C   0  0  0  0  0  2  0  0  0  0  0  0
  162.2590  205.8530  151.3900 O   0  0  0  0  0  0  0  0  0  0  0  0
  160.5860  206.9610  149.3810 C   0  0  0  0  0  2  0  0  0  0  0  0
  1  3  1  0  0  0  0
  2 10  2  0  0  0  0
  3  5  1  0  0  0  0
  4  2  1  0  0  0  0
  4  6  2  0  0  0  0
  5  7  2  0  0  0  0
  6  9  1  0  0  0  0
  8 25  1  1  0  0  0
  8  1  1  0  0  0  0
  8  2  1  0  0  0  0
  9 23  1  0  0  0  0
  9 22  1  1  0  0  0
 10  5  1  0  0  0  0
 10  9  1  0  0  0  0
 11 12  1  0  0  0  0
 12  6  1  0  0  0  0
 13 12  1  0  0  0  0
 14 12  1  6  0  0  0
 14 19  1  0  0  0  0
 15 14  1  0  0  0  0
 15 18  1  0  0  0  0
 16 20  1  0  0  0  0
 18 17  1  6  0  0  0
 18 20  1  0  0  0  0
 19 16  1  0  0  0  0
 21 22  1  0  0  0  0
 23 24  1  0  0  0  0
 27 33  1  0  0  0  0
 27 31  1  0  0  0  0
 28 32  1  0  0  0  0
 28 29  2  0  0  0  0
 30 26  2  6  0  0  0
 30 32  1  0  0  0  0
 30 25  1  0  0  0  0
 31 28  1  0  0  0  0
 33 30  1  0  0  0  0
M  END
>  <MODEL>
8

>  <REMARK>
 VINA RESULT:      -3.8      2.001      3.356
  Name = 
  6 active torsions:
  status: ('A' for Active; 'I' for Inactive)
    1  A    between atoms: C_7  and  C_13
    2  A    between atoms: O_10  and  C_32
    3  A    between atoms: P_12  and  C_21
    4  A    between atoms: C_13  and  C_26
    5  A    between atoms: C_21  and  C_31
    6  A    between atoms: C_30  and  C_32
                            x       y       z     vdW  Elec       q    Type
                         _______ _______ _______ _____ _____    ______ ____

>  <TORSDO>
F 6

$$$$
=
 OpenBabel11072412283D

 33 36  0  0  1  0  0  0  0  0999 V2000
  160.4560  204.2860  148.7130 O   0  0  0  0  0  0  0  0  0  0  0  0
  161.2180  206.3590  149.7070 C   0  0  0  0  0  0  0  0  0  0  0  0
  161.1420  203.5700  149.7320 C   0  0  0  0  0  2  0  0  0  0  0  0
  161.3450  207.7650  149.7540 N   0  0  0  0  0  0  0  0  0  0  0  0
  161.1710  204.3510  151.0170 C   0  0  0  0  0  0  0  0  0  0  0  0
  161.4710  208.0990  151.0010 C   0  0  0  0  0  0  0  0  0  0  0  0
  161.1390  203.7630  152.1280 O   0  0  0  0  0  0  0  0  0  0  0  0
  161.0890  205.5370  148.4540 C   0  0  1  0  0  3  0  0  0  0  0  0
  161.4310  206.9000  151.9370 C   0  0  2  0  0  0  0  0  0  0  0  0
  161.2820  205.8120  150.8980 C   0  0  0  0  0  0  0  0  0  0  0  0
  163.0810  209.6910  152.0220 C   0  0  0  0  0  1  0  0  0  0  0  0
  161.6930  209.5490  151.4080 C   0  0  0  0  0  0  0  0  0  0  0  0
  161.6410  210.4710  150.1960 C   0  0  0  0  0  1  0  0  0  0  0  0
  160.6080  210.0060  152.4090 C   0  0  2  0  0  3  0  0  0  0  0  0
  160.0800  211.2630  152.0460 O   0  0  0  0  0  0  0  0  0  0  0  0
  159.9220  210.4010  154.7750 C   0  0  0  0  0  2  0  0  0  0  0  0
  158.1890  212.5280  152.2700 O   0  0  0  0  0  1  0  0  0  0  0  0
  158.8780  211.4200  152.7610 C   0  0  2  0  0  3  0  0  0  0  0  0
  161.1000  210.0610  153.8660 C   0  0  0  0  0  2  0  0  0  0  0  0
  159.1800  211.6250  154.2450 C   0  0  0  0  0  2  0  0  0  0  0  0
  160.4550  206.6810  154.1670 O   0  0  0  0  0  1  0  0  0  0  0  0
  160.1910  207.0400  152.8440 C   0  0  0  0  0  2  0  0  0  0  0  0
  162.6690  206.8550  152.6280 O   0  0  0  0  0  0  0  0  0  0  0  0
  163.5170  205.8860  152.0730 C   0  0  0  0  0  1  0  0  0  0  0  0
  162.4410  205.3690  147.7660 C   0  0  0  0  0  2  0  0  0  0  0  0
  163.5320  204.7140  145.3450 O   0  0  0  0  0  0  0  0  0  0  0  0
  160.4160  204.7030  144.1010 C   0  0  0  0  0  2  0  0  0  0  0  0
  160.6030  202.5810  145.4420 C   0  0  0  0  0  0  0  0  0  0  0  0
  160.3520  201.3480  145.4280 O   0  0  0  0  0  0  0  0  0  0  0  0
  162.2260  204.6690  146.1040 P   0  0  1  0  0  0  0  0  0  0  0  0
  159.6800  203.5140  144.7100 C   0  0  0  0  0  2  0  0  0  0  0  0
  161.6800  203.0450  146.2050 O   0  0  0  0  0  0  0  0  0  0  0  0
  160.9700  205.6010  145.1930 C   0  0  0  0  0  2  0  0  0  0  0  0
  1  3  1  0  0  0  0
  2  4  1  0  0  0  0
  2 10  2  0  0  0  0
  3  5  1  0  0  0  0
  4  6  2  0  0  0  0
  5  7  2  0  0  0  0
  6 12  1  0  0  0  0
  6  9  1  0  0  0  0
  8 25  1  1  0  0  0
  8  1  1  0  0  0  0
  8  2  1  0  0  0  0
  9 23  1  0  0  0  0
  9 22  1  1  0  0  0
 10  5  1  0  0  0  0
 10  9  1  0  0  0  0
 12 11  1  0  0  0  0
 13 12  1  0  0  0  0
 14 12  1  6  0  0  0
 14 19  1  0  0  0  0
 15 14  1  0  0  0  0
 15 18  1  0  0  0  0
 18 17  1  6  0  0  0
 18 20  1  0  0  0  0
 19 16  1  0  0  0  0
 20 16  1  0  0  0  0
 22 21  1  0  0  0  0
 24 23  1  0  0  0  0
 27 31  1  0  0  0  0
 27 33  1  0  0  0  0
 28 32  1  0  0  0  0
 29 28  2  0  0  0  0
 30 26  2  6  0  0  0
 30 32  1  0  0  0  0
 30 25  1  0  0  0  0
 31 28  1  0  0  0  0
 33 30  1  0  0  0  0
M  END
>  <MODEL>
9

>  <REMARK>
 VINA RESULT:      -3.5      3.158      5.804
  Name = 
  6 active torsions:
  status: ('A' for Active; 'I' for Inactive)
    1  A    between atoms: C_7  and  C_13
    2  A    between atoms: O_10  and  C_32
    3  A    between atoms: P_12  and  C_21
    4  A    between atoms: C_13  and  C_26
    5  A    between atoms: C_21  and  C_31
    6  A    between atoms: C_30  and  C_32
                            x       y       z     vdW  Elec       q    Type
                         _______ _______ _______ _____ _____    ______ ____

>  <TORSDO>
F 6

$$$$
