=
 OpenBabel11072412463D

 55 64  0  0  1  0  0  0  0  0999 V2000
  160.9130  212.0900  150.6310 C   0  0  0  0  0  0  0  0  0  0  0  0
  161.0650  210.6220  150.7700 C   0  0  0  0  0  0  0  0  0  0  0  0
  160.3180  211.4040  152.6850 C   0  0  0  0  0  0  0  0  0  0  0  0
  160.4290  211.2530  154.0550 C   0  0  0  0  0  0  0  0  0  0  0  0
  161.0630  209.3800  152.9970 C   0  0  0  0  0  0  0  0  0  0  0  0
  161.3320  209.3770  155.5590 C   0  0  0  0  0  1  0  0  0  0  0  0
  161.5500  209.8180  149.9360 O   0  0  0  0  0  0  0  0  0  0  0  0
  160.8810  209.9500  154.2610 C   0  0  0  0  0  0  0  0  0  0  0  0
  160.6590  210.2770  152.0770 N   0  0  0  0  0  0  0  0  0  0  0  0
  160.4680  212.5770  151.8050 C   0  0  0  0  0  3  0  0  0  0  0  0
  158.6980  213.7760  146.8190 C   0  0  0  0  0  2  0  0  0  0  0  0
  156.7610  213.5110  148.4200 C   0  0  0  0  0  2  0  0  0  0  0  0
  161.2000  212.9680  149.4360 C   0  0  2  0  0  3  0  0  0  0  0  0
  159.9180  214.3400  147.5400 C   0  0  1  0  0  3  0  0  0  0  0  0
  157.4200  214.4030  147.3630 C   0  0  0  0  0  2  0  0  0  0  0  0
  161.1900  214.4530  149.7630 C   0  0  0  0  0  2  0  0  0  0  0  0
  157.7270  212.9380  149.4600 C   0  0  0  0  0  2  0  0  0  0  0  0
  160.0200  213.8490  149.0130 C   0  0  2  0  0  0  0  0  0  0  0  0
  158.7660  213.9550  149.8920 C   0  0  0  0  0  2  0  0  0  0  0  0
  160.7830  213.9360  144.8630 S   0  0  0  0  0  0  0  0  0  0  0  0
  161.1420  214.1780  146.6230 C   0  0  2  0  0  3  0  0  0  0  0  0
  162.5450  213.5530  144.6820 C   0  0  1  0  0  3  0  0  0  0  0  0
  162.9020  212.6420  145.8440 C   0  0  0  0  0  2  0  0  0  0  0  0
  162.1530  213.1380  147.0740 C   0  0  0  0  0  2  0  0  0  0  0  0
  162.8350  212.9290  143.3880 N   0  0  1  0  0  0  0  0  0  0  0  0
  161.5620  212.4540  142.8170 C   0  0  0  0  0  2  0  0  0  0  0  0
  162.2840  214.1640  141.4730 C   0  0  0  0  0  3  0  0  0  0  0  0
  160.1080  213.2380  140.7650 C   0  0  0  0  0  1  0  0  0  0  0  0
  163.2330  213.9480  142.4990 N   0  0  0  0  0  2  0  0  0  0  0  0
  161.3130  213.3070  141.6280 C   0  0  0  0  0  0  0  0  0  0  0  0
  159.5650  213.3690  154.8740 O   0  0  0  0  0  1  0  0  0  0  0  0
  160.3600  212.2860  155.0430 N   0  0  0  0  0  2  0  0  0  0  0  0
  161.8620  208.1510  152.6810 C   0  0  0  0  0  2  0  0  0  0  0  0
  161.5810  203.8240  151.1840 C   0  0  0  0  0  0  0  0  0  0  0  0
  160.9980  207.0410  152.0900 C   0  0  2  0  0  3  0  0  0  0  0  0
  161.3590  204.2580  149.9020 C   0  0  0  0  0  0  0  0  0  0  0  0
  161.1880  201.5540  150.5170 C   0  0  0  0  0  3  0  0  0  0  0  0
  160.3940  206.2260  153.1560 N   0  0  0  0  0  2  0  0  0  0  0  0
  161.8380  204.8950  152.0690 N   0  0  0  0  0  0  0  0  0  0  0  0
  161.1240  205.0240  153.2630 N   0  0  0  0  0  2  0  0  0  0  0  0
  161.0400  203.3590  148.8810 C   0  0  0  0  0  3  0  0  0  0  0  0
  161.4120  205.7530  149.8480 C   0  0  2  0  0  0  0  0  0  0  0  0
  160.9630  201.9930  149.1960 C   0  0  0  0  0  3  0  0  0  0  0  0
  161.8840  206.1150  151.2940 C   0  0  1  0  0  3  0  0  0  0  0  0
  161.4930  202.4730  151.5290 C   0  0  0  0  0  3  0  0  0  0  0  0
  159.6450  205.8720  148.1810 O   0  0  0  0  0  1  0  0  0  0  0  0
  160.0440  206.3290  149.4380 C   0  0  0  0  0  2  0  0  0  0  0  0
  162.4870  206.1750  148.8530 C   0  0  0  0  0  2  0  0  0  0  0  0
  161.9060  206.9580  147.6780 C   0  0  0  0  0  2  0  0  0  0  0  0
  162.1760  204.2030  145.4790 C   0  0  0  0  0  2  0  0  0  0  0  0
  162.3750  206.3810  146.3550 C   0  0  2  0  0  3  0  0  0  0  0  0
  161.2600  206.3300  145.4190 N   0  0  0  0  0  2  0  0  0  0  0  0
  161.0070  204.9830  145.0960 N   0  0  0  0  0  0  0  0  0  0  0  0
  162.8790  204.9780  146.5520 C   0  0  0  0  0  2  0  0  0  0  0  0
  160.8950  204.9060  143.6490 C   0  0  0  0  0  1  0  0  0  0  0  0
  1  2  1  0  0  0  0
  1 10  2  0  0  0  0
  2  9  1  0  0  0  0
  3  4  2  0  0  0  0
  4  8  1  0  0  0  0
  4 32  1  0  0  0  0
  5  8  2  0  0  0  0
  7  2  2  0  0  0  0
  8  6  1  0  0  0  0
  9  3  1  0  0  0  0
  9  5  1  0  0  0  0
 10  3  1  0  0  0  0
 11 15  1  0  0  0  0
 12 17  1  0  0  0  0
 13 16  1  0  0  0  0
 13  1  1  1  0  0  0
 14 11  1  6  0  0  0
 14 18  1  0  0  0  0
 15 12  1  0  0  0  0
 17 19  1  0  0  0  0
 18 13  1  0  0  0  0
 18 16  1  1  0  0  0
 18 19  1  0  0  0  0
 20 21  1  0  0  0  0
 21 24  1  1  0  0  0
 21 14  1  0  0  0  0
 22 20  1  0  0  0  0
 22 23  1  1  0  0  0
 23 24  1  0  0  0  0
 25 26  1  6  0  0  0
 25 22  1  0  0  0  0
 27 30  2  0  0  0  0
 27 29  1  0  0  0  0
 28 30  1  0  0  0  0
 29 25  1  0  0  0  0
 30 26  1  0  0  0  0
 31 32  1  0  0  0  0
 33  5  1  0  0  0  0
 34 45  1  0  0  0  0
 34 39  1  0  0  0  0
 35 33  1  1  0  0  0
 35 38  1  0  0  0  0
 36 34  2  0  0  0  0
 37 45  2  0  0  0  0
 38 40  1  0  0  0  0
 39 40  1  0  0  0  0
 41 43  2  0  0  0  0
 41 36  1  0  0  0  0
 42 48  1  6  0  0  0
 42 36  1  0  0  0  0
 42 44  1  0  0  0  0
 43 37  1  0  0  0  0
 44 39  1  1  0  0  0
 44 35  1  0  0  0  0
 46 47  1  0  0  0  0
 47 42  1  0  0  0  0
 49 48  1  0  0  0  0
 50 54  1  0  0  0  0
 51 54  1  0  0  0  0
 51 49  1  1  0  0  0
 52 51  1  0  0  0  0
 53 52  1  0  0  0  0
 53 50  1  0  0  0  0
 55 53  1  0  0  0  0
M  END
>  <MODEL>
1

>  <REMARK>
 VINA RESULT:      -6.7      0.000      0.000
  Name = 
  10 active torsions:
  status: ('A' for Active; 'I' for Inactive)
    1  A    between atoms: N_3  and  C_30
    2  A    between atoms: C_5  and  C_19
    3  A    between atoms: C_8  and  C_23
    4  A    between atoms: C_15  and  C_31
    5  A    between atoms: C_15  and  C_47
    6  A    between atoms: C_20  and  C_27
    7  A    between atoms: C_22  and  C_31
    8  A    between atoms: C_23  and  C_33
    9  A    between atoms: C_28  and  N_52
   10  A    between atoms: C_45  and  C_47
                            x       y       z     vdW  Elec       q    Type
                         _______ _______ _______ _____ _____    ______ ____

>  <TORSDO>
F 10

$$$$
=
 OpenBabel11072412463D

 55 64  0  0  1  0  0  0  0  0999 V2000
  161.1650  212.3990  147.8080 C   0  0  0  0  0  0  0  0  0  0  0  0
  161.2950  211.0140  148.3190 C   0  0  0  0  0  0  0  0  0  0  0  0
  160.4690  212.2530  149.9380 C   0  0  0  0  0  0  0  0  0  0  0  0
  160.5160  212.4520  151.3060 C   0  0  0  0  0  0  0  0  0  0  0  0
  161.1770  210.3730  150.7850 C   0  0  0  0  0  0  0  0  0  0  0  0
  161.3280  211.0170  153.2750 C   0  0  0  0  0  1  0  0  0  0  0  0
  161.8090  210.0260  147.7390 O   0  0  0  0  0  0  0  0  0  0  0  0
  160.9440  211.2430  151.8540 C   0  0  0  0  0  0  0  0  0  0  0  0
  160.8260  211.0090  149.6500 N   0  0  0  0  0  0  0  0  0  0  0  0
  160.6720  213.1660  148.7990 C   0  0  0  0  0  3  0  0  0  0  0  0
  159.0320  213.5410  143.7550 C   0  0  0  0  0  2  0  0  0  0  0  0
  157.1550  213.9170  145.4060 C   0  0  0  0  0  2  0  0  0  0  0  0
  161.5170  212.9480  146.4450 C   0  0  2  0  0  3  0  0  0  0  0  0
  160.3520  214.0580  144.3150 C   0  0  1  0  0  3  0  0  0  0  0  0
  157.8830  214.4530  144.1690 C   0  0  0  0  0  2  0  0  0  0  0  0
  161.7330  214.4530  146.4400 C   0  0  0  0  0  2  0  0  0  0  0  0
  158.0800  213.4420  146.5310 C   0  0  0  0  0  2  0  0  0  0  0  0
  160.4540  213.8840  145.8590 C   0  0  2  0  0  0  0  0  0  0  0  0
  159.2720  214.3610  146.7130 C   0  0  0  0  0  2  0  0  0  0  0  0
  161.7970  214.4290  141.8970 S   0  0  0  0  0  0  0  0  0  0  0  0
  161.4950  213.5230  143.4370 C   0  0  2  0  0  3  0  0  0  0  0  0
  162.9040  213.0650  141.4540 C   0  0  1  0  0  3  0  0  0  0  0  0
  162.1710  211.7870  141.8260 C   0  0  0  0  0  2  0  0  0  0  0  0
  161.4360  212.0350  143.1360 C   0  0  0  0  0  2  0  0  0  0  0  0
  163.2640  213.0960  140.0330 N   0  0  1  0  0  0  0  0  0  0  0  0
  163.0990  211.7350  139.4930 C   0  0  0  0  0  2  0  0  0  0  0  0
  161.4950  213.0340  138.4960 C   0  0  0  0  0  3  0  0  0  0  0  0
  161.3790  210.6670  137.8060 C   0  0  0  0  0  1  0  0  0  0  0  0
  162.2750  213.8400  139.3570 N   0  0  0  0  0  2  0  0  0  0  0  0
  161.9560  211.8160  138.5490 C   0  0  0  0  0  0  0  0  0  0  0  0
  159.2380  214.3710  152.0660 O   0  0  0  0  0  1  0  0  0  0  0  0
  160.4120  213.7000  151.9970 N   0  0  0  0  0  2  0  0  0  0  0  0
  161.9770  209.1060  150.8260 C   0  0  0  0  0  2  0  0  0  0  0  0
  161.6820  204.5280  150.8580 C   0  0  0  0  0  0  0  0  0  0  0  0
  161.0930  207.8660  150.7230 C   0  0  2  0  0  3  0  0  0  0  0  0
  161.3200  204.5190  149.5350 C   0  0  0  0  0  0  0  0  0  0  0  0
  161.2960  202.1650  151.0120 C   0  0  0  0  0  3  0  0  0  0  0  0
  160.6240  207.4470  152.0530 N   0  0  0  0  0  2  0  0  0  0  0  0
  161.9940  205.8280  151.3140 N   0  0  0  0  0  0  0  0  0  0  0  0
  161.3990  206.3430  152.4680 N   0  0  0  0  0  2  0  0  0  0  0  0
  160.9280  203.3370  148.9030 C   0  0  0  0  0  3  0  0  0  0  0  0
  161.3210  205.9140  148.9920 C   0  0  2  0  0  0  0  0  0  0  0  0
  160.9260  202.1490  149.6510 C   0  0  0  0  0  3  0  0  0  0  0  0
  161.9240  206.7270  150.1840 C   0  0  1  0  0  3  0  0  0  0  0  0
  161.6710  203.3650  151.6320 C   0  0  0  0  0  3  0  0  0  0  0  0
  159.8170  206.5350  147.1850 O   0  0  0  0  0  1  0  0  0  0  0  0
  159.9020  206.3280  148.5620 C   0  0  0  0  0  2  0  0  0  0  0  0
  162.2780  205.9830  147.8080 C   0  0  0  0  0  2  0  0  0  0  0  0
  162.8640  204.6160  147.4620 C   0  0  0  0  0  2  0  0  0  0  0  0
  160.7530  204.1620  144.6630 C   0  0  0  0  0  2  0  0  0  0  0  0
  162.6980  204.3110  145.9850 C   0  0  2  0  0  3  0  0  0  0  0  0
  162.5130  205.5520  145.2450 N   0  0  0  0  0  2  0  0  0  0  0  0
  161.2330  205.5380  144.6570 N   0  0  0  0  0  0  0  0  0  0  0  0
  161.4800  203.4560  145.7680 C   0  0  0  0  0  2  0  0  0  0  0  0
  161.4000  205.9290  143.2670 C   0  0  0  0  0  1  0  0  0  0  0  0
  1  2  1  0  0  0  0
  1 10  2  0  0  0  0
  2  9  1  0  0  0  0
  3  4  2  0  0  0  0
  4  8  1  0  0  0  0
  4 32  1  0  0  0  0
  5 33  1  0  0  0  0
  5  8  2  0  0  0  0
  7  2  2  0  0  0  0
  8  6  1  0  0  0  0
  9  3  1  0  0  0  0
  9  5  1  0  0  0  0
 10  3  1  0  0  0  0
 11 15  1  0  0  0  0
 12 17  1  0  0  0  0
 13  1  1  1  0  0  0
 14 11  1  6  0  0  0
 14 18  1  0  0  0  0
 15 12  1  0  0  0  0
 16 13  1  0  0  0  0
 17 19  1  0  0  0  0
 18 16  1  1  0  0  0
 18 13  1  0  0  0  0
 18 19  1  0  0  0  0
 20 21  1  0  0  0  0
 21 24  1  6  0  0  0
 21 14  1  0  0  0  0
 22 23  1  6  0  0  0
 22 20  1  0  0  0  0
 23 24  1  0  0  0  0
 25 26  1  6  0  0  0
 25 22  1  0  0  0  0
 27 30  2  0  0  0  0
 27 29  1  0  0  0  0
 28 30  1  0  0  0  0
 29 25  1  0  0  0  0
 30 26  1  0  0  0  0
 32 31  1  0  0  0  0
 34 39  1  0  0  0  0
 34 45  1  0  0  0  0
 35 33  1  1  0  0  0
 35 38  1  0  0  0  0
 36 34  2  0  0  0  0
 37 45  2  0  0  0  0
 38 40  1  0  0  0  0
 39 40  1  0  0  0  0
 41 36  1  0  0  0  0
 41 43  2  0  0  0  0
 42 48  1  6  0  0  0
 42 36  1  0  0  0  0
 42 44  1  0  0  0  0
 43 37  1  0  0  0  0
 44 35  1  0  0  0  0
 44 39  1  1  0  0  0
 46 47  1  0  0  0  0
 47 42  1  0  0  0  0
 49 48  1  0  0  0  0
 50 54  1  0  0  0  0
 51 49  1  1  0  0  0
 52 51  1  0  0  0  0
 53 50  1  0  0  0  0
 53 52  1  0  0  0  0
 54 51  1  0  0  0  0
 55 53  1  0  0  0  0
M  END
>  <MODEL>
2

>  <REMARK>
 VINA RESULT:      -6.3      1.797      2.597
  Name = 
  10 active torsions:
  status: ('A' for Active; 'I' for Inactive)
    1  A    between atoms: N_3  and  C_30
    2  A    between atoms: C_5  and  C_19
    3  A    between atoms: C_8  and  C_23
    4  A    between atoms: C_15  and  C_31
    5  A    between atoms: C_15  and  C_47
    6  A    between atoms: C_20  and  C_27
    7  A    between atoms: C_22  and  C_31
    8  A    between atoms: C_23  and  C_33
    9  A    between atoms: C_28  and  N_52
   10  A    between atoms: C_45  and  C_47
                            x       y       z     vdW  Elec       q    Type
                         _______ _______ _______ _____ _____    ______ ____

>  <TORSDO>
F 10

$$$$
=
 OpenBabel11072412463D

 55 64  0  0  1  0  0  0  0  0999 V2000
  161.7270  211.9280  148.1890 C   0  0  0  0  0  0  0  0  0  0  0  0
  161.6840  212.4670  149.5690 C   0  0  0  0  0  0  0  0  0  0  0  0
  161.9160  210.2850  149.7080 C   0  0  0  0  0  0  0  0  0  0  0  0
  161.5220  209.1800  150.4390 C   0  0  0  0  0  0  0  0  0  0  0  0
  161.3110  211.0520  151.6560 C   0  0  0  0  0  0  0  0  0  0  0  0
  160.4870  208.8800  152.7700 C   0  0  0  0  0  1  0  0  0  0  0  0
  161.4700  213.6530  149.9230 O   0  0  0  0  0  0  0  0  0  0  0  0
  161.1570  209.6620  151.6950 C   0  0  0  0  0  0  0  0  0  0  0  0
  161.8220  211.3770  150.4530 N   0  0  0  0  0  0  0  0  0  0  0  0
  161.8560  210.5900  148.2660 C   0  0  0  0  0  3  0  0  0  0  0  0
  158.4890  213.0110  144.9300 C   0  0  0  0  0  2  0  0  0  0  0  0
  157.0480  212.8410  146.9980 C   0  0  0  0  0  2  0  0  0  0  0  0
  161.6290  212.6670  146.8750 C   0  0  2  0  0  3  0  0  0  0  0  0
  159.8000  213.7240  145.2440 C   0  0  1  0  0  3  0  0  0  0  0  0
  157.3420  213.6310  145.7190 C   0  0  0  0  0  2  0  0  0  0  0  0
  161.5780  214.1780  147.0360 C   0  0  0  0  0  2  0  0  0  0  0  0
  158.2900  212.4540  147.8050 C   0  0  0  0  0  2  0  0  0  0  0  0
  160.3110  213.4240  146.6840 C   0  0  2  0  0  0  0  0  0  0  0  0
  159.3150  213.5690  147.8420 C   0  0  0  0  0  2  0  0  0  0  0  0
  160.3780  214.4530  142.5600 S   0  0  0  0  0  0  0  0  0  0  0  0
  160.7610  213.5170  144.0630 C   0  0  2  0  0  3  0  0  0  0  0  0
  161.6490  213.4440  141.7530 C   0  0  1  0  0  3  0  0  0  0  0  0
  161.4180  212.0180  142.2230 C   0  0  0  0  0  2  0  0  0  0  0  0
  161.0270  212.0680  143.6930 C   0  0  0  0  0  2  0  0  0  0  0  0
  161.5870  213.5570  140.2930 N   0  0  1  0  0  0  0  0  0  0  0  0
  162.8820  214.0780  139.8220 C   0  0  0  0  0  2  0  0  0  0  0  0
  162.7260  211.9220  139.0580 C   0  0  0  0  0  3  0  0  0  0  0  0
  164.8640  213.0010  138.4590 C   0  0  0  0  0  1  0  0  0  0  0  0
  161.5450  212.2510  139.7630 N   0  0  0  0  0  2  0  0  0  0  0  0
  163.5110  212.9630  139.0700 C   0  0  0  0  0  0  0  0  0  0  0  0
  162.2450  206.9150  149.9490 O   0  0  0  0  0  1  0  0  0  0  0  0
  161.2770  207.8610  149.9400 N   0  0  0  0  0  2  0  0  0  0  0  0
  160.7170  212.0400  152.6140 C   0  0  0  0  0  2  0  0  0  0  0  0
  156.6070  213.7340  153.7480 C   0  0  0  0  0  0  0  0  0  0  0  0
  159.2340  211.7780  152.8620 C   0  0  2  0  0  3  0  0  0  0  0  0
  156.6130  213.0230  154.9220 C   0  0  0  0  0  0  0  0  0  0  0  0
  154.3550  214.4500  154.1560 C   0  0  0  0  0  3  0  0  0  0  0  0
  158.4590  211.9640  151.6250 N   0  0  0  0  0  2  0  0  0  0  0  0
  157.8190  213.5890  153.0350 N   0  0  0  0  0  0  0  0  0  0  0  0
  157.8160  213.2180  151.6890 N   0  0  0  0  0  2  0  0  0  0  0  0
  155.4910  212.9950  155.7530 C   0  0  0  0  0  3  0  0  0  0  0  0
  157.8980  212.2680  155.0600 C   0  0  2  0  0  0  0  0  0  0  0  0
  154.3560  213.7250  155.3660 C   0  0  0  0  0  3  0  0  0  0  0  0
  158.7230  212.8040  153.8440 C   0  0  1  0  0  3  0  0  0  0  0  0
  155.4860  214.4530  153.3290 C   0  0  0  0  0  3  0  0  0  0  0  0
  156.5050  210.4190  154.3160 O   0  0  0  0  0  1  0  0  0  0  0  0
  157.6360  210.7510  155.0620 C   0  0  0  0  0  2  0  0  0  0  0  0
  158.5840  212.6920  156.3530 C   0  0  0  0  0  2  0  0  0  0  0  0
  160.0940  212.8420  156.1790 C   0  0  0  0  0  2  0  0  0  0  0  0
  162.2150  210.0150  156.1030 C   0  0  0  0  0  2  0  0  0  0  0  0
  160.8380  211.7450  156.9170 C   0  0  2  0  0  3  0  0  0  0  0  0
  162.2380  212.1200  157.0720 N   0  0  0  0  0  2  0  0  0  0  0  0
  163.0310  211.1940  156.3670 N   0  0  0  0  0  0  0  0  0  0  0  0
  160.7860  210.4640  156.1310 C   0  0  0  0  0  2  0  0  0  0  0  0
  164.1020  210.7840  157.2600 C   0  0  0  0  0  1  0  0  0  0  0  0
  1 10  2  0  0  0  0
  1  2  1  0  0  0  0
  2  7  2  0  0  0  0
  2  9  1  0  0  0  0
  3  4  2  0  0  0  0
  3  9  1  0  0  0  0
  4  8  1  0  0  0  0
  5  8  2  0  0  0  0
  5 33  1  0  0  0  0
  8  6  1  0  0  0  0
  9  5  1  0  0  0  0
 10  3  1  0  0  0  0
 11 15  1  0  0  0  0
 12 17  1  0  0  0  0
 13 16  1  0  0  0  0
 13  1  1  1  0  0  0
 14 11  1  6  0  0  0
 14 18  1  0  0  0  0
 15 12  1  0  0  0  0
 17 19  1  0  0  0  0
 18 13  1  0  0  0  0
 18 16  1  1  0  0  0
 18 19  1  0  0  0  0
 20 21  1  0  0  0  0
 21 24  1  6  0  0  0
 21 14  1  0  0  0  0
 22 23  1  6  0  0  0
 22 20  1  0  0  0  0
 23 24  1  0  0  0  0
 25 26  1  6  0  0  0
 25 22  1  0  0  0  0
 27 30  2  0  0  0  0
 27 29  1  0  0  0  0
 28 30  1  0  0  0  0
 29 25  1  0  0  0  0
 30 26  1  0  0  0  0
 32 31  1  0  0  0  0
 32  4  1  0  0  0  0
 34 36  1  0  0  0  0
 35 33  1  6  0  0  0
 35 44  1  0  0  0  0
 36 42  1  0  0  0  0
 36 41  2  0  0  0  0
 37 43  2  0  0  0  0
 38 40  1  0  0  0  0
 38 35  1  0  0  0  0
 39 34  1  0  0  0  0
 40 39  1  0  0  0  0
 42 47  1  6  0  0  0
 42 48  1  0  0  0  0
 43 41  1  0  0  0  0
 44 39  1  6  0  0  0
 44 42  1  0  0  0  0
 45 34  2  0  0  0  0
 45 37  1  0  0  0  0
 46 47  1  0  0  0  0
 49 48  1  0  0  0  0
 50 54  1  0  0  0  0
 50 53  1  0  0  0  0
 51 49  1  6  0  0  0
 51 52  1  0  0  0  0
 53 52  1  0  0  0  0
 53 55  1  0  0  0  0
 54 51  1  0  0  0  0
M  END
>  <MODEL>
3

>  <REMARK>
 VINA RESULT:      -4.9      3.547      7.618
  Name = 
  10 active torsions:
  status: ('A' for Active; 'I' for Inactive)
    1  A    between atoms: N_3  and  C_30
    2  A    between atoms: C_5  and  C_19
    3  A    between atoms: C_8  and  C_23
    4  A    between atoms: C_15  and  C_31
    5  A    between atoms: C_15  and  C_47
    6  A    between atoms: C_20  and  C_27
    7  A    between atoms: C_22  and  C_31
    8  A    between atoms: C_23  and  C_33
    9  A    between atoms: C_28  and  N_52
   10  A    between atoms: C_45  and  C_47
                            x       y       z     vdW  Elec       q    Type
                         _______ _______ _______ _____ _____    ______ ____

>  <TORSDO>
F 10

$$$$
=
 OpenBabel11072412463D

 55 64  0  0  1  0  0  0  0  0999 V2000
  159.7510  211.2930  152.7550 C   0  0  0  0  0  0  0  0  0  0  0  0
  160.1370  209.8960  152.4460 C   0  0  0  0  0  0  0  0  0  0  0  0
  159.9980  210.0860  154.6320 C   0  0  0  0  0  0  0  0  0  0  0  0
  160.5940  209.6820  155.8130 C   0  0  0  0  0  0  0  0  0  0  0  0
  161.0700  208.2490  154.1550 C   0  0  0  0  0  0  0  0  0  0  0  0
  162.2030  207.7740  156.4190 C   0  0  0  0  0  1  0  0  0  0  0  0
  160.4090  209.4060  151.3220 O   0  0  0  0  0  0  0  0  0  0  0  0
  161.2600  208.4930  155.5180 C   0  0  0  0  0  0  0  0  0  0  0  0
  160.2570  209.2100  153.6720 N   0  0  0  0  0  0  0  0  0  0  0  0
  159.6770  211.4200  154.0930 C   0  0  0  0  0  3  0  0  0  0  0  0
  156.1420  213.9510  151.2740 C   0  0  0  0  0  2  0  0  0  0  0  0
  155.3600  213.3330  153.5960 C   0  0  0  0  0  2  0  0  0  0  0  0
  159.4880  212.4400  151.8080 C   0  0  2  0  0  3  0  0  0  0  0  0
  157.6310  214.2820  151.2790 C   0  0  1  0  0  3  0  0  0  0  0  0
  155.4810  214.4490  152.5540 C   0  0  0  0  0  2  0  0  0  0  0  0
  159.8980  213.7920  152.3710 C   0  0  0  0  0  2  0  0  0  0  0  0
  156.6250  212.4900  153.7740 C   0  0  0  0  0  2  0  0  0  0  0  0
  158.4280  213.4280  152.3070 C   0  0  2  0  0  0  0  0  0  0  0  0
  157.8830  213.3360  153.7380 C   0  0  0  0  0  2  0  0  0  0  0  0
  157.4750  213.0410  148.7280 S   0  0  0  0  0  0  0  0  0  0  0  0
  158.1220  214.3310  149.8230 C   0  0  2  0  0  3  0  0  0  0  0  0
  158.6970  213.6210  147.5220 C   0  0  1  0  0  3  0  0  0  0  0  0
  159.9880  213.8300  148.2950 C   0  0  0  0  0  2  0  0  0  0  0  0
  159.6290  214.4190  149.6530 C   0  0  0  0  0  2  0  0  0  0  0  0
  158.8660  212.6700  146.4200 N   0  0  1  0  0  0  0  0  0  0  0  0
  158.5180  213.3610  145.1660 C   0  0  0  0  0  2  0  0  0  0  0  0
  160.7690  212.9390  145.0770 C   0  0  0  0  0  3  0  0  0  0  0  0
  159.9440  214.1710  143.1030 C   0  0  0  0  0  1  0  0  0  0  0  0
  160.2460  212.4150  146.2810 N   0  0  0  0  0  2  0  0  0  0  0  0
  159.7900  213.4830  144.4090 C   0  0  0  0  0  0  0  0  0  0  0  0
  161.2430  211.7020  156.9930 O   0  0  0  0  0  1  0  0  0  0  0  0
  160.7310  210.4480  157.0140 N   0  0  0  0  0  2  0  0  0  0  0  0
  161.8690  207.3140  153.2980 C   0  0  0  0  0  2  0  0  0  0  0  0
  161.5640  203.3710  150.9720 C   0  0  0  0  0  0  0  0  0  0  0  0
  160.9830  206.3090  152.5640 C   0  0  2  0  0  3  0  0  0  0  0  0
  161.2170  204.0460  149.8290 C   0  0  0  0  0  0  0  0  0  0  0  0
  161.1710  201.2680  149.8870 C   0  0  0  0  0  3  0  0  0  0  0  0
  160.4990  205.2710  153.4870 N   0  0  0  0  0  2  0  0  0  0  0  0
  161.8730  204.2510  152.0330 N   0  0  0  0  0  0  0  0  0  0  0  0
  161.2660  204.1050  153.2830 N   0  0  0  0  0  2  0  0  0  0  0  0
  160.8300  203.3590  148.6760 C   0  0  0  0  0  3  0  0  0  0  0  0
  161.2270  205.5210  150.0790 C   0  0  2  0  0  0  0  0  0  0  0  0
  160.8170  201.9560  148.7080 C   0  0  0  0  0  3  0  0  0  0  0  0
  161.8180  205.6030  151.5250 C   0  0  1  0  0  3  0  0  0  0  0  0
  161.5420  201.9760  151.0380 C   0  0  0  0  0  3  0  0  0  0  0  0
  159.6960  206.8470  148.7330 O   0  0  0  0  0  1  0  0  0  0  0  0
  159.8130  206.1090  149.9110 C   0  0  0  0  0  2  0  0  0  0  0  0
  162.1970  206.1820  149.1070 C   0  0  0  0  0  2  0  0  0  0  0  0
  162.9540  205.1570  148.2660 C   0  0  0  0  0  2  0  0  0  0  0  0
  161.8630  204.4140  144.9870 C   0  0  0  0  0  2  0  0  0  0  0  0
  162.9010  205.5150  146.7930 C   0  0  2  0  0  3  0  0  0  0  0  0
  161.6310  206.1610  146.4910 N   0  0  0  0  0  2  0  0  0  0  0  0
  160.9210  205.3520  145.5830 N   0  0  0  0  0  0  0  0  0  0  0  0
  162.9990  204.2710  145.9540 C   0  0  0  0  0  2  0  0  0  0  0  0
  160.4480  206.2220  144.5180 C   0  0  0  0  0  1  0  0  0  0  0  0
  1 10  2  0  0  0  0
  2  1  1  0  0  0  0
  2  9  1  0  0  0  0
  3  4  2  0  0  0  0
  4 32  1  0  0  0  0
  5  8  2  0  0  0  0
  7  2  2  0  0  0  0
  8  4  1  0  0  0  0
  8  6  1  0  0  0  0
  9  5  1  0  0  0  0
  9  3  1  0  0  0  0
 10  3  1  0  0  0  0
 11 15  1  0  0  0  0
 12 17  1  0  0  0  0
 13 18  1  0  0  0  0
 13 16  1  0  0  0  0
 13  1  1  1  0  0  0
 14 11  1  6  0  0  0
 14 18  1  0  0  0  0
 15 12  1  0  0  0  0
 18 16  1  1  0  0  0
 18 19  1  0  0  0  0
 19 17  1  0  0  0  0
 20 21  1  0  0  0  0
 21 24  1  1  0  0  0
 21 14  1  0  0  0  0
 22 23  1  1  0  0  0
 22 20  1  0  0  0  0
 23 24  1  0  0  0  0
 25 26  1  6  0  0  0
 25 22  1  0  0  0  0
 27 29  1  0  0  0  0
 28 30  1  0  0  0  0
 29 25  1  0  0  0  0
 30 27  2  0  0  0  0
 30 26  1  0  0  0  0
 31 32  1  0  0  0  0
 33  5  1  0  0  0  0
 34 45  1  0  0  0  0
 34 39  1  0  0  0  0
 35 33  1  1  0  0  0
 35 38  1  0  0  0  0
 36 42  1  0  0  0  0
 36 34  2  0  0  0  0
 37 45  2  0  0  0  0
 39 40  1  0  0  0  0
 40 38  1  0  0  0  0
 41 43  2  0  0  0  0
 41 36  1  0  0  0  0
 42 48  1  6  0  0  0
 42 44  1  0  0  0  0
 43 37  1  0  0  0  0
 44 39  1  1  0  0  0
 44 35  1  0  0  0  0
 46 47  1  0  0  0  0
 47 42  1  0  0  0  0
 49 48  1  0  0  0  0
 50 53  1  0  0  0  0
 50 54  1  0  0  0  0
 51 49  1  1  0  0  0
 52 51  1  0  0  0  0
 53 52  1  0  0  0  0
 54 51  1  0  0  0  0
 55 53  1  0  0  0  0
M  END
>  <MODEL>
4

>  <REMARK>
 VINA RESULT:      -4.4      2.017      2.877
  Name = 
  10 active torsions:
  status: ('A' for Active; 'I' for Inactive)
    1  A    between atoms: N_3  and  C_30
    2  A    between atoms: C_5  and  C_19
    3  A    between atoms: C_8  and  C_23
    4  A    between atoms: C_15  and  C_31
    5  A    between atoms: C_15  and  C_47
    6  A    between atoms: C_20  and  C_27
    7  A    between atoms: C_22  and  C_31
    8  A    between atoms: C_23  and  C_33
    9  A    between atoms: C_28  and  N_52
   10  A    between atoms: C_45  and  C_47
                            x       y       z     vdW  Elec       q    Type
                         _______ _______ _______ _____ _____    ______ ____

>  <TORSDO>
F 10

$$$$
