=
 OpenBabel11072415243D

 25 27  0  0  1  0  0  0  0  0999 V2000
  161.1090  202.0220  148.2590 C   0  0  0  0  0  3  0  0  0  0  0  0
  161.0020  200.8370  150.2860 N   0  0  0  0  0  0  0  0  0  0  0  0
  161.0250  203.2130  150.3520 C   0  0  0  0  0  0  0  0  0  0  0  0
  161.2500  205.7980  146.2490 C   0  0  0  0  0  0  0  0  0  0  0  0
  161.3350  205.8770  144.5020 Cl  0  0  0  0  0  0  0  0  0  0  0  0
  161.1150  205.6750  149.0550 C   0  0  0  0  0  0  0  0  0  0  0  0
  161.0910  203.2390  148.9490 C   0  0  0  0  0  0  0  0  0  0  0  0
  161.2280  206.9740  146.9990 C   0  0  0  0  0  3  0  0  0  0  0  0
  161.2050  204.5590  146.8890 C   0  0  0  0  0  3  0  0  0  0  0  0
  161.1600  206.9130  148.3920 C   0  0  0  0  0  3  0  0  0  0  0  0
  161.0450  205.5910  150.4660 C   0  0  0  0  0  0  0  0  0  0  0  0
  161.1370  204.4810  148.2910 C   0  0  0  0  0  0  0  0  0  0  0  0
  160.9810  201.9860  151.0110 C   0  0  0  0  0  3  0  0  0  0  0  0
  161.0060  204.3700  151.0610 N   0  0  0  0  0  0  0  0  0  0  0  0
  161.0640  200.8540  148.9530 N   0  0  0  0  0  0  0  0  0  0  0  0
  161.0320  206.7970  151.3670 C   0  0  2  0  0  3  0  0  0  0  0  0
  162.3890  210.1390  150.7090 O   0  0  0  0  0  0  0  0  0  0  0  0
  161.8220  207.8900  150.8090 N   0  0  0  0  0  2  0  0  0  0  0  0
  160.6660  209.5950  152.1870 N   0  0  0  0  0  2  0  0  0  0  0  0
  161.6560  209.2490  151.2170 C   0  0  0  0  0  0  0  0  0  0  0  0
  158.9860  211.2380  152.7770 C   0  0  0  0  0  1  0  0  0  0  0  0
  160.4680  210.9650  152.6300 C   0  0  0  0  0  2  0  0  0  0  0  0
  160.5190  206.5290  153.7930 O   0  0  0  0  0  1  0  0  0  0  0  0
  161.4500  206.4550  152.7660 C   0  0  0  0  0  0  0  0  0  0  0  0
  162.6220  206.0710  153.0150 O   0  0  0  0  0  0  0  0  0  0  0  0
  1  7  2  0  0  0  0
  1 15  1  0  0  0  0
  2 13  1  0  0  0  0
  3 13  2  0  0  0  0
  3 14  1  0  0  0  0
  4  9  2  0  0  0  0
  4  8  1  0  0  0  0
  5  4  1  0  0  0  0
  6 11  1  0  0  0  0
  7  3  1  0  0  0  0
  8 10  2  0  0  0  0
  9 12  1  0  0  0  0
 10  6  1  0  0  0  0
 11 14  2  0  0  0  0
 11 16  1  0  0  0  0
 12  7  1  0  0  0  0
 12  6  2  0  0  0  0
 15  2  2  0  0  0  0
 16 18  1  6  0  0  0
 16 24  1  0  0  0  0
 17 20  2  0  0  0  0
 18 20  1  0  0  0  0
 19 22  1  0  0  0  0
 20 19  1  0  0  0  0
 22 21  1  0  0  0  0
 24 25  2  0  0  0  0
 24 23  1  0  0  0  0
M  END
>  <MODEL>
1

>  <REMARK>
 VINA RESULT:      -8.5      0.000      0.000
  Name = 
  4 active torsions:
  status: ('A' for Active; 'I' for Inactive)
    1  A    between atoms: N_2  and  CA_8
    2  A    between atoms: N_6  and  C_17
    3  A    between atoms: CA_8  and  C_10
    4  A    between atoms: CA_8  and  C_20
                            x       y       z     vdW  Elec       q    Type
                         _______ _______ _______ _____ _____    ______ ____

>  <TORSDO>
F 4

$$$$
=
 OpenBabel11072415243D

 25 27  0  0  1  0  0  0  0  0999 V2000
  161.5070  203.6260  146.2730 C   0  0  0  0  0  3  0  0  0  0  0  0
  162.0130  205.5040  144.9530 N   0  0  0  0  0  0  0  0  0  0  0  0
  161.6840  205.8050  147.2880 C   0  0  0  0  0  0  0  0  0  0  0  0
  160.6280  202.0240  150.1440 C   0  0  0  0  0  0  0  0  0  0  0  0
  160.3240  200.3130  150.3530 Cl  0  0  0  0  0  0  0  0  0  0  0  0
  161.1140  204.7730  149.8110 C   0  0  0  0  0  0  0  0  0  0  0  0
  161.4470  204.4260  147.4200 C   0  0  0  0  0  0  0  0  0  0  0  0
  160.5840  202.8790  151.2450 C   0  0  0  0  0  3  0  0  0  0  0  0
  160.9130  202.5310  148.8750 C   0  0  0  0  0  3  0  0  0  0  0  0
  160.8260  204.2440  151.0800 C   0  0  0  0  0  3  0  0  0  0  0  0
  161.3640  206.1530  149.6220 C   0  0  0  0  0  0  0  0  0  0  0  0
  161.1590  203.9020  148.6930 C   0  0  0  0  0  0  0  0  0  0  0  0
  161.9680  206.3310  146.0290 C   0  0  0  0  0  3  0  0  0  0  0  0
  161.6350  206.6180  148.3730 N   0  0  0  0  0  0  0  0  0  0  0  0
  161.7900  204.1930  145.0710 N   0  0  0  0  0  0  0  0  0  0  0  0
  161.3260  207.1610  150.7380 C   0  0  2  0  0  3  0  0  0  0  0  0
  161.9870  210.7640  150.5860 O   0  0  0  0  0  0  0  0  0  0  0  0
  161.7950  208.4700  150.2930 N   0  0  0  0  0  2  0  0  0  0  0  0
  160.7520  209.6370  152.2140 N   0  0  0  0  0  2  0  0  0  0  0  0
  161.5300  209.6720  151.0170 C   0  0  0  0  0  0  0  0  0  0  0  0
  159.0180  211.2380  152.7640 C   0  0  0  0  0  1  0  0  0  0  0  0
  160.4620  210.8380  152.9800 C   0  0  0  0  0  2  0  0  0  0  0  0
  161.4120  206.6570  153.1800 O   0  0  0  0  0  1  0  0  0  0  0  0
  162.0620  206.6800  151.9530 C   0  0  0  0  0  0  0  0  0  0  0  0
  163.2480  206.2670  151.8690 O   0  0  0  0  0  0  0  0  0  0  0  0
  1  7  1  0  0  0  0
  2 15  1  0  0  0  0
  2 13  2  0  0  0  0
  3  7  2  0  0  0  0
  3 14  1  0  0  0  0
  4  5  1  0  0  0  0
  4  8  1  0  0  0  0
  6 10  1  0  0  0  0
  7 12  1  0  0  0  0
  9  4  2  0  0  0  0
 10  8  2  0  0  0  0
 11  6  1  0  0  0  0
 11 16  1  0  0  0  0
 12  9  1  0  0  0  0
 12  6  2  0  0  0  0
 13  3  1  0  0  0  0
 14 11  2  0  0  0  0
 15  1  2  0  0  0  0
 16 18  1  6  0  0  0
 16 24  1  0  0  0  0
 17 20  2  0  0  0  0
 18 20  1  0  0  0  0
 19 22  1  0  0  0  0
 20 19  1  0  0  0  0
 21 22  1  0  0  0  0
 24 23  1  0  0  0  0
 25 24  2  0  0  0  0
M  END
>  <MODEL>
2

>  <REMARK>
 VINA RESULT:      -8.0      2.527      3.608
  Name = 
  4 active torsions:
  status: ('A' for Active; 'I' for Inactive)
    1  A    between atoms: N_2  and  CA_8
    2  A    between atoms: N_6  and  C_17
    3  A    between atoms: CA_8  and  C_10
    4  A    between atoms: CA_8  and  C_20
                            x       y       z     vdW  Elec       q    Type
                         _______ _______ _______ _____ _____    ______ ____

>  <TORSDO>
F 4

$$$$
=
 OpenBabel11072415243D

 25 27  0  0  1  0  0  0  0  0999 V2000
  161.9830  208.0200  149.4260 C   0  0  0  0  0  3  0  0  0  0  0  0
  162.2310  210.2410  148.6960 N   0  0  0  0  0  0  0  0  0  0  0  0
  161.7210  209.8410  150.9830 C   0  0  0  0  0  0  0  0  0  0  0  0
  161.1730  205.3090  152.6380 C   0  0  0  0  0  0  0  0  0  0  0  0
  161.1570  203.5800  152.3640 Cl  0  0  0  0  0  0  0  0  0  0  0  0
  161.1950  208.0860  153.0810 C   0  0  0  0  0  0  0  0  0  0  0  0
  161.7190  208.4590  150.7290 C   0  0  0  0  0  0  0  0  0  0  0  0
  160.9190  205.8150  153.9130 C   0  0  0  0  0  3  0  0  0  0  0  0
  161.4380  206.1800  151.5800 C   0  0  0  0  0  3  0  0  0  0  0  0
  160.9300  207.1940  154.1330 C   0  0  0  0  0  3  0  0  0  0  0  0
  161.2120  209.4860  153.2820 C   0  0  0  0  0  0  0  0  0  0  0  0
  161.4530  207.5700  151.7860 C   0  0  0  0  0  0  0  0  0  0  0  0
  161.9820  210.7270  149.9400 C   0  0  0  0  0  3  0  0  0  0  0  0
  161.4710  210.3100  152.2310 N   0  0  0  0  0  0  0  0  0  0  0  0
  162.2310  208.9290  148.4470 N   0  0  0  0  0  0  0  0  0  0  0  0
  160.9370  210.1340  154.6120 C   0  0  2  0  0  3  0  0  0  0  0  0
  158.8840  213.1700  154.7360 O   0  0  0  0  0  0  0  0  0  0  0  0
  160.4850  211.5130  154.4520 N   0  0  0  0  0  2  0  0  0  0  0  0
  158.2780  211.0410  155.4790 N   0  0  0  0  0  2  0  0  0  0  0  0
  159.1990  211.9590  154.8860 C   0  0  0  0  0  0  0  0  0  0  0  0
  155.9000  210.7040  155.1630 C   0  0  0  0  0  1  0  0  0  0  0  0
  156.9630  211.4570  155.9360 C   0  0  0  0  0  2  0  0  0  0  0  0
  162.0730  209.1150  156.5850 O   0  0  0  0  0  1  0  0  0  0  0  0
  162.1090  210.0290  155.5410 C   0  0  0  0  0  0  0  0  0  0  0  0
  163.1370  210.7350  155.3670 O   0  0  0  0  0  0  0  0  0  0  0  0
  1  7  1  0  0  0  0
  2 13  2  0  0  0  0
  3 14  1  0  0  0  0
  4  8  1  0  0  0  0
  5  4  1  0  0  0  0
  6 11  1  0  0  0  0
  6 10  1  0  0  0  0
  7  3  2  0  0  0  0
  7 12  1  0  0  0  0
  8 10  2  0  0  0  0
  9 12  1  0  0  0  0
  9  4  2  0  0  0  0
 11 16  1  0  0  0  0
 12  6  2  0  0  0  0
 13  3  1  0  0  0  0
 14 11  2  0  0  0  0
 15  2  1  0  0  0  0
 15  1  2  0  0  0  0
 16 18  1  6  0  0  0
 16 24  1  0  0  0  0
 17 20  2  0  0  0  0
 18 20  1  0  0  0  0
 19 22  1  0  0  0  0
 20 19  1  0  0  0  0
 21 22  1  0  0  0  0
 24 23  1  0  0  0  0
 25 24  2  0  0  0  0
M  END
>  <MODEL>
3

>  <REMARK>
 VINA RESULT:      -7.9      4.235      6.027
  Name = 
  4 active torsions:
  status: ('A' for Active; 'I' for Inactive)
    1  A    between atoms: N_2  and  CA_8
    2  A    between atoms: N_6  and  C_17
    3  A    between atoms: CA_8  and  C_10
    4  A    between atoms: CA_8  and  C_20
                            x       y       z     vdW  Elec       q    Type
                         _______ _______ _______ _____ _____    ______ ____

>  <TORSDO>
F 4

$$$$
=
 OpenBabel11072415243D

 25 27  0  0  1  0  0  0  0  0999 V2000
  161.9480  209.7850  151.0140 C   0  0  0  0  0  3  0  0  0  0  0  0
  162.2150  210.9610  148.9960 N   0  0  0  0  0  0  0  0  0  0  0  0
  161.7980  208.6230  148.9080 C   0  0  0  0  0  0  0  0  0  0  0  0
  161.2290  206.0580  152.9910 C   0  0  0  0  0  0  0  0  0  0  0  0
  161.1690  205.9720  154.7390 Cl  0  0  0  0  0  0  0  0  0  0  0  0
  161.3280  206.1920  150.1840 C   0  0  0  0  0  0  0  0  0  0  0  0
  161.7530  208.5900  150.3120 C   0  0  0  0  0  0  0  0  0  0  0  0
  161.0430  204.9040  152.2300 C   0  0  0  0  0  3  0  0  0  0  0  0
  161.4650  207.2810  152.3610 C   0  0  0  0  0  3  0  0  0  0  0  0
  161.0910  204.9710  150.8360 C   0  0  0  0  0  3  0  0  0  0  0  0
  161.3790  206.2820  148.7730 C   0  0  0  0  0  0  0  0  0  0  0  0
  161.5160  207.3640  150.9600 C   0  0  0  0  0  0  0  0  0  0  0  0
  162.0330  209.8330  148.2600 C   0  0  0  0  0  3  0  0  0  0  0  0
  161.6140  207.4870  148.1890 N   0  0  0  0  0  0  0  0  0  0  0  0
  162.1740  210.9380  150.3300 N   0  0  0  0  0  0  0  0  0  0  0  0
  161.2070  205.0970  147.8620 C   0  0  2  0  0  3  0  0  0  0  0  0
  161.4440  201.5190  148.6270 O   0  0  0  0  0  0  0  0  0  0  0  0
  161.3940  203.8400  148.5790 N   0  0  0  0  0  2  0  0  0  0  0  0
  160.8700  202.4750  146.5770 N   0  0  0  0  0  2  0  0  0  0  0  0
  161.2450  202.5640  147.9530 C   0  0  0  0  0  0  0  0  0  0  0  0
  159.7420  201.3530  144.7500 C   0  0  0  0  0  1  0  0  0  0  0  0
  160.7110  201.1970  145.9030 C   0  0  0  0  0  2  0  0  0  0  0  0
  161.5370  205.6080  145.4420 O   0  0  0  0  0  0  0  0  0  0  0  0
  162.0830  205.1910  146.6480 C   0  0  0  0  0  0  0  0  0  0  0  0
  163.3130  204.9290  146.7170 O   0  0  0  0  0  1  0  0  0  0  0  0
  2 15  2  0  0  0  0
  3  7  1  0  0  0  0
  4  5  1  0  0  0  0
  6 10  2  0  0  0  0
  6 12  1  0  0  0  0
  7 12  1  0  0  0  0
  7  1  2  0  0  0  0
  8  4  2  0  0  0  0
  9  4  1  0  0  0  0
 10  8  1  0  0  0  0
 11  6  1  0  0  0  0
 12  9  2  0  0  0  0
 13  3  2  0  0  0  0
 13  2  1  0  0  0  0
 14 11  2  0  0  0  0
 14  3  1  0  0  0  0
 15  1  1  0  0  0  0
 16 24  1  6  0  0  0
 16 18  1  0  0  0  0
 16 11  1  0  0  0  0
 19 20  1  0  0  0  0
 20 18  1  0  0  0  0
 20 17  2  0  0  0  0
 21 22  1  0  0  0  0
 22 19  1  0  0  0  0
 23 24  2  0  0  0  0
 24 25  1  0  0  0  0
M  END
>  <MODEL>
4

>  <REMARK>
 VINA RESULT:      -7.9      3.624      7.457
  Name = 
  4 active torsions:
  status: ('A' for Active; 'I' for Inactive)
    1  A    between atoms: N_2  and  CA_8
    2  A    between atoms: N_6  and  C_17
    3  A    between atoms: CA_8  and  C_10
    4  A    between atoms: CA_8  and  C_20
                            x       y       z     vdW  Elec       q    Type
                         _______ _______ _______ _____ _____    ______ ____

>  <TORSDO>
F 4

$$$$
=
 OpenBabel11072415243D

 25 27  0  0  1  0  0  0  0  0999 V2000
  161.2150  205.1550  147.5600 C   0  0  0  0  0  3  0  0  0  0  0  0
  161.4660  207.3070  146.6480 N   0  0  0  0  0  0  0  0  0  0  0  0
  161.4100  207.0680  149.0130 C   0  0  0  0  0  0  0  0  0  0  0  0
  160.8920  202.6880  151.0430 C   0  0  0  0  0  0  0  0  0  0  0  0
  160.6980  200.9550  150.8940 Cl  0  0  0  0  0  0  0  0  0  0  0  0
  161.2030  205.4720  151.2860 C   0  0  0  0  0  0  0  0  0  0  0  0
  161.2570  205.6800  148.8570 C   0  0  0  0  0  0  0  0  0  0  0  0
  160.9430  203.2770  152.3060 C   0  0  0  0  0  3  0  0  0  0  0  0
  160.9960  203.4790  149.8980 C   0  0  0  0  0  3  0  0  0  0  0  0
  161.0980  204.6600  152.4270 C   0  0  0  0  0  3  0  0  0  0  0  0
  161.3610  206.8750  151.3860 C   0  0  0  0  0  0  0  0  0  0  0  0
  161.1520  204.8710  150.0020 C   0  0  0  0  0  0  0  0  0  0  0  0
  161.5130  207.8750  147.8820 C   0  0  0  0  0  3  0  0  0  0  0  0
  161.4560  207.6190  150.2510 N   0  0  0  0  0  0  0  0  0  0  0  0
  161.3210  205.9890  146.4930 N   0  0  0  0  0  0  0  0  0  0  0  0
  161.4120  207.6100  152.6970 C   0  0  2  0  0  3  0  0  0  0  0  0
  159.6750  206.8300  155.8300 O   0  0  0  0  0  0  0  0  0  0  0  0
  160.4670  207.0520  153.6600 N   0  0  0  0  0  2  0  0  0  0  0  0
  161.5810  208.1540  155.5810 N   0  0  0  0  0  2  0  0  0  0  0  0
  160.5390  207.3270  155.0600 C   0  0  0  0  0  0  0  0  0  0  0  0
  161.8130  209.9570  157.1830 C   0  0  0  0  0  1  0  0  0  0  0  0
  161.6860  208.4590  156.9980 C   0  0  0  0  0  2  0  0  0  0  0  0
  162.3460  209.9100  152.4510 O   0  0  0  0  0  1  0  0  0  0  0  0
  161.2300  209.0880  152.5190 C   0  0  0  0  0  0  0  0  0  0  0  0
  160.0810  209.5880  152.3980 O   0  0  0  0  0  0  0  0  0  0  0  0
  1  7  1  0  0  0  0
  2 13  2  0  0  0  0
  3 14  1  0  0  0  0
  4  8  1  0  0  0  0
  5  4  1  0  0  0  0
  6 11  1  0  0  0  0
  6 10  1  0  0  0  0
  7  3  2  0  0  0  0
  7 12  1  0  0  0  0
  8 10  2  0  0  0  0
  9 12  1  0  0  0  0
  9  4  2  0  0  0  0
 11 16  1  0  0  0  0
 12  6  2  0  0  0  0
 13  3  1  0  0  0  0
 14 11  2  0  0  0  0
 15  2  1  0  0  0  0
 15  1  2  0  0  0  0
 16 24  1  6  0  0  0
 16 18  1  0  0  0  0
 18 20  1  0  0  0  0
 19 22  1  0  0  0  0
 20 19  1  0  0  0  0
 20 17  2  0  0  0  0
 22 21  1  0  0  0  0
 23 24  1  0  0  0  0
 25 24  2  0  0  0  0
M  END
>  <MODEL>
5

>  <REMARK>
 VINA RESULT:      -7.5      2.921      4.691
  Name = 
  4 active torsions:
  status: ('A' for Active; 'I' for Inactive)
    1  A    between atoms: N_2  and  CA_8
    2  A    between atoms: N_6  and  C_17
    3  A    between atoms: CA_8  and  C_10
    4  A    between atoms: CA_8  and  C_20
                            x       y       z     vdW  Elec       q    Type
                         _______ _______ _______ _____ _____    ______ ____

>  <TORSDO>
F 4

$$$$
=
 OpenBabel11072415243D

 25 27  0  0  1  0  0  0  0  0999 V2000
  160.9030  205.6000  153.8780 C   0  0  0  0  0  3  0  0  0  0  0  0
  161.0470  207.8080  154.6700 N   0  0  0  0  0  0  0  0  0  0  0  0
  161.1650  207.4250  152.3270 C   0  0  0  0  0  0  0  0  0  0  0  0
  160.8880  202.9190  150.5410 C   0  0  0  0  0  0  0  0  0  0  0  0
  160.7230  201.1930  150.7840 Cl  0  0  0  0  0  0  0  0  0  0  0  0
  161.1550  205.6900  150.1480 C   0  0  0  0  0  0  0  0  0  0  0  0
  161.0290  206.0460  152.5570 C   0  0  0  0  0  0  0  0  0  0  0  0
  161.0170  203.4310  149.2510 C   0  0  0  0  0  3  0  0  0  0  0  0
  160.8910  203.7800  151.6400 C   0  0  0  0  0  3  0  0  0  0  0  0
  161.1490  204.8080  149.0550 C   0  0  0  0  0  3  0  0  0  0  0  0
  161.2870  207.0880  149.9730 C   0  0  0  0  0  0  0  0  0  0  0  0
  161.0230  205.1670  151.4600 C   0  0  0  0  0  0  0  0  0  0  0  0
  161.1730  208.3010  153.4100 C   0  0  0  0  0  3  0  0  0  0  0  0
  161.2900  207.9010  151.0620 N   0  0  0  0  0  0  0  0  0  0  0  0
  160.9160  206.4990  154.8960 N   0  0  0  0  0  0  0  0  0  0  0  0
  161.4470  207.7410  148.6260 C   0  0  2  0  0  3  0  0  0  0  0  0
  162.9870  205.8250  145.9050 O   0  0  0  0  0  0  0  0  0  0  0  0
  162.4270  207.0380  147.8040 N   0  0  0  0  0  2  0  0  0  0  0  0
  160.7320  206.3930  146.1140 N   0  0  0  0  0  2  0  0  0  0  0  0
  162.0840  206.3950  146.5760 C   0  0  0  0  0  0  0  0  0  0  0  0
  160.6420  204.2700  144.9500 C   0  0  0  0  0  1  0  0  0  0  0  0
  160.3440  205.7530  144.8680 C   0  0  0  0  0  2  0  0  0  0  0  0
  162.4250  209.6700  149.8690 O   0  0  0  0  0  1  0  0  0  0  0  0
  161.7570  209.2040  148.7460 C   0  0  0  0  0  0  0  0  0  0  0  0
  161.4480  210.0070  147.8270 O   0  0  0  0  0  0  0  0  0  0  0  0
  1 15  1  0  0  0  0
  2 15  2  0  0  0  0
  3  7  1  0  0  0  0
  3 13  2  0  0  0  0
  4  5  1  0  0  0  0
  4  9  1  0  0  0  0
  6 12  1  0  0  0  0
  7  1  2  0  0  0  0
  8  4  2  0  0  0  0
 10  8  1  0  0  0  0
 10  6  2  0  0  0  0
 11  6  1  0  0  0  0
 11 14  2  0  0  0  0
 12  9  2  0  0  0  0
 12  7  1  0  0  0  0
 13  2  1  0  0  0  0
 14  3  1  0  0  0  0
 16 18  1  1  0  0  0
 16 24  1  0  0  0  0
 16 11  1  0  0  0  0
 17 20  2  0  0  0  0
 19 20  1  0  0  0  0
 20 18  1  0  0  0  0
 22 21  1  0  0  0  0
 22 19  1  0  0  0  0
 24 23  1  0  0  0  0
 25 24  2  0  0  0  0
M  END
>  <MODEL>
6

>  <REMARK>
 VINA RESULT:      -7.2      3.220      5.876
  Name = 
  4 active torsions:
  status: ('A' for Active; 'I' for Inactive)
    1  A    between atoms: N_2  and  CA_8
    2  A    between atoms: N_6  and  C_17
    3  A    between atoms: CA_8  and  C_10
    4  A    between atoms: CA_8  and  C_20
                            x       y       z     vdW  Elec       q    Type
                         _______ _______ _______ _____ _____    ______ ____

>  <TORSDO>
F 4

$$$$
=
 OpenBabel11072415243D

 25 27  0  0  1  0  0  0  0  0999 V2000
  161.3080  210.0110  153.6340 C   0  0  0  0  0  3  0  0  0  0  0  0
  160.8650  208.4120  155.3010 N   0  0  0  0  0  0  0  0  0  0  0  0
  161.1340  207.6770  153.0560 C   0  0  0  0  0  0  0  0  0  0  0  0
  162.0470  210.8600  149.5050 C   0  0  0  0  0  0  0  0  0  0  0  0
  162.3150  212.5040  148.9660 Cl  0  0  0  0  0  0  0  0  0  0  0  0
  161.6160  208.2190  150.3670 C   0  0  0  0  0  0  0  0  0  0  0  0
  161.3470  209.0080  152.6580 C   0  0  0  0  0  0  0  0  0  0  0  0
  162.0730  209.8130  148.5840 C   0  0  0  0  0  3  0  0  0  0  0  0
  161.8070  210.6000  150.8550 C   0  0  0  0  0  3  0  0  0  0  0  0
  161.8600  208.5010  149.0130 C   0  0  0  0  0  3  0  0  0  0  0  0
  161.3980  206.8970  150.8220 C   0  0  0  0  0  0  0  0  0  0  0  0
  161.5900  209.2850  151.3010 C   0  0  0  0  0  0  0  0  0  0  0  0
  160.8910  207.3970  154.3980 C   0  0  0  0  0  3  0  0  0  0  0  0
  161.1630  206.6750  152.1430 N   0  0  0  0  0  0  0  0  0  0  0  0
  161.0670  209.6790  154.9300 N   0  0  0  0  0  0  0  0  0  0  0  0
  161.3900  205.6990  149.9110 C   0  0  2  0  0  3  0  0  0  0  0  0
  159.9900  205.9100  146.5290 O   0  0  0  0  0  0  0  0  0  0  0  0
  160.4570  205.8770  148.8020 N   0  0  0  0  0  2  0  0  0  0  0  0
  162.2170  205.5030  147.0970 N   0  0  0  0  0  2  0  0  0  0  0  0
  160.8540  205.7680  147.4340 C   0  0  0  0  0  0  0  0  0  0  0  0
  162.3210  204.0010  145.1990 C   0  0  0  0  0  1  0  0  0  0  0  0
  162.6590  205.3830  145.7180 C   0  0  0  0  0  2  0  0  0  0  0  0
  162.1010  203.9520  151.5430 O   0  0  0  0  0  1  0  0  0  0  0  0
  161.1390  204.4250  150.6610 C   0  0  0  0  0  0  0  0  0  0  0  0
  160.0550  203.7990  150.5270 O   0  0  0  0  0  0  0  0  0  0  0  0
  1 15  1  0  0  0  0
  3 13  2  0  0  0  0
  4  9  1  0  0  0  0
  5  4  1  0  0  0  0
  6 11  1  0  0  0  0
  6 12  1  0  0  0  0
  7  3  1  0  0  0  0
  7  1  2  0  0  0  0
  8 10  1  0  0  0  0
  8  4  2  0  0  0  0
  9 12  2  0  0  0  0
 10  6  2  0  0  0  0
 11 14  2  0  0  0  0
 12  7  1  0  0  0  0
 13  2  1  0  0  0  0
 14  3  1  0  0  0  0
 15  2  2  0  0  0  0
 16 18  1  6  0  0  0
 16 24  1  0  0  0  0
 16 11  1  0  0  0  0
 17 20  2  0  0  0  0
 19 20  1  0  0  0  0
 20 18  1  0  0  0  0
 21 22  1  0  0  0  0
 22 19  1  0  0  0  0
 24 23  1  0  0  0  0
 25 24  2  0  0  0  0
M  END
>  <MODEL>
7

>  <REMARK>
 VINA RESULT:      -7.2      3.122      6.306
  Name = 
  4 active torsions:
  status: ('A' for Active; 'I' for Inactive)
    1  A    between atoms: N_2  and  CA_8
    2  A    between atoms: N_6  and  C_17
    3  A    between atoms: CA_8  and  C_10
    4  A    between atoms: CA_8  and  C_20
                            x       y       z     vdW  Elec       q    Type
                         _______ _______ _______ _____ _____    ______ ____

>  <TORSDO>
F 4

$$$$
=
 OpenBabel11072415243D

 25 27  0  0  1  0  0  0  0  0999 V2000
  161.5320  205.3360  150.1700 C   0  0  0  0  0  3  0  0  0  0  0  0
  161.0910  203.3830  151.4020 N   0  0  0  0  0  0  0  0  0  0  0  0
  161.0220  205.4800  152.5210 C   0  0  0  0  0  0  0  0  0  0  0  0
  161.9150  209.5990  150.1110 C   0  0  0  0  0  0  0  0  0  0  0  0
  162.3200  210.4380  148.6300 Cl  0  0  0  0  0  0  0  0  0  0  0  0
  161.2670  208.2540  152.4940 C   0  0  0  0  0  0  0  0  0  0  0  0
  161.3450  206.1220  151.3130 C   0  0  0  0  0  0  0  0  0  0  0  0
  161.7150  210.3200  151.2880 C   0  0  0  0  0  3  0  0  0  0  0  0
  161.7940  208.2090  150.1140 C   0  0  0  0  0  3  0  0  0  0  0  0
  161.3930  209.6520  152.4710 C   0  0  0  0  0  3  0  0  0  0  0  0
  160.9400  207.5570  153.6810 C   0  0  0  0  0  0  0  0  0  0  0  0
  161.4700  207.5220  151.2960 C   0  0  0  0  0  0  0  0  0  0  0  0
  160.8980  204.0920  152.5440 C   0  0  0  0  0  3  0  0  0  0  0  0
  160.8320  206.2020  153.6530 N   0  0  0  0  0  0  0  0  0  0  0  0
  161.3980  203.9870  150.2510 N   0  0  0  0  0  0  0  0  0  0  0  0
  160.7190  208.2380  155.0050 C   0  0  2  0  0  3  0  0  0  0  0  0
  163.0690  210.5820  156.5620 O   0  0  0  0  0  0  0  0  0  0  0  0
  161.9490  208.8460  155.5050 N   0  0  0  0  0  2  0  0  0  0  0  0
  160.7740  210.8910  156.2700 N   0  0  0  0  0  2  0  0  0  0  0  0
  161.9750  210.1290  156.1330 C   0  0  0  0  0  0  0  0  0  0  0  0
  159.7970  213.1050  156.1670 C   0  0  0  0  0  1  0  0  0  0  0  0
  160.7590  212.1980  156.9040 C   0  0  0  0  0  2  0  0  0  0  0  0
  160.8400  206.8960  157.1050 O   0  0  0  0  0  1  0  0  0  0  0  0
  160.0950  207.3170  156.0120 C   0  0  0  0  0  0  0  0  0  0  0  0
  158.8970  206.9500  155.8960 O   0  0  0  0  0  0  0  0  0  0  0  0
  1 15  2  0  0  0  0
  1  7  1  0  0  0  0
  2 13  2  0  0  0  0
  3 13  1  0  0  0  0
  3 14  1  0  0  0  0
  4  9  2  0  0  0  0
  4  8  1  0  0  0  0
  5  4  1  0  0  0  0
  6 11  1  0  0  0  0
  7  3  2  0  0  0  0
  8 10  2  0  0  0  0
  9 12  1  0  0  0  0
 10  6  1  0  0  0  0
 11 16  1  0  0  0  0
 12  7  1  0  0  0  0
 12  6  2  0  0  0  0
 14 11  2  0  0  0  0
 15  2  1  0  0  0  0
 16 18  1  1  0  0  0
 16 24  1  0  0  0  0
 18 20  1  0  0  0  0
 19 22  1  0  0  0  0
 20 19  1  0  0  0  0
 20 17  2  0  0  0  0
 21 22  1  0  0  0  0
 24 23  1  0  0  0  0
 25 24  2  0  0  0  0
M  END
>  <MODEL>
8

>  <REMARK>
 VINA RESULT:      -7.2      3.121      4.346
  Name = 
  4 active torsions:
  status: ('A' for Active; 'I' for Inactive)
    1  A    between atoms: N_2  and  CA_8
    2  A    between atoms: N_6  and  C_17
    3  A    between atoms: CA_8  and  C_10
    4  A    between atoms: CA_8  and  C_20
                            x       y       z     vdW  Elec       q    Type
                         _______ _______ _______ _____ _____    ______ ____

>  <TORSDO>
F 4

$$$$
=
 OpenBabel11072415243D

 25 27  0  0  1  0  0  0  0  0999 V2000
  161.1630  203.3250  150.4220 C   0  0  0  0  0  3  0  0  0  0  0  0
  161.1660  203.5650  152.7610 N   0  0  0  0  0  0  0  0  0  0  0  0
  161.2250  205.5210  151.4120 C   0  0  0  0  0  0  0  0  0  0  0  0
  161.2280  205.1870  146.5680 C   0  0  0  0  0  0  0  0  0  0  0  0
  161.2060  204.2200  145.1100 Cl  0  0  0  0  0  0  0  0  0  0  0  0
  161.2660  206.7430  148.9100 C   0  0  0  0  0  0  0  0  0  0  0  0
  161.2040  204.7150  150.2610 C   0  0  0  0  0  0  0  0  0  0  0  0
  161.2680  206.5790  146.4810 C   0  0  0  0  0  3  0  0  0  0  0  0
  161.2070  204.5650  147.8170 C   0  0  0  0  0  3  0  0  0  0  0  0
  161.2860  207.3510  147.6440 C   0  0  0  0  0  3  0  0  0  0  0  0
  161.2820  207.5080  150.1000 C   0  0  0  0  0  0  0  0  0  0  0  0
  161.2250  205.3290  148.9960 C   0  0  0  0  0  0  0  0  0  0  0  0
  161.2060  204.9200  152.6680 C   0  0  0  0  0  3  0  0  0  0  0  0
  161.2640  206.8730  151.3030 N   0  0  0  0  0  0  0  0  0  0  0  0
  161.1460  202.7920  151.6720 N   0  0  0  0  0  0  0  0  0  0  0  0
  161.3410  209.0120  150.1170 C   0  0  2  0  0  3  0  0  0  0  0  0
  163.2150  211.2370  147.8870 O   0  0  0  0  0  0  0  0  0  0  0  0
  162.3310  209.5190  149.1720 N   0  0  0  0  0  2  0  0  0  0  0  0
  161.2850  211.7650  149.0890 N   0  0  0  0  0  2  0  0  0  0  0  0
  162.3140  210.8610  148.6830 C   0  0  0  0  0  0  0  0  0  0  0  0
  160.3530  213.2160  147.3880 C   0  0  0  0  0  1  0  0  0  0  0  0
  161.2350  213.1380  148.6160 C   0  0  0  0  0  2  0  0  0  0  0  0
  160.4680  209.6840  152.3550 O   0  0  0  0  0  1  0  0  0  0  0  0
  161.5530  209.5490  151.5010 C   0  0  0  0  0  0  0  0  0  0  0  0
  162.7070  209.8480  151.9080 O   0  0  0  0  0  0  0  0  0  0  0  0
  1 15  1  0  0  0  0
  3 13  2  0  0  0  0
  4  9  1  0  0  0  0
  5  4  1  0  0  0  0
  6 12  1  0  0  0  0
  6 11  1  0  0  0  0
  7  1  2  0  0  0  0
  7  3  1  0  0  0  0
  8  4  2  0  0  0  0
  8 10  1  0  0  0  0
  9 12  2  0  0  0  0
 10  6  2  0  0  0  0
 11 16  1  0  0  0  0
 11 14  2  0  0  0  0
 12  7  1  0  0  0  0
 13  2  1  0  0  0  0
 14  3  1  0  0  0  0
 15  2  2  0  0  0  0
 16 18  1  6  0  0  0
 16 24  1  0  0  0  0
 17 20  2  0  0  0  0
 20 19  1  0  0  0  0
 20 18  1  0  0  0  0
 21 22  1  0  0  0  0
 22 19  1  0  0  0  0
 24 25  2  0  0  0  0
 24 23  1  0  0  0  0
M  END
>  <MODEL>
9

>  <REMARK>
 VINA RESULT:      -7.0      2.214      2.914
  Name = 
  4 active torsions:
  status: ('A' for Active; 'I' for Inactive)
    1  A    between atoms: N_2  and  CA_8
    2  A    between atoms: N_6  and  C_17
    3  A    between atoms: CA_8  and  C_10
    4  A    between atoms: CA_8  and  C_20
                            x       y       z     vdW  Elec       q    Type
                         _______ _______ _______ _____ _____    ______ ____

>  <TORSDO>
F 4

$$$$
