=
 OpenBabel11072414573D

 65 72  0  0  1  0  0  0  0  0999 V2000
  161.1890  209.6760  150.6650 C   0  0  0  0  0  2  0  0  0  0  0  0
  162.3890  211.1350  147.8280 O   0  0  0  0  0  0  0  0  0  0  0  0
  160.4740  212.7300  145.8520 C   0  0  1  0  0  3  0  0  0  0  0  0
  162.7170  213.2190  145.7850 C   0  0  1  0  0  3  0  0  0  0  0  0
  161.4030  211.0640  151.2520 C   0  0  0  0  0  2  0  0  0  0  0  0
  161.5140  210.1230  148.2590 C   0  0  0  0  0  2  0  0  0  0  0  0
  161.8140  212.4200  148.0250 C   0  0  2  0  0  0  0  0  0  0  0  0
  162.6050  214.4480  145.1310 O   0  0  0  0  0  1  0  0  0  0  0  0
  160.7730  212.1330  150.3730 C   0  0  1  0  0  3  0  0  0  0  0  0
  162.7280  213.4200  147.3140 C   0  0  0  0  0  2  0  0  0  0  0  0
  160.1660  213.0900  151.1850 O   0  0  0  0  0  1  0  0  0  0  0  0
  161.8400  212.8120  149.5190 C   0  0  0  0  0  2  0  0  0  0  0  0
  159.6930  213.6280  147.9200 O   0  0  0  0  0  1  0  0  0  0  0  0
  162.1080  209.4310  149.4740 C   0  0  2  0  0  3  0  0  0  0  0  0
  160.3970  212.5460  147.3820 C   0  0  1  0  0  3  0  0  0  0  0  0
  161.7210  212.3170  145.3380 O   0  0  0  0  0  0  0  0  0  0  0  0
  159.3350  212.0230  145.1160 C   0  0  1  0  0  3  0  0  0  0  0  0
  158.1230  212.2250  145.7800 O   0  0  0  0  0  1  0  0  0  0  0  0
  159.2180  212.5030  143.6740 C   0  0  0  0  0  2  0  0  0  0  0  0
  160.1860  213.6420  143.4150 C   0  0  0  0  0  2  0  0  0  0  0  0
  162.0970  211.8330  141.1970 N   0  0  0  0  0  0  0  0  0  0  0  0
  161.8170  214.1750  141.5980 C   0  0  0  0  0  2  0  0  0  0  0  0
  160.3410  213.8530  141.9230 C   0  0  1  0  0  3  0  0  0  0  0  0
  162.3900  213.1490  140.6290 C   0  0  2  0  0  3  0  0  0  0  0  0
  160.7130  211.5150  140.8140 C   0  0  1  0  0  3  0  0  0  0  0  0
  159.7230  212.6550  141.1420 C   0  0  2  0  0  3  0  0  0  0  0  0
  162.9010  210.9350  140.5780 O   0  0  0  0  0  1  0  0  0  0  0  0
  161.5730  213.2540  139.3560 C   0  0  0  0  0  2  0  0  0  0  0  0
  160.3110  212.5000  139.7380 C   0  0  1  0  0  0  0  0  0  0  0  0
  158.8710  209.8230  137.6820 N   0  0  0  0  0  2  0  0  0  0  0  0
  159.6520  210.4540  138.7440 C   0  0  0  0  0  2  0  0  0  0  0  0
  157.4530  210.0110  137.9870 C   0  0  0  0  0  2  0  0  0  0  0  0
  159.4410  211.9040  138.7220 N   0  0  1  0  0  0  0  0  0  0  0  0
  157.1170  211.4990  138.0410 C   0  0  0  0  0  2  0  0  0  0  0  0
  158.0370  212.1730  139.0550 C   0  0  0  0  0  2  0  0  0  0  0  0
  162.3110  207.9310  149.2090 C   0  0  2  0  0  3  0  0  0  0  0  0
  161.9500  207.6350  147.8870 O   0  0  0  0  0  0  0  0  0  0  0  0
  162.6110  206.2980  146.0390 C   0  0  0  0  0  1  0  0  0  0  0  0
  163.0000  206.8650  147.3900 C   0  0  0  0  0  2  0  0  0  0  0  0
  161.4700  207.0950  150.2010 C   0  0  1  0  0  3  0  0  0  0  0  0
  161.1730  207.8150  151.5130 C   0  0  0  0  0  2  0  0  0  0  0  0
  161.0180  206.7940  152.6300 C   0  0  2  0  0  3  0  0  0  0  0  0
  159.4010  208.9630  156.5250 C   0  0  0  0  0  2  0  0  0  0  0  0
  163.0030  211.0020  156.2360 C   0  0  0  0  0  1  0  0  0  0  0  0
  161.0180  211.6830  155.0110 N   0  0  0  0  0  2  0  0  0  0  0  0
  159.9580  211.1270  155.6640 O   0  0  0  0  0  0  0  0  0  0  0  0
  161.4650  209.3820  155.2070 C   0  0  2  0  0  3  0  0  0  0  0  0
  161.0250  206.4780  155.1240 C   0  0  0  0  0  2  0  0  0  0  0  0
  161.7460  208.5830  154.0730 O   0  0  0  0  0  0  0  0  0  0  0  0
  159.1680  207.6270  156.1580 O   0  0  0  0  0  0  0  0  0  0  0  0
  160.8490  207.4910  153.9800 C   0  0  1  0  0  3  0  0  0  0  0  0
  160.0020  209.7580  155.3640 C   0  0  1  0  0  3  0  0  0  0  0  0
  160.3670  206.9470  156.4240 C   0  0  0  0  0  2  0  0  0  0  0  0
  162.1090  210.7210  155.0440 C   0  0  2  0  0  3  0  0  0  0  0  0
  162.2330  205.8820  152.6290 C   0  0  0  0  0  2  0  0  0  0  0  0
  161.7810  204.4650  152.7280 C   0  0  0  0  0  3  0  0  0  0  0  0
  161.3300  203.8300  151.6510 C   0  0  0  0  0  3  0  0  0  0  0  0
  160.8760  202.4150  151.7600 C   0  0  0  0  0  2  0  0  0  0  0  0
  160.4890  201.8860  150.3890 C   0  0  0  0  0  2  0  0  0  0  0  0
  161.1790  200.6290  148.7120 C   0  0  0  0  0  1  0  0  0  0  0  0
  161.2120  200.7260  150.1040 O   0  0  0  0  0  0  0  0  0  0  0  0
  160.1710  206.5830  149.5780 C   0  0  0  0  0  2  0  0  0  0  0  0
  160.4160  205.7970  148.2980 C   0  0  0  0  0  2  0  0  0  0  0  0
  161.5110  203.6950  147.7180 C   0  0  0  0  0  2  0  0  0  0  0  0
  160.9080  204.4340  148.6430 C   0  0  0  0  0  3  0  0  0  0  0  0
  1  5  1  0  0  0  0
  2  7  1  0  0  0  0
  2  6  1  0  0  0  0
  3 17  1  6  0  0  0
  3 15  1  0  0  0  0
  4  8  1  6  0  0  0
  4 10  1  0  0  0  0
  6 14  1  0  0  0  0
  7 10  1  6  0  0  0
  7 12  1  0  0  0  0
  9 11  1  1  0  0  0
  9  5  1  0  0  0  0
 12  9  1  0  0  0  0
 14 36  1  6  0  0  0
 14  1  1  0  0  0  0
 15 13  1  1  0  0  0
 15  7  1  0  0  0  0
 16  4  1  0  0  0  0
 16  3  1  0  0  0  0
 17 18  1  1  0  0  0
 19 17  1  0  0  0  0
 20 19  1  0  0  0  0
 22 23  1  0  0  0  0
 23 20  1  1  0  0  0
 24 28  1  6  0  0  0
 24 21  1  0  0  0  0
 24 22  1  0  0  0  0
 25 26  1  0  0  0  0
 25 21  1  1  0  0  0
 26 23  1  0  0  0  0
 27 21  1  0  0  0  0
 28 29  1  0  0  0  0
 29 25  1  0  0  0  0
 29 26  1  0  0  0  0
 30 32  1  0  0  0  0
 30 31  1  0  0  0  0
 32 34  1  0  0  0  0
 33 31  1  0  0  0  0
 33 35  1  0  0  0  0
 33 29  1  0  0  0  0
 34 35  1  0  0  0  0
 36 40  1  0  0  0  0
 37 36  1  0  0  0  0
 38 39  1  0  0  0  0
 39 37  1  0  0  0  0
 40 41  1  0  0  0  0
 41 42  1  0  0  0  0
 42 51  1  0  0  0  0
 45 54  1  0  0  0  0
 45 46  1  0  0  0  0
 47 52  1  0  0  0  0
 48 53  1  0  0  0  0
 49 47  1  0  0  0  0
 50 53  1  0  0  0  0
 50 43  1  0  0  0  0
 51 49  1  0  0  0  0
 51 48  1  0  0  0  0
 52 46  1  0  0  0  0
 52 43  1  0  0  0  0
 54 47  1  0  0  0  0
 54 44  1  0  0  0  0
 55 42  1  0  0  0  0
 55 56  1  0  0  0  0
 57 58  1  0  0  0  0
 57 56  2  0  0  0  0
 59 58  1  0  0  0  0
 60 61  1  0  0  0  0
 61 59  1  0  0  0  0
 62 40  1  0  0  0  0
 63 65  1  0  0  0  0
 63 62  1  0  0  0  0
 64 65  2  0  0  0  0
M  END
>  <MODEL>
1

>  <REMARK>
 VINA RESULT:      -5.3      0.000      0.000
  Name = 
  20 active torsions:
  status: ('A' for Active; 'I' for Inactive)
    1  A    between atoms: C_7  and  C_14
    2  A    between atoms: C_13  and  C_27
    3  A    between atoms: C_13  and  C_42
    4  A    between atoms: C_13  and  C_53
    5  A    between atoms: C_14  and  C_18
    6  A    between atoms: C_18  and  C_38
    7  A    between atoms: C_19  and  C_20
    8  A    between atoms: C_19  and  C_54
    9  A    between atoms: C_22  and  C_29
   10  A    between atoms: C_24  and  C_38
   11  A    between atoms: C_27  and  C_58
   12  A    between atoms: C_27  and  O_65
   13  A    between atoms: C_29  and  C_42
   14  A    between atoms: C_34  and  O_65
   15  A    between atoms: C_35  and  C_61
   16  A    between atoms: N_39  and  C_56
   17  A    between atoms: C_41  and  C_54
   18  A    between atoms: C_46  and  O_47
   19  A    between atoms: C_46  and  C_61
   20  A    between atoms: C_53  and  C_54
                            x       y       z     vdW  Elec       q    Type
                         _______ _______ _______ _____ _____    ______ ____

>  <TORSDO>
F 20

$$$$
=
 OpenBabel11072414573D

 65 72  0  0  1  0  0  0  0  0999 V2000
  157.4790  213.1460  150.9630 C   0  0  0  0  0  2  0  0  0  0  0  0
  160.8090  213.2430  150.2400 O   0  0  0  0  0  0  0  0  0  0  0  0
  162.1740  211.0130  148.4300 C   0  0  1  0  0  3  0  0  0  0  0  0
  163.2280  213.0470  148.5880 C   0  0  1  0  0  3  0  0  0  0  0  0
  157.3550  213.8650  149.6270 C   0  0  0  0  0  2  0  0  0  0  0  0
  159.8520  212.4650  150.9140 C   0  0  0  0  0  2  0  0  0  0  0  0
  160.6960  213.0790  148.8330 C   0  0  2  0  0  0  0  0  0  0  0  0
  164.0440  212.9050  147.4630 O   0  0  0  0  0  1  0  0  0  0  0  0
  158.1300  213.1400  148.5390 C   0  0  1  0  0  3  0  0  0  0  0  0
  161.9160  213.7660  148.2160 C   0  0  0  0  0  2  0  0  0  0  0  0
  157.3830  213.1530  147.3620 O   0  0  0  0  0  1  0  0  0  0  0  0
  159.4650  213.8340  148.2880 C   0  0  0  0  0  2  0  0  0  0  0  0
  160.2260  211.4120  147.1100 O   0  0  0  0  0  1  0  0  0  0  0  0
  158.8470  213.3820  151.5920 C   0  0  2  0  0  3  0  0  0  0  0  0
  160.7390  211.5790  148.4000 C   0  0  1  0  0  3  0  0  0  0  0  0
  163.0300  211.7990  149.2290 O   0  0  0  0  0  0  0  0  0  0  0  0
  162.2210  209.5510  148.8790 C   0  0  1  0  0  3  0  0  0  0  0  0
  161.5850  209.3990  150.1140 O   0  0  0  0  0  1  0  0  0  0  0  0
  161.5770  208.6300  147.8510 C   0  0  0  0  0  2  0  0  0  0  0  0
  161.1240  207.3400  148.5060 C   0  0  0  0  0  2  0  0  0  0  0  0
  163.0560  205.3070  146.5110 N   0  0  0  0  0  0  0  0  0  0  0  0
  161.2280  206.7870  146.0700 C   0  0  0  0  0  2  0  0  0  0  0  0
  160.6660  206.3590  147.4450 C   0  0  1  0  0  3  0  0  0  0  0  0
  162.0930  205.6820  145.4760 C   0  0  2  0  0  3  0  0  0  0  0  0
  162.3610  204.3680  147.4040 C   0  0  1  0  0  3  0  0  0  0  0  0
  160.9910  204.9000  147.8830 C   0  0  2  0  0  3  0  0  0  0  0  0
  164.0550  204.6190  145.9060 O   0  0  0  0  0  1  0  0  0  0  0  0
  161.1870  204.4820  145.2840 C   0  0  0  0  0  2  0  0  0  0  0  0
  161.0940  203.9370  146.6980 C   0  0  1  0  0  0  0  0  0  0  0  0
  160.4820  200.4100  145.8890 N   0  0  0  0  0  2  0  0  0  0  0  0
  160.9030  201.7980  145.7010 C   0  0  0  0  0  2  0  0  0  0  0  0
  161.4110  199.7760  146.8230 C   0  0  0  0  0  2  0  0  0  0  0  0
  160.7520  202.5370  146.9570 N   0  0  1  0  0  0  0  0  0  0  0  0
  161.3800  200.4960  148.1690 C   0  0  0  0  0  2  0  0  0  0  0  0
  161.6840  201.9740  147.9400 C   0  0  0  0  0  2  0  0  0  0  0  0
  158.8260  213.1470  153.1100 C   0  0  2  0  0  3  0  0  0  0  0  0
  160.0440  213.5600  153.6670 O   0  0  0  0  0  0  0  0  0  0  0  0
  159.7100  213.4810  156.0170 C   0  0  0  0  0  1  0  0  0  0  0  0
  159.6920  214.3390  154.7690 C   0  0  0  0  0  2  0  0  0  0  0  0
  158.5700  211.6530  153.4160 C   0  0  1  0  0  3  0  0  0  0  0  0
  159.6520  211.0070  154.2760 C   0  0  0  0  0  2  0  0  0  0  0  0
  160.6340  210.2620  153.3850 C   0  0  2  0  0  3  0  0  0  0  0  0
  161.4570  205.8600  154.9450 C   0  0  0  0  0  2  0  0  0  0  0  0
  160.1210  204.8390  151.1520 C   0  0  0  0  0  1  0  0  0  0  0  0
  162.4300  205.4490  151.6010 N   0  0  0  0  0  2  0  0  0  0  0  0
  162.6190  205.2660  152.9390 O   0  0  0  0  0  0  0  0  0  0  0  0
  160.7330  206.6470  152.7040 C   0  0  2  0  0  3  0  0  0  0  0  0
  159.4470  208.4380  154.6460 C   0  0  0  0  0  2  0  0  0  0  0  0
  160.5360  208.0300  152.4770 O   0  0  0  0  0  0  0  0  0  0  0  0
  161.0200  206.9490  155.7170 O   0  0  0  0  0  0  0  0  0  0  0  0
  160.6060  208.7630  153.6870 C   0  0  1  0  0  3  0  0  0  0  0  0
  161.9380  206.3170  153.5670 C   0  0  1  0  0  3  0  0  0  0  0  0
  159.6640  207.1220  155.3960 C   0  0  0  0  0  2  0  0  0  0  0  0
  161.0870  205.9780  151.4150 C   0  0  2  0  0  3  0  0  0  0  0  0
  162.0220  210.8410  153.5990 C   0  0  0  0  0  2  0  0  0  0  0  0
  162.3330  210.8390  155.0570 C   0  0  0  0  0  3  0  0  0  0  0  0
  163.5690  211.0880  155.4760 C   0  0  0  0  0  3  0  0  0  0  0  0
  163.8730  211.0790  156.9350 C   0  0  0  0  0  2  0  0  0  0  0  0
  164.8930  212.1580  157.2610 C   0  0  0  0  0  2  0  0  0  0  0  0
  166.7790  213.1160  156.6360 C   0  0  0  0  0  1  0  0  0  0  0  0
  166.0870  211.9050  156.5850 O   0  0  0  0  0  0  0  0  0  0  0  0
  157.1930  211.4120  154.0360 C   0  0  0  0  0  2  0  0  0  0  0  0
  157.1320  211.8470  155.4920 C   0  0  0  0  0  2  0  0  0  0  0  0
  155.1230  213.2010  155.2030 C   0  0  0  0  0  2  0  0  0  0  0  0
  155.7290  212.2060  155.8410 C   0  0  0  0  0  3  0  0  0  0  0  0
  1 14  1  0  0  0  0
  2  6  1  0  0  0  0
  3 17  1  1  0  0  0
  3 16  1  0  0  0  0
  4  8  1  6  0  0  0
  4 16  1  0  0  0  0
  5  1  1  0  0  0  0
  6 14  1  0  0  0  0
  7 10  1  6  0  0  0
  7  2  1  0  0  0  0
  9 11  1  6  0  0  0
  9  5  1  0  0  0  0
 10  4  1  0  0  0  0
 12  9  1  0  0  0  0
 12  7  1  0  0  0  0
 14 36  1  1  0  0  0
 15 13  1  6  0  0  0
 15  3  1  0  0  0  0
 15  7  1  0  0  0  0
 17 18  1  1  0  0  0
 19 20  1  0  0  0  0
 19 17  1  0  0  0  0
 22 23  1  0  0  0  0
 23 26  1  0  0  0  0
 23 20  1  1  0  0  0
 24 28  1  1  0  0  0
 24 22  1  0  0  0  0
 24 21  1  0  0  0  0
 25 21  1  6  0  0  0
 25 26  1  0  0  0  0
 27 21  1  0  0  0  0
 28 29  1  0  0  0  0
 29 33  1  0  0  0  0
 29 25  1  0  0  0  0
 29 26  1  0  0  0  0
 30 32  1  0  0  0  0
 31 30  1  0  0  0  0
 31 33  1  0  0  0  0
 32 34  1  0  0  0  0
 33 35  1  0  0  0  0
 35 34  1  0  0  0  0
 36 40  1  0  0  0  0
 36 37  1  0  0  0  0
 37 39  1  0  0  0  0
 39 38  1  0  0  0  0
 40 62  1  0  0  0  0
 40 41  1  0  0  0  0
 42 55  1  0  0  0  0
 42 51  1  0  0  0  0
 42 41  1  0  0  0  0
 43 50  1  0  0  0  0
 44 54  1  0  0  0  0
 45 46  1  0  0  0  0
 46 52  1  0  0  0  0
 47 52  1  0  0  0  0
 48 53  1  0  0  0  0
 49 47  1  0  0  0  0
 49 51  1  0  0  0  0
 51 48  1  0  0  0  0
 52 43  1  0  0  0  0
 53 50  1  0  0  0  0
 54 45  1  0  0  0  0
 54 47  1  0  0  0  0
 55 56  1  0  0  0  0
 56 57  2  0  0  0  0
 57 58  1  0  0  0  0
 58 59  1  0  0  0  0
 61 60  1  0  0  0  0
 61 59  1  0  0  0  0
 62 63  1  0  0  0  0
 63 65  1  0  0  0  0
 64 65  2  0  0  0  0
M  END
>  <MODEL>
2

>  <REMARK>
 VINA RESULT:      -4.4      4.634      8.215
  Name = 
  20 active torsions:
  status: ('A' for Active; 'I' for Inactive)
    1  A    between atoms: C_7  and  C_14
    2  A    between atoms: C_13  and  C_27
    3  A    between atoms: C_13  and  C_42
    4  A    between atoms: C_13  and  C_53
    5  A    between atoms: C_14  and  C_18
    6  A    between atoms: C_18  and  C_38
    7  A    between atoms: C_19  and  C_20
    8  A    between atoms: C_19  and  C_54
    9  A    between atoms: C_22  and  C_29
   10  A    between atoms: C_24  and  C_38
   11  A    between atoms: C_27  and  C_58
   12  A    between atoms: C_27  and  O_65
   13  A    between atoms: C_29  and  C_42
   14  A    between atoms: C_34  and  O_65
   15  A    between atoms: C_35  and  C_61
   16  A    between atoms: N_39  and  C_56
   17  A    between atoms: C_41  and  C_54
   18  A    between atoms: C_46  and  O_47
   19  A    between atoms: C_46  and  C_61
   20  A    between atoms: C_53  and  C_54
                            x       y       z     vdW  Elec       q    Type
                         _______ _______ _______ _____ _____    ______ ____

>  <TORSDO>
F 20

$$$$
=
 OpenBabel11072414573D

 65 72  0  0  1  0  0  0  0  0999 V2000
  161.1170  208.0590  150.2070 C   0  0  0  0  0  2  0  0  0  0  0  0
  162.5110  210.3860  148.1440 O   0  0  0  0  0  0  0  0  0  0  0  0
  160.9530  213.0440  147.3550 C   0  0  1  0  0  3  0  0  0  0  0  0
  163.2430  213.0630  147.1830 C   0  0  1  0  0  3  0  0  0  0  0  0
  161.6810  208.9570  151.3000 C   0  0  0  0  0  2  0  0  0  0  0  0
  161.4390  209.4800  148.2140 C   0  0  0  0  0  2  0  0  0  0  0  0
  162.2690  211.5240  148.9590 C   0  0  2  0  0  0  0  0  0  0  0  0
  163.4010  214.4510  147.1510 O   0  0  0  0  0  1  0  0  0  0  0  0
  161.2890  210.4080  151.0740 C   0  0  1  0  0  3  0  0  0  0  0  0
  163.3650  212.5390  148.6280 C   0  0  0  0  0  2  0  0  0  0  0  0
  160.9620  210.9880  152.2990 O   0  0  0  0  0  1  0  0  0  0  0  0
  162.4500  211.1790  150.4530 C   0  0  0  0  0  2  0  0  0  0  0  0
  160.4950  213.0340  149.6970 O   0  0  0  0  0  1  0  0  0  0  0  0
  161.9000  208.2110  148.9090 C   0  0  2  0  0  3  0  0  0  0  0  0
  160.8970  212.2030  148.6470 C   0  0  1  0  0  3  0  0  0  0  0  0
  162.0420  212.6760  146.5380 O   0  0  0  0  0  0  0  0  0  0  0  0
  159.6480  212.9860  146.5590 C   0  0  1  0  0  3  0  0  0  0  0  0
  158.7170  213.8890  147.0790 O   0  0  0  0  0  1  0  0  0  0  0  0
  159.8810  213.2800  145.0820 C   0  0  0  0  0  2  0  0  0  0  0  0
  159.5430  212.0650  144.2400 C   0  0  0  0  0  2  0  0  0  0  0  0
  161.9780  213.2410  142.1110 N   0  0  0  0  0  0  0  0  0  0  0  0
  159.7580  213.9670  142.6320 C   0  0  0  0  0  2  0  0  0  0  0  0
  159.4010  212.4710  142.7870 C   0  0  1  0  0  3  0  0  0  0  0  0
  160.9190  214.1440  141.6610 C   0  0  2  0  0  3  0  0  0  0  0  0
  161.6480  211.9130  141.5720 C   0  0  1  0  0  3  0  0  0  0  0  0
  160.1920  211.4890  141.8730 C   0  0  2  0  0  3  0  0  0  0  0  0
  163.1300  213.6390  141.5180 O   0  0  0  0  0  1  0  0  0  0  0  0
  160.4460  213.6100  140.3230 C   0  0  0  0  0  2  0  0  0  0  0  0
  160.5710  212.1110  140.5280 C   0  0  1  0  0  0  0  0  0  0  0  0
  161.9290  209.2830  138.6240 N   0  0  0  0  0  2  0  0  0  0  0  0
  161.6900  210.1700  139.7600 C   0  0  0  0  0  2  0  0  0  0  0  0
  160.6930  208.5510  138.3500 C   0  0  0  0  0  2  0  0  0  0  0  0
  160.7080  211.1940  139.3940 N   0  0  1  0  0  0  0  0  0  0  0  0
  159.5700  209.5240  138.0000 C   0  0  0  0  0  2  0  0  0  0  0  0
  159.4240  210.5330  139.1360 C   0  0  0  0  0  2  0  0  0  0  0  0
  161.7280  206.9890  147.9930 C   0  0  2  0  0  3  0  0  0  0  0  0
  160.3930  206.9000  147.5740 O   0  0  0  0  0  0  0  0  0  0  0  0
  159.4260  205.8600  145.6700 C   0  0  0  0  0  1  0  0  0  0  0  0
  160.4540  206.8500  146.1820 C   0  0  0  0  0  2  0  0  0  0  0  0
  162.1500  205.7000  148.7360 C   0  0  1  0  0  3  0  0  0  0  0  0
  161.1630  205.2610  149.8130 C   0  0  0  0  0  2  0  0  0  0  0  0
  161.7030  204.0330  150.5300 C   0  0  2  0  0  3  0  0  0  0  0  0
  160.8030  199.5940  149.1260 C   0  0  0  0  0  2  0  0  0  0  0  0
  159.3070  201.5260  145.7720 C   0  0  0  0  0  1  0  0  0  0  0  0
  161.6630  200.9870  146.0250 N   0  0  0  0  0  2  0  0  0  0  0  0
  161.7290  199.9920  146.9550 O   0  0  0  0  0  0  0  0  0  0  0  0
  160.4900  201.7420  147.9180 C   0  0  2  0  0  3  0  0  0  0  0  0
  159.8910  202.3030  150.7400 C   0  0  0  0  0  2  0  0  0  0  0  0
  160.8220  202.9600  148.5590 O   0  0  0  0  0  0  0  0  0  0  0  0
  160.7720  200.0730  150.4470 O   0  0  0  0  0  0  0  0  0  0  0  0
  161.1180  202.7560  149.9280 C   0  0  1  0  0  3  0  0  0  0  0  0
  161.4610  200.6050  148.1870 C   0  0  1  0  0  3  0  0  0  0  0  0
  159.5850  200.8150  150.5530 C   0  0  0  0  0  2  0  0  0  0  0  0
  160.6150  201.9080  146.4380 C   0  0  2  0  0  3  0  0  0  0  0  0
  161.3740  204.1480  152.0080 C   0  0  0  0  0  2  0  0  0  0  0  0
  161.6200  205.5480  152.4560 C   0  0  0  0  0  3  0  0  0  0  0  0
  161.0170  206.0170  153.5440 C   0  0  0  0  0  3  0  0  0  0  0  0
  161.2640  207.4200  153.9830 C   0  0  0  0  0  2  0  0  0  0  0  0
  160.2660  207.8110  155.0600 C   0  0  0  0  0  2  0  0  0  0  0  0
  160.7700  207.7940  157.2080 C   0  0  0  0  0  1  0  0  0  0  0  0
  160.3900  206.9580  156.1570 O   0  0  0  0  0  0  0  0  0  0  0  0
  162.4330  204.5420  147.7800 C   0  0  0  0  0  2  0  0  0  0  0  0
  163.2720  204.9710  146.5850 C   0  0  0  0  0  2  0  0  0  0  0  0
  162.4490  205.1650  144.2970 C   0  0  0  0  0  2  0  0  0  0  0  0
  162.6960  204.3840  145.3430 C   0  0  0  0  0  3  0  0  0  0  0  0
  1  5  1  0  0  0  0
  2  6  1  0  0  0  0
  2  7  1  0  0  0  0
  3 17  1  6  0  0  0
  3 15  1  0  0  0  0
  4  8  1  1  0  0  0
  4 10  1  0  0  0  0
  6 14  1  0  0  0  0
  7 10  1  6  0  0  0
  7 12  1  0  0  0  0
  9  5  1  0  0  0  0
  9 11  1  1  0  0  0
 12  9  1  0  0  0  0
 14 36  1  6  0  0  0
 14  1  1  0  0  0  0
 15  7  1  0  0  0  0
 15 13  1  1  0  0  0
 16  4  1  0  0  0  0
 16  3  1  0  0  0  0
 17 18  1  1  0  0  0
 19 17  1  0  0  0  0
 20 19  1  0  0  0  0
 22 23  1  0  0  0  0
 23 20  1  1  0  0  0
 24 28  1  6  0  0  0
 24 21  1  0  0  0  0
 24 22  1  0  0  0  0
 25 26  1  0  0  0  0
 25 21  1  1  0  0  0
 26 23  1  0  0  0  0
 27 21  1  0  0  0  0
 28 29  1  0  0  0  0
 29 25  1  0  0  0  0
 29 26  1  0  0  0  0
 30 31  1  0  0  0  0
 32 30  1  0  0  0  0
 33 31  1  0  0  0  0
 33 29  1  0  0  0  0
 34 32  1  0  0  0  0
 34 35  1  0  0  0  0
 35 33  1  0  0  0  0
 36 40  1  0  0  0  0
 37 36  1  0  0  0  0
 38 39  1  0  0  0  0
 39 37  1  0  0  0  0
 40 41  1  0  0  0  0
 41 42  1  0  0  0  0
 42 55  1  0  0  0  0
 43 50  1  0  0  0  0
 44 54  1  0  0  0  0
 45 54  1  0  0  0  0
 45 46  1  0  0  0  0
 46 52  1  0  0  0  0
 47 52  1  0  0  0  0
 47 49  1  0  0  0  0
 49 51  1  0  0  0  0
 50 53  1  0  0  0  0
 51 42  1  0  0  0  0
 51 48  1  0  0  0  0
 52 43  1  0  0  0  0
 53 48  1  0  0  0  0
 54 47  1  0  0  0  0
 55 56  1  0  0  0  0
 56 57  2  0  0  0  0
 57 58  1  0  0  0  0
 58 59  1  0  0  0  0
 59 61  1  0  0  0  0
 61 60  1  0  0  0  0
 62 40  1  0  0  0  0
 63 62  1  0  0  0  0
 64 65  2  0  0  0  0
 65 63  1  0  0  0  0
M  END
>  <MODEL>
3

>  <REMARK>
 VINA RESULT:      -3.9      2.300      5.556
  Name = 
  20 active torsions:
  status: ('A' for Active; 'I' for Inactive)
    1  A    between atoms: C_7  and  C_14
    2  A    between atoms: C_13  and  C_27
    3  A    between atoms: C_13  and  C_42
    4  A    between atoms: C_13  and  C_53
    5  A    between atoms: C_14  and  C_18
    6  A    between atoms: C_18  and  C_38
    7  A    between atoms: C_19  and  C_20
    8  A    between atoms: C_19  and  C_54
    9  A    between atoms: C_22  and  C_29
   10  A    between atoms: C_24  and  C_38
   11  A    between atoms: C_27  and  C_58
   12  A    between atoms: C_27  and  O_65
   13  A    between atoms: C_29  and  C_42
   14  A    between atoms: C_34  and  O_65
   15  A    between atoms: C_35  and  C_61
   16  A    between atoms: N_39  and  C_56
   17  A    between atoms: C_41  and  C_54
   18  A    between atoms: C_46  and  O_47
   19  A    between atoms: C_46  and  C_61
   20  A    between atoms: C_53  and  C_54
                            x       y       z     vdW  Elec       q    Type
                         _______ _______ _______ _____ _____    ______ ____

>  <TORSDO>
F 20

$$$$
=
 OpenBabel11072414573D

 65 72  0  0  1  0  0  0  0  0999 V2000
  160.5910  210.5100  151.6460 C   0  0  0  0  0  2  0  0  0  0  0  0
  162.1370  211.5740  148.8000 O   0  0  0  0  0  0  0  0  0  0  0  0
  160.4760  212.7530  146.3580 C   0  0  1  0  0  3  0  0  0  0  0  0
  162.6920  213.3340  146.5160 C   0  0  1  0  0  3  0  0  0  0  0  0
  160.6840  211.9800  152.0280 C   0  0  0  0  0  2  0  0  0  0  0  0
  161.2380  210.5980  149.2640 C   0  0  0  0  0  2  0  0  0  0  0  0
  161.5060  212.8440  148.7120 C   0  0  2  0  0  0  0  0  0  0  0  0
  162.6400  214.4420  145.6660 O   0  0  0  0  0  1  0  0  0  0  0  0
  160.1550  212.8710  150.9150 C   0  0  1  0  0  3  0  0  0  0  0  0
  162.4830  213.7670  147.9810 C   0  0  0  0  0  2  0  0  0  0  0  0
  159.4150  213.9100  151.4760 O   0  0  0  0  0  1  0  0  0  0  0  0
  161.3120  213.4610  150.1150 C   0  0  0  0  0  2  0  0  0  0  0  0
  159.3890  213.9180  148.1340 O   0  0  0  0  0  1  0  0  0  0  0  0
  161.6740  210.1310  150.6430 C   0  0  2  0  0  3  0  0  0  0  0  0
  160.1900  212.8020  147.8730 C   0  0  1  0  0  3  0  0  0  0  0  0
  161.7930  212.3260  146.0880 O   0  0  0  0  0  0  0  0  0  0  0  0
  159.4700  211.8870  145.5960 C   0  0  1  0  0  3  0  0  0  0  0  0
  158.1670  212.1670  146.0160 O   0  0  0  0  0  1  0  0  0  0  0  0
  159.5820  212.0930  144.0910 C   0  0  0  0  0  2  0  0  0  0  0  0
  158.8680  213.3640  143.6750 C   0  0  0  0  0  2  0  0  0  0  0  0
  160.9980  211.7620  141.4980 N   0  0  0  0  0  0  0  0  0  0  0  0
  161.0190  213.9210  142.5300 C   0  0  0  0  0  2  0  0  0  0  0  0
  159.4800  213.9010  142.3970 C   0  0  1  0  0  3  0  0  0  0  0  0
  161.6620  213.0640  141.4460 C   0  0  2  0  0  3  0  0  0  0  0  0
  159.7500  211.9030  140.7330 C   0  0  1  0  0  3  0  0  0  0  0  0
  158.9180  213.1320  141.1650 C   0  0  2  0  0  3  0  0  0  0  0  0
  161.7800  210.8800  140.8290 O   0  0  0  0  0  1  0  0  0  0  0  0
  161.2760  213.6860  140.1190 C   0  0  0  0  0  2  0  0  0  0  0  0
  159.8490  213.1960  139.9530 C   0  0  1  0  0  0  0  0  0  0  0  0
  157.6930  211.8030  137.3300 N   0  0  0  0  0  2  0  0  0  0  0  0
  158.2800  211.9860  138.6570 C   0  0  0  0  0  2  0  0  0  0  0  0
  156.8790  212.9790  137.0280 C   0  0  0  0  0  2  0  0  0  0  0  0
  159.2190  213.1110  138.6340 N   0  0  1  0  0  0  0  0  0  0  0  0
  157.7460  214.2360  137.0240 C   0  0  0  0  0  2  0  0  0  0  0  0
  158.4630  214.3400  138.3670 C   0  0  0  0  0  2  0  0  0  0  0  0
  161.9520  208.6190  150.6470 C   0  0  2  0  0  3  0  0  0  0  0  0
  161.8140  208.1120  149.3480 O   0  0  0  0  0  0  0  0  0  0  0  0
  163.0940  207.3440  147.5010 C   0  0  0  0  0  1  0  0  0  0  0  0
  163.1150  208.0300  148.8520 C   0  0  0  0  0  2  0  0  0  0  0  0
  160.9840  207.9010  151.6160 C   0  0  1  0  0  3  0  0  0  0  0  0
  161.2500  206.4050  151.7540 C   0  0  0  0  0  2  0  0  0  0  0  0
  160.2900  205.6330  150.8620 C   0  0  2  0  0  3  0  0  0  0  0  0
  162.2430  201.3140  150.7290 C   0  0  0  0  0  2  0  0  0  0  0  0
  158.4700  200.2330  149.3830 C   0  0  0  0  0  1  0  0  0  0  0  0
  160.1940  201.0780  147.8930 N   0  0  0  0  0  2  0  0  0  0  0  0
  161.3810  200.8880  148.5370 O   0  0  0  0  0  0  0  0  0  0  0  0
  159.9850  202.0640  150.0180 C   0  0  2  0  0  3  0  0  0  0  0  0
  160.6650  203.6670  152.3850 C   0  0  0  0  0  2  0  0  0  0  0  0
  159.6180  203.4220  150.1710 O   0  0  0  0  0  0  0  0  0  0  0  0
  162.5400  202.3340  151.6480 O   0  0  0  0  0  0  0  0  0  0  0  0
  160.5860  204.1340  150.9210 C   0  0  1  0  0  3  0  0  0  0  0  0
  161.4160  201.8470  149.5580 C   0  0  1  0  0  3  0  0  0  0  0  0
  161.4560  202.3660  152.5400 C   0  0  0  0  0  2  0  0  0  0  0  0
  159.2080  201.4630  148.8910 C   0  0  2  0  0  3  0  0  0  0  0  0
  160.4090  206.1630  149.4440 C   0  0  0  0  0  2  0  0  0  0  0  0
  161.3140  205.2720  148.6630 C   0  0  0  0  0  3  0  0  0  0  0  0
  160.9660  204.8650  147.4470 C   0  0  0  0  0  3  0  0  0  0  0  0
  161.8740  203.9700  146.6750 C   0  0  0  0  0  2  0  0  0  0  0  0
  161.6550  204.1680  145.1840 C   0  0  0  0  0  2  0  0  0  0  0  0
  161.4250  205.5890  143.5120 C   0  0  0  0  0  1  0  0  0  0  0  0
  161.4570  205.5210  144.9060 O   0  0  0  0  0  0  0  0  0  0  0  0
  160.9460  208.5570  152.9960 C   0  0  0  0  0  2  0  0  0  0  0  0
  160.6610  207.5550  154.1040 C   0  0  0  0  0  2  0  0  0  0  0  0
  161.5550  209.3730  155.4630 C   0  0  0  0  0  2  0  0  0  0  0  0
  161.0680  208.1380  155.4130 C   0  0  0  0  0  3  0  0  0  0  0  0
  1  5  1  0  0  0  0
  2  6  1  0  0  0  0
  3 17  1  6  0  0  0
  3 15  1  0  0  0  0
  4  8  1  6  0  0  0
  4 10  1  0  0  0  0
  6 14  1  0  0  0  0
  7 10  1  6  0  0  0
  7  2  1  0  0  0  0
  7 12  1  0  0  0  0
  9 11  1  1  0  0  0
  9  5  1  0  0  0  0
 12  9  1  0  0  0  0
 14 36  1  6  0  0  0
 14  1  1  0  0  0  0
 15 13  1  6  0  0  0
 15  7  1  0  0  0  0
 16  3  1  0  0  0  0
 16  4  1  0  0  0  0
 17 18  1  1  0  0  0
 19 17  1  0  0  0  0
 20 19  1  0  0  0  0
 23 22  1  0  0  0  0
 23 20  1  1  0  0  0
 24 28  1  6  0  0  0
 24 21  1  0  0  0  0
 24 22  1  0  0  0  0
 25 26  1  0  0  0  0
 25 21  1  1  0  0  0
 26 23  1  0  0  0  0
 27 21  1  0  0  0  0
 29 28  1  0  0  0  0
 29 25  1  0  0  0  0
 29 26  1  0  0  0  0
 30 31  1  0  0  0  0
 32 30  1  0  0  0  0
 33 31  1  0  0  0  0
 33 29  1  0  0  0  0
 34 32  1  0  0  0  0
 34 35  1  0  0  0  0
 35 33  1  0  0  0  0
 36 40  1  0  0  0  0
 37 36  1  0  0  0  0
 38 39  1  0  0  0  0
 39 37  1  0  0  0  0
 40 41  1  0  0  0  0
 40 62  1  0  0  0  0
 42 51  1  0  0  0  0
 42 41  1  0  0  0  0
 43 50  1  0  0  0  0
 45 46  1  0  0  0  0
 45 54  1  0  0  0  0
 46 52  1  0  0  0  0
 47 49  1  0  0  0  0
 48 53  1  0  0  0  0
 49 51  1  0  0  0  0
 50 53  1  0  0  0  0
 51 48  1  0  0  0  0
 52 47  1  0  0  0  0
 52 43  1  0  0  0  0
 54 44  1  0  0  0  0
 54 47  1  0  0  0  0
 55 42  1  0  0  0  0
 56 55  1  0  0  0  0
 57 56  2  0  0  0  0
 58 57  1  0  0  0  0
 59 58  1  0  0  0  0
 60 61  1  0  0  0  0
 61 59  1  0  0  0  0
 62 63  1  0  0  0  0
 63 65  1  0  0  0  0
 65 64  2  0  0  0  0
M  END
>  <MODEL>
4

>  <REMARK>
 VINA RESULT:      -2.7      2.335      4.966
  Name = 
  20 active torsions:
  status: ('A' for Active; 'I' for Inactive)
    1  A    between atoms: C_7  and  C_14
    2  A    between atoms: C_13  and  C_27
    3  A    between atoms: C_13  and  C_42
    4  A    between atoms: C_13  and  C_53
    5  A    between atoms: C_14  and  C_18
    6  A    between atoms: C_18  and  C_38
    7  A    between atoms: C_19  and  C_20
    8  A    between atoms: C_19  and  C_54
    9  A    between atoms: C_22  and  C_29
   10  A    between atoms: C_24  and  C_38
   11  A    between atoms: C_27  and  C_58
   12  A    between atoms: C_27  and  O_65
   13  A    between atoms: C_29  and  C_42
   14  A    between atoms: C_34  and  O_65
   15  A    between atoms: C_35  and  C_61
   16  A    between atoms: N_39  and  C_56
   17  A    between atoms: C_41  and  C_54
   18  A    between atoms: C_46  and  O_47
   19  A    between atoms: C_46  and  C_61
   20  A    between atoms: C_53  and  C_54
                            x       y       z     vdW  Elec       q    Type
                         _______ _______ _______ _____ _____    ______ ____

>  <TORSDO>
F 20

$$$$
