=
 OpenBabel11072410043D

 55 58  0  0  1  0  0  0  0  0999 V2000
  161.4150  208.4830  150.4680 C   0  0  1  0  0  3  0  0  0  0  0  0
  161.9600  208.6860  151.8890 C   0  0  1  0  0  3  0  0  0  0  0  0
  162.6100  209.9110  152.0470 O   0  0  0  0  0  1  0  0  0  0  0  0
  160.9170  208.4520  152.9810 C   0  0  0  0  0  2  0  0  0  0  0  0
  160.6490  207.2300  155.2060 C   0  0  0  0  0  2  0  0  0  0  0  0
  159.4740  207.8690  155.6240 O   0  0  0  0  0  0  0  0  0  0  0  0
  161.5270  208.1620  154.3600 C   0  0  2  0  0  3  0  0  0  0  0  0
  160.1330  210.0050  156.5360 C   0  0  1  0  0  3  0  0  0  0  0  0
  159.8190  208.5310  156.8080 C   0  0  0  0  0  2  0  0  0  0  0  0
  161.9460  209.3110  155.0770 O   0  0  0  0  0  0  0  0  0  0  0  0
  160.8630  210.2020  155.2060 C   0  0  0  0  0  2  0  0  0  0  0  0
  158.9450  210.7410  156.5200 O   0  0  0  0  0  0  0  0  0  0  0  0
  157.9160  211.3930  154.4830 C   0  0  0  0  0  3  0  0  0  0  0  0
  160.2020  213.4470  156.4750 O   0  0  0  0  0  0  0  0  0  0  0  0
  156.8480  213.4750  155.1450 C   0  0  0  0  0  0  0  0  0  0  0  0
  156.8810  212.2290  154.3770 C   0  0  0  0  0  3  0  0  0  0  0  0
  155.8230  214.2040  155.1250 O   0  0  0  0  0  0  0  0  0  0  0  0
  157.9970  213.8770  155.8840 N   0  0  0  0  0  2  0  0  0  0  0  0
  159.1430  213.0270  155.9390 C   0  0  0  0  0  0  0  0  0  0  0  0
  159.0680  211.6140  155.4330 C   0  0  1  0  0  3  0  0  0  0  0  0
  162.3920  208.4580  149.4440 O   0  0  0  0  0  0  0  0  0  0  0  0
  162.0180  209.3360  148.4140 C   0  0  0  0  0  2  0  0  0  0  0  0
  160.8760  211.6440  147.1740 O   0  0  0  0  0  0  0  0  0  0  0  0
  162.2030  210.7110  148.8560 N   0  0  0  0  0  2  0  0  0  0  0  0
  161.6240  211.8250  148.1700 C   0  0  0  0  0  0  0  0  0  0  0  0
  162.3300  213.9810  147.5210 F   0  0  0  0  0  0  0  0  0  0  0  0
  161.9420  213.2160  148.6050 C   0  0  1  0  0  3  0  0  0  0  0  0
  160.7280  213.8450  149.2550 C   0  0  0  0  0  1  0  0  0  0  0  0
  160.3640  207.3690  150.3760 C   0  0  0  0  0  2  0  0  0  0  0  0
  161.8240  203.8850  146.4080 N   0  0  0  0  0  0  0  0  0  0  0  0
  161.6060  205.1640  146.2370 C   0  0  0  0  0  0  0  0  0  0  0  0
  161.4090  204.9940  150.4090 C   0  0  0  0  0  0  0  0  0  0  0  0
  161.2280  200.5970  148.0210 N   0  0  0  0  0  2  0  0  0  0  0  0
  161.4810  205.0270  151.6660 O   0  0  0  0  0  0  0  0  0  0  0  0
  160.7680  203.3080  148.7100 C   0  0  1  0  0  3  0  0  0  0  0  0
  161.8450  203.7530  149.6930 C   0  0  0  0  0  2  0  0  0  0  0  0
  161.3880  202.9250  147.3880 C   0  0  0  0  0  0  0  0  0  0  0  0
  161.6150  201.6360  147.1150 C   0  0  0  0  0  3  0  0  0  0  0  0
  159.9070  202.1930  149.3100 C   0  0  0  0  0  2  0  0  0  0  0  0
  160.7390  206.0200  147.0680 C   0  0  0  0  0  3  0  0  0  0  0  0
  160.6980  200.8900  149.3480 C   0  0  0  0  0  2  0  0  0  0  0  0
  160.8360  206.1230  148.3620 C   0  0  0  0  0  0  0  0  0  0  0  0
  160.9120  206.1710  149.6650 C   0  0  0  0  0  0  0  0  0  0  0  0
  162.1480  205.7940  145.0020 C   0  0  0  0  0  2  0  0  0  0  0  0
  161.1170  205.8500  143.9810 N   0  0  0  0  0  2  0  0  0  0  0  0
  161.7950  205.7050  142.7070 C   0  0  0  0  0  2  0  0  0  0  0  0
  161.5870  206.9580  141.8740 C   0  0  0  0  0  2  0  0  0  0  0  0
  163.1970  206.2080  140.1760 N   0  0  0  0  0  1  0  0  0  0  0  0
  161.8550  206.7240  140.3900 C   0  0  2  0  0  3  0  0  0  0  0  0
  162.2690  208.0510  138.0760 O   0  0  0  0  0  0  0  0  0  0  0  0
  160.1150  208.3890  139.1960 O   0  0  0  0  0  0  0  0  0  0  0  0
  161.5900  208.1960  139.4100 S   0  0  0  0  0  0  0  0  0  0  0  0
  162.2490  209.6120  140.2740 C   0  0  0  0  0  2  0  0  0  0  0  0
  162.1070  211.9620  139.8810 O   0  0  0  0  0  1  0  0  0  0  0  0
  162.5270  210.7570  139.3160 C   0  0  0  0  0  2  0  0  0  0  0  0
  1 29  1  1  0  0  0
  1  2  1  0  0  0  0
  2  3  1  6  0  0  0
  2  4  1  0  0  0  0
  5  6  1  0  0  0  0
  6  9  1  0  0  0  0
  7  4  1  6  0  0  0
  7 10  1  0  0  0  0
  7  5  1  0  0  0  0
  8 12  1  6  0  0  0
  8  9  1  0  0  0  0
 10 11  1  0  0  0  0
 11  8  1  0  0  0  0
 13 20  1  0  0  0  0
 15 18  1  0  0  0  0
 16 13  2  0  0  0  0
 16 15  1  0  0  0  0
 17 15  2  0  0  0  0
 18 19  1  0  0  0  0
 19 14  2  0  0  0  0
 20 19  1  0  0  0  0
 20 12  1  1  0  0  0
 21  1  1  0  0  0  0
 22 24  1  0  0  0  0
 22 21  1  0  0  0  0
 23 25  2  0  0  0  0
 25 27  1  0  0  0  0
 25 24  1  0  0  0  0
 26 27  1  0  0  0  0
 27 28  1  6  0  0  0
 30 37  1  0  0  0  0
 31 30  2  0  0  0  0
 31 40  1  0  0  0  0
 32 34  2  0  0  0  0
 33 41  1  0  0  0  0
 35 39  1  1  0  0  0
 35 36  1  0  0  0  0
 36 32  1  0  0  0  0
 37 35  1  0  0  0  0
 38 37  2  0  0  0  0
 38 33  1  0  0  0  0
 39 41  1  0  0  0  0
 40 42  2  0  0  0  0
 42 43  2  0  0  0  0
 43 29  1  0  0  0  0
 43 32  1  0  0  0  0
 44 31  1  0  0  0  0
 45 44  1  0  0  0  0
 46 45  1  0  0  0  0
 47 46  1  0  0  0  0
 49 48  1  1  0  0  0
 49 47  1  0  0  0  0
 50 52  2  0  0  0  0
 51 52  2  0  0  0  0
 52 53  1  0  0  0  0
 52 49  1  0  0  0  0
 55 54  1  0  0  0  0
 55 53  1  0  0  0  0
M  END
>  <MODEL>
1

>  <REMARK>
 VINA RESULT:      -5.5      0.000      0.000
  Name = 
  19 active torsions:
  status: ('A' for Active; 'I' for Inactive)
    1  A    between atoms: C_2  and  C_5
    2  A    between atoms: C_2  and  C_18
    3  A    between atoms: C_5  and  C_17
    4  A    between atoms: C_7  and  C_26
    5  A    between atoms: C_9  and  N_16
    6  A    between atoms: C_9  and  O_47
    7  A    between atoms: C_18  and  O_47
    8  A    between atoms: C_18  and  C_49
    9  A    between atoms: C_21  and  S_30
   10  A    between atoms: C_21  and  C_32
   11  A    between atoms: C_23  and  S_30
   12  A    between atoms: C_23  and  C_41
   13  A    between atoms: C_26  and  N_55
   14  A    between atoms: C_27  and  C_32
   15  A    between atoms: C_27  and  N_55
   16  A    between atoms: C_31  and  O_43
   17  A    between atoms: C_37  and  C_51
   18  A    between atoms: O_43  and  C_54
   19  A    between atoms: C_44  and  C_49
                            x       y       z     vdW  Elec       q    Type
                         _______ _______ _______ _____ _____    ______ ____

>  <TORSDO>
F 19

$$$$
=
 OpenBabel11072410043D

 55 58  0  0  1  0  0  0  0  0999 V2000
  161.2910  208.4510  152.9880 C   0  0  1  0  0  3  0  0  0  0  0  0
  161.6920  208.8960  151.5750 C   0  0  1  0  0  3  0  0  0  0  0  0
  162.6170  209.9420  151.5810 O   0  0  0  0  0  1  0  0  0  0  0  0
  162.1450  207.7440  150.6780 C   0  0  0  0  0  2  0  0  0  0  0  0
  161.4210  208.7020  148.4250 C   0  0  0  0  0  2  0  0  0  0  0  0
  160.5680  207.6560  148.0490 O   0  0  0  0  0  0  0  0  0  0  0  0
  162.5910  208.1950  149.2790 C   0  0  2  0  0  3  0  0  0  0  0  0
  161.9710  205.8920  147.1840 C   0  0  1  0  0  3  0  0  0  0  0  0
  161.1260  207.1320  146.8780 C   0  0  0  0  0  2  0  0  0  0  0  0
  163.4040  207.2630  148.5860 O   0  0  0  0  0  0  0  0  0  0  0  0
  162.7330  206.0280  148.5040 C   0  0  0  0  0  2  0  0  0  0  0  0
  161.1450  204.7670  147.2450 O   0  0  0  0  0  0  0  0  0  0  0  0
  161.6070  202.4410  147.1640 C   0  0  0  0  0  3  0  0  0  0  0  0
  161.6900  204.7360  144.3110 O   0  0  0  0  0  0  0  0  0  0  0  0
  160.0620  201.7170  145.4320 C   0  0  0  0  0  0  0  0  0  0  0  0
  160.7790  201.5070  146.6910 C   0  0  0  0  0  3  0  0  0  0  0  0
  159.2020  200.8840  145.0470 O   0  0  0  0  0  0  0  0  0  0  0  0
  160.3720  202.8490  144.6250 N   0  0  0  0  0  2  0  0  0  0  0  0
  161.3180  203.8150  145.0840 C   0  0  0  0  0  0  0  0  0  0  0  0
  161.8100  203.7830  146.5040 C   0  0  1  0  0  3  0  0  0  0  0  0
  161.7840  207.1860  153.3860 O   0  0  0  0  0  0  0  0  0  0  0  0
  160.8290  206.5380  154.1870 C   0  0  0  0  0  2  0  0  0  0  0  0
  162.1320  205.3730  151.9260 O   0  0  0  0  0  0  0  0  0  0  0  0
  160.5470  205.2200  153.6350 N   0  0  0  0  0  2  0  0  0  0  0  0
  161.2190  204.7080  152.4810 C   0  0  0  0  0  0  0  0  0  0  0  0
  160.1990  203.5900  150.6700 F   0  0  0  0  0  0  0  0  0  0  0  0
  160.8060  203.3990  151.8980 C   0  0  1  0  0  3  0  0  0  0  0  0
  162.0160  202.5050  151.7250 C   0  0  0  0  0  1  0  0  0  0  0  0
  161.4480  209.5570  154.0380 C   0  0  0  0  0  2  0  0  0  0  0  0
  157.9090  213.6070  152.9980 N   0  0  0  0  0  0  0  0  0  0  0  0
  158.8610  213.2210  152.1890 C   0  0  0  0  0  0  0  0  0  0  0  0
  159.1610  210.2120  155.0750 C   0  0  0  0  0  0  0  0  0  0  0  0
  156.4350  214.2130  156.3500 N   0  0  0  0  0  2  0  0  0  0  0  0
  159.2000  209.2070  155.8350 O   0  0  0  0  0  0  0  0  0  0  0  0
  158.5160  212.5930  155.3110 C   0  0  1  0  0  3  0  0  0  0  0  0
  158.0080  211.1600  155.1920 C   0  0  0  0  0  2  0  0  0  0  0  0
  157.7140  213.5110  154.4220 C   0  0  0  0  0  0  0  0  0  0  0  0
  156.7210  214.2370  154.9470 C   0  0  0  0  0  3  0  0  0  0  0  0
  158.5350  213.0460  156.7730 C   0  0  0  0  0  2  0  0  0  0  0  0
  160.1200  212.5580  152.5770 C   0  0  0  0  0  3  0  0  0  0  0  0
  157.1110  213.2950  157.2590 C   0  0  0  0  0  2  0  0  0  0  0  0
  160.1860  211.4810  153.3050 C   0  0  0  0  0  0  0  0  0  0  0  0
  160.2340  210.4330  154.0830 C   0  0  0  0  0  0  0  0  0  0  0  0
  158.7530  213.6220  150.7600 C   0  0  0  0  0  2  0  0  0  0  0  0
  159.8200  213.0090  149.9910 N   0  0  0  0  0  2  0  0  0  0  0  0
  160.5140  214.0900  149.3180 C   0  0  0  0  0  2  0  0  0  0  0  0
  159.9780  214.2360  147.9030 C   0  0  0  0  0  2  0  0  0  0  0  0
  161.3850  212.5350  146.8240 N   0  0  0  0  0  1  0  0  0  0  0  0
  160.0170  212.9220  147.1260 C   0  0  2  0  0  3  0  0  0  0  0  0
  159.1140  214.3690  145.0330 O   0  0  0  0  0  0  0  0  0  0  0  0
  159.5860  211.9950  144.6410 O   0  0  0  0  0  0  0  0  0  0  0  0
  159.0420  212.9890  145.6290 S   0  0  0  0  0  0  0  0  0  0  0  0
  157.3460  212.5780  146.0030 C   0  0  0  0  0  2  0  0  0  0  0  0
  156.6580  213.9550  147.8260 O   0  0  0  0  0  1  0  0  0  0  0  0
  156.5700  213.8080  146.4420 C   0  0  0  0  0  2  0  0  0  0  0  0
  1 21  1  0  0  0  0
  1 29  1  1  0  0  0
  2  3  1  1  0  0  0
  2  1  1  0  0  0  0
  4  2  1  0  0  0  0
  5  7  1  0  0  0  0
  6  5  1  0  0  0  0
  7  4  1  1  0  0  0
  8 12  1  1  0  0  0
  8 11  1  0  0  0  0
  9  8  1  0  0  0  0
  9  6  1  0  0  0  0
 10  7  1  0  0  0  0
 11 10  1  0  0  0  0
 14 19  2  0  0  0  0
 15 16  1  0  0  0  0
 16 13  2  0  0  0  0
 17 15  2  0  0  0  0
 18 19  1  0  0  0  0
 18 15  1  0  0  0  0
 19 20  1  0  0  0  0
 20 13  1  0  0  0  0
 20 12  1  1  0  0  0
 21 22  1  0  0  0  0
 23 25  2  0  0  0  0
 24 22  1  0  0  0  0
 25 24  1  0  0  0  0
 26 27  1  0  0  0  0
 27 28  1  6  0  0  0
 27 25  1  0  0  0  0
 29 43  1  0  0  0  0
 30 37  1  0  0  0  0
 31 40  1  0  0  0  0
 31 30  2  0  0  0  0
 32 36  1  0  0  0  0
 32 34  2  0  0  0  0
 33 41  1  0  0  0  0
 35 36  1  1  0  0  0
 35 39  1  0  0  0  0
 37 38  2  0  0  0  0
 37 35  1  0  0  0  0
 38 33  1  0  0  0  0
 39 41  1  0  0  0  0
 40 42  2  0  0  0  0
 42 43  2  0  0  0  0
 43 32  1  0  0  0  0
 44 31  1  0  0  0  0
 45 44  1  0  0  0  0
 46 45  1  0  0  0  0
 47 46  1  0  0  0  0
 49 48  1  6  0  0  0
 49 47  1  0  0  0  0
 50 52  2  0  0  0  0
 51 52  2  0  0  0  0
 52 53  1  0  0  0  0
 52 49  1  0  0  0  0
 53 55  1  0  0  0  0
 55 54  1  0  0  0  0
M  END
>  <MODEL>
2

>  <REMARK>
 VINA RESULT:      -4.8      3.665     10.306
  Name = 
  19 active torsions:
  status: ('A' for Active; 'I' for Inactive)
    1  A    between atoms: C_2  and  C_5
    2  A    between atoms: C_2  and  C_18
    3  A    between atoms: C_5  and  C_17
    4  A    between atoms: C_7  and  C_26
    5  A    between atoms: C_9  and  N_16
    6  A    between atoms: C_9  and  O_47
    7  A    between atoms: C_18  and  O_47
    8  A    between atoms: C_18  and  C_49
    9  A    between atoms: C_21  and  S_30
   10  A    between atoms: C_21  and  C_32
   11  A    between atoms: C_23  and  S_30
   12  A    between atoms: C_23  and  C_41
   13  A    between atoms: C_26  and  N_55
   14  A    between atoms: C_27  and  C_32
   15  A    between atoms: C_27  and  N_55
   16  A    between atoms: C_31  and  O_43
   17  A    between atoms: C_37  and  C_51
   18  A    between atoms: O_43  and  C_54
   19  A    between atoms: C_44  and  C_49
                            x       y       z     vdW  Elec       q    Type
                         _______ _______ _______ _____ _____    ______ ____

>  <TORSDO>
F 19

$$$$
=
 OpenBabel11072410043D

 55 58  0  0  1  0  0  0  0  0999 V2000
  162.4500  209.2230  150.2540 C   0  0  1  0  0  3  0  0  0  0  0  0
  161.9410  208.3680  151.4230 C   0  0  1  0  0  3  0  0  0  0  0  0
  160.6440  208.7070  151.8140 O   0  0  0  0  0  1  0  0  0  0  0  0
  162.0880  206.8650  151.1890 C   0  0  0  0  0  2  0  0  0  0  0  0
  161.3850  204.8680  152.6160 C   0  0  0  0  0  2  0  0  0  0  0  0
  162.0020  203.8710  151.8480 O   0  0  0  0  0  0  0  0  0  0  0  0
  160.9160  206.0410  151.7440 C   0  0  2  0  0  3  0  0  0  0  0  0
  160.5400  203.4300  149.9790 C   0  0  1  0  0  3  0  0  0  0  0  0
  160.9580  203.0530  151.4030 C   0  0  0  0  0  2  0  0  0  0  0  0
  159.9570  205.6480  150.7770 O   0  0  0  0  0  0  0  0  0  0  0  0
  160.5990  204.9400  149.7420 C   0  0  0  0  0  2  0  0  0  0  0  0
  161.3770  202.7890  149.0620 O   0  0  0  0  0  0  0  0  0  0  0  0
  159.3980  201.9060  148.0930 C   0  0  0  0  0  3  0  0  0  0  0  0
  162.6050  200.1590  148.3680 O   0  0  0  0  0  0  0  0  0  0  0  0
  160.2070  201.2420  145.8980 C   0  0  0  0  0  0  0  0  0  0  0  0
  159.1720  201.7790  146.7840 C   0  0  0  0  0  3  0  0  0  0  0  0
  160.0290  201.2260  144.6540 O   0  0  0  0  0  0  0  0  0  0  0  0
  161.4010  200.7010  146.4570 N   0  0  0  0  0  2  0  0  0  0  0  0
  161.6180  200.7590  147.8670 C   0  0  0  0  0  0  0  0  0  0  0  0
  160.7240  201.5920  148.7420 C   0  0  1  0  0  3  0  0  0  0  0  0
  161.7030  209.1160  149.0570 O   0  0  0  0  0  0  0  0  0  0  0  0
  162.3790  208.2820  148.1510 C   0  0  0  0  0  2  0  0  0  0  0  0
  162.7870  205.6800  147.0430 O   0  0  0  0  0  0  0  0  0  0  0  0
  161.4100  207.5420  147.3560 N   0  0  0  0  0  2  0  0  0  0  0  0
  161.6900  206.2510  146.8070 C   0  0  0  0  0  0  0  0  0  0  0  0
  159.8090  206.5250  145.4090 F   0  0  0  0  0  0  0  0  0  0  0  0
  160.6990  205.5920  145.9090 C   0  0  1  0  0  3  0  0  0  0  0  0
  161.4130  204.9140  144.7590 C   0  0  0  0  0  1  0  0  0  0  0  0
  162.8020  210.6580  150.6620 C   0  0  0  0  0  2  0  0  0  0  0  0
  158.7530  214.0430  149.1920 N   0  0  0  0  0  0  0  0  0  0  0  0
  158.9730  213.6270  150.4120 C   0  0  0  0  0  0  0  0  0  0  0  0
  162.3980  212.1150  148.5530 C   0  0  0  0  0  0  0  0  0  0  0  0
  158.7450  213.6670  145.5000 N   0  0  0  0  0  0  0  0  0  0  0  0
  163.5100  211.7620  148.0770 O   0  0  0  0  0  0  0  0  0  0  0  0
  160.1090  212.4410  147.6620 C   0  0  1  0  0  3  0  0  0  0  0  0
  161.5190  213.0150  147.7410 C   0  0  0  0  0  2  0  0  0  0  0  0
  159.0850  213.5250  147.8900 C   0  0  2  0  0  3  0  0  0  0  0  0
  158.4860  214.0990  146.8410 C   0  0  0  0  0  3  0  0  0  0  0  0
  159.8970  211.6890  146.3450 C   0  0  0  0  0  2  0  0  0  0  0  0
  159.6490  212.3740  150.7980 C   0  0  0  0  0  3  0  0  0  0  0  0
  159.7760  212.6820  145.1940 C   0  0  0  0  0  2  0  0  0  0  0  0
  160.8270  212.0180  150.3740 C   0  0  0  0  0  0  0  0  0  0  0  0
  161.9850  211.6510  149.8940 C   0  0  0  0  0  0  0  0  0  0  0  0
  158.3490  214.3960  151.5230 C   0  0  0  0  0  2  0  0  0  0  0  0
  157.9840  213.4970  152.6040 N   0  0  0  0  0  2  0  0  0  0  0  0
  157.8500  214.3190  153.7920 C   0  0  0  0  0  2  0  0  0  0  0  0
  157.8140  213.4300  155.0240 C   0  0  0  0  0  2  0  0  0  0  0  0
  157.3190  211.0410  155.3180 N   0  0  0  0  0  1  0  0  0  0  0  0
  158.2390  211.9950  154.7200 C   0  0  2  0  0  3  0  0  0  0  0  0
  160.8140  211.5560  154.0420 O   0  0  0  0  0  0  0  0  0  0  0  0
  160.3920  212.7760  156.1260 O   0  0  0  0  0  0  0  0  0  0  0  0
  159.9150  211.6570  155.2440 S   0  0  0  0  0  0  0  0  0  0  0  0
  159.9550  210.1270  156.1610 C   0  0  0  0  0  2  0  0  0  0  0  0
  160.0520  207.8660  155.4030 O   0  0  0  0  0  1  0  0  0  0  0  0
  160.7590  209.0690  155.4260 C   0  0  0  0  0  2  0  0  0  0  0  0
  1 29  1  1  0  0  0
  1  2  1  0  0  0  0
  2  3  1  6  0  0  0
  4  2  1  0  0  0  0
  6  5  1  0  0  0  0
  7  4  1  6  0  0  0
  7  5  1  0  0  0  0
  8 12  1  6  0  0  0
  8  9  1  0  0  0  0
  9  6  1  0  0  0  0
 10  7  1  0  0  0  0
 11  8  1  0  0  0  0
 11 10  1  0  0  0  0
 13 20  1  0  0  0  0
 15 18  1  0  0  0  0
 15 16  1  0  0  0  0
 16 13  2  0  0  0  0
 17 15  2  0  0  0  0
 18 19  1  0  0  0  0
 19 14  2  0  0  0  0
 19 20  1  0  0  0  0
 20 12  1  6  0  0  0
 21  1  1  0  0  0  0
 22 21  1  0  0  0  0
 24 22  1  0  0  0  0
 25 23  2  0  0  0  0
 25 24  1  0  0  0  0
 26 27  1  0  0  0  0
 27 28  1  6  0  0  0
 27 25  1  0  0  0  0
 30 31  2  0  0  0  0
 31 40  1  0  0  0  0
 31 44  1  0  0  0  0
 32 43  1  0  0  0  0
 33 38  2  0  0  0  0
 34 32  2  0  0  0  0
 35 39  1  6  0  0  0
 35 36  1  0  0  0  0
 35 37  1  0  0  0  0
 36 32  1  0  0  0  0
 37 38  1  6  0  0  0
 37 30  1  0  0  0  0
 41 33  1  0  0  0  0
 41 39  1  0  0  0  0
 42 40  2  0  0  0  0
 43 42  2  0  0  0  0
 43 29  1  0  0  0  0
 44 45  1  0  0  0  0
 45 46  1  0  0  0  0
 46 47  1  0  0  0  0
 49 47  1  0  0  0  0
 49 52  1  0  0  0  0
 49 48  1  1  0  0  0
 50 52  2  0  0  0  0
 52 51  2  0  0  0  0
 52 53  1  0  0  0  0
 54 55  1  0  0  0  0
 55 53  1  0  0  0  0
M  END
>  <MODEL>
3

>  <REMARK>
 VINA RESULT:      -4.3      4.049     11.078
  Name = 
  19 active torsions:
  status: ('A' for Active; 'I' for Inactive)
    1  A    between atoms: C_2  and  C_5
    2  A    between atoms: C_2  and  C_18
    3  A    between atoms: C_5  and  C_17
    4  A    between atoms: C_7  and  C_26
    5  A    between atoms: C_9  and  N_16
    6  A    between atoms: C_9  and  O_47
    7  A    between atoms: C_18  and  O_47
    8  A    between atoms: C_18  and  C_49
    9  A    between atoms: C_21  and  S_30
   10  A    between atoms: C_21  and  C_32
   11  A    between atoms: C_23  and  S_30
   12  A    between atoms: C_23  and  C_41
   13  A    between atoms: C_26  and  N_55
   14  A    between atoms: C_27  and  C_32
   15  A    between atoms: C_27  and  N_55
   16  A    between atoms: C_31  and  O_43
   17  A    between atoms: C_37  and  C_51
   18  A    between atoms: O_43  and  C_54
   19  A    between atoms: C_44  and  C_49
                            x       y       z     vdW  Elec       q    Type
                         _______ _______ _______ _____ _____    ______ ____

>  <TORSDO>
F 19

$$$$
=
 OpenBabel11072410043D

 55 58  0  0  1  0  0  0  0  0999 V2000
  160.5700  210.7040  154.7120 C   0  0  1  0  0  3  0  0  0  0  0  0
  160.6570  211.6280  153.4900 C   0  0  1  0  0  3  0  0  0  0  0  0
  161.6790  211.2650  152.6110 O   0  0  0  0  0  1  0  0  0  0  0  0
  159.3240  211.8080  152.7650 C   0  0  0  0  0  2  0  0  0  0  0  0
  157.5410  213.4480  151.9600 C   0  0  0  0  0  2  0  0  0  0  0  0
  157.3900  212.9320  150.6660 O   0  0  0  0  0  0  0  0  0  0  0  0
  158.9780  213.2750  152.4730 C   0  0  2  0  0  3  0  0  0  0  0  0
  159.2160  213.8100  149.3530 C   0  0  1  0  0  3  0  0  0  0  0  0
  157.7640  213.9750  149.8110 C   0  0  0  0  0  2  0  0  0  0  0  0
  159.9250  213.9600  151.6710 O   0  0  0  0  0  0  0  0  0  0  0  0
  160.1110  213.2580  150.4640 C   0  0  0  0  0  2  0  0  0  0  0  0
  159.2640  212.9480  148.2540 O   0  0  0  0  0  0  0  0  0  0  0  0
  160.6040  213.7900  146.4850 C   0  0  0  0  0  3  0  0  0  0  0  0
  156.9490  213.5560  146.4720 O   0  0  0  0  0  0  0  0  0  0  0  0
  159.8350  212.4240  144.6260 C   0  0  0  0  0  0  0  0  0  0  0  0
  160.8850  213.1370  145.3560 C   0  0  0  0  0  3  0  0  0  0  0  0
  160.1260  211.7220  143.6240 O   0  0  0  0  0  0  0  0  0  0  0  0
  158.4770  212.5610  145.0340 N   0  0  0  0  0  2  0  0  0  0  0  0
  158.1550  213.3230  146.1970 C   0  0  0  0  0  0  0  0  0  0  0  0
  159.2400  213.7830  147.1310 C   0  0  1  0  0  3  0  0  0  0  0  0
  160.3250  211.3530  155.9450 O   0  0  0  0  0  0  0  0  0  0  0  0
  159.4930  212.4650  155.7360 C   0  0  0  0  0  2  0  0  0  0  0  0
  156.7720  211.9090  155.0630 O   0  0  0  0  0  0  0  0  0  0  0  0
  158.3820  212.4250  156.6760 N   0  0  0  0  0  2  0  0  0  0  0  0
  157.0350  212.1670  156.2670 C   0  0  0  0  0  0  0  0  0  0  0  0
  155.1330  213.3530  157.0020 F   0  0  0  0  0  0  0  0  0  0  0  0
  155.9260  212.2500  157.2590 C   0  0  1  0  0  3  0  0  0  0  0  0
  155.0780  210.9970  157.1930 C   0  0  0  0  0  1  0  0  0  0  0  0
  159.7160  209.4540  154.4670 C   0  0  0  0  0  2  0  0  0  0  0  0
  162.1280  206.7240  150.3760 N   0  0  0  0  0  0  0  0  0  0  0  0
  161.8200  207.9950  150.3460 C   0  0  0  0  0  0  0  0  0  0  0  0
  160.9620  207.1810  154.3560 C   0  0  0  0  0  0  0  0  0  0  0  0
  161.5920  203.1950  151.3910 N   0  0  0  0  0  2  0  0  0  0  0  0
  160.8250  207.0270  155.5990 O   0  0  0  0  0  0  0  0  0  0  0  0
  160.7710  205.7310  152.3550 C   0  0  1  0  0  3  0  0  0  0  0  0
  161.6260  206.0970  153.5640 C   0  0  0  0  0  2  0  0  0  0  0  0
  161.6310  205.5980  151.1230 C   0  0  0  0  0  0  0  0  0  0  0  0
  162.0210  204.3850  150.7190 C   0  0  0  0  0  3  0  0  0  0  0  0
  159.9330  204.4810  152.6350 C   0  0  0  0  0  2  0  0  0  0  0  0
  160.7510  208.6520  151.1230 C   0  0  0  0  0  3  0  0  0  0  0  0
  160.8270  203.2460  152.6320 C   0  0  0  0  0  2  0  0  0  0  0  0
  160.6260  208.5640  152.4150 C   0  0  0  0  0  0  0  0  0  0  0  0
  160.4840  208.4190  153.7050 C   0  0  0  0  0  0  0  0  0  0  0  0
  162.4940  208.8420  149.3250 C   0  0  0  0  0  2  0  0  0  0  0  0
  163.0360  208.0070  148.2680 N   0  0  0  0  0  2  0  0  0  0  0  0
  161.9070  207.3270  147.6630 C   0  0  0  0  0  2  0  0  0  0  0  0
  162.3600  205.9930  147.0950 C   0  0  0  0  0  2  0  0  0  0  0  0
  161.0320  204.0110  147.6830 N   0  0  0  0  0  1  0  0  0  0  0  0
  161.1880  205.0890  146.7210 C   0  0  2  0  0  3  0  0  0  0  0  0
  161.1720  205.5350  144.0590 O   0  0  0  0  0  0  0  0  0  0  0  0
  162.7000  203.8130  144.9020 O   0  0  0  0  0  0  0  0  0  0  0  0
  161.3390  204.4300  145.0660 S   0  0  0  0  0  0  0  0  0  0  0  0
  160.0920  203.1790  144.8070 C   0  0  0  0  0  2  0  0  0  0  0  0
  159.5460  200.8860  145.1740 O   0  0  0  0  0  1  0  0  0  0  0  0
  160.5810  201.8170  145.2650 C   0  0  0  0  0  2  0  0  0  0  0  0
  1 29  1  6  0  0  0
  1 21  1  0  0  0  0
  2  3  1  6  0  0  0
  2  1  1  0  0  0  0
  4  2  1  0  0  0  0
  5  7  1  0  0  0  0
  6  5  1  0  0  0  0
  7  4  1  6  0  0  0
  8 12  1  6  0  0  0
  8  9  1  0  0  0  0
  8 11  1  0  0  0  0
  9  6  1  0  0  0  0
 10  7  1  0  0  0  0
 11 10  1  0  0  0  0
 13 20  1  0  0  0  0
 15 18  1  0  0  0  0
 15 16  1  0  0  0  0
 16 13  2  0  0  0  0
 17 15  2  0  0  0  0
 18 19  1  0  0  0  0
 19 14  2  0  0  0  0
 19 20  1  0  0  0  0
 20 12  1  1  0  0  0
 22 21  1  0  0  0  0
 22 24  1  0  0  0  0
 23 25  2  0  0  0  0
 25 24  1  0  0  0  0
 25 27  1  0  0  0  0
 26 27  1  0  0  0  0
 27 28  1  6  0  0  0
 30 37  1  0  0  0  0
 31 30  2  0  0  0  0
 31 40  1  0  0  0  0
 32 34  2  0  0  0  0
 33 41  1  0  0  0  0
 35 39  1  1  0  0  0
 35 36  1  0  0  0  0
 36 32  1  0  0  0  0
 37 35  1  0  0  0  0
 38 37  2  0  0  0  0
 38 33  1  0  0  0  0
 40 42  2  0  0  0  0
 41 39  1  0  0  0  0
 42 43  2  0  0  0  0
 43 32  1  0  0  0  0
 43 29  1  0  0  0  0
 44 31  1  0  0  0  0
 45 44  1  0  0  0  0
 46 45  1  0  0  0  0
 47 46  1  0  0  0  0
 49 47  1  0  0  0  0
 49 48  1  1  0  0  0
 50 52  2  0  0  0  0
 51 52  2  0  0  0  0
 52 49  1  0  0  0  0
 53 52  1  0  0  0  0
 53 55  1  0  0  0  0
 54 55  1  0  0  0  0
M  END
>  <MODEL>
4

>  <REMARK>
 VINA RESULT:      -4.1      3.592      7.505
  Name = 
  19 active torsions:
  status: ('A' for Active; 'I' for Inactive)
    1  A    between atoms: C_2  and  C_5
    2  A    between atoms: C_2  and  C_18
    3  A    between atoms: C_5  and  C_17
    4  A    between atoms: C_7  and  C_26
    5  A    between atoms: C_9  and  N_16
    6  A    between atoms: C_9  and  O_47
    7  A    between atoms: C_18  and  O_47
    8  A    between atoms: C_18  and  C_49
    9  A    between atoms: C_21  and  S_30
   10  A    between atoms: C_21  and  C_32
   11  A    between atoms: C_23  and  S_30
   12  A    between atoms: C_23  and  C_41
   13  A    between atoms: C_26  and  N_55
   14  A    between atoms: C_27  and  C_32
   15  A    between atoms: C_27  and  N_55
   16  A    between atoms: C_31  and  O_43
   17  A    between atoms: C_37  and  C_51
   18  A    between atoms: O_43  and  C_54
   19  A    between atoms: C_44  and  C_49
                            x       y       z     vdW  Elec       q    Type
                         _______ _______ _______ _____ _____    ______ ____

>  <TORSDO>
F 19

$$$$
=
 OpenBabel11072410043D

 55 58  0  0  1  0  0  0  0  0999 V2000
  161.5540  209.3110  153.1210 C   0  0  1  0  0  3  0  0  0  0  0  0
  161.7140  210.5990  152.3010 C   0  0  1  0  0  3  0  0  0  0  0  0
  162.7560  210.5220  151.3750 O   0  0  0  0  0  1  0  0  0  0  0  0
  160.4140  211.0750  151.6530 C   0  0  0  0  0  2  0  0  0  0  0  0
  158.6830  212.9360  151.8900 C   0  0  0  0  0  2  0  0  0  0  0  0
  158.0280  212.7320  150.6690 O   0  0  0  0  0  0  0  0  0  0  0  0
  160.1750  212.5850  151.7960 C   0  0  2  0  0  3  0  0  0  0  0  0
  159.3770  213.7950  148.9720 C   0  0  1  0  0  3  0  0  0  0  0  0
  158.2090  213.9210  149.9540 C   0  0  0  0  0  2  0  0  0  0  0  0
  160.8610  213.3870  150.8500 O   0  0  0  0  0  0  0  0  0  0  0  0
  160.5260  212.9650  149.5480 C   0  0  0  0  0  2  0  0  0  0  0  0
  158.9310  213.2000  147.7890 O   0  0  0  0  0  0  0  0  0  0  0  0
  160.6350  214.4520  146.7110 C   0  0  0  0  0  3  0  0  0  0  0  0
  157.3500  213.6590  145.3000 O   0  0  0  0  0  0  0  0  0  0  0  0
  160.8680  213.2260  144.6240 C   0  0  0  0  0  0  0  0  0  0  0  0
  161.4250  213.9970  145.7370 C   0  0  0  0  0  3  0  0  0  0  0  0
  161.6300  212.7080  143.7690 O   0  0  0  0  0  0  0  0  0  0  0  0
  159.4550  213.0990  144.4940 N   0  0  0  0  0  2  0  0  0  0  0  0
  158.5940  213.6520  145.4890 C   0  0  0  0  0  0  0  0  0  0  0  0
  159.1570  214.1540  146.7900 C   0  0  1  0  0  3  0  0  0  0  0  0
  161.6050  209.4790  154.5250 O   0  0  0  0  0  0  0  0  0  0  0  0
  162.0350  210.7810  154.8310 C   0  0  0  0  0  2  0  0  0  0  0  0
  159.2640  211.4640  154.9500 O   0  0  0  0  0  0  0  0  0  0  0  0
  161.3340  211.2600  156.0130 N   0  0  0  0  0  2  0  0  0  0  0  0
  159.9470  211.6120  155.9960 C   0  0  0  0  0  0  0  0  0  0  0  0
  159.5490  213.5630  157.2600 F   0  0  0  0  0  0  0  0  0  0  0  0
  159.3130  212.2020  157.2100 C   0  0  1  0  0  3  0  0  0  0  0  0
  157.8200  211.9510  157.1870 C   0  0  0  0  0  1  0  0  0  0  0  0
  160.4110  208.4160  152.6260 C   0  0  0  0  0  2  0  0  0  0  0  0
  161.6310  204.8600  148.6410 N   0  0  0  0  0  0  0  0  0  0  0  0
  161.3340  206.1200  148.4530 C   0  0  0  0  0  0  0  0  0  0  0  0
  161.5700  206.0940  152.6270 C   0  0  0  0  0  0  0  0  0  0  0  0
  161.3650  201.6090  150.4110 N   0  0  0  0  0  2  0  0  0  0  0  0
  161.7680  206.1760  153.8690 O   0  0  0  0  0  0  0  0  0  0  0  0
  160.8440  204.3190  151.0570 C   0  0  1  0  0  3  0  0  0  0  0  0
  161.9920  204.8490  151.9100 C   0  0  0  0  0  2  0  0  0  0  0  0
  161.3450  203.9180  149.6910 C   0  0  0  0  0  0  0  0  0  0  0  0
  161.6070  202.6310  149.4370 C   0  0  0  0  0  3  0  0  0  0  0  0
  160.1050  203.1890  151.7770 C   0  0  0  0  0  2  0  0  0  0  0  0
  160.5140  206.9650  149.3420 C   0  0  0  0  0  3  0  0  0  0  0  0
  160.9590  201.9260  151.7750 C   0  0  0  0  0  2  0  0  0  0  0  0
  160.7370  207.1200  150.6150 C   0  0  0  0  0  0  0  0  0  0  0  0
  160.9430  207.2190  151.9010 C   0  0  0  0  0  0  0  0  0  0  0  0
  161.7160  206.7290  147.1500 C   0  0  0  0  0  2  0  0  0  0  0  0
  162.7020  205.8980  146.4850 N   0  0  0  0  0  2  0  0  0  0  0  0
  161.9820  205.1190  145.4960 C   0  0  0  0  0  2  0  0  0  0  0  0
  161.7820  203.7030  146.0100 C   0  0  0  0  0  2  0  0  0  0  0  0
  159.9640  203.6600  144.3570 N   0  0  0  0  0  1  0  0  0  0  0  0
  160.9450  202.8500  145.0590 C   0  0  2  0  0  3  0  0  0  0  0  0
  159.7020  201.9180  147.2670 O   0  0  0  0  0  0  0  0  0  0  0  0
  158.9450  201.0550  145.1000 O   0  0  0  0  0  0  0  0  0  0  0  0
  160.1460  201.4870  145.8950 S   0  0  0  0  0  0  0  0  0  0  0  0
  161.2850  200.1190  146.0290 C   0  0  0  0  0  2  0  0  0  0  0  0
  161.3110  197.7870  145.5240 O   0  0  0  0  0  1  0  0  0  0  0  0
  160.9630  199.0380  145.0120 C   0  0  0  0  0  2  0  0  0  0  0  0
  1 29  1  1  0  0  0
  1 21  1  0  0  0  0
  2  3  1  6  0  0  0
  2  1  1  0  0  0  0
  4  2  1  0  0  0  0
  6  5  1  0  0  0  0
  7  4  1  6  0  0  0
  7  5  1  0  0  0  0
  8 12  1  6  0  0  0
  8 11  1  0  0  0  0
  8  9  1  0  0  0  0
  9  6  1  0  0  0  0
 10  7  1  0  0  0  0
 11 10  1  0  0  0  0
 13 20  1  0  0  0  0
 14 19  2  0  0  0  0
 15 16  1  0  0  0  0
 16 13  2  0  0  0  0
 17 15  2  0  0  0  0
 18 15  1  0  0  0  0
 18 19  1  0  0  0  0
 19 20  1  0  0  0  0
 20 12  1  1  0  0  0
 21 22  1  0  0  0  0
 22 24  1  0  0  0  0
 23 25  2  0  0  0  0
 25 24  1  0  0  0  0
 25 27  1  0  0  0  0
 27 28  1  6  0  0  0
 27 26  1  0  0  0  0
 30 37  1  0  0  0  0
 31 30  2  0  0  0  0
 31 40  1  0  0  0  0
 32 34  2  0  0  0  0
 33 41  1  0  0  0  0
 35 39  1  1  0  0  0
 35 36  1  0  0  0  0
 36 32  1  0  0  0  0
 37 35  1  0  0  0  0
 38 37  2  0  0  0  0
 38 33  1  0  0  0  0
 40 42  2  0  0  0  0
 41 39  1  0  0  0  0
 42 43  2  0  0  0  0
 43 29  1  0  0  0  0
 43 32  1  0  0  0  0
 44 31  1  0  0  0  0
 45 44  1  0  0  0  0
 46 47  1  0  0  0  0
 46 45  1  0  0  0  0
 49 48  1  1  0  0  0
 49 52  1  0  0  0  0
 49 47  1  0  0  0  0
 51 52  2  0  0  0  0
 52 53  1  0  0  0  0
 52 50  2  0  0  0  0
 55 54  1  0  0  0  0
 55 53  1  0  0  0  0
M  END
>  <MODEL>
5

>  <REMARK>
 VINA RESULT:      -4.1      3.584      7.317
  Name = 
  19 active torsions:
  status: ('A' for Active; 'I' for Inactive)
    1  A    between atoms: C_2  and  C_5
    2  A    between atoms: C_2  and  C_18
    3  A    between atoms: C_5  and  C_17
    4  A    between atoms: C_7  and  C_26
    5  A    between atoms: C_9  and  N_16
    6  A    between atoms: C_9  and  O_47
    7  A    between atoms: C_18  and  O_47
    8  A    between atoms: C_18  and  C_49
    9  A    between atoms: C_21  and  S_30
   10  A    between atoms: C_21  and  C_32
   11  A    between atoms: C_23  and  S_30
   12  A    between atoms: C_23  and  C_41
   13  A    between atoms: C_26  and  N_55
   14  A    between atoms: C_27  and  C_32
   15  A    between atoms: C_27  and  N_55
   16  A    between atoms: C_31  and  O_43
   17  A    between atoms: C_37  and  C_51
   18  A    between atoms: O_43  and  C_54
   19  A    between atoms: C_44  and  C_49
                            x       y       z     vdW  Elec       q    Type
                         _______ _______ _______ _____ _____    ______ ____

>  <TORSDO>
F 19

$$$$
=
 OpenBabel11072410043D

 55 58  0  0  1  0  0  0  0  0999 V2000
  161.6920  207.8040  152.7010 C   0  0  1  0  0  3  0  0  0  0  0  0
  162.0980  208.7660  151.5760 C   0  0  1  0  0  3  0  0  0  0  0  0
  163.0460  209.7050  151.9860 O   0  0  0  0  0  1  0  0  0  0  0  0
  162.5240  208.0560  150.2910 C   0  0  0  0  0  2  0  0  0  0  0  0
  160.2490  207.2950  149.4170 C   0  0  0  0  0  2  0  0  0  0  0  0
  160.5450  205.9290  149.3070 O   0  0  0  0  0  0  0  0  0  0  0  0
  161.4890  208.1630  149.1610 C   0  0  2  0  0  3  0  0  0  0  0  0
  161.7650  205.6480  147.2430 C   0  0  1  0  0  3  0  0  0  0  0  0
  160.4040  205.6340  147.9470 C   0  0  0  0  0  2  0  0  0  0  0  0
  162.0140  207.9850  147.8560 O   0  0  0  0  0  0  0  0  0  0  0  0
  162.6810  206.7460  147.7860 C   0  0  0  0  0  2  0  0  0  0  0  0
  162.3880  204.4080  147.4060 O   0  0  0  0  0  0  0  0  0  0  0  0
  161.7590  202.5890  146.0170 C   0  0  0  0  0  3  0  0  0  0  0  0
  162.7640  205.9150  144.8570 O   0  0  0  0  0  0  0  0  0  0  0  0
  159.9970  203.6050  144.6850 C   0  0  0  0  0  0  0  0  0  0  0  0
  160.5860  202.4670  145.3930 C   0  0  0  0  0  3  0  0  0  0  0  0
  158.8430  203.5160  144.1930 O   0  0  0  0  0  0  0  0  0  0  0  0
  160.7530  204.8010  144.5230 N   0  0  0  0  0  2  0  0  0  0  0  0
  162.0450  204.9150  145.1190 C   0  0  0  0  0  0  0  0  0  0  0  0
  162.5190  203.8900  146.1120 C   0  0  1  0  0  3  0  0  0  0  0  0
  162.3670  206.5600  152.7070 O   0  0  0  0  0  0  0  0  0  0  0  0
  161.4310  205.5150  152.7730 C   0  0  0  0  0  2  0  0  0  0  0  0
  160.3140  202.8990  152.5030 O   0  0  0  0  0  0  0  0  0  0  0  0
  161.5960  204.6410  151.6210 N   0  0  0  0  0  2  0  0  0  0  0  0
  161.0310  203.3280  151.5620 C   0  0  0  0  0  0  0  0  0  0  0  0
  161.5840  201.1520  150.8380 F   0  0  0  0  0  0  0  0  0  0  0  0
  161.3290  202.4390  150.4020 C   0  0  1  0  0  3  0  0  0  0  0  0
  160.1530  202.4220  149.4490 C   0  0  0  0  0  1  0  0  0  0  0  0
  161.5930  208.4830  154.0720 C   0  0  0  0  0  2  0  0  0  0  0  0
  158.4320  212.7940  152.8730 N   0  0  0  0  0  0  0  0  0  0  0  0
  159.3020  212.2550  152.0580 C   0  0  0  0  0  0  0  0  0  0  0  0
  159.4340  209.4420  155.1460 C   0  0  0  0  0  0  0  0  0  0  0  0
  157.1850  213.7830  156.2250 N   0  0  0  0  0  2  0  0  0  0  0  0
  159.4080  208.4940  155.9770 O   0  0  0  0  0  0  0  0  0  0  0  0
  159.0420  211.8870  155.2290 C   0  0  1  0  0  3  0  0  0  0  0  0
  158.3880  210.5100  155.2380 C   0  0  0  0  0  2  0  0  0  0  0  0
  158.2960  212.8180  154.3060 C   0  0  0  0  0  0  0  0  0  0  0  0
  157.4060  213.6780  154.8140 C   0  0  0  0  0  3  0  0  0  0  0  0
  159.1750  212.4380  156.6510 C   0  0  0  0  0  2  0  0  0  0  0  0
  160.5050  211.4940  152.4440 C   0  0  0  0  0  3  0  0  0  0  0  0
  157.8080  212.8660  157.1720 C   0  0  0  0  0  2  0  0  0  0  0  0
  160.4960  210.4700  153.2470 C   0  0  0  0  0  0  0  0  0  0  0  0
  160.4760  209.4800  154.0990 C   0  0  0  0  0  0  0  0  0  0  0  0
  159.1680  212.5640  150.6080 C   0  0  0  0  0  2  0  0  0  0  0  0
  160.4700  212.8720  150.0450 N   0  0  0  0  0  2  0  0  0  0  0  0
  160.3860  214.2280  149.5360 C   0  0  0  0  0  2  0  0  0  0  0  0
  160.8280  214.2540  148.0830 C   0  0  0  0  0  2  0  0  0  0  0  0
  158.4010  214.0660  147.7420 N   0  0  0  0  0  1  0  0  0  0  0  0
  159.6580  214.4490  147.1210 C   0  0  2  0  0  3  0  0  0  0  0  0
  159.2710  212.1960  145.6840 O   0  0  0  0  0  0  0  0  0  0  0  0
  159.2240  214.3260  144.4710 O   0  0  0  0  0  0  0  0  0  0  0  0
  159.8880  213.5640  145.5840 S   0  0  0  0  0  0  0  0  0  0  0  0
  161.6330  213.4180  145.2360 C   0  0  0  0  0  2  0  0  0  0  0  0
  162.1500  213.6940  142.9230 O   0  0  0  0  0  1  0  0  0  0  0  0
  162.0530  214.3770  144.1360 C   0  0  0  0  0  2  0  0  0  0  0  0
  1 21  1  0  0  0  0
  1 29  1  1  0  0  0
  2  3  1  1  0  0  0
  2  1  1  0  0  0  0
  4  2  1  0  0  0  0
  6  5  1  0  0  0  0
  7  5  1  0  0  0  0
  7  4  1  1  0  0  0
  8 12  1  1  0  0  0
  8 11  1  0  0  0  0
  8  9  1  0  0  0  0
  9  6  1  0  0  0  0
 10  7  1  0  0  0  0
 11 10  1  0  0  0  0
 13 20  1  0  0  0  0
 14 19  2  0  0  0  0
 15 16  1  0  0  0  0
 16 13  2  0  0  0  0
 17 15  2  0  0  0  0
 18 15  1  0  0  0  0
 18 19  1  0  0  0  0
 19 20  1  0  0  0  0
 20 12  1  1  0  0  0
 21 22  1  0  0  0  0
 24 22  1  0  0  0  0
 25 24  1  0  0  0  0
 25 23  2  0  0  0  0
 27 28  1  6  0  0  0
 27 26  1  0  0  0  0
 27 25  1  0  0  0  0
 29 43  1  0  0  0  0
 30 37  1  0  0  0  0
 31 40  1  0  0  0  0
 31 30  2  0  0  0  0
 32 36  1  0  0  0  0
 32 34  2  0  0  0  0
 33 41  1  0  0  0  0
 35 36  1  1  0  0  0
 35 39  1  0  0  0  0
 37 38  2  0  0  0  0
 37 35  1  0  0  0  0
 38 33  1  0  0  0  0
 39 41  1  0  0  0  0
 40 42  2  0  0  0  0
 42 43  2  0  0  0  0
 43 32  1  0  0  0  0
 44 31  1  0  0  0  0
 45 44  1  0  0  0  0
 46 45  1  0  0  0  0
 47 46  1  0  0  0  0
 49 48  1  1  0  0  0
 49 47  1  0  0  0  0
 51 52  2  0  0  0  0
 52 50  2  0  0  0  0
 52 49  1  0  0  0  0
 53 52  1  0  0  0  0
 54 55  1  0  0  0  0
 55 53  1  0  0  0  0
M  END
>  <MODEL>
6

>  <REMARK>
 VINA RESULT:      -3.8      3.569      9.978
  Name = 
  19 active torsions:
  status: ('A' for Active; 'I' for Inactive)
    1  A    between atoms: C_2  and  C_5
    2  A    between atoms: C_2  and  C_18
    3  A    between atoms: C_5  and  C_17
    4  A    between atoms: C_7  and  C_26
    5  A    between atoms: C_9  and  N_16
    6  A    between atoms: C_9  and  O_47
    7  A    between atoms: C_18  and  O_47
    8  A    between atoms: C_18  and  C_49
    9  A    between atoms: C_21  and  S_30
   10  A    between atoms: C_21  and  C_32
   11  A    between atoms: C_23  and  S_30
   12  A    between atoms: C_23  and  C_41
   13  A    between atoms: C_26  and  N_55
   14  A    between atoms: C_27  and  C_32
   15  A    between atoms: C_27  and  N_55
   16  A    between atoms: C_31  and  O_43
   17  A    between atoms: C_37  and  C_51
   18  A    between atoms: O_43  and  C_54
   19  A    between atoms: C_44  and  C_49
                            x       y       z     vdW  Elec       q    Type
                         _______ _______ _______ _____ _____    ______ ____

>  <TORSDO>
F 19

$$$$
=
 OpenBabel11072410043D

 55 58  0  0  1  0  0  0  0  0999 V2000
  161.8300  210.4460  150.0560 C   0  0  1  0  0  3  0  0  0  0  0  0
  161.7530  210.2720  151.5800 C   0  0  1  0  0  3  0  0  0  0  0  0
  163.0120  210.1840  152.1760 O   0  0  0  0  0  1  0  0  0  0  0  0
  160.8710  211.3130  152.2690 C   0  0  0  0  0  2  0  0  0  0  0  0
  159.6190  212.9760  150.7910 C   0  0  0  0  0  2  0  0  0  0  0  0
  159.5850  214.0390  151.7030 O   0  0  0  0  0  0  0  0  0  0  0  0
  159.5730  211.6180  151.5060 C   0  0  2  0  0  3  0  0  0  0  0  0
  157.7760  213.5820  153.2350 C   0  0  1  0  0  3  0  0  0  0  0  0
  158.2260  214.2710  151.9440 C   0  0  0  0  0  2  0  0  0  0  0  0
  158.3860  211.4430  152.2610 O   0  0  0  0  0  0  0  0  0  0  0  0
  158.4560  212.2250  153.4300 C   0  0  0  0  0  2  0  0  0  0  0  0
  158.0670  214.4020  154.3290 O   0  0  0  0  0  0  0  0  0  0  0  0
  155.7250  214.0200  154.2690 C   0  0  0  0  0  3  0  0  0  0  0  0
  157.8630  213.7230  157.2280 O   0  0  0  0  0  0  0  0  0  0  0  0
  155.5920  211.7800  155.2060 C   0  0  0  0  0  0  0  0  0  0  0  0
  155.1400  212.8210  154.2810 C   0  0  0  0  0  3  0  0  0  0  0  0
  155.1120  210.6200  155.1380 O   0  0  0  0  0  0  0  0  0  0  0  0
  156.5510  212.1000  156.2100 N   0  0  0  0  0  2  0  0  0  0  0  0
  157.1250  213.4050  156.2590 C   0  0  0  0  0  0  0  0  0  0  0  0
  156.9170  214.3720  155.1260 C   0  0  1  0  0  3  0  0  0  0  0  0
  162.1210  211.7570  149.6110 O   0  0  0  0  0  0  0  0  0  0  0  0
  162.2850  211.7570  148.2170 C   0  0  0  0  0  2  0  0  0  0  0  0
  161.8360  212.9630  145.6650 O   0  0  0  0  0  0  0  0  0  0  0  0
  160.9880  211.9180  147.5750 N   0  0  0  0  0  2  0  0  0  0  0  0
  160.8310  212.5580  146.3050 C   0  0  0  0  0  0  0  0  0  0  0  0
  159.0680  214.0940  145.9910 F   0  0  0  0  0  0  0  0  0  0  0  0
  159.4660  212.7920  145.7520 C   0  0  1  0  0  3  0  0  0  0  0  0
  159.4610  212.5310  144.2600 C   0  0  0  0  0  1  0  0  0  0  0  0
  162.6350  209.3420  149.3610 C   0  0  0  0  0  2  0  0  0  0  0  0
  160.9670  204.5010  151.3070 N   0  0  0  0  0  0  0  0  0  0  0  0
  161.4410  205.4760  152.0380 C   0  0  0  0  0  0  0  0  0  0  0  0
  161.1600  207.4530  148.3660 C   0  0  0  0  0  0  0  0  0  0  0  0
  160.7520  202.4660  148.2110 N   0  0  0  0  0  0  0  0  0  0  0  0
  160.9630  208.1350  147.3240 O   0  0  0  0  0  0  0  0  0  0  0  0
  161.6440  205.0750  148.8660 C   0  0  1  0  0  3  0  0  0  0  0  0
  160.5730  206.0780  148.4490 C   0  0  0  0  0  2  0  0  0  0  0  0
  161.1060  204.1390  149.9200 C   0  0  2  0  0  3  0  0  0  0  0  0
  160.6680  202.9270  149.5650 C   0  0  0  0  0  3  0  0  0  0  0  0
  162.2090  204.3400  147.6480 C   0  0  0  0  0  2  0  0  0  0  0  0
  162.3630  206.5360  151.5860 C   0  0  0  0  0  3  0  0  0  0  0  0
  161.1850  203.3380  147.1260 C   0  0  0  0  0  2  0  0  0  0  0  0
  162.1510  207.2990  150.5540 C   0  0  0  0  0  0  0  0  0  0  0  0
  161.9480  208.0180  149.4820 C   0  0  0  0  0  0  0  0  0  0  0  0
  161.1630  205.4380  153.4990 C   0  0  0  0  0  2  0  0  0  0  0  0
  160.5610  206.6890  153.9220 N   0  0  0  0  0  2  0  0  0  0  0  0
  161.4150  207.2240  154.9650 C   0  0  0  0  0  2  0  0  0  0  0  0
  160.8350  206.8750  156.3260 C   0  0  0  0  0  2  0  0  0  0  0  0
  158.9450  208.2970  156.9930 N   0  0  0  0  0  1  0  0  0  0  0  0
  160.3830  208.1100  157.1010 C   0  0  2  0  0  3  0  0  0  0  0  0
  162.6700  209.5440  157.0660 O   0  0  0  0  0  0  0  0  0  0  0  0
  161.2310  209.6720  155.0850 O   0  0  0  0  0  0  0  0  0  0  0  0
  161.2450  209.5900  156.5860 S   0  0  0  0  0  0  0  0  0  0  0  0
  160.4230  211.0230  157.2610 C   0  0  0  0  0  2  0  0  0  0  0  0
  160.4640  213.0780  156.0480 O   0  0  0  0  0  1  0  0  0  0  0  0
  161.1920  212.2930  156.9440 C   0  0  0  0  0  2  0  0  0  0  0  0
  1 29  1  1  0  0  0
  1  2  1  0  0  0  0
  2  3  1  1  0  0  0
  2  4  1  0  0  0  0
  5  7  1  0  0  0  0
  5  6  1  0  0  0  0
  6  9  1  0  0  0  0
  7 10  1  0  0  0  0
  7  4  1  1  0  0  0
  8 11  1  0  0  0  0
  8 12  1  1  0  0  0
  9  8  1  0  0  0  0
 10 11  1  0  0  0  0
 13 16  2  0  0  0  0
 13 20  1  0  0  0  0
 15 18  1  0  0  0  0
 16 15  1  0  0  0  0
 17 15  2  0  0  0  0
 18 19  1  0  0  0  0
 19 14  2  0  0  0  0
 20 12  1  6  0  0  0
 20 19  1  0  0  0  0
 21  1  1  0  0  0  0
 22 21  1  0  0  0  0
 23 25  2  0  0  0  0
 24 22  1  0  0  0  0
 25 24  1  0  0  0  0
 27 28  1  6  0  0  0
 27 26  1  0  0  0  0
 27 25  1  0  0  0  0
 29 43  1  0  0  0  0
 30 31  2  0  0  0  0
 31 44  1  0  0  0  0
 32 36  1  0  0  0  0
 32 43  1  0  0  0  0
 33 38  2  0  0  0  0
 34 32  2  0  0  0  0
 35 39  1  6  0  0  0
 35 37  1  0  0  0  0
 36 35  1  0  0  0  0
 37 38  1  6  0  0  0
 37 30  1  0  0  0  0
 40 31  1  0  0  0  0
 41 39  1  0  0  0  0
 41 33  1  0  0  0  0
 42 40  2  0  0  0  0
 43 42  2  0  0  0  0
 44 45  1  0  0  0  0
 45 46  1  0  0  0  0
 46 47  1  0  0  0  0
 47 49  1  0  0  0  0
 49 48  1  6  0  0  0
 51 52  2  0  0  0  0
 52 50  2  0  0  0  0
 52 49  1  0  0  0  0
 52 53  1  0  0  0  0
 54 55  1  0  0  0  0
 55 53  1  0  0  0  0
M  END
>  <MODEL>
7

>  <REMARK>
 VINA RESULT:      -3.6      4.157      8.039
  Name = 
  19 active torsions:
  status: ('A' for Active; 'I' for Inactive)
    1  A    between atoms: C_2  and  C_5
    2  A    between atoms: C_2  and  C_18
    3  A    between atoms: C_5  and  C_17
    4  A    between atoms: C_7  and  C_26
    5  A    between atoms: C_9  and  N_16
    6  A    between atoms: C_9  and  O_47
    7  A    between atoms: C_18  and  O_47
    8  A    between atoms: C_18  and  C_49
    9  A    between atoms: C_21  and  S_30
   10  A    between atoms: C_21  and  C_32
   11  A    between atoms: C_23  and  S_30
   12  A    between atoms: C_23  and  C_41
   13  A    between atoms: C_26  and  N_55
   14  A    between atoms: C_27  and  C_32
   15  A    between atoms: C_27  and  N_55
   16  A    between atoms: C_31  and  O_43
   17  A    between atoms: C_37  and  C_51
   18  A    between atoms: O_43  and  C_54
   19  A    between atoms: C_44  and  C_49
                            x       y       z     vdW  Elec       q    Type
                         _______ _______ _______ _____ _____    ______ ____

>  <TORSDO>
F 19

$$$$
=
 OpenBabel11072410043D

 55 58  0  0  1  0  0  0  0  0999 V2000
  161.5970  207.9820  149.6660 C   0  0  1  0  0  3  0  0  0  0  0  0
  161.9530  209.2970  150.3720 C   0  0  1  0  0  3  0  0  0  0  0  0
  161.9480  210.3930  149.5070 O   0  0  0  0  0  1  0  0  0  0  0  0
  161.1200  209.5610  151.6260 C   0  0  0  0  0  2  0  0  0  0  0  0
  161.5290  208.3920  153.8580 C   0  0  0  0  0  2  0  0  0  0  0  0
  160.2610  208.6110  154.4130 O   0  0  0  0  0  0  0  0  0  0  0  0
  161.9410  209.5380  152.9240 C   0  0  2  0  0  3  0  0  0  0  0  0
  160.2550  210.8720  155.2590 C   0  0  1  0  0  3  0  0  0  0  0  0
  160.4900  209.3880  155.5540 C   0  0  0  0  0  2  0  0  0  0  0  0
  162.0230  210.7830  153.5970 O   0  0  0  0  0  0  0  0  0  0  0  0
  160.7240  211.2610  153.8560 C   0  0  0  0  0  2  0  0  0  0  0  0
  158.8940  211.1640  155.3850 O   0  0  0  0  0  0  0  0  0  0  0  0
  157.4850  212.3420  153.8830 C   0  0  0  0  0  3  0  0  0  0  0  0
  159.7180  213.8630  156.3550 O   0  0  0  0  0  0  0  0  0  0  0  0
  156.2340  213.7500  155.4210 C   0  0  0  0  0  0  0  0  0  0  0  0
  156.3340  212.9330  154.2100 C   0  0  0  0  0  3  0  0  0  0  0  0
  155.1230  214.2140  155.7830 O   0  0  0  0  0  0  0  0  0  0  0  0
  157.4110  214.0490  156.1670 N   0  0  0  0  0  2  0  0  0  0  0  0
  158.6640  213.4870  155.7790 C   0  0  0  0  0  0  0  0  0  0  0  0
  158.7220  212.3970  154.7450 C   0  0  1  0  0  3  0  0  0  0  0  0
  160.4870  207.2880  150.2040 O   0  0  0  0  0  0  0  0  0  0  0  0
  160.8570  206.6670  151.4080 C   0  0  0  0  0  2  0  0  0  0  0  0
  161.1890  204.7580  153.5080 O   0  0  0  0  0  0  0  0  0  0  0  0
  160.7650  205.2220  151.2580 N   0  0  0  0  0  2  0  0  0  0  0  0
  160.9710  204.3190  152.3490 C   0  0  0  0  0  0  0  0  0  0  0  0
  159.9970  202.5090  151.1910 F   0  0  0  0  0  0  0  0  0  0  0  0
  160.9750  202.8480  152.1080 C   0  0  1  0  0  3  0  0  0  0  0  0
  162.3270  202.4130  151.5840 C   0  0  0  0  0  1  0  0  0  0  0  0
  161.5990  208.0960  148.1370 C   0  0  0  0  0  2  0  0  0  0  0  0
  161.0690  203.9090  144.6440 N   0  0  0  0  0  0  0  0  0  0  0  0
  160.8470  205.1630  144.3460 C   0  0  0  0  0  0  0  0  0  0  0  0
  162.4640  205.6500  148.1700 C   0  0  0  0  0  0  0  0  0  0  0  0
  161.1040  200.9920  146.9380 N   0  0  0  0  0  2  0  0  0  0  0  0
  163.0740  205.8640  149.2520 O   0  0  0  0  0  0  0  0  0  0  0  0
  161.0900  203.8100  147.2400 C   0  0  1  0  0  3  0  0  0  0  0  0
  162.5020  204.2740  147.5810 C   0  0  0  0  0  2  0  0  0  0  0  0
  161.0630  203.1640  145.8770 C   0  0  0  0  0  0  0  0  0  0  0  0
  161.1010  201.8310  145.7780 C   0  0  0  0  0  3  0  0  0  0  0  0
  160.5310  202.9040  148.3400 C   0  0  0  0  0  2  0  0  0  0  0  0
  160.4570  206.2280  145.2890 C   0  0  0  0  0  3  0  0  0  0  0  0
  161.2110  201.5410  148.2850 C   0  0  0  0  0  2  0  0  0  0  0  0
  161.1070  206.5140  146.3800 C   0  0  0  0  0  0  0  0  0  0  0  0
  161.7400  206.7490  147.4980 C   0  0  0  0  0  0  0  0  0  0  0  0
  160.8260  205.5330  142.9050 C   0  0  0  0  0  2  0  0  0  0  0  0
  162.0620  206.2070  142.5490 N   0  0  0  0  0  2  0  0  0  0  0  0
  162.1350  206.1880  141.1000 C   0  0  0  0  0  2  0  0  0  0  0  0
  162.4570  207.5820  140.5890 C   0  0  0  0  0  2  0  0  0  0  0  0
  161.9410  207.2560  138.2080 N   0  0  0  0  0  1  0  0  0  0  0  0
  161.5770  207.9890  139.4090 C   0  0  2  0  0  3  0  0  0  0  0  0
  162.5450  210.4160  140.0870 O   0  0  0  0  0  0  0  0  0  0  0  0
  162.1240  209.9960  137.7080 O   0  0  0  0  0  0  0  0  0  0  0  0
  161.6210  209.7500  139.1030 S   0  0  0  0  0  0  0  0  0  0  0  0
  159.9770  210.4240  139.2630 C   0  0  0  0  0  2  0  0  0  0  0  0
  157.6760  210.0560  138.7500 O   0  0  0  0  0  1  0  0  0  0  0  0
  158.9660  209.5850  138.5010 C   0  0  0  0  0  2  0  0  0  0  0  0
  1 29  1  6  0  0  0
  1 21  1  0  0  0  0
  1  2  1  0  0  0  0
  2  3  1  6  0  0  0
  2  4  1  0  0  0  0
  5  6  1  0  0  0  0
  6  9  1  0  0  0  0
  7  4  1  6  0  0  0
  7 10  1  0  0  0  0
  7  5  1  0  0  0  0
  8 12  1  6  0  0  0
  8  9  1  0  0  0  0
 10 11  1  0  0  0  0
 11  8  1  0  0  0  0
 13 16  2  0  0  0  0
 13 20  1  0  0  0  0
 15 17  2  0  0  0  0
 15 18  1  0  0  0  0
 16 15  1  0  0  0  0
 19 18  1  0  0  0  0
 19 14  2  0  0  0  0
 20 12  1  1  0  0  0
 20 19  1  0  0  0  0
 21 22  1  0  0  0  0
 24 22  1  0  0  0  0
 24 25  1  0  0  0  0
 25 23  2  0  0  0  0
 26 27  1  0  0  0  0
 27 28  1  6  0  0  0
 27 25  1  0  0  0  0
 30 37  1  0  0  0  0
 31 30  2  0  0  0  0
 31 40  1  0  0  0  0
 32 34  2  0  0  0  0
 33 41  1  0  0  0  0
 35 36  1  1  0  0  0
 35 39  1  0  0  0  0
 36 32  1  0  0  0  0
 37 35  1  0  0  0  0
 38 37  2  0  0  0  0
 38 33  1  0  0  0  0
 40 42  2  0  0  0  0
 41 39  1  0  0  0  0
 42 43  2  0  0  0  0
 43 29  1  0  0  0  0
 43 32  1  0  0  0  0
 44 31  1  0  0  0  0
 45 44  1  0  0  0  0
 46 45  1  0  0  0  0
 47 46  1  0  0  0  0
 49 48  1  6  0  0  0
 49 47  1  0  0  0  0
 51 52  2  0  0  0  0
 52 53  1  0  0  0  0
 52 49  1  0  0  0  0
 52 50  2  0  0  0  0
 55 54  1  0  0  0  0
 55 53  1  0  0  0  0
M  END
>  <MODEL>
8

>  <REMARK>
 VINA RESULT:      -3.3      2.570      3.884
  Name = 
  19 active torsions:
  status: ('A' for Active; 'I' for Inactive)
    1  A    between atoms: C_2  and  C_5
    2  A    between atoms: C_2  and  C_18
    3  A    between atoms: C_5  and  C_17
    4  A    between atoms: C_7  and  C_26
    5  A    between atoms: C_9  and  N_16
    6  A    between atoms: C_9  and  O_47
    7  A    between atoms: C_18  and  O_47
    8  A    between atoms: C_18  and  C_49
    9  A    between atoms: C_21  and  S_30
   10  A    between atoms: C_21  and  C_32
   11  A    between atoms: C_23  and  S_30
   12  A    between atoms: C_23  and  C_41
   13  A    between atoms: C_26  and  N_55
   14  A    between atoms: C_27  and  C_32
   15  A    between atoms: C_27  and  N_55
   16  A    between atoms: C_31  and  O_43
   17  A    between atoms: C_37  and  C_51
   18  A    between atoms: O_43  and  C_54
   19  A    between atoms: C_44  and  C_49
                            x       y       z     vdW  Elec       q    Type
                         _______ _______ _______ _____ _____    ______ ____

>  <TORSDO>
F 19

$$$$
