=
 OpenBabel11072411153D

 28 31  0  0  1  0  0  0  0  0999 V2000
  160.5690  206.7920  147.2180 O   0  0  0  0  0  1  0  0  0  0  0  0
  161.7620  209.2080  150.8210 C   0  0  0  0  0  0  0  0  0  0  0  0
  161.2720  206.6710  150.5130 C   0  0  0  0  0  2  0  0  0  0  0  0
  161.6450  206.7480  148.1050 C   0  0  1  0  0  3  0  0  0  0  0  0
  162.1820  209.2280  148.0880 N   0  0  0  0  0  0  0  0  0  0  0  0
  162.3180  210.3710  148.8190 C   0  0  0  0  0  3  0  0  0  0  0  0
  161.2040  203.9000  148.0810 O   0  0  0  0  0  0  0  0  0  0  0  0
  161.8360  208.0790  148.7210 C   0  0  0  0  0  0  0  0  0  0  0  0
  161.1030  204.4970  149.1860 C   0  0  0  0  0  0  0  0  0  0  0  0
  162.1100  210.3570  150.1700 N   0  0  0  0  0  0  0  0  0  0  0  0
  161.3010  205.9140  149.2600 N   0  0  0  0  0  0  0  0  0  0  0  0
  161.6240  208.0420  150.0720 C   0  0  0  0  0  0  0  0  0  0  0  0
  160.7880  210.4610  152.7260 C   0  0  0  0  0  2  0  0  0  0  0  0
  160.7930  211.0450  157.2610 C   0  0  0  0  0  1  0  0  0  0  0  0
  161.1400  207.6200  154.1760 C   0  0  0  0  0  2  0  0  0  0  0  0
  160.8160  207.9260  152.7200 C   0  0  0  0  0  2  0  0  0  0  0  0
  161.8570  210.6180  155.0430 C   0  0  0  0  0  2  0  0  0  0  0  0
  160.2640  208.3900  155.1770 C   0  0  2  0  0  3  0  0  0  0  0  0
  159.6210  209.5390  154.6510 O   0  0  0  0  0  0  0  0  0  0  0  0
  161.5390  209.2000  152.2980 C   0  0  1  0  0  3  0  0  0  0  0  0
  160.5490  210.5320  154.2320 C   0  0  2  0  0  3  0  0  0  0  0  0
  163.0230  210.0130  157.1370 C   0  0  0  0  0  1  0  0  0  0  0  0
  161.0370  208.6980  156.4640 C   0  0  0  0  0  2  0  0  0  0  0  0
  161.6680  210.0940  156.4650 C   0  0  0  0  0  0  0  0  0  0  0  0
  160.7480  203.7090  150.4070 C   0  0  0  0  0  2  0  0  0  0  0  0
  160.0890  201.4190  149.7450 C   0  0  0  0  0  1  0  0  0  0  0  0
  161.2210  202.2700  150.2780 C   0  0  0  0  0  3  0  0  0  0  0  0
  161.6530  201.7340  151.6300 C   0  0  0  0  0  1  0  0  0  0  0  0
  4  1  1  6  0  0  0
  4  8  1  0  0  0  0
  4 11  1  0  0  0  0
  5  8  2  0  0  0  0
  5  6  1  0  0  0  0
  6 10  2  0  0  0  0
  7  9  2  0  0  0  0
  8 12  1  0  0  0  0
  9 11  1  0  0  0  0
  9 25  1  0  0  0  0
 10  2  1  0  0  0  0
 11  3  1  0  0  0  0
 12  3  1  0  0  0  0
 12  2  2  0  0  0  0
 16 15  1  0  0  0  0
 17 24  1  0  0  0  0
 18 15  1  6  0  0  0
 18 23  1  0  0  0  0
 19 18  1  0  0  0  0
 20  2  1  6  0  0  0
 20 16  1  0  0  0  0
 20 13  1  0  0  0  0
 21 13  1  6  0  0  0
 21 19  1  0  0  0  0
 21 17  1  0  0  0  0
 23 24  1  0  0  0  0
 24 22  1  0  0  0  0
 24 14  1  0  0  0  0
 26 27  1  0  0  0  0
 27 25  1  0  0  0  0
 27 28  1  0  0  0  0
M  END
>  <MODEL>
1

>  <REMARK>
 VINA RESULT:      -8.2      0.000      0.000
  Name = 
  3 active torsions:
  status: ('A' for Active; 'I' for Inactive)
    1  A    between atoms: C_2  and  C_14
    2  A    between atoms: C_4  and  C_22
    3  A    between atoms: C_4  and  C_23
                            x       y       z     vdW  Elec       q    Type
                         _______ _______ _______ _____ _____    ______ ____

>  <TORSDO>
F 3

$$$$
=
 OpenBabel11072411153D

 28 31  0  0  1  0  0  0  0  0999 V2000
  157.5540  212.6070  155.0540 O   0  0  0  0  0  1  0  0  0  0  0  0
  160.5160  209.3410  154.1570 C   0  0  0  0  0  0  0  0  0  0  0  0
  159.3450  211.0940  152.6320 C   0  0  0  0  0  2  0  0  0  0  0  0
  158.8320  212.5810  154.4940 C   0  0  1  0  0  3  0  0  0  0  0  0
  159.9130  211.0740  156.2260 N   0  0  0  0  0  0  0  0  0  0  0  0
  160.5780  209.9080  156.4690 C   0  0  0  0  0  3  0  0  0  0  0  0
  157.7310  214.4090  152.5580 O   0  0  0  0  0  0  0  0  0  0  0  0
  159.5500  211.3720  154.9540 C   0  0  0  0  0  0  0  0  0  0  0  0
  158.1840  213.3130  152.1330 C   0  0  0  0  0  0  0  0  0  0  0  0
  160.8740  209.0540  155.4430 N   0  0  0  0  0  0  0  0  0  0  0  0
  158.7350  212.3580  153.0500 N   0  0  0  0  0  0  0  0  0  0  0  0
  159.8370  210.5320  153.9120 C   0  0  0  0  0  0  0  0  0  0  0  0
  161.9790  208.9760  152.1890 C   0  0  0  0  0  2  0  0  0  0  0  0
  162.5250  206.7110  148.2550 C   0  0  0  0  0  1  0  0  0  0  0  0
  160.8930  205.9740  152.5170 C   0  0  0  0  0  2  0  0  0  0  0  0
  161.1740  207.0200  153.5870 C   0  0  0  0  0  2  0  0  0  0  0  0
  161.2040  207.9210  149.9940 C   0  0  0  0  0  2  0  0  0  0  0  0
  162.0410  205.7970  151.5110 C   0  0  2  0  0  3  0  0  0  0  0  0
  162.9600  206.8750  151.4550 O   0  0  0  0  0  0  0  0  0  0  0  0
  160.8450  208.4040  153.0410 C   0  0  1  0  0  3  0  0  0  0  0  0
  162.3510  208.0800  151.0100 C   0  0  2  0  0  3  0  0  0  0  0  0
  160.0840  206.4290  148.3720 C   0  0  0  0  0  1  0  0  0  0  0  0
  161.5090  205.4180  150.1250 C   0  0  0  0  0  2  0  0  0  0  0  0
  161.3380  206.6250  149.1980 C   0  0  0  0  0  0  0  0  0  0  0  0
  158.1130  213.0150  150.6690 C   0  0  0  0  0  2  0  0  0  0  0  0
  158.4130  214.1720  148.5030 C   0  0  0  0  0  1  0  0  0  0  0  0
  159.0030  213.9620  149.8820 C   0  0  0  0  0  3  0  0  0  0  0  0
  160.3980  213.3820  149.7420 C   0  0  0  0  0  1  0  0  0  0  0  0
  2 10  1  0  0  0  0
  3 11  1  0  0  0  0
  3 12  1  0  0  0  0
  4  8  1  0  0  0  0
  4  1  1  1  0  0  0
  5  6  1  0  0  0  0
  8  5  2  0  0  0  0
  9  7  2  0  0  0  0
  9 11  1  0  0  0  0
 10  6  2  0  0  0  0
 11  4  1  0  0  0  0
 12  2  2  0  0  0  0
 12  8  1  0  0  0  0
 13 20  1  0  0  0  0
 14 24  1  0  0  0  0
 15 16  1  0  0  0  0
 18 23  1  6  0  0  0
 18 15  1  0  0  0  0
 19 18  1  0  0  0  0
 20 16  1  0  0  0  0
 20  2  1  1  0  0  0
 21 17  1  1  0  0  0
 21 19  1  0  0  0  0
 21 13  1  0  0  0  0
 22 24  1  0  0  0  0
 24 17  1  0  0  0  0
 24 23  1  0  0  0  0
 25  9  1  0  0  0  0
 26 27  1  0  0  0  0
 27 25  1  0  0  0  0
 28 27  1  0  0  0  0
M  END
>  <MODEL>
2

>  <REMARK>
 VINA RESULT:      -8.0      3.254      7.910
  Name = 
  3 active torsions:
  status: ('A' for Active; 'I' for Inactive)
    1  A    between atoms: C_2  and  C_14
    2  A    between atoms: C_4  and  C_22
    3  A    between atoms: C_4  and  C_23
                            x       y       z     vdW  Elec       q    Type
                         _______ _______ _______ _____ _____    ______ ____

>  <TORSDO>
F 3

$$$$
=
 OpenBabel11072411153D

 28 31  0  0  1  0  0  0  0  0999 V2000
  159.4260  209.5300  154.8240 O   0  0  0  0  0  1  0  0  0  0  0  0
  161.4080  206.6610  151.9800 C   0  0  0  0  0  0  0  0  0  0  0  0
  160.8470  209.1940  151.7850 C   0  0  0  0  0  2  0  0  0  0  0  0
  160.6730  209.4860  154.1990 C   0  0  1  0  0  3  0  0  0  0  0  0
  161.2070  207.0590  154.7090 N   0  0  0  0  0  0  0  0  0  0  0  0
  161.5090  205.8270  154.2080 C   0  0  0  0  0  3  0  0  0  0  0  0
  160.2200  212.2860  153.6930 O   0  0  0  0  0  0  0  0  0  0  0  0
  161.0050  208.0870  153.8490 C   0  0  0  0  0  0  0  0  0  0  0  0
  160.3720  211.5310  152.6960 C   0  0  0  0  0  0  0  0  0  0  0  0
  161.6080  205.6340  152.8580 N   0  0  0  0  0  0  0  0  0  0  0  0
  160.5900  210.1270  152.8840 N   0  0  0  0  0  0  0  0  0  0  0  0
  161.0990  207.9180  152.4950 C   0  0  0  0  0  0  0  0  0  0  0  0
  160.5160  205.3840  150.0500 C   0  0  0  0  0  2  0  0  0  0  0  0
  161.3040  203.9530  145.7800 C   0  0  0  0  0  1  0  0  0  0  0  0
  162.0550  207.6770  148.4140 C   0  0  0  0  0  2  0  0  0  0  0  0
  161.3480  207.7620  149.7600 C   0  0  0  0  0  2  0  0  0  0  0  0
  161.9490  204.4890  148.1310 C   0  0  0  0  0  2  0  0  0  0  0  0
  161.2160  207.0020  147.3180 C   0  0  2  0  0  3  0  0  0  0  0  0
  160.1440  206.2030  147.7900 O   0  0  0  0  0  0  0  0  0  0  0  0
  161.5200  206.4440  150.5060 C   0  0  1  0  0  3  0  0  0  0  0  0
  160.5950  205.0920  148.5540 C   0  0  2  0  0  3  0  0  0  0  0  0
  163.6660  204.3250  146.3610 C   0  0  0  0  0  1  0  0  0  0  0  0
  162.1060  206.2460  146.3260 C   0  0  0  0  0  2  0  0  0  0  0  0
  162.2450  204.7580  146.6580 C   0  0  0  0  0  0  0  0  0  0  0  0
  160.2940  212.1170  151.3230 C   0  0  0  0  0  2  0  0  0  0  0  0
  158.1600  213.3350  151.0360 C   0  0  0  0  0  1  0  0  0  0  0  0
  159.6330  213.4850  151.3550 C   0  0  0  0  0  3  0  0  0  0  0  0
  160.2720  214.4050  150.3320 C   0  0  0  0  0  1  0  0  0  0  0  0
  2 12  2  0  0  0  0
  2 10  1  0  0  0  0
  3 12  1  0  0  0  0
  3 11  1  0  0  0  0
  4  1  1  6  0  0  0
  6  5  1  0  0  0  0
  8  4  1  0  0  0  0
  8  5  2  0  0  0  0
  9 11  1  0  0  0  0
  9  7  2  0  0  0  0
 10  6  2  0  0  0  0
 11  4  1  0  0  0  0
 12  8  1  0  0  0  0
 13 20  1  0  0  0  0
 14 24  1  0  0  0  0
 15 16  1  0  0  0  0
 16 20  1  0  0  0  0
 18 23  1  1  0  0  0
 18 19  1  0  0  0  0
 18 15  1  0  0  0  0
 19 21  1  0  0  0  0
 20  2  1  1  0  0  0
 21 17  1  6  0  0  0
 21 13  1  0  0  0  0
 22 24  1  0  0  0  0
 23 24  1  0  0  0  0
 24 17  1  0  0  0  0
 25 27  1  0  0  0  0
 25  9  1  0  0  0  0
 26 27  1  0  0  0  0
 28 27  1  0  0  0  0
M  END
>  <MODEL>
3

>  <REMARK>
 VINA RESULT:      -7.9      2.470      8.289
  Name = 
  3 active torsions:
  status: ('A' for Active; 'I' for Inactive)
    1  A    between atoms: C_2  and  C_14
    2  A    between atoms: C_4  and  C_22
    3  A    between atoms: C_4  and  C_23
                            x       y       z     vdW  Elec       q    Type
                         _______ _______ _______ _____ _____    ______ ____

>  <TORSDO>
F 3

$$$$
=
 OpenBabel11072411153D

 28 31  0  0  1  0  0  0  0  0999 V2000
  161.6860  200.4040  147.5470 O   0  0  0  0  0  1  0  0  0  0  0  0
  160.9740  203.7130  150.5110 C   0  0  0  0  0  0  0  0  0  0  0  0
  160.9300  203.6690  147.9090 C   0  0  0  0  0  2  0  0  0  0  0  0
  160.6130  201.2540  147.8150 C   0  0  1  0  0  3  0  0  0  0  0  0
  160.6020  200.9790  150.3370 N   0  0  0  0  0  0  0  0  0  0  0  0
  160.6970  201.5910  151.5530 C   0  0  0  0  0  3  0  0  0  0  0  0
  160.4550  201.5210  144.9510 O   0  0  0  0  0  0  0  0  0  0  0  0
  160.6940  201.7310  149.2130 C   0  0  0  0  0  0  0  0  0  0  0  0
  160.6620  202.5660  145.6230 C   0  0  0  0  0  0  0  0  0  0  0  0
  160.8800  202.9430  151.6340 N   0  0  0  0  0  0  0  0  0  0  0  0
  160.7620  202.4950  147.0510 N   0  0  0  0  0  0  0  0  0  0  0  0
  160.8760  203.0860  149.2710 C   0  0  0  0  0  0  0  0  0  0  0  0
  162.2660  205.5120  151.6250 C   0  0  0  0  0  2  0  0  0  0  0  0
  162.4000  209.9530  152.7060 C   0  0  0  0  0  1  0  0  0  0  0  0
  161.0550  207.2440  149.2100 C   0  0  0  0  0  2  0  0  0  0  0  0
  161.4680  205.7790  149.2330 C   0  0  0  0  0  2  0  0  0  0  0  0
  161.2760  207.7510  152.3640 C   0  0  0  0  0  2  0  0  0  0  0  0
  162.1140  208.1930  149.7920 C   0  0  2  0  0  3  0  0  0  0  0  0
  163.0810  207.5740  150.6250 O   0  0  0  0  0  0  0  0  0  0  0  0
  161.1710  205.1910  150.6080 C   0  0  1  0  0  3  0  0  0  0  0  0
  162.5030  207.0110  151.7950 C   0  0  2  0  0  3  0  0  0  0  0  0
  159.9630  209.8440  152.3860 C   0  0  0  0  0  1  0  0  0  0  0  0
  161.4610  209.4040  150.4650 C   0  0  0  0  0  2  0  0  0  0  0  0
  161.2840  209.2270  151.9760 C   0  0  0  0  0  0  0  0  0  0  0  0
  160.8310  203.8690  144.9080 C   0  0  0  0  0  2  0  0  0  0  0  0
  160.4590  206.2030  145.6370 C   0  0  0  0  0  1  0  0  0  0  0  0
  161.2860  204.9560  145.8670 C   0  0  0  0  0  3  0  0  0  0  0  0
  162.7500  205.2820  145.6400 C   0  0  0  0  0  1  0  0  0  0  0  0
  2 10  1  0  0  0  0
  3 12  1  0  0  0  0
  4  1  1  6  0  0  0
  4  8  1  0  0  0  0
  5  6  1  0  0  0  0
  6 10  2  0  0  0  0
  7  9  2  0  0  0  0
  8 12  1  0  0  0  0
  8  5  2  0  0  0  0
  9 11  1  0  0  0  0
 11  4  1  0  0  0  0
 11  3  1  0  0  0  0
 12  2  2  0  0  0  0
 15 16  1  0  0  0  0
 16 20  1  0  0  0  0
 18 15  1  1  0  0  0
 18 23  1  0  0  0  0
 18 19  1  0  0  0  0
 19 21  1  0  0  0  0
 20  2  1  6  0  0  0
 20 13  1  0  0  0  0
 21 13  1  6  0  0  0
 21 17  1  0  0  0  0
 23 24  1  0  0  0  0
 24 17  1  0  0  0  0
 24 22  1  0  0  0  0
 24 14  1  0  0  0  0
 25  9  1  0  0  0  0
 25 27  1  0  0  0  0
 26 27  1  0  0  0  0
 28 27  1  0  0  0  0
M  END
>  <MODEL>
4

>  <REMARK>
 VINA RESULT:      -7.6      3.284      5.704
  Name = 
  3 active torsions:
  status: ('A' for Active; 'I' for Inactive)
    1  A    between atoms: C_2  and  C_14
    2  A    between atoms: C_4  and  C_22
    3  A    between atoms: C_4  and  C_23
                            x       y       z     vdW  Elec       q    Type
                         _______ _______ _______ _____ _____    ______ ____

>  <TORSDO>
F 3

$$$$
=
 OpenBabel11072411153D

 28 31  0  0  1  0  0  0  0  0999 V2000
  162.7210  205.9520  150.9800 O   0  0  0  0  0  1  0  0  0  0  0  0
  161.8880  210.2730  150.0420 C   0  0  0  0  0  0  0  0  0  0  0  0
  161.5240  208.0930  148.6680 C   0  0  0  0  0  2  0  0  0  0  0  0
  161.5720  206.6700  150.6460 C   0  0  1  0  0  3  0  0  0  0  0  0
  161.9230  208.6060  152.2480 N   0  0  0  0  0  0  0  0  0  0  0  0
  162.0750  209.9540  152.3940 C   0  0  0  0  0  3  0  0  0  0  0  0
  161.0140  204.4490  148.8980 O   0  0  0  0  0  0  0  0  0  0  0  0
  161.7550  208.0940  151.0040 C   0  0  0  0  0  0  0  0  0  0  0  0
  161.1420  205.5870  148.3720 C   0  0  0  0  0  0  0  0  0  0  0  0
  162.0570  210.7740  151.3010 N   0  0  0  0  0  0  0  0  0  0  0  0
  161.4310  206.7280  149.1890 N   0  0  0  0  0  0  0  0  0  0  0  0
  161.7320  208.8970  149.8960 C   0  0  0  0  0  0  0  0  0  0  0  0
  160.7370  212.1980  148.9860 C   0  0  0  0  0  2  0  0  0  0  0  0
  159.9490  214.4530  145.0870 C   0  0  0  0  0  1  0  0  0  0  0  0
  163.4020  212.2190  147.1980 C   0  0  0  0  0  2  0  0  0  0  0  0
  163.2260  211.8390  148.6620 C   0  0  0  0  0  2  0  0  0  0  0  0
  160.2880  212.4080  146.4770 C   0  0  0  0  0  2  0  0  0  0  0  0
  162.7500  213.5600  146.8270 C   0  0  2  0  0  3  0  0  0  0  0  0
  161.7570  214.0150  147.7310 O   0  0  0  0  0  0  0  0  0  0  0  0
  161.8660  211.1760  148.8520 C   0  0  1  0  0  3  0  0  0  0  0  0
  160.6380  213.1400  147.7880 C   0  0  2  0  0  3  0  0  0  0  0  0
  160.5810  212.3250  144.0250 C   0  0  0  0  0  1  0  0  0  0  0  0
  162.2520  213.5500  145.3780 C   0  0  0  0  0  2  0  0  0  0  0  0
  160.7690  213.1870  145.2560 C   0  0  0  0  0  0  0  0  0  0  0  0
  161.0160  205.7200  146.8880 C   0  0  0  0  0  2  0  0  0  0  0  0
  163.1030  204.7310  146.0020 C   0  0  0  0  0  1  0  0  0  0  0  0
  161.6160  204.5140  146.1840 C   0  0  0  0  0  3  0  0  0  0  0  0
  160.9710  204.3210  144.8250 C   0  0  0  0  0  1  0  0  0  0  0  0
  2 10  1  0  0  0  0
  3 11  1  0  0  0  0
  3 12  1  0  0  0  0
  4  1  1  6  0  0  0
  4  8  1  0  0  0  0
  5  6  1  0  0  0  0
  8  5  2  0  0  0  0
  9  7  2  0  0  0  0
  9 11  1  0  0  0  0
 10  6  2  0  0  0  0
 11  4  1  0  0  0  0
 12  2  2  0  0  0  0
 12  8  1  0  0  0  0
 14 24  1  0  0  0  0
 15 16  1  0  0  0  0
 16 20  1  0  0  0  0
 18 23  1  6  0  0  0
 18 15  1  0  0  0  0
 18 19  1  0  0  0  0
 19 21  1  0  0  0  0
 20 13  1  0  0  0  0
 20  2  1  1  0  0  0
 21 17  1  6  0  0  0
 21 13  1  0  0  0  0
 22 24  1  0  0  0  0
 24 23  1  0  0  0  0
 24 17  1  0  0  0  0
 25  9  1  0  0  0  0
 26 27  1  0  0  0  0
 27 25  1  0  0  0  0
 28 27  1  0  0  0  0
M  END
>  <MODEL>
5

>  <REMARK>
 VINA RESULT:      -7.6      3.231      6.752
  Name = 
  3 active torsions:
  status: ('A' for Active; 'I' for Inactive)
    1  A    between atoms: C_2  and  C_14
    2  A    between atoms: C_4  and  C_22
    3  A    between atoms: C_4  and  C_23
                            x       y       z     vdW  Elec       q    Type
                         _______ _______ _______ _____ _____    ______ ____

>  <TORSDO>
F 3

$$$$
=
 OpenBabel11072411153D

 28 31  0  0  1  0  0  0  0  0999 V2000
  161.9680  202.3110  148.6590 O   0  0  0  0  0  1  0  0  0  0  0  0
  160.9680  205.4720  151.7010 C   0  0  0  0  0  0  0  0  0  0  0  0
  160.9480  205.4940  149.0990 C   0  0  0  0  0  2  0  0  0  0  0  0
  160.8280  203.0640  148.9390 C   0  0  1  0  0  3  0  0  0  0  0  0
  160.8210  202.7220  151.4530 N   0  0  0  0  0  0  0  0  0  0  0  0
  160.8570  203.3070  152.6850 C   0  0  0  0  0  3  0  0  0  0  0  0
  160.6700  203.3940  146.0810 O   0  0  0  0  0  0  0  0  0  0  0  0
  160.8600  203.5090  150.3500 C   0  0  0  0  0  0  0  0  0  0  0  0
  160.7870  204.4340  146.7820 C   0  0  0  0  0  0  0  0  0  0  0  0
  160.9290  204.6670  152.8030 N   0  0  0  0  0  0  0  0  0  0  0  0
  160.8810  204.3330  148.2090 N   0  0  0  0  0  0  0  0  0  0  0  0
  160.9310  204.8720  150.4450 C   0  0  0  0  0  0  0  0  0  0  0  0
  161.1100  207.3490  153.3150 C   0  0  0  0  0  2  0  0  0  0  0  0
  160.4570  211.8270  153.9670 C   0  0  0  0  0  1  0  0  0  0  0  0
  161.9470  208.9560  150.6650 C   0  0  0  0  0  2  0  0  0  0  0  0
  162.2220  207.5060  151.0410 C   0  0  0  0  0  2  0  0  0  0  0  0
  159.8920  209.5800  153.0400 C   0  0  0  0  0  2  0  0  0  0  0  0
  162.2950  209.9570  151.7770 C   0  0  2  0  0  3  0  0  0  0  0  0
  162.3970  209.3990  153.0770 O   0  0  0  0  0  0  0  0  0  0  0  0
  161.0440  206.9580  151.8380 C   0  0  1  0  0  3  0  0  0  0  0  0
  161.1630  208.8600  153.5300 C   0  0  2  0  0  3  0  0  0  0  0  0
  158.9460  211.6300  152.0350 C   0  0  0  0  0  1  0  0  0  0  0  0
  161.3600  211.1700  151.7410 C   0  0  0  0  0  2  0  0  0  0  0  0
  160.1730  211.0410  152.7000 C   0  0  0  0  0  0  0  0  0  0  0  0
  160.8550  205.7650  146.1030 C   0  0  0  0  0  2  0  0  0  0  0  0
  161.5820  205.4530  143.7590 C   0  0  0  0  0  1  0  0  0  0  0  0
  162.0390  205.8270  145.1530 C   0  0  0  0  0  3  0  0  0  0  0  0
  163.1230  204.8630  145.5960 C   0  0  0  0  0  1  0  0  0  0  0  0
  2 10  1  0  0  0  0
  3 12  1  0  0  0  0
  4  1  1  6  0  0  0
  4  8  1  0  0  0  0
  5  6  1  0  0  0  0
  6 10  2  0  0  0  0
  7  9  2  0  0  0  0
  8 12  1  0  0  0  0
  8  5  2  0  0  0  0
  9 11  1  0  0  0  0
 11  4  1  0  0  0  0
 11  3  1  0  0  0  0
 12  2  2  0  0  0  0
 13 21  1  0  0  0  0
 15 16  1  0  0  0  0
 16 20  1  0  0  0  0
 18 15  1  6  0  0  0
 18 19  1  0  0  0  0
 19 21  1  0  0  0  0
 20  2  1  1  0  0  0
 20 13  1  0  0  0  0
 21 17  1  6  0  0  0
 22 24  1  0  0  0  0
 23 18  1  0  0  0  0
 23 24  1  0  0  0  0
 24 17  1  0  0  0  0
 24 14  1  0  0  0  0
 25  9  1  0  0  0  0
 26 27  1  0  0  0  0
 27 28  1  0  0  0  0
 27 25  1  0  0  0  0
M  END
>  <MODEL>
6

>  <REMARK>
 VINA RESULT:      -7.3      2.579      4.685
  Name = 
  3 active torsions:
  status: ('A' for Active; 'I' for Inactive)
    1  A    between atoms: C_2  and  C_14
    2  A    between atoms: C_4  and  C_22
    3  A    between atoms: C_4  and  C_23
                            x       y       z     vdW  Elec       q    Type
                         _______ _______ _______ _____ _____    ______ ____

>  <TORSDO>
F 3

$$$$
=
 OpenBabel11072411153D

 28 31  0  0  1  0  0  0  0  0999 V2000
  160.9580  207.0190  146.8860 O   0  0  0  0  0  1  0  0  0  0  0  0
  161.5270  209.5610  150.5540 C   0  0  0  0  0  0  0  0  0  0  0  0
  161.1450  207.0050  150.2520 C   0  0  0  0  0  2  0  0  0  0  0  0
  161.8840  207.0260  147.9290 C   0  0  1  0  0  3  0  0  0  0  0  0
  162.3640  209.5180  147.9190 N   0  0  0  0  0  0  0  0  0  0  0  0
  162.3610  210.6830  148.6280 C   0  0  0  0  0  3  0  0  0  0  0  0
  161.5120  204.1690  147.9240 O   0  0  0  0  0  0  0  0  0  0  0  0
  161.9490  208.3780  148.5260 C   0  0  0  0  0  0  0  0  0  0  0  0
  161.2290  204.7920  148.9820 C   0  0  0  0  0  0  0  0  0  0  0  0
  161.9470  210.7000  149.9300 N   0  0  0  0  0  0  0  0  0  0  0  0
  161.3830  206.2160  149.0420 N   0  0  0  0  0  0  0  0  0  0  0  0
  161.5320  208.3720  149.8290 C   0  0  0  0  0  0  0  0  0  0  0  0
  162.2880  209.5710  152.9140 C   0  0  0  0  0  2  0  0  0  0  0  0
  161.1280  208.7560  157.2610 C   0  0  0  0  0  1  0  0  0  0  0  0
  159.2520  210.4860  153.4070 C   0  0  0  0  0  2  0  0  0  0  0  0
  160.1700  210.7850  152.2300 C   0  0  0  0  0  2  0  0  0  0  0  0
  161.1290  208.3010  154.8060 C   0  0  0  0  0  2  0  0  0  0  0  0
  159.8980  210.7510  154.7760 C   0  0  2  0  0  3  0  0  0  0  0  0
  161.3150  210.8070  154.7690 O   0  0  0  0  0  0  0  0  0  0  0  0
  161.0780  209.5870  151.9790 C   0  0  1  0  0  3  0  0  0  0  0  0
  161.9020  209.5680  154.3910 C   0  0  2  0  0  3  0  0  0  0  0  0
  159.3770  207.3450  156.2630 C   0  0  0  0  0  1  0  0  0  0  0  0
  159.3630  209.7830  155.8360 C   0  0  0  0  0  2  0  0  0  0  0  0
  160.2570  208.5550  156.0340 C   0  0  0  0  0  0  0  0  0  0  0  0
  160.7060  204.0290  150.1570 C   0  0  0  0  0  2  0  0  0  0  0  0
  160.0510  201.7250  149.5380 C   0  0  0  0  0  1  0  0  0  0  0  0
  161.1640  202.5800  150.1070 C   0  0  0  0  0  3  0  0  0  0  0  0
  161.5070  202.0860  151.5000 C   0  0  0  0  0  1  0  0  0  0  0  0
  4  1  1  6  0  0  0
  4  8  1  0  0  0  0
  4 11  1  0  0  0  0
  5  8  2  0  0  0  0
  5  6  1  0  0  0  0
  6 10  2  0  0  0  0
  7  9  2  0  0  0  0
  8 12  1  0  0  0  0
  9 11  1  0  0  0  0
  9 25  1  0  0  0  0
 10  2  1  0  0  0  0
 11  3  1  0  0  0  0
 12  3  1  0  0  0  0
 12  2  2  0  0  0  0
 16 15  1  0  0  0  0
 17 24  1  0  0  0  0
 18 15  1  6  0  0  0
 18 23  1  0  0  0  0
 19 18  1  0  0  0  0
 20  2  1  6  0  0  0
 20 16  1  0  0  0  0
 20 13  1  0  0  0  0
 21 13  1  6  0  0  0
 21 19  1  0  0  0  0
 21 17  1  0  0  0  0
 23 24  1  0  0  0  0
 24 22  1  0  0  0  0
 24 14  1  0  0  0  0
 26 27  1  0  0  0  0
 27 25  1  0  0  0  0
 27 28  1  0  0  0  0
M  END
>  <MODEL>
7

>  <REMARK>
 VINA RESULT:      -7.1      1.030      1.712
  Name = 
  3 active torsions:
  status: ('A' for Active; 'I' for Inactive)
    1  A    between atoms: C_2  and  C_14
    2  A    between atoms: C_4  and  C_22
    3  A    between atoms: C_4  and  C_23
                            x       y       z     vdW  Elec       q    Type
                         _______ _______ _______ _____ _____    ______ ____

>  <TORSDO>
F 3

$$$$
=
 OpenBabel11072411153D

 28 31  0  0  1  0  0  0  0  0999 V2000
  162.6410  204.7120  151.5840 O   0  0  0  0  0  1  0  0  0  0  0  0
  160.5870  208.4760  152.9490 C   0  0  0  0  0  0  0  0  0  0  0  0
  160.7380  207.3240  150.6210 C   0  0  0  0  0  2  0  0  0  0  0  0
  161.3180  205.1560  151.5740 C   0  0  1  0  0  3  0  0  0  0  0  0
  161.2370  205.9890  153.9690 N   0  0  0  0  0  0  0  0  0  0  0  0
  161.0230  207.0470  154.8030 C   0  0  0  0  0  3  0  0  0  0  0  0
  161.2680  204.1120  148.8890 O   0  0  0  0  0  0  0  0  0  0  0  0
  161.1270  206.1740  152.6310 C   0  0  0  0  0  0  0  0  0  0  0  0
  161.0400  205.3420  149.0400 C   0  0  0  0  0  0  0  0  0  0  0  0
  160.7020  208.2750  154.2950 N   0  0  0  0  0  0  0  0  0  0  0  0
  161.0620  205.9210  150.3510 N   0  0  0  0  0  0  0  0  0  0  0  0
  160.8060  207.3940  152.1000 C   0  0  0  0  0  0  0  0  0  0  0  0
  159.5750  210.6750  153.4840 C   0  0  0  0  0  2  0  0  0  0  0  0
  157.6350  214.4530  151.7900 C   0  0  0  0  0  1  0  0  0  0  0  0
  161.0260  211.4920  150.7410 C   0  0  0  0  0  2  0  0  0  0  0  0
  161.4630  210.4910  151.8020 C   0  0  0  0  0  2  0  0  0  0  0  0
  158.0800  211.9990  151.8880 C   0  0  0  0  0  2  0  0  0  0  0  0
  160.6180  212.8590  151.3130 C   0  0  2  0  0  3  0  0  0  0  0  0
  160.2980  212.8590  152.6940 O   0  0  0  0  0  0  0  0  0  0  0  0
  160.2330  209.8200  152.4010 C   0  0  1  0  0  3  0  0  0  0  0  0
  159.1610  212.0570  152.9850 C   0  0  2  0  0  3  0  0  0  0  0  0
  157.1730  213.0330  149.8350 C   0  0  0  0  0  1  0  0  0  0  0  0
  159.5190  213.5070  150.4650 C   0  0  0  0  0  2  0  0  0  0  0  0
  158.1100  213.2440  151.0050 C   0  0  0  0  0  0  0  0  0  0  0  0
  160.7760  206.1860  147.8350 C   0  0  0  0  0  2  0  0  0  0  0  0
  162.6240  205.5320  146.3260 C   0  0  0  0  0  1  0  0  0  0  0  0
  161.1320  205.4360  146.5610 C   0  0  0  0  0  3  0  0  0  0  0  0
  160.4020  206.0350  145.3740 C   0  0  0  0  0  1  0  0  0  0  0  0
  2 10  1  0  0  0  0
  3 12  1  0  0  0  0
  4  1  1  6  0  0  0
  4  8  1  0  0  0  0
  5  6  1  0  0  0  0
  7  9  2  0  0  0  0
  8  5  2  0  0  0  0
  9 11  1  0  0  0  0
 10  6  2  0  0  0  0
 11  3  1  0  0  0  0
 11  4  1  0  0  0  0
 12  8  1  0  0  0  0
 12  2  2  0  0  0  0
 15 18  1  0  0  0  0
 15 16  1  0  0  0  0
 16 20  1  0  0  0  0
 18 23  1  6  0  0  0
 18 19  1  0  0  0  0
 19 21  1  0  0  0  0
 20  2  1  1  0  0  0
 20 13  1  0  0  0  0
 21 17  1  6  0  0  0
 21 13  1  0  0  0  0
 22 24  1  0  0  0  0
 23 24  1  0  0  0  0
 24 14  1  0  0  0  0
 24 17  1  0  0  0  0
 25  9  1  0  0  0  0
 26 27  1  0  0  0  0
 27 25  1  0  0  0  0
 28 27  1  0  0  0  0
M  END
>  <MODEL>
8

>  <REMARK>
 VINA RESULT:      -7.0      2.860      5.031
  Name = 
  3 active torsions:
  status: ('A' for Active; 'I' for Inactive)
    1  A    between atoms: C_2  and  C_14
    2  A    between atoms: C_4  and  C_22
    3  A    between atoms: C_4  and  C_23
                            x       y       z     vdW  Elec       q    Type
                         _______ _______ _______ _____ _____    ______ ____

>  <TORSDO>
F 3

$$$$
=
 OpenBabel11072411153D

 28 31  0  0  1  0  0  0  0  0999 V2000
  162.7540  207.6950  147.8540 O   0  0  0  0  0  1  0  0  0  0  0  0
  161.1700  207.1410  152.0290 C   0  0  0  0  0  0  0  0  0  0  0  0
  161.6570  209.2750  150.6220 C   0  0  0  0  0  2  0  0  0  0  0  0
  161.5790  208.0700  148.5050 C   0  0  1  0  0  3  0  0  0  0  0  0
  161.0830  205.8320  149.5940 N   0  0  0  0  0  0  0  0  0  0  0  0
  160.8760  205.1500  150.7570 C   0  0  0  0  0  3  0  0  0  0  0  0
  161.9800  210.6070  147.1990 O   0  0  0  0  0  0  0  0  0  0  0  0
  161.3330  207.1640  149.6490 C   0  0  0  0  0  0  0  0  0  0  0  0
  161.9550  210.5970  148.4590 C   0  0  0  0  0  0  0  0  0  0  0  0
  160.9190  205.8000  151.9580 N   0  0  0  0  0  0  0  0  0  0  0  0
  161.7690  209.3640  149.1650 N   0  0  0  0  0  0  0  0  0  0  0  0
  161.3800  207.8360  150.8400 C   0  0  0  0  0  0  0  0  0  0  0  0
  160.4520  209.1690  153.2600 C   0  0  0  0  0  2  0  0  0  0  0  0
  161.2110  211.8580  156.8790 C   0  0  0  0  0  1  0  0  0  0  0  0
  161.2780  207.3680  155.7840 C   0  0  0  0  0  2  0  0  0  0  0  0
  160.6790  206.9420  154.4510 C   0  0  0  0  0  2  0  0  0  0  0  0
  161.8970  210.4020  154.9710 C   0  0  0  0  0  2  0  0  0  0  0  0
  160.5350  208.5370  156.4480 C   0  0  2  0  0  3  0  0  0  0  0  0
  159.7200  209.3030  155.5760 O   0  0  0  0  0  0  0  0  0  0  0  0
  161.2130  207.8460  153.3450 C   0  0  1  0  0  3  0  0  0  0  0  0
  160.4770  209.9580  154.5670 C   0  0  2  0  0  3  0  0  0  0  0  0
  163.4590  210.8580  156.8310 C   0  0  0  0  0  1  0  0  0  0  0  0
  161.4960  209.4130  157.2590 C   0  0  0  0  0  2  0  0  0  0  0  0
  162.0050  210.6280  156.4770 C   0  0  0  0  0  0  0  0  0  0  0  0
  162.1490  211.8810  149.1990 C   0  0  0  0  0  2  0  0  0  0  0  0
  162.0620  214.1630  148.2480 C   0  0  0  0  0  1  0  0  0  0  0  0
  161.2320  212.9640  148.6530 C   0  0  0  0  0  3  0  0  0  0  0  0
  160.2280  213.3870  149.7080 C   0  0  0  0  0  1  0  0  0  0  0  0
  3 12  1  0  0  0  0
  4  1  1  1  0  0  0
  4 11  1  0  0  0  0
  4  8  1  0  0  0  0
  5  8  2  0  0  0  0
  5  6  1  0  0  0  0
  6 10  2  0  0  0  0
  7  9  2  0  0  0  0
  8 12  1  0  0  0  0
  9 11  1  0  0  0  0
  9 25  1  0  0  0  0
 10  2  1  0  0  0  0
 11  3  1  0  0  0  0
 12  2  2  0  0  0  0
 13 20  1  0  0  0  0
 16 15  1  0  0  0  0
 17 24  1  0  0  0  0
 18 15  1  6  0  0  0
 18 23  1  0  0  0  0
 19 18  1  0  0  0  0
 20  2  1  6  0  0  0
 20 16  1  0  0  0  0
 21 13  1  6  0  0  0
 21 17  1  0  0  0  0
 21 19  1  0  0  0  0
 24 22  1  0  0  0  0
 24 14  1  0  0  0  0
 24 23  1  0  0  0  0
 26 27  1  0  0  0  0
 27 25  1  0  0  0  0
 27 28  1  0  0  0  0
M  END
>  <MODEL>
9

>  <REMARK>
 VINA RESULT:      -6.7      1.765      5.035
  Name = 
  3 active torsions:
  status: ('A' for Active; 'I' for Inactive)
    1  A    between atoms: C_2  and  C_14
    2  A    between atoms: C_4  and  C_22
    3  A    between atoms: C_4  and  C_23
                            x       y       z     vdW  Elec       q    Type
                         _______ _______ _______ _____ _____    ______ ____

>  <TORSDO>
F 3

$$$$
