=
 OpenBabel11072414073D

 57 61  0  0  1  0  0  0  0  0999 V2000
  161.2260  213.6370  143.9440 C   0  0  0  0  0  0  0  0  0  0  0  0
  160.3750  213.6910  145.0290 C   0  0  0  0  0  0  0  0  0  0  0  0
  162.5610  213.2080  144.0340 C   0  0  0  0  0  0  0  0  0  0  0  0
  162.6550  213.4470  142.6270 C   0  0  0  0  0  0  0  0  0  0  0  0
  160.9420  213.2880  146.2600 C   0  0  0  0  0  3  0  0  0  0  0  0
  163.1480  212.7940  145.2150 C   0  0  0  0  0  3  0  0  0  0  0  0
  163.5530  214.4530  142.3190 F   0  0  0  0  0  0  0  0  0  0  0  0
  162.8820  212.2870  141.9080 F   0  0  0  0  0  0  0  0  0  0  0  0
  162.3020  212.8420  146.3550 C   0  0  0  0  0  0  0  0  0  0  0  0
  161.3140  213.8870  142.5050 N   0  0  0  0  0  0  0  0  0  0  0  0
  162.8540  212.3940  147.6690 C   0  0  1  0  0  3  0  0  0  0  0  0
  163.8640  213.2430  148.0840 F   0  0  0  0  0  0  0  0  0  0  0  0
  161.5740  212.3110  148.9130 S   0  0  0  0  0  0  0  0  0  0  0  0
  161.4090  213.6610  149.5490 O   0  0  0  0  0  0  0  0  0  0  0  0
  160.2710  211.9070  148.2780 O   0  0  0  0  0  0  0  0  0  0  0  0
  162.0260  211.1660  150.1310 N   0  0  0  0  0  2  0  0  0  0  0  0
  161.1770  211.3820  151.2910 C   0  0  2  0  0  3  0  0  0  0  0  0
  159.5500  210.9710  153.7610 O   0  0  0  0  0  0  0  0  0  0  0  0
  159.7420  210.6190  155.1000 C   0  0  1  0  0  3  0  0  0  0  0  0
  159.5450  209.8300  153.1020 O   0  0  0  0  0  0  0  0  0  0  0  0
  162.2300  210.9260  155.5350 C   0  0  1  0  0  3  0  0  0  0  0  0
  160.9920  209.8210  152.2140 P   0  0  2  0  0  4  0  0  0  0  0  0
  160.8250  211.5010  155.7040 C   0  0  0  0  0  2  0  0  0  0  0  0
  162.3540  209.6820  156.1630 O   0  0  0  0  0  1  0  0  0  0  0  0
  162.7250  210.8950  154.0860 C   0  0  0  0  0  2  0  0  0  0  0  0
  162.3880  209.5970  153.3610 C   0  0  0  0  0  2  0  0  0  0  0  0
  163.2430  205.9100  151.7960 C   0  0  0  0  0  1  0  0  0  0  0  0
  160.9610  208.4220  151.0520 C   0  0  2  0  0  3  0  0  0  0  0  0
  160.2510  207.2990  151.6420 N   0  0  0  0  0  2  0  0  0  0  0  0
  160.8800  206.1090  151.0870 C   0  0  0  0  0  2  0  0  0  0  0  0
  162.3110  206.4580  150.7350 C   0  0  1  0  0  3  0  0  0  0  0  0
  162.3710  207.9650  150.7480 C   0  0  0  0  0  2  0  0  0  0  0  0
  158.5240  211.0560  157.0950 O   0  0  0  0  0  0  0  0  0  0  0  0
  158.4700  210.7870  155.8630 C   0  0  0  0  0  0  0  0  0  0  0  0
  156.3440  211.6360  155.1890 C   0  0  0  0  0  2  0  0  0  0  0  0
  157.2110  210.6770  155.1910 N   0  0  0  0  0  0  0  0  0  0  0  0
  159.5880  213.1650  151.9290 S   0  0  0  0  0  1  0  0  0  0  0  0
  159.9280  211.8480  150.8810 O   0  0  0  0  0  0  0  0  0  0  0  0
  158.2840  214.4530  146.5780 S   0  0  0  0  0  1  0  0  0  0  0  0
  158.9720  214.1750  144.9200 C   0  0  0  0  0  2  0  0  0  0  0  0
  160.3970  214.2830  141.4480 C   0  0  0  0  0  2  0  0  0  0  0  0
  159.8710  212.1880  140.1820 O   0  0  0  0  0  0  0  0  0  0  0  0
  159.7420  211.4850  139.0320 O   0  0  0  0  0  0  0  0  0  0  0  0
  161.5670  212.8090  138.0960 C   0  0  0  0  0  2  0  0  0  0  0  0
  161.0030  211.4150  138.3940 C   0  0  1  0  0  3  0  0  0  0  0  0
  160.5570  213.4090  140.2470 C   0  0  0  0  0  0  0  0  0  0  0  0
  161.4090  213.7230  139.2740 C   0  0  0  0  0  3  0  0  0  0  0  0
  161.9750  210.5170  139.1130 C   0  0  0  0  0  0  0  0  0  0  0  0
  162.6750  210.9810  140.0530 O   0  0  0  0  0  0  0  0  0  0  0  0
  161.6870  207.2420  137.4970 O   0  0  0  0  0  0  0  0  0  0  0  0
  161.3680  208.4280  137.7750 C   0  0  0  0  0  0  0  0  0  0  0  0
  162.1500  209.1490  138.7340 N   0  0  0  0  0  2  0  0  0  0  0  0
  160.2520  209.0180  137.1730 O   0  0  0  0  0  0  0  0  0  0  0  0
  158.9610  208.4190  137.1900 C   0  0  0  0  0  2  0  0  0  0  0  0
  157.8720  209.4700  137.0110 C   0  0  0  0  0  2  0  0  0  0  0  0
  156.4880  208.8640  137.1720 C   0  0  0  0  0  2  0  0  0  0  0  0
  155.2150  210.1610  137.2290 S   0  0  0  0  0  1  0  0  0  0  0  0
  1  3  2  0  0  0  0
  1  2  1  0  0  0  0
  2  5  2  0  0  0  0
  3  6  1  0  0  0  0
  4  3  1  0  0  0  0
  5  9  1  0  0  0  0
  6  9  2  0  0  0  0
  7  4  1  0  0  0  0
  8  4  1  0  0  0  0
  9 11  1  0  0  0  0
 10  4  1  0  0  0  0
 10  1  1  0  0  0  0
 11 12  1  1  0  0  0
 11 13  1  0  0  0  0
 13 14  2  0  0  0  0
 13 16  1  0  0  0  0
 15 13  2  0  0  0  0
 17 16  1  6  0  0  0
 18 19  1  0  0  0  0
 19 23  1  0  0  0  0
 19 34  1  1  0  0  0
 20 18  1  0  0  0  0
 21 23  1  0  0  0  0
 21 24  1  6  0  0  0
 22 17  1  6  0  0  0
 22 20  1  0  0  0  0
 22 26  1  0  0  0  0
 25 21  1  0  0  0  0
 26 25  1  0  0  0  0
 28 32  1  1  0  0  0
 28 29  1  0  0  0  0
 28 22  1  0  0  0  0
 30 29  1  0  0  0  0
 31 32  1  0  0  0  0
 31 30  1  0  0  0  0
 31 27  1  1  0  0  0
 34 33  2  0  0  0  0
 35 36  2  0  0  0  0
 36 34  1  0  0  0  0
 38 17  1  0  0  0  0
 38 37  1  0  0  0  0
 40  2  1  0  0  0  0
 40 39  1  0  0  0  0
 41 10  1  0  0  0  0
 42 46  1  0  0  0  0
 43 42  1  0  0  0  0
 44 45  1  0  0  0  0
 44 47  1  0  0  0  0
 45 43  1  0  0  0  0
 45 48  1  1  0  0  0
 46 41  1  0  0  0  0
 47 46  2  0  0  0  0
 48 49  2  0  0  0  0
 50 51  2  0  0  0  0
 51 52  1  0  0  0  0
 52 48  1  0  0  0  0
 53 54  1  0  0  0  0
 53 51  1  0  0  0  0
 55 56  1  0  0  0  0
 55 54  1  0  0  0  0
 56 57  1  0  0  0  0
M  END
>  <MODEL>
1

>  <REMARK>
 VINA RESULT:      -3.1      0.000      0.000
  Name = 
  17 active torsions:
  status: ('A' for Active; 'I' for Inactive)
    1  A    between atoms: C_3  and  C_41
    2  A    between atoms: C_5  and  P_22
    3  A    between atoms: C_6  and  C_24
    4  A    between atoms: C_8  and  C_32
    5  A    between atoms: C_10  and  C_54
    6  A    between atoms: O_17  and  C_49
    7  A    between atoms: O_17  and  C_53
    8  A    between atoms: O_19  and  C_30
    9  A    between atoms: C_20  and  C_40
   10  A    between atoms: C_20  and  S_45
   11  A    between atoms: P_22  and  C_30
   12  A    between atoms: N_25  and  C_30
   13  A    between atoms: N_25  and  S_45
   14  A    between atoms: N_29  and  C_41
   15  A    between atoms: C_32  and  C_53
   16  A    between atoms: C_37  and  C_44
   17  A    between atoms: C_37  and  N_50
                            x       y       z     vdW  Elec       q    Type
                         _______ _______ _______ _____ _____    ______ ____

>  <TORSDO>
F 17

$$$$
=
 OpenBabel11072414073D

 57 61  0  0  1  0  0  0  0  0999 V2000
  160.9300  213.7880  144.3980 C   0  0  0  0  0  0  0  0  0  0  0  0
  159.9280  213.9150  145.3380 C   0  0  0  0  0  0  0  0  0  0  0  0
  162.2160  213.3130  144.7030 C   0  0  0  0  0  0  0  0  0  0  0  0
  162.5310  213.4940  143.3200 C   0  0  0  0  0  0  0  0  0  0  0  0
  160.2860  213.5400  146.6540 C   0  0  0  0  0  3  0  0  0  0  0  0
  162.6010  212.9240  145.9720 C   0  0  0  0  0  3  0  0  0  0  0  0
  163.5070  214.4530  143.1190 F   0  0  0  0  0  0  0  0  0  0  0  0
  162.8140  212.3000  142.6820 F   0  0  0  0  0  0  0  0  0  0  0  0
  161.5960  213.0480  146.9680 C   0  0  0  0  0  0  0  0  0  0  0  0
  161.2440  213.9790  142.9810 N   0  0  0  0  0  0  0  0  0  0  0  0
  161.9240  212.6300  148.3650 C   0  0  1  0  0  3  0  0  0  0  0  0
  163.0720  213.2670  148.8030 F   0  0  0  0  0  0  0  0  0  0  0  0
  160.5700  212.9750  149.4780 S   0  0  0  0  0  0  0  0  0  0  0  0
  160.5940  214.4290  149.8560 O   0  0  0  0  0  0  0  0  0  0  0  0
  159.2620  212.6680  148.8000 O   0  0  0  0  0  0  0  0  0  0  0  0
  160.7410  212.0170  150.9100 N   0  0  0  0  0  2  0  0  0  0  0  0
  159.7670  212.4830  151.8840 C   0  0  2  0  0  3  0  0  0  0  0  0
  157.5100  211.5850  153.6210 O   0  0  0  0  0  0  0  0  0  0  0  0
  157.0530  211.7690  154.9290 C   0  0  1  0  0  3  0  0  0  0  0  0
  158.4540  210.6700  153.7120 O   0  0  0  0  0  0  0  0  0  0  0  0
  158.2760  213.8250  155.7960 C   0  0  1  0  0  3  0  0  0  0  0  0
  159.9060  211.4950  153.4100 P   0  0  2  0  0  4  0  0  0  0  0  0
  156.9740  213.2590  155.2320 C   0  0  0  0  0  2  0  0  0  0  0  0
  158.6250  213.2070  157.0010 O   0  0  0  0  0  1  0  0  0  0  0  0
  159.4360  213.8430  154.7970 C   0  0  0  0  0  2  0  0  0  0  0  0
  160.2800  212.5740  154.8280 C   0  0  0  0  0  2  0  0  0  0  0  0
  160.3570  207.0440  154.1290 C   0  0  0  0  0  1  0  0  0  0  0  0
  161.2480  210.2800  153.2320 C   0  0  2  0  0  3  0  0  0  0  0  0
  161.0510  209.4930  152.0250 N   0  0  0  0  0  2  0  0  0  0  0  0
  161.6100  208.1820  152.3230 C   0  0  0  0  0  2  0  0  0  0  0  0
  161.5200  207.9640  153.8190 C   0  0  1  0  0  3  0  0  0  0  0  0
  161.2470  209.3270  154.4070 C   0  0  0  0  0  2  0  0  0  0  0  0
  154.8910  211.1840  154.1300 O   0  0  0  0  0  0  0  0  0  0  0  0
  155.7060  211.1490  155.0940 C   0  0  0  0  0  0  0  0  0  0  0  0
  154.1330  210.2960  156.6730 C   0  0  0  0  0  2  0  0  0  0  0  0
  155.3600  210.4970  156.3210 N   0  0  0  0  0  0  0  0  0  0  0  0
  157.7680  213.9110  151.6120 S   0  0  0  0  0  1  0  0  0  0  0  0
  158.4810  212.3700  151.3550 O   0  0  0  0  0  0  0  0  0  0  0  0
  157.4440  214.1750  146.3920 S   0  0  0  0  0  1  0  0  0  0  0  0
  158.5800  214.4470  145.0020 C   0  0  0  0  0  2  0  0  0  0  0  0
  160.5140  214.3670  141.7840 C   0  0  0  0  0  2  0  0  0  0  0  0
  160.0780  212.1260  140.7590 O   0  0  0  0  0  0  0  0  0  0  0  0
  159.9840  211.2950  139.6940 O   0  0  0  0  0  0  0  0  0  0  0  0
  161.7630  212.5770  138.6210 C   0  0  0  0  0  2  0  0  0  0  0  0
  161.2510  211.2030  139.0700 C   0  0  1  0  0  3  0  0  0  0  0  0
  160.7160  213.3720  140.6890 C   0  0  0  0  0  0  0  0  0  0  0  0
  161.5620  213.6090  139.6890 C   0  0  0  0  0  3  0  0  0  0  0  0
  162.2530  210.4310  139.8880 C   0  0  0  0  0  0  0  0  0  0  0  0
  163.1460  211.0480  140.5280 O   0  0  0  0  0  0  0  0  0  0  0  0
  161.3980  206.8980  139.4260 O   0  0  0  0  0  0  0  0  0  0  0  0
  161.2380  208.1460  139.3640 C   0  0  0  0  0  0  0  0  0  0  0  0
  162.2380  209.0000  139.9310 N   0  0  0  0  0  2  0  0  0  0  0  0
  160.0900  208.6820  138.7730 O   0  0  0  0  0  0  0  0  0  0  0  0
  159.8850  208.6980  137.3640 C   0  0  0  0  0  2  0  0  0  0  0  0
  158.5360  209.3190  137.0190 C   0  0  0  0  0  2  0  0  0  0  0  0
  157.5960  209.2940  138.2120 C   0  0  0  0  0  2  0  0  0  0  0  0
  155.8630  209.3950  137.6740 S   0  0  0  0  0  1  0  0  0  0  0  0
  1  3  2  0  0  0  0
  1  2  1  0  0  0  0
  2  5  2  0  0  0  0
  3  6  1  0  0  0  0
  4  3  1  0  0  0  0
  5  9  1  0  0  0  0
  6  9  2  0  0  0  0
  7  4  1  0  0  0  0
  8  4  1  0  0  0  0
  9 11  1  0  0  0  0
 10  4  1  0  0  0  0
 10  1  1  0  0  0  0
 11 12  1  1  0  0  0
 11 13  1  0  0  0  0
 13 14  2  0  0  0  0
 13 16  1  0  0  0  0
 15 13  2  0  0  0  0
 17 16  1  6  0  0  0
 18 20  1  0  0  0  0
 18 19  1  0  0  0  0
 19 34  1  6  0  0  0
 19 23  1  0  0  0  0
 21 24  1  1  0  0  0
 22 17  1  6  0  0  0
 22 20  1  0  0  0  0
 22 26  1  0  0  0  0
 23 21  1  0  0  0  0
 25 26  1  0  0  0  0
 25 21  1  0  0  0  0
 28 22  1  0  0  0  0
 28 32  1  1  0  0  0
 29 30  1  0  0  0  0
 29 28  1  0  0  0  0
 30 31  1  0  0  0  0
 31 27  1  6  0  0  0
 31 32  1  0  0  0  0
 33 34  2  0  0  0  0
 34 36  1  0  0  0  0
 36 35  2  0  0  0  0
 38 37  1  0  0  0  0
 38 17  1  0  0  0  0
 40  2  1  0  0  0  0
 40 39  1  0  0  0  0
 41 10  1  0  0  0  0
 43 42  1  0  0  0  0
 44 45  1  0  0  0  0
 44 47  1  0  0  0  0
 45 43  1  0  0  0  0
 45 48  1  1  0  0  0
 46 42  1  0  0  0  0
 46 41  1  0  0  0  0
 47 46  2  0  0  0  0
 48 52  1  0  0  0  0
 48 49  2  0  0  0  0
 51 50  2  0  0  0  0
 51 52  1  0  0  0  0
 53 51  1  0  0  0  0
 54 53  1  0  0  0  0
 55 54  1  0  0  0  0
 55 56  1  0  0  0  0
 57 56  1  0  0  0  0
M  END
>  <MODEL>
2

>  <REMARK>
 VINA RESULT:      -2.9      1.601      2.218
  Name = 
  17 active torsions:
  status: ('A' for Active; 'I' for Inactive)
    1  A    between atoms: C_3  and  C_41
    2  A    between atoms: C_5  and  P_22
    3  A    between atoms: C_6  and  C_24
    4  A    between atoms: C_8  and  C_32
    5  A    between atoms: C_10  and  C_54
    6  A    between atoms: O_17  and  C_49
    7  A    between atoms: O_17  and  C_53
    8  A    between atoms: O_19  and  C_30
    9  A    between atoms: C_20  and  C_40
   10  A    between atoms: C_20  and  S_45
   11  A    between atoms: P_22  and  C_30
   12  A    between atoms: N_25  and  C_30
   13  A    between atoms: N_25  and  S_45
   14  A    between atoms: N_29  and  C_41
   15  A    between atoms: C_32  and  C_53
   16  A    between atoms: C_37  and  C_44
   17  A    between atoms: C_37  and  N_50
                            x       y       z     vdW  Elec       q    Type
                         _______ _______ _______ _____ _____    ______ ____

>  <TORSDO>
F 17

$$$$
=
 OpenBabel11072414073D

 57 61  0  0  1  0  0  0  0  0999 V2000
  161.0980  213.8140  145.0160 C   0  0  0  0  0  0  0  0  0  0  0  0
  162.2850  213.9820  145.6990 C   0  0  0  0  0  0  0  0  0  0  0  0
  159.9110  213.3820  145.6320 C   0  0  0  0  0  0  0  0  0  0  0  0
  159.2940  213.4870  144.3460 C   0  0  0  0  0  0  0  0  0  0  0  0
  162.2340  213.6780  147.0790 C   0  0  0  0  0  3  0  0  0  0  0  0
  159.8170  213.0880  146.9790 C   0  0  0  0  0  3  0  0  0  0  0  0
  158.8650  212.2640  143.8620 F   0  0  0  0  0  0  0  0  0  0  0  0
  158.3040  214.4520  144.3120 F   0  0  0  0  0  0  0  0  0  0  0  0
  161.0230  213.2440  147.7130 C   0  0  0  0  0  0  0  0  0  0  0  0
  160.4750  213.9210  143.6960 N   0  0  0  0  0  0  0  0  0  0  0  0
  161.0040  212.9650  149.1810 C   0  0  1  0  0  3  0  0  0  0  0  0
  159.7460  213.2110  149.7020 F   0  0  0  0  0  0  0  0  0  0  0  0
  161.4920  211.2820  149.5260 S   0  0  0  0  0  0  0  0  0  0  0  0
  161.2610  210.4360  148.3060 O   0  0  0  0  0  0  0  0  0  0  0  0
  162.9530  211.2380  149.8820 O   0  0  0  0  0  0  0  0  0  0  0  0
  160.5390  210.6610  150.8310 N   0  0  0  0  0  2  0  0  0  0  0  0
  161.3880  210.5730  152.0090 C   0  0  2  0  0  3  0  0  0  0  0  0
  158.9660  210.9350  153.7160 O   0  0  0  0  0  0  0  0  0  0  0  0
  158.6330  210.9830  155.0730 C   0  0  1  0  0  3  0  0  0  0  0  0
  159.0450  209.6520  153.4260 O   0  0  0  0  0  0  0  0  0  0  0  0
  160.8320  211.3480  156.3000 C   0  0  1  0  0  3  0  0  0  0  0  0
  160.6970  209.3530  153.1730 P   0  0  2  0  0  4  0  0  0  0  0  0
  159.5420  211.9790  155.7800 C   0  0  0  0  0  2  0  0  0  0  0  0
  160.5700  210.3390  157.2320 O   0  0  0  0  0  1  0  0  0  0  0  0
  161.7920  210.8860  155.2000 C   0  0  0  0  0  2  0  0  0  0  0  0
  161.5660  209.4410  154.7700 C   0  0  0  0  0  2  0  0  0  0  0  0
  162.4120  207.5860  149.3690 C   0  0  0  0  0  1  0  0  0  0  0  0
  160.8940  207.6770  152.4930 C   0  0  2  0  0  3  0  0  0  0  0  0
  162.2710  207.2350  152.6490 N   0  0  0  0  0  2  0  0  0  0  0  0
  162.5270  206.3590  151.5150 C   0  0  0  0  0  2  0  0  0  0  0  0
  161.6180  206.7850  150.3800 C   0  0  1  0  0  3  0  0  0  0  0  0
  160.5760  207.6740  151.0130 C   0  0  0  0  0  2  0  0  0  0  0  0
  156.3200  210.5040  155.3420 O   0  0  0  0  0  0  0  0  0  0  0  0
  157.2090  211.3950  155.2380 C   0  0  0  0  0  0  0  0  0  0  0  0
  155.6460  213.1850  155.4530 C   0  0  0  0  0  2  0  0  0  0  0  0
  156.8660  212.7830  155.3090 N   0  0  0  0  0  0  0  0  0  0  0  0
  160.0020  212.6090  152.2180 S   0  0  0  0  0  1  0  0  0  0  0  0
  161.4760  211.8240  152.6200 O   0  0  0  0  0  0  0  0  0  0  0  0
  163.3730  214.2220  143.2270 S   0  0  0  0  0  1  0  0  0  0  0  0
  163.5400  214.4130  145.0250 C   0  0  0  0  0  2  0  0  0  0  0  0
  160.8780  214.3830  142.3770 C   0  0  0  0  0  2  0  0  0  0  0  0
  160.1570  212.0900  141.6780 O   0  0  0  0  0  0  0  0  0  0  0  0
  159.5160  211.2400  140.8400 O   0  0  0  0  0  0  0  0  0  0  0  0
  160.0840  212.7360  138.9960 C   0  0  0  0  0  2  0  0  0  0  0  0
  160.1220  211.3120  139.5630 C   0  0  1  0  0  3  0  0  0  0  0  0
  160.4660  213.4100  141.3220 C   0  0  0  0  0  0  0  0  0  0  0  0
  160.4740  213.7460  140.0330 C   0  0  0  0  0  3  0  0  0  0  0  0
  161.4940  210.6920  139.5300 C   0  0  0  0  0  0  0  0  0  0  0  0
  162.4390  211.2310  140.1650 O   0  0  0  0  0  0  0  0  0  0  0  0
  161.1960  207.7370  137.3830 O   0  0  0  0  0  0  0  0  0  0  0  0
  160.7970  208.7100  138.0770 C   0  0  0  0  0  0  0  0  0  0  0  0
  161.7630  209.5140  138.7620 N   0  0  0  0  0  2  0  0  0  0  0  0
  159.4300  208.9810  138.1920 O   0  0  0  0  0  0  0  0  0  0  0  0
  158.5010  208.7100  137.1470 C   0  0  0  0  0  2  0  0  0  0  0  0
  157.2770  209.6130  137.2610 C   0  0  0  0  0  2  0  0  0  0  0  0
  156.4800  209.3060  138.5170 C   0  0  0  0  0  2  0  0  0  0  0  0
  154.7190  209.6860  138.2760 S   0  0  0  0  0  1  0  0  0  0  0  0
  1  3  2  0  0  0  0
  1  2  1  0  0  0  0
  2  5  2  0  0  0  0
  3  6  1  0  0  0  0
  4  3  1  0  0  0  0
  5  9  1  0  0  0  0
  6  9  2  0  0  0  0
  7  4  1  0  0  0  0
  8  4  1  0  0  0  0
  9 11  1  0  0  0  0
 10  4  1  0  0  0  0
 10  1  1  0  0  0  0
 11 13  1  0  0  0  0
 11 12  1  6  0  0  0
 13 15  2  0  0  0  0
 13 16  1  0  0  0  0
 14 13  2  0  0  0  0
 17 16  1  6  0  0  0
 17 38  1  0  0  0  0
 18 19  1  0  0  0  0
 19 34  1  6  0  0  0
 19 23  1  0  0  0  0
 20 18  1  0  0  0  0
 21 24  1  6  0  0  0
 22 17  1  6  0  0  0
 22 20  1  0  0  0  0
 22 26  1  0  0  0  0
 23 21  1  0  0  0  0
 25 21  1  0  0  0  0
 26 25  1  0  0  0  0
 28 32  1  6  0  0  0
 28 29  1  0  0  0  0
 28 22  1  0  0  0  0
 30 29  1  0  0  0  0
 31 27  1  6  0  0  0
 31 32  1  0  0  0  0
 31 30  1  0  0  0  0
 34 36  1  0  0  0  0
 34 33  2  0  0  0  0
 36 35  2  0  0  0  0
 37 38  1  0  0  0  0
 39 40  1  0  0  0  0
 40  2  1  0  0  0  0
 41 10  1  0  0  0  0
 43 42  1  0  0  0  0
 44 45  1  0  0  0  0
 44 47  1  0  0  0  0
 45 48  1  1  0  0  0
 45 43  1  0  0  0  0
 46 42  1  0  0  0  0
 46 41  1  0  0  0  0
 47 46  2  0  0  0  0
 48 49  2  0  0  0  0
 50 51  2  0  0  0  0
 51 53  1  0  0  0  0
 51 52  1  0  0  0  0
 52 48  1  0  0  0  0
 54 55  1  0  0  0  0
 54 53  1  0  0  0  0
 55 56  1  0  0  0  0
 57 56  1  0  0  0  0
M  END
>  <MODEL>
3

>  <REMARK>
 VINA RESULT:      -1.5      1.921      2.340
  Name = 
  17 active torsions:
  status: ('A' for Active; 'I' for Inactive)
    1  A    between atoms: C_3  and  C_41
    2  A    between atoms: C_5  and  P_22
    3  A    between atoms: C_6  and  C_24
    4  A    between atoms: C_8  and  C_32
    5  A    between atoms: C_10  and  C_54
    6  A    between atoms: O_17  and  C_49
    7  A    between atoms: O_17  and  C_53
    8  A    between atoms: O_19  and  C_30
    9  A    between atoms: C_20  and  C_40
   10  A    between atoms: C_20  and  S_45
   11  A    between atoms: P_22  and  C_30
   12  A    between atoms: N_25  and  C_30
   13  A    between atoms: N_25  and  S_45
   14  A    between atoms: N_29  and  C_41
   15  A    between atoms: C_32  and  C_53
   16  A    between atoms: C_37  and  C_44
   17  A    between atoms: C_37  and  N_50
                            x       y       z     vdW  Elec       q    Type
                         _______ _______ _______ _____ _____    ______ ____

>  <TORSDO>
F 17

$$$$
=
 OpenBabel11072414073D

 57 61  0  0  1  0  0  0  0  0999 V2000
  160.8330  213.6950  145.7150 C   0  0  0  0  0  0  0  0  0  0  0  0
  162.1150  213.8710  146.1940 C   0  0  0  0  0  0  0  0  0  0  0  0
  159.7900  213.1570  146.4880 C   0  0  0  0  0  0  0  0  0  0  0  0
  158.9520  213.3290  145.3420 C   0  0  0  0  0  0  0  0  0  0  0  0
  162.3200  213.4600  147.5310 C   0  0  0  0  0  3  0  0  0  0  0  0
  159.9460  212.7570  147.8010 C   0  0  0  0  0  3  0  0  0  0  0  0
  158.4900  212.1260  144.8380 F   0  0  0  0  0  0  0  0  0  0  0  0
  157.9370  214.2420  145.5620 F   0  0  0  0  0  0  0  0  0  0  0  0
  161.2560  212.9180  148.3260 C   0  0  0  0  0  0  0  0  0  0  0  0
  159.9830  213.8720  144.5370 N   0  0  0  0  0  0  0  0  0  0  0  0
  161.5070  212.5270  149.7460 C   0  0  1  0  0  3  0  0  0  0  0  0
  160.3800  212.7550  150.5160 F   0  0  0  0  0  0  0  0  0  0  0  0
  161.9950  210.8130  149.8690 S   0  0  0  0  0  0  0  0  0  0  0  0
  161.8210  210.1480  148.5330 O   0  0  0  0  0  0  0  0  0  0  0  0
  163.4410  210.7220  150.2760 O   0  0  0  0  0  0  0  0  0  0  0  0
  160.9950  210.0090  151.0320 N   0  0  0  0  0  2  0  0  0  0  0  0
  161.7980  209.7510  152.2160 C   0  0  2  0  0  3  0  0  0  0  0  0
  159.2740  210.6940  153.5040 O   0  0  0  0  0  0  0  0  0  0  0  0
  158.7990  211.0070  154.7810 C   0  0  1  0  0  3  0  0  0  0  0  0
  159.1970  209.3810  153.4200 O   0  0  0  0  0  0  0  0  0  0  0  0
  160.8710  211.2860  156.2300 C   0  0  1  0  0  3  0  0  0  0  0  0
  160.8040  208.8370  153.4420 P   0  0  2  0  0  4  0  0  0  0  0  0
  159.7560  211.9810  155.4520 C   0  0  0  0  0  2  0  0  0  0  0  0
  160.3580  210.4850  157.2560 O   0  0  0  0  0  1  0  0  0  0  0  0
  161.8720  210.5300  155.3520 C   0  0  0  0  0  2  0  0  0  0  0  0
  161.4880  209.0750  155.1120 C   0  0  0  0  0  2  0  0  0  0  0  0
  162.3490  206.3030  150.0170 C   0  0  0  0  0  1  0  0  0  0  0  0
  160.8300  207.0610  153.0480 C   0  0  2  0  0  3  0  0  0  0  0  0
  162.1520  206.5120  153.3060 N   0  0  0  0  0  2  0  0  0  0  0  0
  162.3220  205.4400  152.3360 C   0  0  0  0  0  2  0  0  0  0  0  0
  161.4700  205.7650  151.1270 C   0  0  1  0  0  3  0  0  0  0  0  0
  160.5230  206.8470  151.5820 C   0  0  0  0  0  2  0  0  0  0  0  0
  156.5260  211.2030  155.4530 O   0  0  0  0  0  0  0  0  0  0  0  0
  157.4410  211.6180  154.6870 C   0  0  0  0  0  0  0  0  0  0  0  0
  156.0990  213.3680  153.7760 C   0  0  0  0  0  2  0  0  0  0  0  0
  157.1950  212.6820  153.7620 N   0  0  0  0  0  0  0  0  0  0  0  0
  163.8890  210.6840  153.1470 S   0  0  0  0  0  1  0  0  0  0  0  0
  162.2380  210.9580  152.7590 O   0  0  0  0  0  0  0  0  0  0  0  0
  163.3410  213.4650  143.8100 S   0  0  0  0  0  1  0  0  0  0  0  0
  163.2140  214.4160  145.3510 C   0  0  0  0  0  2  0  0  0  0  0  0
  160.1290  214.4530  143.2120 C   0  0  0  0  0  2  0  0  0  0  0  0
  160.8230  212.4590  141.8680 O   0  0  0  0  0  0  0  0  0  0  0  0
  160.5460  211.3550  141.1330 O   0  0  0  0  0  0  0  0  0  0  0  0
  158.5350  212.4790  140.3240 C   0  0  0  0  0  2  0  0  0  0  0  0
  159.8340  211.7430  139.9730 C   0  0  1  0  0  3  0  0  0  0  0  0
  159.8600  213.4380  142.1500 C   0  0  0  0  0  0  0  0  0  0  0  0
  158.7610  213.4970  141.4010 C   0  0  0  0  0  3  0  0  0  0  0  0
  160.6910  212.4820  138.9790 C   0  0  0  0  0  0  0  0  0  0  0  0
  160.6870  213.7420  138.9660 O   0  0  0  0  0  0  0  0  0  0  0  0
  162.3840  209.8960  137.0110 O   0  0  0  0  0  0  0  0  0  0  0  0
  161.7050  210.3710  137.9600 C   0  0  0  0  0  0  0  0  0  0  0  0
  161.4910  211.7850  138.0180 N   0  0  0  0  0  2  0  0  0  0  0  0
  161.1910  209.5280  138.9510 O   0  0  0  0  0  0  0  0  0  0  0  0
  161.9740  209.0590  140.0440 C   0  0  0  0  0  2  0  0  0  0  0  0
  161.7330  207.5730  140.2860 C   0  0  0  0  0  2  0  0  0  0  0  0
  163.0310  206.7860  140.2210 C   0  0  0  0  0  2  0  0  0  0  0  0
  162.9170  205.4500  138.9940 S   0  0  0  0  0  1  0  0  0  0  0  0
  1  2  2  0  0  0  0
  1  3  1  0  0  0  0
  2  5  1  0  0  0  0
  3  6  2  0  0  0  0
  4  8  1  0  0  0  0
  4  3  1  0  0  0  0
  5  9  2  0  0  0  0
  6  9  1  0  0  0  0
  7  4  1  0  0  0  0
  9 11  1  0  0  0  0
 10  4  1  0  0  0  0
 10  1  1  0  0  0  0
 11 13  1  0  0  0  0
 11 12  1  1  0  0  0
 13 15  2  0  0  0  0
 13 16  1  0  0  0  0
 14 13  2  0  0  0  0
 17 16  1  6  0  0  0
 17 38  1  0  0  0  0
 18 19  1  0  0  0  0
 19 34  1  6  0  0  0
 19 23  1  0  0  0  0
 20 22  1  0  0  0  0
 20 18  1  0  0  0  0
 21 24  1  1  0  0  0
 22 17  1  6  0  0  0
 22 26  1  0  0  0  0
 23 21  1  0  0  0  0
 25 21  1  0  0  0  0
 26 25  1  0  0  0  0
 28 32  1  6  0  0  0
 28 29  1  0  0  0  0
 28 22  1  0  0  0  0
 30 29  1  0  0  0  0
 31 27  1  6  0  0  0
 31 32  1  0  0  0  0
 31 30  1  0  0  0  0
 34 33  2  0  0  0  0
 36 35  2  0  0  0  0
 36 34  1  0  0  0  0
 38 37  1  0  0  0  0
 39 40  1  0  0  0  0
 40  2  1  0  0  0  0
 41 10  1  0  0  0  0
 42 46  1  0  0  0  0
 43 42  1  0  0  0  0
 44 47  1  0  0  0  0
 45 48  1  6  0  0  0
 45 44  1  0  0  0  0
 45 43  1  0  0  0  0
 46 41  1  0  0  0  0
 47 46  2  0  0  0  0
 49 48  2  0  0  0  0
 50 51  2  0  0  0  0
 51 52  1  0  0  0  0
 51 53  1  0  0  0  0
 52 48  1  0  0  0  0
 53 54  1  0  0  0  0
 54 55  1  0  0  0  0
 56 55  1  0  0  0  0
 57 56  1  0  0  0  0
M  END
>  <MODEL>
4

>  <REMARK>
 VINA RESULT:      -1.1      2.742      3.378
  Name = 
  17 active torsions:
  status: ('A' for Active; 'I' for Inactive)
    1  A    between atoms: C_3  and  C_41
    2  A    between atoms: C_5  and  P_22
    3  A    between atoms: C_6  and  C_24
    4  A    between atoms: C_8  and  C_32
    5  A    between atoms: C_10  and  C_54
    6  A    between atoms: O_17  and  C_49
    7  A    between atoms: O_17  and  C_53
    8  A    between atoms: O_19  and  C_30
    9  A    between atoms: C_20  and  C_40
   10  A    between atoms: C_20  and  S_45
   11  A    between atoms: P_22  and  C_30
   12  A    between atoms: N_25  and  C_30
   13  A    between atoms: N_25  and  S_45
   14  A    between atoms: N_29  and  C_41
   15  A    between atoms: C_32  and  C_53
   16  A    between atoms: C_37  and  C_44
   17  A    between atoms: C_37  and  N_50
                            x       y       z     vdW  Elec       q    Type
                         _______ _______ _______ _____ _____    ______ ____

>  <TORSDO>
F 17

$$$$
=
 OpenBabel11072414073D

 57 61  0  0  1  0  0  0  0  0999 V2000
  160.9370  213.7710  144.9430 C   0  0  0  0  0  0  0  0  0  0  0  0
  160.0680  213.8770  146.0100 C   0  0  0  0  0  0  0  0  0  0  0  0
  162.2430  213.2690  145.0610 C   0  0  0  0  0  0  0  0  0  0  0  0
  162.3780  213.4960  143.6550 C   0  0  0  0  0  0  0  0  0  0  0  0
  160.5880  213.4480  147.2540 C   0  0  0  0  0  3  0  0  0  0  0  0
  162.7830  212.8280  146.2540 C   0  0  0  0  0  3  0  0  0  0  0  0
  163.3370  214.4490  143.3620 F   0  0  0  0  0  0  0  0  0  0  0  0
  162.5550  212.3230  142.9450 F   0  0  0  0  0  0  0  0  0  0  0  0
  161.9190  212.9270  147.3770 C   0  0  0  0  0  0  0  0  0  0  0  0
  161.0670  214.0100  143.5050 N   0  0  0  0  0  0  0  0  0  0  0  0
  162.4180  212.4540  148.7030 C   0  0  1  0  0  3  0  0  0  0  0  0
  163.1270  213.4580  149.3390 F   0  0  0  0  0  0  0  0  0  0  0  0
  161.0720  211.9030  149.7410 S   0  0  0  0  0  0  0  0  0  0  0  0
  159.9950  212.9490  149.7580 O   0  0  0  0  0  0  0  0  0  0  0  0
  160.5010  210.6210  149.1990 O   0  0  0  0  0  0  0  0  0  0  0  0
  161.6500  211.6640  151.3560 N   0  0  0  0  0  2  0  0  0  0  0  0
  160.6720  212.2270  152.2740 C   0  0  2  0  0  3  0  0  0  0  0  0
  157.9560  211.7680  153.4240 O   0  0  0  0  0  0  0  0  0  0  0  0
  157.3110  211.8450  154.6620 C   0  0  1  0  0  3  0  0  0  0  0  0
  158.5780  210.6070  153.4310 O   0  0  0  0  0  0  0  0  0  0  0  0
  158.8440  213.2350  156.1420 C   0  0  1  0  0  3  0  0  0  0  0  0
  160.2300  210.9870  153.5340 P   0  0  2  0  0  4  0  0  0  0  0  0
  157.5790  213.2070  155.2870 C   0  0  0  0  0  2  0  0  0  0  0  0
  158.7630  212.3330  157.2080 O   0  0  0  0  0  1  0  0  0  0  0  0
  160.1430  213.0760  155.3470 C   0  0  0  0  0  2  0  0  0  0  0  0
  160.5870  211.6250  155.2010 C   0  0  0  0  0  2  0  0  0  0  0  0
  160.2670  206.8160  155.3070 C   0  0  0  0  0  1  0  0  0  0  0  0
  161.2000  209.4710  153.2690 C   0  0  2  0  0  3  0  0  0  0  0  0
  160.4330  208.5190  152.4820 N   0  0  0  0  0  2  0  0  0  0  0  0
  160.8650  207.2050  152.9370 C   0  0  0  0  0  2  0  0  0  0  0  0
  161.3370  207.3380  154.3700 C   0  0  1  0  0  3  0  0  0  0  0  0
  161.5200  208.8180  154.5960 C   0  0  0  0  0  2  0  0  0  0  0  0
  155.3380  210.5210  154.7470 O   0  0  0  0  0  0  0  0  0  0  0  0
  155.8420  211.6490  154.4890 C   0  0  0  0  0  0  0  0  0  0  0  0
  155.3910  213.5730  153.1520 C   0  0  0  0  0  2  0  0  0  0  0  0
  155.0170  212.7410  154.0670 N   0  0  0  0  0  0  0  0  0  0  0  0
  159.1020  214.1360  152.2500 S   0  0  0  0  0  1  0  0  0  0  0  0
  159.5360  212.6210  151.5670 O   0  0  0  0  0  0  0  0  0  0  0  0
  157.4960  213.3430  146.6800 S   0  0  0  0  0  1  0  0  0  0  0  0
  158.6970  214.4390  145.8720 C   0  0  0  0  0  2  0  0  0  0  0  0
  160.1950  214.4530  142.4280 C   0  0  0  0  0  2  0  0  0  0  0  0
  160.0830  213.8570  139.9990 O   0  0  0  0  0  0  0  0  0  0  0  0
  160.3110  213.0180  138.9610 O   0  0  0  0  0  0  0  0  0  0  0  0
  159.9630  211.1440  140.4860 C   0  0  0  0  0  2  0  0  0  0  0  0
  159.5790  211.8250  139.1670 C   0  0  1  0  0  3  0  0  0  0  0  0
  160.1380  213.4360  141.3350 C   0  0  0  0  0  0  0  0  0  0  0  0
  160.0480  212.1360  141.6060 C   0  0  0  0  0  3  0  0  0  0  0  0
  158.0940  212.0120  139.0010 C   0  0  0  0  0  0  0  0  0  0  0  0
  157.5270  213.0080  139.5260 O   0  0  0  0  0  0  0  0  0  0  0  0
  156.9490  209.1570  137.0110 O   0  0  0  0  0  0  0  0  0  0  0  0
  157.7810  209.9450  137.5340 C   0  0  0  0  0  0  0  0  0  0  0  0
  157.2960  211.0630  138.2850 N   0  0  0  0  0  2  0  0  0  0  0  0
  159.1530  209.7400  137.3590 O   0  0  0  0  0  0  0  0  0  0  0  0
  159.7170  208.4510  137.1380 C   0  0  0  0  0  2  0  0  0  0  0  0
  161.2400  208.5250  137.0990 C   0  0  0  0  0  2  0  0  0  0  0  0
  161.8130  208.8190  138.4750 C   0  0  0  0  0  2  0  0  0  0  0  0
  161.8720  207.3110  139.4870 S   0  0  0  0  0  1  0  0  0  0  0  0
  1  3  2  0  0  0  0
  1  2  1  0  0  0  0
  2  5  2  0  0  0  0
  3  6  1  0  0  0  0
  4  3  1  0  0  0  0
  5  9  1  0  0  0  0
  6  9  2  0  0  0  0
  7  4  1  0  0  0  0
  8  4  1  0  0  0  0
  9 11  1  0  0  0  0
 10  4  1  0  0  0  0
 10  1  1  0  0  0  0
 11 12  1  1  0  0  0
 11 13  1  0  0  0  0
 13 14  2  0  0  0  0
 13 16  1  0  0  0  0
 15 13  2  0  0  0  0
 17 16  1  6  0  0  0
 18 20  1  0  0  0  0
 18 19  1  0  0  0  0
 19 34  1  6  0  0  0
 19 23  1  0  0  0  0
 20 22  1  0  0  0  0
 21 24  1  1  0  0  0
 22 17  1  6  0  0  0
 22 26  1  0  0  0  0
 23 21  1  0  0  0  0
 25 21  1  0  0  0  0
 26 25  1  0  0  0  0
 28 22  1  0  0  0  0
 28 32  1  1  0  0  0
 29 30  1  0  0  0  0
 29 28  1  0  0  0  0
 30 31  1  0  0  0  0
 31 32  1  0  0  0  0
 31 27  1  1  0  0  0
 34 33  2  0  0  0  0
 35 36  2  0  0  0  0
 36 34  1  0  0  0  0
 38 37  1  0  0  0  0
 38 17  1  0  0  0  0
 40  2  1  0  0  0  0
 40 39  1  0  0  0  0
 41 10  1  0  0  0  0
 42 46  1  0  0  0  0
 43 45  1  0  0  0  0
 43 42  1  0  0  0  0
 44 47  1  0  0  0  0
 45 48  1  1  0  0  0
 45 44  1  0  0  0  0
 46 47  2  0  0  0  0
 46 41  1  0  0  0  0
 48 49  2  0  0  0  0
 50 51  2  0  0  0  0
 51 52  1  0  0  0  0
 52 48  1  0  0  0  0
 53 51  1  0  0  0  0
 54 53  1  0  0  0  0
 55 54  1  0  0  0  0
 55 56  1  0  0  0  0
 56 57  1  0  0  0  0
M  END
>  <MODEL>
5

>  <REMARK>
 VINA RESULT:      -1.0      2.133      2.913
  Name = 
  17 active torsions:
  status: ('A' for Active; 'I' for Inactive)
    1  A    between atoms: C_3  and  C_41
    2  A    between atoms: C_5  and  P_22
    3  A    between atoms: C_6  and  C_24
    4  A    between atoms: C_8  and  C_32
    5  A    between atoms: C_10  and  C_54
    6  A    between atoms: O_17  and  C_49
    7  A    between atoms: O_17  and  C_53
    8  A    between atoms: O_19  and  C_30
    9  A    between atoms: C_20  and  C_40
   10  A    between atoms: C_20  and  S_45
   11  A    between atoms: P_22  and  C_30
   12  A    between atoms: N_25  and  C_30
   13  A    between atoms: N_25  and  S_45
   14  A    between atoms: N_29  and  C_41
   15  A    between atoms: C_32  and  C_53
   16  A    between atoms: C_37  and  C_44
   17  A    between atoms: C_37  and  N_50
                            x       y       z     vdW  Elec       q    Type
                         _______ _______ _______ _____ _____    ______ ____

>  <TORSDO>
F 17

$$$$
=
 OpenBabel11072414073D

 57 61  0  0  1  0  0  0  0  0999 V2000
  160.6470  204.9720  150.9020 C   0  0  0  0  0  0  0  0  0  0  0  0
  160.4970  206.0970  150.1180 C   0  0  0  0  0  0  0  0  0  0  0  0
  161.2520  204.9930  152.1700 C   0  0  0  0  0  0  0  0  0  0  0  0
  161.0000  203.5870  152.2310 C   0  0  0  0  0  0  0  0  0  0  0  0
  161.0070  207.2930  150.6750 C   0  0  0  0  0  3  0  0  0  0  0  0
  161.7500  206.1420  152.7550 C   0  0  0  0  0  3  0  0  0  0  0  0
  162.1650  202.8410  152.2710 F   0  0  0  0  0  0  0  0  0  0  0  0
  160.1150  203.2520  153.2400 F   0  0  0  0  0  0  0  0  0  0  0  0
  161.6190  207.3200  151.9730 C   0  0  0  0  0  0  0  0  0  0  0  0
  160.3880  203.5330  150.9550 N   0  0  0  0  0  0  0  0  0  0  0  0
  162.1150  208.6100  152.5400 C   0  0  1  0  0  3  0  0  0  0  0  0
  162.6130  209.4200  151.5340 F   0  0  0  0  0  0  0  0  0  0  0  0
  160.8240  209.4640  153.4310 S   0  0  0  0  0  0  0  0  0  0  0  0
  159.5100  208.7830  153.1780 O   0  0  0  0  0  0  0  0  0  0  0  0
  161.1160  209.4320  154.9070 O   0  0  0  0  0  0  0  0  0  0  0  0
  160.7260  211.1010  152.8770 N   0  0  0  0  0  2  0  0  0  0  0  0
  159.3270  211.4980  152.8850 C   0  0  2  0  0  3  0  0  0  0  0  0
  157.9540  212.5470  150.4490 O   0  0  0  0  0  0  0  0  0  0  0  0
  158.2730  213.2480  149.2820 C   0  0  1  0  0  3  0  0  0  0  0  0
  157.8390  213.4690  151.3840 O   0  0  0  0  0  0  0  0  0  0  0  0
  160.8020  213.0860  149.0600 C   0  0  1  0  0  3  0  0  0  0  0  0
  159.1840  213.2490  152.3970 P   0  0  2  0  0  4  0  0  0  0  0  0
  159.4450  212.5680  148.5890 C   0  0  0  0  0  2  0  0  0  0  0  0
  160.9470  214.4530  148.8040 O   0  0  0  0  0  1  0  0  0  0  0  0
  161.1410  212.7300  150.5100 C   0  0  0  0  0  2  0  0  0  0  0  0
  160.6830  213.7820  151.5130 C   0  0  0  0  0  2  0  0  0  0  0  0
  156.7250  213.0110  156.1960 C   0  0  0  0  0  1  0  0  0  0  0  0
  158.9800  214.2830  153.8790 C   0  0  2  0  0  3  0  0  0  0  0  0
  159.7200  213.7090  154.9920 N   0  0  0  0  0  2  0  0  0  0  0  0
  158.9630  214.0670  156.1840 C   0  0  0  0  0  2  0  0  0  0  0  0
  157.5130  214.2370  155.7830 C   0  0  1  0  0  3  0  0  0  0  0  0
  157.5220  214.3410  154.2780 C   0  0  0  0  0  2  0  0  0  0  0  0
  156.1250  214.0410  148.6410 O   0  0  0  0  0  0  0  0  0  0  0  0
  157.0960  213.2820  148.3670 C   0  0  0  0  0  0  0  0  0  0  0  0
  157.0590  213.0110  145.9960 C   0  0  0  0  0  2  0  0  0  0  0  0
  157.0880  212.4860  147.1770 N   0  0  0  0  0  0  0  0  0  0  0  0
  157.1460  210.8990  153.8820 S   0  0  0  0  0  1  0  0  0  0  0  0
  158.7910  211.3090  154.1590 O   0  0  0  0  0  0  0  0  0  0  0  0
  160.6710  207.2750  147.6810 S   0  0  0  0  0  1  0  0  0  0  0  0
  159.8790  206.0510  148.7650 C   0  0  0  0  0  2  0  0  0  0  0  0
  159.7050  202.5550  150.1230 C   0  0  0  0  0  2  0  0  0  0  0  0
  160.3740  202.9510  147.7440 O   0  0  0  0  0  0  0  0  0  0  0  0
  161.2620  202.8850  146.7230 O   0  0  0  0  0  0  0  0  0  0  0  0
  162.1180  200.8140  147.6910 C   0  0  0  0  0  2  0  0  0  0  0  0
  161.5530  201.5260  146.4560 C   0  0  1  0  0  3  0  0  0  0  0  0
  160.5240  202.2090  148.9230 C   0  0  0  0  0  0  0  0  0  0  0  0
  161.3320  201.1500  148.9210 C   0  0  0  0  0  3  0  0  0  0  0  0
  160.4010  200.7940  145.8180 C   0  0  0  0  0  0  0  0  0  0  0  0
  160.1380  199.6140  146.1730 O   0  0  0  0  0  0  0  0  0  0  0  0
  158.9750  203.1220  143.3750 O   0  0  0  0  0  0  0  0  0  0  0  0
  159.6930  202.7550  144.3430 C   0  0  0  0  0  0  0  0  0  0  0  0
  159.6120  201.3960  144.7880 N   0  0  0  0  0  2  0  0  0  0  0  0
  160.5350  203.6690  144.9840 O   0  0  0  0  0  0  0  0  0  0  0  0
  160.2730  205.0680  145.0130 C   0  0  0  0  0  2  0  0  0  0  0  0
  161.5110  205.8610  144.6120 C   0  0  0  0  0  2  0  0  0  0  0  0
  162.7700  205.0190  144.7370 C   0  0  0  0  0  2  0  0  0  0  0  0
  163.4460  205.1120  146.4220 S   0  0  0  0  0  1  0  0  0  0  0  0
  1 10  1  0  0  0  0
  1  3  1  0  0  0  0
  2  5  1  0  0  0  0
  2  1  2  0  0  0  0
  3  4  1  0  0  0  0
  3  6  2  0  0  0  0
  4  7  1  0  0  0  0
  4  8  1  0  0  0  0
  5  9  2  0  0  0  0
  9 11  1  0  0  0  0
  9  6  1  0  0  0  0
 10  4  1  0  0  0  0
 11 12  1  6  0  0  0
 11 13  1  0  0  0  0
 13 15  2  0  0  0  0
 14 13  2  0  0  0  0
 16 13  1  0  0  0  0
 17 16  1  1  0  0  0
 17 38  1  0  0  0  0
 18 20  1  0  0  0  0
 19 34  1  6  0  0  0
 19 18  1  0  0  0  0
 20 22  1  0  0  0  0
 21 24  1  1  0  0  0
 21 25  1  0  0  0  0
 22 17  1  1  0  0  0
 22 28  1  0  0  0  0
 23 21  1  0  0  0  0
 23 19  1  0  0  0  0
 25 26  1  0  0  0  0
 26 22  1  0  0  0  0
 28 32  1  1  0  0  0
 28 29  1  0  0  0  0
 29 30  1  0  0  0  0
 31 30  1  0  0  0  0
 31 27  1  6  0  0  0
 32 31  1  0  0  0  0
 34 33  2  0  0  0  0
 35 36  2  0  0  0  0
 36 34  1  0  0  0  0
 37 38  1  0  0  0  0
 39 40  1  0  0  0  0
 40  2  1  0  0  0  0
 41 10  1  0  0  0  0
 42 46  1  0  0  0  0
 43 42  1  0  0  0  0
 44 47  1  0  0  0  0
 45 48  1  1  0  0  0
 45 43  1  0  0  0  0
 45 44  1  0  0  0  0
 46 41  1  0  0  0  0
 47 46  2  0  0  0  0
 48 49  2  0  0  0  0
 50 51  2  0  0  0  0
 51 52  1  0  0  0  0
 51 53  1  0  0  0  0
 52 48  1  0  0  0  0
 53 54  1  0  0  0  0
 55 56  1  0  0  0  0
 55 54  1  0  0  0  0
 56 57  1  0  0  0  0
M  END
>  <MODEL>
6

>  <REMARK>
 VINA RESULT:      -0.3      5.871      9.647
  Name = 
  17 active torsions:
  status: ('A' for Active; 'I' for Inactive)
    1  A    between atoms: C_3  and  C_41
    2  A    between atoms: C_5  and  P_22
    3  A    between atoms: C_6  and  C_24
    4  A    between atoms: C_8  and  C_32
    5  A    between atoms: C_10  and  C_54
    6  A    between atoms: O_17  and  C_49
    7  A    between atoms: O_17  and  C_53
    8  A    between atoms: O_19  and  C_30
    9  A    between atoms: C_20  and  C_40
   10  A    between atoms: C_20  and  S_45
   11  A    between atoms: P_22  and  C_30
   12  A    between atoms: N_25  and  C_30
   13  A    between atoms: N_25  and  S_45
   14  A    between atoms: N_29  and  C_41
   15  A    between atoms: C_32  and  C_53
   16  A    between atoms: C_37  and  C_44
   17  A    between atoms: C_37  and  N_50
                            x       y       z     vdW  Elec       q    Type
                         _______ _______ _______ _____ _____    ______ ____

>  <TORSDO>
F 17

$$$$
