=
 OpenBabel11072412183D

 38 41  0  0  1  0  0  0  0  0999 V2000
  159.9560  210.8240  154.7490 C   0  0  0  0  0  3  0  0  0  0  0  0
  162.3190  210.5430  155.2580 N   0  0  0  0  0  1  0  0  0  0  0  0
  160.5410  209.2310  152.9260 C   0  0  0  0  0  0  0  0  0  0  0  0
  160.7800  207.9370  155.0810 C   0  0  0  0  0  3  0  0  0  0  0  0
  160.9600  210.2960  155.7180 C   0  0  2  0  0  3  0  0  0  0  0  0
  159.7520  210.3600  153.5060 C   0  0  0  0  0  0  0  0  0  0  0  0
  160.7510  208.8770  155.9790 N   0  0  0  0  0  0  0  0  0  0  0  0
  160.9680  208.1760  153.6410 C   0  0  0  0  0  3  0  0  0  0  0  0
  162.1980  208.4290  151.1710 C   0  0  1  0  0  3  0  0  0  0  0  0
  162.3190  209.9380  151.2100 C   0  0  2  0  0  3  0  0  0  0  0  0
  162.9770  210.3100  152.3820 O   0  0  0  0  0  1  0  0  0  0  0  0
  160.9610  209.2670  151.4720 C   0  0  2  0  0  3  0  0  0  0  0  0
  162.1660  207.9520  149.7240 C   0  0  2  0  0  3  0  0  0  0  0  0
  161.9210  209.1480  148.8180 C   0  0  0  0  0  1  0  0  0  0  0  0
  160.6530  206.3510  150.7270 O   0  0  0  0  0  1  0  0  0  0  0  0
  161.0660  206.9090  149.5120 C   0  0  2  0  0  3  0  0  0  0  0  0
  161.5110  205.8150  148.5350 C   0  0  2  0  0  3  0  0  0  0  0  0
  161.0700  206.1650  147.1270 C   0  0  0  0  0  2  0  0  0  0  0  0
  161.0740  202.1830  148.0510 O   0  0  0  0  0  0  0  0  0  0  0  0
  161.0150  204.4100  148.9350 C   0  0  1  0  0  3  0  0  0  0  0  0
  161.7130  205.1800  146.1630 C   0  0  0  0  0  2  0  0  0  0  0  0
  161.3640  203.8410  146.4960 O   0  0  0  0  0  0  0  0  0  0  0  0
  161.1950  203.4140  147.8160 C   0  0  0  0  0  0  0  0  0  0  0  0
  161.6840  203.9700  150.0840 O   0  0  0  0  0  0  0  0  0  0  0  0
  160.7410  203.2040  150.7760 C   0  0  0  0  0  2  0  0  0  0  0  0
  160.8910  203.4290  152.2630 C   0  0  0  0  0  1  0  0  0  0  0  0
  158.7700  210.9570  152.6930 O   0  0  0  0  0  0  0  0  0  0  0  0
  158.7970  212.3000  152.2050 C   0  0  1  0  0  3  0  0  0  0  0  0
  158.5450  213.2970  153.3200 C   0  0  0  0  0  1  0  0  0  0  0  0
  160.0060  212.5680  151.5550 O   0  0  0  0  0  0  0  0  0  0  0  0
  159.8340  213.8310  150.9810 C   0  0  0  0  0  2  0  0  0  0  0  0
  161.5270  212.5950  147.0730 C   0  0  0  0  0  3  0  0  0  0  0  0
  159.0980  212.9950  147.4060 C   0  0  0  0  0  3  0  0  0  0  0  0
  160.1730  213.7730  149.5300 C   0  0  0  0  0  0  0  0  0  0  0  0
  159.0630  213.6620  148.5630 C   0  0  0  0  0  3  0  0  0  0  0  0
  161.9150  213.8260  147.8170 C   0  0  0  0  0  2  0  0  0  0  0  0
  161.4250  213.7900  149.1870 N   0  0  0  0  0  0  0  0  0  0  0  0
  160.2580  212.2570  146.8700 C   0  0  0  0  0  3  0  0  0  0  0  0
  1  5  1  0  0  0  0
  3  6  1  0  0  0  0
  3  8  2  0  0  0  0
  4  7  2  0  0  0  0
  5  2  1  6  0  0  0
  5  7  1  0  0  0  0
  6  1  2  0  0  0  0
  8  4  1  0  0  0  0
  9 13  1  6  0  0  0
  9 10  1  0  0  0  0
  9 12  1  0  0  0  0
 10 12  1  0  0  0  0
 10 11  1  1  0  0  0
 12  3  1  1  0  0  0
 13 14  1  6  0  0  0
 16 13  1  0  0  0  0
 16 15  1  1  0  0  0
 17 20  1  0  0  0  0
 17 16  1  1  0  0  0
 18 17  1  0  0  0  0
 20 24  1  1  0  0  0
 21 22  1  0  0  0  0
 21 18  1  0  0  0  0
 22 23  1  0  0  0  0
 23 19  2  0  0  0  0
 23 20  1  0  0  0  0
 24 25  1  0  0  0  0
 25 26  1  0  0  0  0
 27  6  1  0  0  0  0
 28 27  1  0  0  0  0
 28 29  1  1  0  0  0
 30 28  1  0  0  0  0
 31 30  1  0  0  0  0
 32 36  1  0  0  0  0
 33 35  2  0  0  0  0
 34 31  1  0  0  0  0
 35 34  1  0  0  0  0
 36 37  1  0  0  0  0
 37 34  2  0  0  0  0
 38 32  2  0  0  0  0
 38 33  1  0  0  0  0
M  END
>  <MODEL>
1

>  <REMARK>
 VINA RESULT:      -7.9      0.000      0.000
  Name = 
  11 active torsions:
  status: ('A' for Active; 'I' for Inactive)
    1  A    between atoms: C_2  and  C_20
    2  A    between atoms: C_5  and  C_32
    3  A    between atoms: C_11  and  O_15
    4  A    between atoms: C_11  and  O_21
    5  A    between atoms: C_12  and  C_27
    6  A    between atoms: C_13  and  O_19
    7  A    between atoms: O_15  and  C_36
    8  A    between atoms: C_16  and  C_36
    9  A    between atoms: O_19  and  C_22
   10  A    between atoms: C_20  and  C_32
   11  A    between atoms: O_21  and  C_30
                            x       y       z     vdW  Elec       q    Type
                         _______ _______ _______ _____ _____    ______ ____

>  <TORSDO>
F 11

$$$$
=
 OpenBabel11072412183D

 38 41  0  0  1  0  0  0  0  0999 V2000
  160.4420  209.9510  154.9770 C   0  0  0  0  0  3  0  0  0  0  0  0
  162.2080  209.1150  156.4280 N   0  0  0  0  0  1  0  0  0  0  0  0
  161.0100  207.8800  153.7160 C   0  0  0  0  0  0  0  0  0  0  0  0
  159.9990  207.1090  155.8970 C   0  0  0  0  0  3  0  0  0  0  0  0
  160.7830  209.3910  156.3170 C   0  0  2  0  0  3  0  0  0  0  0  0
  160.5330  209.2930  153.8110 C   0  0  0  0  0  0  0  0  0  0  0  0
  160.0000  208.1970  156.6080 N   0  0  0  0  0  0  0  0  0  0  0  0
  160.7490  206.9420  154.6420 C   0  0  0  0  0  3  0  0  0  0  0  0
  161.1240  206.8240  151.4050 C   0  0  1  0  0  3  0  0  0  0  0  0
  161.9440  205.9360  152.3180 C   0  0  2  0  0  3  0  0  0  0  0  0
  161.0810  205.2220  153.1490 O   0  0  0  0  0  1  0  0  0  0  0  0
  161.8920  207.4530  152.5620 C   0  0  2  0  0  3  0  0  0  0  0  0
  161.8740  207.0490  150.0980 C   0  0  2  0  0  3  0  0  0  0  0  0
  162.3600  208.4890  150.0500 C   0  0  0  0  0  1  0  0  0  0  0  0
  159.7140  206.3110  149.2920 O   0  0  0  0  0  1  0  0  0  0  0  0
  160.9750  206.7680  148.8910 C   0  0  2  0  0  3  0  0  0  0  0  0
  161.6280  205.7750  147.9230 C   0  0  2  0  0  3  0  0  0  0  0  0
  161.4170  206.2290  146.4910 C   0  0  0  0  0  2  0  0  0  0  0  0
  161.4450  202.1860  147.0870 O   0  0  0  0  0  0  0  0  0  0  0  0
  161.1360  204.3260  148.1200 C   0  0  1  0  0  3  0  0  0  0  0  0
  162.2580  205.3510  145.5800 C   0  0  0  0  0  2  0  0  0  0  0  0
  161.9190  203.9780  145.7400 O   0  0  0  0  0  0  0  0  0  0  0  0
  161.5480  203.4350  146.9740 C   0  0  0  0  0  0  0  0  0  0  0  0
  161.6190  203.8110  149.3290 O   0  0  0  0  0  0  0  0  0  0  0  0
  160.4930  203.2840  149.9690 C   0  0  0  0  0  2  0  0  0  0  0  0
  160.7220  201.8250  150.2880 C   0  0  0  0  0  1  0  0  0  0  0  0
  160.1810  209.9460  152.6150 O   0  0  0  0  0  0  0  0  0  0  0  0
  159.9600  211.3500  152.4670 C   0  0  1  0  0  3  0  0  0  0  0  0
  160.6850  211.8980  151.2520 C   0  0  0  0  0  1  0  0  0  0  0  0
  158.5930  211.6350  152.4080 O   0  0  0  0  0  0  0  0  0  0  0  0
  158.4830  212.9650  152.8250 C   0  0  0  0  0  2  0  0  0  0  0  0
  156.4700  211.8530  156.6160 C   0  0  0  0  0  3  0  0  0  0  0  0
  158.7350  212.8700  156.5590 C   0  0  0  0  0  3  0  0  0  0  0  0
  157.9090  213.0140  154.1990 C   0  0  0  0  0  0  0  0  0  0  0  0
  158.8120  213.3540  155.3170 C   0  0  0  0  0  3  0  0  0  0  0  0
  155.9250  212.8100  155.6130 C   0  0  0  0  0  2  0  0  0  0  0  0
  156.6520  212.7260  154.3550 N   0  0  0  0  0  0  0  0  0  0  0  0
  157.7230  211.9160  157.0530 C   0  0  0  0  0  3  0  0  0  0  0  0
  1  5  1  0  0  0  0
  3  6  1  0  0  0  0
  3  8  2  0  0  0  0
  4  7  2  0  0  0  0
  5  2  1  6  0  0  0
  5  7  1  0  0  0  0
  6  1  2  0  0  0  0
  8  4  1  0  0  0  0
  9 13  1  6  0  0  0
  9 10  1  0  0  0  0
  9 12  1  0  0  0  0
 10 12  1  0  0  0  0
 10 11  1  1  0  0  0
 12  3  1  1  0  0  0
 13 14  1  6  0  0  0
 16 15  1  1  0  0  0
 16 13  1  0  0  0  0
 17 20  1  0  0  0  0
 17 16  1  1  0  0  0
 18 17  1  0  0  0  0
 20 24  1  1  0  0  0
 21 22  1  0  0  0  0
 21 18  1  0  0  0  0
 22 23  1  0  0  0  0
 23 19  2  0  0  0  0
 23 20  1  0  0  0  0
 24 25  1  0  0  0  0
 25 26  1  0  0  0  0
 27  6  1  0  0  0  0
 28 29  1  6  0  0  0
 28 27  1  0  0  0  0
 30 28  1  0  0  0  0
 30 31  1  0  0  0  0
 31 34  1  0  0  0  0
 32 38  2  0  0  0  0
 33 38  1  0  0  0  0
 34 37  2  0  0  0  0
 34 35  1  0  0  0  0
 35 33  2  0  0  0  0
 36 32  1  0  0  0  0
 37 36  1  0  0  0  0
M  END
>  <MODEL>
2

>  <REMARK>
 VINA RESULT:      -7.3      2.293      4.138
  Name = 
  11 active torsions:
  status: ('A' for Active; 'I' for Inactive)
    1  A    between atoms: C_2  and  C_20
    2  A    between atoms: C_5  and  C_32
    3  A    between atoms: C_11  and  O_15
    4  A    between atoms: C_11  and  O_21
    5  A    between atoms: C_12  and  C_27
    6  A    between atoms: C_13  and  O_19
    7  A    between atoms: O_15  and  C_36
    8  A    between atoms: C_16  and  C_36
    9  A    between atoms: O_19  and  C_22
   10  A    between atoms: C_20  and  C_32
   11  A    between atoms: O_21  and  C_30
                            x       y       z     vdW  Elec       q    Type
                         _______ _______ _______ _____ _____    ______ ____

>  <TORSDO>
F 11

$$$$
=
 OpenBabel11072412183D

 38 41  0  0  1  0  0  0  0  0999 V2000
  161.1470  210.8790  153.4610 C   0  0  0  0  0  3  0  0  0  0  0  0
  162.4810  210.7030  155.4890 N   0  0  0  0  0  1  0  0  0  0  0  0
  161.0580  208.4070  153.7520 C   0  0  0  0  0  0  0  0  0  0  0  0
  159.7610  209.3810  155.6880 C   0  0  0  0  0  3  0  0  0  0  0  0
  161.2300  211.1840  154.9190 C   0  0  2  0  0  3  0  0  0  0  0  0
  161.0650  209.6510  152.9250 C   0  0  0  0  0  0  0  0  0  0  0  0
  160.0880  210.6380  155.6420 N   0  0  0  0  0  0  0  0  0  0  0  0
  160.4660  208.3160  154.9560 C   0  0  0  0  0  3  0  0  0  0  0  0
  160.9510  206.2450  152.4170 C   0  0  1  0  0  3  0  0  0  0  0  0
  161.2690  205.8470  153.8430 C   0  0  2  0  0  3  0  0  0  0  0  0
  160.1240  206.0060  154.6230 O   0  0  0  0  0  1  0  0  0  0  0  0
  161.7990  207.1750  153.2770 C   0  0  2  0  0  3  0  0  0  0  0  0
  161.8420  205.4680  151.4550 C   0  0  2  0  0  3  0  0  0  0  0  0
  163.2120  206.1250  151.4140 C   0  0  0  0  0  1  0  0  0  0  0  0
  160.2110  206.3790  149.9160 O   0  0  0  0  0  1  0  0  0  0  0  0
  161.2400  205.4410  150.0470 C   0  0  2  0  0  3  0  0  0  0  0  0
  160.7460  204.0380  149.6750 C   0  0  2  0  0  3  0  0  0  0  0  0
  161.0200  203.0720  150.8130 C   0  0  0  0  0  2  0  0  0  0  0  0
  161.3010  201.5070  147.0480 O   0  0  0  0  0  0  0  0  0  0  0  0
  161.3470  203.5160  148.3540 C   0  0  1  0  0  3  0  0  0  0  0  0
  160.3260  201.7560  150.5040 C   0  0  0  0  0  2  0  0  0  0  0  0
  160.7710  201.2260  149.2600 O   0  0  0  0  0  0  0  0  0  0  0  0
  161.0980  202.0390  148.1710 C   0  0  0  0  0  0  0  0  0  0  0  0
  160.8250  204.2310  147.2690 O   0  0  0  0  0  0  0  0  0  0  0  0
  161.9460  204.6840  146.5660 C   0  0  0  0  0  2  0  0  0  0  0  0
  161.9980  206.1940  146.6040 C   0  0  0  0  0  1  0  0  0  0  0  0
  160.9960  209.5070  151.5260 O   0  0  0  0  0  0  0  0  0  0  0  0
  162.0170  209.8830  150.6000 C   0  0  1  0  0  3  0  0  0  0  0  0
  162.0250  208.9710  149.3870 C   0  0  0  0  0  1  0  0  0  0  0  0
  161.8770  211.2210  150.2210 O   0  0  0  0  0  0  0  0  0  0  0  0
  162.1140  211.2330  148.8430 C   0  0  0  0  0  2  0  0  0  0  0  0
  158.7430  213.3100  146.8460 C   0  0  0  0  0  3  0  0  0  0  0  0
  159.8120  214.1850  148.9100 C   0  0  0  0  0  3  0  0  0  0  0  0
  161.2650  212.2740  148.1970 C   0  0  0  0  0  0  0  0  0  0  0  0
  160.9520  213.4920  148.9710 C   0  0  0  0  0  3  0  0  0  0  0  0
  160.0500  212.9970  146.2030 C   0  0  0  0  0  2  0  0  0  0  0  0
  160.8150  212.0490  147.0000 N   0  0  0  0  0  0  0  0  0  0  0  0
  158.6570  213.8730  148.0460 C   0  0  0  0  0  3  0  0  0  0  0  0
  1  5  1  0  0  0  0
  3  8  2  0  0  0  0
  5  2  1  1  0  0  0
  5  7  1  0  0  0  0
  6  1  2  0  0  0  0
  6  3  1  0  0  0  0
  7  4  2  0  0  0  0
  8  4  1  0  0  0  0
  9 13  1  6  0  0  0
  9 12  1  0  0  0  0
  9 10  1  0  0  0  0
 10 11  1  1  0  0  0
 12  3  1  1  0  0  0
 12 10  1  0  0  0  0
 13 14  1  6  0  0  0
 16 15  1  1  0  0  0
 16 13  1  0  0  0  0
 17 16  1  1  0  0  0
 17 18  1  0  0  0  0
 19 23  2  0  0  0  0
 20 24  1  6  0  0  0
 20 17  1  0  0  0  0
 21 18  1  0  0  0  0
 22 21  1  0  0  0  0
 23 20  1  0  0  0  0
 23 22  1  0  0  0  0
 25 26  1  0  0  0  0
 25 24  1  0  0  0  0
 27  6  1  0  0  0  0
 28 29  1  6  0  0  0
 28 27  1  0  0  0  0
 30 28  1  0  0  0  0
 31 30  1  0  0  0  0
 32 38  2  0  0  0  0
 33 35  2  0  0  0  0
 34 31  1  0  0  0  0
 34 35  1  0  0  0  0
 36 32  1  0  0  0  0
 36 37  1  0  0  0  0
 37 34  2  0  0  0  0
 38 33  1  0  0  0  0
M  END
>  <MODEL>
3

>  <REMARK>
 VINA RESULT:      -7.1      1.621      3.294
  Name = 
  11 active torsions:
  status: ('A' for Active; 'I' for Inactive)
    1  A    between atoms: C_2  and  C_20
    2  A    between atoms: C_5  and  C_32
    3  A    between atoms: C_11  and  O_15
    4  A    between atoms: C_11  and  O_21
    5  A    between atoms: C_12  and  C_27
    6  A    between atoms: C_13  and  O_19
    7  A    between atoms: O_15  and  C_36
    8  A    between atoms: C_16  and  C_36
    9  A    between atoms: O_19  and  C_22
   10  A    between atoms: C_20  and  C_32
   11  A    between atoms: O_21  and  C_30
                            x       y       z     vdW  Elec       q    Type
                         _______ _______ _______ _____ _____    ______ ____

>  <TORSDO>
F 11

$$$$
=
 OpenBabel11072412183D

 38 41  0  0  1  0  0  0  0  0999 V2000
  161.0000  208.1280  154.4470 C   0  0  0  0  0  3  0  0  0  0  0  0
  159.8060  208.8750  156.4320 N   0  0  0  0  0  1  0  0  0  0  0  0
  160.5460  210.4760  153.7470 C   0  0  0  0  0  0  0  0  0  0  0  0
  162.1620  210.6280  155.6810 C   0  0  0  0  0  3  0  0  0  0  0  0
  161.0900  208.4370  155.9030 C   0  0  2  0  0  3  0  0  0  0  0  0
  160.7630  209.0220  153.4730 C   0  0  0  0  0  0  0  0  0  0  0  0
  162.1260  209.4250  156.1730 N   0  0  0  0  0  0  0  0  0  0  0  0
  161.1850  211.1550  154.7150 C   0  0  0  0  0  3  0  0  0  0  0  0
  159.2110  212.6290  153.5320 C   0  0  1  0  0  3  0  0  0  0  0  0
  158.1970  211.5170  153.7030 C   0  0  2  0  0  3  0  0  0  0  0  0
  158.2250  211.0790  155.0270 O   0  0  0  0  0  1  0  0  0  0  0  0
  159.5140  211.2510  152.9560 C   0  0  2  0  0  3  0  0  0  0  0  0
  158.7580  213.5700  152.4220 C   0  0  2  0  0  3  0  0  0  0  0  0
  157.2640  213.8150  152.5620 C   0  0  0  0  0  1  0  0  0  0  0  0
  160.4330  212.9380  150.7930 O   0  0  0  0  0  1  0  0  0  0  0  0
  159.0570  212.9780  151.0420 C   0  0  2  0  0  3  0  0  0  0  0  0
  158.3270  213.7450  149.9330 C   0  0  2  0  0  3  0  0  0  0  0  0
  156.9060  213.2330  149.7960 C   0  0  0  0  0  2  0  0  0  0  0  0
  158.7030  214.4350  146.3280 O   0  0  0  0  0  0  0  0  0  0  0  0
  159.0630  213.6940  148.5780 C   0  0  1  0  0  3  0  0  0  0  0  0
  156.1520  214.1540  148.8520 C   0  0  0  0  0  2  0  0  0  0  0  0
  156.7990  214.2240  147.5850 O   0  0  0  0  0  0  0  0  0  0  0  0
  158.1890  214.1790  147.4490 C   0  0  0  0  0  0  0  0  0  0  0  0
  160.2390  214.4530  148.6380 O   0  0  0  0  0  0  0  0  0  0  0  0
  161.1610  213.7480  147.8580 C   0  0  0  0  0  2  0  0  0  0  0  0
  162.5110  214.4210  147.9290 C   0  0  0  0  0  1  0  0  0  0  0  0
  160.7000  208.5920  152.1350 O   0  0  0  0  0  0  0  0  0  0  0  0
  161.5930  208.9860  151.0910 C   0  0  1  0  0  3  0  0  0  0  0  0
  162.6690  209.9200  151.6100 C   0  0  0  0  0  1  0  0  0  0  0  0
  162.1550  207.8670  150.4690 O   0  0  0  0  0  0  0  0  0  0  0  0
  161.9630  208.0800  149.1010 C   0  0  0  0  0  2  0  0  0  0  0  0
  161.7790  204.2140  146.9370 C   0  0  0  0  0  3  0  0  0  0  0  0
  160.7650  204.5330  149.1820 C   0  0  0  0  0  3  0  0  0  0  0  0
  161.4660  206.8280  148.4630 C   0  0  0  0  0  0  0  0  0  0  0  0
  160.7340  205.8630  149.3070 C   0  0  0  0  0  3  0  0  0  0  0  0
  161.2430  205.5040  146.4210 C   0  0  0  0  0  2  0  0  0  0  0  0
  161.7280  206.6280  147.2070 N   0  0  0  0  0  0  0  0  0  0  0  0
  161.5270  203.7800  148.1680 C   0  0  0  0  0  3  0  0  0  0  0  0
  1  5  1  0  0  0  0
  3  8  2  0  0  0  0
  4  7  2  0  0  0  0
  5  7  1  0  0  0  0
  5  2  1  6  0  0  0
  6  3  1  0  0  0  0
  6  1  2  0  0  0  0
  8  4  1  0  0  0  0
  9 13  1  6  0  0  0
  9 10  1  0  0  0  0
 10 11  1  1  0  0  0
 12  9  1  0  0  0  0
 12 10  1  0  0  0  0
 12  3  1  1  0  0  0
 13 14  1  6  0  0  0
 16 15  1  6  0  0  0
 16 13  1  0  0  0  0
 17 16  1  1  0  0  0
 18 17  1  0  0  0  0
 19 23  2  0  0  0  0
 20 24  1  1  0  0  0
 20 17  1  0  0  0  0
 21 18  1  0  0  0  0
 22 21  1  0  0  0  0
 23 22  1  0  0  0  0
 23 20  1  0  0  0  0
 25 26  1  0  0  0  0
 25 24  1  0  0  0  0
 27  6  1  0  0  0  0
 28 29  1  1  0  0  0
 28 27  1  0  0  0  0
 30 28  1  0  0  0  0
 31 30  1  0  0  0  0
 32 38  2  0  0  0  0
 33 35  2  0  0  0  0
 34 31  1  0  0  0  0
 34 35  1  0  0  0  0
 36 32  1  0  0  0  0
 36 37  1  0  0  0  0
 37 34  2  0  0  0  0
 38 33  1  0  0  0  0
M  END
>  <MODEL>
4

>  <REMARK>
 VINA RESULT:      -6.7      2.338      7.404
  Name = 
  11 active torsions:
  status: ('A' for Active; 'I' for Inactive)
    1  A    between atoms: C_2  and  C_20
    2  A    between atoms: C_5  and  C_32
    3  A    between atoms: C_11  and  O_15
    4  A    between atoms: C_11  and  O_21
    5  A    between atoms: C_12  and  C_27
    6  A    between atoms: C_13  and  O_19
    7  A    between atoms: O_15  and  C_36
    8  A    between atoms: C_16  and  C_36
    9  A    between atoms: O_19  and  C_22
   10  A    between atoms: C_20  and  C_32
   11  A    between atoms: O_21  and  C_30
                            x       y       z     vdW  Elec       q    Type
                         _______ _______ _______ _____ _____    ______ ____

>  <TORSDO>
F 11

$$$$
=
 OpenBabel11072412183D

 38 41  0  0  1  0  0  0  0  0999 V2000
  161.7970  205.2110  148.4840 C   0  0  0  0  0  3  0  0  0  0  0  0
  163.7770  206.6080  148.7070 N   0  0  0  0  0  1  0  0  0  0  0  0
  161.0310  206.6420  150.3730 C   0  0  0  0  0  0  0  0  0  0  0  0
  161.2010  208.1700  148.3690 C   0  0  0  0  0  3  0  0  0  0  0  0
  162.6490  206.2610  147.8550 C   0  0  2  0  0  3  0  0  0  0  0  0
  161.0670  205.3630  149.6010 C   0  0  0  0  0  0  0  0  0  0  0  0
  161.8690  207.4470  147.5200 N   0  0  0  0  0  0  0  0  0  0  0  0
  161.0800  207.8590  149.8030 C   0  0  0  0  0  3  0  0  0  0  0  0
  161.8860  207.6730  152.5350 C   0  0  1  0  0  3  0  0  0  0  0  0
  162.3350  206.2270  152.5490 C   0  0  2  0  0  3  0  0  0  0  0  0
  163.3720  206.0660  151.6300 O   0  0  0  0  0  1  0  0  0  0  0  0
  161.0020  206.6140  151.8860 C   0  0  2  0  0  3  0  0  0  0  0  0
  161.3290  208.0520  153.9020 C   0  0  2  0  0  3  0  0  0  0  0  0
  160.4530  206.9170  154.4070 C   0  0  0  0  0  1  0  0  0  0  0  0
  160.4480  209.8280  152.5130 O   0  0  0  0  0  1  0  0  0  0  0  0
  160.5090  209.3420  153.8240 C   0  0  2  0  0  3  0  0  0  0  0  0
  161.0570  210.4130  154.7740 C   0  0  2  0  0  3  0  0  0  0  0  0
  161.7950  209.7570  155.9260 C   0  0  0  0  0  2  0  0  0  0  0  0
  159.7970  213.2070  156.8280 O   0  0  0  0  0  0  0  0  0  0  0  0
  159.9690  211.3750  155.2930 C   0  0  1  0  0  3  0  0  0  0  0  0
  162.5070  210.8410  156.7200 C   0  0  0  0  0  2  0  0  0  0  0  0
  161.5840  211.8190  157.1880 O   0  0  0  0  0  0  0  0  0  0  0  0
  160.4640  212.2100  156.4480 C   0  0  0  0  0  0  0  0  0  0  0  0
  159.5210  212.2040  154.2570 O   0  0  0  0  0  0  0  0  0  0  0  0
  158.1490  211.9480  154.1610 C   0  0  0  0  0  2  0  0  0  0  0  0
  157.3720  213.2130  154.4410 C   0  0  0  0  0  1  0  0  0  0  0  0
  160.3090  204.2830  150.0890 O   0  0  0  0  0  0  0  0  0  0  0  0
  160.8290  203.0120  150.4840 C   0  0  1  0  0  3  0  0  0  0  0  0
  160.7980  202.8490  151.9920 C   0  0  0  0  0  1  0  0  0  0  0  0
  160.1400  201.9730  149.8520 O   0  0  0  0  0  0  0  0  0  0  0  0
  161.1280  201.0520  149.4920 C   0  0  0  0  0  2  0  0  0  0  0  0
  160.2970  200.2200  145.2160 C   0  0  0  0  0  3  0  0  0  0  0  0
  160.8270  202.4990  146.0510 C   0  0  0  0  0  3  0  0  0  0  0  0
  161.2370  200.9880  148.0060 C   0  0  0  0  0  0  0  0  0  0  0  0
  161.3360  202.2590  147.2630 C   0  0  0  0  0  3  0  0  0  0  0  0
  161.3870  199.5860  146.0090 C   0  0  0  0  0  2  0  0  0  0  0  0
  161.2070  199.8230  147.4340 N   0  0  0  0  0  0  0  0  0  0  0  0
  160.0830  201.5310  145.2220 C   0  0  0  0  0  3  0  0  0  0  0  0
  1  6  2  0  0  0  0
  4  8  1  0  0  0  0
  5  1  1  0  0  0  0
  5  2  1  1  0  0  0
  6 27  1  0  0  0  0
  6  3  1  0  0  0  0
  7  5  1  0  0  0  0
  7  4  2  0  0  0  0
  8  3  2  0  0  0  0
  9 10  1  0  0  0  0
  9 13  1  1  0  0  0
 10 11  1  6  0  0  0
 12  3  1  6  0  0  0
 12  9  1  0  0  0  0
 12 10  1  0  0  0  0
 13 14  1  6  0  0  0
 16 15  1  6  0  0  0
 16 13  1  0  0  0  0
 17 16  1  6  0  0  0
 17 20  1  0  0  0  0
 17 18  1  0  0  0  0
 18 21  1  0  0  0  0
 20 24  1  6  0  0  0
 20 23  1  0  0  0  0
 21 22  1  0  0  0  0
 23 19  2  0  0  0  0
 23 22  1  0  0  0  0
 25 24  1  0  0  0  0
 25 26  1  0  0  0  0
 27 28  1  0  0  0  0
 28 29  1  1  0  0  0
 30 28  1  0  0  0  0
 31 30  1  0  0  0  0
 32 38  2  0  0  0  0
 32 36  1  0  0  0  0
 33 35  2  0  0  0  0
 34 31  1  0  0  0  0
 35 34  1  0  0  0  0
 36 37  1  0  0  0  0
 37 34  2  0  0  0  0
 38 33  1  0  0  0  0
M  END
>  <MODEL>
5

>  <REMARK>
 VINA RESULT:      -6.0      3.403      9.465
  Name = 
  11 active torsions:
  status: ('A' for Active; 'I' for Inactive)
    1  A    between atoms: C_2  and  C_20
    2  A    between atoms: C_5  and  C_32
    3  A    between atoms: C_11  and  O_15
    4  A    between atoms: C_11  and  O_21
    5  A    between atoms: C_12  and  C_27
    6  A    between atoms: C_13  and  O_19
    7  A    between atoms: O_15  and  C_36
    8  A    between atoms: C_16  and  C_36
    9  A    between atoms: O_19  and  C_22
   10  A    between atoms: C_20  and  C_32
   11  A    between atoms: O_21  and  C_30
                            x       y       z     vdW  Elec       q    Type
                         _______ _______ _______ _____ _____    ______ ____

>  <TORSDO>
F 11

$$$$
=
 OpenBabel11072412183D

 38 41  0  0  1  0  0  0  0  0999 V2000
  161.5200  207.0150  152.9210 C   0  0  0  0  0  3  0  0  0  0  0  0
  163.3230  205.4730  152.3810 N   0  0  0  0  0  1  0  0  0  0  0  0
  160.8260  206.4300  150.6020 C   0  0  0  0  0  0  0  0  0  0  0  0
  160.5510  204.3200  151.9620 C   0  0  0  0  0  3  0  0  0  0  0  0
  162.1480  205.6940  153.2120 C   0  0  2  0  0  3  0  0  0  0  0  0
  160.9230  207.3580  151.7680 C   0  0  0  0  0  0  0  0  0  0  0  0
  161.1910  204.6060  153.0560 N   0  0  0  0  0  0  0  0  0  0  0  0
  160.6500  205.1020  150.7190 C   0  0  0  0  0  3  0  0  0  0  0  0
  162.1980  206.3840  148.4610 C   0  0  1  0  0  3  0  0  0  0  0  0
  162.2540  207.8090  148.9700 C   0  0  2  0  0  3  0  0  0  0  0  0
  163.0830  207.8570  150.0900 O   0  0  0  0  0  1  0  0  0  0  0  0
  160.9910  206.9600  149.1930 C   0  0  2  0  0  3  0  0  0  0  0  0
  161.9440  206.3840  146.9580 C   0  0  2  0  0  3  0  0  0  0  0  0
  160.4570  206.5790  146.7100 C   0  0  0  0  0  1  0  0  0  0  0  0
  162.6250  205.2210  144.9480 O   0  0  0  0  0  1  0  0  0  0  0  0
  162.4050  205.0700  146.3210 C   0  0  2  0  0  3  0  0  0  0  0  0
  161.4090  203.9360  146.5900 C   0  0  2  0  0  3  0  0  0  0  0  0
  161.8080  203.1810  147.8440 C   0  0  0  0  0  2  0  0  0  0  0  0
  160.0910  200.9400  144.8880 O   0  0  0  0  0  0  0  0  0  0  0  0
  161.2500  202.9750  145.3940 C   0  0  1  0  0  3  0  0  0  0  0  0
  160.6880  202.2170  148.2000 C   0  0  0  0  0  2  0  0  0  0  0  0
  160.4230  201.3250  147.1230 O   0  0  0  0  0  0  0  0  0  0  0  0
  160.5190  201.7140  145.7840 C   0  0  0  0  0  0  0  0  0  0  0  0
  160.5820  203.6150  144.3440 O   0  0  0  0  0  0  0  0  0  0  0  0
  159.3540  204.0080  144.8860 C   0  0  0  0  0  2  0  0  0  0  0  0
  158.2310  203.5850  143.9690 C   0  0  0  0  0  1  0  0  0  0  0  0
  160.3730  208.6460  151.6270 O   0  0  0  0  0  0  0  0  0  0  0  0
  160.8370  209.8260  152.2850 C   0  0  1  0  0  3  0  0  0  0  0  0
  161.6550  210.6950  151.3480 C   0  0  0  0  0  1  0  0  0  0  0  0
  159.7690  210.5440  152.8320 O   0  0  0  0  0  0  0  0  0  0  0  0
  160.3600  211.4540  153.7140 C   0  0  0  0  0  2  0  0  0  0  0  0
  160.6680  208.4320  156.9440 C   0  0  0  0  0  3  0  0  0  0  0  0
  162.5370  209.9650  156.3720 C   0  0  0  0  0  3  0  0  0  0  0  0
  160.5910  210.7980  155.0320 C   0  0  0  0  0  0  0  0  0  0  0  0
  161.9360  210.9010  155.6320 C   0  0  0  0  0  3  0  0  0  0  0  0
  159.6510  209.5190  156.8910 C   0  0  0  0  0  2  0  0  0  0  0  0
  159.6120  210.1390  155.5750 N   0  0  0  0  0  0  0  0  0  0  0  0
  161.9620  208.6580  156.7420 C   0  0  0  0  0  3  0  0  0  0  0  0
  1  5  1  0  0  0  0
  3  8  2  0  0  0  0
  3  6  1  0  0  0  0
  4  7  2  0  0  0  0
  5  2  1  6  0  0  0
  6  1  2  0  0  0  0
  7  5  1  0  0  0  0
  8  4  1  0  0  0  0
  9 13  1  6  0  0  0
  9 10  1  0  0  0  0
  9 12  1  0  0  0  0
 10 12  1  0  0  0  0
 10 11  1  1  0  0  0
 12  3  1  1  0  0  0
 13 14  1  1  0  0  0
 16 15  1  6  0  0  0
 16 13  1  0  0  0  0
 17 16  1  6  0  0  0
 17 18  1  0  0  0  0
 18 21  1  0  0  0  0
 19 23  2  0  0  0  0
 20 24  1  6  0  0  0
 20 23  1  0  0  0  0
 20 17  1  0  0  0  0
 22 21  1  0  0  0  0
 23 22  1  0  0  0  0
 24 25  1  0  0  0  0
 26 25  1  0  0  0  0
 27  6  1  0  0  0  0
 27 28  1  0  0  0  0
 28 29  1  6  0  0  0
 28 30  1  0  0  0  0
 30 31  1  0  0  0  0
 31 34  1  0  0  0  0
 33 38  1  0  0  0  0
 34 37  2  0  0  0  0
 34 35  1  0  0  0  0
 35 33  2  0  0  0  0
 36 32  1  0  0  0  0
 37 36  1  0  0  0  0
 38 32  2  0  0  0  0
M  END
>  <MODEL>
6

>  <REMARK>
 VINA RESULT:      -5.9      2.821      5.567
  Name = 
  11 active torsions:
  status: ('A' for Active; 'I' for Inactive)
    1  A    between atoms: C_2  and  C_20
    2  A    between atoms: C_5  and  C_32
    3  A    between atoms: C_11  and  O_15
    4  A    between atoms: C_11  and  O_21
    5  A    between atoms: C_12  and  C_27
    6  A    between atoms: C_13  and  O_19
    7  A    between atoms: O_15  and  C_36
    8  A    between atoms: C_16  and  C_36
    9  A    between atoms: O_19  and  C_22
   10  A    between atoms: C_20  and  C_32
   11  A    between atoms: O_21  and  C_30
                            x       y       z     vdW  Elec       q    Type
                         _______ _______ _______ _____ _____    ______ ____

>  <TORSDO>
F 11

$$$$
=
 OpenBabel11072412183D

 38 41  0  0  1  0  0  0  0  0999 V2000
  160.6730  204.3170  150.3930 C   0  0  0  0  0  3  0  0  0  0  0  0
  160.4390  203.8240  152.7640 N   0  0  0  0  0  1  0  0  0  0  0  0
  161.2980  206.5510  151.3010 C   0  0  0  0  0  0  0  0  0  0  0  0
  163.1400  204.9740  152.0090 C   0  0  0  0  0  3  0  0  0  0  0  0
  161.2010  203.5460  151.5560 C   0  0  2  0  0  3  0  0  0  0  0  0
  160.7120  205.6530  150.2610 C   0  0  0  0  0  0  0  0  0  0  0  0
  162.6200  203.8080  151.7660 N   0  0  0  0  0  0  0  0  0  0  0  0
  162.3720  206.2290  152.0440 C   0  0  0  0  0  3  0  0  0  0  0  0
  161.4260  208.7290  152.6080 C   0  0  1  0  0  3  0  0  0  0  0  0
  160.1620  208.0330  153.0670 C   0  0  2  0  0  3  0  0  0  0  0  0
  160.5090  206.9480  153.8720 O   0  0  0  0  0  1  0  0  0  0  0  0
  160.6420  207.8790  151.6140 C   0  0  2  0  0  3  0  0  0  0  0  0
  161.1410  210.2070  152.3690 C   0  0  2  0  0  3  0  0  0  0  0  0
  161.9510  210.6760  151.1700 C   0  0  0  0  0  1  0  0  0  0  0  0
  162.3320  210.3300  154.4720 O   0  0  0  0  0  1  0  0  0  0  0  0
  161.5060  211.0440  153.5970 C   0  0  2  0  0  3  0  0  0  0  0  0
  160.2540  211.5490  154.3240 C   0  0  2  0  0  3  0  0  0  0  0  0
  159.7320  210.4790  155.2640 C   0  0  0  0  0  2  0  0  0  0  0  0
  156.8940  212.8300  153.4970 O   0  0  0  0  0  0  0  0  0  0  0  0
  159.1460  212.0240  153.3610 C   0  0  1  0  0  3  0  0  0  0  0  0
  158.6340  211.0860  156.1210 C   0  0  0  0  0  2  0  0  0  0  0  0
  157.5900  211.6150  155.3110 O   0  0  0  0  0  0  0  0  0  0  0  0
  157.8310  212.2180  154.0730 C   0  0  0  0  0  0  0  0  0  0  0  0
  159.5320  213.2120  152.7280 O   0  0  0  0  0  0  0  0  0  0  0  0
  159.1390  213.0530  151.3960 C   0  0  0  0  0  2  0  0  0  0  0  0
  160.0810  213.8100  150.4900 C   0  0  0  0  0  1  0  0  0  0  0  0
  160.1710  206.2530  149.1080 O   0  0  0  0  0  0  0  0  0  0  0  0
  160.8660  206.4710  147.8790 C   0  0  1  0  0  3  0  0  0  0  0  0
  162.3670  206.5270  148.0970 C   0  0  0  0  0  1  0  0  0  0  0  0
  160.5310  205.4920  146.9380 O   0  0  0  0  0  0  0  0  0  0  0  0
  161.6170  204.6110  146.9330 C   0  0  0  0  0  2  0  0  0  0  0  0
  161.2060  200.2940  146.0090 C   0  0  0  0  0  3  0  0  0  0  0  0
  161.2060  201.1640  148.3360 C   0  0  0  0  0  3  0  0  0  0  0  0
  161.1220  203.2060  146.8870 C   0  0  0  0  0  0  0  0  0  0  0  0
  160.9990  202.4730  148.1630 C   0  0  0  0  0  3  0  0  0  0  0  0
  160.2850  201.3590  145.5230 C   0  0  0  0  0  2  0  0  0  0  0  0
  160.8540  202.6820  145.7300 N   0  0  0  0  0  0  0  0  0  0  0  0
  161.5810  200.2030  147.2810 C   0  0  0  0  0  3  0  0  0  0  0  0
  1  5  1  0  0  0  0
  3  8  2  0  0  0  0
  4  8  1  0  0  0  0
  5  7  1  0  0  0  0
  5  2  1  1  0  0  0
  6  1  2  0  0  0  0
  6  3  1  0  0  0  0
  7  4  2  0  0  0  0
  9 13  1  6  0  0  0
  9 10  1  0  0  0  0
 10 11  1  1  0  0  0
 12  3  1  1  0  0  0
 12  9  1  0  0  0  0
 12 10  1  0  0  0  0
 13 14  1  6  0  0  0
 13 16  1  0  0  0  0
 16 15  1  1  0  0  0
 17 16  1  6  0  0  0
 17 18  1  0  0  0  0
 18 21  1  0  0  0  0
 19 23  2  0  0  0  0
 20 24  1  1  0  0  0
 20 23  1  0  0  0  0
 20 17  1  0  0  0  0
 22 21  1  0  0  0  0
 23 22  1  0  0  0  0
 25 24  1  0  0  0  0
 26 25  1  0  0  0  0
 27  6  1  0  0  0  0
 28 29  1  1  0  0  0
 28 27  1  0  0  0  0
 30 28  1  0  0  0  0
 31 30  1  0  0  0  0
 32 38  2  0  0  0  0
 34 31  1  0  0  0  0
 34 35  1  0  0  0  0
 35 33  2  0  0  0  0
 36 37  1  0  0  0  0
 36 32  1  0  0  0  0
 37 34  2  0  0  0  0
 38 33  1  0  0  0  0
M  END
>  <MODEL>
7

>  <REMARK>
 VINA RESULT:      -5.9      3.009      8.744
  Name = 
  11 active torsions:
  status: ('A' for Active; 'I' for Inactive)
    1  A    between atoms: C_2  and  C_20
    2  A    between atoms: C_5  and  C_32
    3  A    between atoms: C_11  and  O_15
    4  A    between atoms: C_11  and  O_21
    5  A    between atoms: C_12  and  C_27
    6  A    between atoms: C_13  and  O_19
    7  A    between atoms: O_15  and  C_36
    8  A    between atoms: C_16  and  C_36
    9  A    between atoms: O_19  and  C_22
   10  A    between atoms: C_20  and  C_32
   11  A    between atoms: O_21  and  C_30
                            x       y       z     vdW  Elec       q    Type
                         _______ _______ _______ _____ _____    ______ ____

>  <TORSDO>
F 11

$$$$
=
 OpenBabel11072412183D

 38 41  0  0  1  0  0  0  0  0999 V2000
  161.6470  204.9110  148.3320 C   0  0  0  0  0  3  0  0  0  0  0  0
  163.5680  206.4020  148.2500 N   0  0  0  0  0  1  0  0  0  0  0  0
  160.8760  206.6010  149.9920 C   0  0  0  0  0  0  0  0  0  0  0  0
  160.9150  207.7850  147.7620 C   0  0  0  0  0  3  0  0  0  0  0  0
  162.4300  205.8770  147.5090 C   0  0  2  0  0  3  0  0  0  0  0  0
  160.9460  205.2160  149.4360 C   0  0  0  0  0  0  0  0  0  0  0  0
  161.5880  206.9600  147.0160 N   0  0  0  0  0  0  0  0  0  0  0  0
  160.8520  207.7090  149.2300 C   0  0  0  0  0  3  0  0  0  0  0  0
  161.8200  207.9500  151.9300 C   0  0  1  0  0  3  0  0  0  0  0  0
  162.2420  206.5150  152.1670 C   0  0  2  0  0  3  0  0  0  0  0  0
  163.2460  206.1830  151.2570 O   0  0  0  0  0  1  0  0  0  0  0  0
  160.8960  206.8200  151.4900 C   0  0  2  0  0  3  0  0  0  0  0  0
  161.3140  208.5590  153.2330 C   0  0  2  0  0  3  0  0  0  0  0  0
  160.4770  207.5230  153.9680 C   0  0  0  0  0  1  0  0  0  0  0  0
  161.2180  210.7950  152.3120 O   0  0  0  0  0  1  0  0  0  0  0  0
  160.4710  209.8080  152.9660 C   0  0  2  0  0  3  0  0  0  0  0  0
  159.8600  210.3590  154.2590 C   0  0  2  0  0  3  0  0  0  0  0  0
  158.4910  210.9480  153.9770 C   0  0  0  0  0  2  0  0  0  0  0  0
  160.6700  212.8270  156.8790 O   0  0  0  0  0  0  0  0  0  0  0  0
  160.7670  211.3870  154.9670 C   0  0  1  0  0  3  0  0  0  0  0  0
  157.8280  211.2800  155.3040 C   0  0  0  0  0  2  0  0  0  0  0  0
  158.6300  212.1790  156.0630 O   0  0  0  0  0  0  0  0  0  0  0  0
  160.0270  212.1350  156.0480 C   0  0  0  0  0  0  0  0  0  0  0  0
  161.8920  210.7510  155.5050 O   0  0  0  0  0  0  0  0  0  0  0  0
  161.4120  210.0530  156.6170 C   0  0  0  0  0  2  0  0  0  0  0  0
  162.2860  208.8500  156.8830 C   0  0  0  0  0  1  0  0  0  0  0  0
  160.2530  204.2000  150.1220 O   0  0  0  0  0  0  0  0  0  0  0  0
  160.8020  202.9440  150.5250 C   0  0  1  0  0  3  0  0  0  0  0  0
  160.7330  202.7700  152.0300 C   0  0  0  0  0  1  0  0  0  0  0  0
  160.1630  201.8880  149.8670 O   0  0  0  0  0  0  0  0  0  0  0  0
  161.1900  201.0060  149.5200 C   0  0  0  0  0  2  0  0  0  0  0  0
  160.3810  199.9980  145.2790 C   0  0  0  0  0  3  0  0  0  0  0  0
  160.7500  202.3310  146.0460 C   0  0  0  0  0  3  0  0  0  0  0  0
  161.2890  200.9090  148.0360 C   0  0  0  0  0  0  0  0  0  0  0  0
  161.2870  202.1630  147.2570 C   0  0  0  0  0  3  0  0  0  0  0  0
  161.5220  199.4680  146.0760 C   0  0  0  0  0  2  0  0  0  0  0  0
  161.3390  199.7290  147.4950 N   0  0  0  0  0  0  0  0  0  0  0  0
  160.0700  201.2890  145.2520 C   0  0  0  0  0  3  0  0  0  0  0  0
  1  6  2  0  0  0  0
  4  8  1  0  0  0  0
  5  2  1  1  0  0  0
  5  1  1  0  0  0  0
  6  3  1  0  0  0  0
  6 27  1  0  0  0  0
  7  5  1  0  0  0  0
  7  4  2  0  0  0  0
  8  3  2  0  0  0  0
  9 10  1  0  0  0  0
  9 13  1  1  0  0  0
 10 11  1  6  0  0  0
 12  3  1  6  0  0  0
 12  9  1  0  0  0  0
 12 10  1  0  0  0  0
 13 14  1  6  0  0  0
 16 15  1  1  0  0  0
 16 13  1  0  0  0  0
 17 16  1  6  0  0  0
 17 20  1  0  0  0  0
 18 17  1  0  0  0  0
 18 21  1  0  0  0  0
 20 24  1  1  0  0  0
 20 23  1  0  0  0  0
 21 22  1  0  0  0  0
 23 22  1  0  0  0  0
 23 19  2  0  0  0  0
 24 25  1  0  0  0  0
 25 26  1  0  0  0  0
 27 28  1  0  0  0  0
 28 29  1  1  0  0  0
 30 28  1  0  0  0  0
 31 30  1  0  0  0  0
 32 36  1  0  0  0  0
 33 35  2  0  0  0  0
 34 31  1  0  0  0  0
 35 34  1  0  0  0  0
 36 37  1  0  0  0  0
 37 34  2  0  0  0  0
 38 32  2  0  0  0  0
 38 33  1  0  0  0  0
M  END
>  <MODEL>
8

>  <REMARK>
 VINA RESULT:      -5.8      3.512      9.350
  Name = 
  11 active torsions:
  status: ('A' for Active; 'I' for Inactive)
    1  A    between atoms: C_2  and  C_20
    2  A    between atoms: C_5  and  C_32
    3  A    between atoms: C_11  and  O_15
    4  A    between atoms: C_11  and  O_21
    5  A    between atoms: C_12  and  C_27
    6  A    between atoms: C_13  and  O_19
    7  A    between atoms: O_15  and  C_36
    8  A    between atoms: C_16  and  C_36
    9  A    between atoms: O_19  and  C_22
   10  A    between atoms: C_20  and  C_32
   11  A    between atoms: O_21  and  C_30
                            x       y       z     vdW  Elec       q    Type
                         _______ _______ _______ _____ _____    ______ ____

>  <TORSDO>
F 11

$$$$
=
 OpenBabel11072412183D

 38 41  0  0  1  0  0  0  0  0999 V2000
  161.4520  206.9200  152.8740 C   0  0  0  0  0  3  0  0  0  0  0  0
  163.2400  205.3600  152.3320 N   0  0  0  0  0  1  0  0  0  0  0  0
  160.8050  206.4130  150.5220 C   0  0  0  0  0  0  0  0  0  0  0  0
  160.4590  204.2710  151.8140 C   0  0  0  0  0  3  0  0  0  0  0  0
  162.0500  205.5790  153.1410 C   0  0  2  0  0  3  0  0  0  0  0  0
  160.8900  207.3070  151.7170 C   0  0  0  0  0  0  0  0  0  0  0  0
  161.0770  204.5140  152.9310 N   0  0  0  0  0  0  0  0  0  0  0  0
  160.6030  205.0860  150.5970 C   0  0  0  0  0  3  0  0  0  0  0  0
  162.1680  206.3330  148.3770 C   0  0  1  0  0  3  0  0  0  0  0  0
  162.3440  207.7290  148.9390 C   0  0  2  0  0  3  0  0  0  0  0  0
  163.1730  207.6650  150.0580 O   0  0  0  0  0  1  0  0  0  0  0  0
  161.0140  206.9810  149.1340 C   0  0  2  0  0  3  0  0  0  0  0  0
  161.9150  206.4110  146.8760 C   0  0  2  0  0  3  0  0  0  0  0  0
  160.4330  206.6550  146.6390 C   0  0  0  0  0  1  0  0  0  0  0  0
  162.4590  205.3010  144.7950 O   0  0  0  0  0  1  0  0  0  0  0  0
  162.3430  205.1180  146.1770 C   0  0  2  0  0  3  0  0  0  0  0  0
  161.3820  203.9650  146.4930 C   0  0  2  0  0  3  0  0  0  0  0  0
  161.8440  203.2300  147.7370 C   0  0  0  0  0  2  0  0  0  0  0  0
  160.0670  200.9260  144.8660 O   0  0  0  0  0  0  0  0  0  0  0  0
  161.2000  202.9900  145.3120 C   0  0  1  0  0  3  0  0  0  0  0  0
  160.7600  202.2450  148.1430 C   0  0  0  0  0  2  0  0  0  0  0  0
  160.4740  201.3380  147.0840 O   0  0  0  0  0  0  0  0  0  0  0  0
  160.5110  201.7180  145.7390 C   0  0  0  0  0  0  0  0  0  0  0  0
  160.4790  203.6060  144.2820 O   0  0  0  0  0  0  0  0  0  0  0  0
  159.2960  204.0450  144.8850 C   0  0  0  0  0  2  0  0  0  0  0  0
  158.1090  203.6120  144.0570 C   0  0  0  0  0  1  0  0  0  0  0  0
  160.3670  208.6080  151.6000 O   0  0  0  0  0  0  0  0  0  0  0  0
  160.9730  209.7980  152.1090 C   0  0  1  0  0  3  0  0  0  0  0  0
  161.9710  210.3730  151.1220 C   0  0  0  0  0  1  0  0  0  0  0  0
  160.0010  210.7440  152.4510 O   0  0  0  0  0  0  0  0  0  0  0  0
  159.7900  210.5640  153.8210 C   0  0  0  0  0  2  0  0  0  0  0  0
  156.5260  213.5580  154.0400 C   0  0  0  0  0  3  0  0  0  0  0  0
  156.6880  211.6460  155.6170 C   0  0  0  0  0  3  0  0  0  0  0  0
  158.8290  211.5890  154.3190 C   0  0  0  0  0  0  0  0  0  0  0  0
  157.9420  211.2210  155.4400 C   0  0  0  0  0  3  0  0  0  0  0  0
  157.9780  213.8740  154.1440 C   0  0  0  0  0  2  0  0  0  0  0  0
  158.7940  212.7440  153.7260 N   0  0  0  0  0  0  0  0  0  0  0  0
  155.9600  212.5770  154.7330 C   0  0  0  0  0  3  0  0  0  0  0  0
  1  5  1  0  0  0  0
  3  8  2  0  0  0  0
  3  6  1  0  0  0  0
  4  7  2  0  0  0  0
  5  2  1  6  0  0  0
  6  1  2  0  0  0  0
  7  5  1  0  0  0  0
  8  4  1  0  0  0  0
  9 13  1  6  0  0  0
  9 10  1  0  0  0  0
  9 12  1  0  0  0  0
 10 12  1  0  0  0  0
 10 11  1  1  0  0  0
 12  3  1  1  0  0  0
 13 14  1  1  0  0  0
 16 15  1  6  0  0  0
 16 13  1  0  0  0  0
 17 16  1  6  0  0  0
 17 18  1  0  0  0  0
 18 21  1  0  0  0  0
 19 23  2  0  0  0  0
 20 24  1  6  0  0  0
 20 23  1  0  0  0  0
 20 17  1  0  0  0  0
 22 21  1  0  0  0  0
 23 22  1  0  0  0  0
 24 25  1  0  0  0  0
 26 25  1  0  0  0  0
 27  6  1  0  0  0  0
 27 28  1  0  0  0  0
 28 29  1  6  0  0  0
 28 30  1  0  0  0  0
 30 31  1  0  0  0  0
 31 34  1  0  0  0  0
 32 36  1  0  0  0  0
 32 38  2  0  0  0  0
 34 35  1  0  0  0  0
 35 33  2  0  0  0  0
 37 36  1  0  0  0  0
 37 34  2  0  0  0  0
 38 33  1  0  0  0  0
M  END
>  <MODEL>
9

>  <REMARK>
 VINA RESULT:      -5.3      2.856      5.127
  Name = 
  11 active torsions:
  status: ('A' for Active; 'I' for Inactive)
    1  A    between atoms: C_2  and  C_20
    2  A    between atoms: C_5  and  C_32
    3  A    between atoms: C_11  and  O_15
    4  A    between atoms: C_11  and  O_21
    5  A    between atoms: C_12  and  C_27
    6  A    between atoms: C_13  and  O_19
    7  A    between atoms: O_15  and  C_36
    8  A    between atoms: C_16  and  C_36
    9  A    between atoms: O_19  and  C_22
   10  A    between atoms: C_20  and  C_32
   11  A    between atoms: O_21  and  C_30
                            x       y       z     vdW  Elec       q    Type
                         _______ _______ _______ _____ _____    ______ ____

>  <TORSDO>
F 11

$$$$
