=
 OpenBabel11072413403D

 59 64  0  0  1  0  0  0  0  0999 V2000
  160.9950  209.2420  149.4950 S   0  0  0  0  0  0  0  0  0  0  0  0
  162.2490  208.8960  150.7840 C   0  0  2  0  0  3  0  0  0  0  0  0
  163.1590  207.7470  150.3370 C   0  0  0  0  0  2  0  0  0  0  0  0
  162.9230  207.4660  148.8720 C   0  0  0  0  0  2  0  0  0  0  0  0
  161.4600  207.7400  148.5960 C   0  0  2  0  0  3  0  0  0  0  0  0
  160.6920  210.2840  154.4350 C   0  0  0  0  0  2  0  0  0  0  0  0
  159.8270  209.4910  153.6480 O   0  0  0  0  0  0  0  0  0  0  0  0
  161.6200  208.6850  152.1890 C   0  0  1  0  0  0  0  0  0  0  0  0
  162.1430  209.8840  154.3230 C   0  0  0  0  0  0  0  0  0  0  0  0
  162.5650  209.2110  153.2460 C   0  0  0  0  0  3  0  0  0  0  0  0
  160.2840  209.4770  152.3080 C   0  0  2  0  0  3  0  0  0  0  0  0
  160.3950  203.9400  150.2380 Cl  0  0  0  0  0  0  0  0  0  0  0  0
  160.7880  204.9830  151.5890 C   0  0  0  0  0  0  0  0  0  0  0  0
  161.3790  207.1930  152.4400 C   0  0  0  0  0  0  0  0  0  0  0  0
  161.0840  206.3300  151.3660 C   0  0  0  0  0  3  0  0  0  0  0  0
  160.7800  204.4760  152.8900 C   0  0  0  0  0  3  0  0  0  0  0  0
  161.0650  205.3170  153.9690 C   0  0  0  0  0  3  0  0  0  0  0  0
  161.3530  206.6660  153.7470 C   0  0  0  0  0  3  0  0  0  0  0  0
  164.1990  210.9060  154.9400 O   0  0  0  0  0  0  0  0  0  0  0  0
  162.8220  210.3020  156.7080 N   0  0  0  0  0  1  0  0  0  0  0  0
  163.1130  210.3840  155.3130 C   0  0  0  0  0  0  0  0  0  0  0  0
  160.2900  211.1550  151.5530 S   0  0  0  0  0  0  0  0  0  0  0  0
  156.7650  214.2200  153.6110 C   0  0  0  0  0  2  0  0  0  0  0  0
  157.0240  213.4420  152.3250 C   0  0  0  0  0  2  0  0  0  0  0  0
  158.9950  212.4580  153.5480 C   0  0  2  0  0  3  0  0  0  0  0  0
  157.3490  213.4870  154.8280 C   0  0  1  0  0  3  0  0  0  0  0  0
  158.7150  211.5960  152.3330 C   0  0  1  0  0  3  0  0  0  0  0  0
  157.9610  212.2520  154.4940 O   0  0  0  0  0  0  0  0  0  0  0  0
  158.5060  213.0930  152.2370 C   0  0  1  0  0  3  0  0  0  0  0  0
  158.6560  213.7560  156.8150 O   0  0  0  0  0  1  0  0  0  0  0  0
  158.2680  214.3970  155.6360 C   0  0  0  0  0  2  0  0  0  0  0  0
  161.1320  207.8490  147.1030 C   0  0  0  0  0  2  0  0  0  0  0  0
  161.4280  205.2880  147.0230 C   0  0  0  0  0  2  0  0  0  0  0  0
  161.5340  206.6930  144.9630 C   0  0  0  0  0  3  0  0  0  0  0  0
  161.2880  204.2200  144.7520 C   0  0  0  0  0  2  0  0  0  0  0  0
  161.4360  206.6150  146.3010 C   0  0  0  0  0  0  0  0  0  0  0  0
  161.8710  204.1070  146.1560 C   0  0  2  0  0  3  0  0  0  0  0  0
  161.8290  205.4890  144.1100 C   0  0  1  0  0  3  0  0  0  0  0  0
  161.4320  202.8670  146.7710 N   0  0  0  0  0  2  0  0  0  0  0  0
  160.5070  202.2270  145.8470 C   0  0  0  0  0  2  0  0  0  0  0  0
  160.4300  200.7430  146.1460 C   0  0  0  0  0  1  0  0  0  0  0  0
  161.2720  205.6620  142.8410 O   0  0  0  0  0  0  0  0  0  0  0  0
  161.7180  206.8400  142.4380 O   0  0  0  0  0  0  0  0  0  0  0  0
  162.0680  206.6490  141.0970 C   0  0  0  0  0  2  0  0  0  0  0  0
  161.5520  207.8360  140.2840 C   0  0  1  0  0  3  0  0  0  0  0  0
  162.0930  209.1860  140.7930 C   0  0  1  0  0  3  0  0  0  0  0  0
  163.1090  209.7630  139.8190 C   0  0  0  0  0  1  0  0  0  0  0  0
  161.0210  210.2020  141.0400 C   0  0  0  0  0  0  0  0  0  0  0  0
  159.9060  210.1190  140.4500 O   0  0  0  0  0  0  0  0  0  0  0  0
  161.2960  211.3000  141.9130 N   0  0  0  0  0  2  0  0  0  0  0  0
  160.2800  212.2690  142.2960 C   0  0  1  0  0  3  0  0  0  0  0  0
  160.6280  212.8600  143.6480 C   0  0  0  0  0  1  0  0  0  0  0  0
  160.2150  213.3340  141.3080 N   0  0  0  0  0  2  0  0  0  0  0  0
  157.9210  213.0860  140.8850 O   0  0  0  0  0  0  0  0  0  0  0  0
  159.0050  213.6820  140.6330 C   0  0  0  0  0  3  0  0  0  0  0  0
  162.5260  206.3190  138.5040 C   0  0  0  0  0  1  0  0  0  0  0  0
  161.8200  207.6450  138.7820 C   0  0  1  0  0  3  0  0  0  0  0  0
  160.6230  207.6960  138.0650 O   0  0  0  0  0  0  0  0  0  0  0  0
  160.7110  208.8600  137.2940 C   0  0  0  0  0  1  0  0  0  0  0  0
  1  2  1  0  0  0  0
  2  3  1  6  0  0  0
  2  8  1  0  0  0  0
  4  3  1  0  0  0  0
  5 32  1  6  0  0  0
  5  4  1  0  0  0  0
  5  1  1  0  0  0  0
  7  6  1  0  0  0  0
  8 11  1  0  0  0  0
  8 14  1  1  0  0  0
  8 10  1  0  0  0  0
  9  6  1  0  0  0  0
  9 21  1  0  0  0  0
 10  9  2  0  0  0  0
 11 22  1  1  0  0  0
 11  7  1  0  0  0  0
 12 13  1  0  0  0  0
 13 16  1  0  0  0  0
 14 18  2  0  0  0  0
 15 13  2  0  0  0  0
 15 14  1  0  0  0  0
 16 17  2  0  0  0  0
 18 17  1  0  0  0  0
 19 21  2  0  0  0  0
 21 20  1  0  0  0  0
 23 26  1  0  0  0  0
 24 23  1  0  0  0  0
 25 28  1  1  0  0  0
 26 31  1  6  0  0  0
 27 22  1  6  0  0  0
 27 25  1  0  0  0  0
 28 26  1  0  0  0  0
 29 24  1  1  0  0  0
 29 27  1  0  0  0  0
 29 25  1  0  0  0  0
 31 30  1  0  0  0  0
 34 36  2  0  0  0  0
 35 37  1  0  0  0  0
 36 33  1  0  0  0  0
 36 32  1  0  0  0  0
 37 39  1  1  0  0  0
 37 33  1  0  0  0  0
 38 42  1  6  0  0  0
 38 35  1  0  0  0  0
 38 34  1  0  0  0  0
 40 41  1  0  0  0  0
 40 39  1  0  0  0  0
 43 42  1  0  0  0  0
 44 43  1  0  0  0  0
 45 46  1  0  0  0  0
 45 44  1  1  0  0  0
 46 47  1  6  0  0  0
 46 48  1  0  0  0  0
 48 50  1  0  0  0  0
 49 48  2  0  0  0  0
 50 51  1  0  0  0  0
 51 52  1  1  0  0  0
 53 51  1  0  0  0  0
 55 54  2  0  0  0  0
 55 53  1  0  0  0  0
 57 56  1  1  0  0  0
 57 45  1  0  0  0  0
 58 57  1  0  0  0  0
 59 58  1  0  0  0  0
M  END
>  <MODEL>
1

>  <REMARK>
 VINA RESULT:      -0.5      0.000      0.000
  Name = 
  20 active torsions:
  status: ('A' for Active; 'I' for Inactive)
    1  A    between atoms: O_1  and  C_27
    2  A    between atoms: C_5  and  N_31
    3  A    between atoms: N_10  and  C_22
    4  A    between atoms: C_16  and  C_30
    5  A    between atoms: C_17  and  C_51
    6  A    between atoms: C_19  and  C_30
    7  A    between atoms: C_22  and  N_54
    8  A    between atoms: S_24  and  C_29
    9  A    between atoms: S_24  and  C_56
   10  A    between atoms: C_25  and  C_59
   11  A    between atoms: C_27  and  C_36
   12  A    between atoms: C_28  and  C_32
   13  A    between atoms: N_31  and  C_33
   14  A    between atoms: C_32  and  C_36
   15  A    between atoms: C_35  and  C_55
   16  A    between atoms: C_36  and  C_47
   17  A    between atoms: C_47  and  O_48
   18  A    between atoms: O_48  and  O_50
   19  A    between atoms: C_49  and  O_50
   20  A    between atoms: C_58  and  C_59
                            x       y       z     vdW  Elec       q    Type
                         _______ _______ _______ _____ _____    ______ ____

>  <TORSDO>
F 20

$$$$
=
 OpenBabel11072413403D

 59 64  0  0  1  0  0  0  0  0999 V2000
  159.2120  208.8430  154.6770 S   0  0  0  0  0  0  0  0  0  0  0  0
  158.8440  210.2450  153.5580 C   0  0  2  0  0  3  0  0  0  0  0  0
  159.9850  210.4290  152.5520 C   0  0  0  0  0  2  0  0  0  0  0  0
  160.8990  209.2280  152.6110 C   0  0  0  0  0  2  0  0  0  0  0  0
  160.9060  208.7450  154.0460 C   0  0  2  0  0  3  0  0  0  0  0  0
  159.5780  214.1910  154.8140 C   0  0  0  0  0  2  0  0  0  0  0  0
  158.3860  213.9780  154.0860 O   0  0  0  0  0  0  0  0  0  0  0  0
  158.4740  211.5430  154.3270 C   0  0  1  0  0  0  0  0  0  0  0  0
  159.9640  213.0230  155.6890 C   0  0  0  0  0  0  0  0  0  0  0  0
  159.5040  211.7990  155.4060 C   0  0  0  0  0  3  0  0  0  0  0  0
  158.4830  212.7660  153.3610 C   0  0  2  0  0  3  0  0  0  0  0  0
  154.1260  213.8490  156.2270 Cl  0  0  0  0  0  0  0  0  0  0  0  0
  155.0790  212.4160  155.9000 C   0  0  0  0  0  0  0  0  0  0  0  0
  157.0970  211.3940  154.9840 C   0  0  0  0  0  0  0  0  0  0  0  0
  156.3030  212.5300  155.2350 C   0  0  0  0  0  3  0  0  0  0  0  0
  154.6300  211.1640  156.3260 C   0  0  0  0  0  3  0  0  0  0  0  0
  155.4060  210.0270  156.0900 C   0  0  0  0  0  3  0  0  0  0  0  0
  156.6330  210.1410  155.4330 C   0  0  0  0  0  3  0  0  0  0  0  0
  161.1640  214.3440  157.2600 O   0  0  0  0  0  0  0  0  0  0  0  0
  161.7470  212.0980  157.2030 N   0  0  0  0  0  1  0  0  0  0  0  0
  160.9780  213.2090  156.7420 C   0  0  0  0  0  0  0  0  0  0  0  0
  159.8520  212.7910  152.1320 S   0  0  0  0  0  0  0  0  0  0  0  0
  156.4510  214.1240  148.5660 C   0  0  0  0  0  2  0  0  0  0  0  0
  156.6480  214.2040  150.0760 C   0  0  0  0  0  2  0  0  0  0  0  0
  158.9680  213.3330  149.6250 C   0  0  2  0  0  3  0  0  0  0  0  0
  157.7940  214.2270  147.8280 C   0  0  1  0  0  3  0  0  0  0  0  0
  158.9430  213.9050  151.0290 C   0  0  1  0  0  3  0  0  0  0  0  0
  158.8980  214.4040  148.7010 O   0  0  0  0  0  0  0  0  0  0  0  0
  157.7120  213.1980  150.5000 C   0  0  1  0  0  3  0  0  0  0  0  0
  158.8610  213.4310  145.8380 O   0  0  0  0  0  1  0  0  0  0  0  0
  157.9910  213.0600  146.8660 C   0  0  0  0  0  2  0  0  0  0  0  0
  161.4920  207.3390  154.2120 C   0  0  0  0  0  2  0  0  0  0  0  0
  161.6650  205.0170  153.1030 C   0  0  0  0  0  2  0  0  0  0  0  0
  161.2190  207.0820  151.7760 C   0  0  0  0  0  3  0  0  0  0  0  0
  160.8390  204.8480  150.7350 C   0  0  0  0  0  2  0  0  0  0  0  0
  161.5090  206.5120  152.9570 C   0  0  0  0  0  0  0  0  0  0  0  0
  161.7980  204.2740  151.7710 C   0  0  2  0  0  3  0  0  0  0  0  0
  161.2140  206.3020  150.4890 C   0  0  1  0  0  3  0  0  0  0  0  0
  161.5140  202.8650  151.9750 N   0  0  0  0  0  2  0  0  0  0  0  0
  161.7640  202.1830  150.7120 C   0  0  0  0  0  2  0  0  0  0  0  0
  160.4670  201.6150  150.1730 C   0  0  0  0  0  1  0  0  0  0  0  0
  160.3190  206.8850  149.5880 O   0  0  0  0  0  0  0  0  0  0  0  0
  159.9750  205.9010  148.7750 O   0  0  0  0  0  0  0  0  0  0  0  0
  160.1920  206.4070  147.4900 C   0  0  0  0  0  2  0  0  0  0  0  0
  161.1780  205.4910  146.7640 C   0  0  1  0  0  3  0  0  0  0  0  0
  160.7160  205.1300  145.3390 C   0  0  1  0  0  3  0  0  0  0  0  0
  161.8200  205.3970  144.3290 C   0  0  0  0  0  1  0  0  0  0  0  0
  160.2620  203.7090  145.2030 C   0  0  0  0  0  0  0  0  0  0  0  0
  159.7270  203.3030  144.1320 O   0  0  0  0  0  0  0  0  0  0  0  0
  160.3950  202.8300  146.3220 N   0  0  0  0  0  2  0  0  0  0  0  0
  160.0860  201.4100  146.2430 C   0  0  1  0  0  3  0  0  0  0  0  0
  160.0860  200.9720  144.7910 C   0  0  0  0  0  1  0  0  0  0  0  0
  161.0810  200.6450  146.9760 N   0  0  0  0  0  2  0  0  0  0  0  0
  161.3070  198.9760  145.3450 O   0  0  0  0  0  0  0  0  0  0  0  0
  161.6410  199.4310  146.4740 C   0  0  0  0  0  3  0  0  0  0  0  0
  162.7160  207.2460  147.7480 C   0  0  0  0  0  1  0  0  0  0  0  0
  162.5980  206.0780  146.7710 C   0  0  1  0  0  3  0  0  0  0  0  0
  163.5300  205.0940  147.1050 O   0  0  0  0  0  0  0  0  0  0  0  0
  162.7800  203.9230  147.2620 C   0  0  0  0  0  1  0  0  0  0  0  0
  2  3  1  1  0  0  0
  2  8  1  0  0  0  0
  2  1  1  0  0  0  0
  3  4  1  0  0  0  0
  4  5  1  0  0  0  0
  5 32  1  6  0  0  0
  5  1  1  0  0  0  0
  6  9  1  0  0  0  0
  7  6  1  0  0  0  0
  8 14  1  1  0  0  0
  8 10  1  0  0  0  0
  9 21  1  0  0  0  0
 10  9  2  0  0  0  0
 11 22  1  1  0  0  0
 11  7  1  0  0  0  0
 11  8  1  0  0  0  0
 13 12  1  0  0  0  0
 13 16  1  0  0  0  0
 14 15  1  0  0  0  0
 14 18  2  0  0  0  0
 15 13  2  0  0  0  0
 17 16  2  0  0  0  0
 18 17  1  0  0  0  0
 21 20  1  0  0  0  0
 21 19  2  0  0  0  0
 23 24  1  0  0  0  0
 25 28  1  6  0  0  0
 25 29  1  0  0  0  0
 25 27  1  0  0  0  0
 26 31  1  1  0  0  0
 26 23  1  0  0  0  0
 26 28  1  0  0  0  0
 27 22  1  1  0  0  0
 29 24  1  6  0  0  0
 29 27  1  0  0  0  0
 30 31  1  0  0  0  0
 34 36  2  0  0  0  0
 35 37  1  0  0  0  0
 36 33  1  0  0  0  0
 36 32  1  0  0  0  0
 37 39  1  1  0  0  0
 37 33  1  0  0  0  0
 38 42  1  6  0  0  0
 38 35  1  0  0  0  0
 38 34  1  0  0  0  0
 40 39  1  0  0  0  0
 41 40  1  0  0  0  0
 43 42  1  0  0  0  0
 44 43  1  0  0  0  0
 45 57  1  0  0  0  0
 45 44  1  6  0  0  0
 46 47  1  6  0  0  0
 46 45  1  0  0  0  0
 48 46  1  0  0  0  0
 48 50  1  0  0  0  0
 49 48  2  0  0  0  0
 51 52  1  6  0  0  0
 51 50  1  0  0  0  0
 51 53  1  0  0  0  0
 54 55  2  0  0  0  0
 55 53  1  0  0  0  0
 57 58  1  0  0  0  0
 57 56  1  1  0  0  0
 58 59  1  0  0  0  0
M  END
>  <MODEL>
2

>  <REMARK>
 VINA RESULT:      -0.3      4.252      7.570
  Name = 
  20 active torsions:
  status: ('A' for Active; 'I' for Inactive)
    1  A    between atoms: O_1  and  C_27
    2  A    between atoms: C_5  and  N_31
    3  A    between atoms: N_10  and  C_22
    4  A    between atoms: C_16  and  C_30
    5  A    between atoms: C_17  and  C_51
    6  A    between atoms: C_19  and  C_30
    7  A    between atoms: C_22  and  N_54
    8  A    between atoms: S_24  and  C_29
    9  A    between atoms: S_24  and  C_56
   10  A    between atoms: C_25  and  C_59
   11  A    between atoms: C_27  and  C_36
   12  A    between atoms: C_28  and  C_32
   13  A    between atoms: N_31  and  C_33
   14  A    between atoms: C_32  and  C_36
   15  A    between atoms: C_35  and  C_55
   16  A    between atoms: C_36  and  C_47
   17  A    between atoms: C_47  and  O_48
   18  A    between atoms: O_48  and  O_50
   19  A    between atoms: C_49  and  O_50
   20  A    between atoms: C_58  and  C_59
                            x       y       z     vdW  Elec       q    Type
                         _______ _______ _______ _____ _____    ______ ____

>  <TORSDO>
F 20

$$$$
=
 OpenBabel11072413403D

 59 64  0  0  1  0  0  0  0  0999 V2000
  160.9990  210.2820  151.0640 S   0  0  0  0  0  0  0  0  0  0  0  0
  160.1750  211.0010  149.5950 C   0  0  2  0  0  3  0  0  0  0  0  0
  160.9000  210.5640  148.3180 C   0  0  0  0  0  2  0  0  0  0  0  0
  161.8710  209.4570  148.6520 C   0  0  0  0  0  2  0  0  0  0  0  0
  162.3900  209.7260  150.0480 C   0  0  2  0  0  3  0  0  0  0  0  0
  158.4130  214.4410  151.2540 C   0  0  0  0  0  2  0  0  0  0  0  0
  159.8200  214.3530  151.3470 O   0  0  0  0  0  0  0  0  0  0  0  0
  159.9830  212.5390  149.7100 C   0  0  1  0  0  0  0  0  0  0  0  0
  157.8540  213.8240  149.9940 C   0  0  0  0  0  0  0  0  0  0  0  0
  158.5610  212.8970  149.3390 C   0  0  0  0  0  3  0  0  0  0  0  0
  160.2230  213.0060  151.1770 C   0  0  2  0  0  3  0  0  0  0  0  0
  161.2740  213.8310  144.7610 Cl  0  0  0  0  0  0  0  0  0  0  0  0
  161.5940  213.8620  146.4840 C   0  0  0  0  0  0  0  0  0  0  0  0
  160.9400  213.2620  148.7570 C   0  0  0  0  0  0  0  0  0  0  0  0
  160.6910  213.2710  147.3700 C   0  0  0  0  0  3  0  0  0  0  0  0
  162.7630  214.4530  146.9680 C   0  0  0  0  0  3  0  0  0  0  0  0
  163.0300  214.4510  148.3390 C   0  0  0  0  0  3  0  0  0  0  0  0
  162.1310  213.8530  149.2260 C   0  0  0  0  0  3  0  0  0  0  0  0
  156.1970  214.4430  148.4050 O   0  0  0  0  0  0  0  0  0  0  0  0
  155.4090  214.0260  150.5480 N   0  0  0  0  0  1  0  0  0  0  0  0
  156.4670  214.1210  149.5950 C   0  0  0  0  0  0  0  0  0  0  0  0
  159.5400  211.9010  152.4800 S   0  0  0  0  0  0  0  0  0  0  0  0
  158.7760  214.2680  156.9370 C   0  0  0  0  0  2  0  0  0  0  0  0
  159.8530  214.1190  155.8670 C   0  0  0  0  0  2  0  0  0  0  0  0
  158.0880  212.9070  154.5380 C   0  0  2  0  0  3  0  0  0  0  0  0
  157.3710  214.2200  156.3190 C   0  0  1  0  0  3  0  0  0  0  0  0
  159.2100  213.2920  153.5940 C   0  0  1  0  0  3  0  0  0  0  0  0
  157.3880  214.0820  154.9070 O   0  0  0  0  0  0  0  0  0  0  0  0
  159.5490  212.8920  155.0150 C   0  0  1  0  0  3  0  0  0  0  0  0
  155.1560  213.3930  156.6930 O   0  0  0  0  0  1  0  0  0  0  0  0
  156.5010  213.1680  156.9990 C   0  0  0  0  0  2  0  0  0  0  0  0
  163.1040  208.5220  150.6740 C   0  0  0  0  0  2  0  0  0  0  0  0
  161.8410  208.9270  152.8860 C   0  0  0  0  0  2  0  0  0  0  0  0
  162.2140  206.6310  151.9820 C   0  0  0  0  0  3  0  0  0  0  0  0
  160.5470  206.9770  153.8040 C   0  0  0  0  0  2  0  0  0  0  0  0
  162.4290  207.9550  151.8910 C   0  0  0  0  0  0  0  0  0  0  0  0
  161.2890  208.2640  154.1500 C   0  0  2  0  0  3  0  0  0  0  0  0
  161.5380  206.0090  153.1730 C   0  0  1  0  0  3  0  0  0  0  0  0
  160.3880  209.1830  154.8230 N   0  0  0  0  0  2  0  0  0  0  0  0
  160.7020  209.1390  156.2440 C   0  0  0  0  0  2  0  0  0  0  0  0
  159.5560  209.7320  157.0390 C   0  0  0  0  0  1  0  0  0  0  0  0
  160.8850  204.8370  152.7850 O   0  0  0  0  0  0  0  0  0  0  0  0
  161.8340  204.0850  152.2550 O   0  0  0  0  0  0  0  0  0  0  0  0
  161.1730  202.9360  151.8100 C   0  0  0  0  0  2  0  0  0  0  0  0
  161.3260  202.8410  150.2920 C   0  0  1  0  0  3  0  0  0  0  0  0
  160.7740  201.5210  149.7200 C   0  0  1  0  0  3  0  0  0  0  0  0
  159.2640  201.4510  149.8830 C   0  0  0  0  0  1  0  0  0  0  0  0
  161.1210  201.3060  148.2780 C   0  0  0  0  0  0  0  0  0  0  0  0
  161.5830  200.1970  147.8850 O   0  0  0  0  0  0  0  0  0  0  0  0
  160.9720  202.3930  147.3620 N   0  0  0  0  0  2  0  0  0  0  0  0
  161.1770  202.2420  145.9290 C   0  0  1  0  0  3  0  0  0  0  0  0
  160.5910  200.9210  145.4700 C   0  0  0  0  0  1  0  0  0  0  0  0
  160.5250  203.3300  145.2190 N   0  0  0  0  0  2  0  0  0  0  0  0
  162.4490  204.6600  145.0610 O   0  0  0  0  0  0  0  0  0  0  0  0
  161.2180  204.5150  144.8250 C   0  0  0  0  0  3  0  0  0  0  0  0
  159.4930  204.5890  150.3410 C   0  0  0  0  0  1  0  0  0  0  0  0
  160.7160  204.0650  149.5910 C   0  0  1  0  0  3  0  0  0  0  0  0
  161.6650  205.0830  149.4770 O   0  0  0  0  0  0  0  0  0  0  0  0
  161.4860  205.6040  148.1910 C   0  0  0  0  0  1  0  0  0  0  0  0
  2  3  1  6  0  0  0
  2  8  1  0  0  0  0
  2  1  1  0  0  0  0
  3  4  1  0  0  0  0
  4  5  1  0  0  0  0
  5 32  1  1  0  0  0
  5  1  1  0  0  0  0
  6  7  1  0  0  0  0
  8 14  1  6  0  0  0
  8 11  1  0  0  0  0
  9  6  1  0  0  0  0
 10  8  1  0  0  0  0
 10  9  2  0  0  0  0
 11  7  1  0  0  0  0
 11 22  1  1  0  0  0
 12 13  1  0  0  0  0
 13 16  2  0  0  0  0
 13 15  1  0  0  0  0
 14 18  1  0  0  0  0
 15 14  2  0  0  0  0
 16 17  1  0  0  0  0
 17 18  2  0  0  0  0
 19 21  2  0  0  0  0
 21  9  1  0  0  0  0
 21 20  1  0  0  0  0
 24 23  1  0  0  0  0
 25 28  1  1  0  0  0
 25 29  1  0  0  0  0
 26 23  1  0  0  0  0
 26 31  1  1  0  0  0
 27 22  1  6  0  0  0
 27 25  1  0  0  0  0
 27 29  1  0  0  0  0
 28 26  1  0  0  0  0
 29 24  1  1  0  0  0
 30 31  1  0  0  0  0
 32 36  1  0  0  0  0
 33 37  1  0  0  0  0
 34 38  1  0  0  0  0
 35 37  1  0  0  0  0
 36 34  2  0  0  0  0
 36 33  1  0  0  0  0
 37 39  1  6  0  0  0
 38 42  1  6  0  0  0
 38 35  1  0  0  0  0
 39 40  1  0  0  0  0
 40 41  1  0  0  0  0
 43 42  1  0  0  0  0
 44 43  1  0  0  0  0
 45 44  1  1  0  0  0
 46 47  1  6  0  0  0
 46 45  1  0  0  0  0
 48 46  1  0  0  0  0
 49 48  2  0  0  0  0
 50 48  1  0  0  0  0
 51 52  1  6  0  0  0
 51 50  1  0  0  0  0
 53 51  1  0  0  0  0
 55 54  2  0  0  0  0
 55 53  1  0  0  0  0
 57 45  1  0  0  0  0
 57 56  1  1  0  0  0
 58 57  1  0  0  0  0
 59 58  1  0  0  0  0
M  END
>  <MODEL>
3

>  <REMARK>
 VINA RESULT:       0.5      4.350      8.736
  Name = 
  20 active torsions:
  status: ('A' for Active; 'I' for Inactive)
    1  A    between atoms: O_1  and  C_27
    2  A    between atoms: C_5  and  N_31
    3  A    between atoms: N_10  and  C_22
    4  A    between atoms: C_16  and  C_30
    5  A    between atoms: C_17  and  C_51
    6  A    between atoms: C_19  and  C_30
    7  A    between atoms: C_22  and  N_54
    8  A    between atoms: S_24  and  C_29
    9  A    between atoms: S_24  and  C_56
   10  A    between atoms: C_25  and  C_59
   11  A    between atoms: C_27  and  C_36
   12  A    between atoms: C_28  and  C_32
   13  A    between atoms: N_31  and  C_33
   14  A    between atoms: C_32  and  C_36
   15  A    between atoms: C_35  and  C_55
   16  A    between atoms: C_36  and  C_47
   17  A    between atoms: C_47  and  O_48
   18  A    between atoms: O_48  and  O_50
   19  A    between atoms: C_49  and  O_50
   20  A    between atoms: C_58  and  C_59
                            x       y       z     vdW  Elec       q    Type
                         _______ _______ _______ _____ _____    ______ ____

>  <TORSDO>
F 20

$$$$
=
 OpenBabel11072413403D

 59 64  0  0  1  0  0  0  0  0999 V2000
  161.0000  209.3030  152.6880 S   0  0  0  0  0  0  0  0  0  0  0  0
  160.0760  210.6570  153.5020 C   0  0  2  0  0  3  0  0  0  0  0  0
  160.4630  212.0050  152.8840 C   0  0  0  0  0  2  0  0  0  0  0  0
  161.2520  211.7630  151.6180 C   0  0  0  0  0  2  0  0  0  0  0  0
  162.0550  210.4980  151.8300 C   0  0  2  0  0  3  0  0  0  0  0  0
  161.9360  209.4660  157.0810 C   0  0  0  0  0  2  0  0  0  0  0  0
  161.8260  210.8580  156.8670 O   0  0  0  0  0  0  0  0  0  0  0  0
  160.2020  210.6210  155.0500 C   0  0  1  0  0  0  0  0  0  0  0  0
  160.7760  208.6790  156.5200 C   0  0  0  0  0  0  0  0  0  0  0  0
  160.0350  209.1980  155.5350 C   0  0  0  0  0  3  0  0  0  0  0  0
  161.6140  211.1110  155.4900 C   0  0  2  0  0  3  0  0  0  0  0  0
  155.3070  211.0020  156.9810 Cl  0  0  0  0  0  0  0  0  0  0  0  0
  156.8480  211.7240  156.5660 C   0  0  0  0  0  0  0  0  0  0  0  0
  159.1140  211.4920  155.6880 C   0  0  0  0  0  0  0  0  0  0  0  0
  157.8750  210.9280  156.0520 C   0  0  0  0  0  3  0  0  0  0  0  0
  157.0420  213.0980  156.7220 C   0  0  0  0  0  3  0  0  0  0  0  0
  158.2620  213.6770  156.3620 C   0  0  0  0  0  3  0  0  0  0  0  0
  159.2860  212.8820  155.8420 C   0  0  0  0  0  3  0  0  0  0  0  0
  161.5620  206.5600  157.2580 O   0  0  0  0  0  0  0  0  0  0  0  0
  159.2610  206.7320  157.0120 N   0  0  0  0  0  1  0  0  0  0  0  0
  160.5770  207.2810  156.9400 C   0  0  0  0  0  0  0  0  0  0  0  0
  163.0130  210.5280  154.4460 S   0  0  0  0  0  0  0  0  0  0  0  0
  167.4440  212.8720  155.4070 C   0  0  0  0  0  2  0  0  0  0  0  0
  166.2650  212.9600  154.4450 C   0  0  0  0  0  2  0  0  0  0  0  0
  165.1870  211.2190  155.9130 C   0  0  2  0  0  3  0  0  0  0  0  0
  166.9920  212.3920  156.7940 C   0  0  1  0  0  3  0  0  0  0  0  0
  164.1080  211.8400  155.0470 C   0  0  1  0  0  3  0  0  0  0  0  0
  165.5930  212.1730  156.8790 O   0  0  0  0  0  0  0  0  0  0  0  0
  165.4950  211.6440  154.4690 C   0  0  1  0  0  3  0  0  0  0  0  0
  168.4540  210.6030  156.1680 O   0  0  0  0  0  1  0  0  0  0  0  0
  167.8020  211.1860  157.2570 C   0  0  0  0  0  2  0  0  0  0  0  0
  162.6300  209.9180  150.5330 C   0  0  0  0  0  2  0  0  0  0  0  0
  162.6180  207.5150  151.4710 C   0  0  0  0  0  2  0  0  0  0  0  0
  161.7250  208.0500  149.2030 C   0  0  0  0  0  3  0  0  0  0  0  0
  161.1950  205.8460  150.2440 C   0  0  0  0  0  2  0  0  0  0  0  0
  162.3510  208.4570  150.3200 C   0  0  0  0  0  0  0  0  0  0  0  0
  162.4260  206.0380  151.1220 C   0  0  2  0  0  3  0  0  0  0  0  0
  161.4140  206.6010  148.9410 C   0  0  1  0  0  3  0  0  0  0  0  0
  162.2800  205.2680  152.3440 N   0  0  0  0  0  2  0  0  0  0  0  0
  160.8800  205.3380  152.7390 C   0  0  0  0  0  2  0  0  0  0  0  0
  160.7560  206.0900  154.0490 C   0  0  0  0  0  1  0  0  0  0  0  0
  160.2810  206.5010  148.1290 O   0  0  0  0  0  0  0  0  0  0  0  0
  160.7180  206.7700  146.9110 O   0  0  0  0  0  0  0  0  0  0  0  0
  160.0650  205.8470  146.0860 C   0  0  0  0  0  2  0  0  0  0  0  0
  160.9240  204.5860  145.9890 C   0  0  1  0  0  3  0  0  0  0  0  0
  160.0850  203.3090  145.7960 C   0  0  1  0  0  3  0  0  0  0  0  0
  160.0990  202.8680  144.3400 C   0  0  0  0  0  1  0  0  0  0  0  0
  160.5330  202.1670  146.6560 C   0  0  0  0  0  0  0  0  0  0  0  0
  161.4170  201.3610  146.2480 O   0  0  0  0  0  0  0  0  0  0  0  0
  159.9070  201.9700  147.9260 N   0  0  0  0  0  2  0  0  0  0  0  0
  160.3550  200.9580  148.8710 C   0  0  1  0  0  3  0  0  0  0  0  0
  161.8440  200.7270  148.6970 C   0  0  0  0  0  1  0  0  0  0  0  0
  160.0920  201.4000  150.2300 N   0  0  0  0  0  2  0  0  0  0  0  0
  162.0290  202.7120  150.4020 O   0  0  0  0  0  0  0  0  0  0  0  0
  160.9770  202.2680  150.9410 C   0  0  0  0  0  3  0  0  0  0  0  0
  161.5900  205.7260  143.8270 C   0  0  0  0  0  1  0  0  0  0  0  0
  162.0050  204.7280  144.9050 C   0  0  1  0  0  3  0  0  0  0  0  0
  163.2150  205.1310  145.4750 O   0  0  0  0  0  0  0  0  0  0  0  0
  163.3050  204.4190  146.6760 C   0  0  0  0  0  1  0  0  0  0  0  0
  1  2  1  0  0  0  0
  2  3  1  6  0  0  0
  2  8  1  0  0  0  0
  4  5  1  0  0  0  0
  4  3  1  0  0  0  0
  5 32  1  6  0  0  0
  5  1  1  0  0  0  0
  7  6  1  0  0  0  0
  8 11  1  0  0  0  0
  8 10  1  0  0  0  0
  8 14  1  1  0  0  0
  9 21  1  0  0  0  0
  9  6  1  0  0  0  0
 10  9  2  0  0  0  0
 11 22  1  6  0  0  0
 11  7  1  0  0  0  0
 13 16  1  0  0  0  0
 13 12  1  0  0  0  0
 14 18  2  0  0  0  0
 14 15  1  0  0  0  0
 15 13  2  0  0  0  0
 17 16  2  0  0  0  0
 18 17  1  0  0  0  0
 21 20  1  0  0  0  0
 21 19  2  0  0  0  0
 23 26  1  0  0  0  0
 24 23  1  0  0  0  0
 25 28  1  1  0  0  0
 26 28  1  0  0  0  0
 26 31  1  6  0  0  0
 27 22  1  6  0  0  0
 27 25  1  0  0  0  0
 29 24  1  1  0  0  0
 29 27  1  0  0  0  0
 29 25  1  0  0  0  0
 30 31  1  0  0  0  0
 34 36  2  0  0  0  0
 35 37  1  0  0  0  0
 36 32  1  0  0  0  0
 36 33  1  0  0  0  0
 37 33  1  0  0  0  0
 37 39  1  1  0  0  0
 38 42  1  6  0  0  0
 38 34  1  0  0  0  0
 38 35  1  0  0  0  0
 39 40  1  0  0  0  0
 40 41  1  0  0  0  0
 43 42  1  0  0  0  0
 44 43  1  0  0  0  0
 45 44  1  6  0  0  0
 46 47  1  6  0  0  0
 46 45  1  0  0  0  0
 46 48  1  0  0  0  0
 48 50  1  0  0  0  0
 49 48  2  0  0  0  0
 50 51  1  0  0  0  0
 51 52  1  1  0  0  0
 51 53  1  0  0  0  0
 53 55  1  0  0  0  0
 54 55  2  0  0  0  0
 57 56  1  6  0  0  0
 57 58  1  0  0  0  0
 57 45  1  0  0  0  0
 58 59  1  0  0  0  0
M  END
>  <MODEL>
4

>  <REMARK>
 VINA RESULT:       1.6      4.596      7.977
  Name = 
  20 active torsions:
  status: ('A' for Active; 'I' for Inactive)
    1  A    between atoms: O_1  and  C_27
    2  A    between atoms: C_5  and  N_31
    3  A    between atoms: N_10  and  C_22
    4  A    between atoms: C_16  and  C_30
    5  A    between atoms: C_17  and  C_51
    6  A    between atoms: C_19  and  C_30
    7  A    between atoms: C_22  and  N_54
    8  A    between atoms: S_24  and  C_29
    9  A    between atoms: S_24  and  C_56
   10  A    between atoms: C_25  and  C_59
   11  A    between atoms: C_27  and  C_36
   12  A    between atoms: C_28  and  C_32
   13  A    between atoms: N_31  and  C_33
   14  A    between atoms: C_32  and  C_36
   15  A    between atoms: C_35  and  C_55
   16  A    between atoms: C_36  and  C_47
   17  A    between atoms: C_47  and  O_48
   18  A    between atoms: O_48  and  O_50
   19  A    between atoms: C_49  and  O_50
   20  A    between atoms: C_58  and  C_59
                            x       y       z     vdW  Elec       q    Type
                         _______ _______ _______ _____ _____    ______ ____

>  <TORSDO>
F 20

$$$$
