=
 OpenBabel11072413493D

 29 32  0  0  1  0  0  0  0  0999 V2000
  161.1310  208.7500  152.1030 C   0  0  1  0  0  3  0  0  0  0  0  0
  161.2990  209.9600  155.5210 C   0  0  0  0  0  3  0  0  0  0  0  0
  159.5550  211.9790  156.7610 O   0  0  0  0  0  0  0  0  0  0  0  0
  158.3620  212.0570  154.7820 N   0  0  0  0  0  2  0  0  0  0  0  0
  161.1670  209.5610  153.3660 C   0  0  0  0  0  0  0  0  0  0  0  0
  160.1940  211.5840  152.4130 N   0  0  0  0  0  0  0  0  0  0  0  0
  157.9930  211.5410  153.4700 C   0  0  0  0  0  2  0  0  0  0  0  0
  160.7290  210.8010  153.4790 C   0  0  0  0  0  0  0  0  0  0  0  0
  159.5460  211.7350  155.5260 C   0  0  0  0  0  0  0  0  0  0  0  0
  161.4990  209.0300  154.6410 N   0  0  0  0  0  0  0  0  0  0  0  0
  158.9580  211.9750  152.4110 C   0  0  0  0  0  3  0  0  0  0  0  0
  160.8260  211.2400  154.8970 C   0  0  1  0  0  3  0  0  0  0  0  0
  163.0300  210.1520  151.6690 O   0  0  0  0  0  1  0  0  0  0  0  0
  162.3190  209.0520  151.1850 C   0  0  2  0  0  3  0  0  0  0  0  0
  161.8630  209.3360  149.8720 O   0  0  0  0  0  0  0  0  0  0  0  0
  161.9960  210.5950  149.3560 C   0  0  0  0  0  0  0  0  0  0  0  0
  162.1120  211.7050  148.9010 C   0  0  0  0  0  3  0  0  0  0  0  0
  160.9920  207.2580  152.4120 C   0  0  0  0  0  2  0  0  0  0  0  0
  162.1200  206.4300  151.8080 C   0  0  0  0  0  2  0  0  0  0  0  0
  161.6890  204.9830  151.6380 C   0  0  0  0  0  2  0  0  0  0  0  0
  161.1080  204.9620  148.2990 O   0  0  0  0  0  0  0  0  0  0  0  0
  161.3640  203.6890  148.8170 C   0  0  2  0  0  3  0  0  0  0  0  0
  161.0200  201.0940  149.8680 C   0  0  0  0  0  3  0  0  0  0  0  0
  161.0820  202.5650  147.8290 C   0  0  0  0  0  2  0  0  0  0  0  0
  160.8830  202.2870  150.7930 C   0  0  0  0  0  2  0  0  0  0  0  0
  160.5330  204.8700  150.6430 C   0  0  1  0  0  3  0  0  0  0  0  0
  161.1530  201.2220  148.5290 C   0  0  0  0  0  3  0  0  0  0  0  0
  160.8100  205.7610  149.4310 C   0  0  0  0  0  2  0  0  0  0  0  0
  160.4580  203.5180  149.9940 C   0  0  1  0  0  3  0  0  0  0  0  0
  1 18  1  1  0  0  0
  1  5  1  0  0  0  0
  4  9  1  0  0  0  0
  5  8  2  0  0  0  0
  5 10  1  0  0  0  0
  6  8  1  0  0  0  0
  7  4  1  0  0  0  0
  8 12  1  0  0  0  0
  9  3  2  0  0  0  0
 10  2  2  0  0  0  0
 11  6  2  0  0  0  0
 11  7  1  0  0  0  0
 12  2  1  1  0  0  0
 12  9  1  0  0  0  0
 14 13  1  1  0  0  0
 14  1  1  0  0  0  0
 15 14  1  0  0  0  0
 16 15  1  0  0  0  0
 17 16  3  0  0  0  0
 19 18  1  0  0  0  0
 20 19  1  0  0  0  0
 21 22  1  0  0  0  0
 21 28  1  0  0  0  0
 22 24  1  6  0  0  0
 22 29  1  0  0  0  0
 23 25  1  0  0  0  0
 24 27  1  0  0  0  0
 26 20  1  1  0  0  0
 27 23  2  0  0  0  0
 28 26  1  0  0  0  0
 29 26  1  0  0  0  0
 29 25  1  1  0  0  0
M  END
>  <MODEL>
1

>  <REMARK>
 VINA RESULT:      -8.1      0.000      0.000
  Name = 
  8 active torsions:
  status: ('A' for Active; 'I' for Inactive)
    1  A    between atoms: C_1  and  C_17
    2  A    between atoms: C_1  and  C_21
    3  A    between atoms: C_5  and  O_8
    4  A    between atoms: O_8  and  C_9
    5  A    between atoms: C_9  and  C_15
    6  A    between atoms: C_11  and  C_15
    7  A    between atoms: C_15  and  C_17
    8  A    between atoms: C_21  and  C_26
                            x       y       z     vdW  Elec       q    Type
                         _______ _______ _______ _____ _____    ______ ____

>  <TORSDO>
F 8

$$$$
=
 OpenBabel11072413493D

 29 32  0  0  1  0  0  0  0  0999 V2000
  160.8870  208.8090  152.1040 C   0  0  1  0  0  3  0  0  0  0  0  0
  158.9470  211.3870  153.7670 C   0  0  0  0  0  3  0  0  0  0  0  0
  159.4190  212.4860  156.4560 O   0  0  0  0  0  0  0  0  0  0  0  0
  161.3000  211.1480  156.5920 N   0  0  0  0  0  2  0  0  0  0  0  0
  160.1030  209.6590  153.0620 C   0  0  0  0  0  0  0  0  0  0  0  0
  160.8700  208.5470  155.0930 N   0  0  0  0  0  0  0  0  0  0  0  0
  162.3200  210.2830  156.0120 C   0  0  0  0  0  2  0  0  0  0  0  0
  160.1300  209.5350  154.3760 C   0  0  0  0  0  0  0  0  0  0  0  0
  160.0270  211.4760  156.0150 C   0  0  0  0  0  0  0  0  0  0  0  0
  159.3870  210.8270  152.6850 N   0  0  0  0  0  0  0  0  0  0  0  0
  161.8440  208.8700  155.8840 C   0  0  0  0  0  3  0  0  0  0  0  0
  159.3170  210.6140  154.9990 C   0  0  1  0  0  3  0  0  0  0  0  0
  162.5990  210.3750  152.7160 O   0  0  0  0  0  1  0  0  0  0  0  0
  162.2420  209.4290  151.7540 C   0  0  2  0  0  3  0  0  0  0  0  0
  162.1790  210.0580  150.4850 O   0  0  0  0  0  0  0  0  0  0  0  0
  162.0630  209.3050  149.3500 C   0  0  0  0  0  0  0  0  0  0  0  0
  161.9600  208.6410  148.3490 C   0  0  0  0  0  3  0  0  0  0  0  0
  161.0130  207.3730  152.6200 C   0  0  0  0  0  2  0  0  0  0  0  0
  162.0500  206.5660  151.8490 C   0  0  0  0  0  2  0  0  0  0  0  0
  161.6440  205.1040  151.7770 C   0  0  0  0  0  2  0  0  0  0  0  0
  160.9630  204.9760  148.4600 O   0  0  0  0  0  0  0  0  0  0  0  0
  161.2970  203.7290  148.9970 C   0  0  2  0  0  3  0  0  0  0  0  0
  161.1160  201.1460  150.1150 C   0  0  0  0  0  3  0  0  0  0  0  0
  161.0410  202.5700  148.0430 C   0  0  0  0  0  2  0  0  0  0  0  0
  160.9480  202.3520  151.0170 C   0  0  0  0  0  2  0  0  0  0  0  0
  160.4650  204.9110  150.8220 C   0  0  1  0  0  3  0  0  0  0  0  0
  161.2010  201.2490  148.7700 C   0  0  0  0  0  3  0  0  0  0  0  0
  160.6600  205.7850  149.5820 C   0  0  0  0  0  2  0  0  0  0  0  0
  160.4370  203.5420  150.2060 C   0  0  1  0  0  3  0  0  0  0  0  0
  1 18  1  1  0  0  0
  1  5  1  0  0  0  0
  5  8  2  0  0  0  0
  6 11  2  0  0  0  0
  7  4  1  0  0  0  0
  8 12  1  0  0  0  0
  8  6  1  0  0  0  0
  9  3  2  0  0  0  0
  9  4  1  0  0  0  0
 10  5  1  0  0  0  0
 10  2  2  0  0  0  0
 11  7  1  0  0  0  0
 12  2  1  6  0  0  0
 12  9  1  0  0  0  0
 14  1  1  0  0  0  0
 14 13  1  1  0  0  0
 15 14  1  0  0  0  0
 16 15  1  0  0  0  0
 17 16  3  0  0  0  0
 19 18  1  0  0  0  0
 20 19  1  0  0  0  0
 21 22  1  0  0  0  0
 21 28  1  0  0  0  0
 22 24  1  6  0  0  0
 22 29  1  0  0  0  0
 23 25  1  0  0  0  0
 24 27  1  0  0  0  0
 26 20  1  1  0  0  0
 27 23  2  0  0  0  0
 28 26  1  0  0  0  0
 29 26  1  0  0  0  0
 29 25  1  1  0  0  0
M  END
>  <MODEL>
2

>  <REMARK>
 VINA RESULT:      -7.7      1.029      2.125
  Name = 
  8 active torsions:
  status: ('A' for Active; 'I' for Inactive)
    1  A    between atoms: C_1  and  C_17
    2  A    between atoms: C_1  and  C_21
    3  A    between atoms: C_5  and  O_8
    4  A    between atoms: O_8  and  C_9
    5  A    between atoms: C_9  and  C_15
    6  A    between atoms: C_11  and  C_15
    7  A    between atoms: C_15  and  C_17
    8  A    between atoms: C_21  and  C_26
                            x       y       z     vdW  Elec       q    Type
                         _______ _______ _______ _____ _____    ______ ____

>  <TORSDO>
F 8

$$$$
=
 OpenBabel11072413493D

 29 32  0  0  1  0  0  0  0  0999 V2000
  161.5800  207.5070  152.8770 C   0  0  1  0  0  3  0  0  0  0  0  0
  159.8070  208.4690  155.8950 C   0  0  0  0  0  3  0  0  0  0  0  0
  158.2500  210.9310  156.3120 O   0  0  0  0  0  0  0  0  0  0  0  0
  158.6760  211.4860  154.1090 N   0  0  0  0  0  2  0  0  0  0  0  0
  160.9970  208.2120  154.0680 C   0  0  0  0  0  0  0  0  0  0  0  0
  161.4080  210.4770  153.2630 N   0  0  0  0  0  0  0  0  0  0  0  0
  159.1240  211.1740  152.7570 C   0  0  0  0  0  2  0  0  0  0  0  0
  160.9160  209.5220  154.2030 C   0  0  0  0  0  0  0  0  0  0  0  0
  158.9760  210.7450  155.3010 C   0  0  0  0  0  0  0  0  0  0  0  0
  160.2850  207.5570  155.1080 N   0  0  0  0  0  0  0  0  0  0  0  0
  160.6110  211.2760  152.6260 C   0  0  0  0  0  3  0  0  0  0  0  0
  160.1850  209.8530  155.4550 C   0  0  1  0  0  3  0  0  0  0  0  0
  163.0360  205.6400  152.4850 O   0  0  0  0  0  1  0  0  0  0  0  0
  161.8850  206.0350  153.1670 C   0  0  2  0  0  3  0  0  0  0  0  0
  160.7990  205.2200  152.7540 O   0  0  0  0  0  0  0  0  0  0  0  0
  161.0130  203.9160  152.4050 C   0  0  0  0  0  0  0  0  0  0  0  0
  161.2030  202.7670  152.0960 C   0  0  0  0  0  3  0  0  0  0  0  0
  160.6950  207.6910  151.6420 C   0  0  0  0  0  2  0  0  0  0  0  0
  161.4880  208.1330  150.4180 C   0  0  0  0  0  2  0  0  0  0  0  0
  161.9120  206.9290  149.5930 C   0  0  0  0  0  2  0  0  0  0  0  0
  162.0770  206.2420  146.2790 O   0  0  0  0  0  0  0  0  0  0  0  0
  161.9810  205.0940  147.0700 C   0  0  2  0  0  3  0  0  0  0  0  0
  160.9580  202.8650  148.4630 C   0  0  0  0  0  3  0  0  0  0  0  0
  161.7240  203.8250  146.2690 C   0  0  0  0  0  2  0  0  0  0  0  0
  160.8390  204.2410  149.0870 C   0  0  0  0  0  2  0  0  0  0  0  0
  160.9980  206.7500  148.3790 C   0  0  1  0  0  3  0  0  0  0  0  0
  161.3990  202.6740  147.2010 C   0  0  0  0  0  3  0  0  0  0  0  0
  161.6870  207.3040  147.1320 C   0  0  0  0  0  2  0  0  0  0  0  0
  160.8250  205.3080  147.9940 C   0  0  1  0  0  3  0  0  0  0  0  0
  1 18  1  6  0  0  0
  1 14  1  0  0  0  0
  1  5  1  0  0  0  0
  4  9  1  0  0  0  0
  5  8  2  0  0  0  0
  5 10  1  0  0  0  0
  6  8  1  0  0  0  0
  7  4  1  0  0  0  0
  8 12  1  0  0  0  0
  9 12  1  0  0  0  0
  9  3  2  0  0  0  0
 10  2  2  0  0  0  0
 11  7  1  0  0  0  0
 11  6  2  0  0  0  0
 12  2  1  6  0  0  0
 14 13  1  6  0  0  0
 15 14  1  0  0  0  0
 16 15  1  0  0  0  0
 17 16  3  0  0  0  0
 19 18  1  0  0  0  0
 20 19  1  0  0  0  0
 21 22  1  0  0  0  0
 21 28  1  0  0  0  0
 22 24  1  6  0  0  0
 22 29  1  0  0  0  0
 23 25  1  0  0  0  0
 24 27  1  0  0  0  0
 26 20  1  1  0  0  0
 27 23  2  0  0  0  0
 28 26  1  0  0  0  0
 29 26  1  0  0  0  0
 29 25  1  1  0  0  0
M  END
>  <MODEL>
3

>  <REMARK>
 VINA RESULT:      -7.5      2.029      3.266
  Name = 
  8 active torsions:
  status: ('A' for Active; 'I' for Inactive)
    1  A    between atoms: C_1  and  C_17
    2  A    between atoms: C_1  and  C_21
    3  A    between atoms: C_5  and  O_8
    4  A    between atoms: O_8  and  C_9
    5  A    between atoms: C_9  and  C_15
    6  A    between atoms: C_11  and  C_15
    7  A    between atoms: C_15  and  C_17
    8  A    between atoms: C_21  and  C_26
                            x       y       z     vdW  Elec       q    Type
                         _______ _______ _______ _____ _____    ______ ____

>  <TORSDO>
F 8

$$$$
=
 OpenBabel11072413493D

 29 32  0  0  1  0  0  0  0  0999 V2000
  161.1450  207.1940  152.9170 C   0  0  1  0  0  3  0  0  0  0  0  0
  160.1990  208.0620  156.3120 C   0  0  0  0  0  3  0  0  0  0  0  0
  159.2170  210.6710  157.2540 O   0  0  0  0  0  0  0  0  0  0  0  0
  159.2940  211.4070  155.0630 N   0  0  0  0  0  2  0  0  0  0  0  0
  160.9420  207.8370  154.2590 C   0  0  0  0  0  0  0  0  0  0  0  0
  161.5830  210.0890  153.5740 N   0  0  0  0  0  0  0  0  0  0  0  0
  159.4040  211.1900  153.6260 C   0  0  0  0  0  2  0  0  0  0  0  0
  161.1230  209.1190  154.5150 C   0  0  0  0  0  0  0  0  0  0  0  0
  159.6860  210.4940  156.0990 C   0  0  0  0  0  0  0  0  0  0  0  0
  160.3440  207.1850  155.3690 N   0  0  0  0  0  0  0  0  0  0  0  0
  160.8320  211.0720  153.1900 C   0  0  0  0  0  3  0  0  0  0  0  0
  160.7230  209.4110  155.9170 C   0  0  1  0  0  3  0  0  0  0  0  0
  160.6610  208.6060  151.0380 O   0  0  0  0  0  1  0  0  0  0  0  0
  161.6890  208.1780  151.8780 C   0  0  2  0  0  3  0  0  0  0  0  0
  162.6980  207.5570  151.0980 O   0  0  0  0  0  0  0  0  0  0  0  0
  162.7020  207.7030  149.7390 C   0  0  0  0  0  0  0  0  0  0  0  0
  162.7060  207.8320  148.5410 C   0  0  0  0  0  3  0  0  0  0  0  0
  162.0020  205.9320  153.0360 C   0  0  0  0  0  2  0  0  0  0  0  0
  161.2060  204.6600  152.7740 C   0  0  0  0  0  2  0  0  0  0  0  0
  161.6000  204.0490  151.4390 C   0  0  0  0  0  2  0  0  0  0  0  0
  160.8700  204.6820  148.1910 O   0  0  0  0  0  0  0  0  0  0  0  0
  161.2640  203.3590  148.4140 C   0  0  2  0  0  3  0  0  0  0  0  0
  161.2060  200.5790  148.8870 C   0  0  0  0  0  3  0  0  0  0  0  0
  161.0400  202.4500  147.2140 C   0  0  0  0  0  2  0  0  0  0  0  0
  161.0040  201.5290  150.0510 C   0  0  0  0  0  2  0  0  0  0  0  0
  160.4140  204.0370  150.4730 C   0  0  1  0  0  3  0  0  0  0  0  0
  161.2650  201.0030  147.6050 C   0  0  0  0  0  3  0  0  0  0  0  0
  160.5530  205.1880  149.4760 C   0  0  0  0  0  2  0  0  0  0  0  0
  160.4320  202.8530  149.5490 C   0  0  1  0  0  3  0  0  0  0  0  0
  1 18  1  1  0  0  0
  1  5  1  0  0  0  0
  4  9  1  0  0  0  0
  5  8  2  0  0  0  0
  5 10  1  0  0  0  0
  6  8  1  0  0  0  0
  7  4  1  0  0  0  0
  8 12  1  0  0  0  0
  9  3  2  0  0  0  0
 10  2  2  0  0  0  0
 11  6  2  0  0  0  0
 11  7  1  0  0  0  0
 12  9  1  0  0  0  0
 12  2  1  6  0  0  0
 14 13  1  6  0  0  0
 14  1  1  0  0  0  0
 15 14  1  0  0  0  0
 16 15  1  0  0  0  0
 17 16  3  0  0  0  0
 19 18  1  0  0  0  0
 20 19  1  0  0  0  0
 21 22  1  0  0  0  0
 21 28  1  0  0  0  0
 22 24  1  6  0  0  0
 22 29  1  0  0  0  0
 23 25  1  0  0  0  0
 24 27  1  0  0  0  0
 26 20  1  1  0  0  0
 27 23  2  0  0  0  0
 28 26  1  0  0  0  0
 29 25  1  1  0  0  0
 29 26  1  0  0  0  0
M  END
>  <MODEL>
4

>  <REMARK>
 VINA RESULT:      -7.3      1.525      1.845
  Name = 
  8 active torsions:
  status: ('A' for Active; 'I' for Inactive)
    1  A    between atoms: C_1  and  C_17
    2  A    between atoms: C_1  and  C_21
    3  A    between atoms: C_5  and  O_8
    4  A    between atoms: O_8  and  C_9
    5  A    between atoms: C_9  and  C_15
    6  A    between atoms: C_11  and  C_15
    7  A    between atoms: C_15  and  C_17
    8  A    between atoms: C_21  and  C_26
                            x       y       z     vdW  Elec       q    Type
                         _______ _______ _______ _____ _____    ______ ____

>  <TORSDO>
F 8

$$$$
=
 OpenBabel11072413493D

 29 32  0  0  1  0  0  0  0  0999 V2000
  160.9480  209.1620  151.9090 C   0  0  1  0  0  3  0  0  0  0  0  0
  161.1490  209.4550  155.5210 C   0  0  0  0  0  3  0  0  0  0  0  0
  159.4350  211.1070  157.2510 O   0  0  0  0  0  0  0  0  0  0  0  0
  158.2310  211.6990  155.3680 N   0  0  0  0  0  2  0  0  0  0  0  0
  161.0010  209.6220  153.3370 C   0  0  0  0  0  0  0  0  0  0  0  0
  160.0440  211.8310  152.9400 N   0  0  0  0  0  0  0  0  0  0  0  0
  157.8490  211.5390  153.9700 C   0  0  0  0  0  2  0  0  0  0  0  0
  160.5770  210.7960  153.7670 C   0  0  0  0  0  0  0  0  0  0  0  0
  159.4170  211.1870  155.9950 C   0  0  0  0  0  0  0  0  0  0  0  0
  161.3330  208.7800  154.4310 N   0  0  0  0  0  0  0  0  0  0  0  0
  158.8130  212.2200  153.0490 C   0  0  0  0  0  3  0  0  0  0  0  0
  160.6870  210.8570  155.2490 C   0  0  1  0  0  3  0  0  0  0  0  0
  163.0780  210.2630  151.8460 O   0  0  0  0  0  1  0  0  0  0  0  0
  162.0220  209.8270  151.0450 C   0  0  2  0  0  3  0  0  0  0  0  0
  161.4750  210.9380  150.3540 O   0  0  0  0  0  0  0  0  0  0  0  0
  162.0680  211.3970  149.2110 C   0  0  0  0  0  0  0  0  0  0  0  0
  162.5920  211.8000  148.2030 C   0  0  0  0  0  3  0  0  0  0  0  0
  160.9870  207.6340  151.8220 C   0  0  0  0  0  2  0  0  0  0  0  0
  160.9760  207.1310  150.3840 C   0  0  0  0  0  2  0  0  0  0  0  0
  160.4490  205.7070  150.3200 C   0  0  0  0  0  2  0  0  0  0  0  0
  160.7840  202.6770  151.7990 O   0  0  0  0  0  0  0  0  0  0  0  0
  160.6040  202.5920  150.4150 C   0  0  2  0  0  3  0  0  0  0  0  0
  161.0970  202.3690  147.6470 C   0  0  0  0  0  3  0  0  0  0  0  0
  160.8440  201.1960  149.8580 C   0  0  0  0  0  2  0  0  0  0  0  0
  161.2670  203.7170  148.3190 C   0  0  0  0  0  2  0  0  0  0  0  0
  161.5320  204.7050  150.7220 C   0  0  1  0  0  3  0  0  0  0  0  0
  160.8630  201.2340  148.3420 C   0  0  0  0  0  3  0  0  0  0  0  0
  161.1420  204.0270  152.0360 C   0  0  0  0  0  2  0  0  0  0  0  0
  161.5980  203.5230  149.7980 C   0  0  1  0  0  3  0  0  0  0  0  0
  1 18  1  1  0  0  0
  1  5  1  0  0  0  0
  4  9  1  0  0  0  0
  5  8  2  0  0  0  0
  5 10  1  0  0  0  0
  6 11  2  0  0  0  0
  6  8  1  0  0  0  0
  7  4  1  0  0  0  0
  8 12  1  0  0  0  0
  9  3  2  0  0  0  0
 10  2  2  0  0  0  0
 11  7  1  0  0  0  0
 12  2  1  1  0  0  0
 12  9  1  0  0  0  0
 14 13  1  1  0  0  0
 14  1  1  0  0  0  0
 15 14  1  0  0  0  0
 16 15  1  0  0  0  0
 17 16  3  0  0  0  0
 19 18  1  0  0  0  0
 20 19  1  0  0  0  0
 21 28  1  0  0  0  0
 22 24  1  6  0  0  0
 22 21  1  0  0  0  0
 23 25  1  0  0  0  0
 23 27  2  0  0  0  0
 26 20  1  6  0  0  0
 26 28  1  0  0  0  0
 27 24  1  0  0  0  0
 29 25  1  6  0  0  0
 29 22  1  0  0  0  0
 29 26  1  0  0  0  0
M  END
>  <MODEL>
5

>  <REMARK>
 VINA RESULT:      -7.3      1.094      1.583
  Name = 
  8 active torsions:
  status: ('A' for Active; 'I' for Inactive)
    1  A    between atoms: C_1  and  C_17
    2  A    between atoms: C_1  and  C_21
    3  A    between atoms: C_5  and  O_8
    4  A    between atoms: O_8  and  C_9
    5  A    between atoms: C_9  and  C_15
    6  A    between atoms: C_11  and  C_15
    7  A    between atoms: C_15  and  C_17
    8  A    between atoms: C_21  and  C_26
                            x       y       z     vdW  Elec       q    Type
                         _______ _______ _______ _____ _____    ______ ____

>  <TORSDO>
F 8

$$$$
=
 OpenBabel11072413493D

 29 32  0  0  1  0  0  0  0  0999 V2000
  160.9770  208.8190  152.4050 C   0  0  1  0  0  3  0  0  0  0  0  0
  161.3220  210.1680  155.7570 C   0  0  0  0  0  3  0  0  0  0  0  0
  159.5750  212.1560  157.0430 O   0  0  0  0  0  0  0  0  0  0  0  0
  158.2470  212.1040  155.1510 N   0  0  0  0  0  2  0  0  0  0  0  0
  161.0620  209.6800  153.6330 C   0  0  0  0  0  0  0  0  0  0  0  0
  159.9340  211.6190  152.6770 N   0  0  0  0  0  0  0  0  0  0  0  0
  157.8140  211.5210  153.8870 C   0  0  0  0  0  2  0  0  0  0  0  0
  160.5760  210.9020  153.7310 C   0  0  0  0  0  0  0  0  0  0  0  0
  159.4940  211.8640  155.8210 C   0  0  0  0  0  0  0  0  0  0  0  0
  161.5040  209.2140  154.9000 N   0  0  0  0  0  0  0  0  0  0  0  0
  158.6840  211.9550  152.7480 C   0  0  0  0  0  3  0  0  0  0  0  0
  160.7490  211.4000  155.1220 C   0  0  1  0  0  3  0  0  0  0  0  0
  162.9240  210.1270  151.8950 O   0  0  0  0  0  1  0  0  0  0  0  0
  162.1520  209.0520  151.4520 C   0  0  2  0  0  3  0  0  0  0  0  0
  161.6750  209.3310  150.1460 O   0  0  0  0  0  0  0  0  0  0  0  0
  162.0300  208.5280  149.0990 C   0  0  0  0  0  0  0  0  0  0  0  0
  162.3430  207.8190  148.1760 C   0  0  0  0  0  3  0  0  0  0  0  0
  160.8060  207.3450  152.7780 C   0  0  0  0  0  2  0  0  0  0  0  0
  161.7040  206.4280  151.9570 C   0  0  0  0  0  2  0  0  0  0  0  0
  160.8890  205.3200  151.3110 C   0  0  0  0  0  2  0  0  0  0  0  0
  160.4600  201.9660  151.0860 O   0  0  0  0  0  0  0  0  0  0  0  0
  160.4780  202.6000  149.8390 C   0  0  2  0  0  3  0  0  0  0  0  0
  161.3370  203.6260  147.3570 C   0  0  0  0  0  3  0  0  0  0  0  0
  160.5510  201.6290  148.6680 C   0  0  0  0  0  2  0  0  0  0  0  0
  161.6380  204.4070  148.6200 C   0  0  0  0  0  2  0  0  0  0  0  0
  161.7060  204.0320  151.2040 C   0  0  1  0  0  3  0  0  0  0  0  0
  160.8050  202.3840  147.3780 C   0  0  0  0  0  3  0  0  0  0  0  0
  161.0090  202.9160  151.9830 C   0  0  0  0  0  2  0  0  0  0  0  0
  161.7020  203.4580  149.8160 C   0  0  1  0  0  3  0  0  0  0  0  0
  1 18  1  1  0  0  0
  1  5  1  0  0  0  0
  4  9  1  0  0  0  0
  5  8  2  0  0  0  0
  5 10  1  0  0  0  0
  6 11  2  0  0  0  0
  6  8  1  0  0  0  0
  7  4  1  0  0  0  0
  8 12  1  0  0  0  0
  9  3  2  0  0  0  0
 10  2  2  0  0  0  0
 11  7  1  0  0  0  0
 12  2  1  1  0  0  0
 12  9  1  0  0  0  0
 14 13  1  1  0  0  0
 14  1  1  0  0  0  0
 15 14  1  0  0  0  0
 16 15  1  0  0  0  0
 17 16  3  0  0  0  0
 19 18  1  0  0  0  0
 20 19  1  0  0  0  0
 21 28  1  0  0  0  0
 22 24  1  6  0  0  0
 22 21  1  0  0  0  0
 23 27  2  0  0  0  0
 23 25  1  0  0  0  0
 26 20  1  6  0  0  0
 26 28  1  0  0  0  0
 27 24  1  0  0  0  0
 29 25  1  6  0  0  0
 29 22  1  0  0  0  0
 29 26  1  0  0  0  0
M  END
>  <MODEL>
6

>  <REMARK>
 VINA RESULT:      -7.3      1.233      1.753
  Name = 
  8 active torsions:
  status: ('A' for Active; 'I' for Inactive)
    1  A    between atoms: C_1  and  C_17
    2  A    between atoms: C_1  and  C_21
    3  A    between atoms: C_5  and  O_8
    4  A    between atoms: O_8  and  C_9
    5  A    between atoms: C_9  and  C_15
    6  A    between atoms: C_11  and  C_15
    7  A    between atoms: C_15  and  C_17
    8  A    between atoms: C_21  and  C_26
                            x       y       z     vdW  Elec       q    Type
                         _______ _______ _______ _____ _____    ______ ____

>  <TORSDO>
F 8

$$$$
=
 OpenBabel11072413493D

 29 32  0  0  1  0  0  0  0  0999 V2000
  161.3570  209.8130  153.4890 C   0  0  1  0  0  3  0  0  0  0  0  0
  159.4320  212.5100  152.0070 C   0  0  0  0  0  3  0  0  0  0  0  0
  157.6770  214.4030  153.4210 O   0  0  0  0  0  0  0  0  0  0  0  0
  158.3220  213.4050  155.4040 N   0  0  0  0  0  2  0  0  0  0  0  0
  160.3070  210.8060  153.0790 C   0  0  0  0  0  0  0  0  0  0  0  0
  158.8380  210.4450  154.9920 N   0  0  0  0  0  0  0  0  0  0  0  0
  159.1850  212.5400  156.1990 C   0  0  0  0  0  2  0  0  0  0  0  0
  159.2180  211.0790  153.7700 C   0  0  0  0  0  0  0  0  0  0  0  0
  158.1770  213.3900  153.9760 C   0  0  0  0  0  0  0  0  0  0  0  0
  160.4530  211.7130  151.9960 N   0  0  0  0  0  0  0  0  0  0  0  0
  158.7700  211.1040  156.1060 C   0  0  0  0  0  3  0  0  0  0  0  0
  158.4720  212.1860  153.1140 C   0  0  1  0  0  3  0  0  0  0  0  0
  162.5190  210.3500  155.5180 O   0  0  0  0  0  1  0  0  0  0  0  0
  161.4300  209.6410  155.0080 C   0  0  2  0  0  3  0  0  0  0  0  0
  161.5750  208.2690  155.3390 O   0  0  0  0  0  0  0  0  0  0  0  0
  160.7870  207.7090  156.3050 C   0  0  0  0  0  0  0  0  0  0  0  0
  160.0920  207.2150  157.1570 C   0  0  0  0  0  3  0  0  0  0  0  0
  161.1710  208.4820  152.7550 C   0  0  0  0  0  2  0  0  0  0  0  0
  161.8930  208.4490  151.4150 C   0  0  0  0  0  2  0  0  0  0  0  0
  162.0550  207.0190  150.9290 C   0  0  0  0  0  2  0  0  0  0  0  0
  160.8630  205.2850  148.2730 O   0  0  0  0  0  0  0  0  0  0  0  0
  161.2560  204.4600  149.3310 C   0  0  2  0  0  3  0  0  0  0  0  0
  161.2060  202.8370  151.6370 C   0  0  0  0  0  3  0  0  0  0  0  0
  160.8350  203.0080  149.1560 C   0  0  0  0  0  2  0  0  0  0  0  0
  161.2020  204.3440  151.7970 C   0  0  0  0  0  2  0  0  0  0  0  0
  160.7380  206.4800  150.3680 C   0  0  1  0  0  3  0  0  0  0  0  0
  161.0820  202.2330  150.4350 C   0  0  0  0  0  3  0  0  0  0  0  0
  160.7530  206.5780  148.8420 C   0  0  0  0  0  2  0  0  0  0  0  0
  160.5910  204.9970  150.5590 C   0  0  1  0  0  3  0  0  0  0  0  0
  1 18  1  6  0  0  0
  1 14  1  0  0  0  0
  3  9  2  0  0  0  0
  4  7  1  0  0  0  0
  5  1  1  0  0  0  0
  5  8  2  0  0  0  0
  6 11  2  0  0  0  0
  8  6  1  0  0  0  0
  9  4  1  0  0  0  0
 10  2  2  0  0  0  0
 10  5  1  0  0  0  0
 11  7  1  0  0  0  0
 12  2  1  6  0  0  0
 12  8  1  0  0  0  0
 12  9  1  0  0  0  0
 14 15  1  0  0  0  0
 14 13  1  6  0  0  0
 15 16  1  0  0  0  0
 16 17  3  0  0  0  0
 19 18  1  0  0  0  0
 20 19  1  0  0  0  0
 21 28  1  0  0  0  0
 21 22  1  0  0  0  0
 22 24  1  6  0  0  0
 22 29  1  0  0  0  0
 23 25  1  0  0  0  0
 24 27  1  0  0  0  0
 26 29  1  0  0  0  0
 26 20  1  1  0  0  0
 27 23  2  0  0  0  0
 28 26  1  0  0  0  0
 29 25  1  1  0  0  0
M  END
>  <MODEL>
7

>  <REMARK>
 VINA RESULT:      -7.1      1.923      3.561
  Name = 
  8 active torsions:
  status: ('A' for Active; 'I' for Inactive)
    1  A    between atoms: C_1  and  C_17
    2  A    between atoms: C_1  and  C_21
    3  A    between atoms: C_5  and  O_8
    4  A    between atoms: O_8  and  C_9
    5  A    between atoms: C_9  and  C_15
    6  A    between atoms: C_11  and  C_15
    7  A    between atoms: C_15  and  C_17
    8  A    between atoms: C_21  and  C_26
                            x       y       z     vdW  Elec       q    Type
                         _______ _______ _______ _____ _____    ______ ____

>  <TORSDO>
F 8

$$$$
=
 OpenBabel11072413493D

 29 32  0  0  1  0  0  0  0  0999 V2000
  160.9830  208.8840  153.8650 C   0  0  1  0  0  3  0  0  0  0  0  0
  158.6920  210.6900  156.0240 C   0  0  0  0  0  3  0  0  0  0  0  0
  157.0810  213.0460  155.3040 O   0  0  0  0  0  0  0  0  0  0  0  0
  157.8980  212.8540  153.1500 N   0  0  0  0  0  2  0  0  0  0  0  0
  160.1930  209.9100  154.6260 C   0  0  0  0  0  0  0  0  0  0  0  0
  160.7400  211.7950  153.1770 N   0  0  0  0  0  0  0  0  0  0  0  0
  158.5840  212.1350  152.0830 C   0  0  0  0  0  2  0  0  0  0  0  0
  160.0870  211.1810  154.2890 C   0  0  0  0  0  0  0  0  0  0  0  0
  157.9790  212.5780  154.5560 C   0  0  0  0  0  0  0  0  0  0  0  0
  159.3050  209.6000  155.6900 N   0  0  0  0  0  0  0  0  0  0  0  0
  160.0710  212.2810  152.1800 C   0  0  0  0  0  3  0  0  0  0  0  0
  159.1400  211.8670  155.2090 C   0  0  1  0  0  3  0  0  0  0  0  0
  161.5920  207.7180  155.8720 O   0  0  0  0  0  1  0  0  0  0  0  0
  161.0480  207.5420  154.5980 C   0  0  2  0  0  3  0  0  0  0  0  0
  161.8530  206.6270  153.8730 O   0  0  0  0  0  0  0  0  0  0  0  0
  161.3150  205.4600  153.4070 C   0  0  0  0  0  0  0  0  0  0  0  0
  160.8410  204.4310  152.9960 C   0  0  0  0  0  3  0  0  0  0  0  0
  160.4660  208.7460  152.4310 C   0  0  0  0  0  2  0  0  0  0  0  0
  161.5830  208.8360  151.3980 C   0  0  0  0  0  2  0  0  0  0  0  0
  161.7690  207.5030  150.6940 C   0  0  0  0  0  2  0  0  0  0  0  0
  162.3180  207.2140  147.3620 O   0  0  0  0  0  0  0  0  0  0  0  0
  162.1450  205.9790  147.9960 C   0  0  2  0  0  3  0  0  0  0  0  0
  160.9930  203.6040  148.9890 C   0  0  0  0  0  3  0  0  0  0  0  0
  161.9940  204.8160  147.0260 C   0  0  0  0  0  2  0  0  0  0  0  0
  160.7890  204.8970  149.7540 C   0  0  0  0  0  2  0  0  0  0  0  0
  161.0020  207.4710  149.3710 C   0  0  1  0  0  3  0  0  0  0  0  0
  161.5770  203.5640  147.7720 C   0  0  0  0  0  3  0  0  0  0  0  0
  161.8220  208.1680  148.2850 C   0  0  0  0  0  2  0  0  0  0  0  0
  160.8880  206.0870  148.8010 C   0  0  1  0  0  3  0  0  0  0  0  0
  1 18  1  6  0  0  0
  1 14  1  0  0  0  0
  1  5  1  0  0  0  0
  4  9  1  0  0  0  0
  5 10  1  0  0  0  0
  6  8  1  0  0  0  0
  7 11  1  0  0  0  0
  7  4  1  0  0  0  0
  8  5  2  0  0  0  0
  8 12  1  0  0  0  0
  9 12  1  0  0  0  0
  9  3  2  0  0  0  0
 10  2  2  0  0  0  0
 11  6  2  0  0  0  0
 12  2  1  1  0  0  0
 14 13  1  1  0  0  0
 15 14  1  0  0  0  0
 16 15  1  0  0  0  0
 17 16  3  0  0  0  0
 19 18  1  0  0  0  0
 20 19  1  0  0  0  0
 21 22  1  0  0  0  0
 21 28  1  0  0  0  0
 22 24  1  6  0  0  0
 22 29  1  0  0  0  0
 23 25  1  0  0  0  0
 24 27  1  0  0  0  0
 26 20  1  1  0  0  0
 27 23  2  0  0  0  0
 28 26  1  0  0  0  0
 29 26  1  0  0  0  0
 29 25  1  1  0  0  0
M  END
>  <MODEL>
8

>  <REMARK>
 VINA RESULT:      -7.0      2.000      3.258
  Name = 
  8 active torsions:
  status: ('A' for Active; 'I' for Inactive)
    1  A    between atoms: C_1  and  C_17
    2  A    between atoms: C_1  and  C_21
    3  A    between atoms: C_5  and  O_8
    4  A    between atoms: O_8  and  C_9
    5  A    between atoms: C_9  and  C_15
    6  A    between atoms: C_11  and  C_15
    7  A    between atoms: C_15  and  C_17
    8  A    between atoms: C_21  and  C_26
                            x       y       z     vdW  Elec       q    Type
                         _______ _______ _______ _____ _____    ______ ____

>  <TORSDO>
F 8

$$$$
=
 OpenBabel11072413493D

 29 32  0  0  1  0  0  0  0  0999 V2000
  161.3300  206.7090  152.0610 C   0  0  1  0  0  3  0  0  0  0  0  0
  161.2420  203.5170  150.3360 C   0  0  0  0  0  3  0  0  0  0  0  0
  161.6860  203.0550  147.4630 O   0  0  0  0  0  0  0  0  0  0  0  0
  162.1320  205.3130  147.2450 N   0  0  0  0  0  2  0  0  0  0  0  0
  161.1040  205.5640  151.1160 C   0  0  0  0  0  0  0  0  0  0  0  0
  160.4620  206.9240  149.1970 N   0  0  0  0  0  0  0  0  0  0  0  0
  162.4330  206.6330  147.7850 C   0  0  0  0  0  2  0  0  0  0  0  0
  160.7410  205.6880  149.8540 C   0  0  0  0  0  0  0  0  0  0  0  0
  161.5640  204.2050  147.9590 C   0  0  0  0  0  0  0  0  0  0  0  0
  161.4400  204.2150  151.4090 N   0  0  0  0  0  0  0  0  0  0  0  0
  161.1930  207.3530  148.2160 C   0  0  0  0  0  3  0  0  0  0  0  0
  160.7200  204.3510  149.2030 C   0  0  1  0  0  3  0  0  0  0  0  0
  160.8300  205.2110  153.8670 O   0  0  0  0  0  1  0  0  0  0  0  0
  161.6910  206.2350  153.4710 C   0  0  2  0  0  3  0  0  0  0  0  0
  161.5880  207.3100  154.3900 O   0  0  0  0  0  0  0  0  0  0  0  0
  160.5950  207.3170  155.3290 C   0  0  0  0  0  0  0  0  0  0  0  0
  159.7190  207.3240  156.1570 C   0  0  0  0  0  3  0  0  0  0  0  0
  162.3530  207.6960  151.4920 C   0  0  0  0  0  2  0  0  0  0  0  0
  161.7980  209.1100  151.3800 C   0  0  0  0  0  2  0  0  0  0  0  0
  160.6150  209.2970  152.3150 C   0  0  0  0  0  2  0  0  0  0  0  0
  158.5710  211.3070  154.1210 O   0  0  0  0  0  0  0  0  0  0  0  0
  159.6710  210.8490  154.8510 C   0  0  2  0  0  3  0  0  0  0  0  0
  162.2010  210.6920  156.0890 C   0  0  0  0  0  3  0  0  0  0  0  0
  159.8370  211.5450  156.1960 C   0  0  0  0  0  2  0  0  0  0  0  0
  162.0870  210.4000  154.6060 C   0  0  0  0  0  2  0  0  0  0  0  0
  160.4060  210.7760  152.6430 C   0  0  1  0  0  3  0  0  0  0  0  0
  161.1690  211.1710  156.8170 C   0  0  0  0  0  3  0  0  0  0  0  0
  158.9100  211.0680  152.7660 C   0  0  0  0  0  2  0  0  0  0  0  0
  160.8820  211.1350  154.0220 C   0  0  1  0  0  3  0  0  0  0  0  0
  1 18  1  6  0  0  0
  1 14  1  0  0  0  0
  2 10  2  0  0  0  0
  3  9  2  0  0  0  0
  4  7  1  0  0  0  0
  4  9  1  0  0  0  0
  5 10  1  0  0  0  0
  5  1  1  0  0  0  0
  6  8  1  0  0  0  0
  7 11  1  0  0  0  0
  8  5  2  0  0  0  0
  9 12  1  0  0  0  0
 11  6  2  0  0  0  0
 12  8  1  0  0  0  0
 12  2  1  1  0  0  0
 14 13  1  1  0  0  0
 14 15  1  0  0  0  0
 15 16  1  0  0  0  0
 16 17  3  0  0  0  0
 19 18  1  0  0  0  0
 19 20  1  0  0  0  0
 21 22  1  0  0  0  0
 22 24  1  1  0  0  0
 23 27  2  0  0  0  0
 24 27  1  0  0  0  0
 25 23  1  0  0  0  0
 26 20  1  1  0  0  0
 26 28  1  0  0  0  0
 26 29  1  0  0  0  0
 28 21  1  0  0  0  0
 29 25  1  1  0  0  0
 29 22  1  0  0  0  0
M  END
>  <MODEL>
9

>  <REMARK>
 VINA RESULT:      -7.0      2.903      8.081
  Name = 
  8 active torsions:
  status: ('A' for Active; 'I' for Inactive)
    1  A    between atoms: C_1  and  C_17
    2  A    between atoms: C_1  and  C_21
    3  A    between atoms: C_5  and  O_8
    4  A    between atoms: O_8  and  C_9
    5  A    between atoms: C_9  and  C_15
    6  A    between atoms: C_11  and  C_15
    7  A    between atoms: C_15  and  C_17
    8  A    between atoms: C_21  and  C_26
                            x       y       z     vdW  Elec       q    Type
                         _______ _______ _______ _____ _____    ______ ____

>  <TORSDO>
F 8

$$$$
