=
 OpenBabel11072414123D

 28 30  0  0  1  0  0  0  0  0999 V2000
  162.0580  205.6340  149.1050 C   0  0  2  0  0  3  0  0  0  0  0  0
  161.8620  205.9720  147.6220 C   0  0  2  0  0  3  0  0  0  0  0  0
  160.5870  203.7800  144.9100 O   0  0  0  0  0  0  0  0  0  0  0  0
  160.4280  206.3920  147.2770 C   0  0  0  0  0  2  0  0  0  0  0  0
  162.1730  205.4800  144.0650 O   0  0  0  0  0  0  0  0  0  0  0  0
  162.3030  204.8390  146.7060 C   0  0  1  0  0  3  0  0  0  0  0  0
  161.3420  205.0370  145.2370 S   0  0  0  0  0  0  0  0  0  0  0  0
  163.6620  204.9650  146.4170 O   0  0  0  0  0  1  0  0  0  0  0  0
  160.2520  206.3190  145.7690 C   0  0  0  0  0  2  0  0  0  0  0  0
  160.9670  205.2300  151.2900 N   0  0  0  0  0  0  0  0  0  0  0  0
  161.1380  202.7710  149.8800 C   0  0  2  0  0  3  0  0  0  0  0  0
  160.7570  205.2500  149.8400 C   0  0  2  0  0  3  0  0  0  0  0  0
  161.3600  202.8570  151.3650 C   0  0  0  0  0  2  0  0  0  0  0  0
  161.2980  204.0280  152.0000 C   0  0  0  0  0  3  0  0  0  0  0  0
  160.2180  203.8890  149.3820 C   0  0  0  0  0  2  0  0  0  0  0  0
  159.6550  200.9470  150.0760 O   0  0  0  0  0  0  0  0  0  0  0  0
  160.6120  201.4210  149.4850 C   0  0  0  0  0  0  0  0  0  0  0  0
  161.2360  200.6300  148.3720 C   0  0  0  0  0  2  0  0  0  0  0  0
  160.9730  201.2290  147.0730 N   0  0  0  0  0  1  0  0  0  0  0  0
  162.6990  206.7650  149.7650 N   0  0  0  0  0  2  0  0  0  0  0  0
  162.1340  208.0820  149.7840 C   0  0  0  0  0  0  0  0  0  0  0  0
  160.9150  208.0940  153.1970 C   0  0  0  0  0  2  0  0  0  0  0  0
  161.8350  208.6630  150.9560 C   0  0  0  0  0  0  0  0  0  0  0  0
  161.8710  208.7910  148.4900 C   0  0  0  0  0  1  0  0  0  0  0  0
  161.2470  210.0510  151.0150 C   0  0  0  0  0  2  0  0  0  0  0  0
  162.1100  207.9510  152.2520 C   0  0  0  0  0  2  0  0  0  0  0  0
  161.1400  210.5470  152.4570 C   0  0  0  0  0  2  0  0  0  0  0  0
  160.3930  209.5360  153.3310 C   0  0  0  0  0  2  0  0  0  0  0  0
  1 20  1  1  0  0  0
  2  1  1  1  0  0  0
  3  7  2  0  0  0  0
  4  2  1  0  0  0  0
  5  7  2  0  0  0  0
  6  8  1  6  0  0  0
  6  2  1  0  0  0  0
  7  9  1  0  0  0  0
  7  6  1  0  0  0  0
  9  4  1  0  0  0  0
 10 14  2  0  0  0  0
 11 17  1  1  0  0  0
 11 13  1  0  0  0  0
 12  1  1  6  0  0  0
 12 10  1  0  0  0  0
 13 14  1  0  0  0  0
 15 12  1  0  0  0  0
 15 11  1  0  0  0  0
 17 16  2  0  0  0  0
 18 17  1  0  0  0  0
 19 18  1  0  0  0  0
 20 21  1  0  0  0  0
 21 23  2  0  0  0  0
 22 28  1  0  0  0  0
 23 25  1  0  0  0  0
 23 26  1  0  0  0  0
 24 21  1  0  0  0  0
 25 27  1  0  0  0  0
 26 22  1  0  0  0  0
 27 28  1  0  0  0  0
M  END
>  <MODEL>
1

>  <REMARK>
 VINA RESULT:      -6.9      0.000      0.000
  Name = 
  6 active torsions:
  status: ('A' for Active; 'I' for Inactive)
    1  A    between atoms: C_1  and  C_2
    2  A    between atoms: C_2  and  C_12
    3  A    between atoms: C_2  and  N_20
    4  A    between atoms: C_4  and  C_11
    5  A    between atoms: C_4  and  C_18
    6  A    between atoms: C_7  and  N_20
                            x       y       z     vdW  Elec       q    Type
                         _______ _______ _______ _____ _____    ______ ____

>  <TORSDO>
F 6

$$$$
=
 OpenBabel11072414123D

 28 30  0  0  1  0  0  0  0  0999 V2000
  160.6170  209.9000  153.6530 C   0  0  2  0  0  3  0  0  0  0  0  0
  160.0710  210.6500  152.4320 C   0  0  2  0  0  3  0  0  0  0  0  0
  159.7010  214.3140  151.9540 O   0  0  0  0  0  0  0  0  0  0  0  0
  161.1660  211.1390  151.4770 C   0  0  0  0  0  2  0  0  0  0  0  0
  158.0070  213.0340  150.6840 O   0  0  0  0  0  0  0  0  0  0  0  0
  159.1680  211.8130  152.8200 C   0  0  1  0  0  3  0  0  0  0  0  0
  159.2830  212.9520  151.4760 S   0  0  0  0  0  0  0  0  0  0  0  0
  157.8550  211.3640  152.9660 O   0  0  0  0  0  1  0  0  0  0  0  0
  160.5660  212.1780  150.5430 C   0  0  0  0  0  2  0  0  0  0  0  0
  162.0130  209.9860  155.6960 N   0  0  0  0  0  0  0  0  0  0  0  0
  159.4940  211.1720  156.2550 C   0  0  2  0  0  3  0  0  0  0  0  0
  161.3830  210.7960  154.6490 C   0  0  2  0  0  3  0  0  0  0  0  0
  160.2090  210.3070  157.2560 C   0  0  0  0  0  2  0  0  0  0  0  0
  161.3800  209.7400  156.9600 C   0  0  0  0  0  3  0  0  0  0  0  0
  160.4750  211.8490  155.2940 C   0  0  0  0  0  2  0  0  0  0  0  0
  159.0820  213.2670  157.2600 O   0  0  0  0  0  0  0  0  0  0  0  0
  158.6190  212.1840  156.9370 C   0  0  0  0  0  0  0  0  0  0  0  0
  157.1760  211.8990  157.2360 C   0  0  0  0  0  2  0  0  0  0  0  0
  156.4810  211.3670  156.0740 N   0  0  0  0  0  1  0  0  0  0  0  0
  161.4660  208.8080  153.1960 N   0  0  0  0  0  2  0  0  0  0  0  0
  161.1270  207.4270  153.3760 C   0  0  0  0  0  0  0  0  0  0  0  0
  161.0510  206.4350  149.8910 C   0  0  0  0  0  2  0  0  0  0  0  0
  161.2950  206.5610  152.3640 C   0  0  0  0  0  0  0  0  0  0  0  0
  160.5760  206.9670  154.6920 C   0  0  0  0  0  1  0  0  0  0  0  0
  160.9570  205.0990  152.5190 C   0  0  0  0  0  2  0  0  0  0  0  0
  161.8580  207.0260  151.0490 C   0  0  0  0  0  2  0  0  0  0  0  0
  161.3780  204.2990  151.2860 C   0  0  0  0  0  2  0  0  0  0  0  0
  160.8070  204.9200  150.0080 C   0  0  0  0  0  2  0  0  0  0  0  0
  1 20  1  6  0  0  0
  2  6  1  0  0  0  0
  2  1  1  1  0  0  0
  4  2  1  0  0  0  0
  5  7  2  0  0  0  0
  6  8  1  6  0  0  0
  7  3  2  0  0  0  0
  7  6  1  0  0  0  0
  9  7  1  0  0  0  0
  9  4  1  0  0  0  0
 10 14  2  0  0  0  0
 11 17  1  1  0  0  0
 11 13  1  0  0  0  0
 12  1  1  6  0  0  0
 12 15  1  0  0  0  0
 12 10  1  0  0  0  0
 14 13  1  0  0  0  0
 15 11  1  0  0  0  0
 17 18  1  0  0  0  0
 17 16  2  0  0  0  0
 19 18  1  0  0  0  0
 20 21  1  0  0  0  0
 21 24  1  0  0  0  0
 22 28  1  0  0  0  0
 22 26  1  0  0  0  0
 23 25  1  0  0  0  0
 23 21  2  0  0  0  0
 26 23  1  0  0  0  0
 27 25  1  0  0  0  0
 28 27  1  0  0  0  0
M  END
>  <MODEL>
2

>  <REMARK>
 VINA RESULT:      -6.5      5.834      8.959
  Name = 
  6 active torsions:
  status: ('A' for Active; 'I' for Inactive)
    1  A    between atoms: C_1  and  C_2
    2  A    between atoms: C_2  and  C_12
    3  A    between atoms: C_2  and  N_20
    4  A    between atoms: C_4  and  C_11
    5  A    between atoms: C_4  and  C_18
    6  A    between atoms: C_7  and  N_20
                            x       y       z     vdW  Elec       q    Type
                         _______ _______ _______ _____ _____    ______ ____

>  <TORSDO>
F 6

$$$$
=
 OpenBabel11072414123D

 28 30  0  0  1  0  0  0  0  0999 V2000
  161.6860  208.9130  151.3660 C   0  0  2  0  0  3  0  0  0  0  0  0
  161.7650  208.5230  152.8480 C   0  0  2  0  0  3  0  0  0  0  0  0
  159.5700  209.6150  155.6370 O   0  0  0  0  0  0  0  0  0  0  0  0
  160.8310  207.3670  153.2250 C   0  0  0  0  0  2  0  0  0  0  0  0
  161.8660  209.1070  156.4030 O   0  0  0  0  0  0  0  0  0  0  0  0
  161.5210  209.7080  153.7730 C   0  0  1  0  0  3  0  0  0  0  0  0
  160.8910  209.0030  155.2640 S   0  0  0  0  0  0  0  0  0  0  0  0
  162.7240  210.3710  154.0190 O   0  0  0  0  0  1  0  0  0  0  0  0
  160.6970  207.3290  154.7390 C   0  0  0  0  0  2  0  0  0  0  0  0
  162.1630  208.2310  149.0340 N   0  0  0  0  0  2  0  0  0  0  0  0
  161.0040  206.0360  150.4140 C   0  0  2  0  0  3  0  0  0  0  0  0
  162.5350  208.0220  150.4360 C   0  0  2  0  0  3  0  0  0  0  0  0
  160.6670  206.3470  148.9820 C   0  0  0  0  0  3  0  0  0  0  0  0
  161.2060  207.3990  148.3630 C   0  0  0  0  0  3  0  0  0  0  0  0
  162.4030  206.5350  150.7840 C   0  0  0  0  0  2  0  0  0  0  0  0
  160.7570  204.1850  151.8560 O   0  0  0  0  0  0  0  0  0  0  0  0
  160.8570  204.5690  150.7020 C   0  0  0  0  0  0  0  0  0  0  0  0
  160.8310  203.5520  149.5980 C   0  0  0  0  0  2  0  0  0  0  0  0
  160.8160  202.1940  150.1180 N   0  0  0  0  0  1  0  0  0  0  0  0
  162.0730  210.3100  151.2240 N   0  0  0  0  0  2  0  0  0  0  0  0
  161.1680  211.3330  150.7910 C   0  0  0  0  0  0  0  0  0  0  0  0
  163.0810  212.5890  147.9810 C   0  0  0  0  0  2  0  0  0  0  0  0
  161.3050  211.8720  149.5700 C   0  0  0  0  0  0  0  0  0  0  0  0
  160.0830  211.7980  151.7150 C   0  0  0  0  0  1  0  0  0  0  0  0
  160.3660  212.9460  149.0770 C   0  0  0  0  0  2  0  0  0  0  0  0
  162.3890  211.3950  148.6440 C   0  0  0  0  0  2  0  0  0  0  0  0
  160.6330  213.2860  147.6120 C   0  0  0  0  0  2  0  0  0  0  0  0
  162.1090  213.6240  147.3860 C   0  0  0  0  0  2  0  0  0  0  0  0
  1 20  1  1  0  0  0
  2  1  1  6  0  0  0
  2  4  1  0  0  0  0
  2  6  1  0  0  0  0
  4  9  1  0  0  0  0
  6  8  1  1  0  0  0
  6  7  1  0  0  0  0
  7  3  2  0  0  0  0
  7  5  2  0  0  0  0
  9  7  1  0  0  0  0
 10 12  1  0  0  0  0
 11 17  1  6  0  0  0
 11 15  1  0  0  0  0
 12 15  1  0  0  0  0
 12  1  1  1  0  0  0
 13 11  1  0  0  0  0
 14 13  2  0  0  0  0
 14 10  1  0  0  0  0
 17 16  2  0  0  0  0
 18 19  1  0  0  0  0
 18 17  1  0  0  0  0
 21 20  1  0  0  0  0
 21 24  1  0  0  0  0
 22 26  1  0  0  0  0
 23 21  2  0  0  0  0
 25 23  1  0  0  0  0
 26 23  1  0  0  0  0
 27 25  1  0  0  0  0
 28 27  1  0  0  0  0
 28 22  1  0  0  0  0
M  END
>  <MODEL>
3

>  <REMARK>
 VINA RESULT:      -6.3      4.535      6.387
  Name = 
  6 active torsions:
  status: ('A' for Active; 'I' for Inactive)
    1  A    between atoms: C_1  and  C_2
    2  A    between atoms: C_2  and  C_12
    3  A    between atoms: C_2  and  N_20
    4  A    between atoms: C_4  and  C_11
    5  A    between atoms: C_4  and  C_18
    6  A    between atoms: C_7  and  N_20
                            x       y       z     vdW  Elec       q    Type
                         _______ _______ _______ _____ _____    ______ ____

>  <TORSDO>
F 6

$$$$
=
 OpenBabel11072414123D

 28 30  0  0  1  0  0  0  0  0999 V2000
  161.0480  210.7990  153.0140 C   0  0  2  0  0  3  0  0  0  0  0  0
  160.6300  210.4070  154.4370 C   0  0  2  0  0  3  0  0  0  0  0  0
  162.6450  208.6840  157.0360 O   0  0  0  0  0  0  0  0  0  0  0  0
  161.0490  211.4300  155.4990 C   0  0  0  0  0  2  0  0  0  0  0  0
  160.2290  208.2010  157.2590 O   0  0  0  0  0  0  0  0  0  0  0  0
  161.1300  209.0230  154.8270 C   0  0  1  0  0  3  0  0  0  0  0  0
  161.2620  209.0630  156.5880 S   0  0  0  0  0  0  0  0  0  0  0  0
  160.2040  208.0560  154.4320 O   0  0  0  0  0  1  0  0  0  0  0  0
  160.9450  210.7770  156.8670 C   0  0  0  0  0  2  0  0  0  0  0  0
  160.0170  212.3630  151.3950 N   0  0  0  0  0  0  0  0  0  0  0  0
  158.3890  212.2400  153.7190 C   0  0  2  0  0  3  0  0  0  0  0  0
  159.8630  211.0680  152.0630 C   0  0  2  0  0  3  0  0  0  0  0  0
  158.6260  213.5270  152.9780 C   0  0  0  0  0  2  0  0  0  0  0  0
  159.4150  213.5630  151.9030 C   0  0  0  0  0  3  0  0  0  0  0  0
  158.5160  211.0260  152.7950 C   0  0  0  0  0  2  0  0  0  0  0  0
  156.2420  213.1190  154.1520 O   0  0  0  0  0  0  0  0  0  0  0  0
  157.0590  212.2520  154.4180 C   0  0  0  0  0  0  0  0  0  0  0  0
  156.7030  211.2160  155.4440 C   0  0  0  0  0  2  0  0  0  0  0  0
  155.4750  210.5170  155.0990 N   0  0  0  0  0  1  0  0  0  0  0  0
  161.9080  209.7560  152.4700 N   0  0  0  0  0  2  0  0  0  0  0  0
  161.8850  209.3620  151.0920 C   0  0  0  0  0  0  0  0  0  0  0  0
  161.4360  205.7970  151.5580 C   0  0  0  0  0  2  0  0  0  0  0  0
  161.4200  208.1510  150.7510 C   0  0  0  0  0  0  0  0  0  0  0  0
  162.3940  210.3080  150.0460 C   0  0  0  0  0  1  0  0  0  0  0  0
  161.3740  207.7060  149.3100 C   0  0  0  0  0  2  0  0  0  0  0  0
  160.9020  207.2100  151.8040 C   0  0  0  0  0  2  0  0  0  0  0  0
  160.6670  206.3580  149.1680 C   0  0  0  0  0  2  0  0  0  0  0  0
  161.2830  205.3140  150.1040 C   0  0  0  0  0  2  0  0  0  0  0  0
  1 20  1  6  0  0  0
  2  1  1  6  0  0  0
  2  6  1  0  0  0  0
  2  4  1  0  0  0  0
  4  9  1  0  0  0  0
  6  8  1  1  0  0  0
  6  7  1  0  0  0  0
  7  9  1  0  0  0  0
  7  3  2  0  0  0  0
  7  5  2  0  0  0  0
 10 14  2  0  0  0  0
 10 12  1  0  0  0  0
 11 17  1  6  0  0  0
 12 15  1  0  0  0  0
 12  1  1  1  0  0  0
 13 11  1  0  0  0  0
 14 13  1  0  0  0  0
 15 11  1  0  0  0  0
 16 17  2  0  0  0  0
 17 18  1  0  0  0  0
 19 18  1  0  0  0  0
 21 20  1  0  0  0  0
 22 26  1  0  0  0  0
 23 21  2  0  0  0  0
 23 26  1  0  0  0  0
 24 21  1  0  0  0  0
 25 23  1  0  0  0  0
 27 25  1  0  0  0  0
 27 28  1  0  0  0  0
 28 22  1  0  0  0  0
M  END
>  <MODEL>
4

>  <REMARK>
 VINA RESULT:      -6.2      5.581      9.078
  Name = 
  6 active torsions:
  status: ('A' for Active; 'I' for Inactive)
    1  A    between atoms: C_1  and  C_2
    2  A    between atoms: C_2  and  C_12
    3  A    between atoms: C_2  and  N_20
    4  A    between atoms: C_4  and  C_11
    5  A    between atoms: C_4  and  C_18
    6  A    between atoms: C_7  and  N_20
                            x       y       z     vdW  Elec       q    Type
                         _______ _______ _______ _____ _____    ______ ____

>  <TORSDO>
F 6

$$$$
=
 OpenBabel11072414123D

 28 30  0  0  1  0  0  0  0  0999 V2000
  161.6390  205.2940  149.2460 C   0  0  2  0  0  3  0  0  0  0  0  0
  161.7120  205.8100  147.8030 C   0  0  2  0  0  3  0  0  0  0  0  0
  160.6170  204.1080  144.6900 O   0  0  0  0  0  0  0  0  0  0  0  0
  160.4070  206.4530  147.3190 C   0  0  0  0  0  2  0  0  0  0  0  0
  162.5020  205.6590  144.2900 O   0  0  0  0  0  0  0  0  0  0  0  0
  162.1510  204.7310  146.8230 C   0  0  1  0  0  3  0  0  0  0  0  0
  161.4560  205.2110  145.2720 S   0  0  0  0  0  0  0  0  0  0  0  0
  163.5450  204.7030  146.7430 O   0  0  0  0  0  1  0  0  0  0  0  0
  160.4570  206.5640  145.8040 C   0  0  0  0  0  2  0  0  0  0  0  0
  160.4540  203.8870  150.9030 N   0  0  0  0  0  2  0  0  0  0  0  0
  161.3700  202.2350  148.7820 C   0  0  2  0  0  3  0  0  0  0  0  0
  160.4010  204.4210  149.5390 C   0  0  2  0  0  3  0  0  0  0  0  0
  161.4050  201.7850  150.2170 C   0  0  0  0  0  3  0  0  0  0  0  0
  160.9920  202.5900  151.1980 C   0  0  0  0  0  3  0  0  0  0  0  0
  160.2620  203.2650  148.5420 C   0  0  0  0  0  2  0  0  0  0  0  0
  161.5810  199.9540  148.2150 O   0  0  0  0  0  0  0  0  0  0  0  0
  161.2340  201.0660  147.8490 C   0  0  0  0  0  0  0  0  0  0  0  0
  160.6780  201.2280  146.4640 C   0  0  0  0  0  2  0  0  0  0  0  0
  160.8550  200.0240  145.6680 N   0  0  0  0  0  1  0  0  0  0  0  0
  161.6860  206.4300  150.1560 N   0  0  0  0  0  2  0  0  0  0  0  0
  161.9930  206.3040  151.5510 C   0  0  0  0  0  0  0  0  0  0  0  0
  160.7670  209.5270  152.6660 C   0  0  0  0  0  2  0  0  0  0  0  0
  161.4290  207.1380  152.4370 C   0  0  0  0  0  0  0  0  0  0  0  0
  162.9530  205.2440  152.0020 C   0  0  0  0  0  1  0  0  0  0  0  0
  161.7230  207.0300  153.9130 C   0  0  0  0  0  2  0  0  0  0  0  0
  160.4590  208.1940  151.9800 C   0  0  0  0  0  2  0  0  0  0  0  0
  160.8490  207.9860  154.7240 C   0  0  0  0  0  2  0  0  0  0  0  0
  160.9570  209.4170  154.1890 C   0  0  0  0  0  2  0  0  0  0  0  0
  1 20  1  1  0  0  0
  2  1  1  1  0  0  0
  3  7  2  0  0  0  0
  4  2  1  0  0  0  0
  5  7  2  0  0  0  0
  6  8  1  6  0  0  0
  6  2  1  0  0  0  0
  7  9  1  0  0  0  0
  7  6  1  0  0  0  0
  9  4  1  0  0  0  0
 10 14  1  0  0  0  0
 11 17  1  6  0  0  0
 11 13  1  0  0  0  0
 12  1  1  6  0  0  0
 12 10  1  0  0  0  0
 13 14  2  0  0  0  0
 15 11  1  0  0  0  0
 15 12  1  0  0  0  0
 17 16  2  0  0  0  0
 18 17  1  0  0  0  0
 19 18  1  0  0  0  0
 20 21  1  0  0  0  0
 21 24  1  0  0  0  0
 21 23  2  0  0  0  0
 22 28  1  0  0  0  0
 23 25  1  0  0  0  0
 25 27  1  0  0  0  0
 26 23  1  0  0  0  0
 26 22  1  0  0  0  0
 28 27  1  0  0  0  0
M  END
>  <MODEL>
5

>  <REMARK>
 VINA RESULT:      -5.9      1.333      1.941
  Name = 
  6 active torsions:
  status: ('A' for Active; 'I' for Inactive)
    1  A    between atoms: C_1  and  C_2
    2  A    between atoms: C_2  and  C_12
    3  A    between atoms: C_2  and  N_20
    4  A    between atoms: C_4  and  C_11
    5  A    between atoms: C_4  and  C_18
    6  A    between atoms: C_7  and  N_20
                            x       y       z     vdW  Elec       q    Type
                         _______ _______ _______ _____ _____    ______ ____

>  <TORSDO>
F 6

$$$$
=
 OpenBabel11072414123D

 28 30  0  0  1  0  0  0  0  0999 V2000
  161.0340  209.5370  152.3960 C   0  0  2  0  0  3  0  0  0  0  0  0
  160.9640  209.8500  150.8960 C   0  0  2  0  0  3  0  0  0  0  0  0
  163.3420  211.8290  148.8430 O   0  0  0  0  0  0  0  0  0  0  0  0
  161.7920  208.8900  150.0340 C   0  0  0  0  0  2  0  0  0  0  0  0
  161.0320  211.9460  147.9650 O   0  0  0  0  0  0  0  0  0  0  0  0
  161.3510  211.2890  150.5850 C   0  0  1  0  0  3  0  0  0  0  0  0
  161.9560  211.2530  148.9260 S   0  0  0  0  0  0  0  0  0  0  0  0
  160.2270  212.1110  150.6740 O   0  0  0  0  0  1  0  0  0  0  0  0
  161.9700  209.5090  148.6560 C   0  0  0  0  0  2  0  0  0  0  0  0
  162.4380  210.2080  154.3210 N   0  0  0  0  0  0  0  0  0  0  0  0
  159.7140  210.7010  154.9550 C   0  0  2  0  0  3  0  0  0  0  0  0
  161.5600  210.7030  153.2570 C   0  0  2  0  0  3  0  0  0  0  0  0
  160.6870  210.1710  155.9720 C   0  0  0  0  0  2  0  0  0  0  0  0
  161.9560  209.9240  155.6420 C   0  0  0  0  0  3  0  0  0  0  0  0
  160.4210  211.5240  153.8740 C   0  0  0  0  0  2  0  0  0  0  0  0
  158.8970  212.3140  156.4710 O   0  0  0  0  0  0  0  0  0  0  0  0
  158.6200  211.4950  155.6100 C   0  0  0  0  0  0  0  0  0  0  0  0
  157.1790  211.3060  155.2320 C   0  0  0  0  0  2  0  0  0  0  0  0
  156.6950  212.3950  154.3980 N   0  0  0  0  0  1  0  0  0  0  0  0
  161.8560  208.3500  152.5930 N   0  0  0  0  0  2  0  0  0  0  0  0
  161.3300  207.1030  153.0660 C   0  0  0  0  0  0  0  0  0  0  0  0
  161.2060  205.3360  149.9050 C   0  0  0  0  0  2  0  0  0  0  0  0
  161.4040  206.0100  152.2920 C   0  0  0  0  0  0  0  0  0  0  0  0
  160.6890  207.0400  154.4200 C   0  0  0  0  0  1  0  0  0  0  0  0
  160.8680  204.6800  152.7610 C   0  0  0  0  0  2  0  0  0  0  0  0
  162.0570  206.0780  150.9390 C   0  0  0  0  0  2  0  0  0  0  0  0
  161.2070  203.5660  151.7710 C   0  0  0  0  0  2  0  0  0  0  0  0
  160.7570  203.9340  150.3550 C   0  0  0  0  0  2  0  0  0  0  0  0
  1 20  1  6  0  0  0
  2  1  1  1  0  0  0
  3  7  2  0  0  0  0
  4  2  1  0  0  0  0
  5  7  2  0  0  0  0
  6  8  1  6  0  0  0
  6  2  1  0  0  0  0
  7  6  1  0  0  0  0
  9  7  1  0  0  0  0
  9  4  1  0  0  0  0
 10 14  2  0  0  0  0
 11 17  1  1  0  0  0
 11 13  1  0  0  0  0
 12  1  1  1  0  0  0
 12 15  1  0  0  0  0
 12 10  1  0  0  0  0
 14 13  1  0  0  0  0
 15 11  1  0  0  0  0
 17 16  2  0  0  0  0
 18 17  1  0  0  0  0
 19 18  1  0  0  0  0
 20 21  1  0  0  0  0
 21 24  1  0  0  0  0
 22 28  1  0  0  0  0
 22 26  1  0  0  0  0
 23 25  1  0  0  0  0
 23 21  2  0  0  0  0
 26 23  1  0  0  0  0
 27 25  1  0  0  0  0
 28 27  1  0  0  0  0
M  END
>  <MODEL>
6

>  <REMARK>
 VINA RESULT:      -5.8      4.670      7.802
  Name = 
  6 active torsions:
  status: ('A' for Active; 'I' for Inactive)
    1  A    between atoms: C_1  and  C_2
    2  A    between atoms: C_2  and  C_12
    3  A    between atoms: C_2  and  N_20
    4  A    between atoms: C_4  and  C_11
    5  A    between atoms: C_4  and  C_18
    6  A    between atoms: C_7  and  N_20
                            x       y       z     vdW  Elec       q    Type
                         _______ _______ _______ _____ _____    ______ ____

>  <TORSDO>
F 6

$$$$
=
 OpenBabel11072414123D

 28 30  0  0  1  0  0  0  0  0999 V2000
  161.6240  209.3400  151.2610 C   0  0  2  0  0  3  0  0  0  0  0  0
  161.6210  209.0860  152.7730 C   0  0  2  0  0  3  0  0  0  0  0  0
  160.3250  211.2790  155.4750 O   0  0  0  0  0  0  0  0  0  0  0  0
  160.2990  208.5070  153.2910 C   0  0  0  0  0  2  0  0  0  0  0  0
  162.2050  209.8670  156.2440 O   0  0  0  0  0  0  0  0  0  0  0  0
  161.9880  210.3290  153.5710 C   0  0  1  0  0  3  0  0  0  0  0  0
  161.2110  210.1110  155.1430 S   0  0  0  0  0  0  0  0  0  0  0  0
  163.3730  210.4040  153.7210 O   0  0  0  0  0  1  0  0  0  0  0  0
  160.2620  208.6630  154.8030 C   0  0  0  0  0  2  0  0  0  0  0  0
  161.9590  208.1820  149.0980 N   0  0  0  0  0  0  0  0  0  0  0  0
  161.2000  206.2710  151.0560 C   0  0  2  0  0  3  0  0  0  0  0  0
  162.4830  208.3410  150.4580 C   0  0  2  0  0  3  0  0  0  0  0  0
  160.6970  206.2060  149.6400 C   0  0  0  0  0  2  0  0  0  0  0  0
  161.0490  207.1310  148.7450 C   0  0  0  0  0  3  0  0  0  0  0  0
  162.5600  206.9700  151.1390 C   0  0  0  0  0  2  0  0  0  0  0  0
  161.0310  204.7700  152.8690 O   0  0  0  0  0  0  0  0  0  0  0  0
  161.2550  204.9040  151.6770 C   0  0  0  0  0  0  0  0  0  0  0  0
  161.5810  203.6850  150.8630 C   0  0  0  0  0  2  0  0  0  0  0  0
  160.4410  202.7880  150.7570 N   0  0  0  0  0  1  0  0  0  0  0  0
  162.0690  210.7050  151.0130 N   0  0  0  0  0  2  0  0  0  0  0  0
  161.4920  211.5450  150.0050 C   0  0  0  0  0  0  0  0  0  0  0  0
  158.5540  212.6310  151.8290 C   0  0  0  0  0  2  0  0  0  0  0  0
  160.5370  212.4260  150.3380 C   0  0  0  0  0  0  0  0  0  0  0  0
  161.9560  211.4200  148.5850 C   0  0  0  0  0  1  0  0  0  0  0  0
  159.9110  213.3320  149.3050 C   0  0  0  0  0  2  0  0  0  0  0  0
  160.0820  212.5550  151.7660 C   0  0  0  0  0  2  0  0  0  0  0  0
  158.9660  214.3430  149.9540 C   0  0  0  0  0  2  0  0  0  0  0  0
  157.9370  213.6400  150.8440 C   0  0  0  0  0  2  0  0  0  0  0  0
  1 20  1  1  0  0  0
  2  1  1  6  0  0  0
  2  4  1  0  0  0  0
  2  6  1  0  0  0  0
  4  9  1  0  0  0  0
  6  8  1  1  0  0  0
  6  7  1  0  0  0  0
  7  3  2  0  0  0  0
  7  5  2  0  0  0  0
  9  7  1  0  0  0  0
 10 12  1  0  0  0  0
 11 15  1  0  0  0  0
 11 17  1  6  0  0  0
 12 15  1  0  0  0  0
 12  1  1  1  0  0  0
 13 11  1  0  0  0  0
 14 10  2  0  0  0  0
 14 13  1  0  0  0  0
 17 16  2  0  0  0  0
 18 17  1  0  0  0  0
 19 18  1  0  0  0  0
 21 23  2  0  0  0  0
 21 20  1  0  0  0  0
 23 26  1  0  0  0  0
 24 21  1  0  0  0  0
 25 27  1  0  0  0  0
 25 23  1  0  0  0  0
 26 22  1  0  0  0  0
 27 28  1  0  0  0  0
 28 22  1  0  0  0  0
M  END
>  <MODEL>
7

>  <REMARK>
 VINA RESULT:      -5.6      4.743      6.399
  Name = 
  6 active torsions:
  status: ('A' for Active; 'I' for Inactive)
    1  A    between atoms: C_1  and  C_2
    2  A    between atoms: C_2  and  C_12
    3  A    between atoms: C_2  and  N_20
    4  A    between atoms: C_4  and  C_11
    5  A    between atoms: C_4  and  C_18
    6  A    between atoms: C_7  and  N_20
                            x       y       z     vdW  Elec       q    Type
                         _______ _______ _______ _____ _____    ______ ____

>  <TORSDO>
F 6

$$$$
=
 OpenBabel11072414123D

 28 30  0  0  1  0  0  0  0  0999 V2000
  161.3090  208.0840  150.7310 C   0  0  2  0  0  3  0  0  0  0  0  0
  161.1300  207.6980  149.2570 C   0  0  2  0  0  3  0  0  0  0  0  0
  162.7020  204.8920  147.4030 O   0  0  0  0  0  0  0  0  0  0  0  0
  160.0820  206.6010  149.0360 C   0  0  0  0  0  2  0  0  0  0  0  0
  162.2060  206.8170  145.9320 O   0  0  0  0  0  0  0  0  0  0  0  0
  162.4430  207.2990  148.5990 C   0  0  1  0  0  3  0  0  0  0  0  0
  161.9850  206.2070  147.2880 S   0  0  0  0  0  0  0  0  0  0  0  0
  163.0810  208.4300  148.0880 O   0  0  0  0  0  1  0  0  0  0  0  0
  160.2640  206.0330  147.6380 C   0  0  0  0  0  2  0  0  0  0  0  0
  162.7760  209.4750  152.1600 N   0  0  0  0  0  0  0  0  0  0  0  0
  160.1200  210.4660  152.3300 C   0  0  2  0  0  3  0  0  0  0  0  0
  161.9570  209.4670  150.9450 C   0  0  2  0  0  3  0  0  0  0  0  0
  161.0300  210.4110  153.5260 C   0  0  0  0  0  2  0  0  0  0  0  0
  162.2660  209.9180  153.4250 C   0  0  0  0  0  3  0  0  0  0  0  0
  160.9120  210.5860  151.0250 C   0  0  0  0  0  2  0  0  0  0  0  0
  158.1890  211.4670  153.2450 O   0  0  0  0  0  0  0  0  0  0  0  0
  159.1170  211.5770  152.4600 C   0  0  0  0  0  0  0  0  0  0  0  0
  159.2270  212.8310  151.6430 C   0  0  0  0  0  2  0  0  0  0  0  0
  157.9420  213.2230  151.0830 N   0  0  0  0  0  1  0  0  0  0  0  0
  162.0890  207.0490  151.3980 N   0  0  0  0  0  2  0  0  0  0  0  0
  161.5070  206.0680  152.2670 C   0  0  0  0  0  0  0  0  0  0  0  0
  160.9750  203.4400  149.8290 C   0  0  0  0  0  2  0  0  0  0  0  0
  161.4290  204.7890  151.8710 C   0  0  0  0  0  0  0  0  0  0  0  0
  160.9810  206.4880  153.6060 C   0  0  0  0  0  1  0  0  0  0  0  0
  160.8300  203.7280  152.7610 C   0  0  0  0  0  2  0  0  0  0  0  0
  161.9670  204.3720  150.5290 C   0  0  0  0  0  2  0  0  0  0  0  0
  160.9940  202.3360  152.1520 C   0  0  0  0  0  2  0  0  0  0  0  0
  160.4560  202.2970  150.7190 C   0  0  0  0  0  2  0  0  0  0  0  0
  1 20  1  1  0  0  0
  2  1  1  1  0  0  0
  4  2  1  0  0  0  0
  5  7  2  0  0  0  0
  6  8  1  6  0  0  0
  6  2  1  0  0  0  0
  7  3  2  0  0  0  0
  7  9  1  0  0  0  0
  7  6  1  0  0  0  0
  9  4  1  0  0  0  0
 10 14  2  0  0  0  0
 11 17  1  1  0  0  0
 11 13  1  0  0  0  0
 12  1  1  1  0  0  0
 12 15  1  0  0  0  0
 12 10  1  0  0  0  0
 14 13  1  0  0  0  0
 15 11  1  0  0  0  0
 17 16  2  0  0  0  0
 18 17  1  0  0  0  0
 19 18  1  0  0  0  0
 20 21  1  0  0  0  0
 21 24  1  0  0  0  0
 22 26  1  0  0  0  0
 22 28  1  0  0  0  0
 23 21  2  0  0  0  0
 23 25  1  0  0  0  0
 26 23  1  0  0  0  0
 27 25  1  0  0  0  0
 28 27  1  0  0  0  0
M  END
>  <MODEL>
8

>  <REMARK>
 VINA RESULT:      -5.6      3.112      6.484
  Name = 
  6 active torsions:
  status: ('A' for Active; 'I' for Inactive)
    1  A    between atoms: C_1  and  C_2
    2  A    between atoms: C_2  and  C_12
    3  A    between atoms: C_2  and  N_20
    4  A    between atoms: C_4  and  C_11
    5  A    between atoms: C_4  and  C_18
    6  A    between atoms: C_7  and  N_20
                            x       y       z     vdW  Elec       q    Type
                         _______ _______ _______ _____ _____    ______ ____

>  <TORSDO>
F 6

$$$$
=
 OpenBabel11072414123D

 28 30  0  0  1  0  0  0  0  0999 V2000
  160.6240  209.9480  153.0350 C   0  0  2  0  0  3  0  0  0  0  0  0
  160.1790  209.3640  154.3820 C   0  0  2  0  0  3  0  0  0  0  0  0
  162.2980  208.0950  157.1550 O   0  0  0  0  0  0  0  0  0  0  0  0
  160.1750  210.3920  155.5200 C   0  0  0  0  0  2  0  0  0  0  0  0
  160.1050  206.9540  157.0620 O   0  0  0  0  0  0  0  0  0  0  0  0
  161.0010  208.1480  154.7870 C   0  0  1  0  0  3  0  0  0  0  0  0
  160.9220  208.1080  156.5510 S   0  0  0  0  0  0  0  0  0  0  0  0
  160.4330  206.9920  154.2500 O   0  0  0  0  0  1  0  0  0  0  0  0
  160.1080  209.6470  156.8440 C   0  0  0  0  0  2  0  0  0  0  0  0
  162.5240  210.2990  151.4880 N   0  0  0  0  0  2  0  0  0  0  0  0
  161.1630  207.9180  150.7470 C   0  0  2  0  0  3  0  0  0  0  0  0
  162.0000  209.4420  152.5550 C   0  0  2  0  0  3  0  0  0  0  0  0
  161.7160  208.8730  149.7250 C   0  0  0  0  0  3  0  0  0  0  0  0
  162.3300  209.9970  150.0980 C   0  0  0  0  0  3  0  0  0  0  0  0
  161.9410  207.9910  152.0640 C   0  0  0  0  0  2  0  0  0  0  0  0
  161.5480  205.5950  150.9010 O   0  0  0  0  0  0  0  0  0  0  0  0
  161.1260  206.5140  150.2160 C   0  0  0  0  0  0  0  0  0  0  0  0
  160.5780  206.2040  148.8540 C   0  0  0  0  0  2  0  0  0  0  0  0
  161.4100  205.2450  148.1440 N   0  0  0  0  0  1  0  0  0  0  0  0
  160.6210  211.4020  153.1270 N   0  0  0  0  0  2  0  0  0  0  0  0
  159.7390  212.2330  152.3620 C   0  0  0  0  0  0  0  0  0  0  0  0
  156.9090  212.2390  154.6270 C   0  0  0  0  0  2  0  0  0  0  0  0
  158.6650  212.7830  152.9480 C   0  0  0  0  0  0  0  0  0  0  0  0
  160.0210  212.4670  150.9090 C   0  0  0  0  0  1  0  0  0  0  0  0
  157.7180  213.6690  152.1760 C   0  0  0  0  0  2  0  0  0  0  0  0
  158.3920  212.5520  154.4090 C   0  0  0  0  0  2  0  0  0  0  0  0
  156.6680  214.2920  153.0960 C   0  0  0  0  0  2  0  0  0  0  0  0
  155.9540  213.2180  153.9210 C   0  0  0  0  0  2  0  0  0  0  0  0
  1 20  1  1  0  0  0
  2  1  1  6  0  0  0
  2  6  1  0  0  0  0
  2  4  1  0  0  0  0
  4  9  1  0  0  0  0
  6  8  1  6  0  0  0
  6  7  1  0  0  0  0
  7  9  1  0  0  0  0
  7  5  2  0  0  0  0
  7  3  2  0  0  0  0
 10 12  1  0  0  0  0
 11 17  1  6  0  0  0
 11 15  1  0  0  0  0
 12  1  1  6  0  0  0
 13 14  2  0  0  0  0
 13 11  1  0  0  0  0
 14 10  1  0  0  0  0
 15 12  1  0  0  0  0
 17 16  2  0  0  0  0
 18 17  1  0  0  0  0
 19 18  1  0  0  0  0
 21 23  2  0  0  0  0
 21 20  1  0  0  0  0
 23 26  1  0  0  0  0
 24 21  1  0  0  0  0
 25 23  1  0  0  0  0
 25 27  1  0  0  0  0
 26 22  1  0  0  0  0
 27 28  1  0  0  0  0
 28 22  1  0  0  0  0
M  END
>  <MODEL>
9

>  <REMARK>
 VINA RESULT:      -5.5      4.818      7.398
  Name = 
  6 active torsions:
  status: ('A' for Active; 'I' for Inactive)
    1  A    between atoms: C_1  and  C_2
    2  A    between atoms: C_2  and  C_12
    3  A    between atoms: C_2  and  N_20
    4  A    between atoms: C_4  and  C_11
    5  A    between atoms: C_4  and  C_18
    6  A    between atoms: C_7  and  N_20
                            x       y       z     vdW  Elec       q    Type
                         _______ _______ _______ _____ _____    ______ ____

>  <TORSDO>
F 6

$$$$
