=
 OpenBabel11072412133D

 31 34  0  0  1  0  0  0  0  0999 V2000
  160.9580  206.9080  149.9370 C   0  0  2  0  0  3  0  0  0  0  0  0
  161.8260  210.0780  150.1560 C   0  0  0  0  0  0  0  0  0  0  0  0
  161.1490  206.6040  152.7970 C   0  0  0  0  0  3  0  0  0  0  0  0
  161.1440  205.3390  151.9880 C   0  0  0  0  0  2  0  0  0  0  0  0
  160.5100  205.5910  150.6060 C   0  0  2  0  0  3  0  0  0  0  0  0
  160.1300  212.2480  153.3230 N   0  0  0  0  0  2  0  0  0  0  0  0
  160.7270  211.1130  153.4760 C   0  0  0  0  0  0  0  0  0  0  0  0
  161.5570  206.4600  148.6430 C   0  0  0  0  0  2  0  0  0  0  0  0
  161.5630  207.7430  152.2350 C   0  0  0  0  0  0  0  0  0  0  0  0
  161.0030  210.5510  154.7550 N   0  0  0  0  0  2  0  0  0  0  0  0
  160.9330  210.1380  152.4110 C   0  0  0  0  0  0  0  0  0  0  0  0
  161.0030  205.0660  148.4770 C   0  0  2  0  0  3  0  0  0  0  0  0
  161.7610  208.3720  155.2590 O   0  0  0  0  0  0  0  0  0  0  0  0
  160.5950  210.3020  150.9670 C   0  0  0  0  0  2  0  0  0  0  0  0
  162.4330  208.9250  150.1530 N   0  0  0  0  0  0  0  0  0  0  0  0
  161.9890  207.6710  150.7790 C   0  0  2  0  0  3  0  0  0  0  0  0
  160.8030  204.5130  149.7520 O   0  0  0  0  0  0  0  0  0  0  0  0
  161.3650  209.0120  152.9610 C   0  0  0  0  0  0  0  0  0  0  0  0
  161.4110  209.2320  154.4080 C   0  0  0  0  0  0  0  0  0  0  0  0
  161.9200  211.8460  148.4420 C   0  0  0  0  0  0  0  0  0  0  0  0
  160.0440  212.0790  146.7120 C   0  0  0  0  0  1  0  0  0  0  0  0
  162.3930  211.2140  149.4820 N   0  0  0  0  0  0  0  0  0  0  0  0
  160.6710  211.4380  147.8560 N   0  0  0  0  0  2  0  0  0  0  0  0
  162.6290  213.0900  146.3600 C   0  0  0  0  0  1  0  0  0  0  0  0
  162.6950  213.0270  147.8800 C   0  0  0  0  0  0  0  0  0  0  0  0
  164.1570  212.9230  148.2720 C   0  0  0  0  0  1  0  0  0  0  0  0
  162.1250  214.3280  148.4160 C   0  0  0  0  0  1  0  0  0  0  0  0
  161.9700  204.1980  147.6870 C   0  0  0  0  0  2  0  0  0  0  0  0
  163.1000  204.8070  145.5700 C   0  0  0  0  0  1  0  0  0  0  0  0
  161.3540  203.1980  145.6080 O   0  0  0  0  0  1  0  0  0  0  0  0
  161.7830  204.3920  146.1910 C   0  0  1  0  0  3  0  0  0  0  0  0
  1  8  1  6  0  0  0
  1  5  1  0  0  0  0
  1 16  1  0  0  0  0
  2 14  1  0  0  0  0
  4  3  1  0  0  0  0
  5  4  1  1  0  0  0
  6  7  2  0  0  0  0
  7 10  1  0  0  0  0
  9  3  2  0  0  0  0
  9 18  1  0  0  0  0
 11 18  2  0  0  0  0
 11  7  1  0  0  0  0
 12 28  1  6  0  0  0
 12  8  1  0  0  0  0
 12 17  1  0  0  0  0
 14 11  1  0  0  0  0
 15  2  2  0  0  0  0
 16 15  1  6  0  0  0
 16  9  1  0  0  0  0
 17  5  1  0  0  0  0
 18 19  1  0  0  0  0
 19 10  1  0  0  0  0
 19 13  2  0  0  0  0
 20 22  2  0  0  0  0
 21 23  1  0  0  0  0
 22  2  1  0  0  0  0
 23 20  1  0  0  0  0
 24 25  1  0  0  0  0
 25 26  1  0  0  0  0
 25 27  1  0  0  0  0
 25 20  1  0  0  0  0
 30 31  1  0  0  0  0
 31 29  1  6  0  0  0
 31 28  1  0  0  0  0
M  END
>  <MODEL>
1

>  <REMARK>
 VINA RESULT:      -6.9      0.000      0.000
  Name = 
  4 active torsions:
  status: ('A' for Active; 'I' for Inactive)
    1  A    between atoms: C_1  and  C_8
    2  A    between atoms: C_4  and  N_22
    3  A    between atoms: C_12  and  C_15
    4  A    between atoms: C_15  and  C_21
                            x       y       z     vdW  Elec       q    Type
                         _______ _______ _______ _____ _____    ______ ____

>  <TORSDO>
F 4

$$$$
=
 OpenBabel11072412133D

 31 34  0  0  1  0  0  0  0  0999 V2000
  160.4620  208.5820  153.1350 C   0  0  2  0  0  3  0  0  0  0  0  0
  160.0400  211.6570  152.0330 C   0  0  0  0  0  0  0  0  0  0  0  0
  161.0580  209.5560  155.7810 C   0  0  0  0  0  3  0  0  0  0  0  0
  161.4630  208.1420  155.4820 C   0  0  0  0  0  2  0  0  0  0  0  0
  160.6380  207.5880  154.3030 C   0  0  2  0  0  3  0  0  0  0  0  0
  157.9770  214.2730  154.5860 N   0  0  0  0  0  2  0  0  0  0  0  0
  158.9830  213.5550  154.9620 C   0  0  0  0  0  0  0  0  0  0  0  0
  161.0480  207.8580  151.9650 C   0  0  0  0  0  2  0  0  0  0  0  0
  160.9320  210.4310  154.7800 C   0  0  0  0  0  0  0  0  0  0  0  0
  159.5900  213.6870  156.2430 N   0  0  0  0  0  2  0  0  0  0  0  0
  159.4390  212.3500  154.2790 C   0  0  0  0  0  0  0  0  0  0  0  0
  161.0690  206.4220  152.4310 C   0  0  2  0  0  3  0  0  0  0  0  0
  161.1890  212.2730  157.2540 O   0  0  0  0  0  0  0  0  0  0  0  0
  158.9130  211.7900  153.0000 C   0  0  0  0  0  2  0  0  0  0  0  0
  161.0450  210.8640  152.2720 N   0  0  0  0  0  0  0  0  0  0  0  0
  161.1960  209.9070  153.3780 C   0  0  2  0  0  3  0  0  0  0  0  0
  161.2370  206.4100  153.8250 O   0  0  0  0  0  0  0  0  0  0  0  0
  160.3330  211.7510  155.0530 C   0  0  0  0  0  0  0  0  0  0  0  0
  160.4420  212.5470  156.2780 C   0  0  0  0  0  0  0  0  0  0  0  0
  160.7680  212.4360  149.8110 C   0  0  0  0  0  0  0  0  0  0  0  0
  162.5210  211.1200  148.4830 C   0  0  0  0  0  1  0  0  0  0  0  0
  160.0420  212.5310  150.8920 N   0  0  0  0  0  0  0  0  0  0  0  0
  161.6800  211.3350  149.6500 N   0  0  0  0  0  2  0  0  0  0  0  0
  160.2840  212.8740  147.3700 C   0  0  0  0  0  1  0  0  0  0  0  0
  160.6150  213.4870  148.7230 C   0  0  0  0  0  0  0  0  0  0  0  0
  161.9080  214.2670  148.5700 C   0  0  0  0  0  1  0  0  0  0  0  0
  159.4930  214.4450  149.0780 C   0  0  0  0  0  1  0  0  0  0  0  0
  162.2080  205.6630  151.7690 C   0  0  0  0  0  2  0  0  0  0  0  0
  161.3840  203.3300  151.7110 C   0  0  0  0  0  1  0  0  0  0  0  0
  160.5090  204.9750  150.2390 O   0  0  0  0  0  1  0  0  0  0  0  0
  161.6800  204.5550  150.8720 C   0  0  1  0  0  3  0  0  0  0  0  0
  1  8  1  6  0  0  0
  1 16  1  0  0  0  0
  1  5  1  0  0  0  0
  2 15  2  0  0  0  0
  2 14  1  0  0  0  0
  4  3  1  0  0  0  0
  5  4  1  1  0  0  0
  6  7  2  0  0  0  0
  7 10  1  0  0  0  0
  8 12  1  0  0  0  0
  9 18  1  0  0  0  0
  9  3  2  0  0  0  0
 10 19  1  0  0  0  0
 11  7  1  0  0  0  0
 11 18  2  0  0  0  0
 12 28  1  6  0  0  0
 12 17  1  0  0  0  0
 14 11  1  0  0  0  0
 16 15  1  6  0  0  0
 16  9  1  0  0  0  0
 17  5  1  0  0  0  0
 18 19  1  0  0  0  0
 19 13  2  0  0  0  0
 20 22  2  0  0  0  0
 21 23  1  0  0  0  0
 22  2  1  0  0  0  0
 23 20  1  0  0  0  0
 24 25  1  0  0  0  0
 25 27  1  0  0  0  0
 25 20  1  0  0  0  0
 26 25  1  0  0  0  0
 30 31  1  0  0  0  0
 31 29  1  1  0  0  0
 31 28  1  0  0  0  0
M  END
>  <MODEL>
2

>  <REMARK>
 VINA RESULT:      -6.4      2.363      3.730
  Name = 
  4 active torsions:
  status: ('A' for Active; 'I' for Inactive)
    1  A    between atoms: C_1  and  C_8
    2  A    between atoms: C_4  and  N_22
    3  A    between atoms: C_12  and  C_15
    4  A    between atoms: C_15  and  C_21
                            x       y       z     vdW  Elec       q    Type
                         _______ _______ _______ _____ _____    ______ ____

>  <TORSDO>
F 4

$$$$
=
 OpenBabel11072412133D

 31 34  0  0  1  0  0  0  0  0999 V2000
  160.3460  212.5760  151.4880 C   0  0  2  0  0  3  0  0  0  0  0  0
  160.6650  209.7160  153.0920 C   0  0  0  0  0  0  0  0  0  0  0  0
  158.6060  213.5970  153.5450 C   0  0  0  0  0  3  0  0  0  0  0  0
  158.5860  214.3240  152.2320 C   0  0  0  0  0  2  0  0  0  0  0  0
  159.8870  214.0490  151.4510 C   0  0  2  0  0  3  0  0  0  0  0  0
  161.1010  209.9700  157.2590 N   0  0  0  0  0  2  0  0  0  0  0  0
  160.1590  210.5620  156.6030 C   0  0  0  0  0  0  0  0  0  0  0  0
  160.3950  212.1860  150.0450 C   0  0  0  0  0  2  0  0  0  0  0  0
  158.9730  212.3130  153.5830 C   0  0  0  0  0  0  0  0  0  0  0  0
  159.0830  211.2420  157.2410 N   0  0  0  0  0  2  0  0  0  0  0  0
  160.2110  210.8690  155.1780 C   0  0  0  0  0  0  0  0  0  0  0  0
  160.4240  213.5180  149.3340 C   0  0  2  0  0  3  0  0  0  0  0  0
  157.4670  212.6610  156.2650 O   0  0  0  0  0  0  0  0  0  0  0  0
  161.2820  210.4800  154.2150 C   0  0  0  0  0  2  0  0  0  0  0  0
  159.7890  210.2690  152.3000 N   0  0  0  0  0  0  0  0  0  0  0  0
  159.3720  211.6780  152.2610 C   0  0  2  0  0  3  0  0  0  0  0  0
  159.7250  214.4530  150.1140 O   0  0  0  0  0  0  0  0  0  0  0  0
  159.1940  211.6700  154.8920 C   0  0  0  0  0  0  0  0  0  0  0  0
  158.4830  211.9260  156.1460 C   0  0  0  0  0  0  0  0  0  0  0  0
  161.3470  207.6500  151.9350 C   0  0  0  0  0  0  0  0  0  0  0  0
  161.9620  207.6960  149.4480 C   0  0  0  0  0  1  0  0  0  0  0  0
  160.9700  208.3160  152.9930 N   0  0  0  0  0  0  0  0  0  0  0  0
  161.5290  208.3320  150.6820 N   0  0  0  0  0  2  0  0  0  0  0  0
  160.8290  205.3490  151.0280 C   0  0  0  0  0  1  0  0  0  0  0  0
  161.6100  206.1580  152.0560 C   0  0  0  0  0  0  0  0  0  0  0  0
  161.2010  205.6670  153.4320 C   0  0  0  0  0  1  0  0  0  0  0  0
  163.0840  205.8690  151.8400 C   0  0  0  0  0  1  0  0  0  0  0  0
  159.7780  213.4050  147.9630 C   0  0  0  0  0  2  0  0  0  0  0  0
  159.9360  212.4550  145.6830 C   0  0  0  0  0  1  0  0  0  0  0  0
  161.8880  212.9550  146.9400 O   0  0  0  0  0  1  0  0  0  0  0  0
  160.5780  212.4870  147.0540 C   0  0  1  0  0  3  0  0  0  0  0  0
  1  8  1  6  0  0  0
  1 16  1  0  0  0  0
  2 14  1  0  0  0  0
  3  9  2  0  0  0  0
  4  3  1  0  0  0  0
  5  1  1  0  0  0  0
  5  4  1  1  0  0  0
  7 10  1  0  0  0  0
  7  6  2  0  0  0  0
  9 18  1  0  0  0  0
 11  7  1  0  0  0  0
 12 28  1  6  0  0  0
 12  8  1  0  0  0  0
 12 17  1  0  0  0  0
 14 11  1  0  0  0  0
 15  2  2  0  0  0  0
 16 15  1  1  0  0  0
 16  9  1  0  0  0  0
 17  5  1  0  0  0  0
 18 11  2  0  0  0  0
 18 19  1  0  0  0  0
 19 13  2  0  0  0  0
 19 10  1  0  0  0  0
 20 25  1  0  0  0  0
 20 22  2  0  0  0  0
 21 23  1  0  0  0  0
 22  2  1  0  0  0  0
 23 20  1  0  0  0  0
 24 25  1  0  0  0  0
 25 26  1  0  0  0  0
 27 25  1  0  0  0  0
 30 31  1  0  0  0  0
 31 29  1  6  0  0  0
 31 28  1  0  0  0  0
M  END
>  <MODEL>
3

>  <REMARK>
 VINA RESULT:      -5.9      3.509      6.767
  Name = 
  4 active torsions:
  status: ('A' for Active; 'I' for Inactive)
    1  A    between atoms: C_1  and  C_8
    2  A    between atoms: C_4  and  N_22
    3  A    between atoms: C_12  and  C_15
    4  A    between atoms: C_15  and  C_21
                            x       y       z     vdW  Elec       q    Type
                         _______ _______ _______ _____ _____    ______ ____

>  <TORSDO>
F 4

$$$$
=
 OpenBabel11072412133D

 31 34  0  0  1  0  0  0  0  0999 V2000
  161.7550  206.2260  151.5910 C   0  0  2  0  0  3  0  0  0  0  0  0
  161.7150  207.9790  148.8020 C   0  0  0  0  0  0  0  0  0  0  0  0
  160.8190  203.8850  150.1940 C   0  0  0  0  0  3  0  0  0  0  0  0
  160.6860  203.8700  151.6890 C   0  0  0  0  0  2  0  0  0  0  0  0
  161.6720  204.8700  152.3240 C   0  0  2  0  0  3  0  0  0  0  0  0
  163.1170  206.0220  145.3640 N   0  0  0  0  0  2  0  0  0  0  0  0
  162.2260  205.5230  146.1560 C   0  0  0  0  0  0  0  0  0  0  0  0
  161.3840  207.2190  152.6450 C   0  0  0  0  0  2  0  0  0  0  0  0
  160.8610  205.0540  149.5490 C   0  0  0  0  0  0  0  0  0  0  0  0
  161.5190  204.3220  145.8640 N   0  0  0  0  0  2  0  0  0  0  0  0
  162.0330  205.9300  147.5430 C   0  0  0  0  0  0  0  0  0  0  0  0
  161.5780  206.4440  153.9250 C   0  0  2  0  0  3  0  0  0  0  0  0
  160.1230  203.0650  147.2940 O   0  0  0  0  0  0  0  0  0  0  0  0
  162.7340  207.0340  148.2600 C   0  0  0  0  0  2  0  0  0  0  0  0
  160.8470  207.5970  149.6960 N   0  0  0  0  0  0  0  0  0  0  0  0
  160.7880  206.3090  150.4020 C   0  0  2  0  0  3  0  0  0  0  0  0
  161.3200  205.0880  153.6670 O   0  0  0  0  0  0  0  0  0  0  0  0
  161.2040  205.0670  148.1140 C   0  0  0  0  0  0  0  0  0  0  0  0
  160.8760  204.0560  147.1060 C   0  0  0  0  0  0  0  0  0  0  0  0
  161.5820  210.4400  148.8200 C   0  0  0  0  0  0  0  0  0  0  0  0
  161.5820  211.7250  151.0380 C   0  0  0  0  0  1  0  0  0  0  0  0
  161.6400  209.2860  148.2110 N   0  0  0  0  0  0  0  0  0  0  0  0
  161.6220  210.4990  150.2570 N   0  0  0  0  0  2  0  0  0  0  0  0
  160.8160  212.8470  148.7430 C   0  0  0  0  0  1  0  0  0  0  0  0
  161.4960  211.7110  147.9910 C   0  0  0  0  0  0  0  0  0  0  0  0
  160.6970  211.4540  146.7270 C   0  0  0  0  0  1  0  0  0  0  0  0
  162.8890  212.1820  147.6140 C   0  0  0  0  0  1  0  0  0  0  0  0
  160.6350  206.9510  155.0050 C   0  0  0  0  0  2  0  0  0  0  0  0
  159.7800  209.0860  155.9180 C   0  0  0  0  0  1  0  0  0  0  0  0
  161.9310  208.2750  156.5100 O   0  0  0  0  0  1  0  0  0  0  0  0
  161.0190  208.3500  155.4560 C   0  0  1  0  0  3  0  0  0  0  0  0
  1  5  1  0  0  0  0
  1  8  1  1  0  0  0
  2 15  2  0  0  0  0
  3  4  1  0  0  0  0
  5  4  1  6  0  0  0
  5 17  1  0  0  0  0
  6  7  2  0  0  0  0
  7 11  1  0  0  0  0
  8 12  1  0  0  0  0
  9  3  2  0  0  0  0
 10  7  1  0  0  0  0
 10 19  1  0  0  0  0
 11 18  2  0  0  0  0
 11 14  1  0  0  0  0
 12 28  1  1  0  0  0
 14  2  1  0  0  0  0
 15 16  1  0  0  0  0
 16  9  1  6  0  0  0
 16  1  1  0  0  0  0
 17 12  1  0  0  0  0
 18  9  1  0  0  0  0
 19 13  2  0  0  0  0
 19 18  1  0  0  0  0
 20 23  1  0  0  0  0
 22  2  1  0  0  0  0
 22 20  2  0  0  0  0
 23 21  1  0  0  0  0
 25 24  1  0  0  0  0
 25 20  1  0  0  0  0
 26 25  1  0  0  0  0
 27 25  1  0  0  0  0
 28 31  1  0  0  0  0
 31 29  1  1  0  0  0
 31 30  1  0  0  0  0
M  END
>  <MODEL>
4

>  <REMARK>
 VINA RESULT:      -5.8      2.159      6.304
  Name = 
  4 active torsions:
  status: ('A' for Active; 'I' for Inactive)
    1  A    between atoms: C_1  and  C_8
    2  A    between atoms: C_4  and  N_22
    3  A    between atoms: C_12  and  C_15
    4  A    between atoms: C_15  and  C_21
                            x       y       z     vdW  Elec       q    Type
                         _______ _______ _______ _____ _____    ______ ____

>  <TORSDO>
F 4

$$$$
=
 OpenBabel11072412133D

 31 34  0  0  1  0  0  0  0  0999 V2000
  160.8320  207.6630  152.7470 C   0  0  2  0  0  3  0  0  0  0  0  0
  160.8140  205.0980  150.6810 C   0  0  0  0  0  0  0  0  0  0  0  0
  162.2770  209.2620  150.8340 C   0  0  0  0  0  3  0  0  0  0  0  0
  162.2790  209.7530  152.2530 C   0  0  0  0  0  2  0  0  0  0  0  0
  161.0820  209.1610  153.0240 C   0  0  2  0  0  3  0  0  0  0  0  0
  160.0810  205.9790  146.6430 N   0  0  0  0  0  2  0  0  0  0  0  0
  160.9710  206.5860  147.3550 C   0  0  0  0  0  0  0  0  0  0  0  0
  160.9310  207.0340  154.1000 C   0  0  0  0  0  2  0  0  0  0  0  0
  162.0910  207.9630  150.5870 C   0  0  0  0  0  0  0  0  0  0  0  0
  161.8980  207.5160  146.8040 N   0  0  0  0  0  2  0  0  0  0  0  0
  160.9680  206.6390  148.8120 C   0  0  0  0  0  0  0  0  0  0  0  0
  160.7610  208.2080  155.0340 C   0  0  2  0  0  3  0  0  0  0  0  0
  163.3590  208.9760  147.9510 O   0  0  0  0  0  0  0  0  0  0  0  0
  160.0260  205.9390  149.7330 C   0  0  0  0  0  2  0  0  0  0  0  0
  161.6530  205.6340  151.5220 N   0  0  0  0  0  0  0  0  0  0  0  0
  161.8700  207.0630  151.7910 C   0  0  2  0  0  3  0  0  0  0  0  0
  161.2710  209.3540  154.4030 O   0  0  0  0  0  0  0  0  0  0  0  0
  161.8790  207.5220  149.1950 C   0  0  0  0  0  0  0  0  0  0  0  0
  162.4650  208.0880  147.9780 C   0  0  0  0  0  0  0  0  0  0  0  0
  160.9140  202.9530  149.4720 C   0  0  0  0  0  0  0  0  0  0  0  0
  161.5800  202.8850  146.9980 C   0  0  0  0  0  1  0  0  0  0  0  0
  160.7140  203.6710  150.5440 N   0  0  0  0  0  0  0  0  0  0  0  0
  161.3130  203.5870  148.2440 N   0  0  0  0  0  2  0  0  0  0  0  0
  161.5480  200.7150  148.4850 C   0  0  0  0  0  1  0  0  0  0  0  0
  160.7410  201.4450  149.5500 C   0  0  0  0  0  0  0  0  0  0  0  0
  159.2820  201.0780  149.3510 C   0  0  0  0  0  1  0  0  0  0  0  0
  161.2040  200.9360  150.9030 C   0  0  0  0  0  1  0  0  0  0  0  0
  161.5030  207.9650  156.3380 C   0  0  0  0  0  2  0  0  0  0  0  0
  162.5930  210.0720  157.0430 C   0  0  0  0  0  1  0  0  0  0  0  0
  160.2280  209.8760  156.9860 O   0  0  0  0  0  1  0  0  0  0  0  0
  161.3990  209.1680  157.2610 C   0  0  1  0  0  3  0  0  0  0  0  0
  1  5  1  0  0  0  0
  1  8  1  1  0  0  0
  2 15  2  0  0  0  0
  3  4  1  0  0  0  0
  5  4  1  6  0  0  0
  5 17  1  0  0  0  0
  6  7  2  0  0  0  0
  7 11  1  0  0  0  0
  8 12  1  0  0  0  0
  9  3  2  0  0  0  0
 10  7  1  0  0  0  0
 10 19  1  0  0  0  0
 11 18  2  0  0  0  0
 11 14  1  0  0  0  0
 12 28  1  1  0  0  0
 13 19  2  0  0  0  0
 14  2  1  0  0  0  0
 15 16  1  0  0  0  0
 16  9  1  6  0  0  0
 16  1  1  0  0  0  0
 17 12  1  0  0  0  0
 18  9  1  0  0  0  0
 19 18  1  0  0  0  0
 20 25  1  0  0  0  0
 20 22  2  0  0  0  0
 21 23  1  0  0  0  0
 22  2  1  0  0  0  0
 23 20  1  0  0  0  0
 24 25  1  0  0  0  0
 25 27  1  0  0  0  0
 26 25  1  0  0  0  0
 28 31  1  0  0  0  0
 30 31  1  0  0  0  0
 31 29  1  6  0  0  0
M  END
>  <MODEL>
5

>  <REMARK>
 VINA RESULT:      -5.5      3.537      8.276
  Name = 
  4 active torsions:
  status: ('A' for Active; 'I' for Inactive)
    1  A    between atoms: C_1  and  C_8
    2  A    between atoms: C_4  and  N_22
    3  A    between atoms: C_12  and  C_15
    4  A    between atoms: C_15  and  C_21
                            x       y       z     vdW  Elec       q    Type
                         _______ _______ _______ _____ _____    ______ ____

>  <TORSDO>
F 4

$$$$
=
 OpenBabel11072412133D

 31 34  0  0  1  0  0  0  0  0999 V2000
  161.6230  204.9920  149.4090 C   0  0  2  0  0  3  0  0  0  0  0  0
  161.2920  206.9630  152.0280 C   0  0  0  0  0  0  0  0  0  0  0  0
  161.4740  207.2500  147.6250 C   0  0  0  0  0  3  0  0  0  0  0  0
  161.2460  205.8980  147.0130 C   0  0  0  0  0  2  0  0  0  0  0  0
  161.8690  204.8000  147.8980 C   0  0  2  0  0  3  0  0  0  0  0  0
  163.4190  210.5790  151.9040 N   0  0  0  0  0  2  0  0  0  0  0  0
  162.6490  210.1720  150.9500 C   0  0  0  0  0  0  0  0  0  0  0  0
  160.9170  203.7370  149.8130 C   0  0  0  0  0  2  0  0  0  0  0  0
  161.2350  207.4330  148.9260 C   0  0  0  0  0  0  0  0  0  0  0  0
  162.3250  210.9770  149.8210 N   0  0  0  0  0  2  0  0  0  0  0  0
  162.2540  208.7830  150.7440 C   0  0  0  0  0  0  0  0  0  0  0  0
  161.2300  202.7920  148.6780 C   0  0  2  0  0  3  0  0  0  0  0  0
  161.2370  210.3270  147.8280 O   0  0  0  0  0  0  0  0  0  0  0  0
  162.5680  207.6200  151.6240 C   0  0  0  0  0  2  0  0  0  0  0  0
  160.5040  206.4170  151.1450 N   0  0  0  0  0  0  0  0  0  0  0  0
  160.7570  206.2220  149.7100 C   0  0  2  0  0  3  0  0  0  0  0  0
  161.3770  203.5440  147.5020 O   0  0  0  0  0  0  0  0  0  0  0  0
  161.6600  208.6950  149.5620 C   0  0  0  0  0  0  0  0  0  0  0  0
  161.6960  210.0310  148.9630 C   0  0  0  0  0  0  0  0  0  0  0  0
  160.6650  208.1530  154.0930 C   0  0  0  0  0  0  0  0  0  0  0  0
  160.5090  210.7110  154.1210 C   0  0  0  0  0  1  0  0  0  0  0  0
  160.8980  207.0670  153.4060 N   0  0  0  0  0  0  0  0  0  0  0  0
  160.7630  209.4410  153.4600 N   0  0  0  0  0  2  0  0  0  0  0  0
  159.3690  209.1760  156.0060 C   0  0  0  0  0  1  0  0  0  0  0  0
  160.2670  208.0320  155.5550 C   0  0  0  0  0  0  0  0  0  0  0  0
  161.5040  208.0450  156.4330 C   0  0  0  0  0  1  0  0  0  0  0  0
  159.5060  206.7380  155.7830 C   0  0  0  0  0  1  0  0  0  0  0  0
  160.1100  201.7780  148.5040 C   0  0  0  0  0  2  0  0  0  0  0  0
  160.6020  201.2690  146.1320 C   0  0  0  0  0  1  0  0  0  0  0  0
  161.7470  200.1530  147.8870 O   0  0  0  0  0  1  0  0  0  0  0  0
  160.5080  200.6850  147.5250 C   0  0  1  0  0  3  0  0  0  0  0  0
  1 16  1  0  0  0  0
  1  8  1  6  0  0  0
  2 22  1  0  0  0  0
  3  9  2  0  0  0  0
  4  3  1  0  0  0  0
  5  4  1  6  0  0  0
  5  1  1  0  0  0  0
  7  6  2  0  0  0  0
  9 18  1  0  0  0  0
 10  7  1  0  0  0  0
 11  7  1  0  0  0  0
 11 14  1  0  0  0  0
 12 28  1  6  0  0  0
 12  8  1  0  0  0  0
 13 19  2  0  0  0  0
 14  2  1  0  0  0  0
 15  2  2  0  0  0  0
 16  9  1  1  0  0  0
 16 15  1  0  0  0  0
 17  5  1  0  0  0  0
 17 12  1  0  0  0  0
 18 11  2  0  0  0  0
 19 18  1  0  0  0  0
 19 10  1  0  0  0  0
 20 25  1  0  0  0  0
 22 20  2  0  0  0  0
 23 20  1  0  0  0  0
 23 21  1  0  0  0  0
 25 27  1  0  0  0  0
 25 24  1  0  0  0  0
 25 26  1  0  0  0  0
 31 29  1  6  0  0  0
 31 30  1  0  0  0  0
 31 28  1  0  0  0  0
M  END
>  <MODEL>
6

>  <REMARK>
 VINA RESULT:      -5.3      2.559      5.565
  Name = 
  4 active torsions:
  status: ('A' for Active; 'I' for Inactive)
    1  A    between atoms: C_1  and  C_8
    2  A    between atoms: C_4  and  N_22
    3  A    between atoms: C_12  and  C_15
    4  A    between atoms: C_15  and  C_21
                            x       y       z     vdW  Elec       q    Type
                         _______ _______ _______ _____ _____    ______ ____

>  <TORSDO>
F 4

$$$$
=
 OpenBabel11072412133D

 31 34  0  0  1  0  0  0  0  0999 V2000
  160.6140  207.3560  151.5360 C   0  0  2  0  0  3  0  0  0  0  0  0
  160.2220  210.5980  151.9690 C   0  0  0  0  0  0  0  0  0  0  0  0
  161.7070  207.0800  154.1880 C   0  0  0  0  0  3  0  0  0  0  0  0
  161.9600  205.9450  153.2390 C   0  0  0  0  0  2  0  0  0  0  0  0
  160.9150  205.9530  152.1060 C   0  0  2  0  0  3  0  0  0  0  0  0
  158.7940  211.8050  155.7270 N   0  0  0  0  0  2  0  0  0  0  0  0
  159.7980  211.0070  155.5680 C   0  0  0  0  0  0  0  0  0  0  0  0
  160.9470  207.2250  150.0840 C   0  0  0  0  0  2  0  0  0  0  0  0
  161.4750  208.3030  153.7050 C   0  0  0  0  0  0  0  0  0  0  0  0
  160.6180  210.5730  156.6480 N   0  0  0  0  0  2  0  0  0  0  0  0
  160.0520  210.2290  154.3610 C   0  0  0  0  0  0  0  0  0  0  0  0
  160.9480  205.7310  149.8690 C   0  0  2  0  0  3  0  0  0  0  0  0
  162.2630  208.8780  156.6420 O   0  0  0  0  0  0  0  0  0  0  0  0
  159.2830  210.2790  153.0830 C   0  0  0  0  0  2  0  0  0  0  0  0
  161.1980  209.7930  151.6560 N   0  0  0  0  0  0  0  0  0  0  0  0
  161.4660  208.4500  152.1920 C   0  0  2  0  0  3  0  0  0  0  0  0
  161.3450  205.1110  151.0650 O   0  0  0  0  0  0  0  0  0  0  0  0
  161.0200  209.3630  154.6250 C   0  0  0  0  0  0  0  0  0  0  0  0
  161.3850  209.5430  156.0320 C   0  0  0  0  0  0  0  0  0  0  0  0
  160.6530  212.2930  150.2330 C   0  0  0  0  0  0  0  0  0  0  0  0
  162.1490  211.7460  148.2250 C   0  0  0  0  0  1  0  0  0  0  0  0
  160.0940  211.8830  151.3390 N   0  0  0  0  0  0  0  0  0  0  0  0
  161.4920  211.4030  149.4760 N   0  0  0  0  0  2  0  0  0  0  0  0
  159.6490  213.7360  148.4180 C   0  0  0  0  0  1  0  0  0  0  0  0
  160.3860  213.7100  149.7510 C   0  0  0  0  0  0  0  0  0  0  0  0
  161.6960  214.4520  149.5650 C   0  0  0  0  0  1  0  0  0  0  0  0
  159.5300  214.4520  150.7610 C   0  0  0  0  0  1  0  0  0  0  0  0
  161.9070  205.3530  148.7520 C   0  0  0  0  0  2  0  0  0  0  0  0
  162.1020  204.2680  146.5350 C   0  0  0  0  0  1  0  0  0  0  0  0
  161.2140  203.0960  148.4000 O   0  0  0  0  0  1  0  0  0  0  0  0
  161.2720  204.3540  147.7990 C   0  0  1  0  0  3  0  0  0  0  0  0
  1  8  1  6  0  0  0
  1  5  1  0  0  0  0
  1 16  1  0  0  0  0
  2 14  1  0  0  0  0
  4  3  1  0  0  0  0
  5  4  1  1  0  0  0
  7  6  2  0  0  0  0
  7 10  1  0  0  0  0
  9  3  2  0  0  0  0
  9 18  1  0  0  0  0
 11 18  2  0  0  0  0
 11  7  1  0  0  0  0
 12 28  1  6  0  0  0
 12  8  1  0  0  0  0
 12 17  1  0  0  0  0
 14 11  1  0  0  0  0
 15  2  2  0  0  0  0
 16 15  1  1  0  0  0
 16  9  1  0  0  0  0
 17  5  1  0  0  0  0
 18 19  1  0  0  0  0
 19 13  2  0  0  0  0
 19 10  1  0  0  0  0
 20 22  2  0  0  0  0
 21 23  1  0  0  0  0
 22  2  1  0  0  0  0
 23 20  1  0  0  0  0
 24 25  1  0  0  0  0
 25 20  1  0  0  0  0
 25 27  1  0  0  0  0
 26 25  1  0  0  0  0
 31 29  1  6  0  0  0
 31 30  1  0  0  0  0
 31 28  1  0  0  0  0
M  END
>  <MODEL>
7

>  <REMARK>
 VINA RESULT:      -5.2      1.634      2.235
  Name = 
  4 active torsions:
  status: ('A' for Active; 'I' for Inactive)
    1  A    between atoms: C_1  and  C_8
    2  A    between atoms: C_4  and  N_22
    3  A    between atoms: C_12  and  C_15
    4  A    between atoms: C_15  and  C_21
                            x       y       z     vdW  Elec       q    Type
                         _______ _______ _______ _____ _____    ______ ____

>  <TORSDO>
F 4

$$$$
=
 OpenBabel11072412133D

 31 34  0  0  1  0  0  0  0  0999 V2000
  161.3190  210.4820  150.1560 C   0  0  2  0  0  3  0  0  0  0  0  0
  161.0190  210.3170  153.4320 C   0  0  0  0  0  0  0  0  0  0  0  0
  162.4060  207.8140  150.0680 C   0  0  0  0  0  3  0  0  0  0  0  0
  162.6270  208.6670  148.8520 C   0  0  0  0  0  2  0  0  0  0  0  0
  161.5820  209.7990  148.7970 C   0  0  2  0  0  3  0  0  0  0  0  0
  159.6270  206.6730  154.9820 N   0  0  0  0  0  2  0  0  0  0  0  0
  160.6080  206.7640  154.1470 C   0  0  0  0  0  0  0  0  0  0  0  0
  161.6480  211.9180  149.8970 C   0  0  0  0  0  2  0  0  0  0  0  0
  162.2080  208.3970  151.2540 C   0  0  0  0  0  0  0  0  0  0  0  0
  161.4160  205.6510  153.7790 N   0  0  0  0  0  2  0  0  0  0  0  0
  160.8390  207.9030  153.2650 C   0  0  0  0  0  0  0  0  0  0  0  0
  161.6080  212.0090  148.3910 C   0  0  2  0  0  3  0  0  0  0  0  0
  163.0130  205.5150  152.0460 O   0  0  0  0  0  0  0  0  0  0  0  0
  160.0720  209.1820  153.2310 C   0  0  0  0  0  2  0  0  0  0  0  0
  161.9710  210.5610  152.5770 N   0  0  0  0  0  0  0  0  0  0  0  0
  162.2020  209.9160  151.2760 C   0  0  2  0  0  3  0  0  0  0  0  0
  161.9880  210.7660  147.8610 O   0  0  0  0  0  0  0  0  0  0  0  0
  161.7830  207.5670  152.3970 C   0  0  0  0  0  0  0  0  0  0  0  0
  162.1540  206.1790  152.6820 C   0  0  0  0  0  0  0  0  0  0  0  0
  159.9800  211.8680  155.0410 C   0  0  0  0  0  0  0  0  0  0  0  0
  157.7270  212.9700  154.5140 C   0  0  0  0  0  1  0  0  0  0  0  0
  160.9260  211.0500  154.6640 N   0  0  0  0  0  0  0  0  0  0  0  0
  158.8440  212.0970  154.1890 N   0  0  0  0  0  2  0  0  0  0  0  0
  160.1190  214.0680  156.2750 C   0  0  0  0  0  1  0  0  0  0  0  0
  160.0890  212.5510  156.3950 C   0  0  0  0  0  0  0  0  0  0  0  0
  161.3660  212.1200  157.0930 C   0  0  0  0  0  1  0  0  0  0  0  0
  158.8980  212.1840  157.2610 C   0  0  0  0  0  1  0  0  0  0  0  0
  162.5550  213.0910  147.8960 C   0  0  0  0  0  2  0  0  0  0  0  0
  162.5700  213.3870  145.4390 C   0  0  0  0  0  1  0  0  0  0  0  0
  160.5700  213.6470  146.6920 O   0  0  0  0  0  1  0  0  0  0  0  0
  161.9490  213.8620  146.7350 C   0  0  1  0  0  3  0  0  0  0  0  0
  1  8  1  6  0  0  0
  1 16  1  0  0  0  0
  2 22  1  0  0  0  0
  3  9  2  0  0  0  0
  4  3  1  0  0  0  0
  5  4  1  1  0  0  0
  5  1  1  0  0  0  0
  7  6  2  0  0  0  0
  9 18  1  0  0  0  0
 10  7  1  0  0  0  0
 11  7  1  0  0  0  0
 12 28  1  6  0  0  0
 12  8  1  0  0  0  0
 13 19  2  0  0  0  0
 14 11  1  0  0  0  0
 14  2  1  0  0  0  0
 15  2  2  0  0  0  0
 16  9  1  1  0  0  0
 16 15  1  0  0  0  0
 17 12  1  0  0  0  0
 17  5  1  0  0  0  0
 18 19  1  0  0  0  0
 18 11  2  0  0  0  0
 19 10  1  0  0  0  0
 20 25  1  0  0  0  0
 22 20  2  0  0  0  0
 23 21  1  0  0  0  0
 23 20  1  0  0  0  0
 24 25  1  0  0  0  0
 25 26  1  0  0  0  0
 25 27  1  0  0  0  0
 30 31  1  0  0  0  0
 31 29  1  6  0  0  0
 31 28  1  0  0  0  0
M  END
>  <MODEL>
8

>  <REMARK>
 VINA RESULT:      -4.2      3.102      6.357
  Name = 
  4 active torsions:
  status: ('A' for Active; 'I' for Inactive)
    1  A    between atoms: C_1  and  C_8
    2  A    between atoms: C_4  and  N_22
    3  A    between atoms: C_12  and  C_15
    4  A    between atoms: C_15  and  C_21
                            x       y       z     vdW  Elec       q    Type
                         _______ _______ _______ _____ _____    ______ ____

>  <TORSDO>
F 4

$$$$
