=
 OpenBabel11072415003D

 39 41  0  0  1  0  0  0  0  0999 V2000
  159.0790  209.5600  155.6790 C   0  0  0  0  0  1  0  0  0  0  0  0
  160.3120  208.9000  153.5610 C   0  0  0  0  0  0  0  0  0  0  0  0
  161.2690  206.5790  154.8160 C   0  0  0  0  0  3  0  0  0  0  0  0
  161.1340  207.9950  152.8490 C   0  0  0  0  0  0  0  0  0  0  0  0
  159.9840  208.6350  154.9120 C   0  0  0  0  0  0  0  0  0  0  0  0
  161.5900  206.8370  153.4860 C   0  0  0  0  0  3  0  0  0  0  0  0
  160.4770  207.4730  155.5340 C   0  0  0  0  0  0  0  0  0  0  0  0
  160.1040  207.0800  157.2100 Cl  0  0  0  0  0  0  0  0  0  0  0  0
  160.9270  207.3730  150.3080 C   0  0  2  0  0  3  0  0  0  0  0  0
  162.2910  209.2840  149.4910 C   0  0  2  0  0  3  0  0  0  0  0  0
  161.4940  205.9670  150.3450 C   0  0  0  0  0  1  0  0  0  0  0  0
  162.9740  210.0360  151.8070 O   0  0  0  0  0  1  0  0  0  0  0  0
  161.4760  208.0940  149.1230 C   0  0  0  0  0  0  0  0  0  0  0  0
  161.4820  208.1970  151.4230 C   0  0  0  0  0  0  0  0  0  0  0  0
  162.2650  209.1760  150.9740 C   0  0  0  0  0  0  0  0  0  0  0  0
  161.2650  207.7550  147.9680 O   0  0  0  0  0  0  0  0  0  0  0  0
  161.5680  210.4750  149.0870 N   0  0  0  0  0  2  0  0  0  0  0  0
  162.4620  211.3190  148.4130 N   0  0  0  0  0  2  0  0  0  0  0  0
  161.9910  212.4560  147.6810 C   0  0  0  0  0  0  0  0  0  0  0  0
  162.8150  213.8700  147.7160 S   0  0  0  0  0  0  0  0  0  0  0  0
  160.8120  212.3670  146.8860 N   0  0  0  0  0  2  0  0  0  0  0  0
  160.6140  213.1900  145.7060 C   0  0  0  0  0  2  0  0  0  0  0  0
  158.5850  213.6970  144.3670 C   0  0  0  0  0  1  0  0  0  0  0  0
  160.1150  211.8830  143.6700 C   0  0  0  0  0  1  0  0  0  0  0  0
  159.5060  212.5990  144.8550 C   0  0  0  0  0  3  0  0  0  0  0  0
  159.7110  210.0920  152.8560 C   0  0  0  0  0  2  0  0  0  0  0  0
  160.3950  211.3930  153.2770 C   0  0  0  0  0  2  0  0  0  0  0  0
  159.6260  212.8730  155.1110 C   0  0  0  0  0  1  0  0  0  0  0  0
  159.3900  212.4790  153.6630 C   0  0  2  0  0  0  0  0  0  0  0  0
  157.9790  211.9010  153.5350 C   0  0  0  0  0  2  0  0  0  0  0  0
  156.9980  212.5500  154.5020 C   0  0  0  0  0  1  0  0  0  0  0  0
  159.5440  213.6410  152.8370 O   0  0  0  0  0  0  0  0  0  0  0  0
  158.1530  214.2100  150.9190 N   0  0  0  0  0  2  0  0  0  0  0  0
  160.2490  213.2100  150.6680 O   0  0  0  0  0  0  0  0  0  0  0  0
  159.3640  213.6620  151.4460 C   0  0  0  0  0  0  0  0  0  0  0  0
  156.3350  213.9590  149.3170 C   0  0  1  0  0  3  0  0  0  0  0  0
  157.3120  212.8150  149.1290 C   0  0  0  0  0  2  0  0  0  0  0  0
  157.8230  214.1930  149.5010 C   0  0  2  0  0  3  0  0  0  0  0  0
  155.9550  214.4420  148.0710 O   0  0  0  0  0  1  0  0  0  0  0  0
  2  5  1  0  0  0  0
  3  7  1  0  0  0  0
  4  6  1  0  0  0  0
  4  2  2  0  0  0  0
  5  7  2  0  0  0  0
  5  1  1  0  0  0  0
  6  3  2  0  0  0  0
  7  8  1  0  0  0  0
  9 11  1  1  0  0  0
  9 14  1  0  0  0  0
 10 17  1  1  0  0  0
 10 15  1  0  0  0  0
 13 10  1  0  0  0  0
 13  9  1  0  0  0  0
 14  4  1  0  0  0  0
 15 14  2  0  0  0  0
 15 12  1  0  0  0  0
 16 13  2  0  0  0  0
 18 17  1  0  0  0  0
 19 20  2  0  0  0  0
 19 18  1  0  0  0  0
 21 19  1  0  0  0  0
 22 21  1  0  0  0  0
 23 25  1  0  0  0  0
 24 25  1  0  0  0  0
 25 22  1  0  0  0  0
 26 27  1  0  0  0  0
 26  2  1  0  0  0  0
 27 29  1  0  0  0  0
 29 28  1  1  0  0  0
 30 29  1  0  0  0  0
 30 31  1  0  0  0  0
 32 29  1  0  0  0  0
 33 35  1  0  0  0  0
 34 35  2  0  0  0  0
 35 32  1  0  0  0  0
 36 39  1  6  0  0  0
 36 38  1  0  0  0  0
 37 36  1  0  0  0  0
 37 38  1  0  0  0  0
 38 33  1  1  0  0  0
M  END
>  <MODEL>
1

>  <REMARK>
 VINA RESULT:      -5.7      0.000      0.000
  Name = 
  14 active torsions:
  status: ('A' for Active; 'I' for Inactive)
    1  A    between atoms: C_2  and  C_14
    2  A    between atoms: C_7  and  C_24
    3  A    between atoms: N_9  and  C_31
    4  A    between atoms: C_10  and  N_21
    5  A    between atoms: C_10  and  N_38
    6  A    between atoms: N_13  and  C_17
    7  A    between atoms: N_13  and  N_21
    8  A    between atoms: C_14  and  O_26
    9  A    between atoms: C_14  and  C_36
   10  A    between atoms: C_15  and  C_27
   11  A    between atoms: C_18  and  C_20
   12  A    between atoms: C_20  and  N_38
   13  A    between atoms: C_24  and  C_36
   14  A    between atoms: O_26  and  C_34
                            x       y       z     vdW  Elec       q    Type
                         _______ _______ _______ _____ _____    ______ ____

>  <TORSDO>
F 14

$$$$
=
 OpenBabel11072415003D

 39 41  0  0  1  0  0  0  0  0999 V2000
  159.2430  213.2240  154.3940 C   0  0  0  0  0  1  0  0  0  0  0  0
  160.3400  211.0870  153.5770 C   0  0  0  0  0  0  0  0  0  0  0  0
  161.3450  210.5940  156.1510 C   0  0  0  0  0  3  0  0  0  0  0  0
  161.1090  209.9260  153.8290 C   0  0  0  0  0  0  0  0  0  0  0  0
  160.0900  212.0040  154.6260 C   0  0  0  0  0  0  0  0  0  0  0  0
  161.5890  209.6890  155.1210 C   0  0  0  0  0  3  0  0  0  0  0  0
  160.6070  211.7520  155.9100 C   0  0  0  0  0  0  0  0  0  0  0  0
  160.3310  212.8480  157.2600 Cl  0  0  0  0  0  0  0  0  0  0  0  0
  160.7050  207.5740  152.7350 C   0  0  2  0  0  3  0  0  0  0  0  0
  162.1080  208.0100  150.7290 C   0  0  2  0  0  3  0  0  0  0  0  0
  161.2020  206.6850  153.8580 C   0  0  0  0  0  1  0  0  0  0  0  0
  162.9780  210.2270  151.5810 O   0  0  0  0  0  1  0  0  0  0  0  0
  161.2120  207.0510  151.4330 C   0  0  0  0  0  0  0  0  0  0  0  0
  161.3730  208.9090  152.7840 C   0  0  0  0  0  0  0  0  0  0  0  0
  162.1730  209.1020  151.7370 C   0  0  0  0  0  0  0  0  0  0  0  0
  160.9100  205.9580  150.9800 O   0  0  0  0  0  0  0  0  0  0  0  0
  161.4220  208.4930  149.5470 N   0  0  0  0  0  2  0  0  0  0  0  0
  162.1110  208.0210  148.4200 N   0  0  0  0  0  2  0  0  0  0  0  0
  161.6830  206.8360  147.7400 C   0  0  0  0  0  0  0  0  0  0  0  0
  160.1870  206.2220  147.9960 S   0  0  0  0  0  0  0  0  0  0  0  0
  162.5410  206.1870  146.8050 N   0  0  0  0  0  2  0  0  0  0  0  0
  162.6320  204.7410  146.7170 C   0  0  0  0  0  2  0  0  0  0  0  0
  161.1620  203.1840  145.4590 C   0  0  0  0  0  1  0  0  0  0  0  0
  161.5940  205.4610  144.5930 C   0  0  0  0  0  1  0  0  0  0  0  0
  162.1920  204.2880  145.3370 C   0  0  0  0  0  3  0  0  0  0  0  0
  159.7110  211.2980  152.2210 C   0  0  0  0  0  2  0  0  0  0  0  0
  158.5060  212.2340  152.3050 C   0  0  0  0  0  2  0  0  0  0  0  0
  159.8810  213.6850  150.8400 C   0  0  0  0  0  1  0  0  0  0  0  0
  158.4630  213.2330  151.1470 C   0  0  2  0  0  0  0  0  0  0  0  0
  157.6440  214.4480  151.5860 C   0  0  0  0  0  2  0  0  0  0  0  0
  156.6120  214.0960  152.6490 C   0  0  0  0  0  1  0  0  0  0  0  0
  157.9040  212.6350  149.9700 O   0  0  0  0  0  0  0  0  0  0  0  0
  158.7740  212.7640  147.6970 N   0  0  0  0  0  2  0  0  0  0  0  0
  157.0780  214.1830  148.4490 O   0  0  0  0  0  0  0  0  0  0  0  0
  157.8770  213.2390  148.7040 C   0  0  0  0  0  0  0  0  0  0  0  0
  159.6720  212.4690  145.4520 C   0  0  1  0  0  3  0  0  0  0  0  0
  160.3600  213.6540  146.1000 C   0  0  0  0  0  2  0  0  0  0  0  0
  158.8960  213.3810  146.3840 C   0  0  2  0  0  3  0  0  0  0  0  0
  159.3530  212.7910  144.1390 O   0  0  0  0  0  1  0  0  0  0  0  0
  1  5  1  0  0  0  0
  2  4  2  0  0  0  0
  2  5  1  0  0  0  0
  4  6  1  0  0  0  0
  5  7  2  0  0  0  0
  6  3  2  0  0  0  0
  7  3  1  0  0  0  0
  7  8  1  0  0  0  0
  9 14  1  0  0  0  0
  9 11  1  1  0  0  0
 10 17  1  6  0  0  0
 10 13  1  0  0  0  0
 10 15  1  0  0  0  0
 12 15  1  0  0  0  0
 13  9  1  0  0  0  0
 14  4  1  0  0  0  0
 15 14  2  0  0  0  0
 16 13  2  0  0  0  0
 18 17  1  0  0  0  0
 19 20  2  0  0  0  0
 19 18  1  0  0  0  0
 21 19  1  0  0  0  0
 22 21  1  0  0  0  0
 24 25  1  0  0  0  0
 25 23  1  0  0  0  0
 25 22  1  0  0  0  0
 26 27  1  0  0  0  0
 26  2  1  0  0  0  0
 29 28  1  6  0  0  0
 29 30  1  0  0  0  0
 29 27  1  0  0  0  0
 30 31  1  0  0  0  0
 32 29  1  0  0  0  0
 33 35  1  0  0  0  0
 34 35  2  0  0  0  0
 35 32  1  0  0  0  0
 36 39  1  6  0  0  0
 36 37  1  0  0  0  0
 36 38  1  0  0  0  0
 37 38  1  0  0  0  0
 38 33  1  1  0  0  0
M  END
>  <MODEL>
2

>  <REMARK>
 VINA RESULT:      -4.8      2.941      4.583
  Name = 
  14 active torsions:
  status: ('A' for Active; 'I' for Inactive)
    1  A    between atoms: C_2  and  C_14
    2  A    between atoms: C_7  and  C_24
    3  A    between atoms: N_9  and  C_31
    4  A    between atoms: C_10  and  N_21
    5  A    between atoms: C_10  and  N_38
    6  A    between atoms: N_13  and  C_17
    7  A    between atoms: N_13  and  N_21
    8  A    between atoms: C_14  and  O_26
    9  A    between atoms: C_14  and  C_36
   10  A    between atoms: C_15  and  C_27
   11  A    between atoms: C_18  and  C_20
   12  A    between atoms: C_20  and  N_38
   13  A    between atoms: C_24  and  C_36
   14  A    between atoms: O_26  and  C_34
                            x       y       z     vdW  Elec       q    Type
                         _______ _______ _______ _____ _____    ______ ____

>  <TORSDO>
F 14

$$$$
=
 OpenBabel11072415003D

 39 41  0  0  1  0  0  0  0  0999 V2000
  158.9820  214.1670  152.1750 C   0  0  0  0  0  1  0  0  0  0  0  0
  160.0780  211.8820  152.2920 C   0  0  0  0  0  0  0  0  0  0  0  0
  159.9680  211.9510  155.0960 C   0  0  0  0  0  3  0  0  0  0  0  0
  160.5660  210.7910  153.0500 C   0  0  0  0  0  0  0  0  0  0  0  0
  159.5440  213.0120  152.9560 C   0  0  0  0  0  0  0  0  0  0  0  0
  160.4910  210.8360  154.4450 C   0  0  0  0  0  3  0  0  0  0  0  0
  159.5020  213.0400  154.3620 C   0  0  0  0  0  0  0  0  0  0  0  0
  158.8480  214.4120  155.2510 Cl  0  0  0  0  0  0  0  0  0  0  0  0
  160.5490  208.1960  152.6510 C   0  0  2  0  0  3  0  0  0  0  0  0
  162.2920  208.2250  150.8770 C   0  0  2  0  0  3  0  0  0  0  0  0
  160.8710  207.7230  154.0550 C   0  0  0  0  0  1  0  0  0  0  0  0
  162.8220  210.6810  151.1690 O   0  0  0  0  0  1  0  0  0  0  0  0
  161.3400  207.3980  151.6700 C   0  0  0  0  0  0  0  0  0  0  0  0
  161.1020  209.5640  152.4140 C   0  0  0  0  0  0  0  0  0  0  0  0
  162.0800  209.5540  151.5110 C   0  0  0  0  0  0  0  0  0  0  0  0
  161.2090  206.1930  151.5160 O   0  0  0  0  0  0  0  0  0  0  0  0
  161.8240  208.2720  149.5060 N   0  0  0  0  0  2  0  0  0  0  0  0
  162.4890  207.2680  148.7850 N   0  0  0  0  0  2  0  0  0  0  0  0
  161.7580  206.3190  148.0000 C   0  0  0  0  0  0  0  0  0  0  0  0
  160.9690  205.0770  148.7180 S   0  0  0  0  0  0  0  0  0  0  0  0
  161.6810  206.4560  146.5850 N   0  0  0  0  0  2  0  0  0  0  0  0
  160.4680  206.1570  145.8460 C   0  0  0  0  0  2  0  0  0  0  0  0
  161.4990  205.6490  143.6430 C   0  0  0  0  0  1  0  0  0  0  0  0
  161.5800  203.9830  145.4700 C   0  0  0  0  0  1  0  0  0  0  0  0
  160.7490  205.0700  144.8250 C   0  0  0  0  0  3  0  0  0  0  0  0
  160.0400  211.8000  150.7860 C   0  0  0  0  0  2  0  0  0  0  0  0
  160.6090  213.0650  150.1440 C   0  0  0  0  0  2  0  0  0  0  0  0
  161.6160  211.7820  148.2770 C   0  0  0  0  0  1  0  0  0  0  0  0
  160.7080  212.9510  148.6220 C   0  0  2  0  0  0  0  0  0  0  0  0
  161.3350  214.2370  148.0790 C   0  0  0  0  0  2  0  0  0  0  0  0
  162.5850  213.9660  147.2530 C   0  0  0  0  0  1  0  0  0  0  0  0
  159.4190  212.7230  148.0370 O   0  0  0  0  0  0  0  0  0  0  0  0
  159.5220  212.3930  145.6240 N   0  0  0  0  0  2  0  0  0  0  0  0
  158.2940  214.1360  146.5780 O   0  0  0  0  0  0  0  0  0  0  0  0
  159.0430  213.1340  146.7490 C   0  0  0  0  0  0  0  0  0  0  0  0
  160.2660  212.1100  143.3220 C   0  0  1  0  0  3  0  0  0  0  0  0
  160.4720  213.5560  143.7260 C   0  0  0  0  0  2  0  0  0  0  0  0
  159.2720  212.7890  144.2460 C   0  0  2  0  0  3  0  0  0  0  0  0
  159.7320  212.0680  142.0400 O   0  0  0  0  0  1  0  0  0  0  0  0
  1  5  1  0  0  0  0
  2  5  2  0  0  0  0
  2  4  1  0  0  0  0
  4  6  2  0  0  0  0
  5  7  1  0  0  0  0
  6  3  1  0  0  0  0
  7  3  2  0  0  0  0
  7  8  1  0  0  0  0
  9 11  1  1  0  0  0
 10 17  1  6  0  0  0
 10 15  1  0  0  0  0
 10 13  1  0  0  0  0
 12 15  1  0  0  0  0
 13  9  1  0  0  0  0
 14  9  1  0  0  0  0
 14  4  1  0  0  0  0
 15 14  2  0  0  0  0
 16 13  2  0  0  0  0
 18 17  1  0  0  0  0
 19 20  2  0  0  0  0
 19 18  1  0  0  0  0
 21 19  1  0  0  0  0
 22 21  1  0  0  0  0
 23 25  1  0  0  0  0
 25 24  1  0  0  0  0
 25 22  1  0  0  0  0
 26  2  1  0  0  0  0
 27 26  1  0  0  0  0
 29 28  1  6  0  0  0
 29 27  1  0  0  0  0
 30 29  1  0  0  0  0
 31 30  1  0  0  0  0
 32 29  1  0  0  0  0
 33 35  1  0  0  0  0
 34 35  2  0  0  0  0
 35 32  1  0  0  0  0
 36 39  1  6  0  0  0
 36 37  1  0  0  0  0
 36 38  1  0  0  0  0
 37 38  1  0  0  0  0
 38 33  1  1  0  0  0
M  END
>  <MODEL>
3

>  <REMARK>
 VINA RESULT:      -4.6      3.286      5.572
  Name = 
  14 active torsions:
  status: ('A' for Active; 'I' for Inactive)
    1  A    between atoms: C_2  and  C_14
    2  A    between atoms: C_7  and  C_24
    3  A    between atoms: N_9  and  C_31
    4  A    between atoms: C_10  and  N_21
    5  A    between atoms: C_10  and  N_38
    6  A    between atoms: N_13  and  C_17
    7  A    between atoms: N_13  and  N_21
    8  A    between atoms: C_14  and  O_26
    9  A    between atoms: C_14  and  C_36
   10  A    between atoms: C_15  and  C_27
   11  A    between atoms: C_18  and  C_20
   12  A    between atoms: C_20  and  N_38
   13  A    between atoms: C_24  and  C_36
   14  A    between atoms: O_26  and  C_34
                            x       y       z     vdW  Elec       q    Type
                         _______ _______ _______ _____ _____    ______ ____

>  <TORSDO>
F 14

$$$$
=
 OpenBabel11072415003D

 39 41  0  0  1  0  0  0  0  0999 V2000
  161.4340  207.2090  154.6200 C   0  0  0  0  0  1  0  0  0  0  0  0
  160.7500  209.4020  153.5420 C   0  0  0  0  0  0  0  0  0  0  0  0
  161.4920  210.7970  155.8620 C   0  0  0  0  0  3  0  0  0  0  0  0
  160.6190  210.8100  153.5970 C   0  0  0  0  0  0  0  0  0  0  0  0
  161.2470  208.7000  154.6670 C   0  0  0  0  0  0  0  0  0  0  0  0
  161.0070  211.4890  154.7560 C   0  0  0  0  0  3  0  0  0  0  0  0
  161.6060  209.4080  155.8280 C   0  0  0  0  0  0  0  0  0  0  0  0
  162.2340  208.5990  157.2600 Cl  0  0  0  0  0  0  0  0  0  0  0  0
  158.9440  212.4950  152.4820 C   0  0  2  0  0  3  0  0  0  0  0  0
  160.2040  212.6940  150.3480 C   0  0  2  0  0  3  0  0  0  0  0  0
  157.6700  211.6760  152.5640 C   0  0  0  0  0  1  0  0  0  0  0  0
  161.8660  210.8800  150.9360 O   0  0  0  0  0  1  0  0  0  0  0  0
  159.0260  213.1430  151.1410 C   0  0  0  0  0  0  0  0  0  0  0  0
  160.1430  211.6050  152.4410 C   0  0  0  0  0  0  0  0  0  0  0  0
  160.7700  211.6710  151.2680 C   0  0  0  0  0  0  0  0  0  0  0  0
  158.2230  213.9700  150.7390 O   0  0  0  0  0  0  0  0  0  0  0  0
  161.1320  213.8030  150.2410 N   0  0  0  0  0  2  0  0  0  0  0  0
  161.2490  214.1420  148.8850 N   0  0  0  0  0  2  0  0  0  0  0  0
  161.6400  213.1660  147.9140 C   0  0  0  0  0  0  0  0  0  0  0  0
  163.1460  212.5240  147.9370 S   0  0  0  0  0  0  0  0  0  0  0  0
  160.7160  212.7130  146.9280 N   0  0  0  0  0  2  0  0  0  0  0  0
  160.3390  213.5320  145.7910 C   0  0  0  0  0  2  0  0  0  0  0  0
  158.1550  213.7390  144.6260 C   0  0  0  0  0  1  0  0  0  0  0  0
  159.9350  212.3000  143.6870 C   0  0  0  0  0  1  0  0  0  0  0  0
  159.2970  212.8030  144.9630 C   0  0  0  0  0  3  0  0  0  0  0  0
  160.4530  208.6630  152.2600 C   0  0  0  0  0  2  0  0  0  0  0  0
  161.7350  208.3220  151.5010 C   0  0  0  0  0  2  0  0  0  0  0  0
  160.2660  206.5220  150.6370 C   0  0  0  0  0  1  0  0  0  0  0  0
  161.7080  206.9070  150.9210 C   0  0  2  0  0  0  0  0  0  0  0  0
  162.2770  205.9450  151.9660 C   0  0  0  0  0  2  0  0  0  0  0  0
  161.6980  204.5420  151.8360 C   0  0  0  0  0  1  0  0  0  0  0  0
  162.4540  206.8360  149.6990 O   0  0  0  0  0  0  0  0  0  0  0  0
  161.8200  205.8880  147.5460 N   0  0  0  0  0  2  0  0  0  0  0  0
  161.4970  208.1480  148.0390 O   0  0  0  0  0  0  0  0  0  0  0  0
  161.9080  207.0160  148.4190 C   0  0  0  0  0  0  0  0  0  0  0  0
  161.3370  204.6050  145.5310 C   0  0  1  0  0  3  0  0  0  0  0  0
  162.4830  205.5540  145.2420 C   0  0  0  0  0  2  0  0  0  0  0  0
  161.3610  205.9830  146.1670 C   0  0  2  0  0  3  0  0  0  0  0  0
  160.4530  204.6190  144.4610 O   0  0  0  0  0  1  0  0  0  0  0  0
  1  5  1  0  0  0  0
  2  4  2  0  0  0  0
  2  5  1  0  0  0  0
  4  6  1  0  0  0  0
  5  7  2  0  0  0  0
  6  3  2  0  0  0  0
  7  3  1  0  0  0  0
  7  8  1  0  0  0  0
  9 11  1  6  0  0  0
 10 17  1  1  0  0  0
 10 13  1  0  0  0  0
 10 15  1  0  0  0  0
 12 15  1  0  0  0  0
 13  9  1  0  0  0  0
 14  9  1  0  0  0  0
 14  4  1  0  0  0  0
 15 14  2  0  0  0  0
 16 13  2  0  0  0  0
 18 17  1  0  0  0  0
 19 20  2  0  0  0  0
 19 18  1  0  0  0  0
 21 19  1  0  0  0  0
 22 21  1  0  0  0  0
 23 25  1  0  0  0  0
 24 25  1  0  0  0  0
 25 22  1  0  0  0  0
 26  2  1  0  0  0  0
 27 26  1  0  0  0  0
 29 28  1  6  0  0  0
 29 27  1  0  0  0  0
 29 30  1  0  0  0  0
 31 30  1  0  0  0  0
 32 29  1  0  0  0  0
 33 35  1  0  0  0  0
 34 35  2  0  0  0  0
 35 32  1  0  0  0  0
 36 39  1  6  0  0  0
 36 38  1  0  0  0  0
 37 36  1  0  0  0  0
 37 38  1  0  0  0  0
 38 33  1  1  0  0  0
M  END
>  <MODEL>
4

>  <REMARK>
 VINA RESULT:      -4.4      2.198      5.752
  Name = 
  14 active torsions:
  status: ('A' for Active; 'I' for Inactive)
    1  A    between atoms: C_2  and  C_14
    2  A    between atoms: C_7  and  C_24
    3  A    between atoms: N_9  and  C_31
    4  A    between atoms: C_10  and  N_21
    5  A    between atoms: C_10  and  N_38
    6  A    between atoms: N_13  and  C_17
    7  A    between atoms: N_13  and  N_21
    8  A    between atoms: C_14  and  O_26
    9  A    between atoms: C_14  and  C_36
   10  A    between atoms: C_15  and  C_27
   11  A    between atoms: C_18  and  C_20
   12  A    between atoms: C_20  and  N_38
   13  A    between atoms: C_24  and  C_36
   14  A    between atoms: O_26  and  C_34
                            x       y       z     vdW  Elec       q    Type
                         _______ _______ _______ _____ _____    ______ ____

>  <TORSDO>
F 14

$$$$
=
 OpenBabel11072415003D

 39 41  0  0  1  0  0  0  0  0999 V2000
  159.3590  209.1820  155.6220 C   0  0  0  0  0  1  0  0  0  0  0  0
  160.4420  208.5080  153.4280 C   0  0  0  0  0  0  0  0  0  0  0  0
  161.4280  206.1620  154.6120 C   0  0  0  0  0  3  0  0  0  0  0  0
  161.1990  207.5900  152.6630 C   0  0  0  0  0  0  0  0  0  0  0  0
  160.1940  208.2420  154.7960 C   0  0  0  0  0  0  0  0  0  0  0  0
  161.6700  206.4190  153.2650 C   0  0  0  0  0  3  0  0  0  0  0  0
  160.7010  207.0680  155.3820 C   0  0  0  0  0  0  0  0  0  0  0  0
  160.4270  206.6750  157.0760 Cl  0  0  0  0  0  0  0  0  0  0  0  0
  160.8490  206.9590  150.1390 C   0  0  2  0  0  3  0  0  0  0  0  0
  162.1440  208.8820  149.2400 C   0  0  2  0  0  3  0  0  0  0  0  0
  161.4320  205.5590  150.1450 C   0  0  0  0  0  1  0  0  0  0  0  0
  162.9540  209.6460  151.5100 O   0  0  0  0  0  1  0  0  0  0  0  0
  161.3210  207.6820  148.9220 C   0  0  0  0  0  0  0  0  0  0  0  0
  161.4600  207.7910  151.2180 C   0  0  0  0  0  0  0  0  0  0  0  0
  162.2060  208.7770  150.7220 C   0  0  0  0  0  0  0  0  0  0  0  0
  161.0460  207.3390  147.7830 O   0  0  0  0  0  0  0  0  0  0  0  0
  161.3860  210.0640  148.8770 N   0  0  0  0  0  2  0  0  0  0  0  0
  162.2380  210.9260  148.1700 N   0  0  0  0  0  2  0  0  0  0  0  0
  161.9040  212.3070  147.9920 C   0  0  0  0  0  0  0  0  0  0  0  0
  163.0780  213.4250  147.7640 S   0  0  0  0  0  0  0  0  0  0  0  0
  160.5430  212.7280  147.9810 N   0  0  0  0  0  2  0  0  0  0  0  0
  160.0160  213.6060  146.9530 C   0  0  0  0  0  2  0  0  0  0  0  0
  157.7890  212.5300  146.7270 C   0  0  0  0  0  1  0  0  0  0  0  0
  158.8460  213.6240  144.7770 C   0  0  0  0  0  1  0  0  0  0  0  0
  159.1020  212.8190  146.0310 C   0  0  0  0  0  3  0  0  0  0  0  0
  159.8230  209.7150  152.7670 C   0  0  0  0  0  2  0  0  0  0  0  0
  160.5370  211.0030  153.1760 C   0  0  0  0  0  2  0  0  0  0  0  0
  159.7280  213.2110  152.3910 C   0  0  0  0  0  1  0  0  0  0  0  0
  159.5590  212.1450  153.4600 C   0  0  2  0  0  0  0  0  0  0  0  0
  159.9070  212.7530  154.8200 C   0  0  0  0  0  2  0  0  0  0  0  0
  160.8220  211.8530  155.6400 C   0  0  0  0  0  1  0  0  0  0  0  0
  158.2030  211.6800  153.4380 O   0  0  0  0  0  0  0  0  0  0  0  0
  156.4810  211.7730  155.1600 N   0  0  0  0  0  2  0  0  0  0  0  0
  156.7100  213.4550  153.5560 O   0  0  0  0  0  0  0  0  0  0  0  0
  157.1190  212.3540  154.0200 C   0  0  0  0  0  0  0  0  0  0  0  0
  155.5950  213.7260  156.3160 C   0  0  1  0  0  3  0  0  0  0  0  0
  155.5540  212.5410  157.2600 C   0  0  0  0  0  2  0  0  0  0  0  0
  155.2920  212.3380  155.7810 C   0  0  2  0  0  3  0  0  0  0  0  0
  154.4060  214.4350  156.4260 O   0  0  0  0  0  1  0  0  0  0  0  0
  2  5  1  0  0  0  0
  3  7  1  0  0  0  0
  4  6  1  0  0  0  0
  4  2  2  0  0  0  0
  5  7  2  0  0  0  0
  5  1  1  0  0  0  0
  6  3  2  0  0  0  0
  7  8  1  0  0  0  0
  9 11  1  6  0  0  0
  9 14  1  0  0  0  0
 10 17  1  1  0  0  0
 10 15  1  0  0  0  0
 13 10  1  0  0  0  0
 13  9  1  0  0  0  0
 14  4  1  0  0  0  0
 15 14  2  0  0  0  0
 15 12  1  0  0  0  0
 16 13  2  0  0  0  0
 18 17  1  0  0  0  0
 19 18  1  0  0  0  0
 20 19  2  0  0  0  0
 21 19  1  0  0  0  0
 22 21  1  0  0  0  0
 24 25  1  0  0  0  0
 25 23  1  0  0  0  0
 25 22  1  0  0  0  0
 26 27  1  0  0  0  0
 26  2  1  0  0  0  0
 27 29  1  0  0  0  0
 29 28  1  6  0  0  0
 29 30  1  0  0  0  0
 30 31  1  0  0  0  0
 32 29  1  0  0  0  0
 32 35  1  0  0  0  0
 34 35  2  0  0  0  0
 35 33  1  0  0  0  0
 36 39  1  1  0  0  0
 36 37  1  0  0  0  0
 38 33  1  6  0  0  0
 38 36  1  0  0  0  0
 38 37  1  0  0  0  0
M  END
>  <MODEL>
5

>  <REMARK>
 VINA RESULT:      -4.4      1.776      3.042
  Name = 
  14 active torsions:
  status: ('A' for Active; 'I' for Inactive)
    1  A    between atoms: C_2  and  C_14
    2  A    between atoms: C_7  and  C_24
    3  A    between atoms: N_9  and  C_31
    4  A    between atoms: C_10  and  N_21
    5  A    between atoms: C_10  and  N_38
    6  A    between atoms: N_13  and  C_17
    7  A    between atoms: N_13  and  N_21
    8  A    between atoms: C_14  and  O_26
    9  A    between atoms: C_14  and  C_36
   10  A    between atoms: C_15  and  C_27
   11  A    between atoms: C_18  and  C_20
   12  A    between atoms: C_20  and  N_38
   13  A    between atoms: C_24  and  C_36
   14  A    between atoms: O_26  and  C_34
                            x       y       z     vdW  Elec       q    Type
                         _______ _______ _______ _____ _____    ______ ____

>  <TORSDO>
F 14

$$$$
=
 OpenBabel11072415003D

 39 41  0  0  1  0  0  0  0  0999 V2000
  161.5920  207.7330  149.1080 C   0  0  0  0  0  1  0  0  0  0  0  0
  161.2430  208.3270  151.5510 C   0  0  0  0  0  0  0  0  0  0  0  0
  161.9520  210.9920  151.0250 C   0  0  0  0  0  3  0  0  0  0  0  0
  161.2380  209.2830  152.5940 C   0  0  0  0  0  0  0  0  0  0  0  0
  161.6180  208.7200  150.2430 C   0  0  0  0  0  0  0  0  0  0  0  0
  161.5800  210.6080  152.3110 C   0  0  0  0  0  3  0  0  0  0  0  0
  161.9800  210.0550  149.9930 C   0  0  0  0  0  0  0  0  0  0  0  0
  162.4530  210.6120  148.3900 Cl  0  0  0  0  0  0  0  0  0  0  0  0
  161.5000  207.9210  154.8220 C   0  0  2  0  0  3  0  0  0  0  0  0
  159.7540  209.1780  156.0680 C   0  0  2  0  0  3  0  0  0  0  0  0
  161.2320  206.5230  154.2970 C   0  0  0  0  0  1  0  0  0  0  0  0
  158.9930  210.4990  154.0500 O   0  0  0  0  0  1  0  0  0  0  0  0
  160.7840  208.1040  156.1180 C   0  0  0  0  0  0  0  0  0  0  0  0
  160.8190  208.9440  153.9750 C   0  0  0  0  0  0  0  0  0  0  0  0
  159.8410  209.5630  154.6330 C   0  0  0  0  0  0  0  0  0  0  0  0
  161.0290  207.4550  157.1240 O   0  0  0  0  0  0  0  0  0  0  0  0
  160.2080  210.2850  156.8860 N   0  0  0  0  0  2  0  0  0  0  0  0
  159.0860  211.0400  157.2590 N   0  0  0  0  0  2  0  0  0  0  0  0
  159.0420  212.4530  157.0340 C   0  0  0  0  0  0  0  0  0  0  0  0
  160.4220  213.3320  156.9870 S   0  0  0  0  0  0  0  0  0  0  0  0
  157.7990  213.1140  156.8190 N   0  0  0  0  0  2  0  0  0  0  0  0
  156.8690  212.6910  155.7880 C   0  0  0  0  0  2  0  0  0  0  0  0
  155.0450  211.7720  157.2010 C   0  0  0  0  0  1  0  0  0  0  0  0
  155.5770  210.7280  155.0230 C   0  0  0  0  0  1  0  0  0  0  0  0
  156.1570  211.4270  156.2330 C   0  0  0  0  0  3  0  0  0  0  0  0
  160.7600  206.9210  151.8100 C   0  0  0  0  0  2  0  0  0  0  0  0
  161.8130  205.8870  151.4110 C   0  0  0  0  0  2  0  0  0  0  0  0
  159.7840  204.9030  150.3820 C   0  0  0  0  0  1  0  0  0  0  0  0
  161.1880  204.5980  150.8750 C   0  0  2  0  0  0  0  0  0  0  0  0
  161.0970  203.5900  152.0230 C   0  0  0  0  0  2  0  0  0  0  0  0
  161.2210  202.1510  151.5410 C   0  0  0  0  0  1  0  0  0  0  0  0
  161.9550  204.0660  149.7870 O   0  0  0  0  0  0  0  0  0  0  0  0
  161.5390  204.9130  147.5400 N   0  0  0  0  0  2  0  0  0  0  0  0
  160.9560  202.7400  148.1650 O   0  0  0  0  0  0  0  0  0  0  0  0
  161.4600  203.8500  148.4920 C   0  0  0  0  0  0  0  0  0  0  0  0
  161.7960  205.6530  145.2330 C   0  0  1  0  0  3  0  0  0  0  0  0
  160.4940  206.2030  145.7790 C   0  0  0  0  0  2  0  0  0  0  0  0
  160.9700  204.8280  146.2030 C   0  0  2  0  0  3  0  0  0  0  0  0
  161.5850  205.1780  143.9450 O   0  0  0  0  0  1  0  0  0  0  0  0
  1  5  1  0  0  0  0
  2 26  1  0  0  0  0
  2  4  1  0  0  0  0
  3  6  1  0  0  0  0
  4 14  1  0  0  0  0
  5  2  2  0  0  0  0
  6  4  2  0  0  0  0
  7  5  1  0  0  0  0
  7  3  2  0  0  0  0
  8  7  1  0  0  0  0
  9 11  1  6  0  0  0
  9 13  1  0  0  0  0
 10 13  1  0  0  0  0
 10 17  1  1  0  0  0
 12 15  1  0  0  0  0
 13 16  2  0  0  0  0
 14 15  2  0  0  0  0
 14  9  1  0  0  0  0
 15 10  1  0  0  0  0
 17 18  1  0  0  0  0
 19 18  1  0  0  0  0
 20 19  2  0  0  0  0
 21 19  1  0  0  0  0
 22 25  1  0  0  0  0
 22 21  1  0  0  0  0
 24 25  1  0  0  0  0
 25 23  1  0  0  0  0
 27 26  1  0  0  0  0
 29 28  1  6  0  0  0
 29 27  1  0  0  0  0
 29 30  1  0  0  0  0
 31 30  1  0  0  0  0
 32 29  1  0  0  0  0
 33 35  1  0  0  0  0
 34 35  2  0  0  0  0
 35 32  1  0  0  0  0
 36 39  1  6  0  0  0
 36 37  1  0  0  0  0
 36 38  1  0  0  0  0
 37 38  1  0  0  0  0
 38 33  1  1  0  0  0
M  END
>  <MODEL>
6

>  <REMARK>
 VINA RESULT:      -4.3      4.575      8.571
  Name = 
  14 active torsions:
  status: ('A' for Active; 'I' for Inactive)
    1  A    between atoms: C_2  and  C_14
    2  A    between atoms: C_7  and  C_24
    3  A    between atoms: N_9  and  C_31
    4  A    between atoms: C_10  and  N_21
    5  A    between atoms: C_10  and  N_38
    6  A    between atoms: N_13  and  C_17
    7  A    between atoms: N_13  and  N_21
    8  A    between atoms: C_14  and  O_26
    9  A    between atoms: C_14  and  C_36
   10  A    between atoms: C_15  and  C_27
   11  A    between atoms: C_18  and  C_20
   12  A    between atoms: C_20  and  N_38
   13  A    between atoms: C_24  and  C_36
   14  A    between atoms: O_26  and  C_34
                            x       y       z     vdW  Elec       q    Type
                         _______ _______ _______ _____ _____    ______ ____

>  <TORSDO>
F 14

$$$$
=
 OpenBabel11072415003D

 39 41  0  0  1  0  0  0  0  0999 V2000
  160.5870  211.2270  153.6280 C   0  0  0  0  0  1  0  0  0  0  0  0
  160.9960  208.9390  152.6100 C   0  0  0  0  0  0  0  0  0  0  0  0
  161.0610  207.7890  155.1700 C   0  0  0  0  0  3  0  0  0  0  0  0
  161.1960  207.5460  152.7590 C   0  0  0  0  0  0  0  0  0  0  0  0
  160.8400  209.7510  153.7600 C   0  0  0  0  0  0  0  0  0  0  0  0
  161.2120  206.9890  154.0410 C   0  0  0  0  0  3  0  0  0  0  0  0
  160.8840  209.1660  155.0380 C   0  0  0  0  0  0  0  0  0  0  0  0
  160.6940  210.1160  156.5080 Cl  0  0  0  0  0  0  0  0  0  0  0  0
  160.4680  205.4360  151.3780 C   0  0  2  0  0  3  0  0  0  0  0  0
  161.9660  205.8960  149.4480 C   0  0  2  0  0  3  0  0  0  0  0  0
  160.7990  204.3500  152.3830 C   0  0  0  0  0  1  0  0  0  0  0  0
  163.1400  207.8320  150.5740 O   0  0  0  0  0  1  0  0  0  0  0  0
  160.9200  205.0060  150.0230 C   0  0  0  0  0  0  0  0  0  0  0  0
  161.3280  206.6370  151.5960 C   0  0  0  0  0  0  0  0  0  0  0  0
  162.1710  206.8330  150.5850 C   0  0  0  0  0  0  0  0  0  0  0  0
  160.4660  204.0360  149.4350 O   0  0  0  0  0  0  0  0  0  0  0  0
  161.3870  206.6200  148.3330 N   0  0  0  0  0  2  0  0  0  0  0  0
  162.0070  206.1740  147.1560 N   0  0  0  0  0  2  0  0  0  0  0  0
  161.2930  205.3770  146.2050 C   0  0  0  0  0  0  0  0  0  0  0  0
  160.1360  206.0460  145.2590 S   0  0  0  0  0  0  0  0  0  0  0  0
  161.5970  203.9940  146.0440 N   0  0  0  0  0  2  0  0  0  0  0  0
  161.0440  203.2040  144.9600 C   0  0  0  0  0  2  0  0  0  0  0  0
  160.8050  201.7300  146.9450 C   0  0  0  0  0  1  0  0  0  0  0  0
  159.5010  201.2740  144.8930 C   0  0  0  0  0  1  0  0  0  0  0  0
  160.8220  201.7790  145.4310 C   0  0  0  0  0  3  0  0  0  0  0  0
  160.8560  209.5410  151.2340 C   0  0  0  0  0  2  0  0  0  0  0  0
  161.9380  210.5870  150.9680 C   0  0  0  0  0  2  0  0  0  0  0  0
  161.5820  210.0450  148.5760 C   0  0  0  0  0  1  0  0  0  0  0  0
  161.8470  211.1730  149.5580 C   0  0  2  0  0  0  0  0  0  0  0  0
  163.1910  211.8180  149.2140 C   0  0  0  0  0  2  0  0  0  0  0  0
  163.4500  211.8510  147.7140 C   0  0  0  0  0  1  0  0  0  0  0  0
  160.7810  212.1270  149.4640 O   0  0  0  0  0  0  0  0  0  0  0  0
  159.9360  212.5520  147.2180 N   0  0  0  0  0  2  0  0  0  0  0  0
  161.0080  214.2100  148.4650 O   0  0  0  0  0  0  0  0  0  0  0  0
  160.6000  213.0180  148.3960 C   0  0  0  0  0  0  0  0  0  0  0  0
  159.5720  212.4670  144.8110 C   0  0  1  0  0  3  0  0  0  0  0  0
  160.9340  213.0760  145.0760 C   0  0  0  0  0  2  0  0  0  0  0  0
  159.7810  213.3620  146.0180 C   0  0  2  0  0  3  0  0  0  0  0  0
  158.9340  213.1960  143.8160 O   0  0  0  0  0  1  0  0  0  0  0  0
  1  5  1  0  0  0  0
  2  4  2  0  0  0  0
  2  5  1  0  0  0  0
  4  6  1  0  0  0  0
  5  7  2  0  0  0  0
  6  3  2  0  0  0  0
  7  3  1  0  0  0  0
  7  8  1  0  0  0  0
  9 14  1  0  0  0  0
  9 11  1  1  0  0  0
 10 17  1  6  0  0  0
 10 13  1  0  0  0  0
 10 15  1  0  0  0  0
 12 15  1  0  0  0  0
 13  9  1  0  0  0  0
 14  4  1  0  0  0  0
 15 14  2  0  0  0  0
 16 13  2  0  0  0  0
 18 17  1  0  0  0  0
 19 18  1  0  0  0  0
 20 19  2  0  0  0  0
 21 19  1  0  0  0  0
 22 25  1  0  0  0  0
 22 21  1  0  0  0  0
 24 25  1  0  0  0  0
 25 23  1  0  0  0  0
 26  2  1  0  0  0  0
 27 26  1  0  0  0  0
 29 28  1  6  0  0  0
 29 27  1  0  0  0  0
 30 29  1  0  0  0  0
 31 30  1  0  0  0  0
 32 29  1  0  0  0  0
 33 35  1  0  0  0  0
 35 34  2  0  0  0  0
 35 32  1  0  0  0  0
 36 39  1  6  0  0  0
 36 37  1  0  0  0  0
 36 38  1  0  0  0  0
 37 38  1  0  0  0  0
 38 33  1  1  0  0  0
M  END
>  <MODEL>
7

>  <REMARK>
 VINA RESULT:      -4.2      3.422      5.576
  Name = 
  14 active torsions:
  status: ('A' for Active; 'I' for Inactive)
    1  A    between atoms: C_2  and  C_14
    2  A    between atoms: C_7  and  C_24
    3  A    between atoms: N_9  and  C_31
    4  A    between atoms: C_10  and  N_21
    5  A    between atoms: C_10  and  N_38
    6  A    between atoms: N_13  and  C_17
    7  A    between atoms: N_13  and  N_21
    8  A    between atoms: C_14  and  O_26
    9  A    between atoms: C_14  and  C_36
   10  A    between atoms: C_15  and  C_27
   11  A    between atoms: C_18  and  C_20
   12  A    between atoms: C_20  and  N_38
   13  A    between atoms: C_24  and  C_36
   14  A    between atoms: O_26  and  C_34
                            x       y       z     vdW  Elec       q    Type
                         _______ _______ _______ _____ _____    ______ ____

>  <TORSDO>
F 14

$$$$
=
 OpenBabel11072415003D

 39 41  0  0  1  0  0  0  0  0999 V2000
  160.5330  203.9120  149.0120 C   0  0  0  0  0  1  0  0  0  0  0  0
  160.7240  205.6190  150.8800 C   0  0  0  0  0  0  0  0  0  0  0  0
  161.2370  203.5700  152.7280 C   0  0  0  0  0  3  0  0  0  0  0  0
  160.9580  205.9310  152.2400 C   0  0  0  0  0  0  0  0  0  0  0  0
  160.7390  204.2680  150.4590 C   0  0  0  0  0  0  0  0  0  0  0  0
  161.2260  204.8990  153.1440 C   0  0  0  0  0  3  0  0  0  0  0  0
  160.9880  203.2480  151.3950 C   0  0  0  0  0  0  0  0  0  0  0  0
  161.0250  201.5480  150.9380 Cl  0  0  0  0  0  0  0  0  0  0  0  0
  161.1330  208.5210  151.8500 C   0  0  2  0  0  3  0  0  0  0  0  0
  160.7010  209.1400  154.2190 C   0  0  2  0  0  3  0  0  0  0  0  0
  162.5300  208.5940  151.2650 C   0  0  0  0  0  1  0  0  0  0  0  0
  160.7590  206.7540  155.0550 O   0  0  0  0  0  1  0  0  0  0  0  0
  160.9540  209.6270  152.8350 C   0  0  0  0  0  0  0  0  0  0  0  0
  160.9930  207.3270  152.7360 C   0  0  0  0  0  0  0  0  0  0  0  0
  160.8290  207.6730  154.0120 C   0  0  0  0  0  0  0  0  0  0  0  0
  160.9910  210.8110  152.5360 O   0  0  0  0  0  0  0  0  0  0  0  0
  159.3300  209.4540  154.5700 N   0  0  0  0  0  2  0  0  0  0  0  0
  159.3100  209.8790  155.9070 N   0  0  0  0  0  2  0  0  0  0  0  0
  159.4460  211.2650  156.2400 C   0  0  0  0  0  0  0  0  0  0  0  0
  160.8600  211.8460  156.8240 S   0  0  0  0  0  0  0  0  0  0  0  0
  158.3610  212.1670  156.0420 N   0  0  0  0  0  2  0  0  0  0  0  0
  157.9100  212.5520  154.7170 C   0  0  0  0  0  2  0  0  0  0  0  0
  155.9110  211.0920  154.9160 C   0  0  0  0  0  1  0  0  0  0  0  0
  155.8270  213.4320  155.7140 C   0  0  0  0  0  1  0  0  0  0  0  0
  156.3950  212.5040  154.6620 C   0  0  0  0  0  3  0  0  0  0  0  0
  160.5530  206.7260  149.8680 C   0  0  0  0  0  2  0  0  0  0  0  0
  160.6730  206.1980  148.4390 C   0  0  0  0  0  2  0  0  0  0  0  0
  163.0350  206.9300  148.2660 C   0  0  0  0  0  1  0  0  0  0  0  0
  161.6700  207.0040  147.6030 C   0  0  2  0  0  0  0  0  0  0  0  0
  161.2130  208.4640  147.5800 C   0  0  0  0  0  2  0  0  0  0  0  0
  162.1950  209.3880  148.2890 C   0  0  0  0  0  1  0  0  0  0  0  0
  161.7720  206.4780  146.2740 O   0  0  0  0  0  0  0  0  0  0  0  0
  161.0620  204.2730  145.5170 N   0  0  0  0  0  2  0  0  0  0  0  0
  163.2850  204.7270  146.0730 O   0  0  0  0  0  0  0  0  0  0  0  0
  162.1000  205.1490  145.9650 C   0  0  0  0  0  0  0  0  0  0  0  0
  159.9430  202.1230  145.2650 C   0  0  1  0  0  3  0  0  0  0  0  0
  160.8440  202.0640  146.4830 C   0  0  0  0  0  2  0  0  0  0  0  0
  161.2730  202.8550  145.2620 C   0  0  2  0  0  3  0  0  0  0  0  0
  160.0760  200.9450  144.5430 O   0  0  0  0  0  1  0  0  0  0  0  0
  1  5  1  0  0  0  0
  2  4  1  0  0  0  0
  3  6  1  0  0  0  0
  4 14  1  0  0  0  0
  4  6  2  0  0  0  0
  5  2  2  0  0  0  0
  5  7  1  0  0  0  0
  7  3  2  0  0  0  0
  8  7  1  0  0  0  0
  9 11  1  1  0  0  0
  9 14  1  0  0  0  0
  9 13  1  0  0  0  0
 10 17  1  6  0  0  0
 13 10  1  0  0  0  0
 14 15  2  0  0  0  0
 15 10  1  0  0  0  0
 15 12  1  0  0  0  0
 16 13  2  0  0  0  0
 17 18  1  0  0  0  0
 18 19  1  0  0  0  0
 19 20  2  0  0  0  0
 21 19  1  0  0  0  0
 22 21  1  0  0  0  0
 25 22  1  0  0  0  0
 25 23  1  0  0  0  0
 25 24  1  0  0  0  0
 26  2  1  0  0  0  0
 27 26  1  0  0  0  0
 29 28  1  1  0  0  0
 29 27  1  0  0  0  0
 30 29  1  0  0  0  0
 30 31  1  0  0  0  0
 32 29  1  0  0  0  0
 33 35  1  0  0  0  0
 35 34  2  0  0  0  0
 35 32  1  0  0  0  0
 36 39  1  6  0  0  0
 36 37  1  0  0  0  0
 38 36  1  0  0  0  0
 38 33  1  1  0  0  0
 38 37  1  0  0  0  0
M  END
>  <MODEL>
8

>  <REMARK>
 VINA RESULT:      -4.1      4.259      8.376
  Name = 
  14 active torsions:
  status: ('A' for Active; 'I' for Inactive)
    1  A    between atoms: C_2  and  C_14
    2  A    between atoms: C_7  and  C_24
    3  A    between atoms: N_9  and  C_31
    4  A    between atoms: C_10  and  N_21
    5  A    between atoms: C_10  and  N_38
    6  A    between atoms: N_13  and  C_17
    7  A    between atoms: N_13  and  N_21
    8  A    between atoms: C_14  and  O_26
    9  A    between atoms: C_14  and  C_36
   10  A    between atoms: C_15  and  C_27
   11  A    between atoms: C_18  and  C_20
   12  A    between atoms: C_20  and  N_38
   13  A    between atoms: C_24  and  C_36
   14  A    between atoms: O_26  and  C_34
                            x       y       z     vdW  Elec       q    Type
                         _______ _______ _______ _____ _____    ______ ____

>  <TORSDO>
F 14

$$$$
=
 OpenBabel11072415003D

 39 41  0  0  1  0  0  0  0  0999 V2000
  160.6910  203.9760  149.5100 C   0  0  0  0  0  1  0  0  0  0  0  0
  160.7850  206.1390  150.8330 C   0  0  0  0  0  0  0  0  0  0  0  0
  161.3410  204.7040  153.1800 C   0  0  0  0  0  3  0  0  0  0  0  0
  160.9840  206.8250  152.0550 C   0  0  0  0  0  0  0  0  0  0  0  0
  160.8580  204.7260  150.8030 C   0  0  0  0  0  0  0  0  0  0  0  0
  161.2730  206.0940  153.2110 C   0  0  0  0  0  3  0  0  0  0  0  0
  161.1270  204.0160  151.9870 C   0  0  0  0  0  0  0  0  0  0  0  0
  161.2350  202.2590  152.0200 Cl  0  0  0  0  0  0  0  0  0  0  0  0
  161.4150  209.2110  151.0500 C   0  0  2  0  0  3  0  0  0  0  0  0
  160.3650  210.4470  152.9340 C   0  0  2  0  0  3  0  0  0  0  0  0
  162.9220  209.1510  150.8970 C   0  0  0  0  0  1  0  0  0  0  0  0
  160.0420  208.3840  154.3610 O   0  0  0  0  0  1  0  0  0  0  0  0
  161.0290  210.5410  151.6050 C   0  0  0  0  0  0  0  0  0  0  0  0
  160.9580  208.3040  152.1450 C   0  0  0  0  0  0  0  0  0  0  0  0
  160.4600  208.9830  153.1760 C   0  0  0  0  0  0  0  0  0  0  0  0
  161.2190  211.5970  151.0220 O   0  0  0  0  0  0  0  0  0  0  0  0
  158.9710  210.8150  152.7760 N   0  0  0  0  0  2  0  0  0  0  0  0
  158.6910  211.8550  153.6740 N   0  0  0  0  0  2  0  0  0  0  0  0
  157.7220  211.6880  154.7140 C   0  0  0  0  0  0  0  0  0  0  0  0
  156.3150  212.5250  154.6840 S   0  0  0  0  0  0  0  0  0  0  0  0
  157.9520  210.7690  155.7780 N   0  0  0  0  0  2  0  0  0  0  0  0
  158.7180  211.1300  156.9570 C   0  0  0  0  0  2  0  0  0  0  0  0
  160.7680  212.5260  157.0790 C   0  0  0  0  0  1  0  0  0  0  0  0
  160.9270  210.0640  157.2600 C   0  0  0  0  0  1  0  0  0  0  0  0
  160.1910  211.2100  156.6010 C   0  0  0  0  0  3  0  0  0  0  0  0
  160.5920  206.9150  149.5530 C   0  0  0  0  0  2  0  0  0  0  0  0
  160.7090  206.0080  148.3280 C   0  0  0  0  0  2  0  0  0  0  0  0
  162.3800  207.7830  147.8770 C   0  0  0  0  0  1  0  0  0  0  0  0
  161.7420  206.5200  147.3220 C   0  0  2  0  0  0  0  0  0  0  0  0
  161.0190  206.8670  146.0190 C   0  0  0  0  0  2  0  0  0  0  0  0
  159.8890  205.8940  145.7080 C   0  0  0  0  0  1  0  0  0  0  0  0
  162.7680  205.5450  147.0960 O   0  0  0  0  0  0  0  0  0  0  0  0
  161.7230  203.3760  146.7170 N   0  0  0  0  0  2  0  0  0  0  0  0
  163.2630  204.2810  145.2120 O   0  0  0  0  0  0  0  0  0  0  0  0
  162.6210  204.4040  146.2920 C   0  0  0  0  0  0  0  0  0  0  0  0
  160.0960  201.8260  145.7750 C   0  0  1  0  0  3  0  0  0  0  0  0
  160.8330  201.1330  146.9040 C   0  0  0  0  0  2  0  0  0  0  0  0
  161.5680  202.1130  146.0100 C   0  0  2  0  0  3  0  0  0  0  0  0
  159.9740  200.9490  144.7060 O   0  0  0  0  0  1  0  0  0  0  0  0
  1  5  1  0  0  0  0
  2  4  1  0  0  0  0
  3  6  1  0  0  0  0
  4 14  1  0  0  0  0
  4  6  2  0  0  0  0
  5  2  2  0  0  0  0
  5  7  1  0  0  0  0
  7  8  1  0  0  0  0
  7  3  2  0  0  0  0
  9 11  1  1  0  0  0
  9 13  1  0  0  0  0
  9 14  1  0  0  0  0
 10 17  1  6  0  0  0
 10 15  1  0  0  0  0
 13 10  1  0  0  0  0
 14 15  2  0  0  0  0
 15 12  1  0  0  0  0
 16 13  2  0  0  0  0
 17 18  1  0  0  0  0
 18 19  1  0  0  0  0
 19 21  1  0  0  0  0
 20 19  2  0  0  0  0
 21 22  1  0  0  0  0
 25 22  1  0  0  0  0
 25 23  1  0  0  0  0
 25 24  1  0  0  0  0
 26  2  1  0  0  0  0
 27 26  1  0  0  0  0
 29 28  1  1  0  0  0
 29 27  1  0  0  0  0
 30 29  1  0  0  0  0
 31 30  1  0  0  0  0
 32 29  1  0  0  0  0
 34 35  2  0  0  0  0
 35 33  1  0  0  0  0
 35 32  1  0  0  0  0
 36 39  1  6  0  0  0
 36 38  1  0  0  0  0
 36 37  1  0  0  0  0
 38 33  1  1  0  0  0
 38 37  1  0  0  0  0
M  END
>  <MODEL>
9

>  <REMARK>
 VINA RESULT:      -3.9      4.071      8.650
  Name = 
  14 active torsions:
  status: ('A' for Active; 'I' for Inactive)
    1  A    between atoms: C_2  and  C_14
    2  A    between atoms: C_7  and  C_24
    3  A    between atoms: N_9  and  C_31
    4  A    between atoms: C_10  and  N_21
    5  A    between atoms: C_10  and  N_38
    6  A    between atoms: N_13  and  C_17
    7  A    between atoms: N_13  and  N_21
    8  A    between atoms: C_14  and  O_26
    9  A    between atoms: C_14  and  C_36
   10  A    between atoms: C_15  and  C_27
   11  A    between atoms: C_18  and  C_20
   12  A    between atoms: C_20  and  N_38
   13  A    between atoms: C_24  and  C_36
   14  A    between atoms: O_26  and  C_34
                            x       y       z     vdW  Elec       q    Type
                         _______ _______ _______ _____ _____    ______ ____

>  <TORSDO>
F 14

$$$$
