=
 OpenBabel11072410273D

 32 36  0  0  1  0  0  0  0  0999 V2000
  161.1990  206.9560  153.8280 C   0  0  0  0  0  3  0  0  0  0  0  0
  161.5160  205.8500  153.2230 N   0  0  0  0  0  0  0  0  0  0  0  0
  161.1710  208.2000  153.1190 N   0  0  0  0  0  0  0  0  0  0  0  0
  161.8220  205.7780  151.7920 C   0  0  2  0  0  3  0  0  0  0  0  0
  161.4160  208.2450  151.6810 C   0  0  0  0  0  2  0  0  0  0  0  0
  162.3610  207.1180  151.2740 C   0  0  0  0  0  2  0  0  0  0  0  0
  160.8710  209.6700  153.9810 S   0  0  0  0  0  0  0  0  0  0  0  0
  160.0430  209.3780  155.2010 O   0  0  0  0  0  0  0  0  0  0  0  0
  162.1780  210.2720  154.4160 O   0  0  0  0  0  0  0  0  0  0  0  0
  160.0130  210.8180  152.9220 C   0  0  1  0  0  3  0  0  0  0  0  0
  159.2970  213.0000  153.0020 N   0  0  0  0  0  2  0  0  0  0  0  0
  158.1080  212.1820  153.2110 C   0  0  1  0  0  3  0  0  0  0  0  0
  158.5320  210.7380  153.1580 C   0  0  0  0  0  2  0  0  0  0  0  0
  160.4170  212.1790  153.2320 N   0  0  0  0  0  2  0  0  0  0  0  0
  155.4410  213.4210  153.5500 O   0  0  0  0  0  1  0  0  0  0  0  0
  156.1730  213.0980  154.6860 C   0  0  0  0  0  0  0  0  0  0  0  0
  155.5820  213.3800  155.9960 C   0  0  0  0  0  3  0  0  0  0  0  0
  156.2100  213.0950  157.2600 C   0  0  0  0  0  3  0  0  0  0  0  0
  158.0340  212.2400  155.7480 C   0  0  0  0  0  0  0  0  0  0  0  0
  157.4270  212.5250  157.0420 C   0  0  0  0  0  0  0  0  0  0  0  0
  157.4750  212.5000  154.5320 C   0  0  0  0  0  0  0  0  0  0  0  0
  158.6950  211.9330  156.9460 C   0  0  0  0  0  2  0  0  0  0  0  0
  160.5830  205.3320  151.0190 C   0  0  0  0  0  2  0  0  0  0  0  0
  161.2840  202.8730  148.1940 C   0  0  0  0  0  0  0  0  0  0  0  0
  160.8420  204.0670  150.2560 C   0  0  0  0  0  0  0  0  0  0  0  0
  160.6450  202.7840  152.2760 F   0  0  0  0  0  0  0  0  0  0  0  0
  161.0650  204.0850  148.8660 C   0  0  0  0  0  0  0  0  0  0  0  0
  161.2820  201.7010  148.8830 N   0  0  0  0  0  0  0  0  0  0  0  0
  160.8490  202.8410  150.9360 C   0  0  0  0  0  0  0  0  0  0  0  0
  161.5000  202.8580  146.8560 F   0  0  0  0  0  0  0  0  0  0  0  0
  161.0720  201.6610  150.2250 C   0  0  0  0  0  3  0  0  0  0  0  0
  161.0770  205.3680  148.0980 C   0  0  0  0  0  1  0  0  0  0  0  0
  2  1  2  0  0  0  0
  3  1  1  0  0  0  0
  3  7  1  0  0  0  0
  4 23  1  6  0  0  0
  4  2  1  0  0  0  0
  5  3  1  0  0  0  0
  6  5  1  0  0  0  0
  6  4  1  0  0  0  0
  7  9  2  0  0  0  0
  7  8  2  0  0  0  0
 10 13  1  0  0  0  0
 10 14  1  0  0  0  0
 10  7  1  1  0  0  0
 11 12  1  0  0  0  0
 11 14  1  0  0  0  0
 12 21  1  1  0  0  0
 13 12  1  0  0  0  0
 15 16  1  0  0  0  0
 16 17  1  0  0  0  0
 17 18  2  0  0  0  0
 19 22  1  0  0  0  0
 19 20  2  0  0  0  0
 20 18  1  0  0  0  0
 21 16  2  0  0  0  0
 21 19  1  0  0  0  0
 22 20  1  0  0  0  0
 24 27  2  0  0  0  0
 24 28  1  0  0  0  0
 25 29  2  0  0  0  0
 25 23  1  0  0  0  0
 27 25  1  0  0  0  0
 28 31  2  0  0  0  0
 29 26  1  0  0  0  0
 30 24  1  0  0  0  0
 31 29  1  0  0  0  0
 32 27  1  0  0  0  0
M  END
>  <MODEL>
1

>  <REMARK>
 VINA RESULT:      -8.5      0.000      0.000
  Name = 
  5 active torsions:
  status: ('A' for Active; 'I' for Inactive)
    1  A    between atoms: C_4  and  C_6
    2  A    between atoms: C_6  and  C_25
    3  A    between atoms: C_9  and  S_12
    4  A    between atoms: N_11  and  S_12
    5  A    between atoms: C_15  and  C_22
                            x       y       z     vdW  Elec       q    Type
                         _______ _______ _______ _____ _____    ______ ____

>  <TORSDO>
F 5

$$$$
=
 OpenBabel11072410273D

 32 36  0  0  1  0  0  0  0  0999 V2000
  161.6840  209.4800  152.7340 C   0  0  0  0  0  3  0  0  0  0  0  0
  161.5860  210.2610  153.7680 N   0  0  0  0  0  0  0  0  0  0  0  0
  161.3390  208.0920  152.8260 N   0  0  0  0  0  0  0  0  0  0  0  0
  161.0870  209.8110  155.0700 C   0  0  2  0  0  3  0  0  0  0  0  0
  160.7900  207.5400  154.0610 C   0  0  0  0  0  2  0  0  0  0  0  0
  161.3290  208.3080  155.2640 C   0  0  0  0  0  2  0  0  0  0  0  0
  161.6020  207.0520  151.4680 S   0  0  0  0  0  0  0  0  0  0  0  0
  160.7980  207.5430  150.2960 O   0  0  0  0  0  0  0  0  0  0  0  0
  163.0580  207.0720  151.0970 O   0  0  0  0  0  0  0  0  0  0  0  0
  161.1180  205.3890  151.8870 C   0  0  1  0  0  3  0  0  0  0  0  0
  161.7990  203.2470  151.4110 N   0  0  0  0  0  2  0  0  0  0  0  0
  160.6060  203.4760  150.6030 C   0  0  1  0  0  3  0  0  0  0  0  0
  160.1200  204.8710  150.8920 C   0  0  0  0  0  2  0  0  0  0  0  0
  162.2710  204.5060  151.8290 N   0  0  0  0  0  2  0  0  0  0  0  0
  160.4140  200.9270  149.1100 O   0  0  0  0  0  1  0  0  0  0  0  0
  160.8150  202.0690  148.4280 C   0  0  0  0  0  0  0  0  0  0  0  0
  161.1130  201.9540  146.9980 C   0  0  0  0  0  3  0  0  0  0  0  0
  161.5280  203.0440  146.1550 C   0  0  0  0  0  3  0  0  0  0  0  0
  161.3070  204.3210  148.3150 C   0  0  0  0  0  0  0  0  0  0  0  0
  161.5950  204.1870  146.8920 C   0  0  0  0  0  0  0  0  0  0  0  0
  160.9170  203.3130  149.1460 C   0  0  0  0  0  0  0  0  0  0  0  0
  161.7020  205.4240  147.5450 C   0  0  0  0  0  2  0  0  0  0  0  0
  159.6090  210.1680  155.2100 C   0  0  0  0  0  2  0  0  0  0  0  0
  158.5760  213.6560  154.0770 C   0  0  0  0  0  0  0  0  0  0  0  0
  159.4000  211.6530  155.1620 C   0  0  0  0  0  0  0  0  0  0  0  0
  160.5430  211.9000  157.2600 F   0  0  0  0  0  0  0  0  0  0  0  0
  158.7290  212.2620  154.0850 C   0  0  0  0  0  0  0  0  0  0  0  0
  159.0710  214.4020  155.1010 N   0  0  0  0  0  0  0  0  0  0  0  0
  159.8960  212.4520  156.2020 C   0  0  0  0  0  0  0  0  0  0  0  0
  157.9350  214.2720  153.0540 F   0  0  0  0  0  0  0  0  0  0  0  0
  159.7190  213.8350  156.1510 C   0  0  0  0  0  3  0  0  0  0  0  0
  158.1750  211.4510  152.9570 C   0  0  0  0  0  1  0  0  0  0  0  0
  1  3  1  0  0  0  0
  1  2  2  0  0  0  0
  2  4  1  0  0  0  0
  3  5  1  0  0  0  0
  4 23  1  6  0  0  0
  4  6  1  0  0  0  0
  5  6  1  0  0  0  0
  7  3  1  0  0  0  0
  8  7  2  0  0  0  0
  9  7  2  0  0  0  0
 10  7  1  6  0  0  0
 11 14  1  0  0  0  0
 12 21  1  6  0  0  0
 12 13  1  0  0  0  0
 12 11  1  0  0  0  0
 13 10  1  0  0  0  0
 14 10  1  0  0  0  0
 16 15  1  0  0  0  0
 16 21  1  0  0  0  0
 17 16  2  0  0  0  0
 18 20  2  0  0  0  0
 18 17  1  0  0  0  0
 19 21  2  0  0  0  0
 20 22  1  0  0  0  0
 20 19  1  0  0  0  0
 22 19  1  0  0  0  0
 24 27  2  0  0  0  0
 24 28  1  0  0  0  0
 25 23  1  0  0  0  0
 25 29  2  0  0  0  0
 27 25  1  0  0  0  0
 28 31  2  0  0  0  0
 29 26  1  0  0  0  0
 30 24  1  0  0  0  0
 31 29  1  0  0  0  0
 32 27  1  0  0  0  0
M  END
>  <MODEL>
2

>  <REMARK>
 VINA RESULT:      -8.3      4.030      9.983
  Name = 
  5 active torsions:
  status: ('A' for Active; 'I' for Inactive)
    1  A    between atoms: C_4  and  C_6
    2  A    between atoms: C_6  and  C_25
    3  A    between atoms: C_9  and  S_12
    4  A    between atoms: N_11  and  S_12
    5  A    between atoms: C_15  and  C_22
                            x       y       z     vdW  Elec       q    Type
                         _______ _______ _______ _____ _____    ______ ____

>  <TORSDO>
F 5

$$$$
=
 OpenBabel11072410273D

 32 36  0  0  1  0  0  0  0  0999 V2000
  161.1210  206.8080  153.5450 C   0  0  0  0  0  3  0  0  0  0  0  0
  161.3030  205.5780  153.1660 N   0  0  0  0  0  0  0  0  0  0  0  0
  161.3800  207.8980  152.6520 N   0  0  0  0  0  0  0  0  0  0  0  0
  161.7360  205.2100  151.8150 C   0  0  2  0  0  3  0  0  0  0  0  0
  161.7740  207.6520  151.2680 C   0  0  0  0  0  2  0  0  0  0  0  0
  162.5470  206.3410  151.1690 C   0  0  0  0  0  2  0  0  0  0  0  0
  161.2500  209.5250  153.2270 S   0  0  0  0  0  0  0  0  0  0  0  0
  162.3880  210.3430  152.6820 O   0  0  0  0  0  0  0  0  0  0  0  0
  159.9550  210.1220  152.7510 O   0  0  0  0  0  0  0  0  0  0  0  0
  161.2880  209.5340  155.0080 C   0  0  1  0  0  3  0  0  0  0  0  0
  159.7830  209.6020  156.7430 N   0  0  0  0  0  2  0  0  0  0  0  0
  160.3390  210.9460  156.6450 C   0  0  1  0  0  3  0  0  0  0  0  0
  161.3410  210.9450  155.5200 C   0  0  0  0  0  2  0  0  0  0  0  0
  160.0720  208.9380  155.5360 N   0  0  0  0  0  2  0  0  0  0  0  0
  160.5290  213.8360  157.2610 O   0  0  0  0  0  1  0  0  0  0  0  0
  159.3590  213.3530  156.6850 C   0  0  0  0  0  0  0  0  0  0  0  0
  158.2810  214.3040  156.4050 C   0  0  0  0  0  3  0  0  0  0  0  0
  157.0180  213.9620  155.8040 C   0  0  0  0  0  3  0  0  0  0  0  0
  158.0500  211.6640  155.8170 C   0  0  0  0  0  0  0  0  0  0  0  0
  156.9900  212.6260  155.5410 C   0  0  0  0  0  0  0  0  0  0  0  0
  159.2540  211.9480  156.3870 C   0  0  0  0  0  0  0  0  0  0  0  0
  156.8420  211.2670  155.2230 C   0  0  0  0  0  2  0  0  0  0  0  0
  160.5240  204.8290  150.9690 C   0  0  0  0  0  2  0  0  0  0  0  0
  161.2870  202.6420  147.9430 C   0  0  0  0  0  0  0  0  0  0  0  0
  160.8170  203.6420  150.1000 C   0  0  0  0  0  0  0  0  0  0  0  0
  160.6600  202.1860  152.0030 F   0  0  0  0  0  0  0  0  0  0  0  0
  161.0360  203.7860  148.7160 C   0  0  0  0  0  0  0  0  0  0  0  0
  161.3190  201.4150  148.5300 N   0  0  0  0  0  0  0  0  0  0  0  0
  160.8590  202.3630  150.6730 C   0  0  0  0  0  0  0  0  0  0  0  0
  161.5000  202.7470  146.6090 F   0  0  0  0  0  0  0  0  0  0  0  0
  161.1140  201.2550  149.8630 C   0  0  0  0  0  3  0  0  0  0  0  0
  161.0090  205.1290  148.0610 C   0  0  0  0  0  1  0  0  0  0  0  0
  2  1  2  0  0  0  0
  3  7  1  0  0  0  0
  3  1  1  0  0  0  0
  4 23  1  6  0  0  0
  4  2  1  0  0  0  0
  5  3  1  0  0  0  0
  6  5  1  0  0  0  0
  6  4  1  0  0  0  0
  8  7  2  0  0  0  0
  9  7  2  0  0  0  0
 10  7  1  6  0  0  0
 10 13  1  0  0  0  0
 10 14  1  0  0  0  0
 12 21  1  6  0  0  0
 12 11  1  0  0  0  0
 13 12  1  0  0  0  0
 14 11  1  0  0  0  0
 16 15  1  0  0  0  0
 17 16  1  0  0  0  0
 18 17  2  0  0  0  0
 19 21  1  0  0  0  0
 20 18  1  0  0  0  0
 20 19  2  0  0  0  0
 21 16  2  0  0  0  0
 22 20  1  0  0  0  0
 22 19  1  0  0  0  0
 24 28  2  0  0  0  0
 24 27  1  0  0  0  0
 25 29  1  0  0  0  0
 25 23  1  0  0  0  0
 27 25  2  0  0  0  0
 28 31  1  0  0  0  0
 29 26  1  0  0  0  0
 30 24  1  0  0  0  0
 31 29  2  0  0  0  0
 32 27  1  0  0  0  0
M  END
>  <MODEL>
3

>  <REMARK>
 VINA RESULT:      -8.2      1.934      2.431
  Name = 
  5 active torsions:
  status: ('A' for Active; 'I' for Inactive)
    1  A    between atoms: C_4  and  C_6
    2  A    between atoms: C_6  and  C_25
    3  A    between atoms: C_9  and  S_12
    4  A    between atoms: N_11  and  S_12
    5  A    between atoms: C_15  and  C_22
                            x       y       z     vdW  Elec       q    Type
                         _______ _______ _______ _____ _____    ______ ____

>  <TORSDO>
F 5

$$$$
=
 OpenBabel11072410273D

 32 36  0  0  1  0  0  0  0  0999 V2000
  161.5920  209.3040  151.0910 C   0  0  0  0  0  3  0  0  0  0  0  0
  161.3870  210.3840  151.7860 N   0  0  0  0  0  0  0  0  0  0  0  0
  161.3570  208.0100  151.6570 N   0  0  0  0  0  0  0  0  0  0  0  0
  160.8690  210.3690  153.1570 C   0  0  2  0  0  3  0  0  0  0  0  0
  160.8000  207.8720  153.0000 C   0  0  0  0  0  2  0  0  0  0  0  0
  161.2220  209.0550  153.8660 C   0  0  0  0  0  2  0  0  0  0  0  0
  161.7610  206.5930  150.7510 S   0  0  0  0  0  0  0  0  0  0  0  0
  163.0580  206.0250  151.2570 O   0  0  0  0  0  0  0  0  0  0  0  0
  160.6820  205.5610  150.9260 O   0  0  0  0  0  0  0  0  0  0  0  0
  161.9080  207.0090  149.0250 C   0  0  1  0  0  3  0  0  0  0  0  0
  160.7650  206.6080  147.0730 N   0  0  0  0  0  2  0  0  0  0  0  0
  161.9270  205.7280  147.0420 C   0  0  1  0  0  3  0  0  0  0  0  0
  162.7130  205.9650  148.3040 C   0  0  0  0  0  2  0  0  0  0  0  0
  160.5950  207.0330  148.4040 N   0  0  0  0  0  2  0  0  0  0  0  0
  161.3550  204.3070  144.5090 O   0  0  0  0  0  1  0  0  0  0  0  0
  161.2310  203.6110  145.7060 C   0  0  0  0  0  0  0  0  0  0  0  0
  160.8300  202.2030  145.6500 C   0  0  0  0  0  3  0  0  0  0  0  0
  160.6690  201.3480  146.7980 C   0  0  0  0  0  3  0  0  0  0  0  0
  161.3430  203.4540  148.0050 C   0  0  0  0  0  0  0  0  0  0  0  0
  160.9470  202.0530  147.9290 C   0  0  0  0  0  0  0  0  0  0  0  0
  161.5010  204.2950  146.9440 C   0  0  0  0  0  0  0  0  0  0  0  0
  161.2080  202.6710  149.1610 C   0  0  0  0  0  2  0  0  0  0  0  0
  159.3630  210.6160  153.1450 C   0  0  0  0  0  2  0  0  0  0  0  0
  158.4610  213.3120  155.6820 C   0  0  0  0  0  0  0  0  0  0  0  0
  159.0230  211.9380  153.7670 C   0  0  0  0  0  0  0  0  0  0  0  0
  159.1290  213.0000  151.6160 F   0  0  0  0  0  0  0  0  0  0  0  0
  158.7960  212.0570  155.1520 C   0  0  0  0  0  0  0  0  0  0  0  0
  158.3610  214.3940  154.8650 N   0  0  0  0  0  0  0  0  0  0  0  0
  158.9120  213.0750  152.9530 C   0  0  0  0  0  0  0  0  0  0  0  0
  158.2370  213.4590  157.0110 F   0  0  0  0  0  0  0  0  0  0  0  0
  158.5780  214.3020  153.5270 C   0  0  0  0  0  3  0  0  0  0  0  0
  158.9100  210.8770  156.0610 C   0  0  0  0  0  1  0  0  0  0  0  0
  1  3  1  0  0  0  0
  1  2  2  0  0  0  0
  2  4  1  0  0  0  0
  3  5  1  0  0  0  0
  4 23  1  6  0  0  0
  4  6  1  0  0  0  0
  5  6  1  0  0  0  0
  7  9  2  0  0  0  0
  7  8  2  0  0  0  0
  7  3  1  0  0  0  0
 10  7  1  1  0  0  0
 11 14  1  0  0  0  0
 12 21  1  1  0  0  0
 12 11  1  0  0  0  0
 12 13  1  0  0  0  0
 13 10  1  0  0  0  0
 14 10  1  0  0  0  0
 15 16  1  0  0  0  0
 16 21  1  0  0  0  0
 17 16  2  0  0  0  0
 17 18  1  0  0  0  0
 18 20  2  0  0  0  0
 19 22  1  0  0  0  0
 20 19  1  0  0  0  0
 20 22  1  0  0  0  0
 21 19  2  0  0  0  0
 23 25  1  0  0  0  0
 24 30  1  0  0  0  0
 25 27  2  0  0  0  0
 26 29  1  0  0  0  0
 27 24  1  0  0  0  0
 27 32  1  0  0  0  0
 28 24  2  0  0  0  0
 29 31  2  0  0  0  0
 29 25  1  0  0  0  0
 31 28  1  0  0  0  0
M  END
>  <MODEL>
4

>  <REMARK>
 VINA RESULT:      -7.6      4.280     10.274
  Name = 
  5 active torsions:
  status: ('A' for Active; 'I' for Inactive)
    1  A    between atoms: C_4  and  C_6
    2  A    between atoms: C_6  and  C_25
    3  A    between atoms: C_9  and  S_12
    4  A    between atoms: N_11  and  S_12
    5  A    between atoms: C_15  and  C_22
                            x       y       z     vdW  Elec       q    Type
                         _______ _______ _______ _____ _____    ______ ____

>  <TORSDO>
F 5

$$$$
=
 OpenBabel11072410273D

 32 36  0  0  1  0  0  0  0  0999 V2000
  161.6420  209.6420  151.6010 C   0  0  0  0  0  3  0  0  0  0  0  0
  161.2900  210.6560  152.3340 N   0  0  0  0  0  0  0  0  0  0  0  0
  161.3430  208.3020  152.0090 N   0  0  0  0  0  0  0  0  0  0  0  0
  160.5380  210.5210  153.5840 C   0  0  2  0  0  3  0  0  0  0  0  0
  160.5610  208.0460  153.2160 C   0  0  0  0  0  2  0  0  0  0  0  0
  160.7940  209.1550  154.2360 C   0  0  0  0  0  2  0  0  0  0  0  0
  161.9360  206.9700  151.0780 S   0  0  0  0  0  0  0  0  0  0  0  0
  161.6140  207.1890  149.6260 O   0  0  0  0  0  0  0  0  0  0  0  0
  163.4290  206.8760  151.2320 O   0  0  0  0  0  0  0  0  0  0  0  0
  161.1850  205.4590  151.6500 C   0  0  1  0  0  3  0  0  0  0  0  0
  161.5350  203.1980  151.4400 N   0  0  0  0  0  2  0  0  0  0  0  0
  160.4190  203.5120  150.5560 C   0  0  1  0  0  3  0  0  0  0  0  0
  160.1490  204.9890  150.6680 C   0  0  0  0  0  2  0  0  0  0  0  0
  162.1850  204.4090  151.7430 N   0  0  0  0  0  2  0  0  0  0  0  0
  160.2330  200.7740  149.4460 O   0  0  0  0  0  1  0  0  0  0  0  0
  160.6460  201.8040  148.6100 C   0  0  0  0  0  0  0  0  0  0  0  0
  160.9610  201.4820  147.2160 C   0  0  0  0  0  3  0  0  0  0  0  0
  161.3910  202.4370  146.2280 C   0  0  0  0  0  3  0  0  0  0  0  0
  161.1500  204.0140  148.1770 C   0  0  0  0  0  0  0  0  0  0  0  0
  161.4540  203.6740  146.7930 C   0  0  0  0  0  0  0  0  0  0  0  0
  160.7460  203.1390  149.1410 C   0  0  0  0  0  0  0  0  0  0  0  0
  161.5590  204.9930  147.2600 C   0  0  0  0  0  2  0  0  0  0  0  0
  159.0520  210.7530  153.3230 C   0  0  0  0  0  2  0  0  0  0  0  0
  157.3740  213.2770  155.6330 C   0  0  0  0  0  0  0  0  0  0  0  0
  158.5860  212.0390  153.9380 C   0  0  0  0  0  0  0  0  0  0  0  0
  159.6800  213.2870  152.2030 F   0  0  0  0  0  0  0  0  0  0  0  0
  157.8020  212.0480  155.1080 C   0  0  0  0  0  0  0  0  0  0  0  0
  157.7160  214.4390  155.0150 N   0  0  0  0  0  0  0  0  0  0  0  0
  158.9220  213.2560  153.3280 C   0  0  0  0  0  0  0  0  0  0  0  0
  156.6180  213.3180  156.7570 F   0  0  0  0  0  0  0  0  0  0  0  0
  158.4730  214.4530  153.8870 C   0  0  0  0  0  3  0  0  0  0  0  0
  157.4250  210.7780  155.8000 C   0  0  0  0  0  1  0  0  0  0  0  0
  1  3  1  0  0  0  0
  1  2  2  0  0  0  0
  2  4  1  0  0  0  0
  3  5  1  0  0  0  0
  4 23  1  6  0  0  0
  4  6  1  0  0  0  0
  5  6  1  0  0  0  0
  7  9  2  0  0  0  0
  7  3  1  0  0  0  0
  8  7  2  0  0  0  0
 10  7  1  6  0  0  0
 10 14  1  0  0  0  0
 11 14  1  0  0  0  0
 12 21  1  6  0  0  0
 12 13  1  0  0  0  0
 12 11  1  0  0  0  0
 13 10  1  0  0  0  0
 16 21  1  0  0  0  0
 16 15  1  0  0  0  0
 17 16  2  0  0  0  0
 18 20  2  0  0  0  0
 18 17  1  0  0  0  0
 19 21  2  0  0  0  0
 20 22  1  0  0  0  0
 20 19  1  0  0  0  0
 22 19  1  0  0  0  0
 23 25  1  0  0  0  0
 24 30  1  0  0  0  0
 25 27  2  0  0  0  0
 26 29  1  0  0  0  0
 27 24  1  0  0  0  0
 27 32  1  0  0  0  0
 28 24  2  0  0  0  0
 29 31  2  0  0  0  0
 29 25  1  0  0  0  0
 31 28  1  0  0  0  0
M  END
>  <MODEL>
5

>  <REMARK>
 VINA RESULT:      -7.4      3.969     10.259
  Name = 
  5 active torsions:
  status: ('A' for Active; 'I' for Inactive)
    1  A    between atoms: C_4  and  C_6
    2  A    between atoms: C_6  and  C_25
    3  A    between atoms: C_9  and  S_12
    4  A    between atoms: N_11  and  S_12
    5  A    between atoms: C_15  and  C_22
                            x       y       z     vdW  Elec       q    Type
                         _______ _______ _______ _____ _____    ______ ____

>  <TORSDO>
F 5

$$$$
=
 OpenBabel11072410273D

 32 36  0  0  1  0  0  0  0  0999 V2000
  161.0240  207.1030  153.5540 C   0  0  0  0  0  3  0  0  0  0  0  0
  161.1080  205.8410  153.2530 N   0  0  0  0  0  0  0  0  0  0  0  0
  161.4030  208.1100  152.6080 N   0  0  0  0  0  0  0  0  0  0  0  0
  161.5430  205.3560  151.9410 C   0  0  2  0  0  3  0  0  0  0  0  0
  161.8110  207.7480  151.2540 C   0  0  0  0  0  2  0  0  0  0  0  0
  162.4680  206.3710  151.2560 C   0  0  0  0  0  2  0  0  0  0  0  0
  161.4020  209.7740  153.0830 S   0  0  0  0  0  0  0  0  0  0  0  0
  162.7640  210.3650  152.8480 O   0  0  0  0  0  0  0  0  0  0  0  0
  160.3980  210.5300  152.2570 O   0  0  0  0  0  0  0  0  0  0  0  0
  160.9690  209.9030  154.8070 C   0  0  1  0  0  3  0  0  0  0  0  0
  159.0600  209.9280  156.0850 N   0  0  0  0  0  2  0  0  0  0  0  0
  159.5090  211.3140  156.0120 C   0  0  1  0  0  3  0  0  0  0  0  0
  160.7680  211.3430  155.1860 C   0  0  0  0  0  2  0  0  0  0  0  0
  159.7100  209.2210  155.0560 N   0  0  0  0  0  2  0  0  0  0  0  0
  156.8840  211.9070  157.2460 O   0  0  0  0  0  1  0  0  0  0  0  0
  157.1790  212.4670  156.0080 C   0  0  0  0  0  0  0  0  0  0  0  0
  156.1760  213.3300  155.3810 C   0  0  0  0  0  3  0  0  0  0  0  0
  156.3370  213.9880  154.1100 C   0  0  0  0  0  3  0  0  0  0  0  0
  158.5680  212.8220  154.2000 C   0  0  0  0  0  0  0  0  0  0  0  0
  157.5590  213.6820  153.5940 C   0  0  0  0  0  0  0  0  0  0  0  0
  158.4510  212.1790  155.3960 C   0  0  0  0  0  0  0  0  0  0  0  0
  158.7880  213.4400  152.9600 C   0  0  0  0  0  2  0  0  0  0  0  0
  160.3250  205.0310  151.0790 C   0  0  0  0  0  2  0  0  0  0  0  0
  161.3750  202.4470  148.4830 C   0  0  0  0  0  0  0  0  0  0  0  0
  160.7290  204.3840  149.7870 C   0  0  0  0  0  0  0  0  0  0  0  0
  160.6350  206.5080  148.6710 F   0  0  0  0  0  0  0  0  0  0  0  0
  160.9800  203.0010  149.7100 C   0  0  0  0  0  0  0  0  0  0  0  0
  161.5090  203.2410  147.3870 N   0  0  0  0  0  0  0  0  0  0  0  0
  160.8750  205.1740  148.6370 C   0  0  0  0  0  0  0  0  0  0  0  0
  161.6250  201.1190  148.3760 F   0  0  0  0  0  0  0  0  0  0  0  0
  161.2690  204.5770  147.4380 C   0  0  0  0  0  3  0  0  0  0  0  0
  160.8310  202.1170  150.9060 C   0  0  0  0  0  1  0  0  0  0  0  0
  2  1  2  0  0  0  0
  3  7  1  0  0  0  0
  3  1  1  0  0  0  0
  4 23  1  6  0  0  0
  4  2  1  0  0  0  0
  5  6  1  0  0  0  0
  5  3  1  0  0  0  0
  6  4  1  0  0  0  0
  8  7  2  0  0  0  0
  9  7  2  0  0  0  0
 10  7  1  6  0  0  0
 10 14  1  0  0  0  0
 10 13  1  0  0  0  0
 12 21  1  6  0  0  0
 12 11  1  0  0  0  0
 13 12  1  0  0  0  0
 14 11  1  0  0  0  0
 16 15  1  0  0  0  0
 17 16  2  0  0  0  0
 18 17  1  0  0  0  0
 19 21  2  0  0  0  0
 20 18  2  0  0  0  0
 20 19  1  0  0  0  0
 21 16  1  0  0  0  0
 22 20  1  0  0  0  0
 22 19  1  0  0  0  0
 24 27  1  0  0  0  0
 25 23  1  0  0  0  0
 27 25  2  0  0  0  0
 27 32  1  0  0  0  0
 28 31  1  0  0  0  0
 28 24  2  0  0  0  0
 29 26  1  0  0  0  0
 29 25  1  0  0  0  0
 30 24  1  0  0  0  0
 31 29  2  0  0  0  0
M  END
>  <MODEL>
6

>  <REMARK>
 VINA RESULT:      -7.3      1.929      2.715
  Name = 
  5 active torsions:
  status: ('A' for Active; 'I' for Inactive)
    1  A    between atoms: C_4  and  C_6
    2  A    between atoms: C_6  and  C_25
    3  A    between atoms: C_9  and  S_12
    4  A    between atoms: N_11  and  S_12
    5  A    between atoms: C_15  and  C_22
                            x       y       z     vdW  Elec       q    Type
                         _______ _______ _______ _____ _____    ______ ____

>  <TORSDO>
F 5

$$$$
=
 OpenBabel11072410273D

 32 36  0  0  1  0  0  0  0  0999 V2000
  160.4610  207.2480  150.0780 C   0  0  0  0  0  3  0  0  0  0  0  0
  160.2120  206.1820  149.3780 N   0  0  0  0  0  0  0  0  0  0  0  0
  161.1230  207.1580  151.3450 N   0  0  0  0  0  0  0  0  0  0  0  0
  160.6160  204.8360  149.7940 C   0  0  2  0  0  3  0  0  0  0  0  0
  161.6110  205.8750  151.8420 C   0  0  0  0  0  2  0  0  0  0  0  0
  160.7320  204.7430  151.3220 C   0  0  0  0  0  2  0  0  0  0  0  0
  161.3250  208.5810  152.3090 S   0  0  0  0  0  0  0  0  0  0  0  0
  162.5580  209.3180  151.8650 O   0  0  0  0  0  0  0  0  0  0  0  0
  160.1340  209.4800  152.1300 O   0  0  0  0  0  0  0  0  0  0  0  0
  161.4710  208.1230  154.0250 C   0  0  1  0  0  3  0  0  0  0  0  0
  160.1410  208.0950  155.8980 N   0  0  0  0  0  2  0  0  0  0  0  0
  161.0180  209.2510  156.0490 C   0  0  1  0  0  3  0  0  0  0  0  0
  161.9160  209.3030  154.8410 C   0  0  0  0  0  2  0  0  0  0  0  0
  160.1760  207.7150  154.5430 N   0  0  0  0  0  2  0  0  0  0  0  0
  161.9950  211.7690  157.2600 O   0  0  0  0  0  1  0  0  0  0  0  0
  160.7010  211.7330  156.7520 C   0  0  0  0  0  0  0  0  0  0  0  0
  159.8900  212.9490  156.8360 C   0  0  0  0  0  3  0  0  0  0  0  0
  158.5400  213.0720  156.3480 C   0  0  0  0  0  3  0  0  0  0  0  0
  158.9390  210.6680  155.7130 C   0  0  0  0  0  0  0  0  0  0  0  0
  158.1480  211.8890  155.8010 C   0  0  0  0  0  0  0  0  0  0  0  0
  160.2140  210.5110  156.1670 C   0  0  0  0  0  0  0  0  0  0  0  0
  157.6300  210.7250  155.2120 C   0  0  0  0  0  2  0  0  0  0  0  0
  161.9230  204.4510  149.1050 C   0  0  0  0  0  2  0  0  0  0  0  0
  161.0780  202.9880  145.6890 C   0  0  0  0  0  0  0  0  0  0  0  0
  161.7310  204.2910  147.6260 C   0  0  0  0  0  0  0  0  0  0  0  0
  162.5710  206.5090  147.2560 F   0  0  0  0  0  0  0  0  0  0  0  0
  161.2200  203.0970  147.0810 C   0  0  0  0  0  0  0  0  0  0  0  0
  161.4300  204.0270  144.8850 N   0  0  0  0  0  0  0  0  0  0  0  0
  162.0820  205.3420  146.7670 C   0  0  0  0  0  0  0  0  0  0  0  0
  160.5900  201.8520  145.1340 F   0  0  0  0  0  0  0  0  0  0  0  0
  161.9220  205.1880  145.3890 C   0  0  0  0  0  3  0  0  0  0  0  0
  160.8240  201.9510  147.9550 C   0  0  0  0  0  1  0  0  0  0  0  0
  1  3  1  0  0  0  0
  2  4  1  0  0  0  0
  2  1  2  0  0  0  0
  3  5  1  0  0  0  0
  3  7  1  0  0  0  0
  4 23  1  6  0  0  0
  4  6  1  0  0  0  0
  6  5  1  0  0  0  0
  8  7  2  0  0  0  0
  9  7  2  0  0  0  0
 10  7  1  6  0  0  0
 10 14  1  0  0  0  0
 10 13  1  0  0  0  0
 11 12  1  0  0  0  0
 12 21  1  6  0  0  0
 13 12  1  0  0  0  0
 14 11  1  0  0  0  0
 16 17  1  0  0  0  0
 16 15  1  0  0  0  0
 18 17  2  0  0  0  0
 19 20  2  0  0  0  0
 19 21  1  0  0  0  0
 20 18  1  0  0  0  0
 21 16  2  0  0  0  0
 22 19  1  0  0  0  0
 22 20  1  0  0  0  0
 24 27  1  0  0  0  0
 25 23  1  0  0  0  0
 27 25  2  0  0  0  0
 27 32  1  0  0  0  0
 28 31  1  0  0  0  0
 28 24  2  0  0  0  0
 29 26  1  0  0  0  0
 29 25  1  0  0  0  0
 30 24  1  0  0  0  0
 31 29  2  0  0  0  0
M  END
>  <MODEL>
7

>  <REMARK>
 VINA RESULT:      -7.1      2.862      3.948
  Name = 
  5 active torsions:
  status: ('A' for Active; 'I' for Inactive)
    1  A    between atoms: C_4  and  C_6
    2  A    between atoms: C_6  and  C_25
    3  A    between atoms: C_9  and  S_12
    4  A    between atoms: N_11  and  S_12
    5  A    between atoms: C_15  and  C_22
                            x       y       z     vdW  Elec       q    Type
                         _______ _______ _______ _____ _____    ______ ____

>  <TORSDO>
F 5

$$$$
=
 OpenBabel11072410273D

 32 36  0  0  1  0  0  0  0  0999 V2000
  160.3500  205.7160  150.4870 C   0  0  0  0  0  3  0  0  0  0  0  0
  160.0570  204.7470  149.6720 N   0  0  0  0  0  0  0  0  0  0  0  0
  161.1570  205.4830  151.6470 N   0  0  0  0  0  0  0  0  0  0  0  0
  160.5510  203.3780  149.8430 C   0  0  2  0  0  3  0  0  0  0  0  0
  161.7410  204.1680  151.8980 C   0  0  0  0  0  2  0  0  0  0  0  0
  160.8450  203.0780  151.3190 C   0  0  0  0  0  2  0  0  0  0  0  0
  161.4220  206.7650  152.7780 S   0  0  0  0  0  0  0  0  0  0  0  0
  160.4550  206.6340  153.9220 O   0  0  0  0  0  0  0  0  0  0  0  0
  162.8220  206.6760  153.3180 O   0  0  0  0  0  0  0  0  0  0  0  0
  161.1980  208.3350  151.9650 C   0  0  1  0  0  3  0  0  0  0  0  0
  161.9830  210.4840  152.1680 N   0  0  0  0  0  2  0  0  0  0  0  0
  160.6390  210.4960  152.7340 C   0  0  1  0  0  3  0  0  0  0  0  0
  160.0810  209.1020  152.6140 C   0  0  0  0  0  2  0  0  0  0  0  0
  162.3990  209.1410  152.1010 N   0  0  0  0  0  2  0  0  0  0  0  0
  159.3490  212.9430  153.7870 O   0  0  0  0  0  1  0  0  0  0  0  0
  160.0370  212.1210  154.6710 C   0  0  0  0  0  0  0  0  0  0  0  0
  160.0820  212.5050  156.0840 C   0  0  0  0  0  3  0  0  0  0  0  0
  160.7440  211.7550  157.1190 C   0  0  0  0  0  3  0  0  0  0  0  0
  161.2850  210.2470  155.1760 C   0  0  0  0  0  0  0  0  0  0  0  0
  161.3140  210.6430  156.5780 C   0  0  0  0  0  0  0  0  0  0  0  0
  160.6740  210.9310  154.1680 C   0  0  0  0  0  0  0  0  0  0  0  0
  161.9440  209.4680  156.1390 C   0  0  0  0  0  2  0  0  0  0  0  0
  161.7820  203.1570  148.9670 C   0  0  0  0  0  2  0  0  0  0  0  0
  161.1980  203.8140  145.2590 C   0  0  0  0  0  0  0  0  0  0  0  0
  161.4000  202.9830  147.5270 C   0  0  0  0  0  0  0  0  0  0  0  0
  160.6400  200.7510  147.9770 F   0  0  0  0  0  0  0  0  0  0  0  0
  161.5890  204.0190  146.5910 C   0  0  0  0  0  0  0  0  0  0  0  0
  160.6470  202.6280  144.8850 N   0  0  0  0  0  0  0  0  0  0  0  0
  160.8310  201.7730  147.1060 C   0  0  0  0  0  0  0  0  0  0  0  0
  161.3660  204.7910  144.3350 F   0  0  0  0  0  0  0  0  0  0  0  0
  160.4580  201.6160  145.7700 C   0  0  0  0  0  3  0  0  0  0  0  0
  162.2000  205.3240  146.9890 C   0  0  0  0  0  1  0  0  0  0  0  0
  1  3  1  0  0  0  0
  2  4  1  0  0  0  0
  2  1  2  0  0  0  0
  3  5  1  0  0  0  0
  3  7  1  0  0  0  0
  4 23  1  6  0  0  0
  4  6  1  0  0  0  0
  6  5  1  0  0  0  0
  7  9  2  0  0  0  0
  7  8  2  0  0  0  0
 10 14  1  0  0  0  0
 10 13  1  0  0  0  0
 10  7  1  1  0  0  0
 11 12  1  0  0  0  0
 12 21  1  1  0  0  0
 13 12  1  0  0  0  0
 14 11  1  0  0  0  0
 15 16  1  0  0  0  0
 16 17  1  0  0  0  0
 17 18  2  0  0  0  0
 19 22  1  0  0  0  0
 19 20  2  0  0  0  0
 20 18  1  0  0  0  0
 21 16  2  0  0  0  0
 21 19  1  0  0  0  0
 22 20  1  0  0  0  0
 24 27  1  0  0  0  0
 25 23  1  0  0  0  0
 27 32  1  0  0  0  0
 27 25  2  0  0  0  0
 28 24  2  0  0  0  0
 28 31  1  0  0  0  0
 29 25  1  0  0  0  0
 29 26  1  0  0  0  0
 30 24  1  0  0  0  0
 31 29  2  0  0  0  0
M  END
>  <MODEL>
8

>  <REMARK>
 VINA RESULT:      -7.1      2.647      3.679
  Name = 
  5 active torsions:
  status: ('A' for Active; 'I' for Inactive)
    1  A    between atoms: C_4  and  C_6
    2  A    between atoms: C_6  and  C_25
    3  A    between atoms: C_9  and  S_12
    4  A    between atoms: N_11  and  S_12
    5  A    between atoms: C_15  and  C_22
                            x       y       z     vdW  Elec       q    Type
                         _______ _______ _______ _____ _____    ______ ____

>  <TORSDO>
F 5

$$$$
=
 OpenBabel11072410273D

 32 36  0  0  1  0  0  0  0  0999 V2000
  160.4530  207.3070  150.1140 C   0  0  0  0  0  3  0  0  0  0  0  0
  160.1780  206.1880  149.5130 N   0  0  0  0  0  0  0  0  0  0  0  0
  161.2190  207.3220  151.3240 N   0  0  0  0  0  0  0  0  0  0  0  0
  160.6540  204.8850  149.9860 C   0  0  2  0  0  3  0  0  0  0  0  0
  161.7830  206.0890  151.8670 C   0  0  0  0  0  2  0  0  0  0  0  0
  160.8970  204.9030  151.5010 C   0  0  0  0  0  2  0  0  0  0  0  0
  161.4590  208.8130  152.1680 S   0  0  0  0  0  0  0  0  0  0  0  0
  162.7160  209.4740  151.6740 O   0  0  0  0  0  0  0  0  0  0  0  0
  160.2970  209.7300  151.9050 O   0  0  0  0  0  0  0  0  0  0  0  0
  161.5810  208.4970  153.9170 C   0  0  1  0  0  3  0  0  0  0  0  0
  160.2020  208.5320  155.7540 N   0  0  0  0  0  2  0  0  0  0  0  0
  161.0060  209.7460  155.8360 C   0  0  1  0  0  3  0  0  0  0  0  0
  161.9340  209.7600  154.6510 C   0  0  0  0  0  2  0  0  0  0  0  0
  160.2980  208.0530  154.4340 N   0  0  0  0  0  2  0  0  0  0  0  0
  161.6160  212.2690  157.2600 O   0  0  0  0  0  1  0  0  0  0  0  0
  160.4370  212.1860  156.5280 C   0  0  0  0  0  0  0  0  0  0  0  0
  159.5600  213.3580  156.4920 C   0  0  0  0  0  3  0  0  0  0  0  0
  158.3150  213.4310  155.7730 C   0  0  0  0  0  3  0  0  0  0  0  0
  158.9470  211.0700  155.1650 C   0  0  0  0  0  0  0  0  0  0  0  0
  158.0890  212.2480  155.1380 C   0  0  0  0  0  0  0  0  0  0  0  0
  160.1280  210.9610  155.8370 C   0  0  0  0  0  0  0  0  0  0  0  0
  157.7470  211.0800  154.4400 C   0  0  0  0  0  2  0  0  0  0  0  0
  161.9100  204.4820  149.2170 C   0  0  0  0  0  2  0  0  0  0  0  0
  161.2610  203.7170  145.5410 C   0  0  0  0  0  0  0  0  0  0  0  0
  161.5640  203.7660  147.9450 C   0  0  0  0  0  0  0  0  0  0  0  0
  161.1180  201.7530  149.1750 F   0  0  0  0  0  0  0  0  0  0  0  0
  161.6130  204.4240  146.7010 C   0  0  0  0  0  0  0  0  0  0  0  0
  160.8820  202.4140  145.6260 N   0  0  0  0  0  0  0  0  0  0  0  0
  161.1700  202.4210  147.9950 C   0  0  0  0  0  0  0  0  0  0  0  0
  161.2970  204.3230  144.3290 F   0  0  0  0  0  0  0  0  0  0  0  0
  160.8310  201.7600  146.8150 C   0  0  0  0  0  3  0  0  0  0  0  0
  162.0350  205.8550  146.5950 C   0  0  0  0  0  1  0  0  0  0  0  0
  1  3  1  0  0  0  0
  2  4  1  0  0  0  0
  2  1  2  0  0  0  0
  3  5  1  0  0  0  0
  3  7  1  0  0  0  0
  4 23  1  6  0  0  0
  4  6  1  0  0  0  0
  6  5  1  0  0  0  0
  8  7  2  0  0  0  0
  9  7  2  0  0  0  0
 10  7  1  6  0  0  0
 10 14  1  0  0  0  0
 10 13  1  0  0  0  0
 11 12  1  0  0  0  0
 12 21  1  6  0  0  0
 13 12  1  0  0  0  0
 14 11  1  0  0  0  0
 16 15  1  0  0  0  0
 17 16  1  0  0  0  0
 18 17  2  0  0  0  0
 19 21  1  0  0  0  0
 20 19  2  0  0  0  0
 20 18  1  0  0  0  0
 21 16  2  0  0  0  0
 22 20  1  0  0  0  0
 22 19  1  0  0  0  0
 24 28  2  0  0  0  0
 24 27  1  0  0  0  0
 25 29  1  0  0  0  0
 25 23  1  0  0  0  0
 27 25  2  0  0  0  0
 28 31  1  0  0  0  0
 29 26  1  0  0  0  0
 30 24  1  0  0  0  0
 31 29  2  0  0  0  0
 32 27  1  0  0  0  0
M  END
>  <MODEL>
9

>  <REMARK>
 VINA RESULT:      -7.1      2.555      3.449
  Name = 
  5 active torsions:
  status: ('A' for Active; 'I' for Inactive)
    1  A    between atoms: C_4  and  C_6
    2  A    between atoms: C_6  and  C_25
    3  A    between atoms: C_9  and  S_12
    4  A    between atoms: N_11  and  S_12
    5  A    between atoms: C_15  and  C_22
                            x       y       z     vdW  Elec       q    Type
                         _______ _______ _______ _____ _____    ______ ____

>  <TORSDO>
F 5

$$$$
