=
 OpenBabel11072410213D

 33 35  0  0  1  0  0  0  0  0999 V2000
  161.2680  204.2910  152.2260 N   0  0  0  0  0  2  0  0  0  0  0  0
  161.8690  206.7530  150.8390 C   0  0  2  0  0  3  0  0  0  0  0  0
  161.3070  206.7990  152.2350 C   0  0  0  0  0  0  0  0  0  0  0  0
  161.1600  204.3110  147.9890 C   0  0  0  0  0  0  0  0  0  0  0  0
  161.0430  203.1020  150.0830 C   0  0  0  0  0  0  0  0  0  0  0  0
  161.2530  205.4640  154.2280 O   0  0  0  0  0  0  0  0  0  0  0  0
  160.8400  201.8090  150.7970 C   0  0  0  0  0  1  0  0  0  0  0  0
  161.0510  205.5480  145.8410 C   0  0  0  0  0  0  0  0  0  0  0  0
  161.2740  204.2940  150.7910 C   0  0  0  0  0  0  0  0  0  0  0  0
  161.4800  205.5020  150.0900 C   0  0  0  0  0  0  0  0  0  0  0  0
  163.2620  206.8680  150.8870 O   0  0  0  0  0  1  0  0  0  0  0  0
  160.9870  203.1170  148.6890 C   0  0  0  0  0  3  0  0  0  0  0  0
  160.9340  206.8370  146.5910 C   0  0  0  0  0  2  0  0  0  0  0  0
  161.0670  205.5470  144.5840 O   0  0  0  0  0  0  0  0  0  0  0  0
  161.4090  205.5120  148.6840 C   0  0  0  0  0  0  0  0  0  0  0  0
  161.7200  206.7640  147.9010 C   0  0  0  0  0  2  0  0  0  0  0  0
  160.8780  207.9720  152.7510 C   0  0  0  0  0  0  0  0  0  0  0  0
  161.2690  205.5100  152.9690 C   0  0  0  0  0  0  0  0  0  0  0  0
  161.0780  204.3130  146.5610 N   0  0  0  0  0  2  0  0  0  0  0  0
  161.2530  208.6510  155.0990 C   0  0  0  0  0  1  0  0  0  0  0  0
  160.2600  208.0680  154.1120 C   0  0  0  0  0  2  0  0  0  0  0  0
  160.9600  209.2400  151.9470 C   0  0  0  0  0  2  0  0  0  0  0  0
  160.3960  211.5730  152.5360 C   0  0  0  0  0  3  0  0  0  0  0  0
  160.0230  210.2910  152.4580 C   0  0  0  0  0  3  0  0  0  0  0  0
  159.4940  212.6390  153.0830 C   0  0  1  0  0  3  0  0  0  0  0  0
  158.3180  212.7310  152.3340 O   0  0  0  0  0  1  0  0  0  0  0  0
  160.0750  212.5490  155.4030 O   0  0  0  0  0  0  0  0  0  0  0  0
  159.1820  212.4000  154.5250 C   0  0  0  0  0  0  0  0  0  0  0  0
  157.8590  212.0050  154.8950 N   0  0  0  0  0  2  0  0  0  0  0  0
  157.4290  211.9090  156.2830 C   0  0  0  0  0  2  0  0  0  0  0  0
  155.9820  211.4490  156.3560 C   0  0  0  0  0  3  0  0  0  0  0  0
  155.5370  211.0440  155.0960 O   0  0  0  0  0  1  0  0  0  0  0  0
  155.1860  212.4960  156.8170 O   0  0  0  0  0  1  0  0  0  0  0  0
  1 18  1  0  0  0  0
  2 11  1  1  0  0  0
  2  3  1  0  0  0  0
  3 17  2  0  0  0  0
  3 18  1  0  0  0  0
  4 15  2  0  0  0  0
  4 12  1  0  0  0  0
  5  9  1  0  0  0  0
  5  7  1  0  0  0  0
  8 19  1  0  0  0  0
  8 13  1  0  0  0  0
  9  1  1  0  0  0  0
 10  9  2  0  0  0  0
 10  2  1  0  0  0  0
 12  5  2  0  0  0  0
 13 16  1  0  0  0  0
 14  8  2  0  0  0  0
 15 10  1  0  0  0  0
 16 15  1  0  0  0  0
 17 21  1  0  0  0  0
 18  6  2  0  0  0  0
 19  4  1  0  0  0  0
 21 20  1  0  0  0  0
 22 24  1  0  0  0  0
 22 17  1  0  0  0  0
 23 25  1  0  0  0  0
 24 23  2  0  0  0  0
 25 26  1  6  0  0  0
 25 28  1  0  0  0  0
 28 29  1  0  0  0  0
 28 27  2  0  0  0  0
 29 30  1  0  0  0  0
 30 31  1  0  0  0  0
 31 33  1  0  0  0  0
 32 31  1  0  0  0  0
M  END
>  <MODEL>
1

>  <REMARK>
 VINA RESULT:      -8.1      0.000      0.000
  Name = 
  7 active torsions:
  status: ('A' for Active; 'I' for Inactive)
    1  A    between atoms: C_10  and  C_31
    2  A    between atoms: C_11  and  C_26
    3  A    between atoms: C_11  and  C_28
    4  A    between atoms: C_13  and  C_23
    5  A    between atoms: C_13  and  C_24
    6  A    between atoms: C_26  and  C_27
    7  A    between atoms: N_29  and  C_31
                            x       y       z     vdW  Elec       q    Type
                         _______ _______ _______ _____ _____    ______ ____

>  <TORSDO>
F 7

$$$$
=
 OpenBabel11072410213D

 33 35  0  0  1  0  0  0  0  0999 V2000
  161.2120  204.3140  152.3840 N   0  0  0  0  0  2  0  0  0  0  0  0
  161.9300  206.7730  151.0480 C   0  0  2  0  0  3  0  0  0  0  0  0
  161.3450  206.8190  152.4350 C   0  0  0  0  0  0  0  0  0  0  0  0
  161.1790  204.4060  148.1460 C   0  0  0  0  0  0  0  0  0  0  0  0
  160.9790  203.1690  150.2190 C   0  0  0  0  0  0  0  0  0  0  0  0
  161.2060  205.4560  154.4040 O   0  0  0  0  0  0  0  0  0  0  0  0
  160.7150  201.8740  150.9080 C   0  0  0  0  0  1  0  0  0  0  0  0
  161.1540  205.6800  146.0180 C   0  0  0  0  0  0  0  0  0  0  0  0
  161.2430  204.3400  150.9500 C   0  0  0  0  0  0  0  0  0  0  0  0
  161.5060  205.5500  150.2720 C   0  0  0  0  0  0  0  0  0  0  0  0
  163.3250  206.8350  151.1210 O   0  0  0  0  0  1  0  0  0  0  0  0
  160.9480  203.2090  148.8240 C   0  0  0  0  0  3  0  0  0  0  0  0
  161.0720  206.9600  146.7870 C   0  0  0  0  0  2  0  0  0  0  0  0
  161.1910  205.6980  144.7610 O   0  0  0  0  0  0  0  0  0  0  0  0
  161.4600  205.5850  148.8650 C   0  0  0  0  0  0  0  0  0  0  0  0
  161.8320  206.8370  148.1090 C   0  0  0  0  0  2  0  0  0  0  0  0
  160.9520  207.9990  152.9630 C   0  0  0  0  0  0  0  0  0  0  0  0
  161.2460  205.5210  153.1470 C   0  0  0  0  0  0  0  0  0  0  0  0
  161.1210  204.4330  146.7180 N   0  0  0  0  0  2  0  0  0  0  0  0
  161.2600  208.7670  155.2930 C   0  0  0  0  0  1  0  0  0  0  0  0
  160.3140  208.0970  154.3150 C   0  0  0  0  0  2  0  0  0  0  0  0
  161.0960  209.2750  152.1810 C   0  0  0  0  0  2  0  0  0  0  0  0
  160.1770  211.4970  152.7540 C   0  0  0  0  0  3  0  0  0  0  0  0
  159.9580  210.2180  152.4310 C   0  0  0  0  0  3  0  0  0  0  0  0
  159.0590  212.4520  153.0500 C   0  0  1  0  0  3  0  0  0  0  0  0
  159.3850  213.2860  154.1220 O   0  0  0  0  0  1  0  0  0  0  0  0
  157.5230  213.6880  151.6930 O   0  0  0  0  0  0  0  0  0  0  0  0
  158.7000  213.2600  151.8450 C   0  0  0  0  0  0  0  0  0  0  0  0
  159.7080  213.5430  150.8720 N   0  0  0  0  0  2  0  0  0  0  0  0
  159.4850  214.4530  149.7560 C   0  0  0  0  0  2  0  0  0  0  0  0
  159.9690  213.8240  148.4590 C   0  0  0  0  0  3  0  0  0  0  0  0
  158.8960  213.2700  147.7590 O   0  0  0  0  0  1  0  0  0  0  0  0
  160.9020  212.8290  148.7450 O   0  0  0  0  0  1  0  0  0  0  0  0
  1 18  1  0  0  0  0
  2 11  1  1  0  0  0
  2  3  1  0  0  0  0
  3 17  2  0  0  0  0
  3 18  1  0  0  0  0
  4 12  2  0  0  0  0
  4 15  1  0  0  0  0
  5  7  1  0  0  0  0
  5  9  2  0  0  0  0
  8 19  1  0  0  0  0
  8 13  1  0  0  0  0
  9  1  1  0  0  0  0
 10  9  1  0  0  0  0
 10  2  1  0  0  0  0
 12  5  1  0  0  0  0
 13 16  1  0  0  0  0
 14  8  2  0  0  0  0
 15 10  2  0  0  0  0
 16 15  1  0  0  0  0
 17 21  1  0  0  0  0
 18  6  2  0  0  0  0
 19  4  1  0  0  0  0
 21 20  1  0  0  0  0
 22 24  1  0  0  0  0
 22 17  1  0  0  0  0
 23 25  1  0  0  0  0
 24 23  2  0  0  0  0
 25 26  1  1  0  0  0
 27 28  2  0  0  0  0
 28 25  1  0  0  0  0
 29 28  1  0  0  0  0
 30 29  1  0  0  0  0
 31 33  1  0  0  0  0
 31 30  1  0  0  0  0
 32 31  1  0  0  0  0
M  END
>  <MODEL>
2

>  <REMARK>
 VINA RESULT:      -7.9      1.836      3.316
  Name = 
  7 active torsions:
  status: ('A' for Active; 'I' for Inactive)
    1  A    between atoms: C_10  and  C_31
    2  A    between atoms: C_11  and  C_26
    3  A    between atoms: C_11  and  C_28
    4  A    between atoms: C_13  and  C_23
    5  A    between atoms: C_13  and  C_24
    6  A    between atoms: C_26  and  C_27
    7  A    between atoms: N_29  and  C_31
                            x       y       z     vdW  Elec       q    Type
                         _______ _______ _______ _____ _____    ______ ____

>  <TORSDO>
F 7

$$$$
=
 OpenBabel11072410213D

 33 35  0  0  1  0  0  0  0  0999 V2000
  161.5710  207.1660  147.3070 N   0  0  0  0  0  2  0  0  0  0  0  0
  160.8760  205.6550  149.6700 C   0  0  2  0  0  3  0  0  0  0  0  0
  161.5330  207.0030  149.8090 C   0  0  0  0  0  0  0  0  0  0  0  0
  161.3890  202.9400  147.0330 C   0  0  0  0  0  0  0  0  0  0  0  0
  161.6500  205.1010  145.9710 C   0  0  0  0  0  0  0  0  0  0  0  0
  161.7220  209.0760  148.6160 O   0  0  0  0  0  0  0  0  0  0  0  0
  161.9010  205.8870  144.7300 C   0  0  0  0  0  1  0  0  0  0  0  0
  161.3520  200.7090  148.1170 C   0  0  0  0  0  0  0  0  0  0  0  0
  161.4670  205.7380  147.2100 C   0  0  0  0  0  0  0  0  0  0  0  0
  161.2140  204.9700  148.3680 C   0  0  0  0  0  0  0  0  0  0  0  0
  159.4900  205.7890  149.7950 O   0  0  0  0  0  1  0  0  0  0  0  0
  161.6100  203.7080  145.8900 C   0  0  0  0  0  3  0  0  0  0  0  0
  161.5200  201.3580  149.4550 C   0  0  0  0  0  2  0  0  0  0  0  0
  161.2510  199.4590  148.0290 O   0  0  0  0  0  0  0  0  0  0  0  0
  161.1890  203.5650  148.2800 C   0  0  0  0  0  0  0  0  0  0  0  0
  160.8250  202.7200  149.4770 C   0  0  0  0  0  2  0  0  0  0  0  0
  161.9960  207.4070  151.0130 C   0  0  0  0  0  0  0  0  0  0  0  0
  161.6200  207.8210  148.5740 C   0  0  0  0  0  0  0  0  0  0  0  0
  161.3740  201.5130  146.9350 N   0  0  0  0  0  2  0  0  0  0  0  0
  161.7440  209.7600  151.7290 C   0  0  0  0  0  1  0  0  0  0  0  0
  162.7050  208.7120  151.2010 C   0  0  0  0  0  2  0  0  0  0  0  0
  161.8590  206.5230  152.2230 C   0  0  0  0  0  2  0  0  0  0  0  0
  161.1290  207.1280  154.5060 C   0  0  0  0  0  3  0  0  0  0  0  0
  160.8550  207.0600  153.1990 C   0  0  0  0  0  3  0  0  0  0  0  0
  160.1300  207.6200  155.5100 C   0  0  1  0  0  3  0  0  0  0  0  0
  160.1940  206.8720  156.6870 O   0  0  0  0  0  1  0  0  0  0  0  0
  160.8450  209.4440  156.8850 O   0  0  0  0  0  0  0  0  0  0  0  0
  160.3200  209.0740  155.7990 C   0  0  0  0  0  0  0  0  0  0  0  0
  159.9050  210.0380  154.8290 N   0  0  0  0  0  2  0  0  0  0  0  0
  160.1990  211.4580  154.9600 C   0  0  0  0  0  2  0  0  0  0  0  0
  159.7080  212.2130  153.7350 C   0  0  0  0  0  3  0  0  0  0  0  0
  159.0260  213.3690  154.1190 O   0  0  0  0  0  1  0  0  0  0  0  0
  158.8560  211.3950  152.9960 O   0  0  0  0  0  1  0  0  0  0  0  0
  1 18  1  0  0  0  0
  2 11  1  6  0  0  0
  2  3  1  0  0  0  0
  3 17  2  0  0  0  0
  4 15  1  0  0  0  0
  5  9  2  0  0  0  0
  7  5  1  0  0  0  0
  8 13  1  0  0  0  0
  9  1  1  0  0  0  0
  9 10  1  0  0  0  0
 10  2  1  0  0  0  0
 12  5  1  0  0  0  0
 12  4  2  0  0  0  0
 13 16  1  0  0  0  0
 14  8  2  0  0  0  0
 15 10  2  0  0  0  0
 15 16  1  0  0  0  0
 17 21  1  0  0  0  0
 17 22  1  0  0  0  0
 18  6  2  0  0  0  0
 18  3  1  0  0  0  0
 19  4  1  0  0  0  0
 19  8  1  0  0  0  0
 21 20  1  0  0  0  0
 22 24  1  0  0  0  0
 23 25  1  0  0  0  0
 24 23  2  0  0  0  0
 25 28  1  0  0  0  0
 25 26  1  1  0  0  0
 28 27  2  0  0  0  0
 29 30  1  0  0  0  0
 29 28  1  0  0  0  0
 31 32  1  0  0  0  0
 31 30  1  0  0  0  0
 33 31  1  0  0  0  0
M  END
>  <MODEL>
3

>  <REMARK>
 VINA RESULT:      -7.6      2.468      4.471
  Name = 
  7 active torsions:
  status: ('A' for Active; 'I' for Inactive)
    1  A    between atoms: C_10  and  C_31
    2  A    between atoms: C_11  and  C_26
    3  A    between atoms: C_11  and  C_28
    4  A    between atoms: C_13  and  C_23
    5  A    between atoms: C_13  and  C_24
    6  A    between atoms: C_26  and  C_27
    7  A    between atoms: N_29  and  C_31
                            x       y       z     vdW  Elec       q    Type
                         _______ _______ _______ _____ _____    ______ ____

>  <TORSDO>
F 7

$$$$
=
 OpenBabel11072410213D

 33 35  0  0  1  0  0  0  0  0999 V2000
  161.3010  211.7340  150.1290 N   0  0  0  0  0  2  0  0  0  0  0  0
  161.3580  209.9870  152.4300 C   0  0  2  0  0  3  0  0  0  0  0  0
  161.6740  209.4370  151.0640 C   0  0  0  0  0  0  0  0  0  0  0  0
  158.8710  212.6940  153.4660 C   0  0  0  0  0  0  0  0  0  0  0  0
  159.7710  213.2690  151.2930 C   0  0  0  0  0  0  0  0  0  0  0  0
  162.5540  210.1710  148.9570 O   0  0  0  0  0  0  0  0  0  0  0  0
  159.8260  214.2250  150.1510 C   0  0  0  0  0  1  0  0  0  0  0  0
  157.7580  212.0350  155.5830 C   0  0  0  0  0  0  0  0  0  0  0  0
  160.5130  212.0760  151.2780 C   0  0  0  0  0  0  0  0  0  0  0  0
  160.4560  211.1960  152.3810 C   0  0  0  0  0  0  0  0  0  0  0  0
  162.5450  210.3020  153.0990 O   0  0  0  0  0  1  0  0  0  0  0  0
  158.9560  213.5710  152.3850 C   0  0  0  0  0  3  0  0  0  0  0  0
  158.2500  210.6340  155.4040 C   0  0  0  0  0  2  0  0  0  0  0  0
  157.0750  212.3420  156.5940 O   0  0  0  0  0  0  0  0  0  0  0  0
  159.6210  211.5010  153.4730 C   0  0  0  0  0  0  0  0  0  0  0  0
  159.6110  210.6320  154.7070 C   0  0  0  0  0  2  0  0  0  0  0  0
  161.7650  208.1010  150.8800 C   0  0  0  0  0  0  0  0  0  0  0  0
  161.8770  210.4350  149.9860 C   0  0  0  0  0  0  0  0  0  0  0  0
  158.0130  213.0080  154.5670 N   0  0  0  0  0  2  0  0  0  0  0  0
  160.7120  207.1280  148.8650 C   0  0  0  0  0  1  0  0  0  0  0  0
  162.0230  207.4950  149.5350 C   0  0  0  0  0  2  0  0  0  0  0  0
  161.5570  207.1520  152.0290 C   0  0  0  0  0  2  0  0  0  0  0  0
  161.0220  204.8080  151.4570 C   0  0  0  0  0  3  0  0  0  0  0  0
  161.9470  205.7490  151.6750 C   0  0  0  0  0  3  0  0  0  0  0  0
  161.3840  203.3860  151.1430 C   0  0  1  0  0  3  0  0  0  0  0  0
  160.8100  202.5100  152.0670 O   0  0  0  0  0  1  0  0  0  0  0  0
  160.0810  202.1600  149.5530 O   0  0  0  0  0  0  0  0  0  0  0  0
  160.9840  203.0180  149.7510 C   0  0  0  0  0  0  0  0  0  0  0  0
  161.6350  203.6540  148.6480 N   0  0  0  0  0  2  0  0  0  0  0  0
  161.1990  203.4730  147.2710 C   0  0  0  0  0  2  0  0  0  0  0  0
  161.7050  204.6150  146.4040 C   0  0  0  0  0  3  0  0  0  0  0  0
  161.3520  204.4030  145.0700 O   0  0  0  0  0  1  0  0  0  0  0  0
  163.0910  204.7000  146.5110 O   0  0  0  0  0  1  0  0  0  0  0  0
  1  9  1  0  0  0  0
  2 11  1  6  0  0  0
  3  2  1  0  0  0  0
  4 15  1  0  0  0  0
  4 19  1  0  0  0  0
  5 12  1  0  0  0  0
  6 18  2  0  0  0  0
  7  5  1  0  0  0  0
  8 14  2  0  0  0  0
  9  5  2  0  0  0  0
  9 10  1  0  0  0  0
 10  2  1  0  0  0  0
 10 15  2  0  0  0  0
 12  4  2  0  0  0  0
 13  8  1  0  0  0  0
 15 16  1  0  0  0  0
 16 13  1  0  0  0  0
 17  3  2  0  0  0  0
 17 22  1  0  0  0  0
 18  1  1  0  0  0  0
 18  3  1  0  0  0  0
 19  8  1  0  0  0  0
 20 21  1  0  0  0  0
 21 17  1  0  0  0  0
 23 24  2  0  0  0  0
 24 22  1  0  0  0  0
 25 23  1  0  0  0  0
 25 26  1  1  0  0  0
 27 28  2  0  0  0  0
 28 25  1  0  0  0  0
 29 28  1  0  0  0  0
 30 29  1  0  0  0  0
 31 33  1  0  0  0  0
 31 30  1  0  0  0  0
 32 31  1  0  0  0  0
M  END
>  <MODEL>
4

>  <REMARK>
 VINA RESULT:      -7.0      2.353      9.522
  Name = 
  7 active torsions:
  status: ('A' for Active; 'I' for Inactive)
    1  A    between atoms: C_10  and  C_31
    2  A    between atoms: C_11  and  C_26
    3  A    between atoms: C_11  and  C_28
    4  A    between atoms: C_13  and  C_23
    5  A    between atoms: C_13  and  C_24
    6  A    between atoms: C_26  and  C_27
    7  A    between atoms: N_29  and  C_31
                            x       y       z     vdW  Elec       q    Type
                         _______ _______ _______ _____ _____    ______ ____

>  <TORSDO>
F 7

$$$$
=
 OpenBabel11072410213D

 33 35  0  0  1  0  0  0  0  0999 V2000
  161.4560  204.3370  152.4330 N   0  0  0  0  0  2  0  0  0  0  0  0
  161.9910  206.8240  151.0620 C   0  0  2  0  0  3  0  0  0  0  0  0
  161.4810  206.8450  152.4790 C   0  0  0  0  0  0  0  0  0  0  0  0
  161.1880  204.4210  148.2040 C   0  0  0  0  0  0  0  0  0  0  0  0
  161.1560  203.1790  150.2830 C   0  0  0  0  0  0  0  0  0  0  0  0
  161.5110  205.4810  154.4520 O   0  0  0  0  0  0  0  0  0  0  0  0
  160.9880  201.8750  150.9840 C   0  0  0  0  0  1  0  0  0  0  0  0
  160.9900  205.6880  146.0810 C   0  0  0  0  0  0  0  0  0  0  0  0
  161.4080  204.3620  150.9990 C   0  0  0  0  0  0  0  0  0  0  0  0
  161.5800  205.5810  150.3090 C   0  0  0  0  0  0  0  0  0  0  0  0
  163.3830  206.9470  151.0590 O   0  0  0  0  0  1  0  0  0  0  0  0
  161.0480  203.2150  148.8920 C   0  0  0  0  0  3  0  0  0  0  0  0
  160.8940  206.9650  146.8540 C   0  0  0  0  0  2  0  0  0  0  0  0
  160.9580  205.7060  144.8240 O   0  0  0  0  0  0  0  0  0  0  0  0
  161.4560  205.6120  148.9070 C   0  0  0  0  0  0  0  0  0  0  0  0
  161.7290  206.8780  148.1330 C   0  0  0  0  0  2  0  0  0  0  0  0
  161.0660  208.0070  153.0290 C   0  0  0  0  0  0  0  0  0  0  0  0
  161.4790  205.5450  153.1950 C   0  0  0  0  0  0  0  0  0  0  0  0
  161.0510  204.4430  146.7810 N   0  0  0  0  0  2  0  0  0  0  0  0
  161.3450  208.9950  155.2790 C   0  0  0  0  0  1  0  0  0  0  0  0
  160.4990  208.0800  154.4130 C   0  0  0  0  0  2  0  0  0  0  0  0
  161.1100  209.2880  152.2410 C   0  0  0  0  0  2  0  0  0  0  0  0
  160.2550  211.5170  152.8810 C   0  0  0  0  0  3  0  0  0  0  0  0
  160.0090  210.2260  152.6320 C   0  0  0  0  0  3  0  0  0  0  0  0
  159.1800  212.4690  153.3140 C   0  0  1  0  0  3  0  0  0  0  0  0
  159.6930  213.4470  154.1690 O   0  0  0  0  0  1  0  0  0  0  0  0
  158.9350  212.8930  150.9710 O   0  0  0  0  0  0  0  0  0  0  0  0
  158.5050  213.0990  152.1390 C   0  0  0  0  0  0  0  0  0  0  0  0
  157.3640  213.9330  152.3560 N   0  0  0  0  0  2  0  0  0  0  0  0
  156.5550  214.4530  151.2630 C   0  0  0  0  0  2  0  0  0  0  0  0
  155.0840  214.4470  151.6470 C   0  0  0  0  0  3  0  0  0  0  0  0
  154.8740  213.6150  152.7480 O   0  0  0  0  0  1  0  0  0  0  0  0
  154.3250  213.9920  150.5690 O   0  0  0  0  0  1  0  0  0  0  0  0
  1 18  1  0  0  0  0
  2 11  1  1  0  0  0
  2  3  1  0  0  0  0
  3 17  2  0  0  0  0
  3 18  1  0  0  0  0
  4 12  2  0  0  0  0
  4 15  1  0  0  0  0
  5  7  1  0  0  0  0
  5  9  2  0  0  0  0
  8 19  1  0  0  0  0
  8 13  1  0  0  0  0
  9  1  1  0  0  0  0
 10  9  1  0  0  0  0
 10  2  1  0  0  0  0
 12  5  1  0  0  0  0
 13 16  1  0  0  0  0
 14  8  2  0  0  0  0
 15 10  2  0  0  0  0
 16 15  1  0  0  0  0
 17 21  1  0  0  0  0
 18  6  2  0  0  0  0
 19  4  1  0  0  0  0
 21 20  1  0  0  0  0
 22 24  1  0  0  0  0
 22 17  1  0  0  0  0
 23 25  1  0  0  0  0
 24 23  2  0  0  0  0
 25 26  1  1  0  0  0
 27 28  2  0  0  0  0
 28 29  1  0  0  0  0
 28 25  1  0  0  0  0
 30 31  1  0  0  0  0
 30 29  1  0  0  0  0
 31 32  1  0  0  0  0
 33 31  1  0  0  0  0
M  END
>  <MODEL>
5

>  <REMARK>
 VINA RESULT:      -7.0      1.676      2.237
  Name = 
  7 active torsions:
  status: ('A' for Active; 'I' for Inactive)
    1  A    between atoms: C_10  and  C_31
    2  A    between atoms: C_11  and  C_26
    3  A    between atoms: C_11  and  C_28
    4  A    between atoms: C_13  and  C_23
    5  A    between atoms: C_13  and  C_24
    6  A    between atoms: C_26  and  C_27
    7  A    between atoms: N_29  and  C_31
                            x       y       z     vdW  Elec       q    Type
                         _______ _______ _______ _____ _____    ______ ____

>  <TORSDO>
F 7

$$$$
=
 OpenBabel11072410213D

 33 35  0  0  1  0  0  0  0  0999 V2000
  160.4540  208.1390  154.9960 N   0  0  0  0  0  2  0  0  0  0  0  0
  161.1810  210.2820  153.1990 C   0  0  2  0  0  3  0  0  0  0  0  0
  160.1790  210.5320  154.2960 C   0  0  0  0  0  0  0  0  0  0  0  0
  161.7780  207.1530  151.0920 C   0  0  0  0  0  0  0  0  0  0  0  0
  161.1110  206.4650  153.3170 C   0  0  0  0  0  0  0  0  0  0  0  0
  159.6210  209.7160  156.4810 O   0  0  0  0  0  0  0  0  0  0  0  0
  160.8390  205.3610  154.2790 C   0  0  0  0  0  1  0  0  0  0  0  0
  162.2490  207.8070  148.7470 C   0  0  0  0  0  0  0  0  0  0  0  0
  160.9430  207.8100  153.6880 C   0  0  0  0  0  0  0  0  0  0  0  0
  161.2230  208.8380  152.7610 C   0  0  0  0  0  0  0  0  0  0  0  0
  162.4510  210.6930  153.6160 O   0  0  0  0  0  1  0  0  0  0  0  0
  161.5260  206.1450  152.0240 C   0  0  0  0  0  3  0  0  0  0  0  0
  161.7290  209.1810  149.0270 C   0  0  0  0  0  2  0  0  0  0  0  0
  162.6870  207.5170  147.6040 O   0  0  0  0  0  0  0  0  0  0  0  0
  161.6290  208.5070  151.4550 C   0  0  0  0  0  0  0  0  0  0  0  0
  162.0300  209.5800  150.4720 C   0  0  0  0  0  2  0  0  0  0  0  0
  159.4620  211.6770  154.3060 C   0  0  0  0  0  0  0  0  0  0  0  0
  160.0550  209.4700  155.3250 C   0  0  0  0  0  0  0  0  0  0  0  0
  162.1830  206.8060  149.7650 N   0  0  0  0  0  2  0  0  0  0  0  0
  157.0630  211.4540  154.8650 C   0  0  0  0  0  1  0  0  0  0  0  0
  158.4140  211.9560  155.3390 C   0  0  0  0  0  2  0  0  0  0  0  0
  159.6550  212.7120  153.2320 C   0  0  0  0  0  2  0  0  0  0  0  0
  158.5220  213.4850  151.1750 C   0  0  0  0  0  3  0  0  0  0  0  0
  158.6880  212.5340  152.1000 C   0  0  0  0  0  3  0  0  0  0  0  0
  157.5320  213.3520  150.0560 C   0  0  1  0  0  3  0  0  0  0  0  0
  156.4870  214.2670  150.2030 O   0  0  0  0  0  1  0  0  0  0  0  0
  157.4950  213.7060  147.6890 O   0  0  0  0  0  0  0  0  0  0  0  0
  158.1900  213.5140  148.7250 C   0  0  0  0  0  0  0  0  0  0  0  0
  159.6160  213.4540  148.6400 N   0  0  0  0  0  2  0  0  0  0  0  0
  160.3420  213.7600  147.4160 C   0  0  0  0  0  2  0  0  0  0  0  0
  161.3570  212.6680  147.1180 C   0  0  0  0  0  3  0  0  0  0  0  0
  162.2800  212.5670  148.1610 O   0  0  0  0  0  1  0  0  0  0  0  0
  162.0260  212.9680  145.9330 O   0  0  0  0  0  1  0  0  0  0  0  0
  1 18  1  0  0  0  0
  2 11  1  1  0  0  0
  2  3  1  0  0  0  0
  3 17  2  0  0  0  0
  3 18  1  0  0  0  0
  4 15  2  0  0  0  0
  4 12  1  0  0  0  0
  5  9  1  0  0  0  0
  5  7  1  0  0  0  0
  8 13  1  0  0  0  0
  8 19  1  0  0  0  0
  9  1  1  0  0  0  0
 10  2  1  0  0  0  0
 10  9  2  0  0  0  0
 12  5  2  0  0  0  0
 13 16  1  0  0  0  0
 14  8  2  0  0  0  0
 15 10  1  0  0  0  0
 16 15  1  0  0  0  0
 17 21  1  0  0  0  0
 18  6  2  0  0  0  0
 19  4  1  0  0  0  0
 20 21  1  0  0  0  0
 22 17  1  0  0  0  0
 23 24  2  0  0  0  0
 24 22  1  0  0  0  0
 25 26  1  1  0  0  0
 25 23  1  0  0  0  0
 27 28  2  0  0  0  0
 28 25  1  0  0  0  0
 29 28  1  0  0  0  0
 30 29  1  0  0  0  0
 31 30  1  0  0  0  0
 31 32  1  0  0  0  0
 33 31  1  0  0  0  0
M  END
>  <MODEL>
6

>  <REMARK>
 VINA RESULT:      -6.4      3.346      5.728
  Name = 
  7 active torsions:
  status: ('A' for Active; 'I' for Inactive)
    1  A    between atoms: C_10  and  C_31
    2  A    between atoms: C_11  and  C_26
    3  A    between atoms: C_11  and  C_28
    4  A    between atoms: C_13  and  C_23
    5  A    between atoms: C_13  and  C_24
    6  A    between atoms: C_26  and  C_27
    7  A    between atoms: N_29  and  C_31
                            x       y       z     vdW  Elec       q    Type
                         _______ _______ _______ _____ _____    ______ ____

>  <TORSDO>
F 7

$$$$
=
 OpenBabel11072410213D

 33 35  0  0  1  0  0  0  0  0999 V2000
  161.6010  209.7870  149.7470 N   0  0  0  0  0  2  0  0  0  0  0  0
  161.9220  207.4340  151.3920 C   0  0  2  0  0  3  0  0  0  0  0  0
  161.6700  207.2860  149.9150 C   0  0  0  0  0  0  0  0  0  0  0  0
  160.5960  210.0310  153.8580 C   0  0  0  0  0  0  0  0  0  0  0  0
  160.9120  211.1030  151.7090 C   0  0  0  0  0  0  0  0  0  0  0  0
  162.0260  208.4900  147.8710 O   0  0  0  0  0  0  0  0  0  0  0  0
  160.8500  212.3420  150.8840 C   0  0  0  0  0  1  0  0  0  0  0  0
  160.0470  208.9300  156.0110 C   0  0  0  0  0  0  0  0  0  0  0  0
  161.3030  209.8750  151.1480 C   0  0  0  0  0  0  0  0  0  0  0  0
  161.3680  208.7190  151.9560 C   0  0  0  0  0  0  0  0  0  0  0  0
  163.2940  207.3510  151.6470 O   0  0  0  0  0  1  0  0  0  0  0  0
  160.5610  211.1740  153.0580 C   0  0  0  0  0  3  0  0  0  0  0  0
  160.1060  207.5940  155.3420 C   0  0  0  0  0  2  0  0  0  0  0  0
  159.7940  209.0110  157.2410 O   0  0  0  0  0  0  0  0  0  0  0  0
  161.0000  208.7960  153.3130 C   0  0  0  0  0  0  0  0  0  0  0  0
  161.1520  207.6040  154.2250 C   0  0  0  0  0  2  0  0  0  0  0  0
  161.3740  206.0720  149.3990 C   0  0  0  0  0  0  0  0  0  0  0  0
  161.7750  208.5240  149.1040 C   0  0  0  0  0  0  0  0  0  0  0  0
  160.2120  210.1170  155.2320 N   0  0  0  0  0  2  0  0  0  0  0  0
  162.3260  205.5450  147.1780 C   0  0  0  0  0  1  0  0  0  0  0  0
  161.0610  205.8740  147.9480 C   0  0  0  0  0  2  0  0  0  0  0  0
  161.2990  204.8600  150.2860 C   0  0  0  0  0  2  0  0  0  0  0  0
  161.0410  202.4350  149.8790 C   0  0  0  0  0  3  0  0  0  0  0  0
  160.6800  203.6880  149.5850 C   0  0  0  0  0  3  0  0  0  0  0  0
  160.4700  201.2470  149.1640 C   0  0  1  0  0  3  0  0  0  0  0  0
  159.0790  201.2110  149.2880 O   0  0  0  0  0  1  0  0  0  0  0  0
  161.3380  200.1860  147.2010 O   0  0  0  0  0  0  0  0  0  0  0  0
  160.8690  201.2350  147.7240 C   0  0  0  0  0  0  0  0  0  0  0  0
  160.7110  202.4240  146.9460 N   0  0  0  0  0  2  0  0  0  0  0  0
  160.9230  202.4530  145.5060 C   0  0  0  0  0  2  0  0  0  0  0  0
  160.2620  203.6800  144.9000 C   0  0  0  0  0  3  0  0  0  0  0  0
  159.1870  203.3030  144.0940 O   0  0  0  0  0  1  0  0  0  0  0  0
  161.1940  204.3790  144.1360 O   0  0  0  0  0  1  0  0  0  0  0  0
  1  9  1  0  0  0  0
  2 11  1  6  0  0  0
  2 10  1  0  0  0  0
  3  2  1  0  0  0  0
  4 19  1  0  0  0  0
  5 12  1  0  0  0  0
  6 18  2  0  0  0  0
  7  5  1  0  0  0  0
  8 14  2  0  0  0  0
  9  5  2  0  0  0  0
  9 10  1  0  0  0  0
 10 15  2  0  0  0  0
 12  4  2  0  0  0  0
 13  8  1  0  0  0  0
 15  4  1  0  0  0  0
 15 16  1  0  0  0  0
 16 13  1  0  0  0  0
 17  3  2  0  0  0  0
 17 22  1  0  0  0  0
 18  1  1  0  0  0  0
 18  3  1  0  0  0  0
 19  8  1  0  0  0  0
 20 21  1  0  0  0  0
 21 17  1  0  0  0  0
 24 23  2  0  0  0  0
 24 22  1  0  0  0  0
 25 26  1  6  0  0  0
 25 23  1  0  0  0  0
 27 28  2  0  0  0  0
 28 25  1  0  0  0  0
 29 28  1  0  0  0  0
 30 29  1  0  0  0  0
 31 30  1  0  0  0  0
 32 31  1  0  0  0  0
 33 31  1  0  0  0  0
M  END
>  <MODEL>
7

>  <REMARK>
 VINA RESULT:      -6.3      2.779      9.649
  Name = 
  7 active torsions:
  status: ('A' for Active; 'I' for Inactive)
    1  A    between atoms: C_10  and  C_31
    2  A    between atoms: C_11  and  C_26
    3  A    between atoms: C_11  and  C_28
    4  A    between atoms: C_13  and  C_23
    5  A    between atoms: C_13  and  C_24
    6  A    between atoms: C_26  and  C_27
    7  A    between atoms: N_29  and  C_31
                            x       y       z     vdW  Elec       q    Type
                         _______ _______ _______ _____ _____    ______ ____

>  <TORSDO>
F 7

$$$$
=
 OpenBabel11072410213D

 33 35  0  0  1  0  0  0  0  0999 V2000
  161.9260  207.3080  147.4980 N   0  0  0  0  0  2  0  0  0  0  0  0
  160.7170  206.1970  149.8750 C   0  0  2  0  0  3  0  0  0  0  0  0
  161.4210  207.5260  149.9450 C   0  0  0  0  0  0  0  0  0  0  0  0
  161.5300  203.0980  147.7950 C   0  0  0  0  0  0  0  0  0  0  0  0
  162.1170  205.0640  146.5070 C   0  0  0  0  0  0  0  0  0  0  0  0
  161.9560  209.3870  148.5290 O   0  0  0  0  0  0  0  0  0  0  0  0
  162.6390  205.6450  145.2380 C   0  0  0  0  0  1  0  0  0  0  0  0
  161.1540  201.0600  149.1560 C   0  0  0  0  0  0  0  0  0  0  0  0
  161.7510  205.8870  147.5860 C   0  0  0  0  0  0  0  0  0  0  0  0
  161.2430  205.3110  148.7710 C   0  0  0  0  0  0  0  0  0  0  0  0
  159.3430  206.3980  149.7140 O   0  0  0  0  0  1  0  0  0  0  0  0
  162.0050  203.6770  146.6170 C   0  0  0  0  0  3  0  0  0  0  0  0
  161.1160  201.8960  150.3960 C   0  0  0  0  0  2  0  0  0  0  0  0
  160.9920  199.8140  149.2280 O   0  0  0  0  0  0  0  0  0  0  0  0
  161.1450  203.9110  148.8800 C   0  0  0  0  0  0  0  0  0  0  0  0
  160.5170  203.2700  150.0930 C   0  0  0  0  0  2  0  0  0  0  0  0
  161.6810  208.0900  151.1450 C   0  0  0  0  0  0  0  0  0  0  0  0
  161.7840  208.1450  148.6460 C   0  0  0  0  0  0  0  0  0  0  0  0
  161.4430  201.6750  147.8990 N   0  0  0  0  0  2  0  0  0  0  0  0
  161.4540  210.5470  151.3030 C   0  0  0  0  0  1  0  0  0  0  0  0
  162.4260  209.3820  151.2780 C   0  0  0  0  0  2  0  0  0  0  0  0
  161.2700  207.4040  152.4190 C   0  0  0  0  0  2  0  0  0  0  0  0
  160.7230  209.0040  154.2220 C   0  0  0  0  0  3  0  0  0  0  0  0
  161.6230  208.2120  153.6310 C   0  0  0  0  0  3  0  0  0  0  0  0
  161.0610  209.8550  155.4100 C   0  0  1  0  0  3  0  0  0  0  0  0
  161.6260  211.0680  155.0100 O   0  0  0  0  0  1  0  0  0  0  0  0
  159.6290  209.3470  157.2600 O   0  0  0  0  0  0  0  0  0  0  0  0
  159.8610  210.0920  156.2690 C   0  0  0  0  0  0  0  0  0  0  0  0
  158.9830  211.1760  155.9550 N   0  0  0  0  0  2  0  0  0  0  0  0
  157.8870  211.5740  156.8270 C   0  0  0  0  0  2  0  0  0  0  0  0
  156.6900  212.0170  156.0010 C   0  0  0  0  0  3  0  0  0  0  0  0
  155.5290  211.9870  156.7760 O   0  0  0  0  0  1  0  0  0  0  0  0
  156.5410  211.1660  154.9070 O   0  0  0  0  0  1  0  0  0  0  0  0
  1  9  1  0  0  0  0
  1 18  1  0  0  0  0
  2 11  1  6  0  0  0
  2  3  1  0  0  0  0
  3 17  2  0  0  0  0
  4 19  1  0  0  0  0
  4 15  1  0  0  0  0
  5 12  1  0  0  0  0
  5  9  2  0  0  0  0
  6 18  2  0  0  0  0
  7  5  1  0  0  0  0
  8 14  2  0  0  0  0
  8 13  1  0  0  0  0
  9 10  1  0  0  0  0
 10 15  2  0  0  0  0
 10  2  1  0  0  0  0
 12  4  2  0  0  0  0
 15 16  1  0  0  0  0
 16 13  1  0  0  0  0
 17 21  1  0  0  0  0
 17 22  1  0  0  0  0
 18  3  1  0  0  0  0
 19  8  1  0  0  0  0
 21 20  1  0  0  0  0
 22 24  1  0  0  0  0
 23 25  1  0  0  0  0
 24 23  2  0  0  0  0
 25 26  1  6  0  0  0
 25 28  1  0  0  0  0
 28 27  2  0  0  0  0
 29 28  1  0  0  0  0
 29 30  1  0  0  0  0
 31 32  1  0  0  0  0
 31 30  1  0  0  0  0
 33 31  1  0  0  0  0
M  END
>  <MODEL>
8

>  <REMARK>
 VINA RESULT:      -6.3      2.297      3.919
  Name = 
  7 active torsions:
  status: ('A' for Active; 'I' for Inactive)
    1  A    between atoms: C_10  and  C_31
    2  A    between atoms: C_11  and  C_26
    3  A    between atoms: C_11  and  C_28
    4  A    between atoms: C_13  and  C_23
    5  A    between atoms: C_13  and  C_24
    6  A    between atoms: C_26  and  C_27
    7  A    between atoms: N_29  and  C_31
                            x       y       z     vdW  Elec       q    Type
                         _______ _______ _______ _____ _____    ______ ____

>  <TORSDO>
F 7

$$$$
=
 OpenBabel11072410213D

 33 35  0  0  1  0  0  0  0  0999 V2000
  161.4750  205.0870  152.7820 N   0  0  0  0  0  2  0  0  0  0  0  0
  161.6410  207.4460  151.1220 C   0  0  2  0  0  3  0  0  0  0  0  0
  161.1600  207.5640  152.5440 C   0  0  0  0  0  0  0  0  0  0  0  0
  161.1180  204.6420  148.5820 C   0  0  0  0  0  0  0  0  0  0  0  0
  161.2940  203.6570  150.7880 C   0  0  0  0  0  0  0  0  0  0  0  0
  161.4110  206.4550  154.6560 O   0  0  0  0  0  0  0  0  0  0  0  0
  161.3180  202.4330  151.6370 C   0  0  0  0  0  1  0  0  0  0  0  0
  160.7100  205.6170  146.3380 C   0  0  0  0  0  0  0  0  0  0  0  0
  161.3970  204.9380  151.3570 C   0  0  0  0  0  0  0  0  0  0  0  0
  161.3880  206.0810  150.5280 C   0  0  0  0  0  0  0  0  0  0  0  0
  163.0030  207.7520  151.0570 O   0  0  0  0  0  1  0  0  0  0  0  0
  161.1560  203.5170  149.4060 C   0  0  0  0  0  3  0  0  0  0  0  0
  160.4560  206.9510  146.9650 C   0  0  0  0  0  2  0  0  0  0  0  0
  160.6520  205.4840  145.0890 O   0  0  0  0  0  0  0  0  0  0  0  0
  161.2350  205.9320  149.1370 C   0  0  0  0  0  0  0  0  0  0  0  0
  161.3200  207.1240  148.2160 C   0  0  0  0  0  2  0  0  0  0  0  0
  160.6010  208.7170  152.9730 C   0  0  0  0  0  0  0  0  0  0  0  0
  161.3470  206.3680  153.4010 C   0  0  0  0  0  0  0  0  0  0  0  0
  160.9530  204.4800  147.1710 N   0  0  0  0  0  2  0  0  0  0  0  0
  160.7400  210.0300  155.0640 C   0  0  0  0  0  1  0  0  0  0  0  0
  160.0550  208.8740  154.3590 C   0  0  0  0  0  2  0  0  0  0  0  0
  160.4560  209.8920  152.0450 C   0  0  0  0  0  2  0  0  0  0  0  0
  161.6170  210.9220  150.1210 C   0  0  0  0  0  3  0  0  0  0  0  0
  161.5790  209.9650  151.0540 C   0  0  0  0  0  3  0  0  0  0  0  0
  162.7040  210.9950  149.0910 C   0  0  1  0  0  3  0  0  0  0  0  0
  162.7080  209.8530  148.2870 O   0  0  0  0  0  1  0  0  0  0  0  0
  163.6090  212.8650  147.9010 O   0  0  0  0  0  0  0  0  0  0  0  0
  162.5790  212.2270  148.2540 C   0  0  0  0  0  0  0  0  0  0  0  0
  161.2800  212.6700  147.8560 N   0  0  0  0  0  2  0  0  0  0  0  0
  161.0790  213.7610  146.9130 C   0  0  0  0  0  2  0  0  0  0  0  0
  160.7810  213.2110  145.5270 C   0  0  0  0  0  3  0  0  0  0  0  0
  160.0370  212.0330  145.6220 O   0  0  0  0  0  1  0  0  0  0  0  0
  161.9790  212.9530  144.8630 O   0  0  0  0  0  1  0  0  0  0  0  0
  1 18  1  0  0  0  0
  2 11  1  1  0  0  0
  2  3  1  0  0  0  0
  3 17  2  0  0  0  0
  3 18  1  0  0  0  0
  4 15  2  0  0  0  0
  4 12  1  0  0  0  0
  5  9  1  0  0  0  0
  5  7  1  0  0  0  0
  8 13  1  0  0  0  0
  8 19  1  0  0  0  0
  9  1  1  0  0  0  0
 10  2  1  0  0  0  0
 10  9  2  0  0  0  0
 12  5  2  0  0  0  0
 13 16  1  0  0  0  0
 14  8  2  0  0  0  0
 15 10  1  0  0  0  0
 16 15  1  0  0  0  0
 17 21  1  0  0  0  0
 18  6  2  0  0  0  0
 19  4  1  0  0  0  0
 21 20  1  0  0  0  0
 22 17  1  0  0  0  0
 23 24  2  0  0  0  0
 24 22  1  0  0  0  0
 25 26  1  6  0  0  0
 25 23  1  0  0  0  0
 27 28  2  0  0  0  0
 28 25  1  0  0  0  0
 29 28  1  0  0  0  0
 30 29  1  0  0  0  0
 31 32  1  0  0  0  0
 31 30  1  0  0  0  0
 33 31  1  0  0  0  0
M  END
>  <MODEL>
9

>  <REMARK>
 VINA RESULT:      -6.2      3.316      5.019
  Name = 
  7 active torsions:
  status: ('A' for Active; 'I' for Inactive)
    1  A    between atoms: C_10  and  C_31
    2  A    between atoms: C_11  and  C_26
    3  A    between atoms: C_11  and  C_28
    4  A    between atoms: C_13  and  C_23
    5  A    between atoms: C_13  and  C_24
    6  A    between atoms: C_26  and  C_27
    7  A    between atoms: N_29  and  C_31
                            x       y       z     vdW  Elec       q    Type
                         _______ _______ _______ _____ _____    ______ ____

>  <TORSDO>
F 7

$$$$
