=
 OpenBabel11072413033D

 37 40  0  0  1  0  0  0  0  0999 V2000
  160.9400  203.0070  152.3080 O   0  0  0  0  0  1  0  0  0  0  0  0
  161.2910  204.2770  151.8640 C   0  0  0  0  0  0  0  0  0  0  0  0
  161.0760  205.8390  153.7340 N   0  0  0  0  0  2  0  0  0  0  0  0
  161.6890  205.3940  152.6880 C   0  0  2  0  0  3  0  0  0  0  0  0
  161.6210  206.1240  150.5500 N   0  0  0  0  0  2  0  0  0  0  0  0
  161.0340  207.2460  153.6500 N   0  0  0  0  0  0  0  0  0  0  0  0
  161.9440  206.4410  151.7610 C   0  0  1  0  0  3  0  0  0  0  0  0
  161.5510  208.9680  152.0630 N   0  0  0  0  0  2  0  0  0  0  0  0
  161.3090  204.7190  150.6000 C   0  0  0  0  0  0  0  0  0  0  0  0
  161.5050  207.6110  152.4990 C   0  0  0  0  0  0  0  0  0  0  0  0
  160.9170  203.9580  149.4350 N   0  0  0  0  0  0  0  0  0  0  0  0
  161.1310  204.4660  148.0970 C   0  0  0  0  0  0  0  0  0  0  0  0
  160.7010  205.7580  147.7470 C   0  0  0  0  0  3  0  0  0  0  0  0
  161.7400  203.6710  147.1110 C   0  0  0  0  0  3  0  0  0  0  0  0
  161.9360  204.1610  145.8160 C   0  0  0  0  0  3  0  0  0  0  0  0
  161.7040  205.9270  144.2340 F   0  0  0  0  0  0  0  0  0  0  0  0
  160.8940  206.2500  146.4520 C   0  0  0  0  0  3  0  0  0  0  0  0
  161.5130  205.4510  145.4880 C   0  0  0  0  0  0  0  0  0  0  0  0
  160.2160  202.6860  149.6070 C   0  0  0  0  0  2  0  0  0  0  0  0
  161.1690  201.5270  149.3800 C   0  0  0  0  0  1  0  0  0  0  0  0
  162.0990  209.3330  150.7670 C   0  0  0  0  0  2  0  0  0  0  0  0
  161.9820  210.8330  150.5470 C   0  0  0  0  0  2  0  0  0  0  0  0
  162.0630  210.2680  148.2670 O   0  0  0  0  0  0  0  0  0  0  0  0
  161.9790  211.1680  149.0880 C   0  0  0  0  0  0  0  0  0  0  0  0
  161.8920  212.5970  148.6400 C   0  0  2  0  0  3  0  0  0  0  0  0
  160.6630  214.1800  149.9430 O   0  0  0  0  0  1  0  0  0  0  0  0
  160.5270  213.1720  148.9880 C   0  0  0  0  0  2  0  0  0  0  0  0
  162.1240  212.6780  147.2040 N   0  0  0  0  0  2  0  0  0  0  0  0
  160.8480  212.9610  146.5570 C   0  0  0  0  0  2  0  0  0  0  0  0
  160.8890  211.2010  141.2740 C   0  0  0  0  0  1  0  0  0  0  0  0
  162.5570  213.6430  143.2830 O   0  0  0  0  0  0  0  0  0  0  0  0
  160.1770  211.9590  143.3630 C   0  0  0  0  0  2  0  0  0  0  0  0
  159.8920  213.1980  144.2130 C   0  0  0  0  0  2  0  0  0  0  0  0
  162.4520  213.2880  144.6330 C   0  0  0  0  0  2  0  0  0  0  0  0
  162.3610  212.4460  142.5860 C   0  0  0  0  0  2  0  0  0  0  0  0
  160.9630  212.3250  142.1880 N   0  0  0  0  0  0  0  0  0  0  0  0
  161.0420  213.5670  145.1670 C   0  0  2  0  0  3  0  0  0  0  0  0
  2  1  1  0  0  0  0
  4  2  1  6  0  0  0
  4  3  1  0  0  0  0
  5  9  1  0  0  0  0
  6  3  1  0  0  0  0
  7  5  1  6  0  0  0
  7 10  1  0  0  0  0
  7  4  1  0  0  0  0
  8 10  1  0  0  0  0
  9  2  2  0  0  0  0
 10  6  2  0  0  0  0
 11 19  1  0  0  0  0
 11  9  1  0  0  0  0
 12 11  1  0  0  0  0
 13 12  1  0  0  0  0
 14 12  2  0  0  0  0
 15 14  1  0  0  0  0
 16 18  1  0  0  0  0
 17 13  2  0  0  0  0
 18 15  2  0  0  0  0
 18 17  1  0  0  0  0
 20 19  1  0  0  0  0
 21  8  1  0  0  0  0
 22 21  1  0  0  0  0
 23 24  2  0  0  0  0
 24 22  1  0  0  0  0
 25 27  1  6  0  0  0
 25 24  1  0  0  0  0
 27 26  1  0  0  0  0
 28 25  1  0  0  0  0
 29 28  1  0  0  0  0
 30 36  1  0  0  0  0
 31 34  1  0  0  0  0
 32 33  1  0  0  0  0
 33 37  1  0  0  0  0
 34 37  1  0  0  0  0
 35 31  1  0  0  0  0
 36 35  1  0  0  0  0
 36 32  1  0  0  0  0
 37 29  1  1  0  0  0
M  END
>  <MODEL>
1

>  <REMARK>
 VINA RESULT:      -8.4      0.000      0.000
  Name = 
  11 active torsions:
  status: ('A' for Active; 'I' for Inactive)
    1  A    between atoms: C_3  and  N_11
    2  A    between atoms: N_4  and  CA_30
    3  A    between atoms: N_4  and  C_37
    4  A    between atoms: C_7  and  N_11
    5  A    between atoms: N_11  and  C_29
    6  A    between atoms: C_13  and  N_24
    7  A    between atoms: C_13  and  C_34
    8  A    between atoms: C_26  and  CA_30
    9  A    between atoms: CA_30  and  C_33
   10  A    between atoms: C_33  and  C_34
   11  A    between atoms: C_36  and  C_37
                            x       y       z     vdW  Elec       q    Type
                         _______ _______ _______ _____ _____    ______ ____

>  <TORSDO>
F 11

$$$$
=
 OpenBabel11072413033D

 37 40  0  0  1  0  0  0  0  0999 V2000
  161.8210  205.8530  151.9010 O   0  0  0  0  0  1  0  0  0  0  0  0
  161.9460  206.9170  151.0170 C   0  0  0  0  0  0  0  0  0  0  0  0
  161.9110  209.0000  152.3000 N   0  0  0  0  0  2  0  0  0  0  0  0
  162.3660  208.2590  151.3440 C   0  0  2  0  0  3  0  0  0  0  0  0
  161.8290  208.2380  149.1490 N   0  0  0  0  0  2  0  0  0  0  0  0
  161.7040  210.2960  151.7870 N   0  0  0  0  0  0  0  0  0  0  0  0
  162.3320  208.9510  150.1030 C   0  0  1  0  0  3  0  0  0  0  0  0
  161.7320  211.4170  149.6670 N   0  0  0  0  0  2  0  0  0  0  0  0
  161.6840  206.9170  149.7030 C   0  0  0  0  0  0  0  0  0  0  0  0
  161.9140  210.2800  150.5080 C   0  0  0  0  0  0  0  0  0  0  0  0
  161.1690  205.7980  148.9470 N   0  0  0  0  0  0  0  0  0  0  0  0
  161.3080  205.7340  147.5090 C   0  0  0  0  0  0  0  0  0  0  0  0
  160.2840  206.2100  146.6700 C   0  0  0  0  0  3  0  0  0  0  0  0
  162.4500  205.1660  146.9170 C   0  0  0  0  0  3  0  0  0  0  0  0
  162.5770  205.0960  145.5270 C   0  0  0  0  0  3  0  0  0  0  0  0
  161.6790  205.5180  143.3610 F   0  0  0  0  0  0  0  0  0  0  0  0
  160.4080  206.1390  145.2790 C   0  0  0  0  0  3  0  0  0  0  0  0
  161.5560  205.5840  144.7080 C   0  0  0  0  0  0  0  0  0  0  0  0
  160.4180  204.7470  149.6340 C   0  0  0  0  0  2  0  0  0  0  0  0
  160.9560  203.3820  149.2470 C   0  0  0  0  0  1  0  0  0  0  0  0
  161.9900  211.3550  148.2370 C   0  0  0  0  0  2  0  0  0  0  0  0
  160.8210  211.9440  147.4630 C   0  0  0  0  0  2  0  0  0  0  0  0
  162.4810  213.1260  146.2920 O   0  0  0  0  0  0  0  0  0  0  0  0
  161.2970  212.8360  146.3590 C   0  0  0  0  0  0  0  0  0  0  0  0
  160.3250  213.3820  145.3560 C   0  0  2  0  0  3  0  0  0  0  0  0
  158.0000  212.8260  145.3710 O   0  0  0  0  0  1  0  0  0  0  0  0
  159.2630  212.3400  145.0350 C   0  0  0  0  0  2  0  0  0  0  0  0
  161.0340  213.7730  144.1450 N   0  0  0  0  0  2  0  0  0  0  0  0
  160.7540  212.7770  143.1180 C   0  0  0  0  0  2  0  0  0  0  0  0
  163.4700  214.0040  138.4140 C   0  0  0  0  0  1  0  0  0  0  0  0
  162.8390  211.1390  140.4590 O   0  0  0  0  0  0  0  0  0  0  0  0
  162.6980  214.0480  140.6160 C   0  0  0  0  0  2  0  0  0  0  0  0
  162.9290  213.5220  142.0330 C   0  0  0  0  0  2  0  0  0  0  0  0
  161.7080  211.3700  141.2490 C   0  0  0  0  0  2  0  0  0  0  0  0
  162.7060  212.0250  139.3840 C   0  0  0  0  0  2  0  0  0  0  0  0
  163.4510  213.2500  139.6540 N   0  0  0  0  0  0  0  0  0  0  0  0
  162.0280  212.3300  142.4010 C   0  0  2  0  0  3  0  0  0  0  0  0
  2  1  1  0  0  0  0
  4  2  1  6  0  0  0
  4  3  1  0  0  0  0
  5  9  1  0  0  0  0
  6  3  1  0  0  0  0
  7  5  1  6  0  0  0
  7 10  1  0  0  0  0
  7  4  1  0  0  0  0
  8 10  1  0  0  0  0
  9  2  2  0  0  0  0
 10  6  2  0  0  0  0
 11 19  1  0  0  0  0
 11  9  1  0  0  0  0
 12 11  1  0  0  0  0
 13 12  2  0  0  0  0
 14 12  1  0  0  0  0
 15 14  2  0  0  0  0
 16 18  1  0  0  0  0
 17 13  1  0  0  0  0
 18 17  2  0  0  0  0
 18 15  1  0  0  0  0
 20 19  1  0  0  0  0
 21  8  1  0  0  0  0
 22 21  1  0  0  0  0
 23 24  2  0  0  0  0
 24 22  1  0  0  0  0
 25 27  1  6  0  0  0
 25 24  1  0  0  0  0
 27 26  1  0  0  0  0
 28 25  1  0  0  0  0
 29 28  1  0  0  0  0
 30 36  1  0  0  0  0
 31 34  1  0  0  0  0
 32 33  1  0  0  0  0
 33 37  1  0  0  0  0
 34 37  1  0  0  0  0
 35 36  1  0  0  0  0
 35 31  1  0  0  0  0
 36 32  1  0  0  0  0
 37 29  1  6  0  0  0
M  END
>  <MODEL>
2

>  <REMARK>
 VINA RESULT:      -8.1      2.078      3.164
  Name = 
  11 active torsions:
  status: ('A' for Active; 'I' for Inactive)
    1  A    between atoms: C_3  and  N_11
    2  A    between atoms: N_4  and  CA_30
    3  A    between atoms: N_4  and  C_37
    4  A    between atoms: C_7  and  N_11
    5  A    between atoms: N_11  and  C_29
    6  A    between atoms: C_13  and  N_24
    7  A    between atoms: C_13  and  C_34
    8  A    between atoms: C_26  and  CA_30
    9  A    between atoms: CA_30  and  C_33
   10  A    between atoms: C_33  and  C_34
   11  A    between atoms: C_36  and  C_37
                            x       y       z     vdW  Elec       q    Type
                         _______ _______ _______ _____ _____    ______ ____

>  <TORSDO>
F 11

$$$$
=
 OpenBabel11072413033D

 37 40  0  0  1  0  0  0  0  0999 V2000
  160.2990  207.6160  155.8880 O   0  0  0  0  0  1  0  0  0  0  0  0
  160.5630  207.8540  154.5450 C   0  0  0  0  0  0  0  0  0  0  0  0
  161.6890  205.8910  153.6150 N   0  0  0  0  0  2  0  0  0  0  0  0
  160.8370  206.8600  153.5340 C   0  0  2  0  0  3  0  0  0  0  0  0
  161.0390  208.8870  152.5560 N   0  0  0  0  0  2  0  0  0  0  0  0
  162.3970  205.8300  152.3980 N   0  0  0  0  0  0  0  0  0  0  0  0
  161.0310  207.6110  152.3440 C   0  0  1  0  0  3  0  0  0  0  0  0
  162.6230  207.1120  150.3830 N   0  0  0  0  0  2  0  0  0  0  0  0
  160.6370  209.0420  153.9300 C   0  0  0  0  0  0  0  0  0  0  0  0
  162.0500  206.8380  151.6600 C   0  0  0  0  0  0  0  0  0  0  0  0
  160.4950  210.3310  154.5680 N   0  0  0  0  0  0  0  0  0  0  0  0
  159.2210  211.0150  154.6080 C   0  0  0  0  0  0  0  0  0  0  0  0
  158.8540  211.9000  153.5790 C   0  0  0  0  0  3  0  0  0  0  0  0
  158.3390  210.8390  155.6880 C   0  0  0  0  0  3  0  0  0  0  0  0
  157.1130  211.5100  155.7280 C   0  0  0  0  0  3  0  0  0  0  0  0
  155.5700  213.0260  154.7300 F   0  0  0  0  0  0  0  0  0  0  0  0
  157.6290  212.5740  153.6180 C   0  0  0  0  0  3  0  0  0  0  0  0
  156.7580  212.3760  154.6920 C   0  0  0  0  0  0  0  0  0  0  0  0
  161.6760  211.0000  155.1130 C   0  0  0  0  0  2  0  0  0  0  0  0
  161.8790  210.6050  156.5650 C   0  0  0  0  0  1  0  0  0  0  0  0
  162.1950  208.2490  149.5840 C   0  0  0  0  0  2  0  0  0  0  0  0
  162.4400  207.9810  148.1080 C   0  0  0  0  0  2  0  0  0  0  0  0
  160.4270  206.7710  148.0370 O   0  0  0  0  0  0  0  0  0  0  0  0
  161.5640  206.8760  147.6050 C   0  0  0  0  0  0  0  0  0  0  0  0
  162.0850  205.8980  146.5940 C   0  0  2  0  0  3  0  0  0  0  0  0
  161.4960  205.9260  144.2780 O   0  0  0  0  0  1  0  0  0  0  0  0
  161.0180  205.6090  145.5490 C   0  0  0  0  0  2  0  0  0  0  0  0
  162.4860  204.6670  147.2620 N   0  0  0  0  0  2  0  0  0  0  0  0
  161.7560  203.5640  146.6490 C   0  0  0  0  0  2  0  0  0  0  0  0
  161.5310  202.3980  152.0900 C   0  0  0  0  0  1  0  0  0  0  0  0
  160.3980  200.9780  149.0100 O   0  0  0  0  0  0  0  0  0  0  0  0
  161.4010  203.5130  150.0450 C   0  0  0  0  0  2  0  0  0  0  0  0
  160.5050  203.8290  148.8470 C   0  0  0  0  0  2  0  0  0  0  0  0
  161.1640  201.4830  147.9540 C   0  0  0  0  0  2  0  0  0  0  0  0
  161.1980  201.1560  150.1440 C   0  0  0  0  0  2  0  0  0  0  0  0
  160.8440  202.4040  150.8120 N   0  0  0  0  0  0  0  0  0  0  0  0
  160.7690  202.9280  147.6280 C   0  0  2  0  0  3  0  0  0  0  0  0
  2  1  1  0  0  0  0
  4  3  1  1  0  0  0
  4  2  1  0  0  0  0
  5  9  1  0  0  0  0
  6  3  1  0  0  0  0
  7 10  1  1  0  0  0
  7  5  1  0  0  0  0
  7  4  1  0  0  0  0
  8 10  1  0  0  0  0
  9  2  2  0  0  0  0
  9 11  1  0  0  0  0
 10  6  2  0  0  0  0
 11 12  1  0  0  0  0
 11 19  1  0  0  0  0
 12 14  1  0  0  0  0
 13 17  1  0  0  0  0
 13 12  2  0  0  0  0
 14 15  2  0  0  0  0
 17 18  2  0  0  0  0
 18 16  1  0  0  0  0
 18 15  1  0  0  0  0
 19 20  1  0  0  0  0
 21  8  1  0  0  0  0
 22 21  1  0  0  0  0
 24 23  2  0  0  0  0
 24 22  1  0  0  0  0
 25 27  1  6  0  0  0
 25 28  1  0  0  0  0
 25 24  1  0  0  0  0
 26 27  1  0  0  0  0
 29 28  1  0  0  0  0
 31 35  1  0  0  0  0
 32 36  1  0  0  0  0
 33 32  1  0  0  0  0
 34 31  1  0  0  0  0
 35 36  1  0  0  0  0
 36 30  1  0  0  0  0
 37 29  1  1  0  0  0
 37 34  1  0  0  0  0
 37 33  1  0  0  0  0
M  END
>  <MODEL>
3

>  <REMARK>
 VINA RESULT:      -7.7      4.857      9.047
  Name = 
  11 active torsions:
  status: ('A' for Active; 'I' for Inactive)
    1  A    between atoms: C_3  and  N_11
    2  A    between atoms: N_4  and  CA_30
    3  A    between atoms: N_4  and  C_37
    4  A    between atoms: C_7  and  N_11
    5  A    between atoms: N_11  and  C_29
    6  A    between atoms: C_13  and  N_24
    7  A    between atoms: C_13  and  C_34
    8  A    between atoms: C_26  and  CA_30
    9  A    between atoms: CA_30  and  C_33
   10  A    between atoms: C_33  and  C_34
   11  A    between atoms: C_36  and  C_37
                            x       y       z     vdW  Elec       q    Type
                         _______ _______ _______ _____ _____    ______ ____

>  <TORSDO>
F 11

$$$$
=
 OpenBabel11072413033D

 37 40  0  0  1  0  0  0  0  0999 V2000
  161.2480  203.0510  152.0210 O   0  0  0  0  0  1  0  0  0  0  0  0
  161.4810  204.3530  151.5950 C   0  0  0  0  0  0  0  0  0  0  0  0
  161.2180  205.8540  153.5080 N   0  0  0  0  0  2  0  0  0  0  0  0
  161.8230  205.4810  152.4290 C   0  0  2  0  0  3  0  0  0  0  0  0
  161.6140  206.2470  150.3140 N   0  0  0  0  0  2  0  0  0  0  0  0
  161.0630  207.2540  153.4590 N   0  0  0  0  0  0  0  0  0  0  0  0
  161.9580  206.5640  151.5190 C   0  0  1  0  0  3  0  0  0  0  0  0
  161.3810  209.0450  151.8960 N   0  0  0  0  0  2  0  0  0  0  0  0
  161.4150  204.8220  150.3420 C   0  0  0  0  0  0  0  0  0  0  0  0
  161.4590  207.6800  152.3010 C   0  0  0  0  0  0  0  0  0  0  0  0
  161.0380  204.0570  149.1750 N   0  0  0  0  0  0  0  0  0  0  0  0
  161.2900  204.5490  147.8380 C   0  0  0  0  0  0  0  0  0  0  0  0
  162.3560  204.0380  147.0780 C   0  0  0  0  0  3  0  0  0  0  0  0
  160.4980  205.5690  147.2820 C   0  0  0  0  0  3  0  0  0  0  0  0
  160.7500  206.0500  145.9940 C   0  0  0  0  0  3  0  0  0  0  0  0
  162.0500  205.9870  143.9980 F   0  0  0  0  0  0  0  0  0  0  0  0
  162.6110  204.5180  145.7890 C   0  0  0  0  0  3  0  0  0  0  0  0
  161.8060  205.5230  145.2470 C   0  0  0  0  0  0  0  0  0  0  0  0
  160.3140  202.7970  149.3410 C   0  0  0  0  0  2  0  0  0  0  0  0
  161.1300  201.6460  148.7790 C   0  0  0  0  0  1  0  0  0  0  0  0
  161.8480  209.4790  150.5890 C   0  0  0  0  0  2  0  0  0  0  0  0
  161.9870  210.9930  150.5530 C   0  0  0  0  0  2  0  0  0  0  0  0
  162.4910  211.0530  148.2590 O   0  0  0  0  0  0  0  0  0  0  0  0
  161.8170  211.5200  149.1630 C   0  0  0  0  0  0  0  0  0  0  0  0
  160.8400  212.6240  148.8870 C   0  0  2  0  0  3  0  0  0  0  0  0
  162.3720  214.3700  148.3250 O   0  0  0  0  0  1  0  0  0  0  0  0
  161.3810  213.5420  147.8000 C   0  0  0  0  0  2  0  0  0  0  0  0
  160.5890  213.3770  150.1080 N   0  0  0  0  0  2  0  0  0  0  0  0
  159.1550  213.6240  150.1990 C   0  0  0  0  0  2  0  0  0  0  0  0
  156.9710  211.3370  154.7820 C   0  0  0  0  0  1  0  0  0  0  0  0
  156.8350  214.4520  153.0330 O   0  0  0  0  0  0  0  0  0  0  0  0
  158.4810  212.0480  153.1510 C   0  0  0  0  0  2  0  0  0  0  0  0
  159.3800  213.1970  152.6950 C   0  0  0  0  0  2  0  0  0  0  0  0
  157.2290  214.2590  151.7040 C   0  0  0  0  0  2  0  0  0  0  0  0
  156.4280  213.1860  153.4690 C   0  0  0  0  0  2  0  0  0  0  0  0
  157.5300  212.5190  154.1530 N   0  0  0  0  0  0  0  0  0  0  0  0
  158.7470  214.0760  151.6010 C   0  0  2  0  0  3  0  0  0  0  0  0
  2  1  1  0  0  0  0
  4  2  1  6  0  0  0
  4  3  1  0  0  0  0
  5  9  1  0  0  0  0
  6  3  1  0  0  0  0
  7  5  1  6  0  0  0
  7 10  1  0  0  0  0
  7  4  1  0  0  0  0
  8 10  1  0  0  0  0
  9  2  2  0  0  0  0
 10  6  2  0  0  0  0
 11 19  1  0  0  0  0
 11  9  1  0  0  0  0
 12 11  1  0  0  0  0
 13 12  2  0  0  0  0
 14 12  1  0  0  0  0
 15 14  2  0  0  0  0
 16 18  1  0  0  0  0
 17 13  1  0  0  0  0
 18 17  2  0  0  0  0
 18 15  1  0  0  0  0
 20 19  1  0  0  0  0
 21  8  1  0  0  0  0
 22 21  1  0  0  0  0
 23 24  2  0  0  0  0
 24 22  1  0  0  0  0
 25 27  1  6  0  0  0
 25 24  1  0  0  0  0
 25 28  1  0  0  0  0
 27 26  1  0  0  0  0
 28 29  1  0  0  0  0
 31 35  1  0  0  0  0
 32 36  1  0  0  0  0
 33 32  1  0  0  0  0
 34 31  1  0  0  0  0
 35 36  1  0  0  0  0
 36 30  1  0  0  0  0
 37 29  1  6  0  0  0
 37 34  1  0  0  0  0
 37 33  1  0  0  0  0
M  END
>  <MODEL>
4

>  <REMARK>
 VINA RESULT:      -7.6      2.599      5.183
  Name = 
  11 active torsions:
  status: ('A' for Active; 'I' for Inactive)
    1  A    between atoms: C_3  and  N_11
    2  A    between atoms: N_4  and  CA_30
    3  A    between atoms: N_4  and  C_37
    4  A    between atoms: C_7  and  N_11
    5  A    between atoms: N_11  and  C_29
    6  A    between atoms: C_13  and  N_24
    7  A    between atoms: C_13  and  C_34
    8  A    between atoms: C_26  and  CA_30
    9  A    between atoms: CA_30  and  C_33
   10  A    between atoms: C_33  and  C_34
   11  A    between atoms: C_36  and  C_37
                            x       y       z     vdW  Elec       q    Type
                         _______ _______ _______ _____ _____    ______ ____

>  <TORSDO>
F 11

$$$$
=
 OpenBabel11072413033D

 37 40  0  0  1  0  0  0  0  0999 V2000
  161.9920  208.7460  147.8800 O   0  0  0  0  0  1  0  0  0  0  0  0
  161.6280  208.2640  149.1320 C   0  0  0  0  0  0  0  0  0  0  0  0
  162.2750  209.9160  150.8170 N   0  0  0  0  0  2  0  0  0  0  0  0
  161.4520  209.0450  150.3340 C   0  0  2  0  0  3  0  0  0  0  0  0
  161.1500  206.8750  150.8900 N   0  0  0  0  0  2  0  0  0  0  0  0
  162.3730  209.7010  152.2060 N   0  0  0  0  0  0  0  0  0  0  0  0
  161.0800  208.0920  151.3210 C   0  0  1  0  0  3  0  0  0  0  0  0
  161.6540  208.0910  153.8320 N   0  0  0  0  0  2  0  0  0  0  0  0
  161.3930  206.9910  149.4760 C   0  0  0  0  0  0  0  0  0  0  0  0
  161.7110  208.6290  152.5120 C   0  0  0  0  0  0  0  0  0  0  0  0
  161.5170  205.8460  148.6020 N   0  0  0  0  0  0  0  0  0  0  0  0
  161.2680  204.5030  149.0800 C   0  0  0  0  0  0  0  0  0  0  0  0
  161.2000  203.4260  148.1790 C   0  0  0  0  0  3  0  0  0  0  0  0
  161.0570  204.2490  150.4470 C   0  0  0  0  0  3  0  0  0  0  0  0
  160.8070  202.9520  150.9040 C   0  0  0  0  0  3  0  0  0  0  0  0
  160.5140  200.6340  150.4400 F   0  0  0  0  0  0  0  0  0  0  0  0
  160.9490  202.1280  148.6340 C   0  0  0  0  0  3  0  0  0  0  0  0
  160.7540  201.8910  149.9970 C   0  0  0  0  0  0  0  0  0  0  0  0
  161.9820  206.0330  147.2280 C   0  0  0  0  0  2  0  0  0  0  0  0
  160.7980  206.1360  146.2840 C   0  0  0  0  0  1  0  0  0  0  0  0
  160.8890  206.8910  154.1310 C   0  0  0  0  0  2  0  0  0  0  0  0
  159.7650  207.2100  155.1060 C   0  0  0  0  0  2  0  0  0  0  0  0
  160.5080  207.7960  157.2560 O   0  0  0  0  0  0  0  0  0  0  0  0
  160.2100  208.1940  156.1420 C   0  0  0  0  0  0  0  0  0  0  0  0
  160.2710  209.6570  155.8180 C   0  0  2  0  0  3  0  0  0  0  0  0
  162.4030  210.6930  156.1290 O   0  0  0  0  0  1  0  0  0  0  0  0
  161.2130  210.3670  156.7790 C   0  0  0  0  0  2  0  0  0  0  0  0
  158.9360  210.2360  155.8970 N   0  0  0  0  0  2  0  0  0  0  0  0
  159.0090  211.6050  155.4030 C   0  0  0  0  0  2  0  0  0  0  0  0
  159.8880  213.7700  150.3490 C   0  0  0  0  0  1  0  0  0  0  0  0
  157.1890  213.4260  152.6690 O   0  0  0  0  0  0  0  0  0  0  0  0
  159.8350  212.3080  152.1660 C   0  0  0  0  0  2  0  0  0  0  0  0
  159.0140  211.2380  152.8870 C   0  0  0  0  0  2  0  0  0  0  0  0
  157.7020  213.2090  153.9520 C   0  0  0  0  0  2  0  0  0  0  0  0
  158.2340  214.0420  151.9700 C   0  0  0  0  0  2  0  0  0  0  0  0
  158.9920  213.0410  151.2270 N   0  0  0  0  0  0  0  0  0  0  0  0
  158.2320  211.7770  154.0980 C   0  0  2  0  0  3  0  0  0  0  0  0
  1  2  1  0  0  0  0
  2  9  2  0  0  0  0
  3  6  1  0  0  0  0
  4  2  1  6  0  0  0
  4  3  1  0  0  0  0
  4  7  1  0  0  0  0
  6 10  2  0  0  0  0
  7  5  1  6  0  0  0
  7 10  1  0  0  0  0
  8 21  1  0  0  0  0
  9  5  1  0  0  0  0
 10  8  1  0  0  0  0
 11 12  1  0  0  0  0
 11  9  1  0  0  0  0
 12 14  1  0  0  0  0
 13 17  1  0  0  0  0
 13 12  2  0  0  0  0
 14 15  2  0  0  0  0
 17 18  2  0  0  0  0
 18 16  1  0  0  0  0
 18 15  1  0  0  0  0
 19 11  1  0  0  0  0
 20 19  1  0  0  0  0
 21 22  1  0  0  0  0
 22 24  1  0  0  0  0
 24 23  2  0  0  0  0
 25 28  1  0  0  0  0
 25 24  1  0  0  0  0
 25 27  1  1  0  0  0
 26 27  1  0  0  0  0
 29 28  1  0  0  0  0
 30 36  1  0  0  0  0
 31 34  1  0  0  0  0
 32 33  1  0  0  0  0
 33 37  1  0  0  0  0
 34 37  1  0  0  0  0
 35 31  1  0  0  0  0
 36 35  1  0  0  0  0
 36 32  1  0  0  0  0
 37 29  1  1  0  0  0
M  END
>  <MODEL>
5

>  <REMARK>
 VINA RESULT:      -7.4      4.085      6.783
  Name = 
  11 active torsions:
  status: ('A' for Active; 'I' for Inactive)
    1  A    between atoms: C_3  and  N_11
    2  A    between atoms: N_4  and  CA_30
    3  A    between atoms: N_4  and  C_37
    4  A    between atoms: C_7  and  N_11
    5  A    between atoms: N_11  and  C_29
    6  A    between atoms: C_13  and  N_24
    7  A    between atoms: C_13  and  C_34
    8  A    between atoms: C_26  and  CA_30
    9  A    between atoms: CA_30  and  C_33
   10  A    between atoms: C_33  and  C_34
   11  A    between atoms: C_36  and  C_37
                            x       y       z     vdW  Elec       q    Type
                         _______ _______ _______ _____ _____    ______ ____

>  <TORSDO>
F 11

$$$$
=
 OpenBabel11072413033D

 37 40  0  0  1  0  0  0  0  0999 V2000
  161.8190  204.3060  146.7300 O   0  0  0  0  0  1  0  0  0  0  0  0
  161.4570  205.0240  147.8640 C   0  0  0  0  0  0  0  0  0  0  0  0
  162.5410  207.2160  147.7740 N   0  0  0  0  0  2  0  0  0  0  0  0
  161.5270  206.4560  148.0310 C   0  0  2  0  0  3  0  0  0  0  0  0
  160.8350  205.5820  149.9960 N   0  0  0  0  0  2  0  0  0  0  0  0
  162.6920  208.1200  148.8440 N   0  0  0  0  0  0  0  0  0  0  0  0
  161.0420  206.6820  149.3480 C   0  0  1  0  0  3  0  0  0  0  0  0
  161.7810  208.4840  151.0330 N   0  0  0  0  0  2  0  0  0  0  0  0
  160.9960  204.5350  149.0220 C   0  0  0  0  0  0  0  0  0  0  0  0
  161.8510  207.8060  149.7800 C   0  0  0  0  0  0  0  0  0  0  0  0
  160.8240  203.1350  149.3370 N   0  0  0  0  0  0  0  0  0  0  0  0
  160.9110  202.1170  148.3120 C   0  0  0  0  0  0  0  0  0  0  0  0
  161.5810  200.9060  148.5640 C   0  0  0  0  0  3  0  0  0  0  0  0
  160.3600  202.3250  147.0360 C   0  0  0  0  0  3  0  0  0  0  0  0
  160.4550  201.3430  146.0450 C   0  0  0  0  0  3  0  0  0  0  0  0
  161.2040  199.1890  145.3560 F   0  0  0  0  0  0  0  0  0  0  0  0
  161.6780  199.9230  147.5740 C   0  0  0  0  0  3  0  0  0  0  0  0
  161.1130  200.1420  146.3150 C   0  0  0  0  0  0  0  0  0  0  0  0
  160.4740  202.7380  150.7000 C   0  0  0  0  0  2  0  0  0  0  0  0
  161.7240  202.6420  151.5560 C   0  0  0  0  0  1  0  0  0  0  0  0
  160.8130  208.1040  152.0500 C   0  0  0  0  0  2  0  0  0  0  0  0
  161.4750  207.2400  153.1120 C   0  0  0  0  0  2  0  0  0  0  0  0
  160.1390  206.6760  154.9610 O   0  0  0  0  0  0  0  0  0  0  0  0
  160.8900  207.5010  154.4650 C   0  0  0  0  0  0  0  0  0  0  0  0
  161.2100  208.7710  155.1950 C   0  0  2  0  0  3  0  0  0  0  0  0
  162.6210  209.5740  156.9500 O   0  0  0  0  0  1  0  0  0  0  0  0
  161.9140  208.4570  156.5070 C   0  0  0  0  0  2  0  0  0  0  0  0
  159.9850  209.5190  155.4440 N   0  0  0  0  0  2  0  0  0  0  0  0
  160.2040  210.8960  155.0190 C   0  0  0  0  0  2  0  0  0  0  0  0
  159.1570  214.2120  150.6700 C   0  0  0  0  0  1  0  0  0  0  0  0
  157.7640  213.5180  153.8890 O   0  0  0  0  0  0  0  0  0  0  0  0
  159.6270  212.3380  151.9790 C   0  0  0  0  0  2  0  0  0  0  0  0
  159.0170  211.1950  152.7910 C   0  0  0  0  0  2  0  0  0  0  0  0
  158.7390  212.9300  154.7020 C   0  0  0  0  0  2  0  0  0  0  0  0
  158.4890  214.1990  152.9040 C   0  0  0  0  0  2  0  0  0  0  0  0
  158.6200  213.3620  151.7160 N   0  0  0  0  0  0  0  0  0  0  0  0
  158.9800  211.4680  154.3050 C   0  0  2  0  0  3  0  0  0  0  0  0
  1  2  1  0  0  0  0
  2  4  1  0  0  0  0
  2  9  2  0  0  0  0
  3  6  1  0  0  0  0
  4  3  1  1  0  0  0
  4  7  1  0  0  0  0
  6 10  2  0  0  0  0
  7 10  1  1  0  0  0
  7  5  1  0  0  0  0
  8 21  1  0  0  0  0
  9 11  1  0  0  0  0
  9  5  1  0  0  0  0
 10  8  1  0  0  0  0
 11 19  1  0  0  0  0
 12 13  1  0  0  0  0
 12 11  1  0  0  0  0
 14 12  2  0  0  0  0
 15 18  2  0  0  0  0
 15 14  1  0  0  0  0
 16 18  1  0  0  0  0
 17 13  2  0  0  0  0
 18 17  1  0  0  0  0
 19 20  1  0  0  0  0
 21 22  1  0  0  0  0
 22 24  1  0  0  0  0
 24 23  2  0  0  0  0
 24 25  1  0  0  0  0
 25 28  1  0  0  0  0
 25 27  1  1  0  0  0
 27 26  1  0  0  0  0
 29 28  1  0  0  0  0
 30 36  1  0  0  0  0
 31 34  1  0  0  0  0
 32 33  1  0  0  0  0
 33 37  1  0  0  0  0
 35 31  1  0  0  0  0
 36 32  1  0  0  0  0
 36 35  1  0  0  0  0
 37 34  1  0  0  0  0
 37 29  1  6  0  0  0
M  END
>  <MODEL>
6

>  <REMARK>
 VINA RESULT:      -7.3      4.512      6.675
  Name = 
  11 active torsions:
  status: ('A' for Active; 'I' for Inactive)
    1  A    between atoms: C_3  and  N_11
    2  A    between atoms: N_4  and  CA_30
    3  A    between atoms: N_4  and  C_37
    4  A    between atoms: C_7  and  N_11
    5  A    between atoms: N_11  and  C_29
    6  A    between atoms: C_13  and  N_24
    7  A    between atoms: C_13  and  C_34
    8  A    between atoms: C_26  and  CA_30
    9  A    between atoms: CA_30  and  C_33
   10  A    between atoms: C_33  and  C_34
   11  A    between atoms: C_36  and  C_37
                            x       y       z     vdW  Elec       q    Type
                         _______ _______ _______ _____ _____    ______ ____

>  <TORSDO>
F 11

$$$$
=
 OpenBabel11072413033D

 37 40  0  0  1  0  0  0  0  0999 V2000
  161.1230  203.6370  148.2490 O   0  0  0  0  0  1  0  0  0  0  0  0
  161.3730  204.3810  149.3960 C   0  0  0  0  0  0  0  0  0  0  0  0
  160.7510  203.0370  151.3430 N   0  0  0  0  0  2  0  0  0  0  0  0
  161.5350  203.8650  150.7350 C   0  0  2  0  0  3  0  0  0  0  0  0
  161.6400  206.1190  150.8630 N   0  0  0  0  0  2  0  0  0  0  0  0
  160.5550  203.5080  152.6570 N   0  0  0  0  0  0  0  0  0  0  0  0
  161.7750  205.0190  151.5300 C   0  0  1  0  0  3  0  0  0  0  0  0
  161.0530  205.4570  153.9620 N   0  0  0  0  0  2  0  0  0  0  0  0
  161.4920  205.7120  149.4910 C   0  0  0  0  0  0  0  0  0  0  0  0
  161.1160  204.6710  152.7740 C   0  0  0  0  0  0  0  0  0  0  0  0
  161.3360  206.6510  148.4040 N   0  0  0  0  0  0  0  0  0  0  0  0
  161.3950  206.2220  147.0230 C   0  0  0  0  0  0  0  0  0  0  0  0
  162.6150  205.8120  146.4550 C   0  0  0  0  0  3  0  0  0  0  0  0
  160.2480  206.2360  146.2110 C   0  0  0  0  0  3  0  0  0  0  0  0
  160.3110  205.8300  144.8750 C   0  0  0  0  0  3  0  0  0  0  0  0
  161.5890  205.0190  143.0350 F   0  0  0  0  0  0  0  0  0  0  0  0
  162.6810  205.4070  145.1180 C   0  0  0  0  0  3  0  0  0  0  0  0
  161.5280  205.4140  144.3290 C   0  0  0  0  0  0  0  0  0  0  0  0
  161.1980  208.0770  148.6960 C   0  0  0  0  0  2  0  0  0  0  0  0
  162.4930  208.8040  148.3830 C   0  0  0  0  0  1  0  0  0  0  0  0
  161.7080  206.7530  154.0520 C   0  0  0  0  0  2  0  0  0  0  0  0
  160.7550  207.7870  154.6310 C   0  0  0  0  0  2  0  0  0  0  0  0
  161.2300  207.5040  156.9140 O   0  0  0  0  0  0  0  0  0  0  0  0
  161.2270  208.2730  155.9660 C   0  0  0  0  0  0  0  0  0  0  0  0
  161.6750  209.6930  156.1390 C   0  0  2  0  0  3  0  0  0  0  0  0
  163.3030  211.0520  157.2410 O   0  0  0  0  0  1  0  0  0  0  0  0
  162.7390  209.7780  157.2240 C   0  0  0  0  0  2  0  0  0  0  0  0
  160.5340  210.5310  156.4830 N   0  0  0  0  0  2  0  0  0  0  0  0
  160.4640  211.6180  155.5130 C   0  0  0  0  0  2  0  0  0  0  0  0
  158.8210  213.5090  150.5400 C   0  0  0  0  0  1  0  0  0  0  0  0
  157.3590  212.7050  153.7030 O   0  0  0  0  0  0  0  0  0  0  0  0
  159.8230  212.2330  152.2170 C   0  0  0  0  0  2  0  0  0  0  0  0
  159.6340  211.0570  153.1760 C   0  0  0  0  0  2  0  0  0  0  0  0
  158.3480  212.7260  154.6930 C   0  0  0  0  0  2  0  0  0  0  0  0
  157.8740  213.4990  152.6710 C   0  0  0  0  0  2  0  0  0  0  0  0
  158.5340  212.6570  151.6790 N   0  0  0  0  0  0  0  0  0  0  0  0
  159.2440  211.4850  154.6020 C   0  0  2  0  0  3  0  0  0  0  0  0
  1  2  1  0  0  0  0
  2  9  2  0  0  0  0
  3  6  1  0  0  0  0
  4  2  1  6  0  0  0
  4  3  1  0  0  0  0
  4  7  1  0  0  0  0
  6 10  2  0  0  0  0
  7  5  1  6  0  0  0
  7 10  1  0  0  0  0
  8 21  1  0  0  0  0
  9  5  1  0  0  0  0
 10  8  1  0  0  0  0
 11 19  1  0  0  0  0
 11  9  1  0  0  0  0
 12 11  1  0  0  0  0
 13 12  1  0  0  0  0
 14 12  2  0  0  0  0
 15 14  1  0  0  0  0
 16 18  1  0  0  0  0
 17 13  2  0  0  0  0
 18 15  2  0  0  0  0
 18 17  1  0  0  0  0
 20 19  1  0  0  0  0
 21 22  1  0  0  0  0
 22 24  1  0  0  0  0
 24 25  1  0  0  0  0
 24 23  2  0  0  0  0
 25 28  1  0  0  0  0
 25 27  1  1  0  0  0
 27 26  1  0  0  0  0
 29 28  1  0  0  0  0
 30 36  1  0  0  0  0
 31 34  1  0  0  0  0
 32 33  1  0  0  0  0
 33 37  1  0  0  0  0
 35 31  1  0  0  0  0
 36 32  1  0  0  0  0
 36 35  1  0  0  0  0
 37 34  1  0  0  0  0
 37 29  1  1  0  0  0
M  END
>  <MODEL>
7

>  <REMARK>
 VINA RESULT:      -7.2      4.261      6.629
  Name = 
  11 active torsions:
  status: ('A' for Active; 'I' for Inactive)
    1  A    between atoms: C_3  and  N_11
    2  A    between atoms: N_4  and  CA_30
    3  A    between atoms: N_4  and  C_37
    4  A    between atoms: C_7  and  N_11
    5  A    between atoms: N_11  and  C_29
    6  A    between atoms: C_13  and  N_24
    7  A    between atoms: C_13  and  C_34
    8  A    between atoms: C_26  and  CA_30
    9  A    between atoms: CA_30  and  C_33
   10  A    between atoms: C_33  and  C_34
   11  A    between atoms: C_36  and  C_37
                            x       y       z     vdW  Elec       q    Type
                         _______ _______ _______ _____ _____    ______ ____

>  <TORSDO>
F 11

$$$$
=
 OpenBabel11072413033D

 37 40  0  0  1  0  0  0  0  0999 V2000
  158.1880  214.2400  144.3540 O   0  0  0  0  0  1  0  0  0  0  0  0
  159.1050  213.5930  145.1740 C   0  0  0  0  0  0  0  0  0  0  0  0
  158.4300  213.9210  147.5030 N   0  0  0  0  0  2  0  0  0  0  0  0
  158.8950  213.1890  146.5450 C   0  0  2  0  0  3  0  0  0  0  0  0
  161.0330  212.6860  146.0150 N   0  0  0  0  0  2  0  0  0  0  0  0
  159.2270  213.7030  148.6450 N   0  0  0  0  0  0  0  0  0  0  0  0
  160.1190  212.5720  146.9220 C   0  0  1  0  0  3  0  0  0  0  0  0
  161.2650  212.5810  149.2270 N   0  0  0  0  0  2  0  0  0  0  0  0
  160.3590  213.2370  144.8680 C   0  0  0  0  0  0  0  0  0  0  0  0
  160.2290  212.9470  148.3190 C   0  0  0  0  0  0  0  0  0  0  0  0
  161.0280  213.5030  143.6150 N   0  0  0  0  0  0  0  0  0  0  0  0
  160.6760  212.7880  142.4070 C   0  0  0  0  0  0  0  0  0  0  0  0
  159.4920  213.0960  141.7150 C   0  0  0  0  0  3  0  0  0  0  0  0
  161.4890  211.7510  141.9170 C   0  0  0  0  0  3  0  0  0  0  0  0
  161.1410  211.0560  140.7560 C   0  0  0  0  0  3  0  0  0  0  0  0
  159.6300  210.7090  138.9470 F   0  0  0  0  0  0  0  0  0  0  0  0
  159.1400  212.4000  140.5540 C   0  0  0  0  0  3  0  0  0  0  0  0
  159.9670  211.3810  140.0730 C   0  0  0  0  0  0  0  0  0  0  0  0
  162.1390  214.4530  143.5760 C   0  0  0  0  0  2  0  0  0  0  0  0
  163.4010  213.8060  144.1190 C   0  0  0  0  0  1  0  0  0  0  0  0
  162.3660  211.7220  148.8200 C   0  0  0  0  0  2  0  0  0  0  0  0
  161.8540  210.3280  148.4910 C   0  0  0  0  0  2  0  0  0  0  0  0
  162.0420  209.9290  150.8000 O   0  0  0  0  0  0  0  0  0  0  0  0
  161.9060  209.4350  149.6920 C   0  0  0  0  0  0  0  0  0  0  0  0
  161.8100  207.9470  149.5320 C   0  0  2  0  0  3  0  0  0  0  0  0
  161.2790  206.9640  151.6450 O   0  0  0  0  0  1  0  0  0  0  0  0
  162.3340  207.2520  150.7800 C   0  0  0  0  0  2  0  0  0  0  0  0
  162.5700  207.5270  148.3620 N   0  0  0  0  0  2  0  0  0  0  0  0
  161.7110  206.6750  147.5490 C   0  0  0  0  0  2  0  0  0  0  0  0
  160.2150  201.8490  145.2090 C   0  0  0  0  0  1  0  0  0  0  0  0
  161.5940  202.9970  148.3010 O   0  0  0  0  0  0  0  0  0  0  0  0
  161.1790  203.9420  145.5730 C   0  0  0  0  0  2  0  0  0  0  0  0
  162.3970  204.6770  146.1330 C   0  0  0  0  0  2  0  0  0  0  0  0
  161.3040  204.3560  148.4650 C   0  0  0  0  0  2  0  0  0  0  0  0
  160.6300  202.5350  147.3980 C   0  0  0  0  0  2  0  0  0  0  0  0
  161.1670  202.5600  146.0420 N   0  0  0  0  0  0  0  0  0  0  0  0
  162.1850  205.2220  147.5570 C   0  0  2  0  0  3  0  0  0  0  0  0
  1  2  1  0  0  0  0
  3  6  1  0  0  0  0
  4  2  1  6  0  0  0
  4  7  1  0  0  0  0
  4  3  1  0  0  0  0
  7  5  1  6  0  0  0
  7 10  1  0  0  0  0
  9  2  2  0  0  0  0
  9  5  1  0  0  0  0
 10  6  2  0  0  0  0
 10  8  1  0  0  0  0
 11  9  1  0  0  0  0
 12 11  1  0  0  0  0
 13 12  2  0  0  0  0
 14 12  1  0  0  0  0
 15 14  2  0  0  0  0
 16 18  1  0  0  0  0
 17 13  1  0  0  0  0
 18 17  2  0  0  0  0
 18 15  1  0  0  0  0
 19 11  1  0  0  0  0
 19 20  1  0  0  0  0
 21  8  1  0  0  0  0
 22 21  1  0  0  0  0
 22 24  1  0  0  0  0
 24 23  2  0  0  0  0
 25 24  1  0  0  0  0
 25 27  1  1  0  0  0
 27 26  1  0  0  0  0
 28 25  1  0  0  0  0
 29 28  1  0  0  0  0
 30 36  1  0  0  0  0
 31 34  1  0  0  0  0
 32 36  1  0  0  0  0
 32 33  1  0  0  0  0
 33 37  1  0  0  0  0
 35 31  1  0  0  0  0
 36 35  1  0  0  0  0
 37 29  1  6  0  0  0
 37 34  1  0  0  0  0
M  END
>  <MODEL>
8

>  <REMARK>
 VINA RESULT:      -7.2      2.795      8.980
  Name = 
  11 active torsions:
  status: ('A' for Active; 'I' for Inactive)
    1  A    between atoms: C_3  and  N_11
    2  A    between atoms: N_4  and  CA_30
    3  A    between atoms: N_4  and  C_37
    4  A    between atoms: C_7  and  N_11
    5  A    between atoms: N_11  and  C_29
    6  A    between atoms: C_13  and  N_24
    7  A    between atoms: C_13  and  C_34
    8  A    between atoms: C_26  and  CA_30
    9  A    between atoms: CA_30  and  C_33
   10  A    between atoms: C_33  and  C_34
   11  A    between atoms: C_36  and  C_37
                            x       y       z     vdW  Elec       q    Type
                         _______ _______ _______ _____ _____    ______ ____

>  <TORSDO>
F 11

$$$$
=
 OpenBabel11072413033D

 37 40  0  0  1  0  0  0  0  0999 V2000
  160.8280  211.8170  153.7890 O   0  0  0  0  0  1  0  0  0  0  0  0
  161.1100  210.4670  153.6170 C   0  0  0  0  0  0  0  0  0  0  0  0
  161.5890  210.0690  151.2520 N   0  0  0  0  0  2  0  0  0  0  0  0
  161.8180  209.8730  152.5080 C   0  0  2  0  0  3  0  0  0  0  0  0
  161.1430  208.1890  153.8560 N   0  0  0  0  0  2  0  0  0  0  0  0
  161.6180  208.8190  150.6020 N   0  0  0  0  0  0  0  0  0  0  0  0
  161.8450  208.4840  152.8110 C   0  0  1  0  0  3  0  0  0  0  0  0
  161.7360  206.4940  151.1800 N   0  0  0  0  0  2  0  0  0  0  0  0
  160.7670  209.4560  154.4270 C   0  0  0  0  0  0  0  0  0  0  0  0
  161.7360  207.8850  151.4940 C   0  0  0  0  0  0  0  0  0  0  0  0
  159.9850  209.5740  155.6360 N   0  0  0  0  0  0  0  0  0  0  0  0
  158.9680  210.5940  155.7800 C   0  0  0  0  0  0  0  0  0  0  0  0
  159.1930  211.7140  156.5990 C   0  0  0  0  0  3  0  0  0  0  0  0
  157.7260  210.4740  155.1330 C   0  0  0  0  0  3  0  0  0  0  0  0
  156.7430  211.4560  155.2830 C   0  0  0  0  0  3  0  0  0  0  0  0
  156.0350  213.5220  156.2340 F   0  0  0  0  0  0  0  0  0  0  0  0
  158.2110  212.6980  156.7510 C   0  0  0  0  0  3  0  0  0  0  0  0
  156.9860  212.5690  156.0910 C   0  0  0  0  0  0  0  0  0  0  0  0
  160.2770  208.7010  156.7720 C   0  0  0  0  0  2  0  0  0  0  0  0
  159.6950  207.3190  156.5360 C   0  0  0  0  0  1  0  0  0  0  0  0
  161.8800  205.4810  152.2130 C   0  0  0  0  0  2  0  0  0  0  0  0
  160.7350  204.4840  152.1400 C   0  0  0  0  0  2  0  0  0  0  0  0
  162.0690  202.5720  151.8470 O   0  0  0  0  0  0  0  0  0  0  0  0
  161.1440  203.2410  151.4130 C   0  0  0  0  0  0  0  0  0  0  0  0
  160.4370  202.8320  150.1560 C   0  0  2  0  0  3  0  0  0  0  0  0
  160.8220  200.8420  148.8890 O   0  0  0  0  0  1  0  0  0  0  0  0
  160.3110  201.3170  150.0960 C   0  0  0  0  0  2  0  0  0  0  0  0
  161.1680  203.3250  148.9970 N   0  0  0  0  0  2  0  0  0  0  0  0
  160.7510  204.7010  148.7530 C   0  0  0  0  0  2  0  0  0  0  0  0
  161.2040  205.6050  143.2780 C   0  0  0  0  0  1  0  0  0  0  0  0
  163.3610  205.0560  146.0760 O   0  0  0  0  0  0  0  0  0  0  0  0
  160.5930  205.7910  145.5220 C   0  0  0  0  0  2  0  0  0  0  0  0
  160.9680  206.3990  146.8730 C   0  0  0  0  0  2  0  0  0  0  0  0
  162.6440  204.4300  147.1020 C   0  0  0  0  0  2  0  0  0  0  0  0
  162.6400  204.7650  144.9120 C   0  0  0  0  0  2  0  0  0  0  0  0
  161.7280  205.8620  144.6060 N   0  0  0  0  0  0  0  0  0  0  0  0
  161.7080  205.4220  147.8040 C   0  0  2  0  0  3  0  0  0  0  0  0
  2  1  1  0  0  0  0
  2  9  2  0  0  0  0
  4  3  1  6  0  0  0
  4  7  1  0  0  0  0
  4  2  1  0  0  0  0
  5  9  1  0  0  0  0
  6  3  1  0  0  0  0
  6 10  2  0  0  0  0
  7 10  1  6  0  0  0
  7  5  1  0  0  0  0
  8 10  1  0  0  0  0
  8 21  1  0  0  0  0
  9 11  1  0  0  0  0
 11 12  1  0  0  0  0
 11 19  1  0  0  0  0
 12 13  1  0  0  0  0
 13 17  2  0  0  0  0
 14 15  1  0  0  0  0
 14 12  2  0  0  0  0
 15 18  2  0  0  0  0
 18 16  1  0  0  0  0
 18 17  1  0  0  0  0
 20 19  1  0  0  0  0
 22 21  1  0  0  0  0
 24 23  2  0  0  0  0
 24 22  1  0  0  0  0
 25 27  1  6  0  0  0
 25 24  1  0  0  0  0
 26 27  1  0  0  0  0
 28 25  1  0  0  0  0
 29 28  1  0  0  0  0
 30 36  1  0  0  0  0
 31 34  1  0  0  0  0
 32 33  1  0  0  0  0
 33 37  1  0  0  0  0
 34 37  1  0  0  0  0
 35 31  1  0  0  0  0
 36 35  1  0  0  0  0
 36 32  1  0  0  0  0
 37 29  1  6  0  0  0
M  END
>  <MODEL>
9

>  <REMARK>
 VINA RESULT:      -7.1      4.839      8.775
  Name = 
  11 active torsions:
  status: ('A' for Active; 'I' for Inactive)
    1  A    between atoms: C_3  and  N_11
    2  A    between atoms: N_4  and  CA_30
    3  A    between atoms: N_4  and  C_37
    4  A    between atoms: C_7  and  N_11
    5  A    between atoms: N_11  and  C_29
    6  A    between atoms: C_13  and  N_24
    7  A    between atoms: C_13  and  C_34
    8  A    between atoms: C_26  and  CA_30
    9  A    between atoms: CA_30  and  C_33
   10  A    between atoms: C_33  and  C_34
   11  A    between atoms: C_36  and  C_37
                            x       y       z     vdW  Elec       q    Type
                         _______ _______ _______ _____ _____    ______ ____

>  <TORSDO>
F 11

$$$$
