=
 OpenBabel11072411123D

 30 33  0  0  1  0  0  0  0  0999 V2000
  160.0340  208.3040  156.6490 O   0  0  0  0  0  0  0  0  0  0  0  0
  159.7610  207.0060  156.1190 C   0  0  0  0  0  2  0  0  0  0  0  0
  161.2430  208.6880  156.0360 C   0  0  2  0  0  3  0  0  0  0  0  0
  161.5880  210.1650  154.0760 C   0  0  2  0  0  3  0  0  0  0  0  0
  160.4180  206.8940  154.8620 O   0  0  0  0  0  0  0  0  0  0  0  0
  161.4890  208.7080  153.6830 C   0  0  0  0  0  0  0  0  0  0  0  0
  161.2870  210.0930  155.5500 C   0  0  0  0  0  0  0  0  0  0  0  0
  161.1850  211.0670  156.2790 O   0  0  0  0  0  0  0  0  0  0  0  0
  161.1980  208.0020  154.7690 C   0  0  1  0  0  3  0  0  0  0  0  0
  161.1660  206.7200  152.0270 C   0  0  2  0  0  3  0  0  0  0  0  0
  160.2810  205.3450  150.2770 O   0  0  0  0  0  0  0  0  0  0  0  0
  162.3710  205.8910  152.4420 C   0  0  0  0  0  1  0  0  0  0  0  0
  161.7130  209.0250  151.2720 C   0  0  0  0  0  2  0  0  0  0  0  0
  160.8380  206.4300  150.5880 C   0  0  0  0  0  0  0  0  0  0  0  0
  161.4390  208.1910  152.2890 C   0  0  0  0  0  0  0  0  0  0  0  0
  161.2140  207.3820  149.5370 C   0  0  0  0  0  3  0  0  0  0  0  0
  161.6410  208.5990  149.8640 C   0  0  0  0  0  3  0  0  0  0  0  0
  157.6710  213.4020  151.4930 O   0  0  0  0  0  1  0  0  0  0  0  0
  159.8980  212.4680  151.5370 C   0  0  0  0  0  0  0  0  0  0  0  0
  160.8620  211.6720  152.1660 C   0  0  0  0  0  3  0  0  0  0  0  0
  158.3240  211.9600  153.3230 C   0  0  0  0  0  0  0  0  0  0  0  0
  158.6290  212.6100  152.1170 C   0  0  0  0  0  0  0  0  0  0  0  0
  159.3010  211.1660  153.9400 C   0  0  0  0  0  3  0  0  0  0  0  0
  160.5680  211.0190  153.3720 C   0  0  0  0  0  0  0  0  0  0  0  0
  157.5300  214.0320  155.3620 O   0  0  0  0  0  1  0  0  0  0  0  0
  156.6250  213.1000  154.8690 C   0  0  0  0  0  0  0  0  0  0  0  0
  155.4380  213.1150  155.2830 O   0  0  0  0  0  0  0  0  0  0  0  0
  157.0180  212.1230  153.8960 N   0  0  0  0  0  2  0  0  0  0  0  0
  160.1870  213.1200  150.3380 O   0  0  0  0  0  0  0  0  0  0  0  0
  161.0490  212.5990  149.4540 O   0  0  0  0  0  1  0  0  0  0  0  0
  2  1  1  0  0  0  0
  3  7  1  6  0  0  0
  3  1  1  0  0  0  0
  4 24  1  6  0  0  0
  4  7  1  0  0  0  0
  5  2  1  0  0  0  0
  6  4  1  0  0  0  0
  7  8  2  0  0  0  0
  9  6  1  6  0  0  0
  9  5  1  0  0  0  0
  9  3  1  0  0  0  0
 10 15  1  0  0  0  0
 10 12  1  6  0  0  0
 11 14  2  0  0  0  0
 13 15  1  0  0  0  0
 14 10  1  0  0  0  0
 15  6  2  0  0  0  0
 16 17  2  0  0  0  0
 16 14  1  0  0  0  0
 17 13  1  0  0  0  0
 18 22  1  0  0  0  0
 19 22  2  0  0  0  0
 19 20  1  0  0  0  0
 20 24  2  0  0  0  0
 21 28  1  0  0  0  0
 21 23  2  0  0  0  0
 22 21  1  0  0  0  0
 24 23  1  0  0  0  0
 26 27  2  0  0  0  0
 26 25  1  0  0  0  0
 28 26  1  0  0  0  0
 29 19  1  0  0  0  0
 30 29  1  0  0  0  0
M  END
>  <MODEL>
1

>  <REMARK>
 VINA RESULT:      -6.8      0.000      0.000
  Name = 
  4 active torsions:
  status: ('A' for Active; 'I' for Inactive)
    1  A    between atoms: O_6  and  C_14
    2  A    between atoms: C_12  and  C_29
    3  A    between atoms: C_16  and  C_18
    4  A    between atoms: C_19  and  N_30
                            x       y       z     vdW  Elec       q    Type
                         _______ _______ _______ _____ _____    ______ ____

>  <TORSDO>
F 4

$$$$
=
 OpenBabel11072411123D

 30 33  0  0  1  0  0  0  0  0999 V2000
  160.1230  208.3230  156.6940 O   0  0  0  0  0  0  0  0  0  0  0  0
  159.8740  207.0100  156.1880 C   0  0  0  0  0  2  0  0  0  0  0  0
  161.3070  208.7300  156.0470 C   0  0  2  0  0  3  0  0  0  0  0  0
  161.5680  210.1860  154.0590 C   0  0  2  0  0  3  0  0  0  0  0  0
  160.5050  206.8970  154.9180 O   0  0  0  0  0  0  0  0  0  0  0  0
  161.5000  208.7210  153.6890 C   0  0  0  0  0  0  0  0  0  0  0  0
  161.3030  210.1270  155.5400 C   0  0  0  0  0  0  0  0  0  0  0  0
  161.1910  211.1100  156.2570 O   0  0  0  0  0  0  0  0  0  0  0  0
  161.2530  208.0230  154.7920 C   0  0  1  0  0  3  0  0  0  0  0  0
  161.1820  206.7030  152.0700 C   0  0  2  0  0  3  0  0  0  0  0  0
  160.2880  205.2860  150.3580 O   0  0  0  0  0  0  0  0  0  0  0  0
  162.4090  205.9010  152.4740 C   0  0  0  0  0  1  0  0  0  0  0  0
  161.6720  209.0050  151.2700 C   0  0  0  0  0  2  0  0  0  0  0  0
  160.8310  206.3850  150.6410 C   0  0  0  0  0  0  0  0  0  0  0  0
  161.4330  208.1830  152.3040 C   0  0  0  0  0  0  0  0  0  0  0  0
  161.1700  207.3280  149.5690 C   0  0  0  0  0  3  0  0  0  0  0  0
  161.5810  208.5570  149.8700 C   0  0  0  0  0  3  0  0  0  0  0  0
  157.6210  213.2900  151.3630 O   0  0  0  0  0  1  0  0  0  0  0  0
  158.2020  211.7240  153.1060 C   0  0  0  0  0  0  0  0  0  0  0  0
  159.1680  210.9610  153.7740 C   0  0  0  0  0  3  0  0  0  0  0  0
  159.9220  212.5820  151.6130 C   0  0  0  0  0  0  0  0  0  0  0  0
  158.5810  212.5330  152.0260 C   0  0  0  0  0  0  0  0  0  0  0  0
  160.8770  211.8130  152.2910 C   0  0  0  0  0  3  0  0  0  0  0  0
  160.5100  211.0020  153.3670 C   0  0  0  0  0  0  0  0  0  0  0  0
  161.5810  211.7560  149.2360 O   0  0  0  0  0  1  0  0  0  0  0  0
  161.0740  213.0420  149.3680 C   0  0  0  0  0  0  0  0  0  0  0  0
  161.3120  213.8930  148.4740 O   0  0  0  0  0  0  0  0  0  0  0  0
  160.2820  213.4190  150.5030 N   0  0  0  0  0  2  0  0  0  0  0  0
  156.8660  211.6850  153.5070 O   0  0  0  0  0  0  0  0  0  0  0  0
  156.5130  211.1990  154.7050 O   0  0  0  0  0  1  0  0  0  0  0  0
  2  1  1  0  0  0  0
  3  7  1  6  0  0  0
  3  1  1  0  0  0  0
  4 24  1  6  0  0  0
  4  7  1  0  0  0  0
  5  2  1  0  0  0  0
  6  4  1  0  0  0  0
  7  8  2  0  0  0  0
  9  6  1  6  0  0  0
  9  5  1  0  0  0  0
  9  3  1  0  0  0  0
 10 15  1  0  0  0  0
 10 12  1  6  0  0  0
 11 14  2  0  0  0  0
 13 15  1  0  0  0  0
 14 10  1  0  0  0  0
 15  6  2  0  0  0  0
 16 17  2  0  0  0  0
 16 14  1  0  0  0  0
 17 13  1  0  0  0  0
 18 22  1  0  0  0  0
 19 29  1  0  0  0  0
 19 20  1  0  0  0  0
 21 22  1  0  0  0  0
 21 23  2  0  0  0  0
 22 19  2  0  0  0  0
 23 24  1  0  0  0  0
 24 20  2  0  0  0  0
 25 26  1  0  0  0  0
 26 28  1  0  0  0  0
 27 26  2  0  0  0  0
 28 21  1  0  0  0  0
 29 30  1  0  0  0  0
M  END
>  <MODEL>
2

>  <REMARK>
 VINA RESULT:      -6.5      1.321      3.221
  Name = 
  4 active torsions:
  status: ('A' for Active; 'I' for Inactive)
    1  A    between atoms: O_6  and  C_14
    2  A    between atoms: C_12  and  C_29
    3  A    between atoms: C_16  and  C_18
    4  A    between atoms: C_19  and  N_30
                            x       y       z     vdW  Elec       q    Type
                         _______ _______ _______ _____ _____    ______ ____

>  <TORSDO>
F 4

$$$$
=
 OpenBabel11072411123D

 30 33  0  0  1  0  0  0  0  0999 V2000
  162.8290  210.0010  157.0840 O   0  0  0  0  0  0  0  0  0  0  0  0
  162.6150  211.4120  157.1560 C   0  0  0  0  0  2  0  0  0  0  0  0
  161.5340  209.4540  156.9900 C   0  0  2  0  0  3  0  0  0  0  0  0
  160.3170  208.6830  154.9740 C   0  0  2  0  0  3  0  0  0  0  0  0
  161.3610  211.7020  156.5500 O   0  0  0  0  0  0  0  0  0  0  0  0
  160.0190  210.1290  155.3020 C   0  0  1  0  0  3  0  0  0  0  0  0
  161.3790  208.3630  155.9920 C   0  0  0  0  0  0  0  0  0  0  0  0
  161.9760  207.2990  156.0500 O   0  0  0  0  0  0  0  0  0  0  0  0
  160.7880  210.4910  156.3230 C   0  0  1  0  0  3  0  0  0  0  0  0
  158.0910  211.8680  155.0660 C   0  0  2  0  0  3  0  0  0  0  0  0
  156.9200  213.9140  154.6430 O   0  0  0  0  0  0  0  0  0  0  0  0
  156.9250  210.9500  155.3970 C   0  0  0  0  0  1  0  0  0  0  0  0
  159.4750  211.1220  153.1400 C   0  0  0  0  0  3  0  0  0  0  0  0
  157.6100  212.9750  154.1680 C   0  0  0  0  0  0  0  0  0  0  0  0
  159.2260  211.0610  154.4580 C   0  0  0  0  0  0  0  0  0  0  0  0
  157.8940  212.9360  152.7290 C   0  0  0  0  0  3  0  0  0  0  0  0
  158.7620  212.0510  152.2460 C   0  0  0  0  0  3  0  0  0  0  0  0
  162.3010  207.9550  149.6800 O   0  0  0  0  0  1  0  0  0  0  0  0
  162.0420  209.3560  151.6310 C   0  0  0  0  0  0  0  0  0  0  0  0
  161.5590  209.5390  152.9320 C   0  0  0  0  0  3  0  0  0  0  0  0
  161.1210  207.1030  151.6130 C   0  0  0  0  0  0  0  0  0  0  0  0
  161.8220  208.1370  150.9740 C   0  0  0  0  0  0  0  0  0  0  0  0
  160.6440  207.3010  152.9160 C   0  0  0  0  0  3  0  0  0  0  0  0
  160.8560  208.5110  153.5790 C   0  0  0  0  0  0  0  0  0  0  0  0
  161.1980  204.3480  152.8330 O   0  0  0  0  0  1  0  0  0  0  0  0
  160.9460  204.5480  151.4810 C   0  0  0  0  0  0  0  0  0  0  0  0
  160.7460  203.5530  150.7380 O   0  0  0  0  0  0  0  0  0  0  0  0
  160.9090  205.8650  150.9170 N   0  0  0  0  0  2  0  0  0  0  0  0
  162.7410  210.3750  150.9830 O   0  0  0  0  0  0  0  0  0  0  0  0
  162.1940  211.0540  149.9650 O   0  0  0  0  0  1  0  0  0  0  0  0
  1  2  1  0  0  0  0
  3  7  1  6  0  0  0
  3  1  1  0  0  0  0
  4 24  1  6  0  0  0
  4  6  1  0  0  0  0
  4  7  1  0  0  0  0
  5  2  1  0  0  0  0
  6 15  1  6  0  0  0
  6  9  1  0  0  0  0
  7  8  2  0  0  0  0
  9  5  1  6  0  0  0
  9  3  1  0  0  0  0
 10 12  1  6  0  0  0
 13 15  2  0  0  0  0
 14 11  2  0  0  0  0
 14 10  1  0  0  0  0
 15 10  1  0  0  0  0
 16 14  1  0  0  0  0
 17 16  2  0  0  0  0
 17 13  1  0  0  0  0
 18 22  1  0  0  0  0
 19 20  1  0  0  0  0
 20 24  2  0  0  0  0
 21 23  2  0  0  0  0
 22 21  1  0  0  0  0
 22 19  2  0  0  0  0
 23 24  1  0  0  0  0
 26 25  1  0  0  0  0
 27 26  2  0  0  0  0
 28 26  1  0  0  0  0
 28 21  1  0  0  0  0
 29 19  1  0  0  0  0
 30 29  1  0  0  0  0
M  END
>  <MODEL>
3

>  <REMARK>
 VINA RESULT:      -6.1      2.184      6.047
  Name = 
  4 active torsions:
  status: ('A' for Active; 'I' for Inactive)
    1  A    between atoms: O_6  and  C_14
    2  A    between atoms: C_12  and  C_29
    3  A    between atoms: C_16  and  C_18
    4  A    between atoms: C_19  and  N_30
                            x       y       z     vdW  Elec       q    Type
                         _______ _______ _______ _____ _____    ______ ____

>  <TORSDO>
F 4

$$$$
=
 OpenBabel11072411123D

 30 33  0  0  1  0  0  0  0  0999 V2000
  160.0780  211.8670  150.2870 O   0  0  0  0  0  0  0  0  0  0  0  0
  159.1360  212.1240  151.3300 C   0  0  0  0  0  2  0  0  0  0  0  0
  161.2800  211.5750  150.9620 C   0  0  2  0  0  3  0  0  0  0  0  0
  162.2760  209.3640  151.4730 C   0  0  2  0  0  3  0  0  0  0  0  0
  159.5820  211.4540  152.5040 O   0  0  0  0  0  0  0  0  0  0  0  0
  161.4030  209.8710  152.5990 C   0  0  1  0  0  3  0  0  0  0  0  0
  162.0430  210.4190  150.4230 C   0  0  0  0  0  0  0  0  0  0  0  0
  162.5040  210.3760  149.2920 O   0  0  0  0  0  0  0  0  0  0  0  0
  160.8270  211.0010  152.2040 C   0  0  1  0  0  3  0  0  0  0  0  0
  160.9330  209.7990  155.1620 C   0  0  2  0  0  3  0  0  0  0  0  0
  159.8050  209.5040  157.2550 O   0  0  0  0  0  0  0  0  0  0  0  0
  162.3230  210.1710  155.6520 C   0  0  0  0  0  1  0  0  0  0  0  0
  160.8560  207.7740  153.7210 C   0  0  0  0  0  3  0  0  0  0  0  0
  160.2470  208.9620  156.2080 C   0  0  0  0  0  0  0  0  0  0  0  0
  161.0300  209.1020  153.8150 C   0  0  0  0  0  0  0  0  0  0  0  0
  160.1400  207.5090  156.0400 C   0  0  0  0  0  3  0  0  0  0  0  0
  160.4430  206.9500  154.8710 C   0  0  0  0  0  3  0  0  0  0  0  0
  160.6050  204.2930  149.4790 O   0  0  0  0  0  1  0  0  0  0  0  0
  161.6220  205.6070  151.2320 C   0  0  0  0  0  0  0  0  0  0  0  0
  162.0320  206.8500  151.7270 C   0  0  0  0  0  3  0  0  0  0  0  0
  160.8110  206.6890  149.2070 C   0  0  0  0  0  0  0  0  0  0  0  0
  161.0120  205.5290  149.9720 C   0  0  0  0  0  0  0  0  0  0  0  0
  161.2270  207.9260  149.7180 C   0  0  0  0  0  3  0  0  0  0  0  0
  161.8370  208.0160  150.9700 C   0  0  0  0  0  0  0  0  0  0  0  0
  162.1910  206.0010  146.6180 O   0  0  0  0  0  1  0  0  0  0  0  0
  160.8270  206.2580  146.6790 C   0  0  0  0  0  0  0  0  0  0  0  0
  160.1420  206.2060  145.6260 O   0  0  0  0  0  0  0  0  0  0  0  0
  160.1850  206.5800  147.9200 N   0  0  0  0  0  2  0  0  0  0  0  0
  161.8140  204.4450  151.9810 O   0  0  0  0  0  0  0  0  0  0  0  0
  160.8450  203.9560  152.7660 O   0  0  0  0  0  1  0  0  0  0  0  0
  1  2  1  0  0  0  0
  2  5  1  0  0  0  0
  3  1  1  6  0  0  0
  3  9  1  0  0  0  0
  4 24  1  6  0  0  0
  4  6  1  0  0  0  0
  6 15  1  6  0  0  0
  7  3  1  0  0  0  0
  7  4  1  0  0  0  0
  8  7  2  0  0  0  0
  9  5  1  6  0  0  0
  9  6  1  0  0  0  0
 10 12  1  1  0  0  0
 10 14  1  0  0  0  0
 13 15  2  0  0  0  0
 13 17  1  0  0  0  0
 14 11  2  0  0  0  0
 15 10  1  0  0  0  0
 16 14  1  0  0  0  0
 17 16  2  0  0  0  0
 18 22  1  0  0  0  0
 19 20  1  0  0  0  0
 19 29  1  0  0  0  0
 21 23  2  0  0  0  0
 21 22  1  0  0  0  0
 22 19  2  0  0  0  0
 23 24  1  0  0  0  0
 24 20  2  0  0  0  0
 25 26  1  0  0  0  0
 26 28  1  0  0  0  0
 27 26  2  0  0  0  0
 28 21  1  0  0  0  0
 29 30  1  0  0  0  0
M  END
>  <MODEL>
4

>  <REMARK>
 VINA RESULT:      -6.0      2.600      7.154
  Name = 
  4 active torsions:
  status: ('A' for Active; 'I' for Inactive)
    1  A    between atoms: O_6  and  C_14
    2  A    between atoms: C_12  and  C_29
    3  A    between atoms: C_16  and  C_18
    4  A    between atoms: C_19  and  N_30
                            x       y       z     vdW  Elec       q    Type
                         _______ _______ _______ _____ _____    ______ ____

>  <TORSDO>
F 4

$$$$
=
 OpenBabel11072411123D

 30 33  0  0  1  0  0  0  0  0999 V2000
  162.7150  205.3700  145.2580 O   0  0  0  0  0  0  0  0  0  0  0  0
  163.4560  204.2080  145.6360 C   0  0  0  0  0  2  0  0  0  0  0  0
  161.4090  205.1220  145.7250 C   0  0  2  0  0  3  0  0  0  0  0  0
  160.3200  205.9390  147.7960 C   0  0  2  0  0  3  0  0  0  0  0  0
  162.8010  203.6080  146.7480 O   0  0  0  0  0  0  0  0  0  0  0  0
  160.9800  204.5920  147.9900 C   0  0  1  0  0  3  0  0  0  0  0  0
  160.7460  206.2740  146.3900 C   0  0  0  0  0  0  0  0  0  0  0  0
  160.4950  207.3300  145.8300 O   0  0  0  0  0  0  0  0  0  0  0  0
  161.6270  204.2790  146.8740 C   0  0  1  0  0  3  0  0  0  0  0  0
  160.9040  202.3790  149.3660 C   0  0  2  0  0  3  0  0  0  0  0  0
  161.5780  200.5380  150.7430 O   0  0  0  0  0  0  0  0  0  0  0  0
  159.4270  202.0630  149.1930 C   0  0  0  0  0  1  0  0  0  0  0  0
  161.3710  204.5910  150.4000 C   0  0  0  0  0  3  0  0  0  0  0  0
  161.3900  201.7800  150.6580 C   0  0  0  0  0  0  0  0  0  0  0  0
  161.1220  203.8800  149.2880 C   0  0  0  0  0  0  0  0  0  0  0  0
  161.5940  202.6300  151.8370 C   0  0  0  0  0  3  0  0  0  0  0  0
  161.5680  203.9540  151.7140 C   0  0  0  0  0  3  0  0  0  0  0  0
  162.2740  209.9160  151.3790 O   0  0  0  0  0  1  0  0  0  0  0  0
  161.0550  207.8640  151.0140 C   0  0  0  0  0  0  0  0  0  0  0  0
  160.5750  206.8830  150.1380 C   0  0  0  0  0  3  0  0  0  0  0  0
  162.0600  209.0390  149.1340 C   0  0  0  0  0  0  0  0  0  0  0  0
  161.7980  208.9410  150.5090 C   0  0  0  0  0  0  0  0  0  0  0  0
  161.5730  208.0490  148.2700 C   0  0  0  0  0  3  0  0  0  0  0  0
  160.8310  206.9730  148.7610 C   0  0  0  0  0  0  0  0  0  0  0  0
  160.9570  211.7310  148.3450 O   0  0  0  0  0  1  0  0  0  0  0  0
  162.3120  211.4370  148.2610 C   0  0  0  0  0  0  0  0  0  0  0  0
  163.1080  212.3160  147.8420 O   0  0  0  0  0  0  0  0  0  0  0  0
  162.8220  210.1540  148.6440 N   0  0  0  0  0  2  0  0  0  0  0  0
  160.8020  207.7790  152.3830 O   0  0  0  0  0  0  0  0  0  0  0  0
  161.5830  207.0470  153.1900 O   0  0  0  0  0  1  0  0  0  0  0  0
  1  2  1  0  0  0  0
  2  5  1  0  0  0  0
  3  1  1  1  0  0  0
  3  7  1  0  0  0  0
  3  9  1  0  0  0  0
  4  6  1  0  0  0  0
  4 24  1  1  0  0  0
  6 15  1  1  0  0  0
  7  4  1  0  0  0  0
  8  7  2  0  0  0  0
  9  5  1  1  0  0  0
  9  6  1  0  0  0  0
 10 12  1  1  0  0  0
 10 14  1  0  0  0  0
 13 17  1  0  0  0  0
 14 11  2  0  0  0  0
 14 16  1  0  0  0  0
 15 10  1  0  0  0  0
 15 13  2  0  0  0  0
 17 16  2  0  0  0  0
 19 29  1  0  0  0  0
 20 19  2  0  0  0  0
 21 22  2  0  0  0  0
 22 19  1  0  0  0  0
 22 18  1  0  0  0  0
 23 24  2  0  0  0  0
 23 21  1  0  0  0  0
 24 20  1  0  0  0  0
 26 25  1  0  0  0  0
 26 28  1  0  0  0  0
 27 26  2  0  0  0  0
 28 21  1  0  0  0  0
 29 30  1  0  0  0  0
M  END
>  <MODEL>
5

>  <REMARK>
 VINA RESULT:      -5.9      4.415      7.596
  Name = 
  4 active torsions:
  status: ('A' for Active; 'I' for Inactive)
    1  A    between atoms: O_6  and  C_14
    2  A    between atoms: C_12  and  C_29
    3  A    between atoms: C_16  and  C_18
    4  A    between atoms: C_19  and  N_30
                            x       y       z     vdW  Elec       q    Type
                         _______ _______ _______ _____ _____    ______ ____

>  <TORSDO>
F 4

$$$$
=
 OpenBabel11072411123D

 30 33  0  0  1  0  0  0  0  0999 V2000
  162.8680  205.3910  145.2610 O   0  0  0  0  0  0  0  0  0  0  0  0
  163.6200  204.2360  145.6380 C   0  0  0  0  0  2  0  0  0  0  0  0
  161.5490  205.0990  145.6600 C   0  0  2  0  0  3  0  0  0  0  0  0
  160.3490  205.8280  147.7030 C   0  0  2  0  0  3  0  0  0  0  0  0
  162.9320  203.5880  146.7010 O   0  0  0  0  0  0  0  0  0  0  0  0
  161.0330  204.4920  147.8880 C   0  0  1  0  0  3  0  0  0  0  0  0
  160.8290  206.2150  146.3290 C   0  0  0  0  0  0  0  0  0  0  0  0
  160.5780  207.2810  145.7890 O   0  0  0  0  0  0  0  0  0  0  0  0
  161.7370  204.2270  146.7930 C   0  0  1  0  0  3  0  0  0  0  0  0
  160.8350  202.2560  149.2140 C   0  0  2  0  0  3  0  0  0  0  0  0
  161.4070  200.3520  150.5510 O   0  0  0  0  0  0  0  0  0  0  0  0
  159.3430  202.0240  149.0350 C   0  0  0  0  0  1  0  0  0  0  0  0
  161.4200  204.4160  150.2970 C   0  0  0  0  0  3  0  0  0  0  0  0
  161.2860  201.6030  150.4930 C   0  0  0  0  0  0  0  0  0  0  0  0
  161.1350  203.7450  149.1700 C   0  0  0  0  0  0  0  0  0  0  0  0
  161.5350  202.4150  151.6900 C   0  0  0  0  0  3  0  0  0  0  0  0
  161.5810  203.7410  151.5970 C   0  0  0  0  0  3  0  0  0  0  0  0
  162.0040  209.6150  151.6280 O   0  0  0  0  0  1  0  0  0  0  0  0
  161.9560  208.8920  149.3240 C   0  0  0  0  0  0  0  0  0  0  0  0
  161.5500  207.9660  148.3560 C   0  0  0  0  0  3  0  0  0  0  0  0
  160.8390  207.5760  151.0400 C   0  0  0  0  0  0  0  0  0  0  0  0
  161.6000  208.6950  150.6650 C   0  0  0  0  0  0  0  0  0  0  0  0
  160.4400  206.6590  150.0580 C   0  0  0  0  0  3  0  0  0  0  0  0
  160.7910  206.8440  148.7200 C   0  0  0  0  0  0  0  0  0  0  0  0
  162.5260  206.2180  153.1360 O   0  0  0  0  0  0  0  0  0  0  0  0
  161.2770  206.7520  153.4280 C   0  0  0  0  0  0  0  0  0  0  0  0
  160.8300  206.6670  154.6010 O   0  0  0  0  0  1  0  0  0  0  0  0
  160.4880  207.3980  152.4210 N   0  0  0  0  0  2  0  0  0  0  0  0
  162.7120  210.0090  148.9660 O   0  0  0  0  0  0  0  0  0  0  0  0
  162.1290  211.1230  148.5020 O   0  0  0  0  0  1  0  0  0  0  0  0
  1  2  1  0  0  0  0
  2  5  1  0  0  0  0
  3  1  1  1  0  0  0
  3  7  1  0  0  0  0
  3  9  1  0  0  0  0
  4  6  1  0  0  0  0
  4 24  1  1  0  0  0
  6 15  1  1  0  0  0
  7  4  1  0  0  0  0
  8  7  2  0  0  0  0
  9  5  1  1  0  0  0
  9  6  1  0  0  0  0
 10 12  1  1  0  0  0
 10 14  1  0  0  0  0
 13 17  1  0  0  0  0
 14 11  2  0  0  0  0
 14 16  1  0  0  0  0
 15 10  1  0  0  0  0
 15 13  2  0  0  0  0
 17 16  2  0  0  0  0
 19 22  1  0  0  0  0
 20 24  1  0  0  0  0
 20 19  2  0  0  0  0
 21 28  1  0  0  0  0
 22 21  2  0  0  0  0
 22 18  1  0  0  0  0
 23 21  1  0  0  0  0
 24 23  2  0  0  0  0
 25 26  2  0  0  0  0
 26 27  1  0  0  0  0
 28 26  1  0  0  0  0
 29 19  1  0  0  0  0
 30 29  1  0  0  0  0
M  END
>  <MODEL>
6

>  <REMARK>
 VINA RESULT:      -5.7      4.075      7.352
  Name = 
  4 active torsions:
  status: ('A' for Active; 'I' for Inactive)
    1  A    between atoms: O_6  and  C_14
    2  A    between atoms: C_12  and  C_29
    3  A    between atoms: C_16  and  C_18
    4  A    between atoms: C_19  and  N_30
                            x       y       z     vdW  Elec       q    Type
                         _______ _______ _______ _____ _____    ______ ____

>  <TORSDO>
F 4

$$$$
=
 OpenBabel11072411123D

 30 33  0  0  1  0  0  0  0  0999 V2000
  158.7240  212.3030  151.6480 O   0  0  0  0  0  0  0  0  0  0  0  0
  158.0180  212.3210  152.8900 C   0  0  0  0  0  2  0  0  0  0  0  0
  160.0810  212.4180  152.0140 C   0  0  2  0  0  3  0  0  0  0  0  0
  161.7870  210.6330  152.2270 C   0  0  2  0  0  3  0  0  0  0  0  0
  158.9040  211.8750  153.9100 O   0  0  0  0  0  0  0  0  0  0  0  0
  161.0870  210.9140  153.5380 C   0  0  1  0  0  3  0  0  0  0  0  0
  161.0100  211.5150  151.2850 C   0  0  0  0  0  0  0  0  0  0  0  0
  161.1870  211.5540  150.0770 O   0  0  0  0  0  0  0  0  0  0  0  0
  160.1220  211.7990  153.3150 C   0  0  1  0  0  3  0  0  0  0  0  0
  160.1810  209.1550  155.2350 C   0  0  2  0  0  3  0  0  0  0  0  0
  159.9970  207.1770  156.5720 O   0  0  0  0  0  0  0  0  0  0  0  0
  158.9540  209.9190  155.7090 C   0  0  0  0  0  1  0  0  0  0  0  0
  162.3330  210.3560  155.5620 C   0  0  0  0  0  3  0  0  0  0  0  0
  160.6410  208.2300  156.3290 C   0  0  0  0  0  0  0  0  0  0  0  0
  161.2560  210.1320  154.7910 C   0  0  0  0  0  0  0  0  0  0  0  0
  161.8060  208.5790  157.1500 C   0  0  0  0  0  3  0  0  0  0  0  0
  162.5920  209.5910  156.7940 C   0  0  0  0  0  3  0  0  0  0  0  0
  161.4120  205.1870  150.5880 O   0  0  0  0  0  1  0  0  0  0  0  0
  161.0170  206.8900  152.2540 C   0  0  0  0  0  0  0  0  0  0  0  0
  161.1050  208.2270  152.6600 C   0  0  0  0  0  3  0  0  0  0  0  0
  162.0650  207.4730  150.1350 C   0  0  0  0  0  0  0  0  0  0  0  0
  161.4980  206.5160  150.9910 C   0  0  0  0  0  0  0  0  0  0  0  0
  162.1440  208.8080  150.5570 C   0  0  0  0  0  3  0  0  0  0  0  0
  161.6710  209.1910  151.8130 C   0  0  0  0  0  0  0  0  0  0  0  0
  160.3730  206.5780  147.8080 O   0  0  0  0  0  1  0  0  0  0  0  0
  161.7590  206.6310  147.7330 C   0  0  0  0  0  0  0  0  0  0  0  0
  162.3310  206.2940  146.6650 O   0  0  0  0  0  0  0  0  0  0  0  0
  162.5500  207.0630  148.8480 N   0  0  0  0  0  2  0  0  0  0  0  0
  160.4560  205.9280  153.0940 O   0  0  0  0  0  0  0  0  0  0  0  0
  161.2220  205.1650  153.8860 O   0  0  0  0  0  1  0  0  0  0  0  0
  1  3  1  0  0  0  0
  1  2  1  0  0  0  0
  2  5  1  0  0  0  0
  3  7  1  6  0  0  0
  3  9  1  0  0  0  0
  4 24  1  6  0  0  0
  4  6  1  0  0  0  0
  6 15  1  6  0  0  0
  7  4  1  0  0  0  0
  8  7  2  0  0  0  0
  9  6  1  0  0  0  0
  9  5  1  6  0  0  0
 10 12  1  1  0  0  0
 10 14  1  0  0  0  0
 13 17  1  0  0  0  0
 14 11  2  0  0  0  0
 14 16  1  0  0  0  0
 15 10  1  0  0  0  0
 15 13  2  0  0  0  0
 17 16  2  0  0  0  0
 18 22  1  0  0  0  0
 19 20  1  0  0  0  0
 19 29  1  0  0  0  0
 21 23  2  0  0  0  0
 21 22  1  0  0  0  0
 22 19  2  0  0  0  0
 23 24  1  0  0  0  0
 24 20  2  0  0  0  0
 26 25  1  0  0  0  0
 26 28  1  0  0  0  0
 27 26  2  0  0  0  0
 28 21  1  0  0  0  0
 29 30  1  0  0  0  0
M  END
>  <MODEL>
7

>  <REMARK>
 VINA RESULT:      -5.7      2.288      6.780
  Name = 
  4 active torsions:
  status: ('A' for Active; 'I' for Inactive)
    1  A    between atoms: O_6  and  C_14
    2  A    between atoms: C_12  and  C_29
    3  A    between atoms: C_16  and  C_18
    4  A    between atoms: C_19  and  N_30
                            x       y       z     vdW  Elec       q    Type
                         _______ _______ _______ _____ _____    ______ ____

>  <TORSDO>
F 4

$$$$
=
 OpenBabel11072411123D

 30 33  0  0  1  0  0  0  0  0999 V2000
  156.5410  212.0610  155.2660 O   0  0  0  0  0  0  0  0  0  0  0  0
  156.4080  210.6430  155.3790 C   0  0  0  0  0  2  0  0  0  0  0  0
  157.9240  212.2970  155.3970 C   0  0  2  0  0  3  0  0  0  0  0  0
  159.6070  212.6830  153.6200 C   0  0  2  0  0  3  0  0  0  0  0  0
  157.6450  210.0510  155.0010 O   0  0  0  0  0  0  0  0  0  0  0  0
  159.5030  211.2240  154.0000 C   0  0  1  0  0  3  0  0  0  0  0  0
  158.4910  213.2800  154.4370 C   0  0  0  0  0  0  0  0  0  0  0  0
  158.1550  214.4530  154.3870 O   0  0  0  0  0  0  0  0  0  0  0  0
  158.5120  211.0890  154.8730 C   0  0  1  0  0  3  0  0  0  0  0  0
  160.4750  208.8050  154.0500 C   0  0  2  0  0  3  0  0  0  0  0  0
  160.8310  206.4910  153.5430 O   0  0  0  0  0  0  0  0  0  0  0  0
  161.5720  209.0300  155.0800 C   0  0  0  0  0  1  0  0  0  0  0  0
  160.6240  210.2740  152.0500 C   0  0  0  0  0  3  0  0  0  0  0  0
  160.8790  207.6810  153.1350 C   0  0  0  0  0  0  0  0  0  0  0  0
  160.1910  210.1000  153.3090 C   0  0  0  0  0  0  0  0  0  0  0  0
  161.3810  207.9690  151.7860 C   0  0  0  0  0  3  0  0  0  0  0  0
  161.2730  209.1960  151.2840 C   0  0  0  0  0  3  0  0  0  0  0  0
  158.7820  213.5310  148.0440 O   0  0  0  0  0  1  0  0  0  0  0  0
  157.8710  213.1430  150.2470 C   0  0  0  0  0  0  0  0  0  0  0  0
  158.0680  212.9370  151.6170 C   0  0  0  0  0  3  0  0  0  0  0  0
  160.2790  213.3060  149.9320 C   0  0  0  0  0  0  0  0  0  0  0  0
  158.9780  213.3270  149.4060 C   0  0  0  0  0  0  0  0  0  0  0  0
  160.4590  213.0990  151.3070 C   0  0  0  0  0  3  0  0  0  0  0  0
  159.3650  212.9120  152.1520 C   0  0  0  0  0  0  0  0  0  0  0  0
  161.7970  211.1310  148.5010 O   0  0  0  0  0  1  0  0  0  0  0  0
  162.1290  212.4730  148.3650 C   0  0  0  0  0  0  0  0  0  0  0  0
  163.0930  212.7970  147.6240 O   0  0  0  0  0  0  0  0  0  0  0  0
  161.3950  213.4960  149.0490 N   0  0  0  0  0  2  0  0  0  0  0  0
  156.5820  213.1670  149.7100 O   0  0  0  0  0  0  0  0  0  0  0  0
  155.8540  214.2920  149.7020 O   0  0  0  0  0  1  0  0  0  0  0  0
  1  2  1  0  0  0  0
  1  3  1  0  0  0  0
  3  7  1  6  0  0  0
  4 24  1  6  0  0  0
  4  6  1  0  0  0  0
  4  7  1  0  0  0  0
  5  2  1  0  0  0  0
  6 15  1  6  0  0  0
  6  9  1  0  0  0  0
  8  7  2  0  0  0  0
  9  5  1  6  0  0  0
  9  3  1  0  0  0  0
 10 12  1  1  0  0  0
 13 15  2  0  0  0  0
 14 11  2  0  0  0  0
 14 10  1  0  0  0  0
 15 10  1  0  0  0  0
 16 14  1  0  0  0  0
 17 16  2  0  0  0  0
 17 13  1  0  0  0  0
 18 22  1  0  0  0  0
 19 20  1  0  0  0  0
 20 24  2  0  0  0  0
 21 23  2  0  0  0  0
 22 21  1  0  0  0  0
 22 19  2  0  0  0  0
 23 24  1  0  0  0  0
 26 25  1  0  0  0  0
 26 28  1  0  0  0  0
 27 26  2  0  0  0  0
 28 21  1  0  0  0  0
 29 19  1  0  0  0  0
 30 29  1  0  0  0  0
M  END
>  <MODEL>
8

>  <REMARK>
 VINA RESULT:      -5.4      2.232      4.709
  Name = 
  4 active torsions:
  status: ('A' for Active; 'I' for Inactive)
    1  A    between atoms: O_6  and  C_14
    2  A    between atoms: C_12  and  C_29
    3  A    between atoms: C_16  and  C_18
    4  A    between atoms: C_19  and  N_30
                            x       y       z     vdW  Elec       q    Type
                         _______ _______ _______ _____ _____    ______ ____

>  <TORSDO>
F 4

$$$$
=
 OpenBabel11072411123D

 30 33  0  0  1  0  0  0  0  0999 V2000
  158.1110  213.2710  149.5280 O   0  0  0  0  0  0  0  0  0  0  0  0
  156.6950  213.1140  149.6350 C   0  0  0  0  0  2  0  0  0  0  0  0
  158.4580  214.0900  150.6210 C   0  0  2  0  0  3  0  0  0  0  0  0
  159.3840  213.4290  152.8230 C   0  0  2  0  0  3  0  0  0  0  0  0
  156.3290  213.3130  150.9950 O   0  0  0  0  0  0  0  0  0  0  0  0
  157.8740  213.5120  152.8400 C   0  0  1  0  0  3  0  0  0  0  0  0
  159.6750  213.6690  151.3650 C   0  0  0  0  0  0  0  0  0  0  0  0
  160.7900  213.6180  150.8700 O   0  0  0  0  0  0  0  0  0  0  0  0
  157.4560  213.7640  151.6050 C   0  0  1  0  0  3  0  0  0  0  0  0
  156.6000  214.1110  155.0350 C   0  0  2  0  0  3  0  0  0  0  0  0
  154.8270  214.4480  156.6100 O   0  0  0  0  0  0  0  0  0  0  0  0
  157.8030  214.4490  155.9020 C   0  0  0  0  0  1  0  0  0  0  0  0
  156.6310  211.8150  154.0800 C   0  0  0  0  0  3  0  0  0  0  0  0
  155.4780  213.6270  155.9120 C   0  0  0  0  0  0  0  0  0  0  0  0
  157.0000  213.1020  153.9710 C   0  0  0  0  0  0  0  0  0  0  0  0
  155.1740  212.1940  156.0010 C   0  0  0  0  0  3  0  0  0  0  0  0
  155.7320  211.3410  155.1450 C   0  0  0  0  0  3  0  0  0  0  0  0
  161.3080  208.2780  154.3240 O   0  0  0  0  0  1  0  0  0  0  0  0
  160.7380  210.5440  154.9330 C   0  0  0  0  0  0  0  0  0  0  0  0
  160.2640  211.8110  154.5700 C   0  0  0  0  0  3  0  0  0  0  0  0
  160.4610  209.7900  152.6350 C   0  0  0  0  0  0  0  0  0  0  0  0
  160.8360  209.5360  153.9640 C   0  0  0  0  0  0  0  0  0  0  0  0
  159.9870  211.0630  152.2880 C   0  0  0  0  0  3  0  0  0  0  0  0
  159.8880  212.0750  153.2440 C   0  0  0  0  0  0  0  0  0  0  0  0
  162.7880  209.3350  150.7750 O   0  0  0  0  0  1  0  0  0  0  0  0
  161.6690  208.5120  150.7690 C   0  0  0  0  0  0  0  0  0  0  0  0
  161.6180  207.5470  149.9640 O   0  0  0  0  0  0  0  0  0  0  0  0
  160.5720  208.7390  151.6630 N   0  0  0  0  0  2  0  0  0  0  0  0
  161.1140  210.2780  156.2500 O   0  0  0  0  0  0  0  0  0  0  0  0
  160.2700  209.6880  157.1080 O   0  0  0  0  0  1  0  0  0  0  0  0
  1  2  1  0  0  0  0
  2  5  1  0  0  0  0
  3  1  1  6  0  0  0
  3  7  1  0  0  0  0
  3  9  1  0  0  0  0
  4  6  1  0  0  0  0
  4 24  1  6  0  0  0
  6 15  1  6  0  0  0
  7  4  1  0  0  0  0
  8  7  2  0  0  0  0
  9  5  1  6  0  0  0
  9  6  1  0  0  0  0
 10 12  1  1  0  0  0
 10 14  1  0  0  0  0
 13 17  1  0  0  0  0
 14 16  1  0  0  0  0
 14 11  2  0  0  0  0
 15 13  2  0  0  0  0
 15 10  1  0  0  0  0
 17 16  2  0  0  0  0
 19 29  1  0  0  0  0
 20 19  1  0  0  0  0
 21 22  1  0  0  0  0
 22 18  1  0  0  0  0
 22 19  2  0  0  0  0
 23 21  2  0  0  0  0
 23 24  1  0  0  0  0
 24 20  2  0  0  0  0
 26 25  1  0  0  0  0
 26 28  1  0  0  0  0
 27 26  2  0  0  0  0
 28 21  1  0  0  0  0
 29 30  1  0  0  0  0
M  END
>  <MODEL>
9

>  <REMARK>
 VINA RESULT:      -5.1      2.017      7.468
  Name = 
  4 active torsions:
  status: ('A' for Active; 'I' for Inactive)
    1  A    between atoms: O_6  and  C_14
    2  A    between atoms: C_12  and  C_29
    3  A    between atoms: C_16  and  C_18
    4  A    between atoms: C_19  and  N_30
                            x       y       z     vdW  Elec       q    Type
                         _______ _______ _______ _____ _____    ______ ____

>  <TORSDO>
F 4

$$$$
