=
 OpenBabel11072413543D

 46 49  0  0  1  0  0  0  0  0999 V2000
  161.9350  209.1310  154.3200 N   0  0  0  0  0  2  0  0  0  0  0  0
  161.2870  209.5180  153.0980 C   0  0  0  0  0  0  0  0  0  0  0  0
  160.0560  209.7930  153.0810 O   0  0  0  0  0  0  0  0  0  0  0  0
  162.0340  208.5540  156.5620 O   0  0  0  0  0  0  0  0  0  0  0  0
  161.3180  208.9380  155.5980 C   0  0  0  0  0  0  0  0  0  0  0  0
  159.5900  210.5900  156.0850 C   0  0  2  0  0  3  0  0  0  0  0  0
  159.8480  209.1610  155.8030 C   0  0  2  0  0  3  0  0  0  0  0  0
  159.5930  209.6260  157.1080 O   0  0  0  0  0  0  0  0  0  0  0  0
  158.1520  210.9340  155.7240 C   0  0  0  0  0  2  0  0  0  0  0  0
  157.9790  212.4180  155.3440 C   0  0  1  0  0  0  0  0  0  0  0  0
  159.6560  213.9230  156.2210 O   0  0  0  0  0  1  0  0  0  0  0  0
  159.3740  213.0380  155.1760 C   0  0  0  0  0  2  0  0  0  0  0  0
  157.2010  212.5510  154.0970 N   0  0  0  0  0  2  0  0  0  0  0  0
  157.4920  213.9280  150.1730 C   0  0  1  0  0  3  0  0  0  0  0  0
  158.5200  212.5410  152.0280 C   0  0  0  0  0  2  0  0  0  0  0  0
  157.0560  213.0990  149.0640 N   0  0  0  0  0  1  0  0  0  0  0  0
  156.8930  214.4530  152.5650 C   0  0  0  0  0  2  0  0  0  0  0  0
  156.3520  214.0600  151.1920 C   0  0  0  0  0  2  0  0  0  0  0  0
  158.7890  213.3600  150.7690 C   0  0  0  0  0  2  0  0  0  0  0  0
  157.8760  213.4090  153.1200 C   0  0  1  0  0  3  0  0  0  0  0  0
  157.2180  213.1620  156.4580 C   0  0  0  0  0  2  0  0  0  0  0  0
  154.7920  213.5890  156.0210 O   0  0  0  0  0  0  0  0  0  0  0  0
  155.4560  211.6890  157.1160 O   0  0  0  0  0  1  0  0  0  0  0  0
  155.7750  212.7760  156.5680 C   0  0  0  0  0  0  0  0  0  0  0  0
  162.0600  209.5460  151.8050 C   0  0  2  0  0  3  0  0  0  0  0  0
  161.9700  210.8860  151.0830 C   0  0  0  0  0  1  0  0  0  0  0  0
  161.5640  208.6250  149.5000 C   0  0  0  0  0  3  0  0  0  0  0  0
  161.2800  206.0400  150.5770 C   0  0  0  0  0  0  0  0  0  0  0  0
  161.1460  206.2440  149.1810 C   0  0  0  0  0  0  0  0  0  0  0  0
  161.2860  207.5420  148.6610 C   0  0  0  0  0  3  0  0  0  0  0  0
  161.6940  208.4250  150.8800 C   0  0  0  0  0  0  0  0  0  0  0  0
  161.5570  207.1380  151.4050 C   0  0  0  0  0  3  0  0  0  0  0  0
  161.1720  204.6970  151.2000 C   0  0  0  0  0  0  0  0  0  0  0  0
  162.1260  204.2410  151.8850 O   0  0  0  0  0  1  0  0  0  0  0  0
  160.0320  203.9150  151.0390 O   0  0  0  0  0  0  0  0  0  0  0  0
  160.8970  205.1480  148.3380 O   0  0  0  0  0  0  0  0  0  0  0  0
  161.5770  204.8500  147.1130 C   0  0  1  0  0  3  0  0  0  0  0  0
  160.2340  201.8620  145.0450 C   0  0  0  0  0  2  0  0  0  0  0  0
  160.8610  200.6870  145.7930 C   0  0  0  0  0  2  0  0  0  0  0  0
  161.1290  201.0610  147.2200 C   0  0  0  0  0  0  0  0  0  0  0  0
  161.3300  203.4380  146.6630 C   0  0  0  0  0  0  0  0  0  0  0  0
  161.1020  203.1100  145.2070 C   0  0  0  0  0  2  0  0  0  0  0  0
  161.1910  200.1660  148.1010 O   0  0  0  0  0  0  0  0  0  0  0  0
  161.3670  202.4670  147.5830 C   0  0  0  0  0  3  0  0  0  0  0  0
  161.3240  205.9050  146.0360 C   0  0  0  0  0  2  0  0  0  0  0  0
  159.9630  205.9520  145.7310 O   0  0  0  0  0  1  0  0  0  0  0  0
  1  5  1  0  0  0  0
  2  1  1  0  0  0  0
  3  2  2  0  0  0  0
  5  4  2  0  0  0  0
  6  9  1  6  0  0  0
  6  8  1  0  0  0  0
  7  5  1  1  0  0  0
  7  6  1  0  0  0  0
  7  8  1  0  0  0  0
 10 12  1  6  0  0  0
 10  9  1  0  0  0  0
 10 21  1  0  0  0  0
 12 11  1  0  0  0  0
 13 10  1  0  0  0  0
 14 16  1  6  0  0  0
 14 19  1  0  0  0  0
 14 18  1  0  0  0  0
 15 20  1  0  0  0  0
 17 20  1  0  0  0  0
 18 17  1  0  0  0  0
 19 15  1  0  0  0  0
 20 13  1  1  0  0  0
 21 24  1  0  0  0  0
 22 24  2  0  0  0  0
 24 23  1  0  0  0  0
 25 26  1  6  0  0  0
 25  2  1  0  0  0  0
 27 31  1  0  0  0  0
 28 33  1  0  0  0  0
 28 32  1  0  0  0  0
 29 28  2  0  0  0  0
 30 29  1  0  0  0  0
 30 27  2  0  0  0  0
 31 32  2  0  0  0  0
 31 25  1  0  0  0  0
 33 34  1  0  0  0  0
 35 33  2  0  0  0  0
 36 29  1  0  0  0  0
 37 45  1  6  0  0  0
 37 36  1  0  0  0  0
 38 42  1  0  0  0  0
 38 39  1  0  0  0  0
 39 40  1  0  0  0  0
 40 44  1  0  0  0  0
 40 43  2  0  0  0  0
 41 37  1  0  0  0  0
 41 44  2  0  0  0  0
 42 41  1  0  0  0  0
 46 45  1  0  0  0  0
M  END
>  <MODEL>
1

>  <REMARK>
 VINA RESULT:      -7.1      0.000      0.000
  Name = 
  15 active torsions:
  status: ('A' for Active; 'I' for Inactive)
    1  A    between atoms: N_1  and  C_38
    2  A    between atoms: N_1  and  C_40
    3  A    between atoms: C_3  and  C_26
    4  A    between atoms: C_5  and  C_16
    5  A    between atoms: O_13  and  C_16
    6  A    between atoms: O_13  and  C_30
    7  A    between atoms: C_15  and  C_16
    8  A    between atoms: C_17  and  C_25
    9  A    between atoms: C_17  and  C_38
   10  A    between atoms: C_20  and  C_27
   11  A    between atoms: C_20  and  C_38
   12  A    between atoms: C_23  and  C_24
   13  A    between atoms: C_23  and  C_33
   14  A    between atoms: C_36  and  C_43
   15  A    between atoms: C_38  and  C_41
                            x       y       z     vdW  Elec       q    Type
                         _______ _______ _______ _____ _____    ______ ____

>  <TORSDO>
F 15

$$$$
=
 OpenBabel11072413543D

 46 49  0  0  1  0  0  0  0  0999 V2000
  159.7330  213.4000  147.7910 N   0  0  0  0  0  2  0  0  0  0  0  0
  160.8600  212.5350  147.5800 C   0  0  0  0  0  0  0  0  0  0  0  0
  160.9460  211.8340  146.5350 O   0  0  0  0  0  0  0  0  0  0  0  0
  157.6590  214.3150  147.3100 O   0  0  0  0  0  0  0  0  0  0  0  0
  158.5820  213.5360  146.9500 C   0  0  0  0  0  0  0  0  0  0  0  0
  159.0570  213.5140  144.5570 C   0  0  2  0  0  3  0  0  0  0  0  0
  158.4460  212.7580  145.6730 C   0  0  2  0  0  3  0  0  0  0  0  0
  157.6640  213.4680  144.7410 O   0  0  0  0  0  0  0  0  0  0  0  0
  159.4470  212.5550  143.4400 C   0  0  0  0  0  2  0  0  0  0  0  0
  160.4820  213.1660  142.4760 C   0  0  1  0  0  0  0  0  0  0  0  0
  162.0140  212.3100  140.8120 O   0  0  0  0  0  1  0  0  0  0  0  0
  161.4800  212.0660  142.0810 C   0  0  0  0  0  2  0  0  0  0  0  0
  159.8200  213.7150  141.2770 N   0  0  0  0  0  2  0  0  0  0  0  0
  156.5010  213.2170  138.8050 C   0  0  1  0  0  3  0  0  0  0  0  0
  157.4550  214.2560  140.9100 C   0  0  0  0  0  2  0  0  0  0  0  0
  156.1530  214.2260  137.8200 N   0  0  0  0  0  1  0  0  0  0  0  0
  158.5200  212.1590  139.8800 C   0  0  0  0  0  2  0  0  0  0  0  0
  157.9610  212.7910  138.6070 C   0  0  0  0  0  2  0  0  0  0  0  0
  156.1960  213.7420  140.2160 C   0  0  0  0  0  2  0  0  0  0  0  0
  158.4910  213.1340  141.0700 C   0  0  1  0  0  3  0  0  0  0  0  0
  161.2350  214.3160  143.1700 C   0  0  0  0  0  2  0  0  0  0  0  0
  162.9510  213.1490  144.5680 O   0  0  0  0  0  1  0  0  0  0  0  0
  163.5920  214.4480  142.7930 O   0  0  0  0  0  0  0  0  0  0  0  0
  162.6590  213.9930  143.5050 C   0  0  0  0  0  0  0  0  0  0  0  0
  161.9290  212.4110  148.6350 C   0  0  2  0  0  3  0  0  0  0  0  0
  163.3310  212.6810  148.0990 C   0  0  0  0  0  1  0  0  0  0  0  0
  162.1550  209.8900  148.7070 C   0  0  0  0  0  3  0  0  0  0  0  0
  161.6660  209.9110  151.4790 C   0  0  0  0  0  0  0  0  0  0  0  0
  161.9350  208.6880  150.8170 C   0  0  0  0  0  0  0  0  0  0  0  0
  162.1710  208.6950  149.4310 C   0  0  0  0  0  3  0  0  0  0  0  0
  161.8880  211.1000  149.3600 C   0  0  0  0  0  0  0  0  0  0  0  0
  161.6520  211.1020  150.7360 C   0  0  0  0  0  3  0  0  0  0  0  0
  161.4320  209.9910  152.9420 C   0  0  0  0  0  0  0  0  0  0  0  0
  160.2690  209.8490  153.4050 O   0  0  0  0  0  0  0  0  0  0  0  0
  162.4780  210.2310  153.8300 O   0  0  0  0  0  1  0  0  0  0  0  0
  161.9800  207.4920  151.5530 O   0  0  0  0  0  0  0  0  0  0  0  0
  160.8760  206.6170  151.8140 C   0  0  1  0  0  3  0  0  0  0  0  0
  161.3060  202.9570  150.6180 C   0  0  0  0  0  2  0  0  0  0  0  0
  160.9020  203.0820  149.1510 C   0  0  0  0  0  2  0  0  0  0  0  0
  161.1380  204.4810  148.6620 C   0  0  0  0  0  0  0  0  0  0  0  0
  160.8880  205.4150  150.9120 C   0  0  0  0  0  0  0  0  0  0  0  0
  160.6050  204.0320  151.4490 C   0  0  0  0  0  2  0  0  0  0  0  0
  161.3240  204.6920  147.4370 O   0  0  0  0  0  0  0  0  0  0  0  0
  161.1060  205.6090  149.6060 C   0  0  0  0  0  3  0  0  0  0  0  0
  160.7360  206.2860  153.3000 C   0  0  0  0  0  2  0  0  0  0  0  0
  161.7610  206.9020  154.0200 O   0  0  0  0  0  1  0  0  0  0  0  0
  2  1  1  0  0  0  0
  2 25  1  0  0  0  0
  3  2  2  0  0  0  0
  5  4  2  0  0  0  0
  5  1  1  0  0  0  0
  6  9  1  6  0  0  0
  6  8  1  0  0  0  0
  6  7  1  0  0  0  0
  7  5  1  1  0  0  0
  8  7  1  0  0  0  0
 10 12  1  6  0  0  0
 10 21  1  0  0  0  0
 10  9  1  0  0  0  0
 11 12  1  0  0  0  0
 13 10  1  0  0  0  0
 14 16  1  6  0  0  0
 14 19  1  0  0  0  0
 15 20  1  0  0  0  0
 17 20  1  0  0  0  0
 18 14  1  0  0  0  0
 18 17  1  0  0  0  0
 19 15  1  0  0  0  0
 20 13  1  6  0  0  0
 21 24  1  0  0  0  0
 23 24  2  0  0  0  0
 24 22  1  0  0  0  0
 25 26  1  6  0  0  0
 25 31  1  0  0  0  0
 27 31  2  0  0  0  0
 27 30  1  0  0  0  0
 28 33  1  0  0  0  0
 29 28  1  0  0  0  0
 29 36  1  0  0  0  0
 30 29  2  0  0  0  0
 31 32  1  0  0  0  0
 32 28  2  0  0  0  0
 33 34  2  0  0  0  0
 33 35  1  0  0  0  0
 36 37  1  0  0  0  0
 37 45  1  1  0  0  0
 38 42  1  0  0  0  0
 39 38  1  0  0  0  0
 40 39  1  0  0  0  0
 40 44  1  0  0  0  0
 41 42  1  0  0  0  0
 41 37  1  0  0  0  0
 43 40  2  0  0  0  0
 44 41  2  0  0  0  0
 45 46  1  0  0  0  0
M  END
>  <MODEL>
2

>  <REMARK>
 VINA RESULT:      -6.7      5.983      9.511
  Name = 
  15 active torsions:
  status: ('A' for Active; 'I' for Inactive)
    1  A    between atoms: N_1  and  C_38
    2  A    between atoms: N_1  and  C_40
    3  A    between atoms: C_3  and  C_26
    4  A    between atoms: C_5  and  C_16
    5  A    between atoms: O_13  and  C_16
    6  A    between atoms: O_13  and  C_30
    7  A    between atoms: C_15  and  C_16
    8  A    between atoms: C_17  and  C_25
    9  A    between atoms: C_17  and  C_38
   10  A    between atoms: C_20  and  C_27
   11  A    between atoms: C_20  and  C_38
   12  A    between atoms: C_23  and  C_24
   13  A    between atoms: C_23  and  C_33
   14  A    between atoms: C_36  and  C_43
   15  A    between atoms: C_38  and  C_41
                            x       y       z     vdW  Elec       q    Type
                         _______ _______ _______ _____ _____    ______ ____

>  <TORSDO>
F 15

$$$$
=
 OpenBabel11072413543D

 46 49  0  0  1  0  0  0  0  0999 V2000
  159.2540  212.7120  148.9300 N   0  0  0  0  0  2  0  0  0  0  0  0
  160.5360  212.9050  149.5470 C   0  0  0  0  0  0  0  0  0  0  0  0
  160.6620  213.6630  150.5470 O   0  0  0  0  0  0  0  0  0  0  0  0
  156.9940  213.1020  148.6000 O   0  0  0  0  0  0  0  0  0  0  0  0
  158.0240  213.3580  149.2790 C   0  0  0  0  0  0  0  0  0  0  0  0
  157.4970  213.6560  151.6420 C   0  0  2  0  0  3  0  0  0  0  0  0
  157.9470  214.3410  150.4100 C   0  0  2  0  0  3  0  0  0  0  0  0
  156.6230  214.4530  150.8810 O   0  0  0  0  0  0  0  0  0  0  0  0
  157.9550  214.4390  152.8640 C   0  0  0  0  0  2  0  0  0  0  0  0
  158.0490  213.5610  154.1260 C   0  0  1  0  0  0  0  0  0  0  0  0
  158.1370  211.3890  153.0660 O   0  0  0  0  0  1  0  0  0  0  0  0
  157.3340  212.2310  153.8420 C   0  0  0  0  0  2  0  0  0  0  0  0
  159.4580  213.3210  154.4930 N   0  0  0  0  0  2  0  0  0  0  0  0
  161.9410  210.5720  156.4040 C   0  0  1  0  0  3  0  0  0  0  0  0
  160.8660  211.3280  154.2370 C   0  0  0  0  0  2  0  0  0  0  0  0
  163.3840  210.7290  156.3690 N   0  0  0  0  0  1  0  0  0  0  0  0
  159.8340  211.9520  156.5040 C   0  0  0  0  0  2  0  0  0  0  0  0
  161.2990  211.8640  156.9260 C   0  0  0  0  0  2  0  0  0  0  0  0
  161.4310  210.1450  155.0190 C   0  0  0  0  0  2  0  0  0  0  0  0
  159.6730  211.9540  154.9750 C   0  0  1  0  0  3  0  0  0  0  0  0
  157.3640  214.2660  155.3120 C   0  0  0  0  0  2  0  0  0  0  0  0
  154.9250  213.8150  155.6400 O   0  0  0  0  0  0  0  0  0  0  0  0
  156.4950  212.4830  156.6460 O   0  0  0  0  0  1  0  0  0  0  0  0
  156.2430  213.4800  155.9190 C   0  0  0  0  0  0  0  0  0  0  0  0
  161.7630  212.2470  148.9700 C   0  0  2  0  0  3  0  0  0  0  0  0
  161.7780  212.2440  147.4450 C   0  0  0  0  0  1  0  0  0  0  0  0
  162.2420  210.6280  150.8570 C   0  0  0  0  0  3  0  0  0  0  0  0
  162.0060  208.4600  149.0770 C   0  0  0  0  0  0  0  0  0  0  0  0
  162.2630  208.2240  150.4500 C   0  0  0  0  0  0  0  0  0  0  0  0
  162.3830  209.3190  151.3240 C   0  0  0  0  0  3  0  0  0  0  0  0
  161.9900  210.8630  149.4990 C   0  0  0  0  0  0  0  0  0  0  0  0
  161.8680  209.7810  148.6240 C   0  0  0  0  0  3  0  0  0  0  0  0
  161.8400  207.3590  148.0960 C   0  0  0  0  0  0  0  0  0  0  0  0
  162.8520  206.8060  147.5900 O   0  0  0  0  0  0  0  0  0  0  0  0
  160.5770  206.9200  147.7090 O   0  0  0  0  0  1  0  0  0  0  0  0
  162.3740  206.9050  150.9210 O   0  0  0  0  0  0  0  0  0  0  0  0
  161.4200  206.2130  151.7350 C   0  0  1  0  0  3  0  0  0  0  0  0
  161.3520  202.3410  151.6340 C   0  0  0  0  0  2  0  0  0  0  0  0
  160.6830  202.0980  150.2830 C   0  0  0  0  0  2  0  0  0  0  0  0
  160.9200  203.2620  149.3670 C   0  0  0  0  0  0  0  0  0  0  0  0
  161.1730  204.8150  151.2440 C   0  0  0  0  0  0  0  0  0  0  0  0
  160.9010  203.6840  152.2080 C   0  0  0  0  0  2  0  0  0  0  0  0
  160.8820  203.0960  148.1220 O   0  0  0  0  0  0  0  0  0  0  0  0
  161.1500  204.6050  149.9230 C   0  0  0  0  0  3  0  0  0  0  0  0
  161.7490  206.3070  153.2250 C   0  0  0  0  0  2  0  0  0  0  0  0
  160.5840  206.5610  153.9510 O   0  0  0  0  0  1  0  0  0  0  0  0
  1  5  1  0  0  0  0
  1  2  1  0  0  0  0
  2  3  2  0  0  0  0
  4  5  2  0  0  0  0
  6  9  1  1  0  0  0
  7  5  1  6  0  0  0
  7  8  1  0  0  0  0
  7  6  1  0  0  0  0
  8  6  1  0  0  0  0
 10  9  1  6  0  0  0
 10 13  1  0  0  0  0
 10 21  1  0  0  0  0
 11 12  1  0  0  0  0
 12 10  1  0  0  0  0
 14 16  1  6  0  0  0
 14 18  1  0  0  0  0
 15 20  1  0  0  0  0
 15 19  1  0  0  0  0
 17 18  1  0  0  0  0
 19 14  1  0  0  0  0
 20 13  1  6  0  0  0
 20 17  1  0  0  0  0
 21 24  1  0  0  0  0
 22 24  2  0  0  0  0
 24 23  1  0  0  0  0
 25 26  1  6  0  0  0
 25 31  1  0  0  0  0
 25  2  1  0  0  0  0
 27 30  1  0  0  0  0
 28 29  1  0  0  0  0
 29 36  1  0  0  0  0
 29 30  2  0  0  0  0
 31 27  2  0  0  0  0
 32 28  2  0  0  0  0
 32 31  1  0  0  0  0
 33 28  1  0  0  0  0
 34 33  2  0  0  0  0
 35 33  1  0  0  0  0
 36 37  1  0  0  0  0
 37 45  1  1  0  0  0
 38 42  1  0  0  0  0
 39 38  1  0  0  0  0
 40 44  1  0  0  0  0
 40 39  1  0  0  0  0
 41 37  1  0  0  0  0
 41 42  1  0  0  0  0
 43 40  2  0  0  0  0
 44 41  2  0  0  0  0
 45 46  1  0  0  0  0
M  END
>  <MODEL>
3

>  <REMARK>
 VINA RESULT:      -6.6      2.310      5.295
  Name = 
  15 active torsions:
  status: ('A' for Active; 'I' for Inactive)
    1  A    between atoms: N_1  and  C_38
    2  A    between atoms: N_1  and  C_40
    3  A    between atoms: C_3  and  C_26
    4  A    between atoms: C_5  and  C_16
    5  A    between atoms: O_13  and  C_16
    6  A    between atoms: O_13  and  C_30
    7  A    between atoms: C_15  and  C_16
    8  A    between atoms: C_17  and  C_25
    9  A    between atoms: C_17  and  C_38
   10  A    between atoms: C_20  and  C_27
   11  A    between atoms: C_20  and  C_38
   12  A    between atoms: C_23  and  C_24
   13  A    between atoms: C_23  and  C_33
   14  A    between atoms: C_36  and  C_43
   15  A    between atoms: C_38  and  C_41
                            x       y       z     vdW  Elec       q    Type
                         _______ _______ _______ _____ _____    ______ ____

>  <TORSDO>
F 15

$$$$
=
 OpenBabel11072413543D

 46 49  0  0  1  0  0  0  0  0999 V2000
  160.9230  208.3790  152.8680 N   0  0  0  0  0  2  0  0  0  0  0  0
  161.0280  207.2210  153.7100 C   0  0  0  0  0  0  0  0  0  0  0  0
  160.6830  207.2720  154.9210 O   0  0  0  0  0  0  0  0  0  0  0  0
  160.5160  210.6110  152.3950 O   0  0  0  0  0  0  0  0  0  0  0  0
  160.5110  209.6940  153.2600 C   0  0  0  0  0  0  0  0  0  0  0  0
  159.9260  211.4600  154.8370 C   0  0  2  0  0  3  0  0  0  0  0  0
  160.0990  210.0010  154.6700 C   0  0  2  0  0  3  0  0  0  0  0  0
  161.0720  210.7950  155.3090 O   0  0  0  0  0  0  0  0  0  0  0  0
  158.9900  211.7370  156.0050 C   0  0  0  0  0  2  0  0  0  0  0  0
  158.0850  212.9590  155.7570 C   0  0  1  0  0  0  0  0  0  0  0  0
  160.0280  214.1670  156.5410 O   0  0  0  0  0  1  0  0  0  0  0  0
  158.9790  214.2010  155.6170 C   0  0  0  0  0  2  0  0  0  0  0  0
  157.2710  212.7700  154.5410 N   0  0  0  0  0  2  0  0  0  0  0  0
  156.5880  214.3180  150.7320 C   0  0  1  0  0  3  0  0  0  0  0  0
  158.2660  213.3820  152.3840 C   0  0  0  0  0  2  0  0  0  0  0  0
  156.4040  213.4330  149.5950 N   0  0  0  0  0  1  0  0  0  0  0  0
  156.0790  214.4530  153.1970 C   0  0  0  0  0  2  0  0  0  0  0  0
  155.6010  213.9360  151.8420 C   0  0  0  0  0  2  0  0  0  0  0  0
  158.0580  214.2940  151.1770 C   0  0  0  0  0  2  0  0  0  0  0  0
  157.4470  213.8690  153.5880 C   0  0  1  0  0  3  0  0  0  0  0  0
  157.1230  213.1530  156.9450 C   0  0  0  0  0  2  0  0  0  0  0  0
  155.3130  211.4280  156.8350 O   0  0  0  0  0  1  0  0  0  0  0  0
  154.8710  213.6090  156.2880 O   0  0  0  0  0  0  0  0  0  0  0  0
  155.7110  212.7460  156.6530 C   0  0  0  0  0  0  0  0  0  0  0  0
  161.6100  205.9400  153.1680 C   0  0  2  0  0  3  0  0  0  0  0  0
  163.0990  205.7900  153.4610 C   0  0  0  0  0  1  0  0  0  0  0  0
  160.5440  204.6900  151.2420 C   0  0  0  0  0  3  0  0  0  0  0  0
  161.5560  206.5910  149.4290 C   0  0  0  0  0  0  0  0  0  0  0  0
  160.7540  205.5220  148.9590 C   0  0  0  0  0  0  0  0  0  0  0  0
  160.2610  204.5790  149.8780 C   0  0  0  0  0  3  0  0  0  0  0  0
  161.3400  205.7450  151.7080 C   0  0  0  0  0  0  0  0  0  0  0  0
  161.8330  206.6870  150.8020 C   0  0  0  0  0  3  0  0  0  0  0  0
  162.0920  207.6420  148.5280 C   0  0  0  0  0  0  0  0  0  0  0  0
  161.4510  208.7130  148.3550 O   0  0  0  0  0  1  0  0  0  0  0  0
  163.2970  207.4690  147.8530 O   0  0  0  0  0  0  0  0  0  0  0  0
  160.4460  205.4310  147.5910 O   0  0  0  0  0  0  0  0  0  0  0  0
  161.2910  204.8920  146.5680 C   0  0  1  0  0  3  0  0  0  0  0  0
  160.1200  201.4210  145.3090 C   0  0  0  0  0  2  0  0  0  0  0  0
  160.8980  200.4960  146.2420 C   0  0  0  0  0  2  0  0  0  0  0  0
  161.2140  201.1990  147.5290 C   0  0  0  0  0  0  0  0  0  0  0  0
  161.1540  203.4000  146.4560 C   0  0  0  0  0  0  0  0  0  0  0  0
  160.8730  202.7380  145.1280 C   0  0  0  0  0  2  0  0  0  0  0  0
  161.4120  200.5300  148.5750 O   0  0  0  0  0  0  0  0  0  0  0  0
  161.3380  202.6650  147.5590 C   0  0  0  0  0  3  0  0  0  0  0  0
  161.1450  205.6380  145.2420 C   0  0  0  0  0  2  0  0  0  0  0  0
  160.2690  206.7130  145.3980 O   0  0  0  0  0  1  0  0  0  0  0  0
  1  5  1  0  0  0  0
  1  2  1  0  0  0  0
  2  3  2  0  0  0  0
  4  5  2  0  0  0  0
  6  8  1  0  0  0  0
  6  9  1  1  0  0  0
  7  5  1  6  0  0  0
  7  6  1  0  0  0  0
  7  8  1  0  0  0  0
 10 12  1  6  0  0  0
 10  9  1  0  0  0  0
 10 21  1  0  0  0  0
 12 11  1  0  0  0  0
 13 10  1  0  0  0  0
 14 16  1  6  0  0  0
 14 19  1  0  0  0  0
 14 18  1  0  0  0  0
 15 20  1  0  0  0  0
 17 20  1  0  0  0  0
 18 17  1  0  0  0  0
 19 15  1  0  0  0  0
 20 13  1  1  0  0  0
 23 24  2  0  0  0  0
 24 22  1  0  0  0  0
 24 21  1  0  0  0  0
 25 26  1  6  0  0  0
 25  2  1  0  0  0  0
 27 31  1  0  0  0  0
 28 32  1  0  0  0  0
 29 28  2  0  0  0  0
 29 30  1  0  0  0  0
 30 27  2  0  0  0  0
 31 25  1  0  0  0  0
 32 31  2  0  0  0  0
 33 28  1  0  0  0  0
 34 33  1  0  0  0  0
 35 33  2  0  0  0  0
 36 29  1  0  0  0  0
 37 45  1  6  0  0  0
 37 36  1  0  0  0  0
 38 39  1  0  0  0  0
 39 40  1  0  0  0  0
 40 44  1  0  0  0  0
 40 43  2  0  0  0  0
 41 37  1  0  0  0  0
 41 44  2  0  0  0  0
 42 38  1  0  0  0  0
 42 41  1  0  0  0  0
 45 46  1  0  0  0  0
M  END
>  <MODEL>
4

>  <REMARK>
 VINA RESULT:      -5.6      1.452      2.379
  Name = 
  15 active torsions:
  status: ('A' for Active; 'I' for Inactive)
    1  A    between atoms: N_1  and  C_38
    2  A    between atoms: N_1  and  C_40
    3  A    between atoms: C_3  and  C_26
    4  A    between atoms: C_5  and  C_16
    5  A    between atoms: O_13  and  C_16
    6  A    between atoms: O_13  and  C_30
    7  A    between atoms: C_15  and  C_16
    8  A    between atoms: C_17  and  C_25
    9  A    between atoms: C_17  and  C_38
   10  A    between atoms: C_20  and  C_27
   11  A    between atoms: C_20  and  C_38
   12  A    between atoms: C_23  and  C_24
   13  A    between atoms: C_23  and  C_33
   14  A    between atoms: C_36  and  C_43
   15  A    between atoms: C_38  and  C_41
                            x       y       z     vdW  Elec       q    Type
                         _______ _______ _______ _____ _____    ______ ____

>  <TORSDO>
F 15

$$$$
=
 OpenBabel11072413543D

 46 49  0  0  1  0  0  0  0  0999 V2000
  161.7780  207.8900  149.7780 N   0  0  0  0  0  2  0  0  0  0  0  0
  161.1020  207.8810  151.0450 C   0  0  0  0  0  0  0  0  0  0  0  0
  160.7520  208.9610  151.5960 O   0  0  0  0  0  0  0  0  0  0  0  0
  162.8180  208.8640  147.9510 O   0  0  0  0  0  0  0  0  0  0  0  0
  162.1950  209.0400  149.0330 C   0  0  0  0  0  0  0  0  0  0  0  0
  162.0430  211.3910  148.4000 C   0  0  2  0  0  3  0  0  0  0  0  0
  161.9270  210.4330  149.5220 C   0  0  2  0  0  3  0  0  0  0  0  0
  163.0650  211.2450  149.3550 O   0  0  0  0  0  0  0  0  0  0  0  0
  161.2420  212.6470  148.7100 C   0  0  0  0  0  2  0  0  0  0  0  0
  160.9330  213.4750  147.4480 C   0  0  1  0  0  0  0  0  0  0  0  0
  163.1760  214.1490  148.0490 O   0  0  0  0  0  1  0  0  0  0  0  0
  162.0950  214.4530  147.2160 C   0  0  0  0  0  2  0  0  0  0  0  0
  160.7560  212.5960  146.2760 N   0  0  0  0  0  2  0  0  0  0  0  0
  160.8140  212.5260  142.1090 C   0  0  1  0  0  3  0  0  0  0  0  0
  162.1420  212.7400  144.2570 C   0  0  0  0  0  2  0  0  0  0  0  0
  161.1450  211.3070  141.3930 N   0  0  0  0  0  1  0  0  0  0  0  0
  159.6360  213.2990  144.1990 C   0  0  0  0  0  2  0  0  0  0  0  0
  159.6700  212.2470  143.0930 C   0  0  0  0  0  2  0  0  0  0  0  0
  162.0750  213.0980  142.7740 C   0  0  0  0  0  2  0  0  0  0  0  0
  160.9400  213.3210  145.0160 C   0  0  1  0  0  3  0  0  0  0  0  0
  159.6270  214.2690  147.6450 C   0  0  0  0  0  2  0  0  0  0  0  0
  158.0480  213.6790  149.4940 O   0  0  0  0  0  1  0  0  0  0  0  0
  157.9300  212.5950  147.4780 O   0  0  0  0  0  0  0  0  0  0  0  0
  158.5000  213.4530  148.2010 C   0  0  0  0  0  0  0  0  0  0  0  0
  160.8540  206.5800  151.7640 C   0  0  2  0  0  3  0  0  0  0  0  0
  161.8530  206.3160  152.8840 C   0  0  0  0  0  1  0  0  0  0  0  0
  160.4930  205.5580  149.4760 C   0  0  0  0  0  3  0  0  0  0  0  0
  161.0940  203.0080  150.5040 C   0  0  0  0  0  0  0  0  0  0  0  0
  160.8010  203.1640  149.1270 C   0  0  0  0  0  0  0  0  0  0  0  0
  160.4980  204.4440  148.6320 C   0  0  0  0  0  3  0  0  0  0  0  0
  160.7800  205.4040  150.8380 C   0  0  0  0  0  0  0  0  0  0  0  0
  161.0830  204.1360  151.3390 C   0  0  0  0  0  3  0  0  0  0  0  0
  161.4500  201.6950  151.0990 C   0  0  0  0  0  0  0  0  0  0  0  0
  160.7230  200.6870  150.8860 O   0  0  0  0  0  0  0  0  0  0  0  0
  162.5750  201.5470  151.9050 O   0  0  0  0  0  1  0  0  0  0  0  0
  160.8370  202.0470  148.2750 O   0  0  0  0  0  0  0  0  0  0  0  0
  160.6780  202.0630  146.8520 C   0  0  1  0  0  3  0  0  0  0  0  0
  163.1800  204.9890  146.4220 C   0  0  0  0  0  2  0  0  0  0  0  0
  162.9330  205.3690  144.9630 C   0  0  0  0  0  2  0  0  0  0  0  0
  161.5440  204.9820  144.5510 C   0  0  0  0  0  0  0  0  0  0  0  0
  161.4440  203.1870  146.2140 C   0  0  0  0  0  0  0  0  0  0  0  0
  162.8560  203.5110  146.6400 C   0  0  0  0  0  2  0  0  0  0  0  0
  160.9800  205.5880  143.6050 O   0  0  0  0  0  0  0  0  0  0  0  0
  160.8590  203.8640  145.2190 C   0  0  0  0  0  3  0  0  0  0  0  0
  160.9330  200.6930  146.2240 C   0  0  0  0  0  2  0  0  0  0  0  0
  160.2420  200.5910  145.0150 O   0  0  0  0  0  1  0  0  0  0  0  0
  1  2  1  0  0  0  0
  2  3  2  0  0  0  0
  2 25  1  0  0  0  0
  4  5  2  0  0  0  0
  5  1  1  0  0  0  0
  6  9  1  1  0  0  0
  6  8  1  0  0  0  0
  6  7  1  0  0  0  0
  7  5  1  6  0  0  0
  8  7  1  0  0  0  0
 10 12  1  6  0  0  0
 10 21  1  0  0  0  0
 10  9  1  0  0  0  0
 12 11  1  0  0  0  0
 13 10  1  0  0  0  0
 14 16  1  1  0  0  0
 14 19  1  0  0  0  0
 14 18  1  0  0  0  0
 15 20  1  0  0  0  0
 17 20  1  0  0  0  0
 18 17  1  0  0  0  0
 19 15  1  0  0  0  0
 20 13  1  1  0  0  0
 21 24  1  0  0  0  0
 23 24  2  0  0  0  0
 24 22  1  0  0  0  0
 25 26  1  1  0  0  0
 27 31  1  0  0  0  0
 28 33  1  0  0  0  0
 28 32  1  0  0  0  0
 29 28  2  0  0  0  0
 30 29  1  0  0  0  0
 30 27  2  0  0  0  0
 31 32  2  0  0  0  0
 31 25  1  0  0  0  0
 33 35  1  0  0  0  0
 34 33  2  0  0  0  0
 36 29  1  0  0  0  0
 37 45  1  6  0  0  0
 37 36  1  0  0  0  0
 38 42  1  0  0  0  0
 39 38  1  0  0  0  0
 40 39  1  0  0  0  0
 40 44  1  0  0  0  0
 41 42  1  0  0  0  0
 41 37  1  0  0  0  0
 43 40  2  0  0  0  0
 44 41  2  0  0  0  0
 46 45  1  0  0  0  0
M  END
>  <MODEL>
5

>  <REMARK>
 VINA RESULT:      -5.3      4.284      6.410
  Name = 
  15 active torsions:
  status: ('A' for Active; 'I' for Inactive)
    1  A    between atoms: N_1  and  C_38
    2  A    between atoms: N_1  and  C_40
    3  A    between atoms: C_3  and  C_26
    4  A    between atoms: C_5  and  C_16
    5  A    between atoms: O_13  and  C_16
    6  A    between atoms: O_13  and  C_30
    7  A    between atoms: C_15  and  C_16
    8  A    between atoms: C_17  and  C_25
    9  A    between atoms: C_17  and  C_38
   10  A    between atoms: C_20  and  C_27
   11  A    between atoms: C_20  and  C_38
   12  A    between atoms: C_23  and  C_24
   13  A    between atoms: C_23  and  C_33
   14  A    between atoms: C_36  and  C_43
   15  A    between atoms: C_38  and  C_41
                            x       y       z     vdW  Elec       q    Type
                         _______ _______ _______ _____ _____    ______ ____

>  <TORSDO>
F 15

$$$$
=
 OpenBabel11072413543D

 46 49  0  0  1  0  0  0  0  0999 V2000
  160.9980  206.3790  152.0980 N   0  0  0  0  0  2  0  0  0  0  0  0
  161.4310  207.0410  150.9000 C   0  0  0  0  0  0  0  0  0  0  0  0
  162.0670  206.4110  150.0110 O   0  0  0  0  0  0  0  0  0  0  0  0
  160.8400  204.6150  153.5920 O   0  0  0  0  0  0  0  0  0  0  0  0
  161.2630  205.0240  152.4780 C   0  0  0  0  0  0  0  0  0  0  0  0
  161.1220  203.2430  150.8160 C   0  0  2  0  0  3  0  0  0  0  0  0
  162.0460  204.0990  151.5920 C   0  0  2  0  0  3  0  0  0  0  0  0
  161.8070  202.7560  151.9430 O   0  0  0  0  0  0  0  0  0  0  0  0
  161.8160  202.7490  149.5540 C   0  0  0  0  0  2  0  0  0  0  0  0
  160.8760  201.9300  148.6480 C   0  0  1  0  0  0  0  0  0  0  0  0
  159.6880  200.5120  150.2060 O   0  0  0  0  0  1  0  0  0  0  0  0
  159.5740  201.6630  149.4190 C   0  0  0  0  0  2  0  0  0  0  0  0
  160.5930  202.6560  147.3950 N   0  0  0  0  0  2  0  0  0  0  0  0
  161.8320  205.8600  145.0340 C   0  0  1  0  0  3  0  0  0  0  0  0
  162.3360  203.5360  145.9080 C   0  0  0  0  0  2  0  0  0  0  0  0
  161.6030  205.8560  143.6000 N   0  0  0  0  0  1  0  0  0  0  0  0
  160.7510  205.1040  147.1820 C   0  0  0  0  0  2  0  0  0  0  0  0
  160.5050  205.6180  145.7650 C   0  0  0  0  0  2  0  0  0  0  0  0
  162.9280  204.8430  145.3890 C   0  0  0  0  0  2  0  0  0  0  0  0
  161.5200  203.7720  147.1880 C   0  0  1  0  0  3  0  0  0  0  0  0
  161.5370  200.5880  148.2790 C   0  0  0  0  0  2  0  0  0  0  0  0
  160.3990  200.8770  146.0690 O   0  0  0  0  0  0  0  0  0  0  0  0
  161.6650  199.0130  146.4870 O   0  0  0  0  0  1  0  0  0  0  0  0
  161.1930  200.1020  146.9040 C   0  0  0  0  0  0  0  0  0  0  0  0
  161.1820  208.5160  150.7140 C   0  0  2  0  0  3  0  0  0  0  0  0
  162.2390  209.1960  149.8520 C   0  0  0  0  0  1  0  0  0  0  0  0
  160.8670  210.6410  152.0540 C   0  0  0  0  0  3  0  0  0  0  0  0
  160.6850  209.1370  154.4260 C   0  0  0  0  0  0  0  0  0  0  0  0
  160.5440  210.5460  154.4690 C   0  0  0  0  0  0  0  0  0  0  0  0
  160.6430  211.2820  153.2750 C   0  0  0  0  0  3  0  0  0  0  0  0
  161.0090  209.2480  152.0100 C   0  0  0  0  0  0  0  0  0  0  0  0
  160.9120  208.5090  153.1910 C   0  0  0  0  0  3  0  0  0  0  0  0
  160.5670  208.2870  155.6370 C   0  0  0  0  0  0  0  0  0  0  0  0
  161.2830  207.2560  155.7570 O   0  0  0  0  0  0  0  0  0  0  0  0
  159.6690  208.5970  156.6540 O   0  0  0  0  0  1  0  0  0  0  0  0
  160.2890  211.1840  155.6940 O   0  0  0  0  0  0  0  0  0  0  0  0
  159.7560  212.5020  155.8680 C   0  0  1  0  0  3  0  0  0  0  0  0
  156.3380  214.0050  154.8360 C   0  0  0  0  0  2  0  0  0  0  0  0
  155.5140  212.7360  154.6290 C   0  0  0  0  0  2  0  0  0  0  0  0
  156.0670  211.6140  155.4570 C   0  0  0  0  0  0  0  0  0  0  0  0
  158.3150  212.5850  155.4490 C   0  0  0  0  0  0  0  0  0  0  0  0
  157.8170  213.7170  154.5820 C   0  0  0  0  0  2  0  0  0  0  0  0
  155.3190  210.6650  155.8030 O   0  0  0  0  0  0  0  0  0  0  0  0
  157.4920  211.5990  155.8230 C   0  0  0  0  0  3  0  0  0  0  0  0
  160.0390  213.0640  157.2610 C   0  0  0  0  0  2  0  0  0  0  0  0
  160.5350  214.3650  157.1530 O   0  0  0  0  0  1  0  0  0  0  0  0
  1  5  1  0  0  0  0
  2  1  1  0  0  0  0
  3  2  2  0  0  0  0
  5  4  2  0  0  0  0
  6  9  1  6  0  0  0
  6  7  1  0  0  0  0
  6  8  1  0  0  0  0
  7  8  1  0  0  0  0
  7  5  1  1  0  0  0
 10 21  1  6  0  0  0
 10 12  1  0  0  0  0
 10  9  1  0  0  0  0
 12 11  1  0  0  0  0
 13 10  1  0  0  0  0
 14 16  1  6  0  0  0
 14 19  1  0  0  0  0
 14 18  1  0  0  0  0
 15 20  1  0  0  0  0
 17 20  1  0  0  0  0
 18 17  1  0  0  0  0
 19 15  1  0  0  0  0
 20 13  1  6  0  0  0
 22 24  2  0  0  0  0
 23 24  1  0  0  0  0
 24 21  1  0  0  0  0
 25 26  1  1  0  0  0
 25  2  1  0  0  0  0
 25 31  1  0  0  0  0
 27 30  1  0  0  0  0
 28 29  1  0  0  0  0
 28 33  1  0  0  0  0
 29 36  1  0  0  0  0
 30 29  2  0  0  0  0
 31 27  2  0  0  0  0
 31 32  1  0  0  0  0
 32 28  2  0  0  0  0
 33 34  2  0  0  0  0
 33 35  1  0  0  0  0
 36 37  1  0  0  0  0
 37 45  1  1  0  0  0
 39 38  1  0  0  0  0
 39 40  1  0  0  0  0
 40 43  2  0  0  0  0
 40 44  1  0  0  0  0
 41 44  2  0  0  0  0
 41 37  1  0  0  0  0
 42 38  1  0  0  0  0
 42 41  1  0  0  0  0
 46 45  1  0  0  0  0
M  END
>  <MODEL>
6

>  <REMARK>
 VINA RESULT:      -4.8      2.622     10.869
  Name = 
  15 active torsions:
  status: ('A' for Active; 'I' for Inactive)
    1  A    between atoms: N_1  and  C_38
    2  A    between atoms: N_1  and  C_40
    3  A    between atoms: C_3  and  C_26
    4  A    between atoms: C_5  and  C_16
    5  A    between atoms: O_13  and  C_16
    6  A    between atoms: O_13  and  C_30
    7  A    between atoms: C_15  and  C_16
    8  A    between atoms: C_17  and  C_25
    9  A    between atoms: C_17  and  C_38
   10  A    between atoms: C_20  and  C_27
   11  A    between atoms: C_20  and  C_38
   12  A    between atoms: C_23  and  C_24
   13  A    between atoms: C_23  and  C_33
   14  A    between atoms: C_36  and  C_43
   15  A    between atoms: C_38  and  C_41
                            x       y       z     vdW  Elec       q    Type
                         _______ _______ _______ _____ _____    ______ ____

>  <TORSDO>
F 15

$$$$
=
 OpenBabel11072413543D

 46 49  0  0  1  0  0  0  0  0999 V2000
  161.2150  208.1960  153.4000 N   0  0  0  0  0  2  0  0  0  0  0  0
  161.8640  209.3250  152.7960 C   0  0  0  0  0  0  0  0  0  0  0  0
  161.9630  210.4190  153.4160 O   0  0  0  0  0  0  0  0  0  0  0  0
  160.0030  207.0880  155.0350 O   0  0  0  0  0  0  0  0  0  0  0  0
  160.5620  208.1580  154.6750 C   0  0  0  0  0  0  0  0  0  0  0  0
  159.2410  210.0890  155.3650 C   0  0  2  0  0  3  0  0  0  0  0  0
  160.5140  209.3630  155.5690 C   0  0  2  0  0  3  0  0  0  0  0  0
  160.4480  210.5450  154.8050 O   0  0  0  0  0  0  0  0  0  0  0  0
  158.9170  210.9170  156.6000 C   0  0  0  0  0  2  0  0  0  0  0  0
  158.2520  212.2620  156.2500 C   0  0  1  0  0  0  0  0  0  0  0  0
  160.3790  212.9770  157.1510 O   0  0  0  0  0  1  0  0  0  0  0  0
  159.3220  213.3620  156.3210 C   0  0  0  0  0  2  0  0  0  0  0  0
  157.6500  212.2130  154.9040 N   0  0  0  0  0  2  0  0  0  0  0  0
  157.5530  214.1840  151.2320 C   0  0  1  0  0  3  0  0  0  0  0  0
  158.7570  212.5400  152.7390 C   0  0  0  0  0  2  0  0  0  0  0  0
  157.0060  213.5310  150.0560 N   0  0  0  0  0  1  0  0  0  0  0  0
  157.1960  214.3260  153.7230 C   0  0  0  0  0  2  0  0  0  0  0  0
  156.5210  214.1420  152.3660 C   0  0  0  0  0  2  0  0  0  0  0  0
  158.9010  213.5470  151.6010 C   0  0  0  0  0  2  0  0  0  0  0  0
  158.2270  213.2210  154.0100 C   0  0  1  0  0  3  0  0  0  0  0  0
  157.1300  212.5740  157.2590 C   0  0  0  0  0  2  0  0  0  0  0  0
  155.1290  211.1440  156.8000 O   0  0  0  0  0  1  0  0  0  0  0  0
  155.1330  213.3570  156.2060 O   0  0  0  0  0  0  0  0  0  0  0  0
  155.7500  212.3820  156.7090 C   0  0  0  0  0  0  0  0  0  0  0  0
  162.3850  209.2350  151.3840 C   0  0  2  0  0  3  0  0  0  0  0  0
  161.9410  210.4010  150.5080 C   0  0  0  0  0  1  0  0  0  0  0  0
  161.7080  206.7970  151.4670 C   0  0  0  0  0  3  0  0  0  0  0  0
  161.6890  206.6920  148.6540 C   0  0  0  0  0  0  0  0  0  0  0  0
  161.3310  205.5460  149.4070 C   0  0  0  0  0  0  0  0  0  0  0  0
  161.3510  205.6150  150.8110 C   0  0  0  0  0  3  0  0  0  0  0  0
  162.0640  207.9290  150.7230 C   0  0  0  0  0  0  0  0  0  0  0  0
  162.0460  207.8700  149.3280 C   0  0  0  0  0  3  0  0  0  0  0  0
  161.6680  206.7080  147.1700 C   0  0  0  0  0  0  0  0  0  0  0  0
  160.9290  207.5250  146.5580 O   0  0  0  0  0  1  0  0  0  0  0  0
  162.4480  205.8270  146.4260 O   0  0  0  0  0  0  0  0  0  0  0  0
  160.9450  204.3690  148.7450 O   0  0  0  0  0  0  0  0  0  0  0  0
  160.7470  203.0850  149.3470 C   0  0  1  0  0  3  0  0  0  0  0  0
  161.9460  199.8600  147.5670 C   0  0  0  0  0  2  0  0  0  0  0  0
  160.9890  199.8130  146.3770 C   0  0  0  0  0  2  0  0  0  0  0  0
  160.5060  201.1920  146.0410 C   0  0  0  0  0  0  0  0  0  0  0  0
  160.8330  201.9740  148.3390 C   0  0  0  0  0  0  0  0  0  0  0  0
  161.2900  200.5910  148.7380 C   0  0  0  0  0  2  0  0  0  0  0  0
  160.1150  201.4520  144.8750 O   0  0  0  0  0  0  0  0  0  0  0  0
  160.4450  202.2280  147.0840 C   0  0  0  0  0  3  0  0  0  0  0  0
  161.6220  202.8810  150.5830 C   0  0  0  0  0  2  0  0  0  0  0  0
  160.8460  202.3940  151.6360 O   0  0  0  0  0  1  0  0  0  0  0  0
  1  5  1  0  0  0  0
  2  1  1  0  0  0  0
  2  3  2  0  0  0  0
  5  4  2  0  0  0  0
  6  7  1  0  0  0  0
  6  9  1  1  0  0  0
  7  5  1  6  0  0  0
  8  6  1  0  0  0  0
  8  7  1  0  0  0  0
 10 12  1  1  0  0  0
 10  9  1  0  0  0  0
 10 21  1  0  0  0  0
 12 11  1  0  0  0  0
 13 10  1  0  0  0  0
 14 16  1  6  0  0  0
 14 19  1  0  0  0  0
 14 18  1  0  0  0  0
 15 20  1  0  0  0  0
 17 20  1  0  0  0  0
 18 17  1  0  0  0  0
 19 15  1  0  0  0  0
 20 13  1  1  0  0  0
 23 24  2  0  0  0  0
 24 22  1  0  0  0  0
 24 21  1  0  0  0  0
 25 26  1  6  0  0  0
 25  2  1  0  0  0  0
 28 32  2  0  0  0  0
 28 29  1  0  0  0  0
 29 30  2  0  0  0  0
 30 27  1  0  0  0  0
 31 25  1  0  0  0  0
 31 27  2  0  0  0  0
 32 31  1  0  0  0  0
 33 28  1  0  0  0  0
 34 33  1  0  0  0  0
 35 33  2  0  0  0  0
 36 37  1  0  0  0  0
 36 29  1  0  0  0  0
 37 45  1  1  0  0  0
 38 42  1  0  0  0  0
 39 38  1  0  0  0  0
 40 39  1  0  0  0  0
 40 44  1  0  0  0  0
 41 42  1  0  0  0  0
 41 37  1  0  0  0  0
 43 40  2  0  0  0  0
 44 41  2  0  0  0  0
 45 46  1  0  0  0  0
M  END
>  <MODEL>
7

>  <REMARK>
 VINA RESULT:      -4.7      1.385      2.609
  Name = 
  15 active torsions:
  status: ('A' for Active; 'I' for Inactive)
    1  A    between atoms: N_1  and  C_38
    2  A    between atoms: N_1  and  C_40
    3  A    between atoms: C_3  and  C_26
    4  A    between atoms: C_5  and  C_16
    5  A    between atoms: O_13  and  C_16
    6  A    between atoms: O_13  and  C_30
    7  A    between atoms: C_15  and  C_16
    8  A    between atoms: C_17  and  C_25
    9  A    between atoms: C_17  and  C_38
   10  A    between atoms: C_20  and  C_27
   11  A    between atoms: C_20  and  C_38
   12  A    between atoms: C_23  and  C_24
   13  A    between atoms: C_23  and  C_33
   14  A    between atoms: C_36  and  C_43
   15  A    between atoms: C_38  and  C_41
                            x       y       z     vdW  Elec       q    Type
                         _______ _______ _______ _____ _____    ______ ____

>  <TORSDO>
F 15

$$$$
