=
 OpenBabel11072411543D

 32 36  0  0  1  0  0  0  0  0999 V2000
  161.7680  207.6450  152.4580 N   0  0  2  0  0  0  0  0  0  0  0  0
  160.4860  205.6810  151.8950 C   0  0  0  0  0  3  0  0  0  0  0  0
  160.7540  205.4820  150.5960 C   0  0  0  0  0  0  0  0  0  0  0  0
  163.3490  209.9420  151.6040 O   0  0  0  0  0  1  0  0  0  0  0  0
  161.9660  208.8920  153.1760 C   0  0  1  0  0  3  0  0  0  0  0  0
  161.7890  208.2390  151.1660 N   0  0  0  0  0  0  0  0  0  0  0  0
  162.0420  209.5230  151.8570 C   0  0  2  0  0  3  0  0  0  0  0  0
  161.0830  206.5470  149.6060 C   0  0  0  0  0  3  0  0  0  0  0  0
  161.5130  207.7950  149.8380 C   0  0  0  0  0  0  0  0  0  0  0  0
  160.4670  207.0020  152.5950 C   0  0  0  0  0  2  0  0  0  0  0  0
  161.5480  200.2710  148.5970 C   0  0  0  0  0  3  0  0  0  0  0  0
  161.0900  203.9650  148.6500 C   0  0  0  0  0  2  0  0  0  0  0  0
  161.4930  203.1310  150.9640 C   0  0  0  0  0  2  0  0  0  0  0  0
  160.6450  202.3290  146.7990 C   0  0  0  0  0  2  0  0  0  0  0  0
  161.2340  201.6800  150.5720 C   0  0  0  0  0  2  0  0  0  0  0  0
  161.5610  200.0510  147.1440 C   0  0  0  0  0  3  0  0  0  0  0  0
  161.3140  201.4880  149.0870 C   0  0  0  0  0  0  0  0  0  0  0  0
  161.1780  201.0120  146.3010 C   0  0  0  0  0  3  0  0  0  0  0  0
  160.6490  204.0720  150.1090 C   0  0  1  0  0  3  0  0  0  0  0  0
  161.0370  202.5820  148.1870 N   0  0  0  0  0  0  0  0  0  0  0  0
  161.1170  211.8410  153.7360 F   0  0  0  0  0  0  0  0  0  0  0  0
  158.8750  210.8500  155.6130 C   0  0  0  0  0  0  0  0  0  0  0  0
  159.7880  210.0970  156.2370 C   0  0  0  0  0  3  0  0  0  0  0  0
  160.9810  209.4990  155.5470 C   0  0  0  0  0  2  0  0  0  0  0  0
  160.2540  210.7900  153.4810 C   0  0  1  0  0  3  0  0  0  0  0  0
  157.8310  211.3900  156.3520 O   0  0  0  0  0  1  0  0  0  0  0  0
  160.8040  209.4710  154.0220 C   0  0  1  0  0  3  0  0  0  0  0  0
  158.8960  211.0760  154.1210 C   0  0  0  0  0  2  0  0  0  0  0  0
  163.0520  208.5470  148.2170 F   0  0  0  0  0  0  0  0  0  0  0  0
  161.6150  210.0530  149.0660 F   0  0  0  0  0  0  0  0  0  0  0  0
  160.8690  208.4510  147.6710 F   0  0  0  0  0  0  0  0  0  0  0  0
  161.7650  208.7280  148.6870 C   0  0  0  0  0  0  0  0  0  0  0  0
  1 10  1  1  0  0  0
  1  5  1  0  0  0  0
  2 10  1  0  0  0  0
  3  2  2  0  0  0  0
  5 27  1  1  0  0  0
  6  7  1  0  0  0  0
  6  1  1  0  0  0  0
  7  4  1  6  0  0  0
  7  5  1  0  0  0  0
  8  9  2  0  0  0  0
  8  3  1  0  0  0  0
  9  6  1  0  0  0  0
 11 17  2  0  0  0  0
 12 19  1  0  0  0  0
 14 20  1  0  0  0  0
 15 13  1  0  0  0  0
 16 11  1  0  0  0  0
 17 15  1  0  0  0  0
 18 14  1  0  0  0  0
 18 16  2  0  0  0  0
 19  3  1  1  0  0  0
 19 13  1  0  0  0  0
 20 12  1  0  0  0  0
 20 17  1  0  0  0  0
 22 23  2  0  0  0  0
 22 26  1  0  0  0  0
 24 23  1  0  0  0  0
 25 21  1  1  0  0  0
 25 27  1  0  0  0  0
 25 28  1  0  0  0  0
 27 24  1  1  0  0  0
 28 22  1  0  0  0  0
 29 32  1  0  0  0  0
 31 32  1  0  0  0  0
 32 30  1  0  0  0  0
 32  9  1  0  0  0  0
M  END
>  <MODEL>
1

>  <REMARK>
 VINA RESULT:      -7.3      0.000      0.000
  Name = 
  3 active torsions:
  status: ('A' for Active; 'I' for Inactive)
    1  A    between atoms: C_9  and  C_25
    2  A    between atoms: C_15  and  C_27
    3  A    between atoms: C_29  and  C_31
                            x       y       z     vdW  Elec       q    Type
                         _______ _______ _______ _____ _____    ______ ____

>  <TORSDO>
F 3

$$$$
=
 OpenBabel11072411543D

 32 36  0  0  1  0  0  0  0  0999 V2000
  162.0760  208.4650  151.7180 N   0  0  2  0  0  0  0  0  0  0  0  0
  161.1480  206.6640  150.4100 C   0  0  0  0  0  3  0  0  0  0  0  0
  161.5510  206.9330  149.1590 C   0  0  0  0  0  0  0  0  0  0  0  0
  163.3710  211.0760  151.8350 O   0  0  0  0  0  1  0  0  0  0  0  0
  162.0280  209.4220  152.8100 C   0  0  1  0  0  3  0  0  0  0  0  0
  162.1200  209.4480  150.6910 N   0  0  0  0  0  0  0  0  0  0  0  0
  162.1230  210.4550  151.7750 C   0  0  2  0  0  3  0  0  0  0  0  0
  161.8040  208.2920  148.6030 C   0  0  0  0  0  3  0  0  0  0  0  0
  162.0250  209.4360  149.2660 C   0  0  0  0  0  0  0  0  0  0  0  0
  160.8770  207.6720  151.4800 C   0  0  0  0  0  2  0  0  0  0  0  0
  160.8890  202.5240  145.7080 C   0  0  0  0  0  3  0  0  0  0  0  0
  161.0490  204.5140  148.8510 C   0  0  0  0  0  2  0  0  0  0  0  0
  161.0700  206.0420  146.8820 C   0  0  0  0  0  2  0  0  0  0  0  0
  161.3390  202.0430  148.5110 C   0  0  0  0  0  2  0  0  0  0  0  0
  161.3840  204.9110  145.9080 C   0  0  0  0  0  2  0  0  0  0  0  0
  160.6730  201.1870  146.2810 C   0  0  0  0  0  3  0  0  0  0  0  0
  161.0960  203.5690  146.5100 C   0  0  0  0  0  0  0  0  0  0  0  0
  160.8450  200.9630  147.5850 C   0  0  0  0  0  3  0  0  0  0  0  0
  161.6950  205.7570  148.2450 C   0  0  1  0  0  3  0  0  0  0  0  0
  161.1430  203.3780  147.9390 N   0  0  0  0  0  0  0  0  0  0  0  0
  160.8510  211.8470  154.3820 F   0  0  0  0  0  0  0  0  0  0  0  0
  158.5060  210.0910  155.3540 C   0  0  0  0  0  0  0  0  0  0  0  0
  159.4050  209.1800  155.7470 C   0  0  0  0  0  3  0  0  0  0  0  0
  160.7210  208.9630  155.0550 C   0  0  0  0  0  2  0  0  0  0  0  0
  160.1250  210.9640  153.6030 C   0  0  1  0  0  3  0  0  0  0  0  0
  157.3370  210.2400  156.0890 O   0  0  0  0  0  1  0  0  0  0  0  0
  160.7270  209.5590  153.6400 C   0  0  1  0  0  3  0  0  0  0  0  0
  158.6810  210.9110  154.1000 C   0  0  0  0  0  2  0  0  0  0  0  0
  163.4900  210.7130  147.9310 F   0  0  0  0  0  0  0  0  0  0  0  0
  162.1320  211.8200  149.3390 F   0  0  0  0  0  0  0  0  0  0  0  0
  161.2780  210.8170  147.5130 F   0  0  0  0  0  0  0  0  0  0  0  0
  162.2330  210.7160  148.5080 C   0  0  0  0  0  0  0  0  0  0  0  0
  1 10  1  6  0  0  0
  1  5  1  0  0  0  0
  2 10  1  0  0  0  0
  3  2  2  0  0  0  0
  5 27  1  6  0  0  0
  6  1  1  0  0  0  0
  6  7  1  0  0  0  0
  7  4  1  1  0  0  0
  7  5  1  0  0  0  0
  8  3  1  0  0  0  0
  8  9  2  0  0  0  0
  9  6  1  0  0  0  0
 11 16  1  0  0  0  0
 11 17  2  0  0  0  0
 13 19  1  0  0  0  0
 15 17  1  0  0  0  0
 15 13  1  0  0  0  0
 16 18  2  0  0  0  0
 17 20  1  0  0  0  0
 18 14  1  0  0  0  0
 19 12  1  0  0  0  0
 19  3  1  1  0  0  0
 20 14  1  0  0  0  0
 20 12  1  0  0  0  0
 22 23  2  0  0  0  0
 22 26  1  0  0  0  0
 24 23  1  0  0  0  0
 25 27  1  0  0  0  0
 25 28  1  0  0  0  0
 25 21  1  1  0  0  0
 27 24  1  1  0  0  0
 28 22  1  0  0  0  0
 29 32  1  0  0  0  0
 31 32  1  0  0  0  0
 32  9  1  0  0  0  0
 32 30  1  0  0  0  0
M  END
>  <MODEL>
2

>  <REMARK>
 VINA RESULT:      -6.1      1.308      2.138
  Name = 
  3 active torsions:
  status: ('A' for Active; 'I' for Inactive)
    1  A    between atoms: C_9  and  C_25
    2  A    between atoms: C_15  and  C_27
    3  A    between atoms: C_29  and  C_31
                            x       y       z     vdW  Elec       q    Type
                         _______ _______ _______ _____ _____    ______ ____

>  <TORSDO>
F 3

$$$$
=
 OpenBabel11072411543D

 32 36  0  0  1  0  0  0  0  0999 V2000
  162.0600  208.6320  151.6610 N   0  0  2  0  0  0  0  0  0  0  0  0
  160.4980  210.3990  152.1650 C   0  0  0  0  0  3  0  0  0  0  0  0
  160.2360  210.2350  153.4710 C   0  0  0  0  0  0  0  0  0  0  0  0
  163.3890  206.1560  152.4420 O   0  0  0  0  0  1  0  0  0  0  0  0
  162.6210  207.6200  150.7820 C   0  0  1  0  0  3  0  0  0  0  0  0
  161.6400  207.7110  152.6610 N   0  0  0  0  0  0  0  0  0  0  0  0
  162.2450  206.6560  151.8190 C   0  0  2  0  0  3  0  0  0  0  0  0
  160.2550  208.9360  154.2020 C   0  0  0  0  0  3  0  0  0  0  0  0
  160.8450  207.7870  153.8440 C   0  0  0  0  0  0  0  0  0  0  0  0
  160.8580  209.3160  151.2000 C   0  0  0  0  0  2  0  0  0  0  0  0
  158.3440  214.0780  157.1350 C   0  0  0  0  0  3  0  0  0  0  0  0
  158.3260  211.4880  154.4620 C   0  0  0  0  0  2  0  0  0  0  0  0
  160.5620  211.5510  155.5610 C   0  0  0  0  0  2  0  0  0  0  0  0
  156.6540  213.2980  154.9400 C   0  0  0  0  0  2  0  0  0  0  0  0
  160.2830  212.8920  156.2320 C   0  0  0  0  0  2  0  0  0  0  0  0
  156.9220  214.4530  157.1180 C   0  0  0  0  0  3  0  0  0  0  0  0
  158.8180  213.2080  156.2440 C   0  0  0  0  0  0  0  0  0  0  0  0
  156.1230  214.0650  156.1220 C   0  0  0  0  0  3  0  0  0  0  0  0
  159.8340  211.4640  154.2230 C   0  0  1  0  0  3  0  0  0  0  0  0
  157.9380  212.6600  155.2410 N   0  0  0  0  0  0  0  0  0  0  0  0
  161.7210  204.9170  149.5110 F   0  0  0  0  0  0  0  0  0  0  0  0
  160.7840  206.4090  146.9770 C   0  0  0  0  0  0  0  0  0  0  0  0
  161.9790  207.0090  146.9380 C   0  0  0  0  0  3  0  0  0  0  0  0
  162.7830  207.3340  148.1650 C   0  0  0  0  0  2  0  0  0  0  0  0
  160.9990  206.0960  149.4870 C   0  0  1  0  0  3  0  0  0  0  0  0
  160.1420  206.1150  145.7810 O   0  0  0  0  0  1  0  0  0  0  0  0
  161.9200  207.3150  149.4340 C   0  0  1  0  0  3  0  0  0  0  0  0
  160.0730  206.1060  148.2720 C   0  0  0  0  0  2  0  0  0  0  0  0
  161.7390  206.5720  155.6570 F   0  0  0  0  0  0  0  0  0  0  0  0
  160.7970  205.4040  153.9820 F   0  0  0  0  0  0  0  0  0  0  0  0
  159.5040  206.6090  155.3770 F   0  0  0  0  0  0  0  0  0  0  0  0
  160.7200  206.5740  154.7220 C   0  0  0  0  0  0  0  0  0  0  0  0
  1 10  1  6  0  0  0
  1  6  1  0  0  0  0
  2  3  2  0  0  0  0
  3  8  1  0  0  0  0
  5 27  1  6  0  0  0
  5  1  1  0  0  0  0
  5  7  1  0  0  0  0
  6  9  1  0  0  0  0
  7  4  1  1  0  0  0
  7  6  1  0  0  0  0
  9  8  2  0  0  0  0
  9 32  1  0  0  0  0
 10  2  1  0  0  0  0
 12 20  1  0  0  0  0
 13 15  1  0  0  0  0
 14 20  1  0  0  0  0
 14 18  1  0  0  0  0
 15 17  1  0  0  0  0
 16 11  1  0  0  0  0
 17 11  2  0  0  0  0
 18 16  2  0  0  0  0
 19  3  1  1  0  0  0
 19 12  1  0  0  0  0
 19 13  1  0  0  0  0
 20 17  1  0  0  0  0
 22 28  1  0  0  0  0
 23 22  2  0  0  0  0
 23 24  1  0  0  0  0
 25 21  1  6  0  0  0
 26 22  1  0  0  0  0
 27 24  1  6  0  0  0
 27 25  1  0  0  0  0
 28 25  1  0  0  0  0
 30 32  1  0  0  0  0
 32 31  1  0  0  0  0
 32 29  1  0  0  0  0
M  END
>  <MODEL>
3

>  <REMARK>
 VINA RESULT:      -5.7      3.700      9.400
  Name = 
  3 active torsions:
  status: ('A' for Active; 'I' for Inactive)
    1  A    between atoms: C_9  and  C_25
    2  A    between atoms: C_15  and  C_27
    3  A    between atoms: C_29  and  C_31
                            x       y       z     vdW  Elec       q    Type
                         _______ _______ _______ _____ _____    ______ ____

>  <TORSDO>
F 3

$$$$
=
 OpenBabel11072411543D

 32 36  0  0  1  0  0  0  0  0999 V2000
  162.3660  206.9940  151.3280 N   0  0  2  0  0  0  0  0  0  0  0  0
  161.8620  208.6900  149.6900 C   0  0  0  0  0  3  0  0  0  0  0  0
  161.6560  209.7950  150.4220 C   0  0  0  0  0  0  0  0  0  0  0  0
  162.4350  206.1350  154.1150 O   0  0  0  0  0  1  0  0  0  0  0  0
  162.3160  205.6320  151.8300 C   0  0  1  0  0  3  0  0  0  0  0  0
  161.6440  207.5560  152.4180 N   0  0  0  0  0  0  0  0  0  0  0  0
  161.6150  206.1910  152.9880 C   0  0  2  0  0  3  0  0  0  0  0  0
  161.1200  209.8260  151.8130 C   0  0  0  0  0  3  0  0  0  0  0  0
  161.0720  208.8310  152.7090 C   0  0  0  0  0  0  0  0  0  0  0  0
  161.5940  207.2860  150.1270 C   0  0  0  0  0  2  0  0  0  0  0  0
  161.7200  214.4490  147.2410 C   0  0  0  0  0  3  0  0  0  0  0  0
  162.1760  210.8940  148.2490 C   0  0  0  0  0  2  0  0  0  0  0  0
  160.7890  212.0820  149.9460 C   0  0  0  0  0  2  0  0  0  0  0  0
  163.3540  212.2100  146.4650 C   0  0  0  0  0  2  0  0  0  0  0  0
  161.1680  213.4580  149.4080 C   0  0  0  0  0  2  0  0  0  0  0  0
  162.3390  214.4030  145.9080 C   0  0  0  0  0  3  0  0  0  0  0  0
  161.7400  213.3720  148.0250 C   0  0  0  0  0  0  0  0  0  0  0  0
  163.0680  213.3520  145.5260 C   0  0  0  0  0  3  0  0  0  0  0  0
  161.9380  211.0980  149.7440 C   0  0  1  0  0  3  0  0  0  0  0  0
  162.4000  212.1700  147.5760 N   0  0  0  0  0  0  0  0  0  0  0  0
  162.5060  202.5190  151.7410 F   0  0  0  0  0  0  0  0  0  0  0  0
  160.1620  202.4230  149.7350 C   0  0  0  0  0  0  0  0  0  0  0  0
  160.8100  203.3350  148.9980 C   0  0  0  0  0  3  0  0  0  0  0  0
  161.7060  204.3880  149.5850 C   0  0  0  0  0  2  0  0  0  0  0  0
  161.3360  203.2510  151.8290 C   0  0  1  0  0  3  0  0  0  0  0  0
  159.3910  201.4660  149.0900 O   0  0  0  0  0  1  0  0  0  0  0  0
  161.4520  204.5820  151.0870 C   0  0  1  0  0  3  0  0  0  0  0  0
  160.1800  202.4420  151.2430 C   0  0  0  0  0  2  0  0  0  0  0  0
  161.4530  209.4050  154.9640 F   0  0  0  0  0  0  0  0  0  0  0  0
  159.8070  207.9370  154.5270 F   0  0  0  0  0  0  0  0  0  0  0  0
  159.5530  210.1060  153.9760 F   0  0  0  0  0  0  0  0  0  0  0  0
  160.4620  209.0670  154.0620 C   0  0  0  0  0  0  0  0  0  0  0  0
  1 10  1  6  0  0  0
  1  5  1  0  0  0  0
  1  6  1  0  0  0  0
  2 10  1  0  0  0  0
  2  3  2  0  0  0  0
  3  8  1  0  0  0  0
  5 27  1  6  0  0  0
  5  7  1  0  0  0  0
  6  9  1  0  0  0  0
  6  7  1  0  0  0  0
  7  4  1  1  0  0  0
  8  9  2  0  0  0  0
  9 32  1  0  0  0  0
 11 17  2  0  0  0  0
 12 19  1  0  0  0  0
 14 20  1  0  0  0  0
 15 13  1  0  0  0  0
 16 11  1  0  0  0  0
 17 15  1  0  0  0  0
 18 16  2  0  0  0  0
 18 14  1  0  0  0  0
 19 13  1  0  0  0  0
 19  3  1  1  0  0  0
 20 17  1  0  0  0  0
 20 12  1  0  0  0  0
 22 28  1  0  0  0  0
 23 24  1  0  0  0  0
 23 22  2  0  0  0  0
 25 21  1  6  0  0  0
 26 22  1  0  0  0  0
 27 24  1  6  0  0  0
 27 25  1  0  0  0  0
 28 25  1  0  0  0  0
 31 32  1  0  0  0  0
 32 30  1  0  0  0  0
 32 29  1  0  0  0  0
M  END
>  <MODEL>
4

>  <REMARK>
 VINA RESULT:      -5.3      3.715      8.300
  Name = 
  3 active torsions:
  status: ('A' for Active; 'I' for Inactive)
    1  A    between atoms: C_9  and  C_25
    2  A    between atoms: C_15  and  C_27
    3  A    between atoms: C_29  and  C_31
                            x       y       z     vdW  Elec       q    Type
                         _______ _______ _______ _____ _____    ______ ____

>  <TORSDO>
F 3

$$$$
=
 OpenBabel11072411543D

 32 36  0  0  1  0  0  0  0  0999 V2000
  159.3620  212.9260  139.4950 N   0  0  2  0  0  0  0  0  0  0  0  0
  159.3160  212.9370  141.9050 C   0  0  0  0  0  3  0  0  0  0  0  0
  160.5730  212.6230  142.2530 C   0  0  0  0  0  0  0  0  0  0  0  0
  160.7390  212.2600  137.0110 O   0  0  0  0  0  1  0  0  0  0  0  0
  158.7610  212.6750  138.1950 C   0  0  1  0  0  3  0  0  0  0  0  0
  160.4220  211.9920  139.3250 N   0  0  0  0  0  0  0  0  0  0  0  0
  159.8700  211.7450  137.9740 C   0  0  2  0  0  3  0  0  0  0  0  0
  161.5030  211.7660  141.4640 C   0  0  0  0  0  3  0  0  0  0  0  0
  161.4360  211.4420  140.1650 C   0  0  0  0  0  0  0  0  0  0  0  0
  158.6120  212.4900  140.6660 C   0  0  0  0  0  2  0  0  0  0  0  0
  162.6340  213.4120  147.4410 C   0  0  0  0  0  3  0  0  0  0  0  0
  160.2700  212.4790  144.7210 C   0  0  0  0  0  2  0  0  0  0  0  0
  162.5350  212.8940  143.7660 C   0  0  0  0  0  2  0  0  0  0  0  0
  159.7920  213.1050  147.1040 C   0  0  0  0  0  2  0  0  0  0  0  0
  163.0300  213.5830  145.0340 C   0  0  0  0  0  2  0  0  0  0  0  0
  161.7640  213.1840  148.6050 C   0  0  0  0  0  3  0  0  0  0  0  0
  162.1490  213.2770  146.2070 C   0  0  0  0  0  0  0  0  0  0  0  0
  160.4500  213.0050  148.4550 C   0  0  0  0  0  3  0  0  0  0  0  0
  161.0400  213.1380  143.5780 C   0  0  1  0  0  3  0  0  0  0  0  0
  160.7590  212.9410  146.0160 N   0  0  0  0  0  0  0  0  0  0  0  0
  157.9620  209.9020  137.0110 F   0  0  0  0  0  0  0  0  0  0  0  0
  155.0020  210.4540  137.6890 C   0  0  0  0  0  0  0  0  0  0  0  0
  155.1240  211.6360  137.0730 C   0  0  0  0  0  3  0  0  0  0  0  0
  156.4040  212.4230  137.0380 C   0  0  0  0  0  2  0  0  0  0  0  0
  157.4900  210.4370  138.1960 C   0  0  1  0  0  3  0  0  0  0  0  0
  153.7850  209.7880  137.6270 O   0  0  0  0  0  1  0  0  0  0  0  0
  157.3880  211.9600  138.1210 C   0  0  1  0  0  3  0  0  0  0  0  0
  156.1140  209.8510  138.5100 C   0  0  0  0  0  2  0  0  0  0  0  0
  163.4320  210.2340  140.5120 F   0  0  0  0  0  0  0  0  0  0  0  0
  163.0930  211.1240  138.4750 F   0  0  0  0  0  0  0  0  0  0  0  0
  161.8640  209.3620  139.1490 F   0  0  0  0  0  0  0  0  0  0  0  0
  162.4710  210.5330  139.5640 C   0  0  0  0  0  0  0  0  0  0  0  0
  1 10  1  1  0  0  0
  2  3  2  0  0  0  0
  5 27  1  1  0  0  0
  5  1  1  0  0  0  0
  6  1  1  0  0  0  0
  6  9  1  0  0  0  0
  7  4  1  6  0  0  0
  7  5  1  0  0  0  0
  7  6  1  0  0  0  0
  8  3  1  0  0  0  0
  9  8  2  0  0  0  0
 10  2  1  0  0  0  0
 11 16  1  0  0  0  0
 12 20  1  0  0  0  0
 13 15  1  0  0  0  0
 14 18  1  0  0  0  0
 15 17  1  0  0  0  0
 17 11  2  0  0  0  0
 18 16  2  0  0  0  0
 19  3  1  6  0  0  0
 19 13  1  0  0  0  0
 19 12  1  0  0  0  0
 20 17  1  0  0  0  0
 20 14  1  0  0  0  0
 22 28  1  0  0  0  0
 23 22  2  0  0  0  0
 24 23  1  0  0  0  0
 25 21  1  6  0  0  0
 25 28  1  0  0  0  0
 26 22  1  0  0  0  0
 27 24  1  6  0  0  0
 27 25  1  0  0  0  0
 30 32  1  0  0  0  0
 31 32  1  0  0  0  0
 32  9  1  0  0  0  0
 32 29  1  0  0  0  0
M  END
>  <MODEL>
5

>  <REMARK>
 VINA RESULT:      -4.9      9.945     13.654
  Name = 
  3 active torsions:
  status: ('A' for Active; 'I' for Inactive)
    1  A    between atoms: C_9  and  C_25
    2  A    between atoms: C_15  and  C_27
    3  A    between atoms: C_29  and  C_31
                            x       y       z     vdW  Elec       q    Type
                         _______ _______ _______ _____ _____    ______ ____

>  <TORSDO>
F 3

$$$$
=
 OpenBabel11072411543D

 32 36  0  0  1  0  0  0  0  0999 V2000
  161.3810  212.1400  141.5080 N   0  0  2  0  0  0  0  0  0  0  0  0
  161.5190  213.4460  143.5300 C   0  0  0  0  0  3  0  0  0  0  0  0
  160.2380  213.6900  143.8450 C   0  0  0  0  0  0  0  0  0  0  0  0
  159.8000  211.1190  139.2800 O   0  0  0  0  0  1  0  0  0  0  0  0
  161.8640  211.7400  140.1970 C   0  0  1  0  0  3  0  0  0  0  0  0
  160.1380  212.6460  141.0350 N   0  0  0  0  0  0  0  0  0  0  0  0
  160.5720  212.2070  139.6900 C   0  0  2  0  0  3  0  0  0  0  0  0
  159.1150  213.8170  142.8720 C   0  0  0  0  0  3  0  0  0  0  0  0
  159.0610  213.3900  141.6030 C   0  0  0  0  0  0  0  0  0  0  0  0
  162.0630  213.2570  142.1510 C   0  0  0  0  0  2  0  0  0  0  0  0
  158.9370  213.3220  149.3180 C   0  0  0  0  0  3  0  0  0  0  0  0
  158.5050  213.5150  145.6250 C   0  0  0  0  0  2  0  0  0  0  0  0
  160.9030  213.1110  146.1760 C   0  0  0  0  0  2  0  0  0  0  0  0
  156.8960  214.1230  147.4530 C   0  0  0  0  0  2  0  0  0  0  0  0
  160.7110  213.4830  147.6420 C   0  0  0  0  0  2  0  0  0  0  0  0
  157.5260  213.3630  149.7280 C   0  0  0  0  0  3  0  0  0  0  0  0
  159.2650  213.4560  148.0330 C   0  0  0  0  0  0  0  0  0  0  0  0
  156.5690  213.6990  148.8610 C   0  0  0  0  0  3  0  0  0  0  0  0
  159.9440  213.9080  145.2950 C   0  0  1  0  0  3  0  0  0  0  0  0
  158.2320  213.6780  147.0500 N   0  0  0  0  0  0  0  0  0  0  0  0
  162.4450  212.4890  137.2250 F   0  0  0  0  0  0  0  0  0  0  0  0
  165.1370  213.7500  138.0580 C   0  0  0  0  0  0  0  0  0  0  0  0
  165.4150  212.6190  138.7180 C   0  0  0  0  0  3  0  0  0  0  0  0
  164.3660  211.7550  139.3590 C   0  0  0  0  0  2  0  0  0  0  0  0
  162.6490  213.3140  138.3170 C   0  0  1  0  0  3  0  0  0  0  0  0
  166.1770  214.4530  137.4660 O   0  0  0  0  0  1  0  0  0  0  0  0
  163.0450  212.5130  139.5570 C   0  0  1  0  0  3  0  0  0  0  0  0
  163.7450  214.3280  137.9950 C   0  0  0  0  0  2  0  0  0  0  0  0
  157.2900  212.4400  140.3690 F   0  0  0  0  0  0  0  0  0  0  0  0
  158.1250  214.4010  139.6530 F   0  0  0  0  0  0  0  0  0  0  0  0
  156.9020  214.3240  141.5420 F   0  0  0  0  0  0  0  0  0  0  0  0
  157.8320  213.6450  140.7770 C   0  0  0  0  0  0  0  0  0  0  0  0
  1 10  1  6  0  0  0
  2  3  2  0  0  0  0
  5 27  1  6  0  0  0
  5  1  1  0  0  0  0
  6  1  1  0  0  0  0
  6  9  1  0  0  0  0
  7  4  1  1  0  0  0
  7  5  1  0  0  0  0
  7  6  1  0  0  0  0
  8  3  1  0  0  0  0
  9  8  2  0  0  0  0
 10  2  1  0  0  0  0
 11 16  1  0  0  0  0
 12 20  1  0  0  0  0
 13 15  1  0  0  0  0
 14 18  1  0  0  0  0
 15 17  1  0  0  0  0
 17 11  2  0  0  0  0
 18 16  2  0  0  0  0
 19  3  1  6  0  0  0
 19 12  1  0  0  0  0
 19 13  1  0  0  0  0
 20 14  1  0  0  0  0
 20 17  1  0  0  0  0
 22 23  2  0  0  0  0
 23 24  1  0  0  0  0
 25 21  1  6  0  0  0
 25 27  1  0  0  0  0
 26 22  1  0  0  0  0
 27 24  1  6  0  0  0
 28 22  1  0  0  0  0
 28 25  1  0  0  0  0
 29 32  1  0  0  0  0
 30 32  1  0  0  0  0
 32 31  1  0  0  0  0
 32  9  1  0  0  0  0
M  END
>  <MODEL>
6

>  <REMARK>
 VINA RESULT:      -4.7      9.685     13.389
  Name = 
  3 active torsions:
  status: ('A' for Active; 'I' for Inactive)
    1  A    between atoms: C_9  and  C_25
    2  A    between atoms: C_15  and  C_27
    3  A    between atoms: C_29  and  C_31
                            x       y       z     vdW  Elec       q    Type
                         _______ _______ _______ _____ _____    ______ ____

>  <TORSDO>
F 3

$$$$
