=
 OpenBabel11072412353D

 51 56  0  0  1  0  0  0  0  0999 V2000
  161.0040  213.3800  145.8630 C   0  0  1  0  0  3  0  0  0  0  0  0
  161.1970  212.8720  144.4560 C   0  0  0  0  0  3  0  0  0  0  0  0
  158.1600  214.1230  142.9150 N   0  0  0  0  0  0  0  0  0  0  0  0
  161.1310  213.3960  139.8430 C   0  0  1  0  0  3  0  0  0  0  0  0
  158.2690  214.0170  141.4850 C   0  0  0  0  0  0  0  0  0  0  0  0
  158.7310  214.0240  145.1930 N   0  0  0  0  0  0  0  0  0  0  0  0
  160.5950  212.6360  142.1120 C   0  0  0  0  0  2  0  0  0  0  0  0
  157.2130  213.8410  140.8240 O   0  0  0  0  0  0  0  0  0  0  0  0
  159.7390  213.7900  139.3330 C   0  0  2  0  0  3  0  0  0  0  0  0
  159.0510  213.8160  143.8130 C   0  0  0  0  0  0  0  0  0  0  0  0
  160.8270  213.7910  141.2380 N   0  0  2  0  0  0  0  0  0  0  0  0
  159.5580  214.3550  140.7410 C   0  0  2  0  0  3  0  0  0  0  0  0
  160.3160  213.1210  143.4860 C   0  0  0  0  0  0  0  0  0  0  0  0
  159.5870  213.8030  146.1460 C   0  0  0  0  0  3  0  0  0  0  0  0
  162.9500  213.7490  147.9430 O   0  0  0  0  0  0  0  0  0  0  0  0
  161.4160  212.3760  146.8320 N   0  0  0  0  0  2  0  0  0  0  0  0
  162.3780  212.6280  147.8600 C   0  0  0  0  0  0  0  0  0  0  0  0
  162.6740  211.5590  148.8640 C   0  0  0  0  0  2  0  0  0  0  0  0
  161.8390  210.1900  150.8410 C   0  0  1  0  0  3  0  0  0  0  0  0
  159.8630  212.2510  151.4640 C   0  0  2  0  0  3  0  0  0  0  0  0
  161.5020  211.2880  149.8090 C   0  0  1  0  0  3  0  0  0  0  0  0
  161.2800  210.3950  152.1300 O   0  0  0  0  0  0  0  0  0  0  0  0
  159.8990  213.2300  152.6210 C   0  0  0  0  0  1  0  0  0  0  0  0
  159.9400  210.8150  151.9980 C   0  0  0  0  0  2  0  0  0  0  0  0
  161.0130  212.5600  150.5020 C   0  0  0  0  0  2  0  0  0  0  0  0
  161.2580  207.8570  152.6020 C   0  0  0  0  0  1  0  0  0  0  0  0
  161.5700  207.6780  151.1920 N   0  0  0  0  0  0  0  0  0  0  0  0
  161.5620  208.8150  150.3090 C   0  0  0  0  0  0  0  0  0  0  0  0
  161.3300  208.6600  149.0780 O   0  0  0  0  0  0  0  0  0  0  0  0
  161.4110  205.2000  151.4880 C   0  0  0  0  0  0  0  0  0  0  0  0
  161.7040  206.3650  150.7060 N   0  0  0  0  0  2  0  0  0  0  0  0
  160.8160  205.3010  152.5980 O   0  0  0  0  0  0  0  0  0  0  0  0
  160.8600  201.7200  150.7990 C   0  0  0  0  0  2  0  0  0  0  0  0
  161.1150  202.8080  151.7320 N   0  0  0  0  0  2  0  0  0  0  0  0
  160.7790  202.3000  149.3980 C   0  0  0  0  0  2  0  0  0  0  0  0
  161.7530  203.8540  150.9440 C   0  0  1  0  0  3  0  0  0  0  0  0
  161.2690  203.7210  149.5150 C   0  0  0  0  0  2  0  0  0  0  0  0
  161.4820  211.9760  139.6640 N   0  0  0  0  0  0  0  0  0  0  0  0
  161.9140  211.7920  138.2840 C   0  0  0  0  0  1  0  0  0  0  0  0
  162.6690  211.7220  140.4620 C   0  0  0  0  0  1  0  0  0  0  0  0
  158.9410  212.6580  139.1280 O   0  0  0  0  0  0  0  0  0  0  0  0
  158.5650  212.7430  137.8320 N   0  0  0  0  0  2  0  0  0  0  0  0
  157.1700  212.6140  137.7990 N   0  0  0  0  0  2  0  0  0  0  0  0
  156.8800  211.2520  137.6310 N   0  0  0  0  0  2  0  0  0  0  0  0
  153.8920  209.3460  139.8510 C   0  0  0  0  0  0  0  0  0  0  0  0
  152.9260  208.7420  140.5790 F   0  0  0  0  0  0  0  0  0  0  0  0
  154.6410  211.2180  138.6160 C   0  0  0  0  0  3  0  0  0  0  0  0
  156.0660  209.3150  138.9250 C   0  0  0  0  0  3  0  0  0  0  0  0
  155.8640  210.5880  138.3850 C   0  0  0  0  0  0  0  0  0  0  0  0
  153.6800  210.5890  139.3430 N   0  0  0  0  0  0  0  0  0  0  0  0
  155.0800  208.7180  139.6440 N   0  0  0  0  0  0  0  0  0  0  0  0
  1 14  1  0  0  0  0
  1 16  1  1  0  0  0
  2  1  1  0  0  0  0
  3 10  2  0  0  0  0
  4 38  1  1  0  0  0
  4 11  1  0  0  0  0
  5  3  1  0  0  0  0
  6 14  2  0  0  0  0
  7 13  1  0  0  0  0
  8  5  2  0  0  0  0
  9 41  1  1  0  0  0
  9  4  1  0  0  0  0
  9 12  1  0  0  0  0
 10  6  1  0  0  0  0
 11  7  1  1  0  0  0
 12 11  1  0  0  0  0
 12  5  1  1  0  0  0
 13 10  1  0  0  0  0
 13  2  2  0  0  0  0
 16 17  1  0  0  0  0
 17 15  2  0  0  0  0
 17 18  1  0  0  0  0
 19 28  1  6  0  0  0
 19 22  1  0  0  0  0
 20 24  1  0  0  0  0
 20 23  1  1  0  0  0
 21 18  1  1  0  0  0
 21 25  1  0  0  0  0
 21 19  1  0  0  0  0
 24 22  1  0  0  0  0
 25 20  1  0  0  0  0
 27 26  1  0  0  0  0
 28 27  1  0  0  0  0
 29 28  2  0  0  0  0
 30 32  2  0  0  0  0
 31 27  1  0  0  0  0
 31 30  1  0  0  0  0
 33 34  1  0  0  0  0
 35 37  1  0  0  0  0
 35 33  1  0  0  0  0
 36 30  1  1  0  0  0
 36 34  1  0  0  0  0
 37 36  1  0  0  0  0
 38 40  1  0  0  0  0
 39 38  1  0  0  0  0
 42 41  1  0  0  0  0
 43 42  1  0  0  0  0
 44 43  1  0  0  0  0
 44 49  1  0  0  0  0
 45 46  1  0  0  0  0
 47 50  1  0  0  0  0
 48 51  2  0  0  0  0
 49 47  2  0  0  0  0
 49 48  1  0  0  0  0
 50 45  2  0  0  0  0
 51 45  1  0  0  0  0
M  END
>  <MODEL>
1

>  <REMARK>
 VINA RESULT:      -5.7      0.000      0.000
  Name = 
  12 active torsions:
  status: ('A' for Active; 'I' for Inactive)
    1  A    between atoms: C_1  and  C_47
    2  A    between atoms: C_3  and  N_28
    3  A    between atoms: N_5  and  N_8
    4  A    between atoms: N_5  and  O_21
    5  A    between atoms: C_6  and  C_46
    6  A    between atoms: N_8  and  N_43
    7  A    between atoms: C_12  and  N_14
    8  A    between atoms: N_20  and  N_42
    9  A    between atoms: O_21  and  C_26
   10  A    between atoms: C_29  and  C_46
   11  A    between atoms: C_34  and  C_45
   12  A    between atoms: C_37  and  N_43
                            x       y       z     vdW  Elec       q    Type
                         _______ _______ _______ _____ _____    ______ ____

>  <TORSDO>
F 12

$$$$
=
 OpenBabel11072412353D

 51 56  0  0  1  0  0  0  0  0999 V2000
  161.0380  209.6360  154.9970 C   0  0  1  0  0  3  0  0  0  0  0  0
  160.7340  208.4000  154.1880 C   0  0  0  0  0  3  0  0  0  0  0  0
  162.2600  209.3250  151.0300 N   0  0  0  0  0  0  0  0  0  0  0  0
  161.9160  205.0100  151.2460 C   0  0  1  0  0  3  0  0  0  0  0  0
  162.3580  208.1650  150.1870 C   0  0  0  0  0  0  0  0  0  0  0  0
  161.8220  210.6660  152.9110 N   0  0  0  0  0  0  0  0  0  0  0  0
  160.8490  206.9990  152.2060 C   0  0  0  0  0  2  0  0  0  0  0  0
  162.3030  208.3340  148.9420 O   0  0  0  0  0  0  0  0  0  0  0  0
  162.4100  205.5650  149.9040 C   0  0  2  0  0  3  0  0  0  0  0  0
  161.8080  209.3970  152.2490 C   0  0  0  0  0  0  0  0  0  0  0  0
  162.1130  206.2970  151.9500 N   0  0  2  0  0  0  0  0  0  0  0  0
  162.7700  206.7990  150.7280 C   0  0  2  0  0  3  0  0  0  0  0  0
  161.1390  208.2630  152.9260 C   0  0  0  0  0  0  0  0  0  0  0  0
  161.4480  210.8090  154.1470 C   0  0  0  0  0  3  0  0  0  0  0  0
  160.4830  212.2620  156.0240 O   0  0  0  0  0  0  0  0  0  0  0  0
  159.8970  210.0060  155.8210 N   0  0  0  0  0  2  0  0  0  0  0  0
  159.6640  211.3390  156.2840 C   0  0  0  0  0  0  0  0  0  0  0  0
  158.4180  211.6390  157.0550 C   0  0  0  0  0  2  0  0  0  0  0  0
  157.3560  212.6590  154.9790 C   0  0  1  0  0  3  0  0  0  0  0  0
  155.5780  214.2690  156.6480 C   0  0  2  0  0  3  0  0  0  0  0  0
  157.6390  212.8280  156.4870 C   0  0  1  0  0  3  0  0  0  0  0  0
  156.0980  213.1610  154.5510 O   0  0  0  0  0  0  0  0  0  0  0  0
  154.0910  214.0610  156.8640 C   0  0  0  0  0  1  0  0  0  0  0  0
  155.8670  214.4180  155.1490 C   0  0  0  0  0  2  0  0  0  0  0  0
  156.3490  213.0960  157.2600 C   0  0  0  0  0  2  0  0  0  0  0  0
  157.0960  213.1760  152.0540 C   0  0  0  0  0  1  0  0  0  0  0  0
  158.4000  213.1230  152.6980 N   0  0  0  0  0  0  0  0  0  0  0  0
  158.4900  213.1620  154.1340 C   0  0  0  0  0  0  0  0  0  0  0  0
  159.5290  213.6110  154.6920 O   0  0  0  0  0  0  0  0  0  0  0  0
  159.4950  213.5260  150.4860 C   0  0  0  0  0  0  0  0  0  0  0  0
  159.5430  213.2080  151.8830 N   0  0  0  0  0  2  0  0  0  0  0  0
  158.4290  213.9500  149.9570 O   0  0  0  0  0  0  0  0  0  0  0  0
  161.9120  211.8580  148.4200 C   0  0  0  0  0  2  0  0  0  0  0  0
  161.2540  212.0550  149.7040 N   0  0  0  0  0  2  0  0  0  0  0  0
  161.3030  212.8230  147.4180 C   0  0  0  0  0  2  0  0  0  0  0  0
  160.7400  213.4180  149.6720 C   0  0  1  0  0  3  0  0  0  0  0  0
  160.4630  213.7770  148.2270 C   0  0  0  0  0  2  0  0  0  0  0  0
  160.5280  204.5120  151.2420 N   0  0  0  0  0  0  0  0  0  0  0  0
  160.5170  203.2220  150.5640 C   0  0  0  0  0  1  0  0  0  0  0  0
  160.1750  204.2120  152.6180 C   0  0  0  0  0  1  0  0  0  0  0  0
  161.3370  205.8200  149.0410 O   0  0  0  0  0  0  0  0  0  0  0  0
  161.6190  205.1000  147.9320 N   0  0  0  0  0  2  0  0  0  0  0  0
  162.3870  205.9180  147.0930 N   0  0  0  0  0  2  0  0  0  0  0  0
  162.2080  205.4560  145.7810 N   0  0  0  0  0  2  0  0  0  0  0  0
  159.9890  202.0230  144.8950 C   0  0  0  0  0  0  0  0  0  0  0  0
  159.2580  200.9210  144.6110 F   0  0  0  0  0  0  0  0  0  0  0  0
  160.4620  204.3070  144.5090 C   0  0  0  0  0  3  0  0  0  0  0  0
  161.6890  203.0730  146.1580 C   0  0  0  0  0  3  0  0  0  0  0  0
  161.4610  204.2750  145.4820 C   0  0  0  0  0  0  0  0  0  0  0  0
  159.7460  203.1860  144.2340 N   0  0  0  0  0  0  0  0  0  0  0  0
  160.9530  201.9730  145.8520 N   0  0  0  0  0  0  0  0  0  0  0  0
  1 16  1  6  0  0  0
  2  1  1  0  0  0  0
  3 10  2  0  0  0  0
  4 38  1  6  0  0  0
  4 11  1  0  0  0  0
  5  3  1  0  0  0  0
  6 14  2  0  0  0  0
  7 13  1  0  0  0  0
  8  5  2  0  0  0  0
  9 41  1  6  0  0  0
  9 12  1  0  0  0  0
  9  4  1  0  0  0  0
 10  6  1  0  0  0  0
 10 13  1  0  0  0  0
 11  7  1  6  0  0  0
 12  5  1  6  0  0  0
 12 11  1  0  0  0  0
 13  2  2  0  0  0  0
 14  1  1  0  0  0  0
 15 17  2  0  0  0  0
 16 17  1  0  0  0  0
 17 18  1  0  0  0  0
 19 28  1  6  0  0  0
 19 21  1  0  0  0  0
 20 23  1  6  0  0  0
 20 25  1  0  0  0  0
 21 18  1  1  0  0  0
 21 25  1  0  0  0  0
 22 19  1  0  0  0  0
 22 24  1  0  0  0  0
 24 20  1  0  0  0  0
 26 27  1  0  0  0  0
 27 28  1  0  0  0  0
 28 29  2  0  0  0  0
 30 31  1  0  0  0  0
 31 27  1  0  0  0  0
 32 30  2  0  0  0  0
 33 34  1  0  0  0  0
 35 37  1  0  0  0  0
 35 33  1  0  0  0  0
 36 34  1  0  0  0  0
 36 30  1  1  0  0  0
 37 36  1  0  0  0  0
 38 40  1  0  0  0  0
 39 38  1  0  0  0  0
 42 41  1  0  0  0  0
 43 42  1  0  0  0  0
 44 43  1  0  0  0  0
 45 51  1  0  0  0  0
 46 45  1  0  0  0  0
 47 49  2  0  0  0  0
 49 44  1  0  0  0  0
 49 48  1  0  0  0  0
 50 47  1  0  0  0  0
 50 45  2  0  0  0  0
 51 48  2  0  0  0  0
M  END
>  <MODEL>
2

>  <REMARK>
 VINA RESULT:      -4.5      6.357     10.345
  Name = 
  12 active torsions:
  status: ('A' for Active; 'I' for Inactive)
    1  A    between atoms: C_1  and  C_47
    2  A    between atoms: C_3  and  N_28
    3  A    between atoms: N_5  and  N_8
    4  A    between atoms: N_5  and  O_21
    5  A    between atoms: C_6  and  C_46
    6  A    between atoms: N_8  and  N_43
    7  A    between atoms: C_12  and  N_14
    8  A    between atoms: N_20  and  N_42
    9  A    between atoms: O_21  and  C_26
   10  A    between atoms: C_29  and  C_46
   11  A    between atoms: C_34  and  C_45
   12  A    between atoms: C_37  and  N_43
                            x       y       z     vdW  Elec       q    Type
                         _______ _______ _______ _____ _____    ______ ____

>  <TORSDO>
F 12

$$$$
=
 OpenBabel11072412353D

 51 56  0  0  1  0  0  0  0  0999 V2000
  160.5950  212.4840  147.8210 C   0  0  1  0  0  3  0  0  0  0  0  0
  160.9870  212.2130  146.3900 C   0  0  0  0  0  3  0  0  0  0  0  0
  158.3180  213.9630  144.6650 N   0  0  0  0  0  0  0  0  0  0  0  0
  161.7070  213.5320  141.9970 C   0  0  1  0  0  3  0  0  0  0  0  0
  158.6540  214.0970  143.2740 C   0  0  0  0  0  0  0  0  0  0  0  0
  158.5020  213.4230  146.9460 N   0  0  0  0  0  0  0  0  0  0  0  0
  160.7650  212.4380  143.9790 C   0  0  0  0  0  2  0  0  0  0  0  0
  157.7120  214.1280  142.4400 O   0  0  0  0  0  0  0  0  0  0  0  0
  160.4420  214.1240  141.3640 C   0  0  2  0  0  3  0  0  0  0  0  0
  159.0310  213.4310  145.6150 C   0  0  0  0  0  0  0  0  0  0  0  0
  161.2020  213.7030  143.3780 N   0  0  2  0  0  0  0  0  0  0  0  0
  160.0640  214.4490  142.8080 C   0  0  2  0  0  3  0  0  0  0  0  0
  160.2930  212.6990  145.3610 C   0  0  0  0  0  0  0  0  0  0  0  0
  159.1760  212.9690  147.9590 C   0  0  0  0  0  3  0  0  0  0  0  0
  163.0680  211.6450  149.0170 O   0  0  0  0  0  0  0  0  0  0  0  0
  160.7860  211.2960  148.6390 N   0  0  0  0  0  2  0  0  0  0  0  0
  162.0420  210.9430  149.2260 C   0  0  0  0  0  0  0  0  0  0  0  0
  162.1210  209.7480  150.1230 C   0  0  0  0  0  2  0  0  0  0  0  0
  161.6590  209.0750  152.5340 C   0  0  1  0  0  3  0  0  0  0  0  0
  159.7500  211.2710  152.8070 C   0  0  2  0  0  3  0  0  0  0  0  0
  161.1260  209.8090  151.2840 C   0  0  1  0  0  3  0  0  0  0  0  0
  161.3110  209.6810  153.7700 O   0  0  0  0  0  0  0  0  0  0  0  0
  159.9440  212.5590  153.5830 C   0  0  0  0  0  1  0  0  0  0  0  0
  159.9550  210.0700  153.7370 C   0  0  0  0  0  2  0  0  0  0  0  0
  160.7190  211.2420  151.6210 C   0  0  0  0  0  2  0  0  0  0  0  0
  163.3570  207.0720  151.1240 C   0  0  0  0  0  1  0  0  0  0  0  0
  162.0190  206.7350  151.5860 N   0  0  0  0  0  0  0  0  0  0  0  0
  161.3390  207.6090  152.5040 C   0  0  0  0  0  0  0  0  0  0  0  0
  160.4610  207.1500  153.2860 O   0  0  0  0  0  0  0  0  0  0  0  0
  161.1320  205.1020  149.9120 C   0  0  0  0  0  0  0  0  0  0  0  0
  161.5020  205.4720  151.2470 N   0  0  0  0  0  2  0  0  0  0  0  0
  161.4450  205.8330  148.9300 O   0  0  0  0  0  0  0  0  0  0  0  0
  160.7100  201.8160  148.5290 C   0  0  0  0  0  2  0  0  0  0  0  0
  160.7730  203.2630  148.3770 N   0  0  0  0  0  2  0  0  0  0  0  0
  160.9230  201.4800  149.9930 C   0  0  0  0  0  2  0  0  0  0  0  0
  160.4300  203.8060  149.6840 C   0  0  1  0  0  3  0  0  0  0  0  0
  160.8380  202.7910  150.7310 C   0  0  0  0  0  2  0  0  0  0  0  0
  162.0040  212.1400  141.6140 N   0  0  0  0  0  0  0  0  0  0  0  0
  160.7360  211.4450  141.4350 C   0  0  0  0  0  1  0  0  0  0  0  0
  162.5990  212.1770  140.2900 C   0  0  0  0  0  1  0  0  0  0  0  0
  159.6270  213.1160  140.8350 O   0  0  0  0  0  0  0  0  0  0  0  0
  158.9500  213.7220  139.8340 N   0  0  0  0  0  2  0  0  0  0  0  0
  159.5630  213.3430  138.6330 N   0  0  0  0  0  2  0  0  0  0  0  0
  159.1840  212.0180  138.3700 N   0  0  0  0  0  2  0  0  0  0  0  0
  155.3240  210.6310  139.1880 C   0  0  0  0  0  0  0  0  0  0  0  0
  154.0760  210.1910  139.4660 F   0  0  0  0  0  0  0  0  0  0  0  0
  156.8060  212.4270  138.7790 C   0  0  0  0  0  3  0  0  0  0  0  0
  157.6090  210.1670  138.8000 C   0  0  0  0  0  3  0  0  0  0  0  0
  157.8670  211.5320  138.6430 C   0  0  0  0  0  0  0  0  0  0  0  0
  155.5580  211.9620  139.0490 N   0  0  0  0  0  0  0  0  0  0  0  0
  156.3460  209.7430  139.0670 N   0  0  0  0  0  0  0  0  0  0  0  0
  1 14  1  0  0  0  0
  1 16  1  1  0  0  0
  2  1  1  0  0  0  0
  3 10  2  0  0  0  0
  4 38  1  6  0  0  0
  4 11  1  0  0  0  0
  5  3  1  0  0  0  0
  6 14  2  0  0  0  0
  7 13  1  0  0  0  0
  8  5  2  0  0  0  0
  9 41  1  1  0  0  0
  9  4  1  0  0  0  0
  9 12  1  0  0  0  0
 10  6  1  0  0  0  0
 11  7  1  6  0  0  0
 12  5  1  1  0  0  0
 12 11  1  0  0  0  0
 13 10  1  0  0  0  0
 13  2  2  0  0  0  0
 15 17  2  0  0  0  0
 16 17  1  0  0  0  0
 17 18  1  0  0  0  0
 19 28  1  1  0  0  0
 19 22  1  0  0  0  0
 20 23  1  1  0  0  0
 20 24  1  0  0  0  0
 21 18  1  6  0  0  0
 21 25  1  0  0  0  0
 21 19  1  0  0  0  0
 24 22  1  0  0  0  0
 25 20  1  0  0  0  0
 26 27  1  0  0  0  0
 27 28  1  0  0  0  0
 28 29  2  0  0  0  0
 30 31  1  0  0  0  0
 31 27  1  0  0  0  0
 32 30  2  0  0  0  0
 33 35  1  0  0  0  0
 34 33  1  0  0  0  0
 34 36  1  0  0  0  0
 35 37  1  0  0  0  0
 36 30  1  1  0  0  0
 36 37  1  0  0  0  0
 39 38  1  0  0  0  0
 40 38  1  0  0  0  0
 42 41  1  0  0  0  0
 43 42  1  0  0  0  0
 44 43  1  0  0  0  0
 44 49  1  0  0  0  0
 45 46  1  0  0  0  0
 47 50  1  0  0  0  0
 48 51  2  0  0  0  0
 49 47  2  0  0  0  0
 49 48  1  0  0  0  0
 50 45  2  0  0  0  0
 51 45  1  0  0  0  0
M  END
>  <MODEL>
3

>  <REMARK>
 VINA RESULT:      -3.5      1.631      2.193
  Name = 
  12 active torsions:
  status: ('A' for Active; 'I' for Inactive)
    1  A    between atoms: C_1  and  C_47
    2  A    between atoms: C_3  and  N_28
    3  A    between atoms: N_5  and  N_8
    4  A    between atoms: N_5  and  O_21
    5  A    between atoms: C_6  and  C_46
    6  A    between atoms: N_8  and  N_43
    7  A    between atoms: C_12  and  N_14
    8  A    between atoms: N_20  and  N_42
    9  A    between atoms: O_21  and  C_26
   10  A    between atoms: C_29  and  C_46
   11  A    between atoms: C_34  and  C_45
   12  A    between atoms: C_37  and  N_43
                            x       y       z     vdW  Elec       q    Type
                         _______ _______ _______ _____ _____    ______ ____

>  <TORSDO>
F 12

$$$$
=
 OpenBabel11072412353D

 51 56  0  0  1  0  0  0  0  0999 V2000
  162.8930  207.2310  148.1140 C   0  0  1  0  0  3  0  0  0  0  0  0
  162.0530  208.4180  147.7160 C   0  0  0  0  0  3  0  0  0  0  0  0
  161.8560  210.1450  150.9000 N   0  0  0  0  0  0  0  0  0  0  0  0
  161.0880  212.9590  147.6950 C   0  0  1  0  0  3  0  0  0  0  0  0
  161.3500  211.4750  150.6940 C   0  0  0  0  0  0  0  0  0  0  0  0
  162.6300  207.9730  150.4400 N   0  0  0  0  0  0  0  0  0  0  0  0
  160.9450  210.5460  148.1090 C   0  0  0  0  0  2  0  0  0  0  0  0
  160.6880  212.0050  151.6240 O   0  0  0  0  0  0  0  0  0  0  0  0
  160.8950  213.5080  149.1130 C   0  0  2  0  0  3  0  0  0  0  0  0
  162.1060  209.2330  150.0060 C   0  0  0  0  0  0  0  0  0  0  0  0
  161.7900  211.7440  148.1660 N   0  0  2  0  0  0  0  0  0  0  0  0
  161.7910  212.3390  149.5160 C   0  0  2  0  0  3  0  0  0  0  0  0
  161.7310  209.3800  148.5810 C   0  0  0  0  0  0  0  0  0  0  0  0
  162.9650  207.0350  149.6050 C   0  0  0  0  0  3  0  0  0  0  0  0
  160.2160  206.2080  148.3100 O   0  0  0  0  0  0  0  0  0  0  0  0
  162.3970  206.0160  147.4860 N   0  0  0  0  0  2  0  0  0  0  0  0
  161.0430  205.5690  147.6050 C   0  0  0  0  0  0  0  0  0  0  0  0
  160.6050  204.3520  146.8530 C   0  0  0  0  0  2  0  0  0  0  0  0
  160.5570  202.6410  148.7370 C   0  0  1  0  0  3  0  0  0  0  0  0
  161.7580  200.6370  146.9810 C   0  0  2  0  0  3  0  0  0  0  0  0
  161.2150  203.0610  147.4050 C   0  0  1  0  0  3  0  0  0  0  0  0
  160.4140  201.2390  148.9120 O   0  0  0  0  0  0  0  0  0  0  0  0
  161.0700  199.4370  146.3600 C   0  0  0  0  0  1  0  0  0  0  0  0
  161.6010  200.5930  148.5060 C   0  0  0  0  0  2  0  0  0  0  0  0
  161.1720  201.9210  146.3880 C   0  0  0  0  0  2  0  0  0  0  0  0
  159.8220  202.0100  151.5560 C   0  0  0  0  0  1  0  0  0  0  0  0
  160.6280  203.1770  151.2300 N   0  0  0  0  0  0  0  0  0  0  0  0
  161.2070  203.3010  149.9180 C   0  0  0  0  0  0  0  0  0  0  0  0
  162.2600  203.9750  149.7500 O   0  0  0  0  0  0  0  0  0  0  0  0
  160.8130  205.4880  152.1670 C   0  0  0  0  0  0  0  0  0  0  0  0
  160.9550  204.0650  152.2690 N   0  0  0  0  0  2  0  0  0  0  0  0
  160.1880  206.0050  151.1970 O   0  0  0  0  0  0  0  0  0  0  0  0
  160.8320  208.3080  154.3880 C   0  0  0  0  0  2  0  0  0  0  0  0
  160.9460  207.7390  153.0530 N   0  0  0  0  0  2  0  0  0  0  0  0
  160.5760  207.1790  155.3690 C   0  0  0  0  0  2  0  0  0  0  0  0
  161.3510  206.3540  153.2550 C   0  0  1  0  0  3  0  0  0  0  0  0
  160.8200  205.9060  154.6010 C   0  0  0  0  0  2  0  0  0  0  0  0
  159.8410  212.7040  146.9500 N   0  0  0  0  0  0  0  0  0  0  0  0
  159.1810  213.9840  146.7300 C   0  0  0  0  0  1  0  0  0  0  0  0
  160.2180  212.2470  145.6240 C   0  0  0  0  0  1  0  0  0  0  0  0
  159.5780  213.3200  149.5500 O   0  0  0  0  0  0  0  0  0  0  0  0
  159.2830  214.4530  150.2270 N   0  0  0  0  0  2  0  0  0  0  0  0
  158.0940  214.2160  150.9280 N   0  0  0  0  0  2  0  0  0  0  0  0
  158.4090  214.2070  152.2950 N   0  0  0  0  0  2  0  0  0  0  0  0
  156.1020  212.1510  155.1130 C   0  0  0  0  0  0  0  0  0  0  0  0
  155.3600  211.4720  156.0170 F   0  0  0  0  0  0  0  0  0  0  0  0
  158.1910  212.5470  154.0790 C   0  0  0  0  0  3  0  0  0  0  0  0
  156.2440  213.7690  153.3960 C   0  0  0  0  0  3  0  0  0  0  0  0
  157.6120  213.5160  153.2590 C   0  0  0  0  0  0  0  0  0  0  0  0
  157.4290  211.8830  154.9870 N   0  0  0  0  0  0  0  0  0  0  0  0
  155.5170  213.0860  154.3180 N   0  0  0  0  0  0  0  0  0  0  0  0
  1 16  1  6  0  0  0
  1 14  1  0  0  0  0
  2  1  1  0  0  0  0
  2 13  2  0  0  0  0
  4 38  1  1  0  0  0
  4 11  1  0  0  0  0
  4  9  1  0  0  0  0
  5  3  1  0  0  0  0
  5  8  2  0  0  0  0
  7 13  1  0  0  0  0
  9 12  1  0  0  0  0
  9 41  1  1  0  0  0
 10  6  1  0  0  0  0
 10  3  2  0  0  0  0
 11  7  1  1  0  0  0
 11 12  1  0  0  0  0
 12  5  1  1  0  0  0
 13 10  1  0  0  0  0
 14  6  2  0  0  0  0
 16 17  1  0  0  0  0
 17 15  2  0  0  0  0
 18 17  1  0  0  0  0
 19 22  1  0  0  0  0
 19 28  1  1  0  0  0
 20 23  1  6  0  0  0
 20 24  1  0  0  0  0
 21 18  1  6  0  0  0
 21 19  1  0  0  0  0
 24 22  1  0  0  0  0
 25 20  1  0  0  0  0
 25 21  1  0  0  0  0
 27 26  1  0  0  0  0
 27 31  1  0  0  0  0
 28 27  1  0  0  0  0
 29 28  2  0  0  0  0
 30 31  1  0  0  0  0
 32 30  2  0  0  0  0
 33 35  1  0  0  0  0
 34 36  1  0  0  0  0
 34 33  1  0  0  0  0
 36 30  1  6  0  0  0
 36 37  1  0  0  0  0
 37 35  1  0  0  0  0
 39 38  1  0  0  0  0
 40 38  1  0  0  0  0
 41 42  1  0  0  0  0
 42 43  1  0  0  0  0
 43 44  1  0  0  0  0
 44 49  1  0  0  0  0
 45 46  1  0  0  0  0
 47 50  1  0  0  0  0
 48 51  2  0  0  0  0
 49 48  1  0  0  0  0
 49 47  2  0  0  0  0
 50 45  2  0  0  0  0
 51 45  1  0  0  0  0
M  END
>  <MODEL>
4

>  <REMARK>
 VINA RESULT:      -3.3      5.690      9.850
  Name = 
  12 active torsions:
  status: ('A' for Active; 'I' for Inactive)
    1  A    between atoms: C_1  and  C_47
    2  A    between atoms: C_3  and  N_28
    3  A    between atoms: N_5  and  N_8
    4  A    between atoms: N_5  and  O_21
    5  A    between atoms: C_6  and  C_46
    6  A    between atoms: N_8  and  N_43
    7  A    between atoms: C_12  and  N_14
    8  A    between atoms: N_20  and  N_42
    9  A    between atoms: O_21  and  C_26
   10  A    between atoms: C_29  and  C_46
   11  A    between atoms: C_34  and  C_45
   12  A    between atoms: C_37  and  N_43
                            x       y       z     vdW  Elec       q    Type
                         _______ _______ _______ _____ _____    ______ ____

>  <TORSDO>
F 12

$$$$
