=
 OpenBabel11072415003D

 39 41  0  0  1  0  0  0  0  0999 V2000
  161.0710  211.2120  151.0050 O   0  0  0  0  0  1  0  0  0  0  0  0
  160.9380  209.9130  154.4180 O   0  0  0  0  0  0  0  0  0  0  0  0
  160.4350  210.4900  153.2130 C   0  0  2  0  0  3  0  0  0  0  0  0
  161.5740  208.0490  155.7290 C   0  0  0  0  0  3  0  0  0  0  0  0
  161.1680  208.5410  154.5550 C   0  0  0  0  0  0  0  0  0  0  0  0
  161.7620  208.9140  156.9270 C   0  0  0  0  0  1  0  0  0  0  0  0
  162.0150  208.0030  152.4240 O   0  0  0  0  0  0  0  0  0  0  0  0
  161.4200  208.8870  151.5100 C   0  0  2  0  0  3  0  0  0  0  0  0
  162.1760  208.7870  150.1940 C   0  0  0  0  0  1  0  0  0  0  0  0
  161.4280  210.3380  152.0400 C   0  0  1  0  0  3  0  0  0  0  0  0
  161.0140  207.6640  153.3390 C   0  0  1  0  0  3  0  0  0  0  0  0
  159.9900  212.3750  154.6690 N   0  0  0  0  0  2  0  0  0  0  0  0
  160.0330  211.9110  153.4720 C   0  0  0  0  0  0  0  0  0  0  0  0
  159.6960  212.7880  152.3080 C   0  0  0  0  0  2  0  0  0  0  0  0
  158.1920  212.8290  152.0410 C   0  0  1  0  0  3  0  0  0  0  0  0
  157.5670  213.6200  153.0050 O   0  0  0  0  0  1  0  0  0  0  0  0
  157.8490  213.3310  150.6330 C   0  0  0  0  0  2  0  0  0  0  0  0
  159.0280  213.9900  149.9180 C   0  0  0  0  0  2  0  0  0  0  0  0
  161.6000  213.6090  148.7070 O   0  0  0  0  0  0  0  0  0  0  0  0
  160.5850  213.1990  148.0790 C   0  0  0  0  0  0  0  0  0  0  0  0
  159.2730  213.3630  148.6270 N   0  0  0  0  0  2  0  0  0  0  0  0
  160.7560  212.5210  146.7650 C   0  0  0  0  0  2  0  0  0  0  0  0
  159.7670  213.0810  145.7640 C   0  0  0  0  0  2  0  0  0  0  0  0
  160.3970  211.5160  142.5120 N   0  0  0  0  0  2  0  0  0  0  0  0
  159.6490  212.1700  144.6410 N   0  0  0  0  0  2  0  0  0  0  0  0
  160.4880  212.3340  143.5050 C   0  0  0  0  0  3  0  0  0  0  0  0
  161.0160  206.1580  153.6030 C   0  0  0  0  0  2  0  0  0  0  0  0
  161.7390  205.4130  152.4930 C   0  0  2  0  0  3  0  0  0  0  0  0
  160.7670  204.9470  151.4830 C   0  0  2  0  0  3  0  0  0  0  0  0
  161.3000  204.0770  152.4520 O   0  0  0  0  0  0  0  0  0  0  0  0
  161.4520  204.7450  150.2160 N   0  0  0  0  0  2  0  0  0  0  0  0
  162.4710  204.8890  147.3360 N   0  0  0  0  0  0  0  0  0  0  0  0
  160.6380  202.1460  149.1060 C   0  0  0  0  0  1  0  0  0  0  0  0
  163.3200  204.9100  146.1590 C   0  0  0  0  0  1  0  0  0  0  0  0
  160.6680  203.4270  148.2920 C   0  0  1  0  0  3  0  0  0  0  0  0
  160.4400  204.6660  149.1670 C   0  0  2  0  0  3  0  0  0  0  0  0
  161.3570  205.7980  147.0690 C   0  0  0  0  0  2  0  0  0  0  0  0
  161.9700  203.5160  147.4720 C   0  0  0  0  0  2  0  0  0  0  0  0
  160.4780  205.9460  148.3180 C   0  0  0  0  0  2  0  0  0  0  0  0
  2  5  1  0  0  0  0
  3 13  1  1  0  0  0
  3  2  1  0  0  0  0
  4  6  1  0  0  0  0
  5  4  2  0  0  0  0
  7 11  1  0  0  0  0
  8  9  1  6  0  0  0
  8 10  1  0  0  0  0
  8  7  1  0  0  0  0
 10  1  1  6  0  0  0
 10  3  1  0  0  0  0
 11 27  1  1  0  0  0
 11  5  1  0  0  0  0
 13 12  2  0  0  0  0
 14 13  1  0  0  0  0
 15 14  1  0  0  0  0
 15 16  1  1  0  0  0
 17 15  1  0  0  0  0
 18 17  1  0  0  0  0
 20 21  1  0  0  0  0
 20 19  2  0  0  0  0
 21 18  1  0  0  0  0
 22 20  1  0  0  0  0
 23 22  1  0  0  0  0
 24 26  2  0  0  0  0
 25 23  1  0  0  0  0
 26 25  1  0  0  0  0
 28 27  1  1  0  0  0
 29 31  1  6  0  0  0
 29 30  1  0  0  0  0
 29 28  1  0  0  0  0
 30 28  1  0  0  0  0
 32 38  1  0  0  0  0
 34 32  1  0  0  0  0
 35 33  1  1  0  0  0
 35 36  1  0  0  0  0
 36 31  1  1  0  0  0
 37 32  1  0  0  0  0
 37 39  1  0  0  0  0
 38 35  1  0  0  0  0
 39 36  1  0  0  0  0
M  END
>  <MODEL>
1

>  <REMARK>
 VINA RESULT:      -6.1      0.000      0.000
  Name = 
  13 active torsions:
  status: ('A' for Active; 'I' for Inactive)
    1  A    between atoms: C_2  and  C_15
    2  A    between atoms: C_2  and  C_36
    3  A    between atoms: C_6  and  C_27
    4  A    between atoms: C_6  and  N_38
    5  A    between atoms: C_8  and  C_29
    6  A    between atoms: C_9  and  C_11
    7  A    between atoms: C_9  and  C_34
    8  A    between atoms: C_11  and  C_29
    9  A    between atoms: N_18  and  C_20
   10  A    between atoms: N_18  and  C_32
   11  A    between atoms: C_21  and  C_27
   12  A    between atoms: C_30  and  C_34
   13  A    between atoms: C_30  and  N_35
                            x       y       z     vdW  Elec       q    Type
                         _______ _______ _______ _____ _____    ______ ____

>  <TORSDO>
F 13

$$$$
=
 OpenBabel11072415003D

 39 41  0  0  1  0  0  0  0  0999 V2000
  161.4510  205.2380  151.4360 O   0  0  0  0  0  1  0  0  0  0  0  0
  161.5110  208.5170  149.8240 O   0  0  0  0  0  0  0  0  0  0  0  0
  160.9860  207.2360  150.1750 C   0  0  2  0  0  3  0  0  0  0  0  0
  161.8890  210.8080  150.2750 C   0  0  0  0  0  3  0  0  0  0  0  0
  161.4440  209.6170  150.6840 C   0  0  0  0  0  0  0  0  0  0  0  0
  162.4330  211.0210  148.9040 C   0  0  0  0  0  1  0  0  0  0  0  0
  161.8400  208.5960  152.7690 O   0  0  0  0  0  0  0  0  0  0  0  0
  161.3370  207.2870  152.6880 C   0  0  2  0  0  3  0  0  0  0  0  0
  161.8590  206.5050  153.8830 C   0  0  0  0  0  1  0  0  0  0  0  0
  161.7450  206.6050  151.3630 C   0  0  1  0  0  3  0  0  0  0  0  0
  160.9270  209.4020  152.0830 C   0  0  1  0  0  3  0  0  0  0  0  0
  160.5140  205.1570  149.0240 N   0  0  0  0  0  2  0  0  0  0  0  0
  160.9550  206.3610  148.9580 C   0  0  0  0  0  0  0  0  0  0  0  0
  161.4360  206.9210  147.6570 C   0  0  0  0  0  2  0  0  0  0  0  0
  161.1610  205.9730  146.4900 C   0  0  1  0  0  3  0  0  0  0  0  0
  160.1510  206.4990  145.6860 O   0  0  0  0  0  1  0  0  0  0  0  0
  162.4130  205.6790  145.6530 C   0  0  0  0  0  2  0  0  0  0  0  0
  162.6220  204.1910  145.3750 C   0  0  0  0  0  2  0  0  0  0  0  0
  160.4580  202.3740  144.8790 O   0  0  0  0  0  0  0  0  0  0  0  0
  160.8800  202.4810  146.0630 C   0  0  0  0  0  0  0  0  0  0  0  0
  161.9540  203.3730  146.3780 N   0  0  0  0  0  2  0  0  0  0  0  0
  160.2670  201.6570  147.1410 C   0  0  0  0  0  2  0  0  0  0  0  0
  161.2770  200.6540  147.6620 C   0  0  0  0  0  2  0  0  0  0  0  0
  160.9330  202.0240  151.0420 N   0  0  0  0  0  2  0  0  0  0  0  0
  161.5580  200.9330  149.0560 N   0  0  0  0  0  2  0  0  0  0  0  0
  160.6950  201.7880  149.7960 C   0  0  0  0  0  3  0  0  0  0  0  0
  160.6270  210.6720  152.8820 C   0  0  0  0  0  2  0  0  0  0  0  0
  159.4720  210.4470  153.8430 C   0  0  2  0  0  3  0  0  0  0  0  0
  159.5490  211.4150  154.9570 C   0  0  2  0  0  3  0  0  0  0  0  0
  159.9690  210.0810  155.1070 O   0  0  0  0  0  0  0  0  0  0  0  0
  158.2280  211.5790  155.5410 N   0  0  0  0  0  2  0  0  0  0  0  0
  157.0190  213.5090  153.5000 N   0  0  0  0  0  0  0  0  0  0  0  0
  155.7870  212.5120  156.8920 C   0  0  0  0  0  1  0  0  0  0  0  0
  156.3580  214.0700  152.3350 C   0  0  0  0  0  1  0  0  0  0  0  0
  156.6200  213.3910  155.9750 C   0  0  1  0  0  3  0  0  0  0  0  0
  158.0950  212.9700  155.9650 C   0  0  2  0  0  3  0  0  0  0  0  0
  158.0670  214.4520  153.8850 C   0  0  0  0  0  2  0  0  0  0  0  0
  156.0080  213.4300  154.5610 C   0  0  0  0  0  2  0  0  0  0  0  0
  158.9110  213.8740  155.0280 C   0  0  0  0  0  2  0  0  0  0  0  0
  2  3  1  0  0  0  0
  2  5  1  0  0  0  0
  3 13  1  6  0  0  0
  3 10  1  0  0  0  0
  4  5  2  0  0  0  0
  5 11  1  0  0  0  0
  6  4  1  0  0  0  0
  8  7  1  0  0  0  0
  8  9  1  1  0  0  0
 10  1  1  1  0  0  0
 10  8  1  0  0  0  0
 11  7  1  0  0  0  0
 11 27  1  1  0  0  0
 13 12  2  0  0  0  0
 14 13  1  0  0  0  0
 15 16  1  6  0  0  0
 15 14  1  0  0  0  0
 17 15  1  0  0  0  0
 18 17  1  0  0  0  0
 18 21  1  0  0  0  0
 19 20  2  0  0  0  0
 20 21  1  0  0  0  0
 20 22  1  0  0  0  0
 22 23  1  0  0  0  0
 23 25  1  0  0  0  0
 25 26  1  0  0  0  0
 26 24  2  0  0  0  0
 28 27  1  6  0  0  0
 28 29  1  0  0  0  0
 28 30  1  0  0  0  0
 29 30  1  0  0  0  0
 29 31  1  1  0  0  0
 32 37  1  0  0  0  0
 32 38  1  0  0  0  0
 34 32  1  0  0  0  0
 35 33  1  1  0  0  0
 36 31  1  6  0  0  0
 36 35  1  0  0  0  0
 37 39  1  0  0  0  0
 38 35  1  0  0  0  0
 39 36  1  0  0  0  0
M  END
>  <MODEL>
2

>  <REMARK>
 VINA RESULT:      -6.0      3.256      9.408
  Name = 
  13 active torsions:
  status: ('A' for Active; 'I' for Inactive)
    1  A    between atoms: C_2  and  C_15
    2  A    between atoms: C_2  and  C_36
    3  A    between atoms: C_6  and  C_27
    4  A    between atoms: C_6  and  N_38
    5  A    between atoms: C_8  and  C_29
    6  A    between atoms: C_9  and  C_11
    7  A    between atoms: C_9  and  C_34
    8  A    between atoms: C_11  and  C_29
    9  A    between atoms: N_18  and  C_20
   10  A    between atoms: N_18  and  C_32
   11  A    between atoms: C_21  and  C_27
   12  A    between atoms: C_30  and  C_34
   13  A    between atoms: C_30  and  N_35
                            x       y       z     vdW  Elec       q    Type
                         _______ _______ _______ _____ _____    ______ ____

>  <TORSDO>
F 13

$$$$
=
 OpenBabel11072415003D

 39 41  0  0  1  0  0  0  0  0999 V2000
  161.7340  205.5190  149.5850 O   0  0  0  0  0  1  0  0  0  0  0  0
  161.2750  208.2630  151.9550 O   0  0  0  0  0  0  0  0  0  0  0  0
  161.9040  207.1180  151.3780 C   0  0  2  0  0  3  0  0  0  0  0  0
  160.8750  210.5930  152.0530 C   0  0  0  0  0  3  0  0  0  0  0  0
  161.4310  209.5500  151.4310 C   0  0  0  0  0  0  0  0  0  0  0  0
  160.1090  210.4400  153.3220 C   0  0  0  0  0  1  0  0  0  0  0  0
  161.4200  209.1090  149.1180 O   0  0  0  0  0  0  0  0  0  0  0  0
  161.9600  207.8250  148.9410 C   0  0  2  0  0  3  0  0  0  0  0  0
  161.6710  207.3820  147.5150 C   0  0  0  0  0  1  0  0  0  0  0  0
  161.3740  206.8200  149.9580 C   0  0  1  0  0  3  0  0  0  0  0  0
  162.1750  209.7080  150.1290 C   0  0  1  0  0  3  0  0  0  0  0  0
  161.2260  206.0970  153.4670 N   0  0  0  0  0  2  0  0  0  0  0  0
  161.7760  205.9560  152.3160 C   0  0  0  0  0  0  0  0  0  0  0  0
  162.2910  204.6200  151.8810 C   0  0  0  0  0  2  0  0  0  0  0  0
  161.2110  203.5420  151.9490 C   0  0  1  0  0  3  0  0  0  0  0  0
  159.9930  204.0700  151.5200 O   0  0  0  0  0  1  0  0  0  0  0  0
  161.5650  202.2890  151.1380 C   0  0  0  0  0  2  0  0  0  0  0  0
  160.4040  201.7610  150.2970 C   0  0  0  0  0  2  0  0  0  0  0  0
  161.3300  200.2590  148.0350 O   0  0  0  0  0  0  0  0  0  0  0  0
  160.9540  201.4480  147.8410 C   0  0  0  0  0  0  0  0  0  0  0  0
  160.4860  202.2520  148.9280 N   0  0  0  0  0  2  0  0  0  0  0  0
  160.9810  202.0130  146.4640 C   0  0  0  0  0  2  0  0  0  0  0  0
  161.3740  203.4760  146.5150 C   0  0  0  0  0  2  0  0  0  0  0  0
  161.4490  205.5910  143.5250 N   0  0  0  0  0  2  0  0  0  0  0  0
  161.6890  203.9370  145.1770 N   0  0  0  0  0  2  0  0  0  0  0  0
  161.1570  205.1700  144.7090 C   0  0  0  0  0  3  0  0  0  0  0  0
  162.5440  211.1420  149.7470 C   0  0  0  0  0  2  0  0  0  0  0  0
  161.5110  211.7350  148.8030 C   0  0  2  0  0  3  0  0  0  0  0  0
  162.1870  212.4600  147.7080 C   0  0  2  0  0  3  0  0  0  0  0  0
  161.6180  213.1370  148.8020 O   0  0  0  0  0  0  0  0  0  0  0  0
  161.2920  212.5420  146.5650 N   0  0  0  0  0  2  0  0  0  0  0  0
  161.3720  212.3410  143.5140 N   0  0  0  0  0  0  0  0  0  0  0  0
  159.1450  214.3730  145.7340 C   0  0  0  0  0  1  0  0  0  0  0  0
  161.2420  211.8740  142.1460 C   0  0  0  0  0  1  0  0  0  0  0  0
  160.4260  214.1760  144.9410 C   0  0  1  0  0  3  0  0  0  0  0  0
  161.6000  213.7730  145.8430 C   0  0  2  0  0  3  0  0  0  0  0  0
  162.5850  213.1540  143.5690 C   0  0  0  0  0  2  0  0  0  0  0  0
  160.1980  213.1790  143.7880 C   0  0  0  0  0  2  0  0  0  0  0  0
  162.8780  213.5780  145.0140 C   0  0  0  0  0  2  0  0  0  0  0  0
  3  2  1  0  0  0  0
  3 13  1  1  0  0  0
  4  6  1  0  0  0  0
  5  2  1  0  0  0  0
  5  4  2  0  0  0  0
  7 11  1  0  0  0  0
  8  9  1  6  0  0  0
  8  7  1  0  0  0  0
  8 10  1  0  0  0  0
 10  1  1  6  0  0  0
 10  3  1  0  0  0  0
 11 27  1  6  0  0  0
 11  5  1  0  0  0  0
 13 12  2  0  0  0  0
 14 15  1  0  0  0  0
 14 13  1  0  0  0  0
 15 16  1  6  0  0  0
 17 15  1  0  0  0  0
 18 17  1  0  0  0  0
 20 19  2  0  0  0  0
 20 21  1  0  0  0  0
 21 18  1  0  0  0  0
 22 23  1  0  0  0  0
 22 20  1  0  0  0  0
 24 26  2  0  0  0  0
 25 23  1  0  0  0  0
 26 25  1  0  0  0  0
 28 27  1  1  0  0  0
 29 31  1  6  0  0  0
 29 30  1  0  0  0  0
 29 28  1  0  0  0  0
 30 28  1  0  0  0  0
 32 37  1  0  0  0  0
 32 38  1  0  0  0  0
 34 32  1  0  0  0  0
 35 33  1  1  0  0  0
 35 36  1  0  0  0  0
 36 31  1  6  0  0  0
 37 39  1  0  0  0  0
 38 35  1  0  0  0  0
 39 36  1  0  0  0  0
M  END
>  <MODEL>
3

>  <REMARK>
 VINA RESULT:      -6.0      2.596      8.379
  Name = 
  13 active torsions:
  status: ('A' for Active; 'I' for Inactive)
    1  A    between atoms: C_2  and  C_15
    2  A    between atoms: C_2  and  C_36
    3  A    between atoms: C_6  and  C_27
    4  A    between atoms: C_6  and  N_38
    5  A    between atoms: C_8  and  C_29
    6  A    between atoms: C_9  and  C_11
    7  A    between atoms: C_9  and  C_34
    8  A    between atoms: C_11  and  C_29
    9  A    between atoms: N_18  and  C_20
   10  A    between atoms: N_18  and  C_32
   11  A    between atoms: C_21  and  C_27
   12  A    between atoms: C_30  and  C_34
   13  A    between atoms: C_30  and  N_35
                            x       y       z     vdW  Elec       q    Type
                         _______ _______ _______ _____ _____    ______ ____

>  <TORSDO>
F 13

$$$$
=
 OpenBabel11072415003D

 39 41  0  0  1  0  0  0  0  0999 V2000
  160.7090  211.6080  151.5830 O   0  0  0  0  0  1  0  0  0  0  0  0
  160.7490  210.0030  154.8660 O   0  0  0  0  0  0  0  0  0  0  0  0
  160.1780  210.6450  153.7260 C   0  0  2  0  0  3  0  0  0  0  0  0
  161.5520  208.0830  155.9920 C   0  0  0  0  0  3  0  0  0  0  0  0
  161.0850  208.6450  154.8740 C   0  0  0  0  0  0  0  0  0  0  0  0
  161.7020  208.8500  157.2600 C   0  0  0  0  0  1  0  0  0  0  0  0
  161.9220  208.3660  152.6900 O   0  0  0  0  0  0  0  0  0  0  0  0
  161.2430  209.2810  151.8690 C   0  0  2  0  0  3  0  0  0  0  0  0
  161.9750  209.3570  150.5390 C   0  0  0  0  0  1  0  0  0  0  0  0
  161.1540  210.6750  152.5290 C   0  0  1  0  0  3  0  0  0  0  0  0
  160.9700  207.8720  153.5850 C   0  0  1  0  0  3  0  0  0  0  0  0
  160.1070  212.5790  155.1830 N   0  0  0  0  0  2  0  0  0  0  0  0
  159.6780  212.0030  154.1190 C   0  0  0  0  0  0  0  0  0  0  0  0
  158.6750  212.6820  153.2410 C   0  0  0  0  0  2  0  0  0  0  0  0
  157.2650  212.6120  153.8250 C   0  0  1  0  0  3  0  0  0  0  0  0
  157.3220  212.1390  155.1360 O   0  0  0  0  0  1  0  0  0  0  0  0
  156.5300  213.9580  153.7740 C   0  0  0  0  0  2  0  0  0  0  0  0
  155.6570  214.1270  152.5310 C   0  0  0  0  0  2  0  0  0  0  0  0
  154.6590  214.1290  149.8420 O   0  0  0  0  0  0  0  0  0  0  0  0
  155.9090  214.1820  150.0080 C   0  0  0  0  0  0  0  0  0  0  0  0
  156.4710  214.1800  151.3240 N   0  0  0  0  0  2  0  0  0  0  0  0
  156.8060  214.2670  148.8240 C   0  0  0  0  0  2  0  0  0  0  0  0
  156.9970  212.8900  148.2220 C   0  0  0  0  0  2  0  0  0  0  0  0
  159.3330  212.7690  145.4020 N   0  0  0  0  0  2  0  0  0  0  0  0
  158.2440  212.8550  147.4830 N   0  0  0  0  0  2  0  0  0  0  0  0
  158.2250  212.7830  146.0630 C   0  0  0  0  0  3  0  0  0  0  0  0
  161.0900  206.3520  153.7110 C   0  0  0  0  0  2  0  0  0  0  0  0
  161.8290  205.7660  152.5200 C   0  0  2  0  0  3  0  0  0  0  0  0
  160.8600  205.2710  151.5210 C   0  0  2  0  0  3  0  0  0  0  0  0
  161.5260  204.3970  152.3990 O   0  0  0  0  0  0  0  0  0  0  0  0
  161.4990  205.2300  150.2150 N   0  0  0  0  0  2  0  0  0  0  0  0
  162.4290  205.0470  147.3070 N   0  0  0  0  0  0  0  0  0  0  0  0
  160.6700  202.5180  149.4340 C   0  0  0  0  0  1  0  0  0  0  0  0
  163.2420  204.9360  146.1100 C   0  0  0  0  0  1  0  0  0  0  0  0
  160.6660  203.6980  148.4780 C   0  0  1  0  0  3  0  0  0  0  0  0
  160.4550  205.0280  149.2130 C   0  0  2  0  0  3  0  0  0  0  0  0
  161.3020  205.9150  146.9720 C   0  0  0  0  0  2  0  0  0  0  0  0
  161.9420  203.6960  147.6140 C   0  0  0  0  0  2  0  0  0  0  0  0
  160.4590  206.2020  148.2220 C   0  0  0  0  0  2  0  0  0  0  0  0
  2  5  1  0  0  0  0
  3 13  1  1  0  0  0
  3  2  1  0  0  0  0
  4  6  1  0  0  0  0
  5  4  2  0  0  0  0
  7 11  1  0  0  0  0
  8  9  1  6  0  0  0
  8 10  1  0  0  0  0
  8  7  1  0  0  0  0
 10  1  1  6  0  0  0
 10  3  1  0  0  0  0
 11 27  1  1  0  0  0
 11  5  1  0  0  0  0
 13 12  2  0  0  0  0
 14 15  1  0  0  0  0
 14 13  1  0  0  0  0
 15 16  1  1  0  0  0
 17 15  1  0  0  0  0
 18 17  1  0  0  0  0
 19 20  2  0  0  0  0
 20 21  1  0  0  0  0
 21 18  1  0  0  0  0
 22 20  1  0  0  0  0
 23 22  1  0  0  0  0
 24 26  2  0  0  0  0
 25 23  1  0  0  0  0
 26 25  1  0  0  0  0
 28 27  1  1  0  0  0
 29 31  1  6  0  0  0
 29 30  1  0  0  0  0
 29 28  1  0  0  0  0
 30 28  1  0  0  0  0
 32 38  1  0  0  0  0
 34 32  1  0  0  0  0
 35 36  1  0  0  0  0
 35 33  1  1  0  0  0
 36 31  1  1  0  0  0
 37 32  1  0  0  0  0
 37 39  1  0  0  0  0
 38 35  1  0  0  0  0
 39 36  1  0  0  0  0
M  END
>  <MODEL>
4

>  <REMARK>
 VINA RESULT:      -5.8      1.526      2.323
  Name = 
  13 active torsions:
  status: ('A' for Active; 'I' for Inactive)
    1  A    between atoms: C_2  and  C_15
    2  A    between atoms: C_2  and  C_36
    3  A    between atoms: C_6  and  C_27
    4  A    between atoms: C_6  and  N_38
    5  A    between atoms: C_8  and  C_29
    6  A    between atoms: C_9  and  C_11
    7  A    between atoms: C_9  and  C_34
    8  A    between atoms: C_11  and  C_29
    9  A    between atoms: N_18  and  C_20
   10  A    between atoms: N_18  and  C_32
   11  A    between atoms: C_21  and  C_27
   12  A    between atoms: C_30  and  C_34
   13  A    between atoms: C_30  and  N_35
                            x       y       z     vdW  Elec       q    Type
                         _______ _______ _______ _____ _____    ______ ____

>  <TORSDO>
F 13

$$$$
=
 OpenBabel11072415003D

 39 41  0  0  1  0  0  0  0  0999 V2000
  160.9620  204.4030  148.6030 O   0  0  0  0  0  1  0  0  0  0  0  0
  161.1590  205.6690  152.0260 O   0  0  0  0  0  0  0  0  0  0  0  0
  161.5630  204.9250  150.8760 C   0  0  2  0  0  3  0  0  0  0  0  0
  161.0540  207.6720  153.2800 C   0  0  0  0  0  3  0  0  0  0  0  0
  161.3930  207.0410  152.1530 C   0  0  0  0  0  0  0  0  0  0  0  0
  160.4570  206.9520  154.4400 C   0  0  0  0  0  1  0  0  0  0  0  0
  161.0120  207.7780  149.9480 O   0  0  0  0  0  0  0  0  0  0  0  0
  161.3670  206.7210  149.0940 C   0  0  2  0  0  3  0  0  0  0  0  0
  160.8350  207.0370  147.7050 C   0  0  0  0  0  1  0  0  0  0  0  0
  160.8120  205.3720  149.6030 C   0  0  1  0  0  3  0  0  0  0  0  0
  161.9640  207.7830  150.9710 C   0  0  1  0  0  3  0  0  0  0  0  0
  162.3330  202.8330  151.8250 N   0  0  0  0  0  2  0  0  0  0  0  0
  161.4300  203.4590  151.1610 C   0  0  0  0  0  0  0  0  0  0  0  0
  160.2150  202.7380  150.6680 C   0  0  0  0  0  2  0  0  0  0  0  0
  160.5570  201.3540  150.1160 C   0  0  1  0  0  3  0  0  0  0  0  0
  159.3830  200.6790  149.7830 O   0  0  0  0  0  1  0  0  0  0  0  0
  161.5020  201.4100  148.9090 C   0  0  0  0  0  2  0  0  0  0  0  0
  160.8850  200.8500  147.6280 C   0  0  0  0  0  2  0  0  0  0  0  0
  160.1670  200.5380  144.8680 O   0  0  0  0  0  0  0  0  0  0  0  0
  160.1330  201.7000  145.3600 C   0  0  0  0  0  0  0  0  0  0  0  0
  160.4840  201.9240  146.7290 N   0  0  0  0  0  2  0  0  0  0  0  0
  159.7060  202.8450  144.5110 C   0  0  0  0  0  2  0  0  0  0  0  0
  160.2980  204.1330  145.0470 C   0  0  0  0  0  2  0  0  0  0  0  0
  163.8600  204.5420  145.7960 N   0  0  0  0  0  2  0  0  0  0  0  0
  161.7380  204.1060  144.8860 N   0  0  0  0  0  2  0  0  0  0  0  0
  162.5780  204.5810  145.9300 C   0  0  0  0  0  3  0  0  0  0  0  0
  162.4440  209.2080  151.2510 C   0  0  0  0  0  2  0  0  0  0  0  0
  161.5720  210.2250  150.5340 C   0  0  2  0  0  3  0  0  0  0  0  0
  162.3590  210.9170  149.4930 C   0  0  2  0  0  3  0  0  0  0  0  0
  162.0870  211.5180  150.7350 O   0  0  0  0  0  0  0  0  0  0  0  0
  161.4560  211.4490  148.4850 N   0  0  0  0  0  2  0  0  0  0  0  0
  160.5780  212.6540  145.8140 N   0  0  0  0  0  0  0  0  0  0  0  0
  159.6470  213.6170  149.3110 C   0  0  0  0  0  1  0  0  0  0  0  0
  159.9440  212.8740  144.5280 C   0  0  0  0  0  1  0  0  0  0  0  0
  160.5520  213.7040  148.0940 C   0  0  1  0  0  3  0  0  0  0  0  0
  161.8140  212.8460  148.2570 C   0  0  2  0  0  3  0  0  0  0  0  0
  161.9080  213.2580  145.7380 C   0  0  0  0  0  2  0  0  0  0  0  0
  159.7680  213.3640  146.8120 C   0  0  0  0  0  2  0  0  0  0  0  0
  162.7060  212.9530  147.0110 C   0  0  0  0  0  2  0  0  0  0  0  0
  2  5  1  0  0  0  0
  3 13  1  1  0  0  0
  3  2  1  0  0  0  0
  4  6  1  0  0  0  0
  5  4  2  0  0  0  0
  7 11  1  0  0  0  0
  8  9  1  6  0  0  0
  8 10  1  0  0  0  0
  8  7  1  0  0  0  0
 10  1  1  6  0  0  0
 10  3  1  0  0  0  0
 11 27  1  1  0  0  0
 11  5  1  0  0  0  0
 13 12  2  0  0  0  0
 14 13  1  0  0  0  0
 15 16  1  6  0  0  0
 15 14  1  0  0  0  0
 17 15  1  0  0  0  0
 18 17  1  0  0  0  0
 19 20  2  0  0  0  0
 20 21  1  0  0  0  0
 21 18  1  0  0  0  0
 22 23  1  0  0  0  0
 22 20  1  0  0  0  0
 24 26  2  0  0  0  0
 25 23  1  0  0  0  0
 25 26  1  0  0  0  0
 28 30  1  0  0  0  0
 28 27  1  1  0  0  0
 29 31  1  6  0  0  0
 29 28  1  0  0  0  0
 29 30  1  0  0  0  0
 32 38  1  0  0  0  0
 34 32  1  0  0  0  0
 35 36  1  0  0  0  0
 35 33  1  1  0  0  0
 36 31  1  6  0  0  0
 37 32  1  0  0  0  0
 37 39  1  0  0  0  0
 38 35  1  0  0  0  0
 39 36  1  0  0  0  0
M  END
>  <MODEL>
5

>  <REMARK>
 VINA RESULT:      -5.1      2.487      8.580
  Name = 
  13 active torsions:
  status: ('A' for Active; 'I' for Inactive)
    1  A    between atoms: C_2  and  C_15
    2  A    between atoms: C_2  and  C_36
    3  A    between atoms: C_6  and  C_27
    4  A    between atoms: C_6  and  N_38
    5  A    between atoms: C_8  and  C_29
    6  A    between atoms: C_9  and  C_11
    7  A    between atoms: C_9  and  C_34
    8  A    between atoms: C_11  and  C_29
    9  A    between atoms: N_18  and  C_20
   10  A    between atoms: N_18  and  C_32
   11  A    between atoms: C_21  and  C_27
   12  A    between atoms: C_30  and  C_34
   13  A    between atoms: C_30  and  N_35
                            x       y       z     vdW  Elec       q    Type
                         _______ _______ _______ _____ _____    ______ ____

>  <TORSDO>
F 13

$$$$
=
 OpenBabel11072415003D

 39 41  0  0  1  0  0  0  0  0999 V2000
  161.4240  208.9160  150.8580 O   0  0  0  0  0  1  0  0  0  0  0  0
  160.9520  207.5340  154.2080 O   0  0  0  0  0  0  0  0  0  0  0  0
  161.6570  207.8600  153.0100 C   0  0  2  0  0  3  0  0  0  0  0  0
  160.1200  208.0890  156.3530 C   0  0  0  0  0  3  0  0  0  0  0  0
  160.7250  208.4680  155.2240 C   0  0  0  0  0  0  0  0  0  0  0  0
  159.7000  206.6800  156.5900 C   0  0  0  0  0  1  0  0  0  0  0  0
  160.2940  210.4150  153.9700 O   0  0  0  0  0  0  0  0  0  0  0  0
  161.0310  210.3080  152.7790 C   0  0  2  0  0  3  0  0  0  0  0  0
  160.5310  211.3740  151.8170 C   0  0  0  0  0  1  0  0  0  0  0  0
  160.8990  208.9000  152.1570 C   0  0  1  0  0  3  0  0  0  0  0  0
  161.1170  209.9030  154.9770 C   0  0  1  0  0  3  0  0  0  0  0  0
  163.1950  206.2390  152.0730 N   0  0  0  0  0  2  0  0  0  0  0  0
  161.9770  206.5990  152.2640 C   0  0  0  0  0  0  0  0  0  0  0  0
  160.8500  205.7560  151.7570 C   0  0  0  0  0  2  0  0  0  0  0  0
  161.0100  205.4220  150.2740 C   0  0  1  0  0  3  0  0  0  0  0  0
  160.7160  204.0750  150.0630 O   0  0  0  0  0  1  0  0  0  0  0  0
  160.1460  206.3060  149.3660 C   0  0  0  0  0  2  0  0  0  0  0  0
  160.8710  206.7720  148.1040 C   0  0  0  0  0  2  0  0  0  0  0  0
  162.7020  205.1480  146.6090 O   0  0  0  0  0  0  0  0  0  0  0  0
  161.4890  205.1420  146.2630 C   0  0  0  0  0  0  0  0  0  0  0  0
  160.5260  205.9340  146.9640 N   0  0  0  0  0  2  0  0  0  0  0  0
  161.0530  204.2870  145.1250 C   0  0  0  0  0  2  0  0  0  0  0  0
  161.4140  202.8410  145.3970 C   0  0  0  0  0  2  0  0  0  0  0  0
  160.7410  200.8270  148.3820 N   0  0  0  0  0  2  0  0  0  0  0  0
  160.8680  202.4410  146.6800 N   0  0  0  0  0  2  0  0  0  0  0  0
  161.2120  201.1780  147.2340 C   0  0  0  0  0  3  0  0  0  0  0  0
  161.0940  210.8160  156.2040 C   0  0  0  0  0  2  0  0  0  0  0  0
  159.8020  211.6140  156.2630 C   0  0  2  0  0  3  0  0  0  0  0  0
  160.0420  212.9950  155.7970 C   0  0  2  0  0  3  0  0  0  0  0  0
  159.9450  212.6840  157.1650 O   0  0  0  0  0  0  0  0  0  0  0  0
  158.7880  213.5700  155.3370 N   0  0  0  0  0  2  0  0  0  0  0  0
  155.8380  213.9410  154.6190 N   0  0  0  0  0  0  0  0  0  0  0  0
  158.9050  214.4370  152.5290 C   0  0  0  0  0  1  0  0  0  0  0  0
  154.4830  214.4510  154.5190 C   0  0  0  0  0  1  0  0  0  0  0  0
  157.7910  213.5680  153.0870 C   0  0  1  0  0  3  0  0  0  0  0  0
  158.2690  212.7170  154.2710 C   0  0  2  0  0  3  0  0  0  0  0  0
  155.7440  212.4830  154.5770 C   0  0  0  0  0  2  0  0  0  0  0  0
  156.5600  214.4260  153.4350 C   0  0  0  0  0  2  0  0  0  0  0  0
  157.1220  211.8520  154.8150 C   0  0  0  0  0  2  0  0  0  0  0  0
  2  5  1  0  0  0  0
  3 13  1  6  0  0  0
  3  2  1  0  0  0  0
  4  6  1  0  0  0  0
  5  4  2  0  0  0  0
  7 11  1  0  0  0  0
  8  9  1  6  0  0  0
  8  7  1  0  0  0  0
 10  1  1  6  0  0  0
 10  8  1  0  0  0  0
 10  3  1  0  0  0  0
 11  5  1  0  0  0  0
 11 27  1  1  0  0  0
 12 13  2  0  0  0  0
 14 13  1  0  0  0  0
 15 16  1  1  0  0  0
 15 14  1  0  0  0  0
 17 15  1  0  0  0  0
 18 17  1  0  0  0  0
 20 19  2  0  0  0  0
 20 21  1  0  0  0  0
 21 18  1  0  0  0  0
 22 23  1  0  0  0  0
 22 20  1  0  0  0  0
 23 25  1  0  0  0  0
 25 26  1  0  0  0  0
 26 24  2  0  0  0  0
 28 27  1  1  0  0  0
 28 30  1  0  0  0  0
 29 31  1  6  0  0  0
 29 28  1  0  0  0  0
 29 30  1  0  0  0  0
 34 32  1  0  0  0  0
 35 33  1  1  0  0  0
 35 38  1  0  0  0  0
 35 36  1  0  0  0  0
 36 39  1  0  0  0  0
 36 31  1  1  0  0  0
 37 32  1  0  0  0  0
 37 39  1  0  0  0  0
 38 32  1  0  0  0  0
M  END
>  <MODEL>
6

>  <REMARK>
 VINA RESULT:      -4.7      3.278      8.575
  Name = 
  13 active torsions:
  status: ('A' for Active; 'I' for Inactive)
    1  A    between atoms: C_2  and  C_15
    2  A    between atoms: C_2  and  C_36
    3  A    between atoms: C_6  and  C_27
    4  A    between atoms: C_6  and  N_38
    5  A    between atoms: C_8  and  C_29
    6  A    between atoms: C_9  and  C_11
    7  A    between atoms: C_9  and  C_34
    8  A    between atoms: C_11  and  C_29
    9  A    between atoms: N_18  and  C_20
   10  A    between atoms: N_18  and  C_32
   11  A    between atoms: C_21  and  C_27
   12  A    between atoms: C_30  and  C_34
   13  A    between atoms: C_30  and  N_35
                            x       y       z     vdW  Elec       q    Type
                         _______ _______ _______ _____ _____    ______ ____

>  <TORSDO>
F 13

$$$$
=
 OpenBabel11072415003D

 39 41  0  0  1  0  0  0  0  0999 V2000
  161.5880  210.2900  149.5840 O   0  0  0  0  0  1  0  0  0  0  0  0
  161.5140  206.9870  151.1470 O   0  0  0  0  0  0  0  0  0  0  0  0
  162.0870  208.1080  150.4720 C   0  0  2  0  0  3  0  0  0  0  0  0
  160.8190  205.8730  153.1150 C   0  0  0  0  0  3  0  0  0  0  0  0
  161.2940  206.9740  152.5280 C   0  0  0  0  0  0  0  0  0  0  0  0
  160.5400  204.6260  152.3490 C   0  0  0  0  0  1  0  0  0  0  0  0
  160.5980  209.1930  152.9040 O   0  0  0  0  0  0  0  0  0  0  0  0
  161.2390  209.9930  151.9440 C   0  0  2  0  0  3  0  0  0  0  0  0
  160.5730  211.3600  151.9470 C   0  0  0  0  0  1  0  0  0  0  0  0
  161.1760  209.3530  150.5400 C   0  0  1  0  0  3  0  0  0  0  0  0
  161.5410  208.2430  153.3040 C   0  0  1  0  0  3  0  0  0  0  0  0
  163.6550  207.3860  148.7720 N   0  0  0  0  0  2  0  0  0  0  0  0
  162.4500  207.7110  149.0720 C   0  0  0  0  0  0  0  0  0  0  0  0
  161.3760  207.6880  148.0300 C   0  0  0  0  0  2  0  0  0  0  0  0
  161.3140  206.3440  147.3050 C   0  0  1  0  0  3  0  0  0  0  0  0
  160.7950  205.3720  148.1620 O   0  0  0  0  0  1  0  0  0  0  0  0
  160.4990  206.4030  146.0070 C   0  0  0  0  0  2  0  0  0  0  0  0
  161.1160  205.5960  144.8650 C   0  0  0  0  0  2  0  0  0  0  0  0
  162.1960  203.2400  146.0940 O   0  0  0  0  0  0  0  0  0  0  0  0
  161.1240  203.1260  145.4370 C   0  0  0  0  0  0  0  0  0  0  0  0
  160.5360  204.2620  144.7950 N   0  0  0  0  0  2  0  0  0  0  0  0
  160.4560  201.7990  145.3440 C   0  0  0  0  0  2  0  0  0  0  0  0
  160.9460  200.8960  146.4580 C   0  0  0  0  0  2  0  0  0  0  0  0
  160.6830  201.7650  150.0070 N   0  0  0  0  0  2  0  0  0  0  0  0
  160.3760  201.3330  147.7180 N   0  0  0  0  0  2  0  0  0  0  0  0
  161.1820  201.3610  148.8890 C   0  0  0  0  0  3  0  0  0  0  0  0
  161.5440  208.0980  154.8270 C   0  0  0  0  0  2  0  0  0  0  0  0
  160.1720  208.4080  155.4040 C   0  0  2  0  0  3  0  0  0  0  0  0
  160.1720  209.7610  155.9990 C   0  0  2  0  0  3  0  0  0  0  0  0
  160.2740  208.6040  156.7930 O   0  0  0  0  0  0  0  0  0  0  0  0
  158.8070  210.2630  156.0430 N   0  0  0  0  0  2  0  0  0  0  0  0
  158.7640  212.9980  154.6740 N   0  0  0  0  0  0  0  0  0  0  0  0
  156.2590  211.4110  156.9600 C   0  0  0  0  0  1  0  0  0  0  0  0
  158.6680  214.0610  153.6910 C   0  0  0  0  0  1  0  0  0  0  0  0
  157.5060  212.2420  156.7100 C   0  0  1  0  0  3  0  0  0  0  0  0
  158.7880  211.4270  156.9240 C   0  0  2  0  0  3  0  0  0  0  0  0
  159.7620  213.4190  155.6560 C   0  0  0  0  0  2  0  0  0  0  0  0
  157.4470  212.8970  155.3170 C   0  0  0  0  0  2  0  0  0  0  0  0
  160.0300  212.2920  156.6620 C   0  0  0  0  0  2  0  0  0  0  0  0
  2  5  1  0  0  0  0
  3 13  1  6  0  0  0
  3 10  1  0  0  0  0
  3  2  1  0  0  0  0
  5  4  2  0  0  0  0
  5 11  1  0  0  0  0
  6  4  1  0  0  0  0
  7 11  1  0  0  0  0
  8  9  1  6  0  0  0
  8  7  1  0  0  0  0
 10  1  1  6  0  0  0
 10  8  1  0  0  0  0
 11 27  1  1  0  0  0
 12 13  2  0  0  0  0
 14 13  1  0  0  0  0
 15 14  1  0  0  0  0
 15 16  1  1  0  0  0
 17 15  1  0  0  0  0
 18 17  1  0  0  0  0
 20 19  2  0  0  0  0
 21 18  1  0  0  0  0
 21 20  1  0  0  0  0
 22 20  1  0  0  0  0
 22 23  1  0  0  0  0
 23 25  1  0  0  0  0
 25 26  1  0  0  0  0
 26 24  2  0  0  0  0
 28 27  1  6  0  0  0
 28 29  1  0  0  0  0
 28 30  1  0  0  0  0
 29 31  1  1  0  0  0
 29 30  1  0  0  0  0
 32 38  1  0  0  0  0
 32 37  1  0  0  0  0
 34 32  1  0  0  0  0
 35 36  1  0  0  0  0
 35 33  1  6  0  0  0
 36 31  1  6  0  0  0
 37 39  1  0  0  0  0
 38 35  1  0  0  0  0
 39 36  1  0  0  0  0
M  END
>  <MODEL>
7

>  <REMARK>
 VINA RESULT:      -4.7      3.310      8.740
  Name = 
  13 active torsions:
  status: ('A' for Active; 'I' for Inactive)
    1  A    between atoms: C_2  and  C_15
    2  A    between atoms: C_2  and  C_36
    3  A    between atoms: C_6  and  C_27
    4  A    between atoms: C_6  and  N_38
    5  A    between atoms: C_8  and  C_29
    6  A    between atoms: C_9  and  C_11
    7  A    between atoms: C_9  and  C_34
    8  A    between atoms: C_11  and  C_29
    9  A    between atoms: N_18  and  C_20
   10  A    between atoms: N_18  and  C_32
   11  A    between atoms: C_21  and  C_27
   12  A    between atoms: C_30  and  C_34
   13  A    between atoms: C_30  and  N_35
                            x       y       z     vdW  Elec       q    Type
                         _______ _______ _______ _____ _____    ______ ____

>  <TORSDO>
F 13

$$$$
=
 OpenBabel11072415003D

 39 41  0  0  1  0  0  0  0  0999 V2000
  161.1750  204.7050  154.0320 O   0  0  0  0  0  1  0  0  0  0  0  0
  161.4650  206.7590  151.0230 O   0  0  0  0  0  0  0  0  0  0  0  0
  160.9030  205.7750  151.8920 C   0  0  2  0  0  3  0  0  0  0  0  0
  161.7440  208.9990  150.3170 C   0  0  0  0  0  3  0  0  0  0  0  0
  161.2490  208.1290  151.2000 C   0  0  0  0  0  0  0  0  0  0  0  0
  162.5020  208.5590  149.1120 C   0  0  0  0  0  1  0  0  0  0  0  0
  161.3100  208.3040  153.5480 O   0  0  0  0  0  0  0  0  0  0  0  0
  160.8390  207.0850  154.0640 C   0  0  2  0  0  3  0  0  0  0  0  0
  161.1660  207.0420  155.5480 C   0  0  0  0  0  1  0  0  0  0  0  0
  161.4630  205.8800  153.3270 C   0  0  1  0  0  3  0  0  0  0  0  0
  160.5130  208.5840  152.4350 C   0  0  1  0  0  3  0  0  0  0  0  0
  162.0490  203.6550  151.6410 N   0  0  0  0  0  2  0  0  0  0  0  0
  161.0780  204.4160  151.2830 C   0  0  0  0  0  0  0  0  0  0  0  0
  160.0930  203.9550  150.2570 C   0  0  0  0  0  2  0  0  0  0  0  0
  160.7770  203.5320  148.9570 C   0  0  1  0  0  3  0  0  0  0  0  0
  161.9570  204.2570  148.7910 O   0  0  0  0  0  1  0  0  0  0  0  0
  161.0620  202.0250  148.8960 C   0  0  0  0  0  2  0  0  0  0  0  0
  161.1660  201.4840  147.4700 C   0  0  0  0  0  2  0  0  0  0  0  0
  160.0780  200.8940  144.8820 O   0  0  0  0  0  0  0  0  0  0  0  0
  160.1570  202.1050  145.2270 C   0  0  0  0  0  0  0  0  0  0  0  0
  160.6950  202.4670  146.5030 N   0  0  0  0  0  2  0  0  0  0  0  0
  159.6690  203.1670  144.3050 C   0  0  0  0  0  2  0  0  0  0  0  0
  160.6430  204.3280  144.2950 C   0  0  0  0  0  2  0  0  0  0  0  0
  160.8270  206.8910  146.9060 N   0  0  0  0  0  2  0  0  0  0  0  0
  160.2230  205.3170  145.2690 N   0  0  0  0  0  2  0  0  0  0  0  0
  161.1960  205.9990  146.0510 C   0  0  0  0  0  3  0  0  0  0  0  0
  160.0760  210.0490  152.4430 C   0  0  0  0  0  2  0  0  0  0  0  0
  160.1030  210.6160  153.8530 C   0  0  2  0  0  3  0  0  0  0  0  0
  159.9420  212.0840  153.8090 C   0  0  2  0  0  3  0  0  0  0  0  0
  161.2010  211.4840  153.9950 O   0  0  0  0  0  0  0  0  0  0  0  0
  159.4290  212.5480  155.0880 N   0  0  0  0  0  2  0  0  0  0  0  0
  156.5810  211.5110  155.5030 N   0  0  0  0  0  0  0  0  0  0  0  0
  158.4020  214.2970  157.2180 C   0  0  0  0  0  1  0  0  0  0  0  0
  155.4340  210.7040  155.8760 C   0  0  0  0  0  1  0  0  0  0  0  0
  157.5360  213.7560  156.0940 C   0  0  1  0  0  3  0  0  0  0  0  0
  158.3500  213.4950  154.8200 C   0  0  2  0  0  3  0  0  0  0  0  0
  156.2390  212.1760  154.2470 C   0  0  0  0  0  2  0  0  0  0  0  0
  156.7570  212.5110  156.5630 C   0  0  0  0  0  2  0  0  0  0  0  0
  157.4490  212.9460  153.7030 C   0  0  0  0  0  2  0  0  0  0  0  0
  2  5  1  0  0  0  0
  2  3  1  0  0  0  0
  3 13  1  6  0  0  0
  3 10  1  0  0  0  0
  4  5  2  0  0  0  0
  5 11  1  0  0  0  0
  6  4  1  0  0  0  0
  7  8  1  0  0  0  0
  8  9  1  1  0  0  0
 10  1  1  1  0  0  0
 10  8  1  0  0  0  0
 11 27  1  6  0  0  0
 11  7  1  0  0  0  0
 13 12  2  0  0  0  0
 14 13  1  0  0  0  0
 15 16  1  1  0  0  0
 15 14  1  0  0  0  0
 17 15  1  0  0  0  0
 18 17  1  0  0  0  0
 19 20  2  0  0  0  0
 20 21  1  0  0  0  0
 21 18  1  0  0  0  0
 22 20  1  0  0  0  0
 23 22  1  0  0  0  0
 23 25  1  0  0  0  0
 25 26  1  0  0  0  0
 26 24  2  0  0  0  0
 28 27  1  6  0  0  0
 28 30  1  0  0  0  0
 29 28  1  0  0  0  0
 29 30  1  0  0  0  0
 29 31  1  1  0  0  0
 32 34  1  0  0  0  0
 32 38  1  0  0  0  0
 35 38  1  0  0  0  0
 35 33  1  1  0  0  0
 36 31  1  1  0  0  0
 36 35  1  0  0  0  0
 37 32  1  0  0  0  0
 39 37  1  0  0  0  0
 39 36  1  0  0  0  0
M  END
>  <MODEL>
8

>  <REMARK>
 VINA RESULT:      -4.7      3.198      9.167
  Name = 
  13 active torsions:
  status: ('A' for Active; 'I' for Inactive)
    1  A    between atoms: C_2  and  C_15
    2  A    between atoms: C_2  and  C_36
    3  A    between atoms: C_6  and  C_27
    4  A    between atoms: C_6  and  N_38
    5  A    between atoms: C_8  and  C_29
    6  A    between atoms: C_9  and  C_11
    7  A    between atoms: C_9  and  C_34
    8  A    between atoms: C_11  and  C_29
    9  A    between atoms: N_18  and  C_20
   10  A    between atoms: N_18  and  C_32
   11  A    between atoms: C_21  and  C_27
   12  A    between atoms: C_30  and  C_34
   13  A    between atoms: C_30  and  N_35
                            x       y       z     vdW  Elec       q    Type
                         _______ _______ _______ _____ _____    ______ ____

>  <TORSDO>
F 13

$$$$
=
 OpenBabel11072415003D

 39 41  0  0  1  0  0  0  0  0999 V2000
  161.1610  204.5860  148.9510 O   0  0  0  0  0  1  0  0  0  0  0  0
  161.1030  205.5870  152.4650 O   0  0  0  0  0  0  0  0  0  0  0  0
  161.6190  204.9750  151.2830 C   0  0  2  0  0  3  0  0  0  0  0  0
  160.7660  207.4660  153.8620 C   0  0  0  0  0  3  0  0  0  0  0  0
  161.2060  206.9600  152.7070 C   0  0  0  0  0  0  0  0  0  0  0  0
  160.1890  206.6070  154.9340 C   0  0  0  0  0  1  0  0  0  0  0  0
  160.8510  207.8350  150.5500 O   0  0  0  0  0  0  0  0  0  0  0  0
  161.3340  206.8840  149.6360 C   0  0  2  0  0  3  0  0  0  0  0  0
  160.8330  207.2630  148.2500 C   0  0  0  0  0  1  0  0  0  0  0  0
  160.8840  205.4560  150.0130 C   0  0  1  0  0  3  0  0  0  0  0  0
  161.7560  207.8400  151.6140 C   0  0  1  0  0  3  0  0  0  0  0  0
  162.6630  202.8570  151.8220 N   0  0  0  0  0  2  0  0  0  0  0  0
  161.6080  203.4850  151.4490 C   0  0  0  0  0  0  0  0  0  0  0  0
  160.3370  202.7410  151.1840 C   0  0  0  0  0  2  0  0  0  0  0  0
  160.5830  201.4510  150.4030 C   0  0  1  0  0  3  0  0  0  0  0  0
  159.3700  200.9540  149.9250 O   0  0  0  0  0  1  0  0  0  0  0  0
  161.5790  201.6310  149.2500 C   0  0  0  0  0  2  0  0  0  0  0  0
  161.2050  200.8420  147.9960 C   0  0  0  0  0  2  0  0  0  0  0  0
  160.8280  200.2140  145.2230 O   0  0  0  0  0  0  0  0  0  0  0  0
  160.4020  201.3260  145.6390 C   0  0  0  0  0  0  0  0  0  0  0  0
  160.5630  201.7020  147.0100 N   0  0  0  0  0  2  0  0  0  0  0  0
  159.7090  202.2480  144.6990 C   0  0  0  0  0  2  0  0  0  0  0  0
  160.2800  203.6450  144.8320 C   0  0  0  0  0  2  0  0  0  0  0  0
  163.4940  204.7030  146.2360 N   0  0  0  0  0  2  0  0  0  0  0  0
  161.5680  203.5790  145.4940 N   0  0  0  0  0  2  0  0  0  0  0  0
  162.3550  204.7560  145.6320 C   0  0  0  0  0  3  0  0  0  0  0  0
  162.0930  209.2750  152.0240 C   0  0  0  0  0  2  0  0  0  0  0  0
  160.8420  210.0250  152.4520 C   0  0  2  0  0  3  0  0  0  0  0  0
  160.9390  211.4400  152.0400 C   0  0  2  0  0  3  0  0  0  0  0  0
  161.1840  211.0380  153.3650 O   0  0  0  0  0  0  0  0  0  0  0  0
  159.6010  212.0020  151.9410 N   0  0  0  0  0  2  0  0  0  0  0  0
  157.5680  213.3520  150.0980 N   0  0  0  0  0  0  0  0  0  0  0  0
  158.2050  213.8510  153.7530 C   0  0  0  0  0  1  0  0  0  0  0  0
  156.4210  213.6210  149.2500 C   0  0  0  0  0  1  0  0  0  0  0  0
  158.4770  214.1630  152.2920 C   0  0  1  0  0  3  0  0  0  0  0  0
  159.7340  213.4470  151.7790 C   0  0  2  0  0  3  0  0  0  0  0  0
  158.6880  214.1120  149.5460 C   0  0  0  0  0  2  0  0  0  0  0  0
  157.2330  213.8600  151.4340 C   0  0  0  0  0  2  0  0  0  0  0  0
  159.9810  213.7790  150.3000 C   0  0  0  0  0  2  0  0  0  0  0  0
  2  5  1  0  0  0  0
  3 13  1  1  0  0  0
  3  2  1  0  0  0  0
  4  6  1  0  0  0  0
  5  4  2  0  0  0  0
  7 11  1  0  0  0  0
  8  9  1  6  0  0  0
  8 10  1  0  0  0  0
  8  7  1  0  0  0  0
 10  1  1  6  0  0  0
 10  3  1  0  0  0  0
 11 27  1  1  0  0  0
 11  5  1  0  0  0  0
 13 12  2  0  0  0  0
 14 13  1  0  0  0  0
 15 16  1  6  0  0  0
 15 14  1  0  0  0  0
 17 15  1  0  0  0  0
 18 17  1  0  0  0  0
 19 20  2  0  0  0  0
 20 21  1  0  0  0  0
 21 18  1  0  0  0  0
 22 23  1  0  0  0  0
 22 20  1  0  0  0  0
 23 25  1  0  0  0  0
 25 26  1  0  0  0  0
 26 24  2  0  0  0  0
 28 27  1  6  0  0  0
 28 30  1  0  0  0  0
 29 31  1  1  0  0  0
 29 28  1  0  0  0  0
 29 30  1  0  0  0  0
 32 38  1  0  0  0  0
 34 32  1  0  0  0  0
 35 33  1  1  0  0  0
 36 31  1  6  0  0  0
 36 35  1  0  0  0  0
 37 32  1  0  0  0  0
 37 39  1  0  0  0  0
 38 35  1  0  0  0  0
 39 36  1  0  0  0  0
M  END
>  <MODEL>
9

>  <REMARK>
 VINA RESULT:      -4.6      2.888      8.925
  Name = 
  13 active torsions:
  status: ('A' for Active; 'I' for Inactive)
    1  A    between atoms: C_2  and  C_15
    2  A    between atoms: C_2  and  C_36
    3  A    between atoms: C_6  and  C_27
    4  A    between atoms: C_6  and  N_38
    5  A    between atoms: C_8  and  C_29
    6  A    between atoms: C_9  and  C_11
    7  A    between atoms: C_9  and  C_34
    8  A    between atoms: C_11  and  C_29
    9  A    between atoms: N_18  and  C_20
   10  A    between atoms: N_18  and  C_32
   11  A    between atoms: C_21  and  C_27
   12  A    between atoms: C_30  and  C_34
   13  A    between atoms: C_30  and  N_35
                            x       y       z     vdW  Elec       q    Type
                         _______ _______ _______ _____ _____    ______ ____

>  <TORSDO>
F 13

$$$$
