=
 OpenBabel11072412023D

 45 47  0  0  1  0  0  0  0  0999 V2000
  161.3780  205.6590  149.4240 C   0  0  2  0  0  3  0  0  0  0  0  0
  161.8050  206.0340  150.6170 C   0  0  0  0  0  2  0  0  0  0  0  0
  163.5130  207.7400  150.5660 C   0  0  0  0  0  1  0  0  0  0  0  0
  162.0130  207.5020  150.7660 C   0  0  1  0  0  0  0  0  0  0  0  0
  161.1670  208.1360  149.6390 C   0  0  2  0  0  3  0  0  0  0  0  0
  161.1050  206.9670  148.2460 S   0  0  0  0  0  0  0  0  0  0  0  0
  161.0500  204.2920  149.1350 C   0  0  0  0  0  0  0  0  0  0  0  0
  160.7740  203.1450  148.8890 C   0  0  0  0  0  0  0  0  0  0  0  0
  160.4430  201.7490  148.5890 C   0  0  0  0  0  2  0  0  0  0  0  0
  161.3090  199.7840  147.4300 N   0  0  0  0  0  1  0  0  0  0  0  0
  161.2930  201.2390  147.4360 C   0  0  1  0  0  3  0  0  0  0  0  0
  159.8590  201.1190  145.5220 O   0  0  0  0  0  0  0  0  0  0  0  0
  160.7590  201.7490  146.1390 C   0  0  0  0  0  0  0  0  0  0  0  0
  161.2470  202.9390  145.6170 O   0  0  0  0  0  1  0  0  0  0  0  0
  161.6310  209.4630  149.2040 C   0  0  0  0  0  0  0  0  0  0  0  0
  161.9840  210.5590  148.8530 C   0  0  0  0  0  0  0  0  0  0  0  0
  162.3860  211.8760  148.4340 C   0  0  0  0  0  0  0  0  0  0  0  0
  163.5870  212.0850  148.1240 O   0  0  0  0  0  0  0  0  0  0  0  0
  161.4030  213.0040  148.3640 C   0  0  2  0  0  3  0  0  0  0  0  0
  160.5560  213.0840  149.6250 C   0  0  0  0  0  1  0  0  0  0  0  0
  159.1370  212.8340  147.2710 N   0  0  0  0  0  1  0  0  0  0  0  0
  161.0680  212.9520  145.9910 O   0  0  0  0  0  0  0  0  0  0  0  0
  160.5500  212.9210  147.1380 C   0  0  0  0  0  0  0  0  0  0  0  0
  161.5730  207.9980  152.1720 C   0  0  2  0  0  3  0  0  0  0  0  0
  161.0410  206.8840  153.1050 C   0  0  1  0  0  3  0  0  0  0  0  0
  162.0240  205.9250  153.3670 O   0  0  0  0  0  1  0  0  0  0  0  0
  160.4830  207.4340  154.4250 C   0  0  1  0  0  3  0  0  0  0  0  0
  159.6990  206.4720  155.0640 O   0  0  0  0  0  1  0  0  0  0  0  0
  160.9890  208.5510  156.5010 O   0  0  0  0  0  1  0  0  0  0  0  0
  161.5600  207.9650  155.3690 C   0  0  0  0  0  2  0  0  0  0  0  0
  160.5270  209.1080  152.0450 C   0  0  0  0  0  2  0  0  0  0  0  0
  161.1620  210.4620  152.2890 C   0  0  0  0  0  2  0  0  0  0  0  0
  160.6520  211.0160  153.5700 C   0  0  0  0  0  0  0  0  0  0  0  0
  159.2730  211.3900  153.6740 N   0  0  0  0  0  2  0  0  0  0  0  0
  161.4490  211.1910  154.5270 O   0  0  0  0  0  0  0  0  0  0  0  0
  157.6950  211.0970  155.5940 C   0  0  0  0  0  2  0  0  0  0  0  0
  156.2390  211.1260  155.1320 C   0  0  0  0  0  2  0  0  0  0  0  0
  157.9840  214.3090  155.7670 C   0  0  0  0  0  3  0  0  0  0  0  0
  156.9710  213.5610  153.5540 C   0  0  0  0  0  2  0  0  0  0  0  0
  158.1480  213.4630  154.5310 C   0  0  2  0  0  3  0  0  0  0  0  0
  155.5490  212.4690  155.3930 C   0  0  1  0  0  3  0  0  0  0  0  0
  155.9350  213.1150  156.7340 C   0  0  0  0  0  2  0  0  0  0  0  0
  157.0230  214.1660  156.6960 C   0  0  0  0  0  3  0  0  0  0  0  0
  155.5890  213.4270  154.2010 C   0  0  0  0  0  2  0  0  0  0  0  0
  158.6310  212.0320  154.8210 C   0  0  2  0  0  3  0  0  0  0  0  0
  1  7  1  1  0  0  0
  1  2  1  0  0  0  0
  2  4  1  0  0  0  0
  4  3  1  6  0  0  0
  4 24  1  0  0  0  0
  5 15  1  6  0  0  0
  5  4  1  0  0  0  0
  6  1  1  0  0  0  0
  6  5  1  0  0  0  0
  8  7  3  0  0  0  0
  9  8  1  0  0  0  0
 11 10  1  6  0  0  0
 11  9  1  0  0  0  0
 12 13  2  0  0  0  0
 13 11  1  0  0  0  0
 14 13  1  0  0  0  0
 16 15  3  0  0  0  0
 17 16  1  0  0  0  0
 18 17  2  0  0  0  0
 19 17  1  0  0  0  0
 19 20  1  1  0  0  0
 22 23  2  0  0  0  0
 23 21  1  0  0  0  0
 23 19  1  0  0  0  0
 24 31  1  6  0  0  0
 24 25  1  0  0  0  0
 25 26  1  1  0  0  0
 25 27  1  0  0  0  0
 27 28  1  1  0  0  0
 27 30  1  0  0  0  0
 30 29  1  0  0  0  0
 31 32  1  0  0  0  0
 32 33  1  0  0  0  0
 33 34  1  0  0  0  0
 33 35  2  0  0  0  0
 37 41  1  0  0  0  0
 37 36  1  0  0  0  0
 38 43  2  0  0  0  0
 39 44  1  0  0  0  0
 40 39  1  1  0  0  0
 40 45  1  0  0  0  0
 40 38  1  0  0  0  0
 41 44  1  6  0  0  0
 41 42  1  0  0  0  0
 43 42  1  0  0  0  0
 45 34  1  6  0  0  0
 45 36  1  0  0  0  0
M  END
>  <MODEL>
1

>  <REMARK>
 VINA RESULT:      -5.5      0.000      0.000
  Name = 
  16 active torsions:
  status: ('A' for Active; 'I' for Inactive)
    1  A    between atoms: C_1  and  C_3
    2  A    between atoms: C_1  and  C_26
    3  A    between atoms: C_3  and  C_4
    4  A    between atoms: C_3  and  C_38
    5  A    between atoms: C_4  and  C_40
    6  A    between atoms: C_9  and  C_19
    7  A    between atoms: C_12  and  C_13
    8  A    between atoms: C_13  and  CA_39
    9  A    between atoms: C_15  and  C_41
   10  A    between atoms: C_16  and  C_40
   11  A    between atoms: C_17  and  C_21
   12  A    between atoms: C_21  and  C_27
   13  A    between atoms: C_22  and  C_26
   14  A    between atoms: N_24  and  C_44
   15  A    between atoms: C_27  and  C_33
   16  A    between atoms: C_28  and  CA_39
                            x       y       z     vdW  Elec       q    Type
                         _______ _______ _______ _____ _____    ______ ____

>  <TORSDO>
F 16

$$$$
=
 OpenBabel11072412023D

 45 47  0  0  1  0  0  0  0  0999 V2000
  161.7540  208.6240  148.9900 C   0  0  2  0  0  3  0  0  0  0  0  0
  161.3490  208.0050  150.0850 C   0  0  0  0  0  2  0  0  0  0  0  0
  159.8090  206.1880  149.6840 C   0  0  0  0  0  1  0  0  0  0  0  0
  161.2780  206.5210  149.9660 C   0  0  1  0  0  0  0  0  0  0  0  0
  162.1940  206.1770  148.7700 C   0  0  2  0  0  3  0  0  0  0  0  0
  162.1630  207.5770  147.6070 S   0  0  0  0  0  0  0  0  0  0  0  0
  161.9560  210.0440  148.9560 C   0  0  0  0  0  0  0  0  0  0  0  0
  162.1270  211.2370  148.9300 C   0  0  0  0  0  0  0  0  0  0  0  0
  162.3390  212.6860  148.8960 C   0  0  0  0  0  2  0  0  0  0  0  0
  160.9380  212.5380  146.9040 N   0  0  0  0  0  1  0  0  0  0  0  0
  161.2620  213.3600  148.0600 C   0  0  1  0  0  3  0  0  0  0  0  0
  160.1250  214.0850  150.0390 O   0  0  0  0  0  1  0  0  0  0  0  0
  160.0390  213.5870  148.8840 C   0  0  0  0  0  0  0  0  0  0  0  0
  158.7930  213.2640  148.3650 O   0  0  0  0  0  0  0  0  0  0  0  0
  161.8620  204.9130  148.0940 C   0  0  0  0  0  0  0  0  0  0  0  0
  161.5840  203.8950  147.5150 C   0  0  0  0  0  0  0  0  0  0  0  0
  161.2450  202.6880  146.8080 C   0  0  0  0  0  0  0  0  0  0  0  0
  161.0630  201.6240  147.4540 O   0  0  0  0  0  0  0  0  0  0  0  0
  161.1090  202.6730  145.3170 C   0  0  2  0  0  3  0  0  0  0  0  0
  161.0150  204.0820  144.7510 C   0  0  0  0  0  1  0  0  0  0  0  0
  160.0990  200.4150  144.8250 N   0  0  0  0  0  1  0  0  0  0  0  0
  158.8550  202.3560  144.5630 O   0  0  0  0  0  0  0  0  0  0  0  0
  159.9570  201.8290  144.8730 C   0  0  0  0  0  0  0  0  0  0  0  0
  161.7450  205.8230  151.2750 C   0  0  2  0  0  3  0  0  0  0  0  0
  160.9550  204.5410  151.6320 C   0  0  1  0  0  3  0  0  0  0  0  0
  159.6300  204.6200  151.1960 O   0  0  0  0  0  1  0  0  0  0  0  0
  161.6120  203.2690  151.0780 C   0  0  1  0  0  3  0  0  0  0  0  0
  162.4500  202.6940  152.0350 O   0  0  0  0  0  1  0  0  0  0  0  0
  161.1870  200.9740  150.4720 O   0  0  0  0  0  1  0  0  0  0  0  0
  160.6090  202.2420  150.5550 C   0  0  0  0  0  2  0  0  0  0  0  0
  161.6960  206.8030  152.4500 C   0  0  0  0  0  2  0  0  0  0  0  0
  161.2380  206.0950  153.7090 C   0  0  0  0  0  2  0  0  0  0  0  0
  160.8200  207.1070  154.7130 C   0  0  0  0  0  0  0  0  0  0  0  0
  160.6820  208.4760  154.3160 N   0  0  0  0  0  2  0  0  0  0  0  0
  160.6380  206.7520  155.9070 O   0  0  0  0  0  0  0  0  0  0  0  0
  158.8810  209.7210  155.5270 C   0  0  0  0  0  2  0  0  0  0  0  0
  158.0780  210.6090  154.5770 C   0  0  0  0  0  2  0  0  0  0  0  0
  161.2510  211.8710  155.9610 C   0  0  0  0  0  3  0  0  0  0  0  0
  160.7110  211.5340  153.4960 C   0  0  0  0  0  2  0  0  0  0  0  0
  161.1320  210.8920  154.8230 C   0  0  2  0  0  3  0  0  0  0  0  0
  158.4810  212.0870  154.6450 C   0  0  1  0  0  3  0  0  0  0  0  0
  158.7930  212.5800  156.0670 C   0  0  0  0  0  2  0  0  0  0  0  0
  160.2490  212.6050  156.4760 C   0  0  0  0  0  3  0  0  0  0  0  0
  159.5200  212.4920  153.5980 C   0  0  0  0  0  2  0  0  0  0  0  0
  160.3710  209.6070  155.1900 C   0  0  2  0  0  3  0  0  0  0  0  0
  1  7  1  1  0  0  0
  1  2  1  0  0  0  0
  4  3  1  6  0  0  0
  4  2  1  0  0  0  0
  4 24  1  0  0  0  0
  5 15  1  6  0  0  0
  5  4  1  0  0  0  0
  6  5  1  0  0  0  0
  6  1  1  0  0  0  0
  8  7  3  0  0  0  0
  9  8  1  0  0  0  0
 11 10  1  6  0  0  0
 11 13  1  0  0  0  0
 11  9  1  0  0  0  0
 13 12  1  0  0  0  0
 14 13  2  0  0  0  0
 16 15  3  0  0  0  0
 17 18  2  0  0  0  0
 17 16  1  0  0  0  0
 19 20  1  1  0  0  0
 19 17  1  0  0  0  0
 21 23  1  0  0  0  0
 22 23  2  0  0  0  0
 23 19  1  0  0  0  0
 24 25  1  0  0  0  0
 24 31  1  1  0  0  0
 25 26  1  6  0  0  0
 27 25  1  0  0  0  0
 27 28  1  1  0  0  0
 29 30  1  0  0  0  0
 30 27  1  0  0  0  0
 31 32  1  0  0  0  0
 32 33  1  0  0  0  0
 33 35  2  0  0  0  0
 34 33  1  0  0  0  0
 37 41  1  0  0  0  0
 37 36  1  0  0  0  0
 38 43  2  0  0  0  0
 39 44  1  0  0  0  0
 40 39  1  6  0  0  0
 40 45  1  0  0  0  0
 40 38  1  0  0  0  0
 41 44  1  6  0  0  0
 41 42  1  0  0  0  0
 42 43  1  0  0  0  0
 45 34  1  6  0  0  0
 45 36  1  0  0  0  0
M  END
>  <MODEL>
2

>  <REMARK>
 VINA RESULT:      -4.8      2.061      7.248
  Name = 
  16 active torsions:
  status: ('A' for Active; 'I' for Inactive)
    1  A    between atoms: C_1  and  C_3
    2  A    between atoms: C_1  and  C_26
    3  A    between atoms: C_3  and  C_4
    4  A    between atoms: C_3  and  C_38
    5  A    between atoms: C_4  and  C_40
    6  A    between atoms: C_9  and  C_19
    7  A    between atoms: C_12  and  C_13
    8  A    between atoms: C_13  and  CA_39
    9  A    between atoms: C_15  and  C_41
   10  A    between atoms: C_16  and  C_40
   11  A    between atoms: C_17  and  C_21
   12  A    between atoms: C_21  and  C_27
   13  A    between atoms: C_22  and  C_26
   14  A    between atoms: N_24  and  C_44
   15  A    between atoms: C_27  and  C_33
   16  A    between atoms: C_28  and  CA_39
                            x       y       z     vdW  Elec       q    Type
                         _______ _______ _______ _____ _____    ______ ____

>  <TORSDO>
F 16

$$$$
=
 OpenBabel11072412023D

 45 47  0  0  1  0  0  0  0  0999 V2000
  160.8200  211.5790  150.9580 C   0  0  2  0  0  3  0  0  0  0  0  0
  161.2550  210.5300  151.6350 C   0  0  0  0  0  2  0  0  0  0  0  0
  161.4480  210.8960  154.0140 C   0  0  0  0  0  1  0  0  0  0  0  0
  160.5530  210.2920  152.9270 C   0  0  1  0  0  0  0  0  0  0  0  0
  159.2110  211.0480  152.7910 C   0  0  2  0  0  3  0  0  0  0  0  0
  159.4720  212.4790  151.6970 S   0  0  0  0  0  0  0  0  0  0  0  0
  161.3310  211.9040  149.6580 C   0  0  0  0  0  0  0  0  0  0  0  0
  161.7590  212.1750  148.5640 C   0  0  0  0  0  0  0  0  0  0  0  0
  162.2760  212.5070  147.2340 C   0  0  0  0  0  2  0  0  0  0  0  0
  162.4590  214.4410  145.7560 N   0  0  0  0  0  1  0  0  0  0  0  0
  161.5860  213.7500  146.6930 C   0  0  1  0  0  3  0  0  0  0  0  0
  160.0460  212.1690  145.7630 O   0  0  0  0  0  1  0  0  0  0  0  0
  160.3080  213.3750  146.0180 C   0  0  0  0  0  0  0  0  0  0  0  0
  159.3930  214.3650  145.6850 O   0  0  0  0  0  0  0  0  0  0  0  0
  158.6110  211.4560  154.0710 C   0  0  0  0  0  0  0  0  0  0  0  0
  158.0940  211.7950  155.1040 C   0  0  0  0  0  0  0  0  0  0  0  0
  157.4590  212.2070  156.3280 C   0  0  0  0  0  0  0  0  0  0  0  0
  158.1610  212.6830  157.2580 O   0  0  0  0  0  0  0  0  0  0  0  0
  155.9790  212.0760  156.5190 C   0  0  2  0  0  3  0  0  0  0  0  0
  155.4200  210.8910  155.7460 C   0  0  0  0  0  1  0  0  0  0  0  0
  155.1360  213.7280  154.8110 N   0  0  0  0  0  1  0  0  0  0  0  0
  154.7450  214.0550  157.0740 O   0  0  0  0  0  0  0  0  0  0  0  0
  155.2610  213.3410  156.1730 C   0  0  0  0  0  0  0  0  0  0  0  0
  160.3400  208.7740  153.1880 C   0  0  2  0  0  3  0  0  0  0  0  0
  159.9520  208.4250  154.6440 C   0  0  1  0  0  3  0  0  0  0  0  0
  160.0780  207.0550  154.8920 O   0  0  0  0  0  1  0  0  0  0  0  0
  160.7610  209.2200  155.6790 C   0  0  1  0  0  3  0  0  0  0  0  0
  159.9700  209.5290  156.7870 O   0  0  0  0  0  1  0  0  0  0  0  0
  162.8650  209.3860  156.8450 O   0  0  0  0  0  1  0  0  0  0  0  0
  162.0480  208.5210  156.1150 C   0  0  0  0  0  2  0  0  0  0  0  0
  161.5860  207.9830  152.7810 C   0  0  0  0  0  2  0  0  0  0  0  0
  161.1980  206.7940  151.9250 C   0  0  0  0  0  2  0  0  0  0  0  0
  161.8230  206.9340  150.5840 C   0  0  0  0  0  0  0  0  0  0  0  0
  161.4170  206.0590  149.5250 N   0  0  0  0  0  2  0  0  0  0  0  0
  162.7310  207.7880  150.4130 O   0  0  0  0  0  0  0  0  0  0  0  0
  161.2150  206.8320  147.1530 C   0  0  0  0  0  2  0  0  0  0  0  0
  160.1210  206.0680  146.4070 C   0  0  0  0  0  2  0  0  0  0  0  0
  163.4820  204.5820  146.6770 C   0  0  0  0  0  3  0  0  0  0  0  0
  161.3150  203.5780  147.5600 C   0  0  0  0  0  2  0  0  0  0  0  0
  162.4480  204.5890  147.7720 C   0  0  2  0  0  3  0  0  0  0  0  0
  160.6690  204.9640  145.4960 C   0  0  1  0  0  3  0  0  0  0  0  0
  161.9640  205.3490  144.7630 C   0  0  0  0  0  2  0  0  0  0  0  0
  163.2640  204.8900  145.3870 C   0  0  0  0  0  3  0  0  0  0  0  0
  160.7080  203.5830  146.1550 C   0  0  0  0  0  2  0  0  0  0  0  0
  161.9890  205.9980  148.1810 C   0  0  2  0  0  3  0  0  0  0  0  0
  1  7  1  6  0  0  0
  1  2  1  0  0  0  0
  1  6  1  0  0  0  0
  2  4  1  0  0  0  0
  4 24  1  0  0  0  0
  4  3  1  1  0  0  0
  5  4  1  0  0  0  0
  5 15  1  1  0  0  0
  6  5  1  0  0  0  0
  8  7  3  0  0  0  0
  9  8  1  0  0  0  0
 11 10  1  6  0  0  0
 11  9  1  0  0  0  0
 12 13  1  0  0  0  0
 13 11  1  0  0  0  0
 14 13  2  0  0  0  0
 15 16  3  0  0  0  0
 16 17  1  0  0  0  0
 17 19  1  0  0  0  0
 17 18  2  0  0  0  0
 19 20  1  6  0  0  0
 21 23  1  0  0  0  0
 23 19  1  0  0  0  0
 23 22  2  0  0  0  0
 24 31  1  1  0  0  0
 24 25  1  0  0  0  0
 25 26  1  1  0  0  0
 25 27  1  0  0  0  0
 27 30  1  0  0  0  0
 27 28  1  1  0  0  0
 30 29  1  0  0  0  0
 32 31  1  0  0  0  0
 33 32  1  0  0  0  0
 34 33  1  0  0  0  0
 35 33  2  0  0  0  0
 36 45  1  0  0  0  0
 37 36  1  0  0  0  0
 39 40  1  0  0  0  0
 40 38  1  6  0  0  0
 40 45  1  0  0  0  0
 41 42  1  1  0  0  0
 41 44  1  0  0  0  0
 41 37  1  0  0  0  0
 42 43  1  0  0  0  0
 43 38  2  0  0  0  0
 44 39  1  0  0  0  0
 45 34  1  1  0  0  0
M  END
>  <MODEL>
3

>  <REMARK>
 VINA RESULT:      -4.3      2.872      9.239
  Name = 
  16 active torsions:
  status: ('A' for Active; 'I' for Inactive)
    1  A    between atoms: C_1  and  C_3
    2  A    between atoms: C_1  and  C_26
    3  A    between atoms: C_3  and  C_4
    4  A    between atoms: C_3  and  C_38
    5  A    between atoms: C_4  and  C_40
    6  A    between atoms: C_9  and  C_19
    7  A    between atoms: C_12  and  C_13
    8  A    between atoms: C_13  and  CA_39
    9  A    between atoms: C_15  and  C_41
   10  A    between atoms: C_16  and  C_40
   11  A    between atoms: C_17  and  C_21
   12  A    between atoms: C_21  and  C_27
   13  A    between atoms: C_22  and  C_26
   14  A    between atoms: N_24  and  C_44
   15  A    between atoms: C_27  and  C_33
   16  A    between atoms: C_28  and  CA_39
                            x       y       z     vdW  Elec       q    Type
                         _______ _______ _______ _____ _____    ______ ____

>  <TORSDO>
F 16

$$$$
=
 OpenBabel11072412023D

 45 47  0  0  1  0  0  0  0  0999 V2000
  161.8270  208.5760  148.6680 C   0  0  2  0  0  3  0  0  0  0  0  0
  161.3730  208.0220  149.7790 C   0  0  0  0  0  2  0  0  0  0  0  0
  159.8310  206.2000  149.4180 C   0  0  0  0  0  1  0  0  0  0  0  0
  161.2910  206.5340  149.7390 C   0  0  1  0  0  0  0  0  0  0  0  0
  162.2490  206.1170  148.6010 C   0  0  2  0  0  3  0  0  0  0  0  0
  162.2780  207.4510  147.3620 S   0  0  0  0  0  0  0  0  0  0  0  0
  162.0450  209.9900  148.5640 C   0  0  0  0  0  0  0  0  0  0  0  0
  162.2290  211.1780  148.4740 C   0  0  0  0  0  0  0  0  0  0  0  0
  162.4480  212.6230  148.3630 C   0  0  0  0  0  2  0  0  0  0  0  0
  160.8450  212.5140  146.5260 N   0  0  0  0  0  1  0  0  0  0  0  0
  161.2610  213.2890  147.6860 C   0  0  1  0  0  3  0  0  0  0  0  0
  158.9340  213.3130  148.2520 O   0  0  0  0  0  0  0  0  0  0  0  0
  160.1270  213.4170  148.6470 C   0  0  0  0  0  0  0  0  0  0  0  0
  160.3900  213.6360  149.9930 O   0  0  0  0  0  1  0  0  0  0  0  0
  161.9300  204.8210  147.9820 C   0  0  0  0  0  0  0  0  0  0  0  0
  161.6400  203.7640  147.4840 C   0  0  0  0  0  0  0  0  0  0  0  0
  161.2750  202.5020  146.8960 C   0  0  0  0  0  0  0  0  0  0  0  0
  160.7740  202.4810  145.7420 O   0  0  0  0  0  0  0  0  0  0  0  0
  161.4750  201.2140  147.6320 C   0  0  2  0  0  3  0  0  0  0  0  0
  161.2250  200.0130  146.7340 C   0  0  0  0  0  1  0  0  0  0  0  0
  159.2940  201.5950  148.8390 N   0  0  0  0  0  1  0  0  0  0  0  0
  161.1190  200.6810  149.9430 O   0  0  0  0  0  0  0  0  0  0  0  0
  160.6440  201.1490  148.8740 C   0  0  0  0  0  0  0  0  0  0  0  0
  161.6990  205.9070  151.1020 C   0  0  2  0  0  3  0  0  0  0  0  0
  160.6400  204.9570  151.7100 C   0  0  1  0  0  3  0  0  0  0  0  0
  159.7310  204.5190  150.7420 O   0  0  0  0  0  1  0  0  0  0  0  0
  161.2670  203.7500  152.4220 C   0  0  1  0  0  3  0  0  0  0  0  0
  160.2950  202.7890  152.7050 O   0  0  0  0  0  1  0  0  0  0  0  0
  162.6560  201.8110  152.0650 O   0  0  0  0  0  1  0  0  0  0  0  0
  162.4320  203.1270  151.6550 C   0  0  0  0  0  2  0  0  0  0  0  0
  162.0510  207.0020  152.1110 C   0  0  0  0  0  2  0  0  0  0  0  0
  160.9200  207.1890  153.1020 C   0  0  0  0  0  2  0  0  0  0  0  0
  160.9360  208.5880  153.6030 C   0  0  0  0  0  0  0  0  0  0  0  0
  160.0040  208.9820  154.6160 N   0  0  0  0  0  2  0  0  0  0  0  0
  161.7370  209.4150  153.0960 O   0  0  0  0  0  0  0  0  0  0  0  0
  158.8040  210.3960  156.2960 C   0  0  0  0  0  2  0  0  0  0  0  0
  157.3700  210.6900  155.8580 C   0  0  0  0  0  2  0  0  0  0  0  0
  160.1060  212.7960  154.5710 C   0  0  0  0  0  3  0  0  0  0  0  0
  158.5140  211.3780  153.1800 C   0  0  0  0  0  2  0  0  0  0  0  0
  159.7630  211.4190  154.0670 C   0  0  2  0  0  3  0  0  0  0  0  0
  157.1950  212.0930  155.2640 C   0  0  1  0  0  3  0  0  0  0  0  0
  158.0070  213.1790  155.9870 C   0  0  0  0  0  2  0  0  0  0  0  0
  159.3410  213.5520  155.3780 C   0  0  0  0  0  3  0  0  0  0  0  0
  157.3070  212.1360  153.7390 C   0  0  0  0  0  2  0  0  0  0  0  0
  159.8220  210.3310  155.1520 C   0  0  2  0  0  3  0  0  0  0  0  0
  1  7  1  1  0  0  0
  1  2  1  0  0  0  0
  4  3  1  6  0  0  0
  4  2  1  0  0  0  0
  4 24  1  0  0  0  0
  5 15  1  6  0  0  0
  5  4  1  0  0  0  0
  6  5  1  0  0  0  0
  6  1  1  0  0  0  0
  8  7  3  0  0  0  0
  9  8  1  0  0  0  0
 11 10  1  6  0  0  0
 11  9  1  0  0  0  0
 11 13  1  0  0  0  0
 12 13  2  0  0  0  0
 13 14  1  0  0  0  0
 16 15  3  0  0  0  0
 17 16  1  0  0  0  0
 17 19  1  0  0  0  0
 18 17  2  0  0  0  0
 19 20  1  6  0  0  0
 19 23  1  0  0  0  0
 21 23  1  0  0  0  0
 23 22  2  0  0  0  0
 24 25  1  0  0  0  0
 24 31  1  1  0  0  0
 25 26  1  6  0  0  0
 25 27  1  0  0  0  0
 27 28  1  6  0  0  0
 30 29  1  0  0  0  0
 30 27  1  0  0  0  0
 31 32  1  0  0  0  0
 32 33  1  0  0  0  0
 33 34  1  0  0  0  0
 35 33  2  0  0  0  0
 37 36  1  0  0  0  0
 38 43  2  0  0  0  0
 39 44  1  0  0  0  0
 40 39  1  1  0  0  0
 40 38  1  0  0  0  0
 40 45  1  0  0  0  0
 41 44  1  6  0  0  0
 41 37  1  0  0  0  0
 41 42  1  0  0  0  0
 43 42  1  0  0  0  0
 45 34  1  6  0  0  0
 45 36  1  0  0  0  0
M  END
>  <MODEL>
4

>  <REMARK>
 VINA RESULT:      -4.0      2.040      7.133
  Name = 
  16 active torsions:
  status: ('A' for Active; 'I' for Inactive)
    1  A    between atoms: C_1  and  C_3
    2  A    between atoms: C_1  and  C_26
    3  A    between atoms: C_3  and  C_4
    4  A    between atoms: C_3  and  C_38
    5  A    between atoms: C_4  and  C_40
    6  A    between atoms: C_9  and  C_19
    7  A    between atoms: C_12  and  C_13
    8  A    between atoms: C_13  and  CA_39
    9  A    between atoms: C_15  and  C_41
   10  A    between atoms: C_16  and  C_40
   11  A    between atoms: C_17  and  C_21
   12  A    between atoms: C_21  and  C_27
   13  A    between atoms: C_22  and  C_26
   14  A    between atoms: N_24  and  C_44
   15  A    between atoms: C_27  and  C_33
   16  A    between atoms: C_28  and  CA_39
                            x       y       z     vdW  Elec       q    Type
                         _______ _______ _______ _____ _____    ______ ____

>  <TORSDO>
F 16

$$$$
=
 OpenBabel11072412023D

 45 47  0  0  1  0  0  0  0  0999 V2000
  161.9990  209.8050  148.8400 C   0  0  2  0  0  3  0  0  0  0  0  0
  161.7210  209.4250  150.0760 C   0  0  0  0  0  2  0  0  0  0  0  0
  160.1350  207.6100  150.2210 C   0  0  0  0  0  1  0  0  0  0  0  0
  161.6280  207.9490  150.2630 C   0  0  1  0  0  0  0  0  0  0  0  0
  162.3970  207.3510  149.0640 C   0  0  2  0  0  3  0  0  0  0  0  0
  162.2380  208.4940  147.6560 S   0  0  0  0  0  0  0  0  0  0  0  0
  162.2030  211.1840  148.5020 C   0  0  0  0  0  0  0  0  0  0  0  0
  162.3730  212.3430  148.2190 C   0  0  0  0  0  0  0  0  0  0  0  0
  162.5790  213.7530  147.8780 C   0  0  0  0  0  2  0  0  0  0  0  0
  162.5340  213.2330  145.4940 N   0  0  0  0  0  1  0  0  0  0  0  0
  161.9490  214.0700  146.5300 C   0  0  1  0  0  3  0  0  0  0  0  0
  159.7760  214.4190  147.4730 O   0  0  0  0  0  1  0  0  0  0  0  0
  160.4740  213.8540  146.5890 C   0  0  0  0  0  0  0  0  0  0  0  0
  159.8630  213.0360  145.6490 O   0  0  0  0  0  0  0  0  0  0  0  0
  161.9810  205.9890  148.6940 C   0  0  0  0  0  0  0  0  0  0  0  0
  161.6610  204.8630  148.4100 C   0  0  0  0  0  0  0  0  0  0  0  0
  161.2950  203.5110  148.0810 C   0  0  0  0  0  0  0  0  0  0  0  0
  160.6560  202.8230  148.9190 O   0  0  0  0  0  0  0  0  0  0  0  0
  161.6630  202.9040  146.7620 C   0  0  2  0  0  3  0  0  0  0  0  0
  161.4510  203.8850  145.6190 C   0  0  0  0  0  1  0  0  0  0  0  0
  160.0610  201.5080  145.4060 N   0  0  0  0  0  1  0  0  0  0  0  0
  161.1110  200.6290  147.2780 O   0  0  0  0  0  0  0  0  0  0  0  0
  160.9370  201.6190  146.5200 C   0  0  0  0  0  0  0  0  0  0  0  0
  162.2410  207.5100  151.6230 C   0  0  2  0  0  3  0  0  0  0  0  0
  162.1770  205.9880  151.8900 C   0  0  1  0  0  3  0  0  0  0  0  0
  163.4100  205.4930  152.3240 O   0  0  0  0  0  1  0  0  0  0  0  0
  161.0790  205.6090  152.8940 C   0  0  1  0  0  3  0  0  0  0  0  0
  160.7700  204.2520  152.7930 O   0  0  0  0  0  1  0  0  0  0  0  0
  160.3520  206.6350  154.9510 O   0  0  0  0  0  1  0  0  0  0  0  0
  161.4190  205.9770  154.3370 C   0  0  0  0  0  2  0  0  0  0  0  0
  161.5770  208.2650  152.7770 C   0  0  0  0  0  2  0  0  0  0  0  0
  162.1360  209.6700  152.8790 C   0  0  0  0  0  2  0  0  0  0  0  0
  161.5070  210.3640  154.0320 C   0  0  0  0  0  0  0  0  0  0  0  0
  160.1810  210.8890  153.8990 N   0  0  0  0  0  2  0  0  0  0  0  0
  162.1660  210.5180  155.0930 O   0  0  0  0  0  0  0  0  0  0  0  0
  158.2600  210.9270  155.5020 C   0  0  0  0  0  2  0  0  0  0  0  0
  156.9330  211.1520  154.7800 C   0  0  0  0  0  2  0  0  0  0  0  0
  159.0110  214.0640  155.6620 C   0  0  0  0  0  3  0  0  0  0  0  0
  158.3050  213.3720  153.3150 C   0  0  0  0  0  2  0  0  0  0  0  0
  159.2590  213.1460  154.4940 C   0  0  2  0  0  3  0  0  0  0  0  0
  156.4250  212.5950  154.8830 C   0  0  1  0  0  3  0  0  0  0  0  0
  156.6610  213.2390  156.2590 C   0  0  0  0  0  2  0  0  0  0  0  0
  157.8890  214.1120  156.4010 C   0  0  0  0  0  3  0  0  0  0  0  0
  156.8260  213.4770  153.7000 C   0  0  0  0  0  2  0  0  0  0  0  0
  159.4530  211.6740  154.8950 C   0  0  2  0  0  3  0  0  0  0  0  0
  1  7  1  1  0  0  0
  1  2  1  0  0  0  0
  2  4  1  0  0  0  0
  4  3  1  6  0  0  0
  4 24  1  0  0  0  0
  5 15  1  6  0  0  0
  5  4  1  0  0  0  0
  6  1  1  0  0  0  0
  6  5  1  0  0  0  0
  8  7  3  0  0  0  0
  9  8  1  0  0  0  0
 11 10  1  6  0  0  0
 11 13  1  0  0  0  0
 11  9  1  0  0  0  0
 13 12  1  0  0  0  0
 14 13  2  0  0  0  0
 16 15  3  0  0  0  0
 17 16  1  0  0  0  0
 17 18  2  0  0  0  0
 19 20  1  6  0  0  0
 19 17  1  0  0  0  0
 21 23  1  0  0  0  0
 23 19  1  0  0  0  0
 23 22  2  0  0  0  0
 24 25  1  0  0  0  0
 24 31  1  1  0  0  0
 25 26  1  1  0  0  0
 25 27  1  0  0  0  0
 27 28  1  1  0  0  0
 27 30  1  0  0  0  0
 30 29  1  0  0  0  0
 31 32  1  0  0  0  0
 32 33  1  0  0  0  0
 33 35  2  0  0  0  0
 34 33  1  0  0  0  0
 37 41  1  0  0  0  0
 37 36  1  0  0  0  0
 38 43  2  0  0  0  0
 39 44  1  0  0  0  0
 40 39  1  6  0  0  0
 40 45  1  0  0  0  0
 40 38  1  0  0  0  0
 41 44  1  6  0  0  0
 41 42  1  0  0  0  0
 42 43  1  0  0  0  0
 45 34  1  6  0  0  0
 45 36  1  0  0  0  0
M  END
>  <MODEL>
5

>  <REMARK>
 VINA RESULT:      -3.8      1.653      6.675
  Name = 
  16 active torsions:
  status: ('A' for Active; 'I' for Inactive)
    1  A    between atoms: C_1  and  C_3
    2  A    between atoms: C_1  and  C_26
    3  A    between atoms: C_3  and  C_4
    4  A    between atoms: C_3  and  C_38
    5  A    between atoms: C_4  and  C_40
    6  A    between atoms: C_9  and  C_19
    7  A    between atoms: C_12  and  C_13
    8  A    between atoms: C_13  and  CA_39
    9  A    between atoms: C_15  and  C_41
   10  A    between atoms: C_16  and  C_40
   11  A    between atoms: C_17  and  C_21
   12  A    between atoms: C_21  and  C_27
   13  A    between atoms: C_22  and  C_26
   14  A    between atoms: N_24  and  C_44
   15  A    between atoms: C_27  and  C_33
   16  A    between atoms: C_28  and  CA_39
                            x       y       z     vdW  Elec       q    Type
                         _______ _______ _______ _____ _____    ______ ____

>  <TORSDO>
F 16

$$$$
=
 OpenBabel11072412023D

 45 47  0  0  1  0  0  0  0  0999 V2000
  161.1520  208.6140  153.1850 C   0  0  2  0  0  3  0  0  0  0  0  0
  161.5680  208.8100  151.9460 C   0  0  0  0  0  2  0  0  0  0  0  0
  163.0980  207.1250  151.1380 C   0  0  0  0  0  1  0  0  0  0  0  0
  161.6350  207.5750  151.1130 C   0  0  1  0  0  0  0  0  0  0  0  0
  160.7030  206.5690  151.8260 C   0  0  2  0  0  3  0  0  0  0  0  0
  160.7240  206.9370  153.6090 S   0  0  0  0  0  0  0  0  0  0  0  0
  160.9530  209.7040  154.0960 C   0  0  0  0  0  0  0  0  0  0  0  0
  160.7890  210.6210  154.8610 C   0  0  0  0  0  0  0  0  0  0  0  0
  160.5890  211.7380  155.7880 C   0  0  0  0  0  2  0  0  0  0  0  0
  158.8660  212.9960  156.9740 N   0  0  0  0  0  1  0  0  0  0  0  0
  159.1220  212.1380  155.8270 C   0  0  1  0  0  3  0  0  0  0  0  0
  158.4850  214.0770  154.5750 O   0  0  0  0  0  1  0  0  0  0  0  0
  158.7480  212.8450  154.5670 C   0  0  0  0  0  0  0  0  0  0  0  0
  158.7080  212.1410  153.3710 O   0  0  0  0  0  0  0  0  0  0  0  0
  161.0230  205.1570  151.5690 C   0  0  0  0  0  0  0  0  0  0  0  0
  161.3050  204.0090  151.3370 C   0  0  0  0  0  0  0  0  0  0  0  0
  161.6520  202.6430  151.0440 C   0  0  0  0  0  0  0  0  0  0  0  0
  162.1800  201.9350  151.9390 O   0  0  0  0  0  0  0  0  0  0  0  0
  161.4000  202.0500  149.6920 C   0  0  2  0  0  3  0  0  0  0  0  0
  161.5490  203.0890  148.5910 C   0  0  0  0  0  1  0  0  0  0  0  0
  159.4810  201.1060  148.3570 N   0  0  0  0  0  1  0  0  0  0  0  0
  159.4790  201.0050  150.6750 O   0  0  0  0  0  0  0  0  0  0  0  0
  160.0700  201.3690  149.6230 C   0  0  0  0  0  0  0  0  0  0  0  0
  161.1820  207.8510  149.6520 C   0  0  2  0  0  3  0  0  0  0  0  0
  161.1040  206.5900  148.7590 C   0  0  1  0  0  3  0  0  0  0  0  0
  159.7960  206.1060  148.6710 O   0  0  0  0  0  1  0  0  0  0  0  0
  161.6690  206.8270  147.3500 C   0  0  1  0  0  3  0  0  0  0  0  0
  162.7180  205.9450  147.0890 O   0  0  0  0  0  1  0  0  0  0  0  0
  160.6250  205.4990  145.6300 O   0  0  0  0  0  1  0  0  0  0  0  0
  160.6130  206.7500  146.2490 C   0  0  0  0  0  2  0  0  0  0  0  0
  162.0930  208.8920  148.9970 C   0  0  0  0  0  2  0  0  0  0  0  0
  161.9800  210.2200  149.7200 C   0  0  0  0  0  2  0  0  0  0  0  0
  162.0170  211.3220  148.7240 C   0  0  0  0  0  0  0  0  0  0  0  0
  160.7880  211.9010  148.2700 N   0  0  0  0  0  2  0  0  0  0  0  0
  163.1250  211.6990  148.2620 O   0  0  0  0  0  0  0  0  0  0  0  0
  159.2980  213.6620  147.3010 C   0  0  0  0  0  2  0  0  0  0  0  0
  158.1870  213.0480  146.4490 C   0  0  0  0  0  2  0  0  0  0  0  0
  161.5000  213.6180  144.9380 C   0  0  0  0  0  3  0  0  0  0  0  0
  160.3210  211.3750  145.1830 C   0  0  0  0  0  2  0  0  0  0  0  0
  161.1510  212.4750  145.8550 C   0  0  2  0  0  3  0  0  0  0  0  0
  158.4640  213.1320  144.9430 C   0  0  1  0  0  3  0  0  0  0  0  0
  159.1180  214.4530  144.5050 C   0  0  0  0  0  2  0  0  0  0  0  0
  160.6230  214.4500  144.3490 C   0  0  0  0  0  3  0  0  0  0  0  0
  159.1290  211.8810  144.3670 C   0  0  0  0  0  2  0  0  0  0  0  0
  160.6380  212.9210  147.2340 C   0  0  2  0  0  3  0  0  0  0  0  0
  1  6  1  0  0  0  0
  1  7  1  6  0  0  0
  2  1  1  0  0  0  0
  4  3  1  6  0  0  0
  4  5  1  0  0  0  0
  4  2  1  0  0  0  0
  5 15  1  1  0  0  0
  5  6  1  0  0  0  0
  7  8  3  0  0  0  0
  8  9  1  0  0  0  0
  9 11  1  0  0  0  0
 11 10  1  1  0  0  0
 13 12  1  0  0  0  0
 13 11  1  0  0  0  0
 14 13  2  0  0  0  0
 16 15  3  0  0  0  0
 17 16  1  0  0  0  0
 17 18  2  0  0  0  0
 19 20  1  6  0  0  0
 19 17  1  0  0  0  0
 21 23  1  0  0  0  0
 23 19  1  0  0  0  0
 23 22  2  0  0  0  0
 24 31  1  6  0  0  0
 24  4  1  0  0  0  0
 25 26  1  6  0  0  0
 25 24  1  0  0  0  0
 27 28  1  6  0  0  0
 27 25  1  0  0  0  0
 29 30  1  0  0  0  0
 30 27  1  0  0  0  0
 31 32  1  0  0  0  0
 33 32  1  0  0  0  0
 34 33  1  0  0  0  0
 35 33  2  0  0  0  0
 37 36  1  0  0  0  0
 39 40  1  0  0  0  0
 40 38  1  6  0  0  0
 40 45  1  0  0  0  0
 41 44  1  1  0  0  0
 41 37  1  0  0  0  0
 42 41  1  0  0  0  0
 43 42  1  0  0  0  0
 43 38  2  0  0  0  0
 44 39  1  0  0  0  0
 45 36  1  0  0  0  0
 45 34  1  1  0  0  0
M  END
>  <MODEL>
6

>  <REMARK>
 VINA RESULT:      -3.7      2.569      9.405
  Name = 
  16 active torsions:
  status: ('A' for Active; 'I' for Inactive)
    1  A    between atoms: C_1  and  C_3
    2  A    between atoms: C_1  and  C_26
    3  A    between atoms: C_3  and  C_4
    4  A    between atoms: C_3  and  C_38
    5  A    between atoms: C_4  and  C_40
    6  A    between atoms: C_9  and  C_19
    7  A    between atoms: C_12  and  C_13
    8  A    between atoms: C_13  and  CA_39
    9  A    between atoms: C_15  and  C_41
   10  A    between atoms: C_16  and  C_40
   11  A    between atoms: C_17  and  C_21
   12  A    between atoms: C_21  and  C_27
   13  A    between atoms: C_22  and  C_26
   14  A    between atoms: N_24  and  C_44
   15  A    between atoms: C_27  and  C_33
   16  A    between atoms: C_28  and  CA_39
                            x       y       z     vdW  Elec       q    Type
                         _______ _______ _______ _____ _____    ______ ____

>  <TORSDO>
F 16

$$$$
=
 OpenBabel11072412023D

 45 47  0  0  1  0  0  0  0  0999 V2000
  161.5410  205.4780  147.9980 C   0  0  2  0  0  3  0  0  0  0  0  0
  162.2500  205.6780  149.0950 C   0  0  0  0  0  2  0  0  0  0  0  0
  163.8190  207.5080  148.9400 C   0  0  0  0  0  1  0  0  0  0  0  0
  162.4340  207.1120  149.4610 C   0  0  1  0  0  0  0  0  0  0  0  0
  161.2980  207.8550  148.7210 C   0  0  2  0  0  3  0  0  0  0  0  0
  160.9190  206.9410  147.1930 S   0  0  0  0  0  0  0  0  0  0  0  0
  161.2010  204.1590  147.5490 C   0  0  0  0  0  0  0  0  0  0  0  0
  160.9190  203.0500  147.1700 C   0  0  0  0  0  0  0  0  0  0  0  0
  160.5770  201.7000  146.7130 C   0  0  0  0  0  2  0  0  0  0  0  0
  162.2210  200.3520  147.9100 N   0  0  0  0  0  1  0  0  0  0  0  0
  160.8090  200.6900  147.8250 C   0  0  1  0  0  3  0  0  0  0  0  0
  161.1620  201.6320  149.9980 O   0  0  0  0  0  1  0  0  0  0  0  0
  160.3370  201.2430  149.1280 C   0  0  0  0  0  0  0  0  0  0  0  0
  158.9750  201.3460  149.3770 O   0  0  0  0  0  0  0  0  0  0  0  0
  161.5810  209.2710  148.4410 C   0  0  0  0  0  0  0  0  0  0  0  0
  161.7830  210.4360  148.2120 C   0  0  0  0  0  0  0  0  0  0  0  0
  162.0040  211.8310  147.9360 C   0  0  0  0  0  0  0  0  0  0  0  0
  163.1060  212.3540  148.2450 O   0  0  0  0  0  0  0  0  0  0  0  0
  160.9470  212.6730  147.2920 C   0  0  2  0  0  3  0  0  0  0  0  0
  161.5520  213.8470  146.5380 C   0  0  0  0  0  1  0  0  0  0  0  0
  160.3180  213.4350  149.6110 N   0  0  0  0  0  1  0  0  0  0  0  0
  158.7170  213.2690  147.9400 O   0  0  0  0  0  0  0  0  0  0  0  0
  159.9220  213.1300  148.2800 C   0  0  0  0  0  0  0  0  0  0  0  0
  162.3580  207.3190  151.0000 C   0  0  2  0  0  3  0  0  0  0  0  0
  162.2350  206.0100  151.8150 C   0  0  1  0  0  3  0  0  0  0  0  0
  163.4450  205.6760  152.4290 O   0  0  0  0  0  1  0  0  0  0  0  0
  161.1160  206.0700  152.8640 C   0  0  1  0  0  3  0  0  0  0  0  0
  160.5590  204.8050  153.0590 O   0  0  0  0  0  1  0  0  0  0  0  0
  160.4580  206.9930  154.9920 O   0  0  0  0  0  1  0  0  0  0  0  0
  161.5590  206.6730  154.1960 C   0  0  0  0  0  2  0  0  0  0  0  0
  161.2040  208.2600  151.3560 C   0  0  0  0  0  2  0  0  0  0  0  0
  161.7410  209.5780  151.8780 C   0  0  0  0  0  2  0  0  0  0  0  0
  160.7980  210.1220  152.8900 C   0  0  0  0  0  0  0  0  0  0  0  0
  161.2060  211.2220  153.7110 N   0  0  0  0  0  2  0  0  0  0  0  0
  159.6730  209.5780  153.0400 O   0  0  0  0  0  0  0  0  0  0  0  0
  160.0890  210.8120  155.9130 C   0  0  0  0  0  2  0  0  0  0  0  0
  158.7380  210.1200  155.7350 C   0  0  0  0  0  2  0  0  0  0  0  0
  158.9370  213.7840  155.3980 C   0  0  0  0  0  3  0  0  0  0  0  0
  158.1790  212.1450  153.6030 C   0  0  0  0  0  2  0  0  0  0  0  0
  159.3550  212.7940  154.3430 C   0  0  2  0  0  3  0  0  0  0  0  0
  157.5480  211.0800  155.8530 C   0  0  1  0  0  3  0  0  0  0  0  0
  157.7180  212.1480  156.9450 C   0  0  0  0  0  2  0  0  0  0  0  0
  158.2210  213.5040  156.5000 C   0  0  0  0  0  3  0  0  0  0  0  0
  157.0600  211.6270  154.5110 C   0  0  0  0  0  2  0  0  0  0  0  0
  160.4440  211.8150  154.8100 C   0  0  2  0  0  3  0  0  0  0  0  0
  1  7  1  1  0  0  0
  1  2  1  0  0  0  0
  2  4  1  0  0  0  0
  4  3  1  6  0  0  0
  4 24  1  0  0  0  0
  5 15  1  6  0  0  0
  5  4  1  0  0  0  0
  6  1  1  0  0  0  0
  6  5  1  0  0  0  0
  8  7  3  0  0  0  0
  9  8  1  0  0  0  0
  9 11  1  0  0  0  0
 11 10  1  1  0  0  0
 11 13  1  0  0  0  0
 13 14  2  0  0  0  0
 13 12  1  0  0  0  0
 16 15  3  0  0  0  0
 17 16  1  0  0  0  0
 17 18  2  0  0  0  0
 19 20  1  1  0  0  0
 19 17  1  0  0  0  0
 19 23  1  0  0  0  0
 22 23  2  0  0  0  0
 23 21  1  0  0  0  0
 24 31  1  6  0  0  0
 24 25  1  0  0  0  0
 25 26  1  1  0  0  0
 25 27  1  0  0  0  0
 27 28  1  1  0  0  0
 27 30  1  0  0  0  0
 30 29  1  0  0  0  0
 31 32  1  0  0  0  0
 32 33  1  0  0  0  0
 33 35  2  0  0  0  0
 33 34  1  0  0  0  0
 37 41  1  0  0  0  0
 37 36  1  0  0  0  0
 38 43  2  0  0  0  0
 39 44  1  0  0  0  0
 40 39  1  1  0  0  0
 40 45  1  0  0  0  0
 40 38  1  0  0  0  0
 41 44  1  6  0  0  0
 41 42  1  0  0  0  0
 43 42  1  0  0  0  0
 45 34  1  6  0  0  0
 45 36  1  0  0  0  0
M  END
>  <MODEL>
7

>  <REMARK>
 VINA RESULT:      -3.5      1.692      2.085
  Name = 
  16 active torsions:
  status: ('A' for Active; 'I' for Inactive)
    1  A    between atoms: C_1  and  C_3
    2  A    between atoms: C_1  and  C_26
    3  A    between atoms: C_3  and  C_4
    4  A    between atoms: C_3  and  C_38
    5  A    between atoms: C_4  and  C_40
    6  A    between atoms: C_9  and  C_19
    7  A    between atoms: C_12  and  C_13
    8  A    between atoms: C_13  and  CA_39
    9  A    between atoms: C_15  and  C_41
   10  A    between atoms: C_16  and  C_40
   11  A    between atoms: C_17  and  C_21
   12  A    between atoms: C_21  and  C_27
   13  A    between atoms: C_22  and  C_26
   14  A    between atoms: N_24  and  C_44
   15  A    between atoms: C_27  and  C_33
   16  A    between atoms: C_28  and  CA_39
                            x       y       z     vdW  Elec       q    Type
                         _______ _______ _______ _____ _____    ______ ____

>  <TORSDO>
F 16

$$$$
=
 OpenBabel11072412023D

 45 47  0  0  1  0  0  0  0  0999 V2000
  161.2140  208.6390  150.1680 C   0  0  2  0  0  3  0  0  0  0  0  0
  160.6010  207.5370  150.5630 C   0  0  0  0  0  2  0  0  0  0  0  0
  159.7470  206.1770  148.7590 C   0  0  0  0  0  1  0  0  0  0  0  0
  160.9100  206.3300  149.7450 C   0  0  1  0  0  0  0  0  0  0  0  0
  162.2390  206.6680  149.0310 C   0  0  2  0  0  3  0  0  0  0  0  0
  162.3030  208.4680  148.7680 S   0  0  0  0  0  0  0  0  0  0  0  0
  161.0920  209.8720  150.8910 C   0  0  0  0  0  0  0  0  0  0  0  0
  160.9880  210.9070  151.5010 C   0  0  0  0  0  0  0  0  0  0  0  0
  160.8670  212.1640  152.2440 C   0  0  0  0  0  2  0  0  0  0  0  0
  159.1740  213.7400  153.0240 N   0  0  0  0  0  1  0  0  0  0  0  0
  159.5300  212.8260  151.9490 C   0  0  1  0  0  3  0  0  0  0  0  0
  158.6170  214.2460  150.2520 O   0  0  0  0  0  1  0  0  0  0  0  0
  159.5960  213.5620  150.6530 C   0  0  0  0  0  0  0  0  0  0  0  0
  160.7560  213.5070  149.8920 O   0  0  0  0  0  0  0  0  0  0  0  0
  162.4560  205.9360  147.7730 C   0  0  0  0  0  0  0  0  0  0  0  0
  162.6110  205.3520  146.7320 C   0  0  0  0  0  0  0  0  0  0  0  0
  162.7780  204.6630  145.4800 C   0  0  0  0  0  0  0  0  0  0  0  0
  163.8990  204.1690  145.1920 O   0  0  0  0  0  0  0  0  0  0  0  0
  161.6450  204.5240  144.5110 C   0  0  2  0  0  3  0  0  0  0  0  0
  160.8600  205.8200  144.3810 C   0  0  0  0  0  1  0  0  0  0  0  0
  161.1690  202.4370  145.8440 N   0  0  0  0  0  1  0  0  0  0  0  0
  159.6220  203.2510  144.3180 O   0  0  0  0  0  0  0  0  0  0  0  0
  160.7510  203.3780  144.8630 C   0  0  0  0  0  0  0  0  0  0  0  0
  161.0340  205.0590  150.6320 C   0  0  2  0  0  3  0  0  0  0  0  0
  160.5780  203.7520  149.9410 C   0  0  1  0  0  3  0  0  0  0  0  0
  160.8390  203.7820  148.5680 O   0  0  0  0  0  1  0  0  0  0  0  0
  161.2120  202.5010  150.5650 C   0  0  1  0  0  3  0  0  0  0  0  0
  161.0290  202.4970  151.9490 O   0  0  0  0  0  1  0  0  0  0  0  0
  161.7480  200.5180  149.3030 O   0  0  0  0  0  1  0  0  0  0  0  0
  160.7130  201.1930  149.9530 C   0  0  0  0  0  2  0  0  0  0  0  0
  160.2660  205.2450  151.9430 C   0  0  0  0  0  2  0  0  0  0  0  0
  161.1370  204.8640  153.1230 C   0  0  0  0  0  2  0  0  0  0  0  0
  161.7290  206.0940  153.7100 C   0  0  0  0  0  0  0  0  0  0  0  0
  161.1350  206.6700  154.8790 N   0  0  0  0  0  2  0  0  0  0  0  0
  162.7130  206.6360  153.1440 O   0  0  0  0  0  0  0  0  0  0  0  0
  161.1230  207.9920  157.0040 C   0  0  0  0  0  2  0  0  0  0  0  0
  159.7580  208.6280  157.2600 C   0  0  0  0  0  2  0  0  0  0  0  0
  162.1510  210.3450  155.0450 C   0  0  0  0  0  3  0  0  0  0  0  0
  159.8310  209.5160  154.4030 C   0  0  0  0  0  2  0  0  0  0  0  0
  161.3010  209.1640  154.6530 C   0  0  2  0  0  3  0  0  0  0  0  0
  159.7070  210.1170  156.8970 C   0  0  1  0  0  3  0  0  0  0  0  0
  160.9860  210.8880  157.2600 C   0  0  0  0  0  2  0  0  0  0  0  0
  161.9980  211.0900  156.1530 C   0  0  0  0  0  3  0  0  0  0  0  0
  159.1890  210.3900  155.4840 C   0  0  0  0  0  2  0  0  0  0  0  0
  161.5290  207.9200  155.5280 C   0  0  2  0  0  3  0  0  0  0  0  0
  1  2  1  0  0  0  0
  1  7  1  1  0  0  0
  4  3  1  6  0  0  0
  4  2  1  0  0  0  0
  4 24  1  0  0  0  0
  5 15  1  6  0  0  0
  5  4  1  0  0  0  0
  6  5  1  0  0  0  0
  6  1  1  0  0  0  0
  7  8  3  0  0  0  0
  8  9  1  0  0  0  0
 11  9  1  0  0  0  0
 11 10  1  1  0  0  0
 12 13  1  0  0  0  0
 13 11  1  0  0  0  0
 14 13  2  0  0  0  0
 16 15  3  0  0  0  0
 17 16  1  0  0  0  0
 18 17  2  0  0  0  0
 19 20  1  1  0  0  0
 19 23  1  0  0  0  0
 19 17  1  0  0  0  0
 22 23  2  0  0  0  0
 23 21  1  0  0  0  0
 24 31  1  1  0  0  0
 25 26  1  6  0  0  0
 25 27  1  0  0  0  0
 25 24  1  0  0  0  0
 27 28  1  1  0  0  0
 29 30  1  0  0  0  0
 30 27  1  0  0  0  0
 31 32  1  0  0  0  0
 32 33  1  0  0  0  0
 33 34  1  0  0  0  0
 35 33  2  0  0  0  0
 36 37  1  0  0  0  0
 38 43  2  0  0  0  0
 39 44  1  0  0  0  0
 40 39  1  1  0  0  0
 40 38  1  0  0  0  0
 40 45  1  0  0  0  0
 41 44  1  6  0  0  0
 41 37  1  0  0  0  0
 41 42  1  0  0  0  0
 43 42  1  0  0  0  0
 45 34  1  6  0  0  0
 45 36  1  0  0  0  0
M  END
>  <MODEL>
8

>  <REMARK>
 VINA RESULT:      -3.2      2.835      7.480
  Name = 
  16 active torsions:
  status: ('A' for Active; 'I' for Inactive)
    1  A    between atoms: C_1  and  C_3
    2  A    between atoms: C_1  and  C_26
    3  A    between atoms: C_3  and  C_4
    4  A    between atoms: C_3  and  C_38
    5  A    between atoms: C_4  and  C_40
    6  A    between atoms: C_9  and  C_19
    7  A    between atoms: C_12  and  C_13
    8  A    between atoms: C_13  and  CA_39
    9  A    between atoms: C_15  and  C_41
   10  A    between atoms: C_16  and  C_40
   11  A    between atoms: C_17  and  C_21
   12  A    between atoms: C_21  and  C_27
   13  A    between atoms: C_22  and  C_26
   14  A    between atoms: N_24  and  C_44
   15  A    between atoms: C_27  and  C_33
   16  A    between atoms: C_28  and  CA_39
                            x       y       z     vdW  Elec       q    Type
                         _______ _______ _______ _____ _____    ______ ____

>  <TORSDO>
F 16

$$$$
=
 OpenBabel11072412023D

 45 47  0  0  1  0  0  0  0  0999 V2000
  161.7150  205.7850  148.3350 C   0  0  2  0  0  3  0  0  0  0  0  0
  162.1510  206.0230  149.5600 C   0  0  0  0  0  2  0  0  0  0  0  0
  163.7200  207.8520  149.7160 C   0  0  0  0  0  1  0  0  0  0  0  0
  162.2500  207.4680  149.9120 C   0  0  1  0  0  0  0  0  0  0  0  0
  161.3210  208.1830  148.9050 C   0  0  2  0  0  3  0  0  0  0  0  0
  161.3040  207.2190  147.3610 S   0  0  0  0  0  0  0  0  0  0  0  0
  161.4840  204.4510  147.8620 C   0  0  0  0  0  0  0  0  0  0  0  0
  161.2930  203.3300  147.4630 C   0  0  0  0  0  0  0  0  0  0  0  0
  161.0610  201.9650  146.9820 C   0  0  0  0  0  2  0  0  0  0  0  0
  159.4290  201.5280  145.2210 N   0  0  0  0  0  1  0  0  0  0  0  0
  160.7900  201.9700  145.4860 C   0  0  1  0  0  3  0  0  0  0  0  0
  160.0260  204.0120  144.4960 O   0  0  0  0  0  0  0  0  0  0  0  0
  161.0000  203.3390  144.9300 C   0  0  0  0  0  0  0  0  0  0  0  0
  162.2770  203.8830  144.9090 O   0  0  0  0  0  1  0  0  0  0  0  0
  161.6670  209.5910  148.6520 C   0  0  0  0  0  0  0  0  0  0  0  0
  161.9750  210.7390  148.4620 C   0  0  0  0  0  0  0  0  0  0  0  0
  162.3580  212.1100  148.2490 C   0  0  0  0  0  0  0  0  0  0  0  0
  163.5310  212.3730  147.8780 O   0  0  0  0  0  0  0  0  0  0  0  0
  161.3870  213.2310  148.4630 C   0  0  2  0  0  3  0  0  0  0  0  0
  160.5710  213.0270  149.7300 C   0  0  0  0  0  1  0  0  0  0  0  0
  159.3190  212.6640  147.1370 N   0  0  0  0  0  1  0  0  0  0  0  0
  160.7890  214.3010  146.4020 O   0  0  0  0  0  0  0  0  0  0  0  0
  160.5050  213.4360  147.2730 C   0  0  0  0  0  0  0  0  0  0  0  0
  161.8190  207.7250  151.3840 C   0  0  2  0  0  3  0  0  0  0  0  0
  160.8740  206.6490  151.9690 C   0  0  1  0  0  3  0  0  0  0  0  0
  160.0710  206.0810  150.9770 O   0  0  0  0  0  1  0  0  0  0  0  0
  161.6300  205.5470  152.7250 C   0  0  1  0  0  3  0  0  0  0  0  0
  161.1720  205.4510  154.0400 O   0  0  0  0  0  1  0  0  0  0  0  0
  160.6690  203.3360  152.6750 O   0  0  0  0  0  1  0  0  0  0  0  0
  161.5730  204.1850  152.0350 C   0  0  0  0  0  2  0  0  0  0  0  0
  161.1750  209.1070  151.5180 C   0  0  0  0  0  2  0  0  0  0  0  0
  162.0200  209.9990  152.4060 C   0  0  0  0  0  2  0  0  0  0  0  0
  161.2800  210.2750  153.6650 C   0  0  0  0  0  0  0  0  0  0  0  0
  160.3240  211.3410  153.6990 N   0  0  0  0  0  2  0  0  0  0  0  0
  161.5390  209.5980  154.6940 O   0  0  0  0  0  0  0  0  0  0  0  0
  158.4370  210.8680  155.2730 C   0  0  0  0  0  2  0  0  0  0  0  0
  157.0860  211.2040  154.6440 C   0  0  0  0  0  2  0  0  0  0  0  0
  159.0440  213.8920  156.2310 C   0  0  0  0  0  3  0  0  0  0  0  0
  158.3220  213.7930  153.7910 C   0  0  0  0  0  2  0  0  0  0  0  0
  159.3100  213.3190  154.8640 C   0  0  2  0  0  3  0  0  0  0  0  0
  156.5130  212.5450  155.1200 C   0  0  1  0  0  3  0  0  0  0  0  0
  156.7480  212.8240  156.6140 C   0  0  0  0  0  2  0  0  0  0  0  0
  157.9370  213.6910  156.9660 C   0  0  0  0  0  3  0  0  0  0  0  0
  156.8490  213.7210  154.2020 C   0  0  0  0  0  2  0  0  0  0  0  0
  159.5810  211.8050  154.8700 C   0  0  2  0  0  3  0  0  0  0  0  0
  1  7  1  1  0  0  0
  1  2  1  0  0  0  0
  2  4  1  0  0  0  0
  4  3  1  6  0  0  0
  4 24  1  0  0  0  0
  5 15  1  6  0  0  0
  5  4  1  0  0  0  0
  6  1  1  0  0  0  0
  6  5  1  0  0  0  0
  8  7  3  0  0  0  0
  9  8  1  0  0  0  0
 11 10  1  1  0  0  0
 11  9  1  0  0  0  0
 12 13  2  0  0  0  0
 13 11  1  0  0  0  0
 14 13  1  0  0  0  0
 16 15  3  0  0  0  0
 17 16  1  0  0  0  0
 17 19  1  0  0  0  0
 18 17  2  0  0  0  0
 19 20  1  1  0  0  0
 21 23  1  0  0  0  0
 22 23  2  0  0  0  0
 23 19  1  0  0  0  0
 24 31  1  6  0  0  0
 24 25  1  0  0  0  0
 25 26  1  6  0  0  0
 25 27  1  0  0  0  0
 27 28  1  1  0  0  0
 30 29  1  0  0  0  0
 30 27  1  0  0  0  0
 31 32  1  0  0  0  0
 32 33  1  0  0  0  0
 33 34  1  0  0  0  0
 33 35  2  0  0  0  0
 37 41  1  0  0  0  0
 37 36  1  0  0  0  0
 38 43  2  0  0  0  0
 39 44  1  0  0  0  0
 40 39  1  6  0  0  0
 40 45  1  0  0  0  0
 40 38  1  0  0  0  0
 41 44  1  6  0  0  0
 41 42  1  0  0  0  0
 42 43  1  0  0  0  0
 45 34  1  6  0  0  0
 45 36  1  0  0  0  0
M  END
>  <MODEL>
9

>  <REMARK>
 VINA RESULT:      -3.1      1.362      1.871
  Name = 
  16 active torsions:
  status: ('A' for Active; 'I' for Inactive)
    1  A    between atoms: C_1  and  C_3
    2  A    between atoms: C_1  and  C_26
    3  A    between atoms: C_3  and  C_4
    4  A    between atoms: C_3  and  C_38
    5  A    between atoms: C_4  and  C_40
    6  A    between atoms: C_9  and  C_19
    7  A    between atoms: C_12  and  C_13
    8  A    between atoms: C_13  and  CA_39
    9  A    between atoms: C_15  and  C_41
   10  A    between atoms: C_16  and  C_40
   11  A    between atoms: C_17  and  C_21
   12  A    between atoms: C_21  and  C_27
   13  A    between atoms: C_22  and  C_26
   14  A    between atoms: N_24  and  C_44
   15  A    between atoms: C_27  and  C_33
   16  A    between atoms: C_28  and  CA_39
                            x       y       z     vdW  Elec       q    Type
                         _______ _______ _______ _____ _____    ______ ____

>  <TORSDO>
F 16

$$$$
