=
 OpenBabel11072412483D

 52 55  0  0  1  0  0  0  0  0999 V2000
  161.6430  209.7550  150.7880 O   0  0  0  0  0  0  0  0  0  0  0  0
  160.3250  212.6340  148.2190 C   0  0  2  0  0  3  0  0  0  0  0  0
  161.6550  207.3460  151.0100 C   0  0  0  0  0  2  0  0  0  0  0  0
  160.9420  207.4250  152.3650 C   0  0  2  0  0  3  0  0  0  0  0  0
  160.7820  209.9100  151.8920 C   0  0  2  0  0  3  0  0  0  0  0  0
  160.6420  213.3220  149.5110 C   0  0  0  0  0  3  0  0  0  0  0  0
  162.2060  210.9730  148.2040 C   0  0  0  0  0  2  0  0  0  0  0  0
  161.2620  208.5600  150.1450 C   0  0  2  0  0  3  0  0  0  0  0  0
  161.4250  209.6990  147.8860 C   0  0  0  0  0  2  0  0  0  0  0  0
  161.8470  208.4750  148.7150 C   0  0  1  0  0  0  0  0  0  0  0  0
  160.2800  212.7820  150.6370 C   0  0  0  0  0  0  0  0  0  0  0  0
  160.8820  211.3180  152.4550 C   0  0  0  0  0  2  0  0  0  0  0  0
  161.5840  212.1580  147.4870 C   0  0  2  0  0  3  0  0  0  0  0  0
  161.0690  208.8420  152.9670 C   0  0  2  0  0  3  0  0  0  0  0  0
  159.9080  212.2190  151.7580 C   0  0  0  0  0  0  0  0  0  0  0  0
  163.3730  208.3670  148.7710 C   0  0  0  0  0  1  0  0  0  0  0  0
  160.2080  205.3180  153.5610 C   0  0  0  0  0  2  0  0  0  0  0  0
  161.3730  206.3140  153.3330 C   0  0  1  0  0  3  0  0  0  0  0  0
  160.5780  203.8430  153.3580 C   0  0  0  0  0  2  0  0  0  0  0  0
  162.4110  204.5320  151.8940 C   0  0  0  0  0  3  0  0  0  0  0  0
  161.4200  203.6780  152.1300 C   0  0  0  0  0  0  0  0  0  0  0  0
  162.6790  205.6310  152.8780 C   0  0  0  0  0  2  0  0  0  0  0  0
  161.1670  202.6370  151.2460 O   0  0  0  0  0  1  0  0  0  0  0  0
  162.1200  206.4240  147.2740 O   0  0  0  0  0  0  0  0  0  0  0  0
  161.2860  207.2640  148.0070 C   0  0  0  0  0  0  0  0  0  0  0  0
  160.0430  207.0440  148.0090 O   0  0  0  0  0  1  0  0  0  0  0  0
  157.6400  213.1110  151.5850 C   0  0  0  0  0  2  0  0  0  0  0  0
  158.5140  212.3550  152.2420 C   0  0  0  0  0  0  0  0  0  0  0  0
  158.0220  211.5740  153.4190 C   0  0  0  0  0  2  0  0  0  0  0  0
  157.4000  212.4680  154.3800 N   0  0  0  0  0  1  0  0  0  0  0  0
  159.5010  213.5140  147.3370 C   0  0  0  0  0  3  0  0  0  0  0  0
  158.8640  213.0070  146.2800 C   0  0  0  0  0  3  0  0  0  0  0  0
  158.0420  213.8760  145.3860 C   0  0  0  0  0  2  0  0  0  0  0  0
  159.6730  212.5390  142.3040 C   0  0  0  0  0  0  0  0  0  0  0  0
  158.1550  214.2560  141.6620 N   0  0  0  0  0  0  0  0  0  0  0  0
  157.8100  214.4510  142.9610 C   0  0  0  0  0  3  0  0  0  0  0  0
  159.0740  213.3170  141.3110 C   0  0  0  0  0  3  0  0  0  0  0  0
  159.3310  212.7360  143.6050 N   0  0  0  0  0  0  0  0  0  0  0  0
  158.4090  213.6720  143.9540 C   0  0  0  0  0  0  0  0  0  0  0  0
  160.4260  211.0000  140.6860 O   0  0  0  0  0  1  0  0  0  0  0  0
  160.6970  211.5180  141.9500 C   0  0  0  0  0  2  0  0  0  0  0  0
  162.5660  213.2300  147.3630 N   0  0  0  0  0  2  0  0  0  0  0  0
  163.2320  213.0580  146.1410 N   0  0  0  0  0  2  0  0  0  0  0  0
  163.3740  213.4810  143.8610 O   0  0  0  0  0  0  0  0  0  0  0  0
  162.7500  213.6550  144.9390 C   0  0  0  0  0  0  0  0  0  0  0  0
  161.5870  214.4160  144.9490 O   0  0  0  0  0  1  0  0  0  0  0  0
  162.2310  209.0680  153.7510 O   0  0  0  0  0  0  0  0  0  0  0  0
  161.9390  208.8930  155.1140 C   0  0  0  0  0  2  0  0  0  0  0  0
  161.8500  210.2250  155.7840 C   0  0  0  0  0  0  0  0  0  0  0  0
  162.8890  210.7350  156.2710 O   0  0  0  0  0  0  0  0  0  0  0  0
  160.6340  210.8960  155.9200 O   0  0  0  0  0  0  0  0  0  0  0  0
  159.4860  210.2820  156.4910 C   0  0  0  0  0  1  0  0  0  0  0  0
  1  5  1  0  0  0  0
  2 31  1  6  0  0  0
  2  6  1  0  0  0  0
  4  3  1  6  0  0  0
  4 14  1  0  0  0  0
  4 18  1  0  0  0  0
  5 12  1  1  0  0  0
  5 14  1  0  0  0  0
  6 11  2  0  0  0  0
  8  1  1  0  0  0  0
  8  3  1  1  0  0  0
  9  7  1  0  0  0  0
  9 10  1  0  0  0  0
 10 16  1  1  0  0  0
 10  8  1  0  0  0  0
 11 15  2  0  0  0  0
 13 42  1  1  0  0  0
 13  7  1  0  0  0  0
 13  2  1  0  0  0  0
 14 47  1  6  0  0  0
 15 28  1  0  0  0  0
 15 12  1  0  0  0  0
 18 22  1  6  0  0  0
 18 17  1  0  0  0  0
 19 17  1  0  0  0  0
 20 21  2  0  0  0  0
 20 22  1  0  0  0  0
 21 19  1  0  0  0  0
 23 21  1  0  0  0  0
 24 25  2  0  0  0  0
 25 26  1  0  0  0  0
 25 10  1  0  0  0  0
 27 28  2  0  0  0  0
 28 29  1  0  0  0  0
 29 30  1  0  0  0  0
 32 31  2  0  0  0  0
 33 32  1  0  0  0  0
 34 38  1  0  0  0  0
 35 36  2  0  0  0  0
 36 39  1  0  0  0  0
 37 35  1  0  0  0  0
 37 34  2  0  0  0  0
 38 39  2  0  0  0  0
 39 33  1  0  0  0  0
 40 41  1  0  0  0  0
 41 34  1  0  0  0  0
 43 42  1  0  0  0  0
 44 45  2  0  0  0  0
 45 46  1  0  0  0  0
 45 43  1  0  0  0  0
 47 48  1  0  0  0  0
 48 49  1  0  0  0  0
 49 51  1  0  0  0  0
 49 50  2  0  0  0  0
 51 52  1  0  0  0  0
M  END
>  <MODEL>
1

>  <REMARK>
 VINA RESULT:      -2.5      0.000      0.000
  Name = 
  14 active torsions:
  status: ('A' for Active; 'I' for Inactive)
    1  A    between atoms: C_3  and  C_6
    2  A    between atoms: C_4  and  C_30
    3  A    between atoms: C_7  and  C_32
    4  A    between atoms: C_7  and  C_52
    5  A    between atoms: C_10  and  C_19
    6  A    between atoms: C_14  and  C_27
    7  A    between atoms: CA_16  and  C_42
    8  A    between atoms: C_21  and  C_23
    9  A    between atoms: C_21  and  O_24
   10  A    between atoms: C_23  and  O_36
   11  A    between atoms: N_26  and  N_28
   12  A    between atoms: N_26  and  C_34
   13  A    between atoms: C_27  and  C_44
   14  A    between atoms: O_36  and  C_38
                            x       y       z     vdW  Elec       q    Type
                         _______ _______ _______ _____ _____    ______ ____

>  <TORSDO>
F 14

$$$$
