=
 OpenBabel11072411373D

 25 29  0  0  0  0  0  0  0  0999 V2000
  161.0640  206.0470  151.7350 C   0  0  0  0  0  0  0  0  0  0  0  0
  161.0190  203.2670  152.0070 N   0  0  0  0  0  0  0  0  0  0  0  0
  160.9910  202.9440  146.7920 C   0  0  0  0  0  3  0  0  0  0  0  0
  161.1850  207.5180  151.6140 C   0  0  0  0  0  0  0  0  0  0  0  0
  160.5400  209.7010  152.4740 C   0  0  0  0  0  0  0  0  0  0  0  0
  161.0310  201.8330  147.6660 C   0  0  0  0  0  3  0  0  0  0  0  0
  160.9190  205.2140  150.6310 C   0  0  0  0  0  0  0  0  0  0  0  0
  161.3840  210.3230  151.5540 C   0  0  0  0  0  3  0  0  0  0  0  0
  160.8850  203.3150  149.5330 C   0  0  0  0  0  0  0  0  0  0  0  0
  161.1320  205.4460  152.9630 N   0  0  0  0  0  0  0  0  0  0  0  0
  162.0420  208.1530  150.6730 C   0  0  0  0  0  0  0  0  0  0  0  0
  160.8410  205.6710  146.1980 S   0  0  0  0  0  0  0  0  0  0  0  0
  159.8150  210.4480  153.3410 F   0  0  0  0  0  0  0  0  0  0  0  0
  160.8370  204.4040  148.6840 C   0  0  0  0  0  0  0  0  0  0  0  0
  162.0300  207.5770  147.7260 C   0  0  0  0  0  2  0  0  0  0  0  0
  162.1370  209.5520  150.6670 C   0  0  0  0  0  3  0  0  0  0  0  0
  160.8880  204.2530  147.3010 C   0  0  0  0  0  0  0  0  0  0  0  0
  162.9540  207.3640  149.7660 C   0  0  0  0  0  2  0  0  0  0  0  0
  161.1090  204.0800  153.1030 C   0  0  0  0  0  3  0  0  0  0  0  0
  160.4510  208.3080  152.5090 C   0  0  0  0  0  3  0  0  0  0  0  0
  160.9840  202.0100  149.0620 C   0  0  0  0  0  3  0  0  0  0  0  0
  160.9200  203.8560  150.7930 C   0  0  0  0  0  0  0  0  0  0  0  0
  160.8310  205.5350  149.3600 O   0  0  0  0  0  0  0  0  0  0  0  0
  162.3880  206.3970  146.8330 C   0  0  0  0  0  2  0  0  0  0  0  0
  163.1230  207.9740  148.5090 O   0  0  0  0  0  0  0  0  0  0  0  0
  1 10  1  0  0  0  0
  2 19  1  0  0  0  0
  3 17  2  0  0  0  0
  3  6  1  0  0  0  0
  4  1  1  0  0  0  0
  4 20  1  0  0  0  0
  5 20  2  0  0  0  0
  5 13  1  0  0  0  0
  6 21  2  0  0  0  0
  7 22  1  0  0  0  0
  7  1  2  0  0  0  0
  8  5  1  0  0  0  0
  9 22  1  0  0  0  0
 10 19  2  0  0  0  0
 11  4  2  0  0  0  0
 12 24  1  0  0  0  0
 12 17  1  0  0  0  0
 14 23  1  0  0  0  0
 14  9  2  0  0  0  0
 15 25  1  0  0  0  0
 16 11  1  0  0  0  0
 16  8  2  0  0  0  0
 17 14  1  0  0  0  0
 18 11  1  0  0  0  0
 21  9  1  0  0  0  0
 22  2  2  0  0  0  0
 23  7  1  0  0  0  0
 24 15  1  0  0  0  0
 25 18  1  0  0  0  0
M  END
>  <MODEL>
1

>  <REMARK>
 VINA RESULT:      -8.6      0.000      0.000
  Name = 
  0 active torsions:
  status: ('A' for Active; 'I' for Inactive)
                            x       y       z     vdW  Elec       q    Type
                         _______ _______ _______ _____ _____    ______ ____

>  <TORSDO>
F 0

$$$$
=
 OpenBabel11072411373D

 25 29  0  0  0  0  0  0  0  0999 V2000
  160.9460  207.7450  152.6090 C   0  0  0  0  0  0  0  0  0  0  0  0
  161.2340  205.1350  153.5640 N   0  0  0  0  0  0  0  0  0  0  0  0
  161.0840  203.5000  148.6040 C   0  0  0  0  0  3  0  0  0  0  0  0
  160.8920  209.1420  152.1190 C   0  0  0  0  0  0  0  0  0  0  0  0
  160.0220  211.3910  152.4460 C   0  0  0  0  0  0  0  0  0  0  0  0
  161.2800  202.6580  149.7230 C   0  0  0  0  0  3  0  0  0  0  0  0
  160.8650  206.6490  151.7560 C   0  0  0  0  0  0  0  0  0  0  0  0
  160.7600  211.8450  151.3520 C   0  0  0  0  0  3  0  0  0  0  0  0
  161.0190  204.5410  151.1680 C   0  0  0  0  0  0  0  0  0  0  0  0
  161.1210  207.4850  153.9410 N   0  0  0  0  0  0  0  0  0  0  0  0
  161.6400  209.6040  151.0010 C   0  0  0  0  0  0  0  0  0  0  0  0
  160.6000  205.9560  147.3610 S   0  0  0  0  0  0  0  0  0  0  0  0
  159.2420  212.2530  153.1410 F   0  0  0  0  0  0  0  0  0  0  0  0
  160.8190  205.3680  150.0800 C   0  0  0  0  0  0  0  0  0  0  0  0
  161.6050  208.3010  148.2950 C   0  0  0  0  0  2  0  0  0  0  0  0
  161.5700  210.9580  150.6420 C   0  0  0  0  0  3  0  0  0  0  0  0
  160.8450  204.8770  148.7770 C   0  0  0  0  0  0  0  0  0  0  0  0
  162.6090  208.7110  150.2660 C   0  0  0  0  0  2  0  0  0  0  0  0
  161.2610  206.2050  154.4170 C   0  0  0  0  0  3  0  0  0  0  0  0
  160.0970  210.0510  152.8310 C   0  0  0  0  0  3  0  0  0  0  0  0
  161.2550  203.1770  151.0320 C   0  0  0  0  0  3  0  0  0  0  0  0
  161.0290  205.3840  152.2500 C   0  0  0  0  0  0  0  0  0  0  0  0
  160.7020  206.6260  150.4530 O   0  0  0  0  0  0  0  0  0  0  0  0
  162.0700  206.9780  147.7040 C   0  0  0  0  0  2  0  0  0  0  0  0
  162.6670  208.9960  148.8890 O   0  0  0  0  0  0  0  0  0  0  0  0
  1 10  1  0  0  0  0
  2 19  1  0  0  0  0
  3 17  2  0  0  0  0
  3  6  1  0  0  0  0
  4  1  1  0  0  0  0
  4 20  1  0  0  0  0
  5 20  2  0  0  0  0
  5 13  1  0  0  0  0
  6 21  2  0  0  0  0
  7 22  1  0  0  0  0
  7  1  2  0  0  0  0
  8  5  1  0  0  0  0
  9 22  1  0  0  0  0
 10 19  2  0  0  0  0
 11  4  2  0  0  0  0
 12 24  1  0  0  0  0
 12 17  1  0  0  0  0
 14 23  1  0  0  0  0
 14  9  2  0  0  0  0
 15 25  1  0  0  0  0
 16 11  1  0  0  0  0
 16  8  2  0  0  0  0
 17 14  1  0  0  0  0
 18 11  1  0  0  0  0
 21  9  1  0  0  0  0
 22  2  2  0  0  0  0
 23  7  1  0  0  0  0
 24 15  1  0  0  0  0
 25 18  1  0  0  0  0
M  END
>  <MODEL>
2

>  <REMARK>
 VINA RESULT:      -7.8      1.236      1.816
  Name = 
  0 active torsions:
  status: ('A' for Active; 'I' for Inactive)
                            x       y       z     vdW  Elec       q    Type
                         _______ _______ _______ _____ _____    ______ ____

>  <TORSDO>
F 0

$$$$
=
 OpenBabel11072411373D

 25 29  0  0  0  0  0  0  0  0999 V2000
  161.1410  204.3060  151.6740 C   0  0  0  0  0  0  0  0  0  0  0  0
  161.2460  201.8180  150.4060 N   0  0  0  0  0  0  0  0  0  0  0  0
  161.1120  204.3480  145.8370 C   0  0  0  0  0  3  0  0  0  0  0  0
  161.1850  205.6150  152.3640 C   0  0  0  0  0  0  0  0  0  0  0  0
  160.4480  206.9530  154.2580 C   0  0  0  0  0  0  0  0  0  0  0  0
  161.2290  202.9460  145.9760 C   0  0  0  0  0  3  0  0  0  0  0  0
  161.0140  204.1900  150.2930 C   0  0  0  0  0  0  0  0  0  0  0  0
  161.2380  208.0190  153.8240 C   0  0  0  0  0  3  0  0  0  0  0  0
  161.0510  203.1810  148.3460 C   0  0  0  0  0  0  0  0  0  0  0  0
  161.2690  203.1440  152.3860 N   0  0  0  0  0  0  0  0  0  0  0  0
  161.9860  206.7030  151.9200 C   0  0  0  0  0  0  0  0  0  0  0  0
  160.8090  206.9530  146.8020 S   0  0  0  0  0  0  0  0  0  0  0  0
  159.7070  207.0760  155.3850 F   0  0  0  0  0  0  0  0  0  0  0  0
  160.9280  204.5510  148.2160 C   0  0  0  0  0  0  0  0  0  0  0  0
  161.9350  207.8020  149.1250 C   0  0  0  0  0  2  0  0  0  0  0  0
  162.0090  207.8890  152.6680 C   0  0  0  0  0  3  0  0  0  0  0  0
  160.9550  205.1700  146.9690 C   0  0  0  0  0  0  0  0  0  0  0  0
  162.9150  206.5780  150.7370 C   0  0  0  0  0  2  0  0  0  0  0  0
  161.3190  201.9180  151.7680 C   0  0  0  0  0  3  0  0  0  0  0  0
  160.4320  205.7580  153.5380 C   0  0  0  0  0  3  0  0  0  0  0  0
  161.2060  202.3410  147.2480 C   0  0  0  0  0  3  0  0  0  0  0  0
  161.0880  202.9610  149.6990 C   0  0  0  0  0  0  0  0  0  0  0  0
  160.8800  205.1390  149.3940 O   0  0  0  0  0  0  0  0  0  0  0  0
  162.3310  207.3100  147.7400 C   0  0  0  0  0  2  0  0  0  0  0  0
  163.0230  207.7760  150.0070 O   0  0  0  0  0  0  0  0  0  0  0  0
  1  4  1  0  0  0  0
  1 10  1  0  0  0  0
  2 19  1  0  0  0  0
  3  6  2  0  0  0  0
  3 17  1  0  0  0  0
  4 20  1  0  0  0  0
  5 13  1  0  0  0  0
  6 21  1  0  0  0  0
  7  1  2  0  0  0  0
  8  5  1  0  0  0  0
  9 22  1  0  0  0  0
 11  4  2  0  0  0  0
 11 16  1  0  0  0  0
 12 17  1  0  0  0  0
 12 24  1  0  0  0  0
 14  9  1  0  0  0  0
 14 23  1  0  0  0  0
 15 25  1  0  0  0  0
 16  8  2  0  0  0  0
 17 14  2  0  0  0  0
 18 11  1  0  0  0  0
 19 10  2  0  0  0  0
 20  5  2  0  0  0  0
 21  9  2  0  0  0  0
 22  7  1  0  0  0  0
 22  2  2  0  0  0  0
 23  7  1  0  0  0  0
 24 15  1  0  0  0  0
 25 18  1  0  0  0  0
M  END
>  <MODEL>
3

>  <REMARK>
 VINA RESULT:      -7.5      1.573      2.049
  Name = 
  0 active torsions:
  status: ('A' for Active; 'I' for Inactive)
                            x       y       z     vdW  Elec       q    Type
                         _______ _______ _______ _____ _____    ______ ____

>  <TORSDO>
F 0

$$$$
=
 OpenBabel11072411373D

 25 29  0  0  0  0  0  0  0  0999 V2000
  161.3590  204.6850  150.5010 C   0  0  0  0  0  0  0  0  0  0  0  0
  161.3900  201.9050  150.7880 N   0  0  0  0  0  0  0  0  0  0  0  0
  160.8310  201.5490  145.6060 C   0  0  0  0  0  3  0  0  0  0  0  0
  161.4420  206.1570  150.3600 C   0  0  0  0  0  0  0  0  0  0  0  0
  160.8510  208.3340  151.2720 C   0  0  0  0  0  0  0  0  0  0  0  0
  160.9800  200.4440  146.4760 C   0  0  0  0  0  3  0  0  0  0  0  0
  161.1150  203.8420  149.4210 C   0  0  0  0  0  0  0  0  0  0  0  0
  161.5850  208.9640  150.2670 C   0  0  0  0  0  3  0  0  0  0  0  0
  161.0010  201.9360  148.3410 C   0  0  0  0  0  0  0  0  0  0  0  0
  161.5630  204.0930  151.7180 N   0  0  0  0  0  0  0  0  0  0  0  0
  162.1870  206.8000  149.3340 C   0  0  0  0  0  0  0  0  0  0  0  0
  160.5740  204.2680  145.0170 S   0  0  0  0  0  0  0  0  0  0  0  0
  160.2060  209.0750  152.2050 F   0  0  0  0  0  0  0  0  0  0  0  0
  160.8480  203.0180  147.4970 C   0  0  0  0  0  0  0  0  0  0  0  0
  161.8820  206.2040  146.4060 C   0  0  0  0  0  2  0  0  0  0  0  0
  162.2560  208.2000  149.3110 C   0  0  0  0  0  3  0  0  0  0  0  0
  160.7590  202.8590  146.1160 C   0  0  0  0  0  0  0  0  0  0  0  0
  163.0130  206.0200  148.3410 C   0  0  0  0  0  2  0  0  0  0  0  0
  161.5780  202.7280  151.8660 C   0  0  0  0  0  3  0  0  0  0  0  0
  160.7900  206.9400  151.3220 C   0  0  0  0  0  3  0  0  0  0  0  0
  161.0740  200.6290  147.8690 C   0  0  0  0  0  3  0  0  0  0  0  0
  161.1560  202.4860  149.5880 C   0  0  0  0  0  0  0  0  0  0  0  0
  160.8920  204.1530  148.1640 O   0  0  0  0  0  0  0  0  0  0  0  0
  162.1660  205.0250  145.4860 C   0  0  0  0  0  2  0  0  0  0  0  0
  163.0420  206.6240  147.0700 O   0  0  0  0  0  0  0  0  0  0  0  0
  1 10  1  0  0  0  0
  2 19  1  0  0  0  0
  3 17  2  0  0  0  0
  3  6  1  0  0  0  0
  4  1  1  0  0  0  0
  4 20  1  0  0  0  0
  5 20  2  0  0  0  0
  5 13  1  0  0  0  0
  6 21  2  0  0  0  0
  7 22  1  0  0  0  0
  7  1  2  0  0  0  0
  8  5  1  0  0  0  0
  9 22  1  0  0  0  0
 10 19  2  0  0  0  0
 11  4  2  0  0  0  0
 12 24  1  0  0  0  0
 12 17  1  0  0  0  0
 14 23  1  0  0  0  0
 14  9  2  0  0  0  0
 15 25  1  0  0  0  0
 16 11  1  0  0  0  0
 16  8  2  0  0  0  0
 17 14  1  0  0  0  0
 18 11  1  0  0  0  0
 21  9  1  0  0  0  0
 22  2  2  0  0  0  0
 23  7  1  0  0  0  0
 24 15  1  0  0  0  0
 25 18  1  0  0  0  0
M  END
>  <MODEL>
4

>  <REMARK>
 VINA RESULT:      -7.0      1.349      1.869
  Name = 
  0 active torsions:
  status: ('A' for Active; 'I' for Inactive)
                            x       y       z     vdW  Elec       q    Type
                         _______ _______ _______ _____ _____    ______ ____

>  <TORSDO>
F 0

$$$$
=
 OpenBabel11072411373D

 25 29  0  0  0  0  0  0  0  0999 V2000
  161.4820  205.1930  148.7950 C   0  0  0  0  0  0  0  0  0  0  0  0
  162.3310  207.2740  147.1360 N   0  0  0  0  0  0  0  0  0  0  0  0
  161.5250  210.5410  151.1320 C   0  0  0  0  0  3  0  0  0  0  0  0
  161.1290  204.0640  149.6860 C   0  0  0  0  0  0  0  0  0  0  0  0
  160.0040  201.9180  149.9200 C   0  0  0  0  0  0  0  0  0  0  0  0
  162.0470  210.9230  149.8750 C   0  0  0  0  0  3  0  0  0  0  0  0
  161.4130  206.5200  149.2060 C   0  0  0  0  0  0  0  0  0  0  0  0
  160.4520  201.8170  151.2370 C   0  0  0  0  0  3  0  0  0  0  0  0
  161.7740  208.6810  149.0980 C   0  0  0  0  0  0  0  0  0  0  0  0
  161.9350  204.9570  147.5260 N   0  0  0  0  0  0  0  0  0  0  0  0
  161.5810  203.9610  151.0310 C   0  0  0  0  0  0  0  0  0  0  0  0
  160.4560  208.7200  152.9620 S   0  0  0  0  0  0  0  0  0  0  0  0
  159.2430  200.9330  149.3860 F   0  0  0  0  0  0  0  0  0  0  0  0
  161.2560  208.3040  150.3220 C   0  0  0  0  0  0  0  0  0  0  0  0
  161.2490  206.1240  153.0880 C   0  0  0  0  0  2  0  0  0  0  0  0
  161.2440  202.8280  151.7840 C   0  0  0  0  0  3  0  0  0  0  0  0
  161.1170  209.2140  151.3670 C   0  0  0  0  0  0  0  0  0  0  0  0
  162.5230  204.9750  151.6340 C   0  0  0  0  0  2  0  0  0  0  0  0
  162.3520  205.9760  146.7050 C   0  0  0  0  0  3  0  0  0  0  0  0
  160.3500  203.0290  149.1480 C   0  0  0  0  0  3  0  0  0  0  0  0
  162.1840  209.9840  148.8340 C   0  0  0  0  0  3  0  0  0  0  0  0
  161.8540  207.5160  148.3790 C   0  0  0  0  0  0  0  0  0  0  0  0
  161.0200  207.0090  150.3600 O   0  0  0  0  0  0  0  0  0  0  0  0
  161.7930  207.5290  153.3070 C   0  0  0  0  0  2  0  0  0  0  0  0
  162.2850  205.1830  153.0050 O   0  0  0  0  0  0  0  0  0  0  0  0
  1  7  1  0  0  0  0
  1  4  1  0  0  0  0
  2 22  1  0  0  0  0
  3 17  1  0  0  0  0
  4 11  1  0  0  0  0
  5  8  2  0  0  0  0
  6  3  2  0  0  0  0
  7 23  1  0  0  0  0
  8 16  1  0  0  0  0
  9 14  1  0  0  0  0
 10  1  2  0  0  0  0
 11 18  1  0  0  0  0
 11 16  2  0  0  0  0
 12 24  1  0  0  0  0
 13  5  1  0  0  0  0
 14 23  1  0  0  0  0
 14 17  2  0  0  0  0
 15 24  1  0  0  0  0
 17 12  1  0  0  0  0
 18 25  1  0  0  0  0
 19  2  2  0  0  0  0
 19 10  1  0  0  0  0
 20  4  2  0  0  0  0
 20  5  1  0  0  0  0
 21  9  2  0  0  0  0
 21  6  1  0  0  0  0
 22  9  1  0  0  0  0
 22  7  2  0  0  0  0
 25 15  1  0  0  0  0
M  END
>  <MODEL>
5

>  <REMARK>
 VINA RESULT:      -6.8      3.332      6.356
  Name = 
  0 active torsions:
  status: ('A' for Active; 'I' for Inactive)
                            x       y       z     vdW  Elec       q    Type
                         _______ _______ _______ _____ _____    ______ ____

>  <TORSDO>
F 0

$$$$
=
 OpenBabel11072411373D

 25 29  0  0  0  0  0  0  0  0999 V2000
  161.1230  206.0410  147.9820 C   0  0  0  0  0  0  0  0  0  0  0  0
  160.5280  205.2590  145.3660 N   0  0  0  0  0  0  0  0  0  0  0  0
  161.1450  200.3040  146.9050 C   0  0  0  0  0  3  0  0  0  0  0  0
  161.3390  206.4720  149.3820 C   0  0  0  0  0  0  0  0  0  0  0  0
  162.3290  208.1070  150.8890 C   0  0  0  0  0  0  0  0  0  0  0  0
  160.7550  200.6990  145.6050 C   0  0  0  0  0  3  0  0  0  0  0  0
  161.2220  204.7120  147.5830 C   0  0  0  0  0  0  0  0  0  0  0  0
  161.7630  207.4540  151.9840 C   0  0  0  0  0  3  0  0  0  0  0  0
  160.9820  202.9880  146.2490 C   0  0  0  0  0  0  0  0  0  0  0  0
  160.7710  206.9530  147.0240 N   0  0  0  0  0  0  0  0  0  0  0  0
  160.7660  205.8040  150.5000 C   0  0  0  0  0  0  0  0  0  0  0  0
  161.9570  200.7750  149.5380 S   0  0  0  0  0  0  0  0  0  0  0  0
  163.0830  209.2160  151.0780 F   0  0  0  0  0  0  0  0  0  0  0  0
  161.3710  202.6080  147.5190 C   0  0  0  0  0  0  0  0  0  0  0  0
  161.0260  202.8570  151.0150 C   0  0  0  0  0  2  0  0  0  0  0  0
  160.9790  206.3150  151.7880 C   0  0  0  0  0  3  0  0  0  0  0  0
  161.4640  201.2670  147.8820 C   0  0  0  0  0  0  0  0  0  0  0  0
  159.8280  204.6340  150.3340 C   0  0  0  0  0  2  0  0  0  0  0  0
  160.4800  206.5750  145.7370 C   0  0  0  0  0  3  0  0  0  0  0  0
  162.1090  207.6240  149.5980 C   0  0  0  0  0  3  0  0  0  0  0  0
  160.6620  202.0620  145.2610 C   0  0  0  0  0  3  0  0  0  0  0  0
  160.9060  204.3560  146.3020 C   0  0  0  0  0  0  0  0  0  0  0  0
  161.5370  203.6560  148.2990 O   0  0  0  0  0  0  0  0  0  0  0  0
  160.5370  201.5760  150.3540 C   0  0  0  0  0  2  0  0  0  0  0  0
  159.9560  203.6890  151.3690 O   0  0  0  0  0  0  0  0  0  0  0  0
  1  4  1  0  0  0  0
  2 19  2  0  0  0  0
  2 22  1  0  0  0  0
  3 17  1  0  0  0  0
  4 20  2  0  0  0  0
  4 11  1  0  0  0  0
  5 13  1  0  0  0  0
  5  8  2  0  0  0  0
  6  3  2  0  0  0  0
  7  1  1  0  0  0  0
  7 23  1  0  0  0  0
  9 22  1  0  0  0  0
  9 14  1  0  0  0  0
 10  1  2  0  0  0  0
 11 16  2  0  0  0  0
 12 24  1  0  0  0  0
 14 17  2  0  0  0  0
 14 23  1  0  0  0  0
 15 25  1  0  0  0  0
 16  8  1  0  0  0  0
 17 12  1  0  0  0  0
 18 11  1  0  0  0  0
 18 25  1  0  0  0  0
 19 10  1  0  0  0  0
 20  5  1  0  0  0  0
 21  6  1  0  0  0  0
 21  9  2  0  0  0  0
 22  7  2  0  0  0  0
 24 15  1  0  0  0  0
M  END
>  <MODEL>
6

>  <REMARK>
 VINA RESULT:      -6.3      2.803      4.403
  Name = 
  0 active torsions:
  status: ('A' for Active; 'I' for Inactive)
                            x       y       z     vdW  Elec       q    Type
                         _______ _______ _______ _____ _____    ______ ____

>  <TORSDO>
F 0

$$$$
=
 OpenBabel11072411373D

 25 29  0  0  0  0  0  0  0  0999 V2000
  161.4660  207.8610  150.2620 C   0  0  0  0  0  0  0  0  0  0  0  0
  161.7880  210.6350  150.1530 N   0  0  0  0  0  0  0  0  0  0  0  0
  159.9430  210.8540  155.0370 C   0  0  0  0  0  3  0  0  0  0  0  0
  161.3950  206.3830  150.3330 C   0  0  0  0  0  0  0  0  0  0  0  0
  160.8900  204.3030  149.1770 C   0  0  0  0  0  0  0  0  0  0  0  0
  160.3960  211.9710  154.2980 C   0  0  0  0  0  3  0  0  0  0  0  0
  161.0190  208.6830  151.2920 C   0  0  0  0  0  0  0  0  0  0  0  0
  161.2890  203.5730  150.2970 C   0  0  0  0  0  3  0  0  0  0  0  0
  160.7810  210.5510  152.4160 C   0  0  0  0  0  0  0  0  0  0  0  0
  162.0220  208.4760  149.1730 N   0  0  0  0  0  0  0  0  0  0  0  0
  161.7980  205.6390  151.4760 C   0  0  0  0  0  0  0  0  0  0  0  0
  159.3310  208.1490  155.3820 S   0  0  0  0  0  0  0  0  0  0  0  0
  160.4510  203.6580  148.0700 F   0  0  0  0  0  0  0  0  0  0  0  0
  160.3310  209.4570  153.1300 C   0  0  0  0  0  0  0  0  0  0  0  0
  160.7970  206.1540  154.2610 C   0  0  0  0  0  2  0  0  0  0  0  0
  161.7490  204.2390  151.4350 C   0  0  0  0  0  3  0  0  0  0  0  0
  159.9020  209.5740  154.4500 C   0  0  0  0  0  0  0  0  0  0  0  0
  162.3990  206.3050  152.6900 C   0  0  0  0  0  2  0  0  0  0  0  0
  162.1810  209.8380  149.1130 C   0  0  0  0  0  3  0  0  0  0  0  0
  160.9530  205.6970  149.1940 C   0  0  0  0  0  3  0  0  0  0  0  0
  160.8310  211.8280  152.9660 C   0  0  0  0  0  3  0  0  0  0  0  0
  161.2080  210.0350  151.2190 C   0  0  0  0  0  0  0  0  0  0  0  0
  160.4560  208.3480  152.4310 O   0  0  0  0  0  0  0  0  0  0  0  0
  160.9260  207.2690  155.2890 C   0  0  0  0  0  2  0  0  0  0  0  0
  162.0520  205.6550  153.8890 O   0  0  0  0  0  0  0  0  0  0  0  0
  1  4  1  0  0  0  0
  1  7  1  0  0  0  0
  2 22  1  0  0  0  0
  4 11  1  0  0  0  0
  5 20  1  0  0  0  0
  5  8  2  0  0  0  0
  6  3  2  0  0  0  0
  7 23  1  0  0  0  0
  8 16  1  0  0  0  0
  9 21  2  0  0  0  0
  9 14  1  0  0  0  0
 10  1  2  0  0  0  0
 11 18  1  0  0  0  0
 13  5  1  0  0  0  0
 14 17  2  0  0  0  0
 15 24  1  0  0  0  0
 16 11  2  0  0  0  0
 17  3  1  0  0  0  0
 17 12  1  0  0  0  0
 18 25  1  0  0  0  0
 19 10  1  0  0  0  0
 19  2  2  0  0  0  0
 20  4  2  0  0  0  0
 21  6  1  0  0  0  0
 22  7  2  0  0  0  0
 22  9  1  0  0  0  0
 23 14  1  0  0  0  0
 24 12  1  0  0  0  0
 25 15  1  0  0  0  0
M  END
>  <MODEL>
7

>  <REMARK>
 VINA RESULT:      -6.3      3.589      7.103
  Name = 
  0 active torsions:
  status: ('A' for Active; 'I' for Inactive)
                            x       y       z     vdW  Elec       q    Type
                         _______ _______ _______ _____ _____    ______ ____

>  <TORSDO>
F 0

$$$$
=
 OpenBabel11072411373D

 25 29  0  0  0  0  0  0  0  0999 V2000
  161.1230  209.3410  151.6360 C   0  0  0  0  0  0  0  0  0  0  0  0
  161.2910  211.8430  150.4030 N   0  0  0  0  0  0  0  0  0  0  0  0
  157.9870  213.6440  154.0270 C   0  0  0  0  0  3  0  0  0  0  0  0
  161.1250  208.0330  152.3300 C   0  0  0  0  0  0  0  0  0  0  0  0
  161.1410  205.6080  152.1230 C   0  0  0  0  0  0  0  0  0  0  0  0
  158.5810  214.4350  153.0170 C   0  0  0  0  0  3  0  0  0  0  0  0
  160.3240  210.4040  152.0430 C   0  0  0  0  0  0  0  0  0  0  0  0
  161.2100  205.4810  153.5110 C   0  0  0  0  0  3  0  0  0  0  0  0
  159.6270  212.4820  152.1250 C   0  0  0  0  0  0  0  0  0  0  0  0
  161.9560  209.5610  150.5720 N   0  0  0  0  0  0  0  0  0  0  0  0
  161.1910  207.9020  153.7450 C   0  0  0  0  0  0  0  0  0  0  0  0
  157.4660  211.2430  155.3590 S   0  0  0  0  0  0  0  0  0  0  0  0
  161.1150  204.5020  151.3430 F   0  0  0  0  0  0  0  0  0  0  0  0
  159.0430  211.7030  153.1040 C   0  0  0  0  0  0  0  0  0  0  0  0
  159.3310  209.2890  155.6530 C   0  0  0  0  0  2  0  0  0  0  0  0
  161.2440  206.6220  154.3140 C   0  0  0  0  0  3  0  0  0  0  0  0
  158.2130  212.2550  154.0770 C   0  0  0  0  0  0  0  0  0  0  0  0
  161.3350  209.1010  154.6500 C   0  0  0  0  0  2  0  0  0  0  0  0
  162.0410  210.7880  149.9610 C   0  0  0  0  0  3  0  0  0  0  0  0
  161.1090  206.8760  151.5390 C   0  0  0  0  0  3  0  0  0  0  0  0
  159.4220  213.8560  152.0470 C   0  0  0  0  0  3  0  0  0  0  0  0
  160.4420  211.6220  151.4340 C   0  0  0  0  0  0  0  0  0  0  0  0
  159.4510  210.4530  153.0250 O   0  0  0  0  0  0  0  0  0  0  0  0
  159.0590  210.7240  156.0790 C   0  0  0  0  0  2  0  0  0  0  0  0
  160.6680  208.9340  155.8770 O   0  0  0  0  0  0  0  0  0  0  0  0
  1  7  1  0  0  0  0
  1  4  1  0  0  0  0
  2 22  1  0  0  0  0
  3 17  1  0  0  0  0
  4 11  1  0  0  0  0
  5  8  2  0  0  0  0
  6  3  2  0  0  0  0
  7 23  1  0  0  0  0
  8 16  1  0  0  0  0
  9 14  1  0  0  0  0
 10  1  2  0  0  0  0
 11 16  2  0  0  0  0
 11 18  1  0  0  0  0
 12 24  1  0  0  0  0
 13  5  1  0  0  0  0
 14 17  2  0  0  0  0
 15 25  1  0  0  0  0
 15 24  1  0  0  0  0
 17 12  1  0  0  0  0
 18 25  1  0  0  0  0
 19  2  2  0  0  0  0
 19 10  1  0  0  0  0
 20  5  1  0  0  0  0
 20  4  2  0  0  0  0
 21  9  2  0  0  0  0
 21  6  1  0  0  0  0
 22  7  2  0  0  0  0
 22  9  1  0  0  0  0
 23 14  1  0  0  0  0
M  END
>  <MODEL>
8

>  <REMARK>
 VINA RESULT:      -6.3      4.556      8.076
  Name = 
  0 active torsions:
  status: ('A' for Active; 'I' for Inactive)
                            x       y       z     vdW  Elec       q    Type
                         _______ _______ _______ _____ _____    ______ ____

>  <TORSDO>
F 0

$$$$
=
 OpenBabel11072411373D

 25 29  0  0  0  0  0  0  0  0999 V2000
  161.4240  204.1840  149.1540 C   0  0  0  0  0  0  0  0  0  0  0  0
  160.5170  203.1420  151.5830 N   0  0  0  0  0  0  0  0  0  0  0  0
  161.5570  207.7810  153.7490 C   0  0  0  0  0  3  0  0  0  0  0  0
  161.8080  204.7460  147.8380 C   0  0  0  0  0  0  0  0  0  0  0  0
  162.9180  204.3790  145.7050 C   0  0  0  0  0  0  0  0  0  0  0  0
  160.9780  206.6870  154.4320 C   0  0  0  0  0  3  0  0  0  0  0  0
  161.5280  204.9090  150.3370 C   0  0  0  0  0  0  0  0  0  0  0  0
  162.5350  205.6500  145.2760 C   0  0  0  0  0  3  0  0  0  0  0  0
  161.1870  205.3620  152.4560 C   0  0  0  0  0  0  0  0  0  0  0  0
  160.9060  202.9200  149.2430 N   0  0  0  0  0  0  0  0  0  0  0  0
  161.4220  206.0430  147.4030 C   0  0  0  0  0  0  0  0  0  0  0  0
  162.6950  209.0420  151.5300 S   0  0  0  0  0  0  0  0  0  0  0  0
  163.6410  203.5780  144.8850 F   0  0  0  0  0  0  0  0  0  0  0  0
  161.7610  206.4250  151.7860 C   0  0  0  0  0  0  0  0  0  0  0  0
  161.8800  208.5560  148.9830 C   0  0  0  0  0  2  0  0  0  0  0  0
  161.7840  206.4720  146.1180 C   0  0  0  0  0  3  0  0  0  0  0  0
  161.9610  207.6560  152.4060 C   0  0  0  0  0  0  0  0  0  0  0  0
  160.5230  206.9270  148.2320 C   0  0  0  0  0  2  0  0  0  0  0  0
  160.4600  202.4020  150.4330 C   0  0  0  0  0  3  0  0  0  0  0  0
  162.5470  203.9280  146.9720 C   0  0  0  0  0  3  0  0  0  0  0  0
  160.7780  205.4530  153.7830 C   0  0  0  0  0  3  0  0  0  0  0  0
  161.0580  204.3800  151.5070 C   0  0  0  0  0  0  0  0  0  0  0  0
  161.9840  206.1270  150.5220 O   0  0  0  0  0  0  0  0  0  0  0  0
  161.3640  209.1460  150.2880 C   0  0  0  0  0  2  0  0  0  0  0  0
  160.8310  208.2930  148.0920 O   0  0  0  0  0  0  0  0  0  0  0  0
  1 10  2  0  0  0  0
  1  7  1  0  0  0  0
  3  6  1  0  0  0  0
  4  1  1  0  0  0  0
  5 20  1  0  0  0  0
  7 23  1  0  0  0  0
  7 22  2  0  0  0  0
  8  5  2  0  0  0  0
  8 16  1  0  0  0  0
  9 21  1  0  0  0  0
 10 19  1  0  0  0  0
 11  4  1  0  0  0  0
 11 18  1  0  0  0  0
 12 17  1  0  0  0  0
 13  5  1  0  0  0  0
 14 17  1  0  0  0  0
 14  9  2  0  0  0  0
 15 24  1  0  0  0  0
 16 11  2  0  0  0  0
 17  3  2  0  0  0  0
 19  2  2  0  0  0  0
 20  4  2  0  0  0  0
 21  6  2  0  0  0  0
 22  2  1  0  0  0  0
 22  9  1  0  0  0  0
 23 14  1  0  0  0  0
 24 12  1  0  0  0  0
 25 18  1  0  0  0  0
 25 15  1  0  0  0  0
M  END
>  <MODEL>
9

>  <REMARK>
 VINA RESULT:      -6.2      3.067      5.535
  Name = 
  0 active torsions:
  status: ('A' for Active; 'I' for Inactive)
                            x       y       z     vdW  Elec       q    Type
                         _______ _______ _______ _____ _____    ______ ____

>  <TORSDO>
F 0

$$$$
