=
 OpenBabel11072413163D

 27 31  0  0  1  0  0  0  0  0999 V2000
  160.8290  200.8830  149.3750 N   0  0  0  0  0  0  0  0  0  0  0  0
  161.1840  202.8130  147.9840 C   0  0  0  0  0  0  0  0  0  0  0  0
  163.3460  204.6380  146.6830 O   0  0  0  0  0  1  0  0  0  0  0  0
  160.8280  201.6480  150.5100 C   0  0  0  0  0  3  0  0  0  0  0  0
  160.9910  201.4300  148.1270 C   0  0  0  0  0  3  0  0  0  0  0  0
  161.1750  203.5850  149.1300 C   0  0  0  0  0  0  0  0  0  0  0  0
  161.8960  207.0880  147.9170 C   0  0  0  0  0  1  0  0  0  0  0  0
  161.2520  203.4900  146.6460 C   0  0  0  0  0  2  0  0  0  0  0  0
  160.9990  203.0220  150.3740 C   0  0  0  0  0  0  0  0  0  0  0  0
  161.3480  204.9580  149.1270 C   0  0  0  0  0  0  0  0  0  0  0  0
  161.9660  204.8660  146.6840 C   0  0  1  0  0  0  0  0  0  0  0  0
  161.2900  205.4920  150.4210 C   0  0  0  0  0  0  0  0  0  0  0  0
  161.0400  204.2330  151.5410 S   0  0  0  0  0  0  0  0  0  0  0  0
  161.6170  205.6550  147.8950 N   0  0  0  0  0  0  0  0  0  0  0  0
  160.1690  206.1090  145.2290 C   0  0  0  0  0  1  0  0  0  0  0  0
  162.3920  205.8170  144.5550 O   0  0  0  0  0  0  0  0  0  0  0  0
  161.5650  205.6150  145.4300 C   0  0  0  0  0  0  0  0  0  0  0  0
  161.4610  206.8690  150.7600 N   0  0  0  0  0  2  0  0  0  0  0  0
  160.3190  209.8080  152.9090 C   0  0  0  0  0  2  0  0  0  0  0  0
  161.2430  208.9170  152.1060 C   0  0  2  0  0  0  0  0  0  0  0  0
  160.7750  207.4870  151.8870 C   0  0  2  0  0  3  0  0  0  0  0  0
  160.3920  209.3340  154.3460 C   0  0  0  0  0  2  0  0  0  0  0  0
  161.1260  208.0030  154.3480 C   0  0  1  0  0  3  0  0  0  0  0  0
  160.2350  206.9610  154.6210 O   0  0  0  0  0  1  0  0  0  0  0  0
  161.7880  207.8160  152.9870 C   0  0  2  0  0  3  0  0  0  0  0  0
  162.2750  209.5350  151.1690 C   0  0  0  0  0  2  0  0  0  0  0  0
  161.7410  210.6610  150.5390 O   0  0  0  0  0  1  0  0  0  0  0  0
  1  4  1  0  0  0  0
  2  5  1  0  0  0  0
  2  6  2  0  0  0  0
  5  1  2  0  0  0  0
  6  9  1  0  0  0  0
  8 11  1  0  0  0  0
  8  2  1  0  0  0  0
  9  4  2  0  0  0  0
  9 13  1  0  0  0  0
 10  6  1  0  0  0  0
 10 12  2  0  0  0  0
 11  3  1  6  0  0  0
 11 14  1  0  0  0  0
 12 18  1  0  0  0  0
 12 13  1  0  0  0  0
 14  7  1  0  0  0  0
 14 10  1  0  0  0  0
 15 17  1  0  0  0  0
 16 17  2  0  0  0  0
 17 11  1  0  0  0  0
 19 22  1  0  0  0  0
 20 26  1  6  0  0  0
 20 19  1  0  0  0  0
 20 25  1  0  0  0  0
 21 18  1  6  0  0  0
 21 20  1  0  0  0  0
 21 25  1  0  0  0  0
 22 23  1  0  0  0  0
 23 24  1  6  0  0  0
 25 23  1  0  0  0  0
 27 26  1  0  0  0  0
M  END
>  <MODEL>
1

>  <REMARK>
 VINA RESULT:      -9.2      0.000      0.000
  Name = 
  4 active torsions:
  status: ('A' for Active; 'I' for Inactive)
    1  A    between atoms: C_4  and  C_15
    2  A    between atoms: C_7  and  N_23
    3  A    between atoms: C_19  and  C_27
    4  A    between atoms: C_20  and  N_23
                            x       y       z     vdW  Elec       q    Type
                         _______ _______ _______ _____ _____    ______ ____

>  <TORSDO>
F 4

$$$$
