=
 OpenBabel11072415043D

 64 68  0  0  1  0  0  0  0  0999 V2000
  161.3790  206.0600  151.0420 C   0  0  2  0  0  3  0  0  0  0  0  0
  159.2460  213.0490  151.6010 C   0  0  2  0  0  3  0  0  0  0  0  0
  160.4590  212.1630  153.5300 O   0  0  0  0  0  0  0  0  0  0  0  0
  160.2440  210.0850  157.1470 O   0  0  0  0  0  0  0  0  0  0  0  0
  161.4920  207.1270  155.8650 O   0  0  0  0  0  1  0  0  0  0  0  0
  161.7950  209.9790  155.3580 C   0  0  0  0  0  2  0  0  0  0  0  0
  161.7490  208.9160  154.2600 C   0  0  2  0  0  3  0  0  0  0  0  0
  161.2350  209.4620  152.9290 C   0  0  1  0  0  3  0  0  0  0  0  0
  161.2720  208.2540  148.1870 O   0  0  0  0  0  0  0  0  0  0  0  0
  158.1000  211.7020  153.3940 C   0  0  0  0  0  2  0  0  0  0  0  0
  159.4210  210.8610  155.1600 O   0  0  0  0  0  0  0  0  0  0  0  0
  161.5070  208.4210  151.8330 C   0  0  2  0  0  3  0  0  0  0  0  0
  161.1520  208.9660  150.4510 C   0  0  0  0  0  2  0  0  0  0  0  0
  160.5460  212.4480  152.1450 C   0  0  0  0  0  2  0  0  0  0  0  0
  158.0540  212.1550  151.9430 C   0  0  0  0  0  2  0  0  0  0  0  0
  162.6800  206.1920  153.5460 O   0  0  0  0  0  1  0  0  0  0  0  0
  161.2210  207.9110  149.3960 C   0  0  0  0  0  0  0  0  0  0  0  0
  159.4890  207.1110  152.0870 O   0  0  0  0  0  1  0  0  0  0  0  0
  161.3230  206.5450  153.5380 C   0  0  2  0  0  3  0  0  0  0  0  0
  159.4820  211.1580  153.7660 C   0  0  2  0  0  0  0  0  0  0  0  0
  160.8870  207.0320  152.1320 C   0  0  1  0  0  0  0  0  0  0  0  0
  160.4520  210.3090  155.9270 C   0  0  0  0  0  0  0  0  0  0  0  0
  161.0500  207.5960  154.6250 C   0  0  1  0  0  3  0  0  0  0  0  0
  161.1370  206.5560  149.7230 O   0  0  0  0  0  0  0  0  0  0  0  0
  159.7510  209.8570  152.9810 C   0  0  0  0  0  2  0  0  0  0  0  0
  159.4530  204.6230  150.9640 O   0  0  0  0  0  1  0  0  0  0  0  0
  160.8300  204.6310  151.1900 C   0  0  1  0  0  3  0  0  0  0  0  0
  159.8870  201.2770  151.4380 O   0  0  0  0  0  0  0  0  0  0  0  0
  161.2490  200.9770  149.1190 O   0  0  0  0  0  0  0  0  0  0  0  0
  160.7820  201.9560  150.1740 P   0  0  0  0  0  0  0  0  0  0  0  0
  161.5130  203.6030  150.2660 C   0  0  2  0  0  3  0  0  0  0  0  0
  162.2210  202.6550  150.8970 O   0  0  0  0  0  0  0  0  0  0  0  0
  162.1730  204.0720  148.9800 C   0  0  0  0  0  2  0  0  0  0  0  0
  161.1820  204.1950  147.9250 N   0  0  0  0  0  2  0  0  0  0  0  0
  162.5150  205.6010  146.6240 O   0  0  0  0  0  0  0  0  0  0  0  0
  161.4320  204.9680  146.7490 C   0  0  0  0  0  0  0  0  0  0  0  0
  160.3990  205.0640  145.6730 C   0  0  1  0  0  3  0  0  0  0  0  0
  160.3280  206.4110  145.1250 N   0  0  0  0  0  1  0  0  0  0  0  0
  160.6000  204.0250  144.5690 C   0  0  0  0  0  2  0  0  0  0  0  0
  159.9710  201.7410  144.9300 O   0  0  0  0  0  1  0  0  0  0  0  0
  159.4900  202.9810  144.5020 C   0  0  0  0  0  2  0  0  0  0  0  0
  159.3560  213.2680  150.0860 C   0  0  2  0  0  3  0  0  0  0  0  0
  160.7000  213.3960  149.7040 O   0  0  0  0  0  0  0  0  0  0  0  0
  162.8960  211.6700  149.9170 O   0  0  0  0  0  1  0  0  0  0  0  0
  162.3630  210.8620  147.8430 O   0  0  0  0  0  0  0  0  0  0  0  0
  162.0690  211.6290  148.8000 C   0  0  0  0  0  0  0  0  0  0  0  0
  160.9060  212.4670  148.7340 N   0  0  0  0  0  0  0  0  0  0  0  0
  160.1170  212.5560  147.5050 C   0  0  0  0  0  2  0  0  0  0  0  0
  158.5250  213.6130  144.9710 C   0  0  2  0  0  3  0  0  0  0  0  0
  160.8580  212.2270  142.7570 O   0  0  0  0  0  0  0  0  0  0  0  0
  160.5280  213.7420  146.6310 C   0  0  1  0  0  3  0  0  0  0  0  0
  162.9640  214.0410  146.3840 C   0  0  0  0  0  1  0  0  0  0  0  0
  161.5700  213.9470  144.2780 C   0  0  2  0  0  3  0  0  0  0  0  0
  159.1710  213.4430  143.7090 O   0  0  0  0  0  0  0  0  0  0  0  0
  161.7310  213.4440  145.7200 C   0  0  2  0  0  3  0  0  0  0  0  0
  159.3220  214.4480  145.9860 C   0  0  0  0  0  2  0  0  0  0  0  0
  160.5240  213.1470  143.5510 C   0  0  0  0  0  0  0  0  0  0  0  0
  158.1380  212.3770  145.4910 O   0  0  0  0  0  1  0  0  0  0  0  0
  162.8920  213.9460  143.5060 C   0  0  0  0  0  2  0  0  0  0  0  0
  162.6490  214.3010  142.0480 C   0  0  0  0  0  1  0  0  0  0  0  0
  158.5060  214.4470  149.5690 C   0  0  0  0  0  2  0  0  0  0  0  0
  156.2230  214.2300  150.2580 O   0  0  0  0  0  1  0  0  0  0  0  0
  157.0510  212.5810  148.7680 C   0  0  0  0  0  1  0  0  0  0  0  0
  157.0870  214.0390  149.1800 C   0  0  2  0  0  3  0  0  0  0  0  0
  1 27  1  6  0  0  0
  1 21  1  0  0  0  0
  2 42  1  6  0  0  0
  2 15  1  0  0  0  0
  2 14  1  0  0  0  0
  3 20  1  0  0  0  0
  6 22  1  0  0  0  0
  7 23  1  0  0  0  0
  7  6  1  1  0  0  0
  8 25  1  1  0  0  0
  8  7  1  0  0  0  0
  9 17  2  0  0  0  0
 10 20  1  0  0  0  0
 11 22  1  0  0  0  0
 12 13  1  6  0  0  0
 12 21  1  0  0  0  0
 12  8  1  0  0  0  0
 14  3  1  0  0  0  0
 15 10  1  0  0  0  0
 17 24  1  0  0  0  0
 17 13  1  0  0  0  0
 19 16  1  6  0  0  0
 19 23  1  0  0  0  0
 20 25  1  6  0  0  0
 20 11  1  0  0  0  0
 21 18  1  6  0  0  0
 21 19  1  0  0  0  0
 22  4  2  0  0  0  0
 23  5  1  1  0  0  0
 24  1  1  0  0  0  0
 27 26  1  6  0  0  0
 29 30  2  0  0  0  0
 30 32  1  0  0  0  0
 30 28  2  0  0  0  0
 31 33  1  6  0  0  0
 31 32  1  0  0  0  0
 31 27  1  0  0  0  0
 34 33  1  0  0  0  0
 35 36  2  0  0  0  0
 36 34  1  0  0  0  0
 37 38  1  6  0  0  0
 37 36  1  0  0  0  0
 39 37  1  0  0  0  0
 41 39  1  0  0  0  0
 41 40  1  0  0  0  0
 42 61  1  1  0  0  0
 43 42  1  0  0  0  0
 45 46  2  0  0  0  0
 46 44  1  0  0  0  0
 47 46  1  0  0  0  0
 47 43  1  0  0  0  0
 48 47  1  0  0  0  0
 49 58  1  1  0  0  0
 49 56  1  0  0  0  0
 50 57  2  0  0  0  0
 51 48  1  6  0  0  0
 53 59  1  6  0  0  0
 53 55  1  0  0  0  0
 54 49  1  0  0  0  0
 55 52  1  1  0  0  0
 55 51  1  0  0  0  0
 56 51  1  0  0  0  0
 57 54  1  0  0  0  0
 57 53  1  0  0  0  0
 60 59  1  0  0  0  0
 64 63  1  1  0  0  0
 64 61  1  0  0  0  0
 64 62  1  0  0  0  0
M  END
>  <MODEL>
1

>  <REMARK>
 VINA RESULT:      -1.5      0.000      0.000
  Name = 
  15 active torsions:
  status: ('A' for Active; 'I' for Inactive)
    1  A    between atoms: O_1  and  C_20
    2  A    between atoms: O_1  and  N_60
    3  A    between atoms: C_2  and  C_35
    4  A    between atoms: C_3  and  C_20
    5  A    between atoms: C_4  and  C_20
    6  A    between atoms: C_4  and  C_50
    7  A    between atoms: C_5  and  N_12
    8  A    between atoms: C_5  and  C_37
    9  A    between atoms: C_14  and  C_27
   10  A    between atoms: C_14  and  C_52
   11  A    between atoms: C_27  and  C_53
   12  A    between atoms: C_34  and  C_39
   13  A    between atoms: C_34  and  N_60
   14  A    between atoms: C_35  and  C_37
   15  A    between atoms: C_44  and  C_51
                            x       y       z     vdW  Elec       q    Type
                         _______ _______ _______ _____ _____    ______ ____

>  <TORSDO>
F 15

$$$$
