=
 OpenBabel11072414563D

 57 64  0  0  1  0  0  0  0  0999 V2000
  161.0670  208.8900  155.0230 C   0  0  2  0  0  3  0  0  0  0  0  0
  160.0870  209.9760  152.4910 C   0  0  0  0  0  2  0  0  0  0  0  0
  159.8210  210.7320  153.7990 C   0  0  0  0  0  2  0  0  0  0  0  0
  160.8370  208.6610  152.7570 C   0  0  2  0  0  3  0  0  0  0  0  0
  161.7720  208.8550  153.7920 O   0  0  0  0  0  0  0  0  0  0  0  0
  159.7720  209.7630  154.9730 C   0  0  2  0  0  3  0  0  0  0  0  0
  162.2330  208.3810  157.1670 O   0  0  0  0  0  1  0  0  0  0  0  0
  162.5730  210.3930  156.1270 O   0  0  0  0  0  0  0  0  0  0  0  0
  162.0030  209.2720  156.1270 C   0  0  0  0  0  0  0  0  0  0  0  0
  161.5130  208.1450  151.4880 C   0  0  1  0  0  3  0  0  0  0  0  0
  162.6770  208.8740  151.2280 O   0  0  0  0  0  1  0  0  0  0  0  0
  161.8190  206.6420  151.5910 C   0  0  1  0  0  3  0  0  0  0  0  0
  163.2980  206.3800  151.8320 C   0  0  0  0  0  1  0  0  0  0  0  0
  160.9190  205.8810  152.5730 C   0  0  0  0  0  2  0  0  0  0  0  0
  160.5430  204.4940  152.0730 C   0  0  0  0  0  2  0  0  0  0  0  0
  161.4730  204.0650  151.1160 O   0  0  0  0  0  0  0  0  0  0  0  0
  161.0740  202.3680  149.3490 C   0  0  1  0  0  3  0  0  0  0  0  0
  160.7790  203.7700  149.9230 C   0  0  2  0  0  3  0  0  0  0  0  0
  160.5950  201.3180  150.3340 C   0  0  0  0  0  1  0  0  0  0  0  0
  162.8920  204.7930  148.0210 F   0  0  0  0  0  0  0  0  0  0  0  0
  161.5640  205.0810  147.7530 C   0  0  1  0  0  3  0  0  0  0  0  0
  161.5520  202.5160  146.6720 S   0  0  0  0  0  0  0  0  0  0  0  0
  161.0320  204.2670  146.5720 C   0  0  2  0  0  3  0  0  0  0  0  0
  160.3890  202.1310  148.0160 C   0  0  0  0  0  2  0  0  0  0  0  0
  160.6980  204.9460  148.9730 C   0  0  0  0  0  0  0  0  0  0  0  0
  159.8770  205.8180  149.2040 O   0  0  0  0  0  0  0  0  0  0  0  0
  161.5250  204.9010  145.2800 C   0  0  2  0  0  3  0  0  0  0  0  0
  160.6300  206.0130  144.9290 N   0  0  0  0  0  2  0  0  0  0  0  0
  160.5570  204.7430  144.1960 C   0  0  0  0  0  2  0  0  0  0  0  0
  159.4890  210.4600  156.1820 O   0  0  0  0  0  0  0  0  0  0  0  0
  160.2330  212.3830  157.2240 O   0  0  0  0  0  0  0  0  0  0  0  0
  159.5790  211.8500  156.2850 C   0  0  0  0  0  0  0  0  0  0  0  0
  156.9480  214.0300  154.4810 C   0  0  0  0  0  0  0  0  0  0  0  0
  155.8080  214.3980  155.0450 C   0  0  0  0  0  3  0  0  0  0  0  0
  158.8760  212.6740  155.2870 C   0  0  0  0  0  3  0  0  0  0  0  0
  156.8070  213.2090  156.6270 C   0  0  0  0  0  3  0  0  0  0  0  0
  157.6720  213.2290  155.4540 C   0  0  0  0  0  0  0  0  0  0  0  0
  155.7320  213.8910  156.3790 N   0  0  0  0  0  0  0  0  0  0  0  0
  157.3510  214.3290  153.0700 C   0  0  0  0  0  2  0  0  0  0  0  0
  158.9550  213.4160  151.3750 C   0  0  0  0  0  3  0  0  0  0  0  0
  158.4070  213.3720  152.5940 C   0  0  0  0  0  3  0  0  0  0  0  0
  158.5820  214.4490  150.3610 C   0  0  0  0  0  2  0  0  0  0  0  0
  159.0610  214.2240  144.2850 C   0  0  0  0  0  3  0  0  0  0  0  0
  160.1230  214.0540  148.3670 C   0  0  0  0  0  0  0  0  0  0  0  0
  160.9170  214.1810  145.8850 C   0  0  0  0  0  0  0  0  0  0  0  0
  158.6160  214.0260  146.6340 C   0  0  0  0  0  0  0  0  0  0  0  0
  158.8520  213.9580  149.0170 N   0  0  0  0  0  0  0  0  0  0  0  0
  160.4420  214.2670  144.5600 C   0  0  0  0  0  3  0  0  0  0  0  0
  159.9670  214.0720  146.9110 C   0  0  0  0  0  0  0  0  0  0  0  0
  156.8340  212.8820  148.0420 C   0  0  0  0  0  2  0  0  0  0  0  0
  158.1300  214.1060  145.3280 C   0  0  0  0  0  3  0  0  0  0  0  0
  156.4480  214.3600  148.1580 C   0  0  0  0  0  2  0  0  0  0  0  0
  161.2160  214.1730  148.9830 O   0  0  0  0  0  0  0  0  0  0  0  0
  157.8850  213.9570  147.9260 C   0  0  0  0  0  0  0  0  0  0  0  0
  163.1720  213.3090  145.3660 C   0  0  0  0  0  2  0  0  0  0  0  0
  162.3840  214.2610  146.1840 C   0  0  2  0  0  3  0  0  0  0  0  0
  162.8150  213.0200  146.6920 O   0  0  0  0  0  0  0  0  0  0  0  0
  1  9  1  1  0  0  0
  2  4  1  0  0  0  0
  2  3  1  0  0  0  0
  3  6  1  0  0  0  0
  4 10  1  6  0  0  0
  4  5  1  0  0  0  0
  5  1  1  0  0  0  0
  6  1  1  0  0  0  0
  6 30  1  1  0  0  0
  8  9  2  0  0  0  0
  9  7  1  0  0  0  0
 10 11  1  1  0  0  0
 10 12  1  0  0  0  0
 12 13  1  1  0  0  0
 12 14  1  0  0  0  0
 15 14  1  0  0  0  0
 16 15  1  0  0  0  0
 17 18  1  0  0  0  0
 17 19  1  1  0  0  0
 18 16  1  1  0  0  0
 21 20  1  1  0  0  0
 21 25  1  0  0  0  0
 22 24  1  0  0  0  0
 23 22  1  1  0  0  0
 23 21  1  0  0  0  0
 24 17  1  0  0  0  0
 25 26  2  0  0  0  0
 25 18  1  0  0  0  0
 27 29  1  6  0  0  0
 27 23  1  0  0  0  0
 28 27  1  0  0  0  0
 29 28  1  0  0  0  0
 30 32  1  0  0  0  0
 32 31  2  0  0  0  0
 33 34  2  0  0  0  0
 33 37  1  0  0  0  0
 34 38  1  0  0  0  0
 35 37  2  0  0  0  0
 35 32  1  0  0  0  0
 37 36  1  0  0  0  0
 38 36  2  0  0  0  0
 39 33  1  0  0  0  0
 40 41  2  0  0  0  0
 41 39  1  0  0  0  0
 42 40  1  0  0  0  0
 43 48  2  0  0  0  0
 43 51  1  0  0  0  0
 44 53  2  0  0  0  0
 44 47  1  0  0  0  0
 45 49  2  0  0  0  0
 46 49  1  0  0  0  0
 46 54  1  0  0  0  0
 47 42  1  0  0  0  0
 48 45  1  0  0  0  0
 49 44  1  0  0  0  0
 50 52  1  0  0  0  0
 51 46  2  0  0  0  0
 54 50  1  0  0  0  0
 54 52  1  0  0  0  0
 54 47  1  0  0  0  0
 55 56  1  0  0  0  0
 55 57  1  0  0  0  0
 56 45  1  6  0  0  0
 56 57  1  0  0  0  0
M  END
>  <MODEL>
1

>  <REMARK>
 VINA RESULT:      -6.5      0.000      0.000
  Name = 
  16 active torsions:
  status: ('A' for Active; 'I' for Inactive)
    1  A    between atoms: C_2  and  O_25
    2  A    between atoms: C_3  and  C_5
    3  A    between atoms: C_3  and  C_53
    4  A    between atoms: C_9  and  C_11
    5  A    between atoms: C_9  and  C_42
    6  A    between atoms: C_10  and  C_31
    7  A    between atoms: C_11  and  C_12
    8  A    between atoms: C_12  and  C_22
    9  A    between atoms: C_15  and  C_55
   10  A    between atoms: N_20  and  C_57
   11  A    between atoms: O_25  and  C_42
   12  A    between atoms: C_27  and  C_52
   13  A    between atoms: C_28  and  C_30
   14  A    between atoms: C_36  and  C_57
   15  A    between atoms: O_43  and  C_48
   16  A    between atoms: O_43  and  C_52
                            x       y       z     vdW  Elec       q    Type
                         _______ _______ _______ _____ _____    ______ ____

>  <TORSDO>
F 16

$$$$
=
 OpenBabel11072414563D

 57 64  0  0  1  0  0  0  0  0999 V2000
  161.8270  206.8680  146.7370 C   0  0  2  0  0  3  0  0  0  0  0  0
  161.0540  207.9520  149.3400 C   0  0  0  0  0  2  0  0  0  0  0  0
  160.7470  206.4880  149.0030 C   0  0  0  0  0  2  0  0  0  0  0  0
  161.7220  208.6640  148.1540 C   0  0  2  0  0  3  0  0  0  0  0  0
  162.6020  207.7740  147.5070 O   0  0  0  0  0  0  0  0  0  0  0  0
  160.5810  206.3130  147.4990 C   0  0  2  0  0  3  0  0  0  0  0  0
  162.5830  205.4300  144.8460 O   0  0  0  0  0  0  0  0  0  0  0  0
  163.5640  205.2250  146.9060 O   0  0  0  0  0  1  0  0  0  0  0  0
  162.7130  205.7980  146.1790 C   0  0  0  0  0  0  0  0  0  0  0  0
  162.4480  209.9300  148.6060 C   0  0  1  0  0  3  0  0  0  0  0  0
  163.6180  210.1090  147.8630 O   0  0  0  0  0  1  0  0  0  0  0  0
  161.5370  211.1630  148.4990 C   0  0  1  0  0  3  0  0  0  0  0  0
  161.5530  211.9920  149.7750 C   0  0  0  0  0  1  0  0  0  0  0  0
  161.7700  212.0130  147.2430 C   0  0  0  0  0  2  0  0  0  0  0  0
  160.5690  212.8760  146.8830 C   0  0  0  0  0  2  0  0  0  0  0  0
  160.8980  213.7310  145.8230 O   0  0  0  0  0  0  0  0  0  0  0  0
  162.3610  213.4480  143.8380 C   0  0  1  0  0  3  0  0  0  0  0  0
  161.1750  212.9430  144.6850 C   0  0  2  0  0  3  0  0  0  0  0  0
  163.6300  213.3750  144.6660 C   0  0  0  0  0  1  0  0  0  0  0  0
  159.3960  214.4530  142.7650 F   0  0  0  0  0  0  0  0  0  0  0  0
  159.4050  213.0690  142.7100 C   0  0  1  0  0  3  0  0  0  0  0  0
  161.7070  213.4580  141.1950 S   0  0  0  0  0  0  0  0  0  0  0  0
  160.1420  212.5530  141.4730 C   0  0  2  0  0  3  0  0  0  0  0  0
  162.5590  212.6340  142.5730 C   0  0  0  0  0  2  0  0  0  0  0  0
  159.9280  212.4550  143.9790 C   0  0  0  0  0  0  0  0  0  0  0  0
  159.3270  211.5070  144.4580 O   0  0  0  0  0  0  0  0  0  0  0  0
  159.2230  212.6850  140.2670 C   0  0  2  0  0  3  0  0  0  0  0  0
  158.6830  211.3580  139.9390 N   0  0  0  0  0  2  0  0  0  0  0  0
  159.7390  211.9540  139.1120 C   0  0  0  0  0  2  0  0  0  0  0  0
  160.2610  204.9610  147.1870 O   0  0  0  0  0  0  0  0  0  0  0  0
  161.2640  202.8800  147.2370 O   0  0  0  0  0  0  0  0  0  0  0  0
  160.8240  203.8790  147.8700 C   0  0  0  0  0  0  0  0  0  0  0  0
  161.0150  202.8830  151.5980 C   0  0  0  0  0  0  0  0  0  0  0  0
  161.1500  201.6290  152.0030 C   0  0  0  0  0  2  0  0  0  0  0  0
  160.8720  203.9270  149.3420 C   0  0  0  0  0  2  0  0  0  0  0  0
  161.1330  201.4590  149.7920 C   0  0  0  0  0  3  0  0  0  0  0  0
  160.9830  202.8660  150.1450 C   0  0  0  0  0  0  0  0  0  0  0  0
  161.2310  200.7530  150.8760 N   0  0  0  0  0  0  0  0  0  0  0  0
  160.8430  204.0680  152.4970 C   0  0  0  0  0  2  0  0  0  0  0  0
  161.6950  206.4250  152.5080 C   0  0  0  0  0  3  0  0  0  0  0  0
  161.3370  205.3240  151.8370 C   0  0  0  0  0  3  0  0  0  0  0  0
  161.6590  206.5050  154.0010 C   0  0  0  0  0  2  0  0  0  0  0  0
  159.9050  211.6880  156.6950 C   0  0  0  0  0  3  0  0  0  0  0  0
  160.6780  208.8380  153.6780 C   0  0  0  0  0  0  0  0  0  0  0  0
  160.1320  211.3160  154.2830 C   0  0  0  0  0  0  0  0  0  0  0  0
  160.3250  209.4810  155.8550 C   0  0  0  0  0  0  0  0  0  0  0  0
  160.8330  207.6270  154.4250 N   0  0  0  0  0  0  0  0  0  0  0  0
  159.9200  212.1820  155.3760 C   0  0  0  0  0  3  0  0  0  0  0  0
  160.3460  209.9590  154.5610 C   0  0  0  0  0  0  0  0  0  0  0  0
  159.6900  207.1250  156.5750 C   0  0  0  0  0  2  0  0  0  0  0  0
  160.1130  210.3240  156.9470 C   0  0  0  0  0  3  0  0  0  0  0  0
  161.1730  207.1970  156.9500 C   0  0  0  0  0  2  0  0  0  0  0  0
  160.8700  208.9220  152.4360 O   0  0  0  0  0  0  0  0  0  0  0  0
  160.6290  208.0270  155.8130 C   0  0  0  0  0  0  0  0  0  0  0  0
  159.1710  212.9020  152.6460 C   0  0  0  0  0  2  0  0  0  0  0  0
  160.1830  211.8450  152.8800 C   0  0  2  0  0  3  0  0  0  0  0  0
  158.9540  211.5750  152.2460 O   0  0  0  0  0  0  0  0  0  0  0  0
  1  9  1  1  0  0  0
  1  6  1  0  0  0  0
  1  5  1  0  0  0  0
  3  2  1  0  0  0  0
  4 10  1  1  0  0  0
  4  2  1  0  0  0  0
  5  4  1  0  0  0  0
  6 30  1  1  0  0  0
  6  3  1  0  0  0  0
  7  9  2  0  0  0  0
  9  8  1  0  0  0  0
 10 11  1  6  0  0  0
 12 10  1  0  0  0  0
 12 13  1  1  0  0  0
 14 12  1  0  0  0  0
 15 14  1  0  0  0  0
 16 15  1  0  0  0  0
 17 19  1  1  0  0  0
 17 18  1  0  0  0  0
 18 16  1  1  0  0  0
 21 20  1  1  0  0  0
 21 25  1  0  0  0  0
 22 24  1  0  0  0  0
 23 22  1  6  0  0  0
 23 21  1  0  0  0  0
 24 17  1  0  0  0  0
 25 26  2  0  0  0  0
 25 18  1  0  0  0  0
 27 29  1  6  0  0  0
 27 23  1  0  0  0  0
 28 27  1  0  0  0  0
 29 28  1  0  0  0  0
 30 32  1  0  0  0  0
 31 32  2  0  0  0  0
 32 35  1  0  0  0  0
 33 34  1  0  0  0  0
 33 39  1  0  0  0  0
 35 37  1  0  0  0  0
 36 37  1  0  0  0  0
 36 38  2  0  0  0  0
 37 33  2  0  0  0  0
 38 34  1  0  0  0  0
 40 42  1  0  0  0  0
 41 39  1  0  0  0  0
 41 40  2  0  0  0  0
 42 47  1  0  0  0  0
 43 51  1  0  0  0  0
 44 47  1  0  0  0  0
 44 49  1  0  0  0  0
 45 49  2  0  0  0  0
 45 48  1  0  0  0  0
 46 51  2  0  0  0  0
 47 54  1  0  0  0  0
 48 43  2  0  0  0  0
 49 46  1  0  0  0  0
 50 52  1  0  0  0  0
 53 44  2  0  0  0  0
 54 46  1  0  0  0  0
 54 50  1  0  0  0  0
 54 52  1  0  0  0  0
 55 56  1  0  0  0  0
 56 45  1  1  0  0  0
 57 55  1  0  0  0  0
 57 56  1  0  0  0  0
M  END
>  <MODEL>
2

>  <REMARK>
 VINA RESULT:      -4.5      3.747      9.996
  Name = 
  16 active torsions:
  status: ('A' for Active; 'I' for Inactive)
    1  A    between atoms: C_2  and  O_25
    2  A    between atoms: C_3  and  C_5
    3  A    between atoms: C_3  and  C_53
    4  A    between atoms: C_9  and  C_11
    5  A    between atoms: C_9  and  C_42
    6  A    between atoms: C_10  and  C_31
    7  A    between atoms: C_11  and  C_12
    8  A    between atoms: C_12  and  C_22
    9  A    between atoms: C_15  and  C_55
   10  A    between atoms: N_20  and  C_57
   11  A    between atoms: O_25  and  C_42
   12  A    between atoms: C_27  and  C_52
   13  A    between atoms: C_28  and  C_30
   14  A    between atoms: C_36  and  C_57
   15  A    between atoms: O_43  and  C_48
   16  A    between atoms: O_43  and  C_52
                            x       y       z     vdW  Elec       q    Type
                         _______ _______ _______ _____ _____    ______ ____

>  <TORSDO>
F 16

$$$$
=
 OpenBabel11072414563D

 57 64  0  0  1  0  0  0  0  0999 V2000
  160.6160  206.7640  153.6340 C   0  0  2  0  0  3  0  0  0  0  0  0
  162.1190  205.3060  151.5930 C   0  0  0  0  0  2  0  0  0  0  0  0
  162.4660  206.7690  151.8960 C   0  0  0  0  0  2  0  0  0  0  0  0
  160.9270  204.8340  152.4410 C   0  0  2  0  0  3  0  0  0  0  0  0
  161.0110  205.4040  153.7270 O   0  0  0  0  0  0  0  0  0  0  0  0
  161.2400  207.5110  152.4120 C   0  0  2  0  0  3  0  0  0  0  0  0
  159.7820  207.8680  155.7080 O   0  0  0  0  0  1  0  0  0  0  0  0
  162.0340  207.6550  155.3490 O   0  0  0  0  0  0  0  0  0  0  0  0
  160.8620  207.4480  154.9420 C   0  0  0  0  0  0  0  0  0  0  0  0
  160.8680  203.3090  152.5120 C   0  0  1  0  0  3  0  0  0  0  0  0
  159.5500  202.8690  152.3610 O   0  0  0  0  0  1  0  0  0  0  0  0
  161.7850  202.6660  151.4600 C   0  0  1  0  0  3  0  0  0  0  0  0
  163.1010  202.2000  152.0650 C   0  0  0  0  0  1  0  0  0  0  0  0
  161.1090  201.5780  150.6150 C   0  0  0  0  0  2  0  0  0  0  0  0
  161.8890  201.2450  149.3510 C   0  0  0  0  0  2  0  0  0  0  0  0
  161.0190  200.7360  148.3760 O   0  0  0  0  0  0  0  0  0  0  0  0
  160.9400  201.7530  146.1140 C   0  0  1  0  0  3  0  0  0  0  0  0
  160.5380  201.8130  147.6020 C   0  0  2  0  0  3  0  0  0  0  0  0
  160.3140  200.5250  145.4800 C   0  0  0  0  0  1  0  0  0  0  0  0
  162.9300  203.6200  147.9860 F   0  0  0  0  0  0  0  0  0  0  0  0
  161.6630  204.1750  148.0530 C   0  0  1  0  0  3  0  0  0  0  0  0
  161.8590  204.1760  145.2760 S   0  0  0  0  0  0  0  0  0  0  0  0
  161.3450  205.0180  146.8170 C   0  0  2  0  0  3  0  0  0  0  0  0
  160.4920  202.9800  145.3420 C   0  0  0  0  0  2  0  0  0  0  0  0
  160.6060  203.1430  148.3240 C   0  0  0  0  0  0  0  0  0  0  0  0
  159.7490  203.3910  149.1560 O   0  0  0  0  0  0  0  0  0  0  0  0
  162.0420  206.3650  146.9510 C   0  0  2  0  0  3  0  0  0  0  0  0
  161.3710  207.1390  148.0060 N   0  0  0  0  0  2  0  0  0  0  0  0
  161.1550  207.4700  146.5920 C   0  0  0  0  0  2  0  0  0  0  0  0
  161.5530  208.8770  152.6590 O   0  0  0  0  0  0  0  0  0  0  0  0
  162.6250  209.8170  150.8410 O   0  0  0  0  0  0  0  0  0  0  0  0
  161.6450  209.8240  151.6350 C   0  0  0  0  0  0  0  0  0  0  0  0
  158.8340  212.3430  152.4580 C   0  0  0  0  0  0  0  0  0  0  0  0
  158.4330  212.5970  153.6950 C   0  0  0  0  0  2  0  0  0  0  0  0
  160.5830  210.8380  151.5210 C   0  0  0  0  0  2  0  0  0  0  0  0
  160.0490  211.1050  153.9720 C   0  0  0  0  0  3  0  0  0  0  0  0
  159.8970  211.3560  152.5440 C   0  0  0  0  0  0  0  0  0  0  0  0
  159.1980  211.8310  154.6280 N   0  0  0  0  0  0  0  0  0  0  0  0
  158.2260  212.9190  151.2170 C   0  0  0  0  0  2  0  0  0  0  0  0
  159.4600  214.4020  149.6180 C   0  0  0  0  0  3  0  0  0  0  0  0
  158.9110  214.1960  150.8200 C   0  0  0  0  0  3  0  0  0  0  0  0
  159.4250  213.3770  148.5300 C   0  0  0  0  0  2  0  0  0  0  0  0
  163.0790  213.1680  143.6510 C   0  0  0  0  0  3  0  0  0  0  0  0
  159.7600  214.0730  146.0980 C   0  0  0  0  0  0  0  0  0  0  0  0
  160.7670  213.9820  143.6930 C   0  0  0  0  0  0  0  0  0  0  0  0
  161.9370  213.4290  145.7440 C   0  0  0  0  0  0  0  0  0  0  0  0
  160.2570  213.7990  147.4130 N   0  0  0  0  0  0  0  0  0  0  0  0
  161.9250  213.6160  142.9770 C   0  0  0  0  0  3  0  0  0  0  0  0
  160.8020  213.8650  145.0900 C   0  0  0  0  0  0  0  0  0  0  0  0
  162.6310  214.0410  148.1140 C   0  0  0  0  0  2  0  0  0  0  0  0
  163.0920  213.0670  145.0500 C   0  0  0  0  0  3  0  0  0  0  0  0
  162.3610  212.5370  148.2250 C   0  0  0  0  0  2  0  0  0  0  0  0
  158.5640  214.3850  145.8550 O   0  0  0  0  0  0  0  0  0  0  0  0
  161.6350  213.3720  147.1980 C   0  0  0  0  0  0  0  0  0  0  0  0
  158.7090  213.2790  142.5160 C   0  0  0  0  0  2  0  0  0  0  0  0
  159.5260  214.4260  142.9770 C   0  0  2  0  0  3  0  0  0  0  0  0
  159.5750  213.9600  141.6480 O   0  0  0  0  0  0  0  0  0  0  0  0
  1  5  1  0  0  0  0
  1  9  1  1  0  0  0
  2  3  1  0  0  0  0
  2  4  1  0  0  0  0
  3  6  1  0  0  0  0
  4 10  1  1  0  0  0
  4  5  1  0  0  0  0
  6 30  1  1  0  0  0
  6  1  1  0  0  0  0
  9  8  2  0  0  0  0
  9  7  1  0  0  0  0
 10 11  1  6  0  0  0
 12 13  1  1  0  0  0
 12 10  1  0  0  0  0
 14 12  1  0  0  0  0
 15 14  1  0  0  0  0
 16 15  1  0  0  0  0
 17 19  1  6  0  0  0
 17 18  1  0  0  0  0
 18 25  1  0  0  0  0
 18 16  1  1  0  0  0
 21 20  1  6  0  0  0
 21 25  1  0  0  0  0
 22 24  1  0  0  0  0
 23 22  1  6  0  0  0
 23 27  1  0  0  0  0
 23 21  1  0  0  0  0
 24 17  1  0  0  0  0
 25 26  2  0  0  0  0
 27 29  1  6  0  0  0
 27 28  1  0  0  0  0
 29 28  1  0  0  0  0
 31 32  2  0  0  0  0
 32 30  1  0  0  0  0
 33 37  2  0  0  0  0
 33 34  1  0  0  0  0
 34 38  1  0  0  0  0
 35 32  1  0  0  0  0
 35 37  1  0  0  0  0
 36 38  2  0  0  0  0
 37 36  1  0  0  0  0
 39 33  1  0  0  0  0
 40 41  2  0  0  0  0
 41 39  1  0  0  0  0
 42 40  1  0  0  0  0
 43 51  1  0  0  0  0
 44 47  1  0  0  0  0
 45 49  2  0  0  0  0
 46 54  1  0  0  0  0
 47 42  1  0  0  0  0
 48 43  2  0  0  0  0
 48 45  1  0  0  0  0
 49 46  1  0  0  0  0
 49 44  1  0  0  0  0
 50 52  1  0  0  0  0
 51 46  2  0  0  0  0
 53 44  2  0  0  0  0
 54 47  1  0  0  0  0
 54 50  1  0  0  0  0
 54 52  1  0  0  0  0
 55 56  1  0  0  0  0
 56 45  1  1  0  0  0
 57 55  1  0  0  0  0
 57 56  1  0  0  0  0
M  END
>  <MODEL>
3

>  <REMARK>
 VINA RESULT:      -4.2      2.099      3.931
  Name = 
  16 active torsions:
  status: ('A' for Active; 'I' for Inactive)
    1  A    between atoms: C_2  and  O_25
    2  A    between atoms: C_3  and  C_5
    3  A    between atoms: C_3  and  C_53
    4  A    between atoms: C_9  and  C_11
    5  A    between atoms: C_9  and  C_42
    6  A    between atoms: C_10  and  C_31
    7  A    between atoms: C_11  and  C_12
    8  A    between atoms: C_12  and  C_22
    9  A    between atoms: C_15  and  C_55
   10  A    between atoms: N_20  and  C_57
   11  A    between atoms: O_25  and  C_42
   12  A    between atoms: C_27  and  C_52
   13  A    between atoms: C_28  and  C_30
   14  A    between atoms: C_36  and  C_57
   15  A    between atoms: O_43  and  C_48
   16  A    between atoms: O_43  and  C_52
                            x       y       z     vdW  Elec       q    Type
                         _______ _______ _______ _____ _____    ______ ____

>  <TORSDO>
F 16

$$$$
=
 OpenBabel11072414563D

 57 64  0  0  1  0  0  0  0  0999 V2000
  160.5470  208.2600  153.7160 C   0  0  2  0  0  3  0  0  0  0  0  0
  161.7240  209.1670  151.1980 C   0  0  0  0  0  2  0  0  0  0  0  0
  161.5870  210.1450  152.3710 C   0  0  0  0  0  2  0  0  0  0  0  0
  161.1370  207.7930  151.5540 C   0  0  2  0  0  3  0  0  0  0  0  0
  161.4220  207.4950  152.9010 O   0  0  0  0  0  0  0  0  0  0  0  0
  160.4160  209.7490  153.2610 C   0  0  2  0  0  3  0  0  0  0  0  0
  160.0110  207.6200  156.0650 O   0  0  0  0  0  1  0  0  0  0  0  0
  162.0920  208.4230  155.5420 O   0  0  0  0  0  0  0  0  0  0  0  0
  160.9380  208.1070  155.1530 C   0  0  0  0  0  0  0  0  0  0  0  0
  161.6700  206.7060  150.6210 C   0  0  1  0  0  3  0  0  0  0  0  0
  161.3450  205.4400  151.1170 O   0  0  0  0  0  1  0  0  0  0  0  0
  161.1370  206.8870  149.1910 C   0  0  1  0  0  3  0  0  0  0  0  0
  161.6260  208.1840  148.5640 C   0  0  0  0  0  1  0  0  0  0  0  0
  161.3560  205.6740  148.2780 C   0  0  0  0  0  2  0  0  0  0  0  0
  162.6940  205.7150  147.5540 C   0  0  0  0  0  2  0  0  0  0  0  0
  162.5170  206.2170  146.2560 O   0  0  0  0  0  0  0  0  0  0  0  0
  160.6890  205.2590  144.8790 C   0  0  1  0  0  3  0  0  0  0  0  0
  162.1310  205.1510  145.4160 C   0  0  2  0  0  3  0  0  0  0  0  0
  160.5770  206.4910  144.0010 C   0  0  0  0  0  1  0  0  0  0  0  0
  160.9960  203.3830  147.5880 F   0  0  0  0  0  0  0  0  0  0  0  0
  161.7670  202.8000  146.5950 C   0  0  1  0  0  3  0  0  0  0  0  0
  159.3940  202.8780  145.1420 S   0  0  0  0  0  0  0  0  0  0  0  0
  160.9180  201.9850  145.6190 C   0  0  2  0  0  3  0  0  0  0  0  0
  160.2800  204.0450  144.0660 C   0  0  0  0  0  2  0  0  0  0  0  0
  162.6350  203.8040  145.8910 C   0  0  0  0  0  0  0  0  0  0  0  0
  163.8010  203.5170  145.6760 O   0  0  0  0  0  0  0  0  0  0  0  0
  160.5780  200.6490  146.2650 C   0  0  2  0  0  3  0  0  0  0  0  0
  161.7580  199.7760  146.1890 N   0  0  0  0  0  2  0  0  0  0  0  0
  160.6140  199.5560  145.2960 C   0  0  0  0  0  2  0  0  0  0  0  0
  160.2660  210.6770  154.3300 O   0  0  0  0  0  0  0  0  0  0  0  0
  158.7440  212.0300  155.4220 O   0  0  0  0  0  0  0  0  0  0  0  0
  159.2740  211.6600  154.3370 C   0  0  0  0  0  0  0  0  0  0  0  0
  157.3760  213.6500  151.6240 C   0  0  0  0  0  0  0  0  0  0  0  0
  156.3520  214.4440  151.8970 C   0  0  0  0  0  3  0  0  0  0  0  0
  158.8490  212.2370  153.0500 C   0  0  0  0  0  3  0  0  0  0  0  0
  156.9440  213.6640  153.8860 C   0  0  0  0  0  3  0  0  0  0  0  0
  157.8270  213.0810  152.8830 C   0  0  0  0  0  0  0  0  0  0  0  0
  156.0960  214.4530  153.3030 N   0  0  0  0  0  0  0  0  0  0  0  0
  157.8950  213.3490  150.2520 C   0  0  0  0  0  2  0  0  0  0  0  0
  159.3730  214.4520  148.5550 C   0  0  0  0  0  3  0  0  0  0  0  0
  158.8100  214.4390  149.7680 C   0  0  0  0  0  3  0  0  0  0  0  0
  159.1260  213.3810  147.5410 C   0  0  0  0  0  2  0  0  0  0  0  0
  162.4250  212.6840  142.4590 C   0  0  0  0  0  3  0  0  0  0  0  0
  159.2210  213.7030  145.0120 C   0  0  0  0  0  0  0  0  0  0  0  0
  160.0570  213.3090  142.5720 C   0  0  0  0  0  0  0  0  0  0  0  0
  161.4170  213.1860  144.5770 C   0  0  0  0  0  0  0  0  0  0  0  0
  159.8340  213.6840  146.3050 N   0  0  0  0  0  0  0  0  0  0  0  0
  161.1910  212.9260  141.8250 C   0  0  0  0  0  3  0  0  0  0  0  0
  160.2030  213.4200  143.9630 C   0  0  0  0  0  0  0  0  0  0  0  0
  162.2190  214.2220  146.7570 C   0  0  0  0  0  2  0  0  0  0  0  0
  162.5480  212.8110  143.8510 C   0  0  0  0  0  3  0  0  0  0  0  0
  162.0970  212.7390  147.1200 C   0  0  0  0  0  2  0  0  0  0  0  0
  157.9870  213.8770  144.8260 O   0  0  0  0  0  0  0  0  0  0  0  0
  161.2260  213.3390  146.0430 C   0  0  0  0  0  0  0  0  0  0  0  0
  158.5430  212.6440  140.7340 C   0  0  0  0  0  2  0  0  0  0  0  0
  158.7340  213.5320  141.9040 C   0  0  2  0  0  3  0  0  0  0  0  0
  158.9570  213.9760  140.5860 O   0  0  0  0  0  0  0  0  0  0  0  0
  1  9  1  1  0  0  0
  2  4  1  0  0  0  0
  2  3  1  0  0  0  0
  3  6  1  0  0  0  0
  4 10  1  6  0  0  0
  4  5  1  0  0  0  0
  5  1  1  0  0  0  0
  6  1  1  0  0  0  0
  6 30  1  1  0  0  0
  9  8  2  0  0  0  0
  9  7  1  0  0  0  0
 10 11  1  1  0  0  0
 12 13  1  6  0  0  0
 12 10  1  0  0  0  0
 14 12  1  0  0  0  0
 15 14  1  0  0  0  0
 16 15  1  0  0  0  0
 17 19  1  6  0  0  0
 17 18  1  0  0  0  0
 18 25  1  0  0  0  0
 18 16  1  1  0  0  0
 21 20  1  1  0  0  0
 23 22  1  1  0  0  0
 23 27  1  0  0  0  0
 23 21  1  0  0  0  0
 24 17  1  0  0  0  0
 24 22  1  0  0  0  0
 25 21  1  0  0  0  0
 26 25  2  0  0  0  0
 27 29  1  6  0  0  0
 28 27  1  0  0  0  0
 29 28  1  0  0  0  0
 30 32  1  0  0  0  0
 32 31  2  0  0  0  0
 33 34  2  0  0  0  0
 33 37  1  0  0  0  0
 34 38  1  0  0  0  0
 35 32  1  0  0  0  0
 37 35  2  0  0  0  0
 37 36  1  0  0  0  0
 38 36  2  0  0  0  0
 39 33  1  0  0  0  0
 40 41  2  0  0  0  0
 41 39  1  0  0  0  0
 42 40  1  0  0  0  0
 43 51  1  0  0  0  0
 44 47  1  0  0  0  0
 45 49  2  0  0  0  0
 46 54  1  0  0  0  0
 47 42  1  0  0  0  0
 48 43  2  0  0  0  0
 48 45  1  0  0  0  0
 49 46  1  0  0  0  0
 49 44  1  0  0  0  0
 50 52  1  0  0  0  0
 51 46  2  0  0  0  0
 53 44  2  0  0  0  0
 54 47  1  0  0  0  0
 54 50  1  0  0  0  0
 54 52  1  0  0  0  0
 55 56  1  0  0  0  0
 56 45  1  1  0  0  0
 57 55  1  0  0  0  0
 57 56  1  0  0  0  0
M  END
>  <MODEL>
4

>  <REMARK>
 VINA RESULT:      -3.5      2.486      3.963
  Name = 
  16 active torsions:
  status: ('A' for Active; 'I' for Inactive)
    1  A    between atoms: C_2  and  O_25
    2  A    between atoms: C_3  and  C_5
    3  A    between atoms: C_3  and  C_53
    4  A    between atoms: C_9  and  C_11
    5  A    between atoms: C_9  and  C_42
    6  A    between atoms: C_10  and  C_31
    7  A    between atoms: C_11  and  C_12
    8  A    between atoms: C_12  and  C_22
    9  A    between atoms: C_15  and  C_55
   10  A    between atoms: N_20  and  C_57
   11  A    between atoms: O_25  and  C_42
   12  A    between atoms: C_27  and  C_52
   13  A    between atoms: C_28  and  C_30
   14  A    between atoms: C_36  and  C_57
   15  A    between atoms: O_43  and  C_48
   16  A    between atoms: O_43  and  C_52
                            x       y       z     vdW  Elec       q    Type
                         _______ _______ _______ _____ _____    ______ ____

>  <TORSDO>
F 16

$$$$
