=
 OpenBabel11072411293D

 35 38  0  0  1  0  0  0  0  0999 V2000
  162.2570  209.1300  148.8170 O   0  0  0  0  0  0  0  0  0  0  0  0
  159.8330  212.2650  152.4250 O   0  0  0  0  0  0  0  0  0  0  0  0
  156.3850  213.4050  150.0940 N   0  0  0  0  0  1  0  0  0  0  0  0
  161.4260  211.4580  153.9880 C   0  0  0  0  0  2  0  0  0  0  0  0
  158.7590  213.4080  150.5070 C   0  0  0  0  0  0  0  0  0  0  0  0
  161.9100  207.4190  152.2010 C   0  0  1  0  0  3  0  0  0  0  0  0
  160.6030  213.2110  148.9310 C   0  0  0  0  0  0  0  0  0  0  0  0
  160.1260  213.8920  150.1630 C   0  0  0  0  0  2  0  0  0  0  0  0
  157.8900  214.4520  148.4650 N   0  0  0  0  0  0  0  0  0  0  0  0
  162.5700  207.8870  150.8890 C   0  0  0  0  0  2  0  0  0  0  0  0
  159.9260  211.5010  153.6310 C   0  0  2  0  0  0  0  0  0  0  0  0
  160.0460  213.4830  147.7540 C   0  0  0  0  0  3  0  0  0  0  0  0
  158.8690  214.3640  147.6040 C   0  0  0  0  0  3  0  0  0  0  0  0
  162.4770  211.3860  148.1960 C   0  0  0  0  0  2  0  0  0  0  0  0
  161.2840  208.5190  153.0720 C   0  0  1  0  0  3  0  0  0  0  0  0
  157.7170  213.7280  149.7050 C   0  0  0  0  0  0  0  0  0  0  0  0
  157.5350  212.1840  152.1660 O   0  0  0  0  0  0  0  0  0  0  0  0
  160.6810  207.4210  149.2990 C   0  0  0  0  0  1  0  0  0  0  0  0
  162.8280  210.3610  149.2250 C   0  0  1  0  0  3  0  0  0  0  0  0
  161.9460  211.2140  150.0870 C   0  0  0  0  0  2  0  0  0  0  0  0
  161.5790  212.1800  149.0470 N   0  0  0  0  0  0  0  0  0  0  0  0
  162.3430  209.4770  153.6040 C   0  0  0  0  0  2  0  0  0  0  0  0
  160.1350  209.2610  152.3820 C   0  0  0  0  0  2  0  0  0  0  0  0
  158.6510  212.5900  151.7400 C   0  0  0  0  0  0  0  0  0  0  0  0
  159.3370  210.0950  153.3820 C   0  0  0  0  0  2  0  0  0  0  0  0
  161.5890  208.4900  149.8790 C   0  0  2  0  0  3  0  0  0  0  0  0
  161.7960  210.2660  154.6210 O   0  0  0  0  0  0  0  0  0  0  0  0
  159.9370  213.1260  155.4360 O   0  0  0  0  0  1  0  0  0  0  0  0
  159.1250  212.2200  154.7490 C   0  0  2  0  0  3  0  0  0  0  0  0
  158.3550  211.3480  155.7590 C   0  0  2  0  0  3  0  0  0  0  0  0
  157.0030  211.6890  155.8110 O   0  0  0  0  0  1  0  0  0  0  0  0
  158.9360  211.4010  157.0900 N   0  0  0  0  0  2  0  0  0  0  0  0
  159.7320  210.1970  157.2610 C   0  0  0  0  0  1  0  0  0  0  0  0
  161.0010  206.3800  151.9810 O   0  0  0  0  0  0  0  0  0  0  0  0
  161.2100  205.4910  153.0380 C   0  0  0  0  0  1  0  0  0  0  0  0
  1 19  1  0  0  0  0
  1 26  1  0  0  0  0
  2 11  1  0  0  0  0
  4 27  1  0  0  0  0
  5 24  1  0  0  0  0
  6 34  1  6  0  0  0
  6 15  1  0  0  0  0
  7 21  1  0  0  0  0
  7  8  1  0  0  0  0
  8  5  1  0  0  0  0
  9 16  1  0  0  0  0
 10  6  1  0  0  0  0
 11  4  1  0  0  0  0
 11 29  1  1  0  0  0
 12  7  2  0  0  0  0
 13 12  1  0  0  0  0
 13  9  2  0  0  0  0
 14 21  1  0  0  0  0
 15 23  1  6  0  0  0
 15 22  1  0  0  0  0
 16  3  1  0  0  0  0
 16  5  2  0  0  0  0
 19 14  1  6  0  0  0
 19 20  1  0  0  0  0
 21 20  1  0  0  0  0
 22 27  1  0  0  0  0
 23 25  1  0  0  0  0
 24 17  2  0  0  0  0
 24  2  1  0  0  0  0
 25 11  1  0  0  0  0
 26 18  1  6  0  0  0
 26 10  1  0  0  0  0
 29 28  1  1  0  0  0
 29 30  1  0  0  0  0
 30 31  1  1  0  0  0
 30 32  1  0  0  0  0
 32 33  1  0  0  0  0
 34 35  1  0  0  0  0
M  END
>  <MODEL>
1

>  <REMARK>
 VINA RESULT:      -3.6      0.000      0.000
  Name = 
  4 active torsions:
  status: ('A' for Active; 'I' for Inactive)
    1  A    between atoms: C_7  and  O_28
    2  A    between atoms: C_8  and  C_16
    3  A    between atoms: C_8  and  N_21
    4  A    between atoms: C_13  and  C_16
                            x       y       z     vdW  Elec       q    Type
                         _______ _______ _______ _____ _____    ______ ____

>  <TORSDO>
F 4

$$$$
=
 OpenBabel11072411293D

 35 38  0  0  1  0  0  0  0  0999 V2000
  157.5080  213.2940  156.1000 O   0  0  0  0  0  0  0  0  0  0  0  0
  160.9180  211.1000  152.5950 O   0  0  0  0  0  0  0  0  0  0  0  0
  160.7370  207.0140  153.9700 N   0  0  0  0  0  1  0  0  0  0  0  0
  160.8590  213.1790  151.4520 C   0  0  0  0  0  2  0  0  0  0  0  0
  161.3070  209.3340  154.2880 C   0  0  0  0  0  0  0  0  0  0  0  0
  156.6740  214.2360  152.5060 C   0  0  1  0  0  3  0  0  0  0  0  0
  161.0810  210.7240  156.2730 C   0  0  0  0  0  0  0  0  0  0  0  0
  161.9450  210.4030  155.1070 C   0  0  0  0  0  2  0  0  0  0  0  0
  161.6100  207.7530  156.1380 N   0  0  0  0  0  0  0  0  0  0  0  0
  156.9150  214.4120  154.0190 C   0  0  0  0  0  2  0  0  0  0  0  0
  160.5160  211.6790  151.3490 C   0  0  2  0  0  0  0  0  0  0  0  0
  160.9330  209.8450  157.2610 C   0  0  0  0  0  3  0  0  0  0  0  0
  161.5010  208.4810  157.2190 C   0  0  0  0  0  3  0  0  0  0  0  0
  159.5320  212.7670  157.1730 C   0  0  0  0  0  2  0  0  0  0  0  0
  157.8140  213.5800  151.7130 C   0  0  1  0  0  3  0  0  0  0  0  0
  161.2040  208.0810  154.7900 C   0  0  0  0  0  0  0  0  0  0  0  0
  160.3270  208.9100  152.1410 O   0  0  0  0  0  0  0  0  0  0  0  0
  155.7030  212.3770  154.8590 C   0  0  0  0  0  1  0  0  0  0  0  0
  158.8900  213.6100  156.1200 C   0  0  1  0  0  3  0  0  0  0  0  0
  159.7440  212.7760  155.2130 C   0  0  0  0  0  2  0  0  0  0  0  0
  160.3240  211.9300  156.2590 N   0  0  0  0  0  0  0  0  0  0  0  0
  159.0640  214.4530  151.7100 C   0  0  0  0  0  2  0  0  0  0  0  0
  158.1200  212.1470  152.1580 C   0  0  0  0  0  2  0  0  0  0  0  0
  160.8220  209.7440  152.9470 C   0  0  0  0  0  0  0  0  0  0  0  0
  159.0070  211.4290  151.1430 C   0  0  0  0  0  2  0  0  0  0  0  0
  157.0400  213.0930  154.7870 C   0  0  2  0  0  3  0  0  0  0  0  0
  159.9610  213.9860  150.7440 O   0  0  0  0  0  0  0  0  0  0  0  0
  162.5870  210.6200  150.6490 O   0  0  0  0  0  1  0  0  0  0  0  0
  161.3250  211.0180  150.2010 C   0  0  2  0  0  3  0  0  0  0  0  0
  161.4670  211.7960  148.8790 C   0  0  2  0  0  3  0  0  0  0  0  0
  161.0280  211.0470  147.7870 O   0  0  0  0  0  1  0  0  0  0  0  0
  162.8260  212.2590  148.6540 N   0  0  0  0  0  2  0  0  0  0  0  0
  162.7390  213.5910  148.0800 C   0  0  0  0  0  1  0  0  0  0  0  0
  155.4570  213.6000  152.2470 O   0  0  0  0  0  0  0  0  0  0  0  0
  154.9840  214.1950  151.0750 C   0  0  0  0  0  1  0  0  0  0  0  0
  1 19  1  0  0  0  0
  2 24  1  0  0  0  0
  3 16  1  0  0  0  0
  5 16  2  0  0  0  0
  5  8  1  0  0  0  0
  6 34  1  1  0  0  0
  6 10  1  0  0  0  0
  7 12  2  0  0  0  0
  8  7  1  0  0  0  0
  9 13  2  0  0  0  0
 10 26  1  0  0  0  0
 11 29  1  6  0  0  0
 11  4  1  0  0  0  0
 11  2  1  0  0  0  0
 13 12  1  0  0  0  0
 15 22  1  1  0  0  0
 15 23  1  0  0  0  0
 15  6  1  0  0  0  0
 16  9  1  0  0  0  0
 17 24  2  0  0  0  0
 19 20  1  6  0  0  0
 19 14  1  0  0  0  0
 20 21  1  0  0  0  0
 21  7  1  0  0  0  0
 21 14  1  0  0  0  0
 24  5  1  0  0  0  0
 25 11  1  0  0  0  0
 25 23  1  0  0  0  0
 26 18  1  1  0  0  0
 26  1  1  0  0  0  0
 27  4  1  0  0  0  0
 27 22  1  0  0  0  0
 29 28  1  1  0  0  0
 30 31  1  6  0  0  0
 30 29  1  0  0  0  0
 32 30  1  0  0  0  0
 33 32  1  0  0  0  0
 35 34  1  0  0  0  0
M  END
>  <MODEL>
2

>  <REMARK>
 VINA RESULT:      -0.9      2.525      7.678
  Name = 
  4 active torsions:
  status: ('A' for Active; 'I' for Inactive)
    1  A    between atoms: C_7  and  O_28
    2  A    between atoms: C_8  and  C_16
    3  A    between atoms: C_8  and  N_21
    4  A    between atoms: C_13  and  C_16
                            x       y       z     vdW  Elec       q    Type
                         _______ _______ _______ _____ _____    ______ ____

>  <TORSDO>
F 4

$$$$
