=
 OpenBabel11072410103D

 43 47  0  0  1  0  0  0  0  0999 V2000
  162.3340  209.6240  156.3330 N   0  0  0  0  0  1  0  0  0  0  0  0
  161.2000  208.7140  156.4560 C   0  0  2  0  0  3  0  0  0  0  0  0
  160.0060  209.4190  154.4250 N   0  0  0  0  0  0  0  0  0  0  0  0
  160.6590  208.2960  155.0910 C   0  0  1  0  0  3  0  0  0  0  0  0
  159.4650  210.4140  155.0610 C   0  0  0  0  0  0  0  0  0  0  0  0
  159.5580  210.5230  156.5710 C   0  0  1  0  0  3  0  0  0  0  0  0
  160.1200  209.3310  157.2300 N   0  0  0  0  0  2  0  0  0  0  0  0
  160.2810  211.6480  156.9310 F   0  0  0  0  0  0  0  0  0  0  0  0
  158.8410  211.4170  154.3160 O   0  0  0  0  0  0  0  0  0  0  0  0
  159.2690  212.7710  154.3520 C   0  0  0  0  0  2  0  0  0  0  0  0
  158.2900  213.6310  153.5810 C   0  0  0  0  0  2  0  0  0  0  0  0
  158.3870  213.2860  152.1040 C   0  0  0  0  0  2  0  0  0  0  0  0
  159.8340  213.3460  151.6300 C   0  0  0  0  0  2  0  0  0  0  0  0
  159.9530  213.8980  150.2100 C   0  0  0  0  0  2  0  0  0  0  0  0
  158.6070  213.9050  149.4870 C   0  0  0  0  0  2  0  0  0  0  0  0
  158.7520  213.5520  148.0140 C   0  0  0  0  0  2  0  0  0  0  0  0
  160.1030  213.8430  147.5490 N   0  0  0  0  0  2  0  0  0  0  0  0
  159.5490  212.4630  144.7790 C   0  0  0  0  0  2  0  0  0  0  0  0
  161.5420  213.3030  145.6890 C   0  0  0  0  0  2  0  0  0  0  0  0
  160.9520  212.8460  144.3950 C   0  0  0  0  0  2  0  0  0  0  0  0
  159.5610  212.0420  146.1180 O   0  0  0  0  0  0  0  0  0  0  0  0
  160.6240  212.7270  146.7510 C   0  0  2  0  0  0  0  0  0  0  0  0
  162.6480  212.4300  148.2600 C   0  0  0  0  0  1  0  0  0  0  0  0
  161.4180  211.7690  147.6500 C   0  0  0  0  0  2  0  0  0  0  0  0
  161.7310  207.6790  154.2040 C   0  0  0  0  0  2  0  0  0  0  0  0
  161.8370  208.4510  152.8990 C   0  0  0  0  0  2  0  0  0  0  0  0
  161.2180  205.4470  145.4780 P   0  0  1  0  0  0  0  0  0  0  0  0
  159.6200  205.8830  145.1300 O   0  0  0  0  0  1  0  0  0  0  0  0
  161.0520  204.1790  149.7060 C   0  0  0  0  0  3  0  0  0  0  0  0
  160.2590  206.5110  150.1540 C   0  0  1  0  0  3  0  0  0  0  0  0
  161.1600  206.9770  148.9990 C   0  0  1  0  0  3  0  0  0  0  0  0
  160.4670  205.0640  150.5310 C   0  0  0  0  0  3  0  0  0  0  0  0
  160.4050  207.4370  151.3620 C   0  0  0  0  0  2  0  0  0  0  0  0
  162.5520  208.1740  150.6980 C   0  0  0  0  0  2  0  0  0  0  0  0
  161.8150  206.3880  146.7520 O   0  0  0  0  0  0  0  0  0  0  0  0
  162.5900  207.2570  149.4810 C   0  0  0  0  0  2  0  0  0  0  0  0
  161.1220  205.9320  147.8800 C   0  0  1  0  0  3  0  0  0  0  0  0
  161.6190  202.2470  147.6610 N   0  0  0  0  0  2  0  0  0  0  0  0
  161.2820  203.8100  145.9870 O   0  0  0  0  0  0  0  0  0  0  0  0
  162.0810  205.6340  144.2510 O   0  0  0  0  0  0  0  0  0  0  0  0
  161.6570  204.5720  148.3750 C   0  0  2  0  0  3  0  0  0  0  0  0
  161.8020  207.5300  151.7770 N   0  0  0  0  0  0  0  0  0  0  0  0
  161.4800  203.4900  147.3330 C   0  0  0  0  0  0  0  0  0  0  0  0
  2  1  1  6  0  0  0
  2  7  1  0  0  0  0
  3  5  2  0  0  0  0
  3  4  1  0  0  0  0
  4 25  1  6  0  0  0
  4  2  1  0  0  0  0
  5  6  1  0  0  0  0
  6  8  1  6  0  0  0
  6  7  1  0  0  0  0
  9 10  1  0  0  0  0
  9  5  1  0  0  0  0
 11 10  1  0  0  0  0
 12 11  1  0  0  0  0
 13 12  1  0  0  0  0
 14 13  1  0  0  0  0
 15 14  1  0  0  0  0
 16 15  1  0  0  0  0
 17 16  1  0  0  0  0
 18 21  1  0  0  0  0
 19 22  1  0  0  0  0
 20 18  1  0  0  0  0
 20 19  1  0  0  0  0
 21 22  1  0  0  0  0
 22 17  1  0  0  0  0
 22 24  1  1  0  0  0
 24 23  1  0  0  0  0
 26 25  1  0  0  0  0
 27 40  2  6  0  0  0
 27 39  1  0  0  0  0
 27 35  1  0  0  0  0
 28 27  1  0  0  0  0
 29 32  2  0  0  0  0
 30 32  1  1  0  0  0
 30 33  1  0  0  0  0
 31 36  1  1  0  0  0
 31 30  1  0  0  0  0
 33 42  1  0  0  0  0
 34 42  1  0  0  0  0
 36 34  1  0  0  0  0
 37 35  1  6  0  0  0
 37 41  1  0  0  0  0
 37 31  1  0  0  0  0
 39 43  1  0  0  0  0
 41 29  1  1  0  0  0
 42 26  1  0  0  0  0
 43 38  2  0  0  0  0
 43 41  1  0  0  0  0
M  END
>  <MODEL>
1

>  <REMARK>
 VINA RESULT:      -6.4      0.000      0.000
  Name = 
  14 active torsions:
  status: ('A' for Active; 'I' for Inactive)
    1  A    between atoms: N_4  and  C_21
    2  A    between atoms: N_4  and  C_22
    3  A    between atoms: C_14  and  C_30
    4  A    between atoms: C_14  and  C_40
    5  A    between atoms: O_15  and  C_23
    6  A    between atoms: O_15  and  C_40
    7  A    between atoms: C_16  and  C_29
    8  A    between atoms: C_21  and  C_39
    9  A    between atoms: C_22  and  C_28
   10  A    between atoms: C_26  and  C_29
   11  A    between atoms: C_26  and  N_42
   12  A    between atoms: C_28  and  C_38
   13  A    between atoms: C_30  and  C_34
   14  A    between atoms: C_34  and  C_38
                            x       y       z     vdW  Elec       q    Type
                         _______ _______ _______ _____ _____    ______ ____

>  <TORSDO>
F 14

$$$$
=
 OpenBabel11072410103D

 43 47  0  0  1  0  0  0  0  0999 V2000
  159.2190  201.3250  148.5580 N   0  0  0  0  0  1  0  0  0  0  0  0
  160.6410  201.0210  148.6690 C   0  0  2  0  0  3  0  0  0  0  0  0
  161.4750  203.3260  148.4690 N   0  0  0  0  0  0  0  0  0  0  0  0
  161.4120  202.1560  149.3390 C   0  0  1  0  0  3  0  0  0  0  0  0
  161.4120  203.2610  147.1730 C   0  0  0  0  0  0  0  0  0  0  0  0
  161.1720  201.9410  146.4650 C   0  0  1  0  0  3  0  0  0  0  0  0
  161.2220  200.7620  147.3490 N   0  0  0  0  0  2  0  0  0  0  0  0
  159.9660  201.9700  145.7840 F   0  0  0  0  0  0  0  0  0  0  0  0
  161.5140  204.4470  146.4430 O   0  0  0  0  0  0  0  0  0  0  0  0
  162.0150  204.4830  145.1140 C   0  0  0  0  0  2  0  0  0  0  0  0
  160.9650  205.0660  144.1940 C   0  0  0  0  0  2  0  0  0  0  0  0
  161.5920  206.1830  143.3760 C   0  0  0  0  0  2  0  0  0  0  0  0
  161.6010  205.8280  141.8940 C   0  0  0  0  0  2  0  0  0  0  0  0
  161.9540  207.0280  141.0160 C   0  0  0  0  0  2  0  0  0  0  0  0
  162.4130  206.5990  139.6240 C   0  0  0  0  0  2  0  0  0  0  0  0
  161.9210  207.5530  138.5450 C   0  0  0  0  0  2  0  0  0  0  0  0
  160.6690  208.1810  138.9500 N   0  0  0  0  0  2  0  0  0  0  0  0
  161.9740  210.7290  140.2500 C   0  0  0  0  0  2  0  0  0  0  0  0
  162.0400  209.9460  138.0390 C   0  0  0  0  0  2  0  0  0  0  0  0
  162.7110  210.9180  138.9530 C   0  0  0  0  0  2  0  0  0  0  0  0
  160.6640  210.3200  139.9540 O   0  0  0  0  0  0  0  0  0  0  0  0
  160.7220  209.6290  138.7210 C   0  0  2  0  0  0  0  0  0  0  0  0
  158.2100  209.9590  138.5130 C   0  0  0  0  0  1  0  0  0  0  0  0
  159.5600  210.0570  137.8140 C   0  0  0  0  0  2  0  0  0  0  0  0
  160.8470  202.5170  150.7050 C   0  0  0  0  0  2  0  0  0  0  0  0
  161.9340  203.1210  151.5780 C   0  0  0  0  0  2  0  0  0  0  0  0
  160.4480  210.9120  152.8260 P   0  0  1  0  0  0  0  0  0  0  0  0
  158.7670  210.9140  152.6220 O   0  0  0  0  0  0  0  0  0  0  0  0
  161.8740  208.1640  149.6760 C   0  0  0  0  0  3  0  0  0  0  0  0
  160.4650  206.4470  150.8300 C   0  0  1  0  0  3  0  0  0  0  0  0
  160.8000  207.1470  152.1570 C   0  0  1  0  0  3  0  0  0  0  0  0
  161.2600  206.9690  149.6580 C   0  0  0  0  0  3  0  0  0  0  0  0
  160.5940  204.9300  150.9710 C   0  0  0  0  0  2  0  0  0  0  0  0
  162.0840  205.0990  152.8000 C   0  0  0  0  0  2  0  0  0  0  0  0
  160.9940  209.3420  153.1440 O   0  0  0  0  0  0  0  0  0  0  0  0
  162.1140  206.6230  152.7510 C   0  0  0  0  0  2  0  0  0  0  0  0
  160.8330  208.6620  151.9300 C   0  0  1  0  0  3  0  0  0  0  0  0
  162.5140  210.9580  149.5260 N   0  0  0  0  0  2  0  0  0  0  0  0
  161.2150  211.4310  151.3830 O   0  0  0  0  0  0  0  0  0  0  0  0
  160.8280  211.8300  153.9650 O   0  0  0  0  0  1  0  0  0  0  0  0
  161.9230  209.0440  150.9070 C   0  0  2  0  0  3  0  0  0  0  0  0
  161.9260  204.5660  151.4470 N   0  0  0  0  0  0  0  0  0  0  0  0
  161.8660  210.5140  150.5530 C   0  0  0  0  0  0  0  0  0  0  0  0
  2  1  1  6  0  0  0
  2  4  1  0  0  0  0
  3  4  1  0  0  0  0
  4 25  1  1  0  0  0
  5  3  2  0  0  0  0
  6  8  1  1  0  0  0
  6  5  1  0  0  0  0
  6  7  1  0  0  0  0
  7  2  1  0  0  0  0
  9  5  1  0  0  0  0
 10  9  1  0  0  0  0
 11 10  1  0  0  0  0
 12 11  1  0  0  0  0
 13 12  1  0  0  0  0
 14 13  1  0  0  0  0
 15 14  1  0  0  0  0
 16 17  1  0  0  0  0
 16 15  1  0  0  0  0
 19 22  1  0  0  0  0
 19 20  1  0  0  0  0
 20 18  1  0  0  0  0
 21 18  1  0  0  0  0
 22 24  1  6  0  0  0
 22 17  1  0  0  0  0
 22 21  1  0  0  0  0
 24 23  1  0  0  0  0
 25 26  1  0  0  0  0
 27 28  2  6  0  0  0
 27 35  1  0  0  0  0
 27 40  1  0  0  0  0
 30 32  1  6  0  0  0
 30 33  1  0  0  0  0
 30 31  1  0  0  0  0
 31 36  1  6  0  0  0
 32 29  2  0  0  0  0
 33 42  1  0  0  0  0
 36 34  1  0  0  0  0
 37 31  1  0  0  0  0
 37 35  1  1  0  0  0
 38 43  2  0  0  0  0
 39 27  1  0  0  0  0
 41 29  1  6  0  0  0
 41 37  1  0  0  0  0
 42 26  1  0  0  0  0
 42 34  1  0  0  0  0
 43 41  1  0  0  0  0
 43 39  1  0  0  0  0
M  END
>  <MODEL>
2

>  <REMARK>
 VINA RESULT:      -5.2      4.990      9.177
  Name = 
  14 active torsions:
  status: ('A' for Active; 'I' for Inactive)
    1  A    between atoms: N_4  and  C_21
    2  A    between atoms: N_4  and  C_22
    3  A    between atoms: C_14  and  C_30
    4  A    between atoms: C_14  and  C_40
    5  A    between atoms: O_15  and  C_23
    6  A    between atoms: O_15  and  C_40
    7  A    between atoms: C_16  and  C_29
    8  A    between atoms: C_21  and  C_39
    9  A    between atoms: C_22  and  C_28
   10  A    between atoms: C_26  and  C_29
   11  A    between atoms: C_26  and  N_42
   12  A    between atoms: C_28  and  C_38
   13  A    between atoms: C_30  and  C_34
   14  A    between atoms: C_34  and  C_38
                            x       y       z     vdW  Elec       q    Type
                         _______ _______ _______ _____ _____    ______ ____

>  <TORSDO>
F 14

$$$$
=
 OpenBabel11072410103D

 43 47  0  0  1  0  0  0  0  0999 V2000
  159.1500  201.1220  148.2770 N   0  0  0  0  0  1  0  0  0  0  0  0
  160.5890  200.9480  148.4320 C   0  0  2  0  0  3  0  0  0  0  0  0
  161.2420  203.2750  147.9720 N   0  0  0  0  0  0  0  0  0  0  0  0
  161.2570  202.2110  148.9710 C   0  0  1  0  0  3  0  0  0  0  0  0
  161.2050  203.0560  146.6920 C   0  0  0  0  0  0  0  0  0  0  0  0
  161.0820  201.6480  146.1400 C   0  0  1  0  0  3  0  0  0  0  0  0
  161.2100  200.5870  147.1550 N   0  0  0  0  0  2  0  0  0  0  0  0
  159.8890  201.5010  145.4520 F   0  0  0  0  0  0  0  0  0  0  0  0
  161.2250  204.1540  145.8300 O   0  0  0  0  0  0  0  0  0  0  0  0
  162.0980  205.2580  146.0230 C   0  0  0  0  0  2  0  0  0  0  0  0
  161.3460  206.3840  146.7000 C   0  0  0  0  0  2  0  0  0  0  0  0
  161.7660  206.4490  148.1590 C   0  0  0  0  0  2  0  0  0  0  0  0
  162.6370  207.6720  148.4170 C   0  0  0  0  0  2  0  0  0  0  0  0
  161.8310  208.9710  148.3810 C   0  0  0  0  0  2  0  0  0  0  0  0
  162.3030  209.9630  149.4430 C   0  0  0  0  0  2  0  0  0  0  0  0
  162.3270  211.3900  148.9150 C   0  0  0  0  0  2  0  0  0  0  0  0
  161.3090  211.5730  147.8880 N   0  0  0  0  0  2  0  0  0  0  0  0
  158.7050  213.3340  147.8680 C   0  0  0  0  0  2  0  0  0  0  0  0
  160.6460  213.5030  149.1760 C   0  0  0  0  0  2  0  0  0  0  0  0
  159.2390  214.0010  149.1060 C   0  0  0  0  0  2  0  0  0  0  0  0
  159.7750  213.1270  146.9840 O   0  0  0  0  0  0  0  0  0  0  0  0
  160.9380  212.9880  147.7780 C   0  0  2  0  0  0  0  0  0  0  0  0
  162.3340  213.4470  145.7040 C   0  0  0  0  0  1  0  0  0  0  0  0
  162.0990  213.7870  147.1710 C   0  0  0  0  0  2  0  0  0  0  0  0
  160.6430  202.6800  150.2820 C   0  0  0  0  0  2  0  0  0  0  0  0
  161.7360  203.0890  151.2560 C   0  0  0  0  0  2  0  0  0  0  0  0
  160.2270  210.8300  152.7590 P   0  0  1  0  0  0  0  0  0  0  0  0
  161.7690  211.4740  152.4930 O   0  0  0  0  0  1  0  0  0  0  0  0
  161.0350  207.0310  154.8630 C   0  0  0  0  0  3  0  0  0  0  0  0
  162.3210  206.4100  152.8070 C   0  0  1  0  0  3  0  0  0  0  0  0
  161.3000  207.2230  151.9940 C   0  0  1  0  0  3  0  0  0  0  0  0
  161.9320  206.2370  154.2560 C   0  0  0  0  0  3  0  0  0  0  0  0
  162.6040  205.0680  152.1320 C   0  0  0  0  0  2  0  0  0  0  0  0
  160.5390  205.0680  150.9780 C   0  0  0  0  0  2  0  0  0  0  0  0
  160.0930  209.3140  152.0180 O   0  0  0  0  0  0  0  0  0  0  0  0
  160.0790  206.3740  151.6160 C   0  0  0  0  0  2  0  0  0  0  0  0
  160.9100  208.4750  152.7860 C   0  0  1  0  0  3  0  0  0  0  0  0
  159.7060  209.1690  156.2420 N   0  0  0  0  0  2  0  0  0  0  0  0
  159.9700  210.5960  154.4380 O   0  0  0  0  0  0  0  0  0  0  0  0
  159.1760  211.7670  152.2070 O   0  0  0  0  0  0  0  0  0  0  0  0
  160.2490  208.0960  154.1280 C   0  0  2  0  0  3  0  0  0  0  0  0
  161.3650  204.3210  151.9260 N   0  0  0  0  0  0  0  0  0  0  0  0
  160.0010  209.3130  154.9920 C   0  0  0  0  0  0  0  0  0  0  0  0
  2  1  1  6  0  0  0
  2  4  1  0  0  0  0
  3  4  1  0  0  0  0
  4 25  1  1  0  0  0
  5  3  2  0  0  0  0
  6  8  1  1  0  0  0
  6  5  1  0  0  0  0
  6  7  1  0  0  0  0
  7  2  1  0  0  0  0
  9 10  1  0  0  0  0
  9  5  1  0  0  0  0
 10 11  1  0  0  0  0
 11 12  1  0  0  0  0
 12 13  1  0  0  0  0
 14 13  1  0  0  0  0
 14 15  1  0  0  0  0
 16 15  1  0  0  0  0
 17 16  1  0  0  0  0
 18 20  1  0  0  0  0
 20 19  1  0  0  0  0
 21 22  1  0  0  0  0
 21 18  1  0  0  0  0
 22 24  1  6  0  0  0
 22 17  1  0  0  0  0
 22 19  1  0  0  0  0
 23 24  1  0  0  0  0
 25 26  1  0  0  0  0
 26 42  1  0  0  0  0
 27 40  2  6  0  0  0
 27 39  1  0  0  0  0
 28 27  1  0  0  0  0
 30 33  1  6  0  0  0
 30 32  1  0  0  0  0
 31 36  1  1  0  0  0
 31 37  1  0  0  0  0
 31 30  1  0  0  0  0
 32 29  2  0  0  0  0
 34 36  1  0  0  0  0
 34 42  1  0  0  0  0
 35 27  1  0  0  0  0
 37 35  1  6  0  0  0
 37 41  1  0  0  0  0
 39 43  1  0  0  0  0
 41 29  1  1  0  0  0
 41 43  1  0  0  0  0
 42 33  1  0  0  0  0
 43 38  2  0  0  0  0
M  END
>  <MODEL>
3

>  <REMARK>
 VINA RESULT:      -4.7      3.317      7.982
  Name = 
  14 active torsions:
  status: ('A' for Active; 'I' for Inactive)
    1  A    between atoms: N_4  and  C_21
    2  A    between atoms: N_4  and  C_22
    3  A    between atoms: C_14  and  C_30
    4  A    between atoms: C_14  and  C_40
    5  A    between atoms: O_15  and  C_23
    6  A    between atoms: O_15  and  C_40
    7  A    between atoms: C_16  and  C_29
    8  A    between atoms: C_21  and  C_39
    9  A    between atoms: C_22  and  C_28
   10  A    between atoms: C_26  and  C_29
   11  A    between atoms: C_26  and  N_42
   12  A    between atoms: C_28  and  C_38
   13  A    between atoms: C_30  and  C_34
   14  A    between atoms: C_34  and  C_38
                            x       y       z     vdW  Elec       q    Type
                         _______ _______ _______ _____ _____    ______ ____

>  <TORSDO>
F 14

$$$$
=
 OpenBabel11072410103D

 43 47  0  0  1  0  0  0  0  0999 V2000
  161.8140  200.5160  148.4220 N   0  0  0  0  0  1  0  0  0  0  0  0
  160.5340  201.1950  148.2500 C   0  0  2  0  0  3  0  0  0  0  0  0
  161.2550  203.4250  148.9970 N   0  0  0  0  0  0  0  0  0  0  0  0
  160.7190  202.6630  147.8730 C   0  0  1  0  0  3  0  0  0  0  0  0
  161.0770  203.0900  150.2400 C   0  0  0  0  0  0  0  0  0  0  0  0
  160.3590  201.8060  150.6110 C   0  0  1  0  0  3  0  0  0  0  0  0
  159.7330  201.1120  149.4730 N   0  0  0  0  0  2  0  0  0  0  0  0
  161.2200  200.9460  151.2740 F   0  0  0  0  0  0  0  0  0  0  0  0
  161.6120  203.9150  151.2320 O   0  0  0  0  0  0  0  0  0  0  0  0
  160.8270  204.4330  152.2960 C   0  0  0  0  0  2  0  0  0  0  0  0
  161.6350  205.4560  153.0680 C   0  0  0  0  0  2  0  0  0  0  0  0
  160.6930  206.5150  153.6170 C   0  0  0  0  0  2  0  0  0  0  0  0
  161.3070  207.2070  154.8270 C   0  0  0  0  0  2  0  0  0  0  0  0
  160.3890  208.2860  155.4010 C   0  0  0  0  0  2  0  0  0  0  0  0
  161.1560  209.5590  155.7530 C   0  0  0  0  0  2  0  0  0  0  0  0
  160.2620  210.7890  155.7160 C   0  0  0  0  0  2  0  0  0  0  0  0
  158.9860  210.4760  155.0850 N   0  0  0  0  0  2  0  0  0  0  0  0
  156.9280  212.8510  155.1370 C   0  0  0  0  0  2  0  0  0  0  0  0
  159.2340  212.8450  154.7050 C   0  0  0  0  0  2  0  0  0  0  0  0
  158.1090  213.7750  155.0230 C   0  0  0  0  0  2  0  0  0  0  0  0
  157.1530  211.7460  154.3020 O   0  0  0  0  0  0  0  0  0  0  0  0
  158.5550  211.5790  154.2190 C   0  0  2  0  0  0  0  0  0  0  0  0
  159.2310  212.5760  151.9800 C   0  0  0  0  0  1  0  0  0  0  0  0
  158.9750  211.2980  152.7690 C   0  0  0  0  0  2  0  0  0  0  0  0
  161.5780  202.8420  146.6290 C   0  0  0  0  0  2  0  0  0  0  0  0
  161.2070  204.1340  145.9190 C   0  0  0  0  0  2  0  0  0  0  0  0
  161.9260  211.5480  148.9160 P   0  0  1  0  0  0  0  0  0  0  0  0
  163.4620  211.9420  148.3250 O   0  0  0  0  0  0  0  0  0  0  0  0
  162.3310  207.3170  150.1200 C   0  0  0  0  0  3  0  0  0  0  0  0
  162.8980  206.9070  147.7170 C   0  0  1  0  0  3  0  0  0  0  0  0
  161.9240  208.0400  147.3540 C   0  0  1  0  0  3  0  0  0  0  0  0
  162.8460  206.5150  149.1740 C   0  0  0  0  0  3  0  0  0  0  0  0
  162.6920  205.7020  146.7990 C   0  0  0  0  0  2  0  0  0  0  0  0
  160.4650  206.3120  146.2860 C   0  0  0  0  0  2  0  0  0  0  0  0
  161.2720  210.2650  148.0270 O   0  0  0  0  0  0  0  0  0  0  0  0
  160.4870  207.5210  147.2140 C   0  0  0  0  0  2  0  0  0  0  0  0
  162.0370  209.1530  148.4000 C   0  0  1  0  0  3  0  0  0  0  0  0
  161.9060  209.3330  152.1190 N   0  0  0  0  0  2  0  0  0  0  0  0
  162.0400  211.0260  150.5460 O   0  0  0  0  0  0  0  0  0  0  0  0
  161.0160  212.7520  148.8280 O   0  0  0  0  0  1  0  0  0  0  0  0
  161.6540  208.6340  149.8020 C   0  0  2  0  0  3  0  0  0  0  0  0
  161.3030  205.2490  146.8420 N   0  0  0  0  0  0  0  0  0  0  0  0
  161.9110  209.6730  150.8720 C   0  0  0  0  0  0  0  0  0  0  0  0
  2  1  1  1  0  0  0
  2  7  1  0  0  0  0
  3  5  2  0  0  0  0
  4 25  1  6  0  0  0
  4  2  1  0  0  0  0
  4  3  1  0  0  0  0
  5  6  1  0  0  0  0
  5  9  1  0  0  0  0
  6  8  1  6  0  0  0
  7  6  1  0  0  0  0
  9 10  1  0  0  0  0
 10 11  1  0  0  0  0
 11 12  1  0  0  0  0
 12 13  1  0  0  0  0
 13 14  1  0  0  0  0
 14 15  1  0  0  0  0
 16 15  1  0  0  0  0
 17 16  1  0  0  0  0
 19 20  1  0  0  0  0
 20 18  1  0  0  0  0
 21 18  1  0  0  0  0
 22 24  1  6  0  0  0
 22 21  1  0  0  0  0
 22 19  1  0  0  0  0
 22 17  1  0  0  0  0
 23 24  1  0  0  0  0
 26 25  1  0  0  0  0
 26 42  1  0  0  0  0
 27 28  2  6  0  0  0
 27 39  1  0  0  0  0
 30 33  1  6  0  0  0
 30 32  1  0  0  0  0
 31 36  1  1  0  0  0
 31 30  1  0  0  0  0
 31 37  1  0  0  0  0
 32 29  2  0  0  0  0
 33 42  1  0  0  0  0
 34 42  1  0  0  0  0
 34 36  1  0  0  0  0
 35 27  1  0  0  0  0
 37 35  1  6  0  0  0
 37 41  1  0  0  0  0
 39 43  1  0  0  0  0
 40 27  1  0  0  0  0
 41 29  1  1  0  0  0
 41 43  1  0  0  0  0
 43 38  2  0  0  0  0
M  END
>  <MODEL>
4

>  <REMARK>
 VINA RESULT:      -4.6      3.709      7.931
  Name = 
  14 active torsions:
  status: ('A' for Active; 'I' for Inactive)
    1  A    between atoms: N_4  and  C_21
    2  A    between atoms: N_4  and  C_22
    3  A    between atoms: C_14  and  C_30
    4  A    between atoms: C_14  and  C_40
    5  A    between atoms: O_15  and  C_23
    6  A    between atoms: O_15  and  C_40
    7  A    between atoms: C_16  and  C_29
    8  A    between atoms: C_21  and  C_39
    9  A    between atoms: C_22  and  C_28
   10  A    between atoms: C_26  and  C_29
   11  A    between atoms: C_26  and  N_42
   12  A    between atoms: C_28  and  C_38
   13  A    between atoms: C_30  and  C_34
   14  A    between atoms: C_34  and  C_38
                            x       y       z     vdW  Elec       q    Type
                         _______ _______ _______ _____ _____    ______ ____

>  <TORSDO>
F 14

$$$$
=
 OpenBabel11072410103D

 43 47  0  0  1  0  0  0  0  0999 V2000
  162.7750  206.8040  152.5970 N   0  0  0  0  0  1  0  0  0  0  0  0
  161.4830  207.2780  152.1140 C   0  0  2  0  0  3  0  0  0  0  0  0
  161.7390  209.6320  152.7790 N   0  0  0  0  0  0  0  0  0  0  0  0
  161.5510  208.7300  151.6460 C   0  0  1  0  0  3  0  0  0  0  0  0
  161.3510  209.3560  153.9880 C   0  0  0  0  0  0  0  0  0  0  0  0
  160.7440  208.0080  154.3280 C   0  0  1  0  0  3  0  0  0  0  0  0
  160.4620  207.1580  153.1570 N   0  0  0  0  0  2  0  0  0  0  0  0
  161.5510  207.3270  155.2240 F   0  0  0  0  0  0  0  0  0  0  0  0
  161.5580  210.3120  154.9850 O   0  0  0  0  0  0  0  0  0  0  0  0
  160.6100  211.3300  155.2710 C   0  0  0  0  0  2  0  0  0  0  0  0
  160.0890  211.9150  153.9750 C   0  0  0  0  0  2  0  0  0  0  0  0
  159.2240  213.1230  154.2930 C   0  0  0  0  0  2  0  0  0  0  0  0
  157.8470  212.9840  153.6550 C   0  0  0  0  0  2  0  0  0  0  0  0
  157.8860  213.2150  152.1450 C   0  0  0  0  0  2  0  0  0  0  0  0
  158.8680  214.3220  151.7630 C   0  0  0  0  0  2  0  0  0  0  0  0
  159.0170  214.4530  150.2540 C   0  0  0  0  0  2  0  0  0  0  0  0
  160.4240  214.4360  149.8760 N   0  0  0  0  0  2  0  0  0  0  0  0
  162.7080  213.8350  147.8000 C   0  0  0  0  0  2  0  0  0  0  0  0
  161.3280  212.3730  149.0110 C   0  0  0  0  0  2  0  0  0  0  0  0
  162.5790  212.3890  148.1930 C   0  0  0  0  0  2  0  0  0  0  0  0
  161.4200  214.3880  147.7330 O   0  0  0  0  0  0  0  0  0  0  0  0
  160.6170  213.6620  148.6440 C   0  0  2  0  0  0  0  0  0  0  0  0
  159.3600  213.0440  146.5230 C   0  0  0  0  0  1  0  0  0  0  0  0
  159.2560  213.3350  148.0150 C   0  0  0  0  0  2  0  0  0  0  0  0
  162.6190  208.9510  150.5850 C   0  0  0  0  0  2  0  0  0  0  0  0
  162.0540  208.6540  149.2050 C   0  0  0  0  0  2  0  0  0  0  0  0
  160.4800  201.4520  146.0230 P   0  0  1  0  0  0  0  0  0  0  0  0
  158.8270  201.6390  145.7090 O   0  0  0  0  0  1  0  0  0  0  0  0
  161.0200  203.4160  149.9430 C   0  0  0  0  0  3  0  0  0  0  0  0
  160.1840  205.4740  148.7900 C   0  0  1  0  0  3  0  0  0  0  0  0
  160.8740  204.9700  147.5130 C   0  0  1  0  0  3  0  0  0  0  0  0
  160.5220  204.6610  150.0160 C   0  0  0  0  0  3  0  0  0  0  0  0
  160.4620  206.9630  149.0040 C   0  0  0  0  0  2  0  0  0  0  0  0
  162.4430  206.9080  147.7120 C   0  0  0  0  0  2  0  0  0  0  0  0
  161.2120  202.9670  146.2070 O   0  0  0  0  0  0  0  0  0  0  0  0
  162.3440  205.4080  147.4590 C   0  0  0  0  0  2  0  0  0  0  0  0
  160.7220  203.4480  147.4280 C   0  0  1  0  0  3  0  0  0  0  0  0
  161.3720  200.5770  149.7110 N   0  0  0  0  0  2  0  0  0  0  0  0
  160.7050  200.6000  147.4940 O   0  0  0  0  0  0  0  0  0  0  0  0
  161.1370  200.6980  144.8900 O   0  0  0  0  0  0  0  0  0  0  0  0
  161.3960  202.7570  148.6320 C   0  0  2  0  0  3  0  0  0  0  0  0
  161.8990  207.2210  149.0340 N   0  0  0  0  0  0  0  0  0  0  0  0
  161.1210  201.2690  148.6480 C   0  0  0  0  0  0  0  0  0  0  0  0
  2  1  1  1  0  0  0
  2  7  1  0  0  0  0
  3  5  2  0  0  0  0
  4 25  1  6  0  0  0
  4  2  1  0  0  0  0
  4  3  1  0  0  0  0
  5  6  1  0  0  0  0
  5  9  1  0  0  0  0
  6  8  1  1  0  0  0
  7  6  1  0  0  0  0
  9 10  1  0  0  0  0
 11 12  1  0  0  0  0
 11 10  1  0  0  0  0
 13 12  1  0  0  0  0
 14 13  1  0  0  0  0
 15 14  1  0  0  0  0
 16 15  1  0  0  0  0
 17 16  1  0  0  0  0
 18 20  1  0  0  0  0
 20 19  1  0  0  0  0
 21 18  1  0  0  0  0
 21 22  1  0  0  0  0
 22 24  1  6  0  0  0
 22 19  1  0  0  0  0
 22 17  1  0  0  0  0
 23 24  1  0  0  0  0
 26 25  1  0  0  0  0
 27 40  2  6  0  0  0
 27 35  1  0  0  0  0
 27 39  1  0  0  0  0
 28 27  1  0  0  0  0
 29 32  2  0  0  0  0
 30 33  1  1  0  0  0
 30 32  1  0  0  0  0
 31 36  1  1  0  0  0
 31 30  1  0  0  0  0
 33 42  1  0  0  0  0
 34 42  1  0  0  0  0
 36 34  1  0  0  0  0
 37 35  1  6  0  0  0
 37 31  1  0  0  0  0
 37 41  1  0  0  0  0
 39 43  1  0  0  0  0
 41 43  1  0  0  0  0
 41 29  1  1  0  0  0
 42 26  1  0  0  0  0
 43 38  2  0  0  0  0
M  END
>  <MODEL>
5

>  <REMARK>
 VINA RESULT:      -4.3      2.176      3.248
  Name = 
  14 active torsions:
  status: ('A' for Active; 'I' for Inactive)
    1  A    between atoms: N_4  and  C_21
    2  A    between atoms: N_4  and  C_22
    3  A    between atoms: C_14  and  C_30
    4  A    between atoms: C_14  and  C_40
    5  A    between atoms: O_15  and  C_23
    6  A    between atoms: O_15  and  C_40
    7  A    between atoms: C_16  and  C_29
    8  A    between atoms: C_21  and  C_39
    9  A    between atoms: C_22  and  C_28
   10  A    between atoms: C_26  and  C_29
   11  A    between atoms: C_26  and  N_42
   12  A    between atoms: C_28  and  C_38
   13  A    between atoms: C_30  and  C_34
   14  A    between atoms: C_34  and  C_38
                            x       y       z     vdW  Elec       q    Type
                         _______ _______ _______ _____ _____    ______ ____

>  <TORSDO>
F 14

$$$$
=
 OpenBabel11072410103D

 43 47  0  0  1  0  0  0  0  0999 V2000
  159.3440  210.6320  154.0750 N   0  0  0  0  0  1  0  0  0  0  0  0
  160.7720  210.9290  154.0380 C   0  0  2  0  0  3  0  0  0  0  0  0
  161.5130  208.7970  153.0600 N   0  0  0  0  0  0  0  0  0  0  0  0
  161.4620  210.2430  152.8610 C   0  0  1  0  0  3  0  0  0  0  0  0
  161.5110  208.2330  154.2300 C   0  0  0  0  0  0  0  0  0  0  0  0
  161.3610  209.0560  155.4960 C   0  0  1  0  0  3  0  0  0  0  0  0
  161.4220  210.5130  155.2820 N   0  0  0  0  0  2  0  0  0  0  0  0
  160.1880  208.7230  156.1520 F   0  0  0  0  0  0  0  0  0  0  0  0
  161.5950  206.8410  154.2960 O   0  0  0  0  0  0  0  0  0  0  0  0
  161.0370  205.9970  153.3000 C   0  0  0  0  0  2  0  0  0  0  0  0
  160.7480  206.8070  152.0540 C   0  0  0  0  0  2  0  0  0  0  0  0
  160.9520  205.9230  150.8340 C   0  0  0  0  0  2  0  0  0  0  0  0
  161.6070  204.6050  151.2260 C   0  0  0  0  0  2  0  0  0  0  0  0
  160.7290  203.4010  150.8850 C   0  0  0  0  0  2  0  0  0  0  0  0
  160.4020  203.3390  149.3940 C   0  0  0  0  0  2  0  0  0  0  0  0
  161.5640  203.8210  148.5370 C   0  0  0  0  0  2  0  0  0  0  0  0
  161.1900  203.8340  147.1290 N   0  0  0  0  0  2  0  0  0  0  0  0
  161.3180  205.0800  144.2450 C   0  0  0  0  0  2  0  0  0  0  0  0
  160.5020  205.9760  146.2550 C   0  0  0  0  0  2  0  0  0  0  0  0
  160.4790  206.2080  144.7790 C   0  0  0  0  0  2  0  0  0  0  0  0
  162.2620  204.7340  145.2240 O   0  0  0  0  0  0  0  0  0  0  0  0
  161.6850  205.0510  146.4760 C   0  0  2  0  0  0  0  0  0  0  0  0
  162.4200  207.2300  147.5610 C   0  0  0  0  0  1  0  0  0  0  0  0
  162.7140  205.7460  147.3790 C   0  0  0  0  0  2  0  0  0  0  0  0
  160.8200  210.5910  151.5260 C   0  0  0  0  0  2  0  0  0  0  0  0
  161.7230  211.5280  150.7400 C   0  0  0  0  0  2  0  0  0  0  0  0
  160.2410  213.1930  143.0260 P   0  0  1  0  0  0  0  0  0  0  0  0
  161.3980  214.4010  142.7720 O   0  0  0  0  0  1  0  0  0  0  0  0
  158.6980  214.0670  147.0720 C   0  0  0  0  0  3  0  0  0  0  0  0
  161.0620  213.7210  147.8190 C   0  0  1  0  0  3  0  0  0  0  0  0
  161.1980  212.6670  146.7080 C   0  0  1  0  0  3  0  0  0  0  0  0
  159.6470  214.2110  148.0120 C   0  0  0  0  0  3  0  0  0  0  0  0
  161.6680  213.2110  149.1260 C   0  0  0  0  0  2  0  0  0  0  0  0
  161.4130  210.9420  148.5060 C   0  0  0  0  0  2  0  0  0  0  0  0
  160.6460  212.2770  144.3900 O   0  0  0  0  0  0  0  0  0  0  0  0
  160.7320  211.2860  147.1860 C   0  0  0  0  0  2  0  0  0  0  0  0
  160.4270  213.1400  145.4710 C   0  0  1  0  0  3  0  0  0  0  0  0
  156.9790  214.3740  144.7940 N   0  0  0  0  0  2  0  0  0  0  0  0
  158.7090  213.9020  143.3310 O   0  0  0  0  0  0  0  0  0  0  0  0
  160.1560  212.2980  141.8110 O   0  0  0  0  0  0  0  0  0  0  0  0
  158.9250  213.3030  145.7850 C   0  0  2  0  0  3  0  0  0  0  0  0
  161.0610  211.9400  149.5160 N   0  0  0  0  0  0  0  0  0  0  0  0
  158.1760  213.9190  144.6230 C   0  0  0  0  0  0  0  0  0  0  0  0
  2  1  1  1  0  0  0
  2  7  1  0  0  0  0
  3  5  2  0  0  0  0
  4 25  1  6  0  0  0
  4  3  1  0  0  0  0
  4  2  1  0  0  0  0
  5  9  1  0  0  0  0
  5  6  1  0  0  0  0
  6  8  1  6  0  0  0
  7  6  1  0  0  0  0
 10  9  1  0  0  0  0
 11 10  1  0  0  0  0
 12 13  1  0  0  0  0
 12 11  1  0  0  0  0
 14 13  1  0  0  0  0
 15 14  1  0  0  0  0
 16 15  1  0  0  0  0
 17 16  1  0  0  0  0
 18 20  1  0  0  0  0
 18 21  1  0  0  0  0
 19 22  1  0  0  0  0
 20 19  1  0  0  0  0
 21 22  1  0  0  0  0
 22 17  1  0  0  0  0
 22 24  1  1  0  0  0
 24 23  1  0  0  0  0
 26 25  1  0  0  0  0
 27 40  2  6  0  0  0
 27 39  1  0  0  0  0
 27 35  1  0  0  0  0
 28 27  1  0  0  0  0
 29 32  2  0  0  0  0
 30 32  1  1  0  0  0
 30 33  1  0  0  0  0
 31 36  1  1  0  0  0
 31 30  1  0  0  0  0
 33 42  1  0  0  0  0
 34 42  1  0  0  0  0
 36 34  1  0  0  0  0
 37 35  1  6  0  0  0
 37 41  1  0  0  0  0
 37 31  1  0  0  0  0
 39 43  1  0  0  0  0
 41 29  1  1  0  0  0
 42 26  1  0  0  0  0
 43 38  2  0  0  0  0
 43 41  1  0  0  0  0
M  END
>  <MODEL>
6

>  <REMARK>
 VINA RESULT:      -4.2      2.577      7.418
  Name = 
  14 active torsions:
  status: ('A' for Active; 'I' for Inactive)
    1  A    between atoms: N_4  and  C_21
    2  A    between atoms: N_4  and  C_22
    3  A    between atoms: C_14  and  C_30
    4  A    between atoms: C_14  and  C_40
    5  A    between atoms: O_15  and  C_23
    6  A    between atoms: O_15  and  C_40
    7  A    between atoms: C_16  and  C_29
    8  A    between atoms: C_21  and  C_39
    9  A    between atoms: C_22  and  C_28
   10  A    between atoms: C_26  and  C_29
   11  A    between atoms: C_26  and  N_42
   12  A    between atoms: C_28  and  C_38
   13  A    between atoms: C_30  and  C_34
   14  A    between atoms: C_34  and  C_38
                            x       y       z     vdW  Elec       q    Type
                         _______ _______ _______ _____ _____    ______ ____

>  <TORSDO>
F 14

$$$$
=
 OpenBabel11072410103D

 43 47  0  0  1  0  0  0  0  0999 V2000
  160.5090  204.5240  148.5310 N   0  0  0  0  0  1  0  0  0  0  0  0
  161.9440  204.6270  148.2920 C   0  0  2  0  0  3  0  0  0  0  0  0
  161.8620  206.4620  146.6550 N   0  0  0  0  0  0  0  0  0  0  0  0
  162.3630  206.0590  147.9660 C   0  0  1  0  0  3  0  0  0  0  0  0
  161.6130  205.6240  145.6940 C   0  0  0  0  0  0  0  0  0  0  0  0
  161.7430  204.1280  145.9060 C   0  0  1  0  0  3  0  0  0  0  0  0
  162.3520  203.7490  147.1930 N   0  0  0  0  0  2  0  0  0  0  0  0
  160.5100  203.5110  145.7660 F   0  0  0  0  0  0  0  0  0  0  0  0
  161.1660  206.1310  144.4720 O   0  0  0  0  0  0  0  0  0  0  0  0
  161.5820  205.5910  143.2260 C   0  0  0  0  0  2  0  0  0  0  0  0
  161.5440  206.6730  142.1680 C   0  0  0  0  0  2  0  0  0  0  0  0
  162.3310  206.2040  140.9560 C   0  0  0  0  0  2  0  0  0  0  0  0
  161.9590  207.0190  139.7230 C   0  0  0  0  0  2  0  0  0  0  0  0
  162.0800  208.5220  139.9680 C   0  0  0  0  0  2  0  0  0  0  0  0
  161.3070  209.3330  138.9290 C   0  0  0  0  0  2  0  0  0  0  0  0
  160.9470  210.7190  139.4440 C   0  0  0  0  0  2  0  0  0  0  0  0
  161.0830  210.7770  140.8950 N   0  0  0  0  0  2  0  0  0  0  0  0
  162.3320  212.5880  143.1400 C   0  0  0  0  0  2  0  0  0  0  0  0
  162.1990  212.9150  140.8200 C   0  0  0  0  0  2  0  0  0  0  0  0
  162.8970  213.4360  142.0340 C   0  0  0  0  0  2  0  0  0  0  0  0
  161.0320  212.2030  142.7780 O   0  0  0  0  0  0  0  0  0  0  0  0
  160.9980  212.1640  141.3650 C   0  0  2  0  0  0  0  0  0  0  0  0
  158.8290  213.3450  141.9680 C   0  0  0  0  0  1  0  0  0  0  0  0
  159.7090  212.8140  140.8430 C   0  0  0  0  0  2  0  0  0  0  0  0
  161.9400  207.0480  149.0430 C   0  0  0  0  0  2  0  0  0  0  0  0
  162.8060  206.8760  150.2800 C   0  0  0  0  0  2  0  0  0  0  0  0
  158.1990  211.7530  154.6910 P   0  0  1  0  0  0  0  0  0  0  0  0
  158.0240  213.0370  153.6020 O   0  0  0  0  0  0  0  0  0  0  0  0
  162.4210  210.5470  154.2080 C   0  0  0  0  0  3  0  0  0  0  0  0
  161.8000  210.0990  151.8250 C   0  0  1  0  0  3  0  0  0  0  0  0
  160.4070  209.6850  152.3260 C   0  0  1  0  0  3  0  0  0  0  0  0
  162.7950  210.3250  152.9370 C   0  0  0  0  0  3  0  0  0  0  0  0
  162.3220  209.0990  150.7920 C   0  0  0  0  0  2  0  0  0  0  0  0
  160.9440  207.3530  151.5980 C   0  0  0  0  0  2  0  0  0  0  0  0
  158.6740  210.3520  153.8690 O   0  0  0  0  0  0  0  0  0  0  0  0
  160.3710  208.2040  152.7260 C   0  0  0  0  0  2  0  0  0  0  0  0
  159.9960  210.6040  153.4800 C   0  0  1  0  0  3  0  0  0  0  0  0
  161.5470  211.7160  156.6790 N   0  0  0  0  0  2  0  0  0  0  0  0
  159.4300  212.1130  155.8290 O   0  0  0  0  0  0  0  0  0  0  0  0
  156.8930  211.5090  155.4120 O   0  0  0  0  0  1  0  0  0  0  0  0
  160.9780  210.4790  154.6640 C   0  0  2  0  0  3  0  0  0  0  0  0
  162.3300  207.7450  151.3410 N   0  0  0  0  0  0  0  0  0  0  0  0
  160.6800  211.4920  155.7470 C   0  0  0  0  0  0  0  0  0  0  0  0
  2  1  1  6  0  0  0
  3  4  1  0  0  0  0
  4  2  1  0  0  0  0
  4 25  1  1  0  0  0
  5  6  1  0  0  0  0
  5  3  2  0  0  0  0
  6  8  1  1  0  0  0
  6  7  1  0  0  0  0
  7  2  1  0  0  0  0
  9  5  1  0  0  0  0
 10  9  1  0  0  0  0
 11 10  1  0  0  0  0
 12 11  1  0  0  0  0
 13 14  1  0  0  0  0
 13 12  1  0  0  0  0
 15 16  1  0  0  0  0
 15 14  1  0  0  0  0
 16 17  1  0  0  0  0
 17 22  1  0  0  0  0
 19 22  1  0  0  0  0
 19 20  1  0  0  0  0
 20 18  1  0  0  0  0
 21 18  1  0  0  0  0
 22 24  1  6  0  0  0
 22 21  1  0  0  0  0
 24 23  1  0  0  0  0
 25 26  1  0  0  0  0
 26 42  1  0  0  0  0
 27 28  2  6  0  0  0
 27 40  1  0  0  0  0
 27 39  1  0  0  0  0
 30 33  1  6  0  0  0
 30 31  1  0  0  0  0
 30 32  1  0  0  0  0
 31 36  1  1  0  0  0
 31 37  1  0  0  0  0
 32 29  2  0  0  0  0
 33 42  1  0  0  0  0
 34 36  1  0  0  0  0
 35 27  1  0  0  0  0
 37 35  1  1  0  0  0
 37 41  1  0  0  0  0
 41 29  1  6  0  0  0
 41 43  1  0  0  0  0
 42 34  1  0  0  0  0
 43 39  1  0  0  0  0
 43 38  2  0  0  0  0
M  END
>  <MODEL>
7

>  <REMARK>
 VINA RESULT:      -3.6      4.352      9.309
  Name = 
  14 active torsions:
  status: ('A' for Active; 'I' for Inactive)
    1  A    between atoms: N_4  and  C_21
    2  A    between atoms: N_4  and  C_22
    3  A    between atoms: C_14  and  C_30
    4  A    between atoms: C_14  and  C_40
    5  A    between atoms: O_15  and  C_23
    6  A    between atoms: O_15  and  C_40
    7  A    between atoms: C_16  and  C_29
    8  A    between atoms: C_21  and  C_39
    9  A    between atoms: C_22  and  C_28
   10  A    between atoms: C_26  and  C_29
   11  A    between atoms: C_26  and  N_42
   12  A    between atoms: C_28  and  C_38
   13  A    between atoms: C_30  and  C_34
   14  A    between atoms: C_34  and  C_38
                            x       y       z     vdW  Elec       q    Type
                         _______ _______ _______ _____ _____    ______ ____

>  <TORSDO>
F 14

$$$$
=
 OpenBabel11072410103D

 43 47  0  0  1  0  0  0  0  0999 V2000
  162.5400  204.7190  147.4150 N   0  0  0  0  0  1  0  0  0  0  0  0
  162.4520  205.9910  146.7070 C   0  0  2  0  0  3  0  0  0  0  0  0
  160.0530  205.8920  146.1740 N   0  0  0  0  0  0  0  0  0  0  0  0
  161.0830  206.6440  146.8840 C   0  0  1  0  0  3  0  0  0  0  0  0
  160.2920  205.1590  145.1290 C   0  0  0  0  0  0  0  0  0  0  0  0
  161.7070  204.9590  144.6180 C   0  0  1  0  0  3  0  0  0  0  0  0
  162.7140  205.8100  145.2770 N   0  0  0  0  0  2  0  0  0  0  0  0
  162.0730  203.6270  144.7200 F   0  0  0  0  0  0  0  0  0  0  0  0
  159.2190  204.5100  144.5140 O   0  0  0  0  0  0  0  0  0  0  0  0
  159.3320  203.2040  143.9660 C   0  0  0  0  0  2  0  0  0  0  0  0
  159.4790  202.1970  145.0870 C   0  0  0  0  0  2  0  0  0  0  0  0
  159.7070  200.8200  144.4840 C   0  0  0  0  0  2  0  0  0  0  0  0
  160.6000  199.9770  145.3860 C   0  0  0  0  0  2  0  0  0  0  0  0
  161.1330  200.7750  146.5760 C   0  0  0  0  0  2  0  0  0  0  0  0
  161.7660  199.8690  147.6300 C   0  0  0  0  0  2  0  0  0  0  0  0
  161.9230  200.5780  148.9680 C   0  0  0  0  0  2  0  0  0  0  0  0
  161.3630  201.9230  148.9020 N   0  0  0  0  0  2  0  0  0  0  0  0
  161.7620  203.4030  151.6470 C   0  0  0  0  0  2  0  0  0  0  0  0
  160.0960  203.6490  150.0130 C   0  0  0  0  0  2  0  0  0  0  0  0
  160.6560  204.3280  151.2200 C   0  0  0  0  0  2  0  0  0  0  0  0
  161.4180  202.0990  151.2580 O   0  0  0  0  0  0  0  0  0  0  0  0
  160.5930  202.2200  150.1150 C   0  0  2  0  0  0  0  0  0  0  0  0
  158.4960  201.3280  148.9880 C   0  0  0  0  0  1  0  0  0  0  0  0
  159.3940  201.2670  150.2180 C   0  0  0  0  0  2  0  0  0  0  0  0
  160.7140  206.8340  148.3480 C   0  0  0  0  0  2  0  0  0  0  0  0
  161.8340  207.5530  149.0810 C   0  0  0  0  0  2  0  0  0  0  0  0
  161.3960  210.2950  156.6150 P   0  0  1  0  0  0  0  0  0  0  0  0
  163.0290  210.1860  157.0500 O   0  0  0  0  0  0  0  0  0  0  0  0
  160.6980  206.6190  154.2670 C   0  0  0  0  0  3  0  0  0  0  0  0
  162.4690  207.5120  152.7390 C   0  0  1  0  0  3  0  0  0  0  0  0
  161.9630  208.9250  153.0730 C   0  0  1  0  0  3  0  0  0  0  0  0
  161.5810  206.4150  153.2750 C   0  0  0  0  0  3  0  0  0  0  0  0
  162.7060  207.3640  151.2360 C   0  0  0  0  0  2  0  0  0  0  0  0
  161.2030  209.1090  150.6970 C   0  0  0  0  0  2  0  0  0  0  0  0
  161.2410  210.2880  154.9300 O   0  0  0  0  0  0  0  0  0  0  0  0
  160.8090  209.3400  152.1520 C   0  0  0  0  0  2  0  0  0  0  0  0
  161.5700  208.9800  154.5520 C   0  0  1  0  0  3  0  0  0  0  0  0
  159.4070  206.9530  156.8080 N   0  0  0  0  0  2  0  0  0  0  0  0
  160.5390  208.9330  157.2070 O   0  0  0  0  0  0  0  0  0  0  0  0
  160.7970  211.5620  157.1820 O   0  0  0  0  0  1  0  0  0  0  0  0
  160.4290  207.9870  154.8580 C   0  0  2  0  0  3  0  0  0  0  0  0
  161.4960  207.6910  150.4860 N   0  0  0  0  0  0  0  0  0  0  0  0
  160.1350  207.9140  156.3400 C   0  0  0  0  0  0  0  0  0  0  0  0
  2  4  1  0  0  0  0
  2  1  1  1  0  0  0
  3  4  1  0  0  0  0
  4 25  1  1  0  0  0
  5  3  2  0  0  0  0
  6  8  1  1  0  0  0
  6  5  1  0  0  0  0
  6  7  1  0  0  0  0
  7  2  1  0  0  0  0
  9  5  1  0  0  0  0
 10  9  1  0  0  0  0
 10 11  1  0  0  0  0
 12 11  1  0  0  0  0
 12 13  1  0  0  0  0
 13 14  1  0  0  0  0
 14 15  1  0  0  0  0
 15 16  1  0  0  0  0
 17 16  1  0  0  0  0
 17 22  1  0  0  0  0
 19 22  1  0  0  0  0
 19 20  1  0  0  0  0
 20 18  1  0  0  0  0
 21 18  1  0  0  0  0
 22 24  1  1  0  0  0
 22 21  1  0  0  0  0
 23 24  1  0  0  0  0
 25 26  1  0  0  0  0
 26 42  1  0  0  0  0
 27 28  2  1  0  0  0
 27 40  1  0  0  0  0
 27 39  1  0  0  0  0
 30 33  1  6  0  0  0
 30 31  1  0  0  0  0
 30 32  1  0  0  0  0
 31 36  1  6  0  0  0
 31 37  1  0  0  0  0
 32 29  2  0  0  0  0
 34 36  1  0  0  0  0
 35 27  1  0  0  0  0
 37 41  1  0  0  0  0
 37 35  1  6  0  0  0
 41 29  1  1  0  0  0
 41 43  1  0  0  0  0
 42 34  1  0  0  0  0
 42 33  1  0  0  0  0
 43 38  2  0  0  0  0
 43 39  1  0  0  0  0
M  END
>  <MODEL>
8

>  <REMARK>
 VINA RESULT:      -3.6      4.730     10.624
  Name = 
  14 active torsions:
  status: ('A' for Active; 'I' for Inactive)
    1  A    between atoms: N_4  and  C_21
    2  A    between atoms: N_4  and  C_22
    3  A    between atoms: C_14  and  C_30
    4  A    between atoms: C_14  and  C_40
    5  A    between atoms: O_15  and  C_23
    6  A    between atoms: O_15  and  C_40
    7  A    between atoms: C_16  and  C_29
    8  A    between atoms: C_21  and  C_39
    9  A    between atoms: C_22  and  C_28
   10  A    between atoms: C_26  and  C_29
   11  A    between atoms: C_26  and  N_42
   12  A    between atoms: C_28  and  C_38
   13  A    between atoms: C_30  and  C_34
   14  A    between atoms: C_34  and  C_38
                            x       y       z     vdW  Elec       q    Type
                         _______ _______ _______ _____ _____    ______ ____

>  <TORSDO>
F 14

$$$$
