=
 OpenBabel11072413043D

 37 42  0  0  1  0  0  0  0  0999 V2000
  160.7920  210.1630  152.5280 C   0  0  0  0  0  0  0  0  0  0  0  0
  160.7330  209.9250  147.7710 O   0  0  0  0  0  0  0  0  0  0  0  0
  161.1220  212.2160  150.5050 C   0  0  0  0  0  3  0  0  0  0  0  0
  159.0800  213.2450  151.2880 C   0  0  0  0  0  3  0  0  0  0  0  0
  161.2970  209.7880  151.3840 N   0  0  0  0  0  0  0  0  0  0  0  0
  161.6370  212.5720  146.7650 C   0  0  0  0  0  2  0  0  0  0  0  0
  161.7430  210.4880  148.1730 C   0  0  0  0  0  0  0  0  0  0  0  0
  162.9130  209.6670  148.6950 C   0  0  0  0  0  2  0  0  0  0  0  0
  160.1730  211.4690  152.6200 N   0  0  0  0  0  2  0  0  0  0  0  0
  161.0130  209.3760  153.7610 C   0  0  0  0  0  0  0  0  0  0  0  0
  160.9930  207.0590  152.6090 C   0  0  0  0  0  0  0  0  0  0  0  0
  161.6690  207.4900  151.5390 N   0  0  0  0  0  0  0  0  0  0  0  0
  161.6090  206.5980  150.5740 C   0  0  0  0  0  0  0  0  0  0  0  0
  162.5900  208.5190  149.6960 C   0  0  1  0  0  3  0  0  0  0  0  0
  158.9180  213.8200  150.0080 C   0  0  0  0  0  3  0  0  0  0  0  0
  160.1790  212.3990  151.5190 C   0  0  0  0  0  0  0  0  0  0  0  0
  162.2640  208.7350  151.1900 C   0  0  1  0  0  3  0  0  0  0  0  0
  162.1140  207.1020  149.2580 C   0  0  2  0  0  3  0  0  0  0  0  0
  159.8060  213.5000  148.9650 C   0  0  0  0  0  3  0  0  0  0  0  0
  160.7030  207.8790  153.8480 C   0  0  1  0  0  3  0  0  0  0  0  0
  160.9780  205.4570  151.0540 C   0  0  0  0  0  0  0  0  0  0  0  0
  163.1380  214.4530  148.0770 S   0  0  0  0  0  1  0  0  0  0  0  0
  161.4060  207.2380  155.0460 C   0  0  0  0  0  1  0  0  0  0  0  0
  161.3400  209.9960  154.8070 O   0  0  0  0  0  0  0  0  0  0  0  0
  161.7640  212.0100  148.1710 C   0  0  1  0  0  0  0  0  0  0  0  0
  162.9540  212.7250  147.5230 C   0  0  1  0  0  3  0  0  0  0  0  0
  160.9260  212.6880  149.2270 C   0  0  0  0  0  0  0  0  0  0  0  0
  160.5520  205.7620  152.3600 C   0  0  0  0  0  3  0  0  0  0  0  0
  160.9560  207.2110  148.2870 C   0  0  0  0  0  1  0  0  0  0  0  0
  159.5550  203.8110  150.1070 F   0  0  0  0  0  0  0  0  0  0  0  0
  160.8780  204.0780  150.4230 C   0  0  0  0  0  0  0  0  0  0  0  0
  161.5860  204.0940  149.2290 F   0  0  0  0  0  0  0  0  0  0  0  0
  162.5840  203.4230  151.9210 F   0  0  0  0  0  0  0  0  0  0  0  0
  161.4380  202.9370  151.2960 C   0  0  1  0  0  0  0  0  0  0  0  0
  160.4220  202.5690  152.3870 C   0  0  0  0  0  1  0  0  0  0  0  0
  161.7410  201.8270  150.4790 O   0  0  0  0  0  0  0  0  0  0  0  0
  160.5560  201.1840  150.0880 C   0  0  0  0  0  1  0  0  0  0  0  0
  1  9  1  0  0  0  0
  1 10  1  0  0  0  0
  2  7  2  0  0  0  0
  3 16  1  0  0  0  0
  4 16  2  0  0  0  0
  5  1  2  0  0  0  0
  6 26  1  0  0  0  0
  7  8  1  0  0  0  0
 10 20  1  0  0  0  0
 10 24  2  0  0  0  0
 11 20  1  0  0  0  0
 12 11  1  0  0  0  0
 13 21  2  0  0  0  0
 13 12  1  0  0  0  0
 14  8  1  6  0  0  0
 14 17  1  0  0  0  0
 15  4  1  0  0  0  0
 16  9  1  0  0  0  0
 17  5  1  6  0  0  0
 17 12  1  0  0  0  0
 18 29  1  6  0  0  0
 18 14  1  0  0  0  0
 18 13  1  0  0  0  0
 19 27  1  0  0  0  0
 19 15  2  0  0  0  0
 20 23  1  1  0  0  0
 21 28  1  0  0  0  0
 25  6  1  6  0  0  0
 25  7  1  0  0  0  0
 25 27  1  0  0  0  0
 26 22  1  1  0  0  0
 26 25  1  0  0  0  0
 27  3  2  0  0  0  0
 28 11  2  0  0  0  0
 30 31  1  0  0  0  0
 31 21  1  0  0  0  0
 31 34  1  0  0  0  0
 32 31  1  0  0  0  0
 34 33  1  0  0  0  0
 34 35  1  1  0  0  0
 36 34  1  0  0  0  0
 37 36  1  0  0  0  0
M  END
>  <MODEL>
1

>  <REMARK>
 VINA RESULT:      -4.5      0.000      0.000
  Name = 
  3 active torsions:
  status: ('A' for Active; 'I' for Inactive)
    1  A    between atoms: O_3  and  C_22
    2  A    between atoms: C_10  and  C_22
    3  A    between atoms: C_10  and  C_26
                            x       y       z     vdW  Elec       q    Type
                         _______ _______ _______ _____ _____    ______ ____

>  <TORSDO>
F 3

$$$$
=
 OpenBabel11072413043D

 37 42  0  0  1  0  0  0  0  0999 V2000
  160.8800  209.3460  152.1700 C   0  0  0  0  0  0  0  0  0  0  0  0
  160.7750  210.0010  147.4540 O   0  0  0  0  0  0  0  0  0  0  0  0
  161.1380  211.7490  150.5650 C   0  0  0  0  0  3  0  0  0  0  0  0
  159.0800  212.5610  151.5400 C   0  0  0  0  0  3  0  0  0  0  0  0
  161.3820  209.2050  150.9730 N   0  0  0  0  0  0  0  0  0  0  0  0
  161.6030  212.8120  146.9550 C   0  0  0  0  0  2  0  0  0  0  0  0
  161.7760  210.5050  147.9470 C   0  0  0  0  0  0  0  0  0  0  0  0
  162.9700  209.6310  148.2990 C   0  0  0  0  0  2  0  0  0  0  0  0
  160.2310  210.5960  152.5090 N   0  0  0  0  0  2  0  0  0  0  0  0
  161.1340  208.3490  153.2320 C   0  0  0  0  0  0  0  0  0  0  0  0
  161.1580  206.2880  151.6670 C   0  0  0  0  0  0  0  0  0  0  0  0
  161.8110  206.9290  150.6930 N   0  0  0  0  0  0  0  0  0  0  0  0
  161.7620  206.2320  149.5780 C   0  0  0  0  0  0  0  0  0  0  0  0
  162.6860  208.3080  149.0690 C   0  0  1  0  0  3  0  0  0  0  0  0
  158.8900  213.3600  150.3920 C   0  0  0  0  0  3  0  0  0  0  0  0
  160.2020  211.7150  151.6020 C   0  0  0  0  0  0  0  0  0  0  0  0
  162.3720  208.2330  150.5800 C   0  0  1  0  0  3  0  0  0  0  0  0
  162.2400  206.9870  148.3760 C   0  0  2  0  0  3  0  0  0  0  0  0
  159.7740  213.2640  149.3020 C   0  0  0  0  0  3  0  0  0  0  0  0
  160.8610  206.8540  153.0390 C   0  0  1  0  0  3  0  0  0  0  0  0
  161.1640  205.0060  149.8400 C   0  0  0  0  0  0  0  0  0  0  0  0
  163.0720  214.4530  148.5870 S   0  0  0  0  0  1  0  0  0  0  0  0
  161.5930  206.0190  154.0920 C   0  0  0  0  0  1  0  0  0  0  0  0
  161.4570  208.7700  154.3740 O   0  0  0  0  0  0  0  0  0  0  0  0
  161.7590  212.0000  148.2310 C   0  0  1  0  0  0  0  0  0  0  0  0
  162.9250  212.8550  147.7210 C   0  0  1  0  0  3  0  0  0  0  0  0
  160.9160  212.4470  149.4000 C   0  0  0  0  0  0  0  0  0  0  0  0
  160.7460  205.0500  151.1820 C   0  0  0  0  0  3  0  0  0  0  0  0
  161.0700  207.2460  147.4510 C   0  0  0  0  0  1  0  0  0  0  0  0
  160.0240  203.8860  148.0870 F   0  0  0  0  0  0  0  0  0  0  0  0
  161.0910  203.7670  148.9630 C   0  0  0  0  0  0  0  0  0  0  0  0
  162.2450  203.7110  148.1920 F   0  0  0  0  0  0  0  0  0  0  0  0
  161.2410  202.7260  151.0790 F   0  0  0  0  0  0  0  0  0  0  0  0
  160.9720  202.4410  149.7410 C   0  0  1  0  0  0  0  0  0  0  0  0
  159.5340  201.9110  149.6490 C   0  0  0  0  0  1  0  0  0  0  0  0
  161.8990  201.5100  149.2280 O   0  0  0  0  0  0  0  0  0  0  0  0
  161.2350  200.5720  148.4210 C   0  0  0  0  0  1  0  0  0  0  0  0
  1  9  1  0  0  0  0
  1 10  1  0  0  0  0
  2  7  2  0  0  0  0
  3 16  1  0  0  0  0
  4 16  2  0  0  0  0
  5  1  2  0  0  0  0
  6 26  1  0  0  0  0
  7 25  1  0  0  0  0
  7  8  1  0  0  0  0
 10 24  2  0  0  0  0
 11 20  1  0  0  0  0
 12 11  1  0  0  0  0
 13 21  2  0  0  0  0
 13 12  1  0  0  0  0
 14  8  1  6  0  0  0
 14 17  1  0  0  0  0
 15  4  1  0  0  0  0
 16  9  1  0  0  0  0
 17 12  1  0  0  0  0
 17  5  1  6  0  0  0
 18 29  1  6  0  0  0
 18 14  1  0  0  0  0
 18 13  1  0  0  0  0
 19 27  1  0  0  0  0
 19 15  2  0  0  0  0
 20 10  1  0  0  0  0
 20 23  1  1  0  0  0
 21 28  1  0  0  0  0
 25  6  1  6  0  0  0
 25 27  1  0  0  0  0
 26 25  1  0  0  0  0
 26 22  1  1  0  0  0
 27  3  2  0  0  0  0
 28 11  2  0  0  0  0
 30 31  1  0  0  0  0
 31 34  1  0  0  0  0
 31 21  1  0  0  0  0
 32 31  1  0  0  0  0
 34 35  1  6  0  0  0
 34 33  1  0  0  0  0
 36 34  1  0  0  0  0
 37 36  1  0  0  0  0
M  END
>  <MODEL>
2

>  <REMARK>
 VINA RESULT:      -4.0      1.056      1.162
  Name = 
  3 active torsions:
  status: ('A' for Active; 'I' for Inactive)
    1  A    between atoms: O_3  and  C_22
    2  A    between atoms: C_10  and  C_22
    3  A    between atoms: C_10  and  C_26
                            x       y       z     vdW  Elec       q    Type
                         _______ _______ _______ _____ _____    ______ ____

>  <TORSDO>
F 3

$$$$
=
 OpenBabel11072413043D

 37 42  0  0  1  0  0  0  0  0999 V2000
  160.8690  205.2490  152.9020 C   0  0  0  0  0  0  0  0  0  0  0  0
  160.6320  209.8830  151.8260 O   0  0  0  0  0  0  0  0  0  0  0  0
  161.1310  207.6150  154.5610 C   0  0  0  0  0  3  0  0  0  0  0  0
  159.1220  206.9530  155.7330 C   0  0  0  0  0  3  0  0  0  0  0  0
  161.3300  206.3250  152.3250 N   0  0  0  0  0  0  0  0  0  0  0  0
  161.5070  211.3750  154.2430 C   0  0  0  0  0  2  0  0  0  0  0  0
  161.6590  209.6240  152.4410 C   0  0  0  0  0  0  0  0  0  0  0  0
  162.8440  209.0070  151.7140 C   0  0  0  0  0  2  0  0  0  0  0  0
  160.2590  205.3670  154.2100 N   0  0  0  0  0  2  0  0  0  0  0  0
  161.1330  203.9050  152.3440 C   0  0  0  0  0  0  0  0  0  0  0  0
  161.0640  204.6260  149.8600 C   0  0  0  0  0  0  0  0  0  0  0  0
  161.7000  205.7780  150.0870 N   0  0  0  0  0  0  0  0  0  0  0  0
  161.6010  206.5680  149.0390 C   0  0  0  0  0  0  0  0  0  0  0  0
  162.5550  207.8070  150.7640 C   0  0  1  0  0  3  0  0  0  0  0  0
  158.9150  208.3080  156.0730 C   0  0  0  0  0  3  0  0  0  0  0  0
  160.2270  206.6150  154.9300 C   0  0  0  0  0  0  0  0  0  0  0  0
  162.2860  206.3640  151.2460 C   0  0  1  0  0  3  0  0  0  0  0  0
  162.0580  207.9700  149.2980 C   0  0  2  0  0  3  0  0  0  0  0  0
  159.7620  209.3090  155.5640 C   0  0  0  0  0  3  0  0  0  0  0  0
  160.8220  203.5420  150.8890 C   0  0  1  0  0  3  0  0  0  0  0  0
  160.9850  205.8700  148.0080 C   0  0  0  0  0  0  0  0  0  0  0  0
  163.0620  210.4730  156.3120 S   0  0  0  0  0  1  0  0  0  0  0  0
  161.5670  202.2760  150.4640 C   0  0  0  0  0  1  0  0  0  0  0  0
  161.5010  202.9970  153.1360 O   0  0  0  0  0  0  0  0  0  0  0  0
  161.6840  209.8960  153.9380 C   0  0  1  0  0  0  0  0  0  0  0  0
  162.8520  210.7040  154.5160 C   0  0  1  0  0  3  0  0  0  0  0  0
  160.8880  208.9480  154.8010 C   0  0  0  0  0  0  0  0  0  0  0  0
  160.6090  204.6250  148.5430 C   0  0  0  0  0  3  0  0  0  0  0  0
  160.8660  208.9020  149.2440 C   0  0  0  0  0  1  0  0  0  0  0  0
  159.5220  206.2030  146.1700 F   0  0  0  0  0  0  0  0  0  0  0  0
  160.8570  206.2420  146.5400 C   0  0  0  0  0  0  0  0  0  0  0  0
  161.2840  207.5540  146.3850 F   0  0  0  0  0  0  0  0  0  0  0  0
  162.2210  206.1930  144.6110 F   0  0  0  0  0  0  0  0  0  0  0  0
  161.6810  205.3550  145.5850 C   0  0  1  0  0  0  0  0  0  0  0  0
  162.8420  204.7040  146.3500 C   0  0  0  0  0  1  0  0  0  0  0  0
  160.8390  204.3840  145.0020 O   0  0  0  0  0  0  0  0  0  0  0  0
  161.2060  203.1050  145.4480 C   0  0  0  0  0  1  0  0  0  0  0  0
  1  9  1  0  0  0  0
  2  7  2  0  0  0  0
  3 27  2  0  0  0  0
  3 16  1  0  0  0  0
  4 15  1  0  0  0  0
  5  1  2  0  0  0  0
  6 26  1  0  0  0  0
  7 25  1  0  0  0  0
  8  7  1  0  0  0  0
  9 16  1  0  0  0  0
 10  1  1  0  0  0  0
 10 24  2  0  0  0  0
 11 12  1  0  0  0  0
 11 20  1  0  0  0  0
 12 17  1  0  0  0  0
 13 18  1  0  0  0  0
 13 12  1  0  0  0  0
 14 17  1  0  0  0  0
 14  8  1  1  0  0  0
 16  4  2  0  0  0  0
 17  5  1  1  0  0  0
 18 29  1  1  0  0  0
 18 14  1  0  0  0  0
 19 15  2  0  0  0  0
 20 23  1  6  0  0  0
 20 10  1  0  0  0  0
 21 28  1  0  0  0  0
 21 13  2  0  0  0  0
 25  6  1  6  0  0  0
 25 26  1  0  0  0  0
 25 27  1  0  0  0  0
 26 22  1  1  0  0  0
 27 19  1  0  0  0  0
 28 11  2  0  0  0  0
 30 31  1  0  0  0  0
 31 21  1  0  0  0  0
 32 31  1  0  0  0  0
 33 34  1  0  0  0  0
 34 35  1  1  0  0  0
 34 31  1  0  0  0  0
 36 37  1  0  0  0  0
 36 34  1  0  0  0  0
M  END
>  <MODEL>
3

>  <REMARK>
 VINA RESULT:      -2.6      3.432      5.587
  Name = 
  3 active torsions:
  status: ('A' for Active; 'I' for Inactive)
    1  A    between atoms: O_3  and  C_22
    2  A    between atoms: C_10  and  C_22
    3  A    between atoms: C_10  and  C_26
                            x       y       z     vdW  Elec       q    Type
                         _______ _______ _______ _____ _____    ______ ____

>  <TORSDO>
F 3

$$$$
=
 OpenBabel11072413043D

 37 42  0  0  1  0  0  0  0  0999 V2000
  161.5930  210.1090  150.9870 C   0  0  0  0  0  0  0  0  0  0  0  0
  159.9240  214.4290  149.8760 O   0  0  0  0  0  0  0  0  0  0  0  0
  161.1510  211.3880  148.4210 C   0  0  0  0  0  3  0  0  0  0  0  0
  163.5360  211.3180  148.0310 C   0  0  0  0  0  3  0  0  0  0  0  0
  160.6400  210.9990  150.9280 N   0  0  0  0  0  0  0  0  0  0  0  0
  159.4820  214.4530  146.9370 C   0  0  0  0  0  2  0  0  0  0  0  0
  159.3110  213.5530  149.2810 C   0  0  0  0  0  0  0  0  0  0  0  0
  158.2210  212.7700  149.9970 C   0  0  0  0  0  2  0  0  0  0  0  0
  162.5360  210.0260  149.8900 N   0  0  0  0  0  2  0  0  0  0  0  0
  161.6110  209.0690  152.0380 C   0  0  0  0  0  0  0  0  0  0  0  0
  160.5970  210.5520  153.9010 C   0  0  0  0  0  0  0  0  0  0  0  0
  159.7350  211.1510  153.0730 N   0  0  0  0  0  0  0  0  0  0  0  0
  159.2100  212.2100  153.6510 C   0  0  0  0  0  0  0  0  0  0  0  0
  158.5470  212.2270  151.4200 C   0  0  1  0  0  3  0  0  0  0  0  0
  163.3910  212.4170  147.1560 C   0  0  0  0  0  3  0  0  0  0  0  0
  162.4000  210.8290  148.7010 C   0  0  0  0  0  0  0  0  0  0  0  0
  159.4190  210.9820  151.6950 C   0  0  1  0  0  3  0  0  0  0  0  0
  158.4360  213.0840  152.7150 C   0  0  2  0  0  3  0  0  0  0  0  0
  162.1440  213.0510  147.0070 C   0  0  0  0  0  3  0  0  0  0  0  0
  161.5120  209.4050  153.5290 C   0  0  1  0  0  3  0  0  0  0  0  0
  159.6330  212.2560  154.9740 C   0  0  0  0  0  0  0  0  0  0  0  0
  159.1050  212.3110  145.2690 S   0  0  0  0  0  1  0  0  0  0  0  0
  161.1250  208.1730  154.3480 C   0  0  0  0  0  1  0  0  0  0  0  0
  161.8510  207.8820  151.6920 O   0  0  0  0  0  0  0  0  0  0  0  0
  159.7060  213.2530  147.8420 C   0  0  1  0  0  0  0  0  0  0  0  0
  158.6070  213.2120  146.7750 C   0  0  1  0  0  3  0  0  0  0  0  0
  161.0100  212.5190  147.6480 C   0  0  0  0  0  0  0  0  0  0  0  0
  160.5530  211.2030  155.1310 C   0  0  0  0  0  3  0  0  0  0  0  0
  159.1660  214.4000  152.5410 C   0  0  0  0  0  1  0  0  0  0  0  0
  159.8540  212.8480  157.2610 F   0  0  0  0  0  0  0  0  0  0  0  0
  159.1280  213.1250  156.1140 C   0  0  0  0  0  0  0  0  0  0  0  0
  159.3720  214.4530  155.7890 F   0  0  0  0  0  0  0  0  0  0  0  0
  157.4670  211.8180  157.1700 F   0  0  0  0  0  0  0  0  0  0  0  0
  157.6220  212.9750  156.4090 C   0  0  1  0  0  0  0  0  0  0  0  0
  157.1350  214.1640  157.2490 C   0  0  0  0  0  1  0  0  0  0  0  0
  156.9120  212.8770  155.1930 O   0  0  0  0  0  0  0  0  0  0  0  0
  155.9240  211.8860  155.2970 C   0  0  0  0  0  1  0  0  0  0  0  0
  1 10  1  0  0  0  0
  3 16  1  0  0  0  0
  4 16  2  0  0  0  0
  5  1  2  0  0  0  0
  7  2  2  0  0  0  0
  7  8  1  0  0  0  0
  9  1  1  0  0  0  0
 10 20  1  0  0  0  0
 11 28  2  0  0  0  0
 12 13  1  0  0  0  0
 12 11  1  0  0  0  0
 13 21  2  0  0  0  0
 14  8  1  6  0  0  0
 14 17  1  0  0  0  0
 14 18  1  0  0  0  0
 15  4  1  0  0  0  0
 16  9  1  0  0  0  0
 17  5  1  6  0  0  0
 17 12  1  0  0  0  0
 18 29  1  6  0  0  0
 18 13  1  0  0  0  0
 19 15  2  0  0  0  0
 19 27  1  0  0  0  0
 20 11  1  0  0  0  0
 20 23  1  1  0  0  0
 21 28  1  0  0  0  0
 21 31  1  0  0  0  0
 24 10  2  0  0  0  0
 25  6  1  6  0  0  0
 25  7  1  0  0  0  0
 26 22  1  6  0  0  0
 26  6  1  0  0  0  0
 26 25  1  0  0  0  0
 27 25  1  0  0  0  0
 27  3  2  0  0  0  0
 31 34  1  0  0  0  0
 31 30  1  0  0  0  0
 32 31  1  0  0  0  0
 34 33  1  0  0  0  0
 34 35  1  1  0  0  0
 36 37  1  0  0  0  0
 36 34  1  0  0  0  0
M  END
>  <MODEL>
4

>  <REMARK>
 VINA RESULT:      -1.9      4.521      6.993
  Name = 
  3 active torsions:
  status: ('A' for Active; 'I' for Inactive)
    1  A    between atoms: O_3  and  C_22
    2  A    between atoms: C_10  and  C_22
    3  A    between atoms: C_10  and  C_26
                            x       y       z     vdW  Elec       q    Type
                         _______ _______ _______ _____ _____    ______ ____

>  <TORSDO>
F 3

$$$$
