=
 OpenBabel11072414343D

 36 40  0  0  1  0  0  0  0  0999 V2000
  161.1890  210.0460  152.8040 C   0  0  2  0  0  3  0  0  0  0  0  0
  160.3080  207.7220  152.6890 O   0  0  0  0  0  0  0  0  0  0  0  0
  160.7560  206.2340  149.4520 C   0  0  0  0  0  2  0  0  0  0  0  0
  161.4270  207.5080  149.6260 N   0  0  0  0  0  0  0  0  0  0  0  0
  161.4300  208.3480  154.7960 C   0  0  0  0  0  2  0  0  0  0  0  0
  161.7150  208.0210  150.7790 C   0  0  0  0  0  0  0  0  0  0  0  0
  161.4230  205.7770  151.8540 C   0  0  0  0  0  0  0  0  0  0  0  0
  161.6700  209.4770  155.8030 C   0  0  0  0  0  2  0  0  0  0  0  0
  161.6150  205.0050  152.8310 O   0  0  0  0  0  0  0  0  0  0  0  0
  161.4770  207.2590  152.0630 C   0  0  2  0  0  3  0  0  0  0  0  0
  162.4600  209.8160  152.2300 O   0  0  0  0  0  0  0  0  0  0  0  0
  161.1730  203.9240  150.2920 C   0  0  0  0  0  3  0  0  0  0  0  0
  161.2640  211.2920  153.6960 C   0  0  0  0  0  2  0  0  0  0  0  0
  160.2660  211.2690  154.7710 N   0  0  0  0  0  0  0  0  0  0  0  0
  162.3070  209.4200  150.8730 C   0  0  2  0  0  3  0  0  0  0  0  0
  160.6560  208.7920  153.5430 C   0  0  1  0  0  3  0  0  0  0  0  0
  160.4600  210.4060  155.9480 C   0  0  0  0  0  2  0  0  0  0  0  0
  161.1470  205.2450  150.5100 C   0  0  0  0  0  0  0  0  0  0  0  0
  156.5460  213.2440  154.1800 C   0  0  0  0  0  0  0  0  0  0  0  0
  159.7030  213.8420  156.1530 C   0  0  0  0  0  1  0  0  0  0  0  0
  158.0640  211.4250  153.7000 C   0  0  0  0  0  3  0  0  0  0  0  0
  158.7190  213.1670  155.2590 C   0  0  0  0  0  0  0  0  0  0  0  0
  159.0170  211.9590  154.5850 C   0  0  0  0  0  0  0  0  0  0  0  0
  157.4880  213.7970  155.0500 C   0  0  0  0  0  3  0  0  0  0  0  0
  156.8380  212.0620  153.5000 C   0  0  0  0  0  3  0  0  0  0  0  0
  154.2270  214.4490  153.8030 C   0  0  0  0  0  3  0  0  0  0  0  0
  155.2850  213.8990  153.9760 C   0  0  0  0  0  0  0  0  0  0  0  0
  161.0870  212.8050  149.7920 C   0  0  0  0  0  2  0  0  0  0  0  0
  161.7170  211.4710  147.8340 N   0  0  0  0  0  2  0  0  0  0  0  0
  161.9770  210.2710  148.6520 C   0  0  0  0  0  2  0  0  0  0  0  0
  161.5770  210.4210  150.0660 N   0  0  2  0  0  0  0  0  0  0  0  0
  161.9640  211.7690  150.4940 C   0  0  0  0  0  2  0  0  0  0  0  0
  160.6550  212.2890  148.4200 C   0  0  0  0  0  2  0  0  0  0  0  0
  161.4840  203.6320  147.8270 O   0  0  0  0  0  0  0  0  0  0  0  0
  160.8880  203.2400  149.0200 C   0  0  0  0  0  0  0  0  0  0  0  0
  160.0840  202.2710  149.0150 O   0  0  0  0  0  1  0  0  0  0  0  0
  1 16  1  0  0  0  0
  1 13  1  1  0  0  0
  2 16  1  0  0  0  0
  3  4  1  0  0  0  0
  3 18  1  0  0  0  0
  4  6  2  0  0  0  0
  5  8  1  0  0  0  0
  7 10  1  0  0  0  0
  7  9  2  0  0  0  0
  8 17  1  0  0  0  0
 10  6  1  6  0  0  0
 10  2  1  0  0  0  0
 11  1  1  0  0  0  0
 12 18  2  0  0  0  0
 13 14  1  0  0  0  0
 14 17  1  0  0  0  0
 15  6  1  1  0  0  0
 15 11  1  0  0  0  0
 16  5  1  1  0  0  0
 18  7  1  0  0  0  0
 19 24  1  0  0  0  0
 21 23  2  0  0  0  0
 22 20  1  0  0  0  0
 23 14  1  0  0  0  0
 23 22  1  0  0  0  0
 24 22  2  0  0  0  0
 25 21  1  0  0  0  0
 25 19  2  0  0  0  0
 26 27  3  0  0  0  0
 27 19  1  0  0  0  0
 28 32  1  0  0  0  0
 29 33  1  0  0  0  0
 29 30  1  0  0  0  0
 31 30  1  6  0  0  0
 31 32  1  0  0  0  0
 31 15  1  0  0  0  0
 33 28  1  0  0  0  0
 34 35  2  0  0  0  0
 35 12  1  0  0  0  0
 36 35  1  0  0  0  0
M  END
>  <MODEL>
1

>  <REMARK>
 VINA RESULT:      -6.5      0.000      0.000
  Name = 
  4 active torsions:
  status: ('A' for Active; 'I' for Inactive)
    1  A    between atoms: C_3  and  C_26
    2  A    between atoms: C_20  and  C_27
    3  A    between atoms: N_21  and  C_31
    4  A    between atoms: N_29  and  C_30
                            x       y       z     vdW  Elec       q    Type
                         _______ _______ _______ _____ _____    ______ ____

>  <TORSDO>
F 4

$$$$
=
 OpenBabel11072414343D

 36 40  0  0  1  0  0  0  0  0999 V2000
  161.4970  209.8340  152.5170 C   0  0  2  0  0  3  0  0  0  0  0  0
  159.2570  210.8970  152.3030 O   0  0  0  0  0  0  0  0  0  0  0  0
  157.8030  211.7040  155.4860 C   0  0  0  0  0  2  0  0  0  0  0  0
  159.1850  211.2670  155.5490 N   0  0  0  0  0  0  0  0  0  0  0  0
  160.9340  211.5670  150.6220 C   0  0  0  0  0  2  0  0  0  0  0  0
  159.9970  211.2910  154.5430 C   0  0  0  0  0  0  0  0  0  0  0  0
  158.4850  212.9010  153.3580 C   0  0  0  0  0  0  0  0  0  0  0  0
  162.1090  211.0910  149.7610 C   0  0  0  0  0  2  0  0  0  0  0  0
  158.3020  213.7570  152.4510 O   0  0  0  0  0  0  0  0  0  0  0  0
  159.5960  211.9060  153.2200 C   0  0  2  0  0  3  0  0  0  0  0  0
  162.0780  210.7520  153.4190 O   0  0  0  0  0  0  0  0  0  0  0  0
  156.6780  213.7950  154.7250 C   0  0  0  0  0  3  0  0  0  0  0  0
  162.6120  209.1420  151.7220 C   0  0  0  0  0  2  0  0  0  0  0  0
  162.1550  208.6770  150.4080 N   0  0  0  0  0  0  0  0  0  0  0  0
  161.3930  210.6980  154.6640 C   0  0  2  0  0  3  0  0  0  0  0  0
  160.4300  210.5090  151.6170 C   0  0  1  0  0  3  0  0  0  0  0  0
  161.9560  209.6350  149.3080 C   0  0  0  0  0  2  0  0  0  0  0  0
  157.6250  212.8640  154.5510 C   0  0  0  0  0  0  0  0  0  0  0  0
  160.8860  204.6360  150.0290 C   0  0  0  0  0  0  0  0  0  0  0  0
  162.3050  207.3030  147.7750 C   0  0  0  0  0  1  0  0  0  0  0  0
  161.2860  206.5990  151.3810 C   0  0  0  0  0  3  0  0  0  0  0  0
  161.7700  206.6490  149.0030 C   0  0  0  0  0  0  0  0  0  0  0  0
  161.7360  207.3090  150.2540 C   0  0  0  0  0  0  0  0  0  0  0  0
  161.3440  205.3210  148.9020 C   0  0  0  0  0  3  0  0  0  0  0  0
  160.8630  205.2730  151.2700 C   0  0  0  0  0  3  0  0  0  0  0  0
  160.0850  202.1280  149.8160 C   0  0  0  0  0  3  0  0  0  0  0  0
  160.4500  203.2730  149.9140 C   0  0  0  0  0  0  0  0  0  0  0  0
  161.9560  208.0420  157.2610 C   0  0  0  0  0  2  0  0  0  0  0  0
  159.8000  207.6900  156.1490 N   0  0  0  0  0  2  0  0  0  0  0  0
  160.0400  208.7850  155.1900 C   0  0  0  0  0  2  0  0  0  0  0  0
  161.4040  209.3460  155.2620 N   0  0  2  0  0  0  0  0  0  0  0  0
  161.7680  209.4420  156.6790 C   0  0  0  0  0  2  0  0  0  0  0  0
  161.0530  207.0440  156.5370 C   0  0  0  0  0  2  0  0  0  0  0  0
  156.1250  213.7280  157.1640 O   0  0  0  0  0  1  0  0  0  0  0  0
  155.7220  213.8750  155.8420 C   0  0  0  0  0  0  0  0  0  0  0  0
  154.5070  214.0840  155.5910 O   0  0  0  0  0  0  0  0  0  0  0  0
  1 13  1  6  0  0  0
  1 11  1  0  0  0  0
  3  4  1  0  0  0  0
  6 15  1  0  0  0  0
  6  4  2  0  0  0  0
  7 18  1  0  0  0  0
  8  5  1  0  0  0  0
  9  7  2  0  0  0  0
 10  2  1  6  0  0  0
 10  7  1  0  0  0  0
 10  6  1  0  0  0  0
 12 35  1  0  0  0  0
 14 13  1  0  0  0  0
 15 11  1  6  0  0  0
 15 31  1  0  0  0  0
 16  5  1  1  0  0  0
 16  2  1  0  0  0  0
 16  1  1  0  0  0  0
 17  8  1  0  0  0  0
 17 14  1  0  0  0  0
 18 12  2  0  0  0  0
 18  3  1  0  0  0  0
 19 25  1  0  0  0  0
 20 22  1  0  0  0  0
 22 23  2  0  0  0  0
 23 14  1  0  0  0  0
 23 21  1  0  0  0  0
 24 22  1  0  0  0  0
 24 19  2  0  0  0  0
 25 21  2  0  0  0  0
 26 27  3  0  0  0  0
 27 19  1  0  0  0  0
 29 33  1  0  0  0  0
 30 29  1  0  0  0  0
 31 30  1  1  0  0  0
 31 32  1  0  0  0  0
 32 28  1  0  0  0  0
 33 28  1  0  0  0  0
 35 34  1  0  0  0  0
 36 35  2  0  0  0  0
M  END
>  <MODEL>
2

>  <REMARK>
 VINA RESULT:      -6.1      2.822      8.668
  Name = 
  4 active torsions:
  status: ('A' for Active; 'I' for Inactive)
    1  A    between atoms: C_3  and  C_26
    2  A    between atoms: C_20  and  C_27
    3  A    between atoms: N_21  and  C_31
    4  A    between atoms: N_29  and  C_30
                            x       y       z     vdW  Elec       q    Type
                         _______ _______ _______ _____ _____    ______ ____

>  <TORSDO>
F 4

$$$$
=
 OpenBabel11072414343D

 36 40  0  0  1  0  0  0  0  0999 V2000
  161.4730  209.8250  152.5290 C   0  0  2  0  0  3  0  0  0  0  0  0
  159.2570  210.9230  152.2540 O   0  0  0  0  0  0  0  0  0  0  0  0
  157.7460  211.7890  155.3940 C   0  0  0  0  0  2  0  0  0  0  0  0
  159.1190  211.3290  155.4940 N   0  0  0  0  0  0  0  0  0  0  0  0
  160.9830  211.5460  150.6040 C   0  0  0  0  0  2  0  0  0  0  0  0
  159.9540  211.3290  154.5050 C   0  0  0  0  0  0  0  0  0  0  0  0
  158.4960  212.9510  153.2700 C   0  0  0  0  0  0  0  0  0  0  0  0
  162.1680  211.0410  149.7750 C   0  0  0  0  0  2  0  0  0  0  0  0
  158.3480  213.8000  152.3500 O   0  0  0  0  0  0  0  0  0  0  0  0
  159.5930  211.9360  153.1670 C   0  0  2  0  0  3  0  0  0  0  0  0
  162.0500  210.7430  153.4350 O   0  0  0  0  0  0  0  0  0  0  0  0
  156.6750  213.8910  154.5870 C   0  0  0  0  0  3  0  0  0  0  0  0
  162.5940  209.1060  151.7670 C   0  0  0  0  0  2  0  0  0  0  0  0
  162.1580  208.6340  150.4480 N   0  0  0  0  0  0  0  0  0  0  0  0
  161.3360  210.7140  154.6650 C   0  0  2  0  0  3  0  0  0  0  0  0
  160.4380  210.5080  151.5990 C   0  0  1  0  0  3  0  0  0  0  0  0
  162.0000  209.5830  149.3330 C   0  0  0  0  0  2  0  0  0  0  0  0
  157.6090  212.9420  154.4440 C   0  0  0  0  0  0  0  0  0  0  0  0
  160.8660  204.6160  149.9270 C   0  0  0  0  0  0  0  0  0  0  0  0
  161.9260  206.8210  152.7950 C   0  0  0  0  0  1  0  0  0  0  0  0
  161.3550  206.8040  149.0250 C   0  0  0  0  0  3  0  0  0  0  0  0
  161.6340  206.3860  151.3990 C   0  0  0  0  0  0  0  0  0  0  0  0
  161.7190  207.2720  150.2990 C   0  0  0  0  0  0  0  0  0  0  0  0
  161.2090  205.0680  151.2030 C   0  0  0  0  0  3  0  0  0  0  0  0
  160.9320  205.4870  148.8390 C   0  0  0  0  0  3  0  0  0  0  0  0
  160.0670  202.1230  149.5790 C   0  0  0  0  0  3  0  0  0  0  0  0
  160.4320  203.2610  149.7370 C   0  0  0  0  0  0  0  0  0  0  0  0
  161.8970  208.0570  157.2600 C   0  0  0  0  0  2  0  0  0  0  0  0
  159.6730  207.8030  156.2620 N   0  0  0  0  0  2  0  0  0  0  0  0
  159.9190  208.8750  155.2790 C   0  0  0  0  0  2  0  0  0  0  0  0
  161.3110  209.3690  155.2770 N   0  0  2  0  0  0  0  0  0  0  0  0
  161.7500  209.4600  156.6730 C   0  0  0  0  0  2  0  0  0  0  0  0
  160.9110  207.0980  156.5940 C   0  0  0  0  0  2  0  0  0  0  0  0
  156.0750  213.9210  157.0150 O   0  0  0  0  0  1  0  0  0  0  0  0
  155.6950  213.9980  155.6810 C   0  0  0  0  0  0  0  0  0  0  0  0
  154.4810  214.1680  155.3980 O   0  0  0  0  0  0  0  0  0  0  0  0
  1 13  1  6  0  0  0
  1 11  1  0  0  0  0
  3  4  1  0  0  0  0
  6 15  1  0  0  0  0
  6  4  2  0  0  0  0
  7 18  1  0  0  0  0
  8  5  1  0  0  0  0
  9  7  2  0  0  0  0
 10  2  1  6  0  0  0
 10  7  1  0  0  0  0
 10  6  1  0  0  0  0
 12 35  1  0  0  0  0
 14 13  1  0  0  0  0
 15 11  1  6  0  0  0
 15 31  1  0  0  0  0
 16  5  1  1  0  0  0
 16  2  1  0  0  0  0
 16  1  1  0  0  0  0
 17  8  1  0  0  0  0
 17 14  1  0  0  0  0
 18 12  2  0  0  0  0
 18  3  1  0  0  0  0
 19 24  1  0  0  0  0
 21 23  2  0  0  0  0
 22 20  1  0  0  0  0
 23 14  1  0  0  0  0
 23 22  1  0  0  0  0
 24 22  2  0  0  0  0
 25 21  1  0  0  0  0
 25 19  2  0  0  0  0
 26 27  3  0  0  0  0
 27 19  1  0  0  0  0
 29 33  1  0  0  0  0
 30 29  1  0  0  0  0
 31 30  1  1  0  0  0
 31 32  1  0  0  0  0
 32 28  1  0  0  0  0
 33 28  1  0  0  0  0
 35 34  1  0  0  0  0
 36 35  2  0  0  0  0
M  END
>  <MODEL>
3

>  <REMARK>
 VINA RESULT:      -5.8      2.820      8.581
  Name = 
  4 active torsions:
  status: ('A' for Active; 'I' for Inactive)
    1  A    between atoms: C_3  and  C_26
    2  A    between atoms: C_20  and  C_27
    3  A    between atoms: N_21  and  C_31
    4  A    between atoms: N_29  and  C_30
                            x       y       z     vdW  Elec       q    Type
                         _______ _______ _______ _____ _____    ______ ____

>  <TORSDO>
F 4

$$$$
=
 OpenBabel11072414343D

 36 40  0  0  1  0  0  0  0  0999 V2000
  161.3030  210.0350  152.0150 C   0  0  2  0  0  3  0  0  0  0  0  0
  160.4160  207.8050  151.3610 O   0  0  0  0  0  0  0  0  0  0  0  0
  161.1600  206.9700  147.9480 C   0  0  0  0  0  2  0  0  0  0  0  0
  161.8230  208.1660  148.4330 N   0  0  0  0  0  0  0  0  0  0  0  0
  161.3340  207.9720  153.6450 C   0  0  0  0  0  2  0  0  0  0  0  0
  162.0030  208.4340  149.6860 C   0  0  0  0  0  0  0  0  0  0  0  0
  161.5880  206.0310  150.2630 C   0  0  0  0  0  0  0  0  0  0  0  0
  161.4870  208.8740  154.8730 C   0  0  0  0  0  2  0  0  0  0  0  0
  161.6770  205.0770  151.0820 O   0  0  0  0  0  0  0  0  0  0  0  0
  161.6350  207.4410  150.7670 C   0  0  2  0  0  3  0  0  0  0  0  0
  162.6210  209.8870  151.5280 O   0  0  0  0  0  0  0  0  0  0  0  0
  161.4730  204.5290  148.3490 C   0  0  0  0  0  3  0  0  0  0  0  0
  161.3020  211.0790  153.1400 C   0  0  0  0  0  2  0  0  0  0  0  0
  160.2060  210.8730  154.0920 N   0  0  0  0  0  0  0  0  0  0  0  0
  162.5960  209.7690  150.1110 C   0  0  2  0  0  3  0  0  0  0  0  0
  160.6900  208.6760  152.4380 C   0  0  1  0  0  3  0  0  0  0  0  0
  160.2770  209.7910  155.0870 C   0  0  0  0  0  2  0  0  0  0  0  0
  161.4380  205.7820  148.8210 C   0  0  0  0  0  0  0  0  0  0  0  0
  156.6140  213.0820  153.5360 C   0  0  0  0  0  0  0  0  0  0  0  0
  158.4120  211.4180  156.4010 C   0  0  0  0  0  1  0  0  0  0  0  0
  158.6620  212.1390  152.6650 C   0  0  0  0  0  3  0  0  0  0  0  0
  158.1050  211.8630  155.0110 C   0  0  0  0  0  0  0  0  0  0  0  0
  158.9870  211.6210  153.9310 C   0  0  0  0  0  0  0  0  0  0  0  0
  156.9290  212.5890  154.8040 C   0  0  0  0  0  3  0  0  0  0  0  0
  157.4840  212.8620  152.4680 C   0  0  0  0  0  3  0  0  0  0  0  0
  154.3840  214.4490  153.1650 C   0  0  0  0  0  3  0  0  0  0  0  0
  155.4020  213.8250  153.3340 C   0  0  0  0  0  0  0  0  0  0  0  0
  162.3420  213.1330  148.4570 C   0  0  0  0  0  2  0  0  0  0  0  0
  160.9340  211.5070  147.2810 N   0  0  0  0  0  2  0  0  0  0  0  0
  161.2060  210.4520  148.2750 C   0  0  0  0  0  2  0  0  0  0  0  0
  161.9570  210.9290  149.4540 N   0  0  2  0  0  0  0  0  0  0  0  0
  162.9920  211.8510  148.9760 C   0  0  0  0  0  2  0  0  0  0  0  0
  160.9520  212.8320  147.8990 C   0  0  0  0  0  2  0  0  0  0  0  0
  161.2590  205.0420  145.9100 O   0  0  0  0  0  0  0  0  0  0  0  0
  161.3050  204.1160  146.9450 C   0  0  0  0  0  0  0  0  0  0  0  0
  161.2050  202.8910  146.6780 O   0  0  0  0  0  1  0  0  0  0  0  0
  1 16  1  0  0  0  0
  1 13  1  1  0  0  0
  2 16  1  0  0  0  0
  3  4  1  0  0  0  0
  3 18  1  0  0  0  0
  4  6  2  0  0  0  0
  5  8  1  0  0  0  0
  7 10  1  0  0  0  0
  7  9  2  0  0  0  0
  8 17  1  0  0  0  0
 10  6  1  6  0  0  0
 10  2  1  0  0  0  0
 11  1  1  0  0  0  0
 12 18  2  0  0  0  0
 13 14  1  0  0  0  0
 14 17  1  0  0  0  0
 15  6  1  1  0  0  0
 15 11  1  0  0  0  0
 16  5  1  1  0  0  0
 18  7  1  0  0  0  0
 19 24  1  0  0  0  0
 21 23  2  0  0  0  0
 22 20  1  0  0  0  0
 23 14  1  0  0  0  0
 23 22  1  0  0  0  0
 24 22  2  0  0  0  0
 25 21  1  0  0  0  0
 25 19  2  0  0  0  0
 26 27  3  0  0  0  0
 27 19  1  0  0  0  0
 28 32  1  0  0  0  0
 29 33  1  0  0  0  0
 29 30  1  0  0  0  0
 31 30  1  6  0  0  0
 31 15  1  0  0  0  0
 32 31  1  0  0  0  0
 33 28  1  0  0  0  0
 34 35  2  0  0  0  0
 35 12  1  0  0  0  0
 36 35  1  0  0  0  0
M  END
>  <MODEL>
4

>  <REMARK>
 VINA RESULT:      -5.2      1.306      1.459
  Name = 
  4 active torsions:
  status: ('A' for Active; 'I' for Inactive)
    1  A    between atoms: C_3  and  C_26
    2  A    between atoms: C_20  and  C_27
    3  A    between atoms: N_21  and  C_31
    4  A    between atoms: N_29  and  C_30
                            x       y       z     vdW  Elec       q    Type
                         _______ _______ _______ _____ _____    ______ ____

>  <TORSDO>
F 4

$$$$
