=
 OpenBabel11072415203D

 63 69  0  0  1  0  0  0  0  0999 V2000
  159.5740  205.9520  151.6800 O   0  0  0  0  0  0  0  0  0  0  0  0
  161.4290  208.4680  150.2420 C   0  0  2  0  0  3  0  0  0  0  0  0
  161.2930  205.6400  148.5070 C   0  0  0  0  0  2  0  0  0  0  0  0
  161.4040  206.9560  150.5560 C   0  0  1  0  0  3  0  0  0  0  0  0
  159.7700  205.3390  150.4340 C   0  0  1  0  0  3  0  0  0  0  0  0
  160.7470  206.6900  151.9030 C   0  0  0  0  0  2  0  0  0  0  0  0
  162.1970  208.7820  148.9430 C   0  0  1  0  0  3  0  0  0  0  0  0
  162.1770  206.6180  147.7240 C   0  0  2  0  0  3  0  0  0  0  0  0
  161.6430  208.0470  147.7320 C   0  0  0  0  0  2  0  0  0  0  0  0
  160.5490  206.2710  149.6030 N   0  0  2  0  0  0  0  0  0  0  0  0
  163.1880  209.9090  151.3330 N   0  0  0  0  0  0  0  0  0  0  0  0
  163.3490  210.4830  152.5120 N   0  0  0  0  0  0  0  0  0  0  0  0
  161.4030  209.3730  152.5820 N   0  0  0  0  0  2  0  0  0  0  0  0
  162.2720  210.1550  153.2520 C   0  0  0  0  0  0  0  0  0  0  0  0
  162.0150  209.2490  151.3880 C   0  0  0  0  0  0  0  0  0  0  0  0
  163.1210  211.0860  155.3590 N   0  0  0  0  0  0  0  0  0  0  0  0
  161.7180  211.4570  157.2590 C   0  0  0  0  0  3  0  0  0  0  0  0
  162.0690  210.6020  154.6380 C   0  0  0  0  0  0  0  0  0  0  0  0
  160.6250  210.9640  156.5410 C   0  0  0  0  0  3  0  0  0  0  0  0
  160.7970  210.5340  155.2230 C   0  0  0  0  0  3  0  0  0  0  0  0
  162.9730  211.5130  156.6430 C   0  0  0  0  0  3  0  0  0  0  0  0
  160.3520  203.9190  150.6890 C   0  0  2  0  0  3  0  0  0  0  0  0
  161.5650  203.8710  151.3780 O   0  0  0  0  0  1  0  0  0  0  0  0
  160.6700  201.6770  149.4710 C   0  0  0  0  0  0  0  0  0  0  0  0
  161.0910  201.0860  150.4980 O   0  0  0  0  0  1  0  0  0  0  0  0
  160.5430  200.9760  148.2810 O   0  0  0  0  0  0  0  0  0  0  0  0
  160.3820  203.0780  149.4950 N   0  0  0  0  0  2  0  0  0  0  0  0
  162.4570  206.0980  146.3100 C   0  0  1  0  0  3  0  0  0  0  0  0
  163.3260  204.8420  146.3100 C   0  0  0  0  0  3  0  0  0  0  0  0
  162.9610  203.9740  145.1240 C   0  0  0  0  0  2  0  0  0  0  0  0
  162.4610  203.6100  146.5020 C   0  0  0  0  0  2  0  0  0  0  0  0
  161.1510  205.8420  145.5700 C   0  0  0  0  0  2  0  0  0  0  0  0
  161.3630  205.9220  144.1920 O   0  0  0  0  0  1  0  0  0  0  0  0
  162.2100  210.2700  148.6370 C   0  0  0  0  0  2  0  0  0  0  0  0
  160.8120  210.8170  148.8610 C   0  0  0  0  0  2  0  0  0  0  0  0
  160.8500  212.2590  149.3520 C   0  0  2  0  0  3  0  0  0  0  0  0
  160.0420  212.3660  150.6400 C   0  0  0  0  0  1  0  0  0  0  0  0
  158.9000  213.7470  148.7320 C   0  0  0  0  0  0  0  0  0  0  0  0
  158.5090  214.4510  149.6480 O   0  0  0  0  0  0  0  0  0  0  0  0
  160.2480  213.1850  148.2910 C   0  0  2  0  0  3  0  0  0  0  0  0
  159.7980  212.4190  147.0870 C   0  0  1  0  0  3  0  0  0  0  0  0
  158.1170  212.9450  147.2890 S   0  0  0  0  0  0  0  0  0  0  0  0
  160.4070  212.9820  145.8300 C   0  0  0  0  0  0  0  0  0  0  0  0
  161.3830  213.7140  145.8900 O   0  0  0  0  0  0  0  0  0  0  0  0
  159.8180  212.6770  144.4860 C   0  0  2  0  0  3  0  0  0  0  0  0
  159.9750  211.3270  144.1700 O   0  0  0  0  0  1  0  0  0  0  0  0
  160.3250  213.6070  143.3690 C   0  0  2  0  0  3  0  0  0  0  0  0
  158.0580  214.4520  143.5280 O   0  0  0  0  0  1  0  0  0  0  0  0
  159.1760  214.3820  142.6900 C   0  0  2  0  0  3  0  0  0  0  0  0
  159.4490  214.4380  140.1570 C   0  0  0  0  0  2  0  0  0  0  0  0
  156.6740  214.1320  139.8740 C   0  0  0  0  0  2  0  0  0  0  0  0
  158.7550  213.7650  141.3530 C   0  0  2  0  0  3  0  0  0  0  0  0
  157.2220  213.6660  141.2260 C   0  0  0  0  0  2  0  0  0  0  0  0
  156.9880  213.1730  138.7220 C   0  0  0  0  0  2  0  0  0  0  0  0
  158.3770  212.5300  138.7890 C   0  0  1  0  0  3  0  0  0  0  0  0
  158.5770  211.7350  137.6620 O   0  0  0  0  0  1  0  0  0  0  0  0
  159.5270  213.5350  138.9190 C   0  0  0  0  0  2  0  0  0  0  0  0
  161.2930  212.9200  142.3920 C   0  0  0  0  0  2  0  0  0  0  0  0
  162.2910  213.8860  141.7650 C   0  0  0  0  0  2  0  0  0  0  0  0
  162.9170  213.2610  140.5310 C   0  0  0  0  0  2  0  0  0  0  0  0
  162.5070  211.8310  140.4140 C   0  0  0  0  0  0  0  0  0  0  0  0
  163.4320  210.8230  140.6440 O   0  0  0  0  0  1  0  0  0  0  0  0
  161.3130  211.5400  140.1440 O   0  0  0  0  0  0  0  0  0  0  0  0
  1  6  1  0  0  0  0
  2  4  1  0  0  0  0
  2 15  1  1  0  0  0
  4  6  1  1  0  0  0
  5 22  1  1  0  0  0
  5  1  1  0  0  0  0
  7 34  1  6  0  0  0
  7  2  1  0  0  0  0
  8 28  1  6  0  0  0
  8  9  1  0  0  0  0
  8  3  1  0  0  0  0
  9  7  1  0  0  0  0
 10  3  1  6  0  0  0
 10  5  1  0  0  0  0
 10  4  1  0  0  0  0
 11 15  2  0  0  0  0
 11 12  1  0  0  0  0
 12 14  2  0  0  0  0
 13 14  1  0  0  0  0
 14 18  1  0  0  0  0
 15 13  1  0  0  0  0
 16 21  1  0  0  0  0
 18 20  1  0  0  0  0
 18 16  2  0  0  0  0
 19 17  1  0  0  0  0
 20 19  2  0  0  0  0
 21 17  2  0  0  0  0
 22 23  1  6  0  0  0
 24 27  1  0  0  0  0
 24 25  1  0  0  0  0
 26 24  2  0  0  0  0
 27 22  1  0  0  0  0
 28 32  1  1  0  0  0
 28 29  1  0  0  0  0
 29 31  1  0  0  0  0
 30 29  1  0  0  0  0
 30 31  1  0  0  0  0
 33 32  1  0  0  0  0
 34 35  1  0  0  0  0
 35 36  1  0  0  0  0
 36 37  1  1  0  0  0
 38 39  2  0  0  0  0
 40 38  1  0  0  0  0
 40 36  1  1  0  0  0
 41 43  1  6  0  0  0
 41 42  1  0  0  0  0
 41 40  1  0  0  0  0
 42 38  1  0  0  0  0
 43 44  2  0  0  0  0
 45 46  1  6  0  0  0
 45 43  1  0  0  0  0
 47 58  1  6  0  0  0
 47 45  1  0  0  0  0
 49 47  1  0  0  0  0
 49 48  1  1  0  0  0
 50 52  1  0  0  0  0
 51 53  1  0  0  0  0
 52 49  1  1  0  0  0
 53 52  1  0  0  0  0
 54 55  1  0  0  0  0
 54 51  1  0  0  0  0
 55 56  1  6  0  0  0
 55 57  1  0  0  0  0
 57 50  1  0  0  0  0
 59 58  1  0  0  0  0
 60 59  1  0  0  0  0
 61 60  1  0  0  0  0
 61 62  1  0  0  0  0
 63 61  2  0  0  0  0
M  END
>  <MODEL>
1

>  <REMARK>
 VINA RESULT:      -1.7      0.000      0.000
  Name = 
  20 active torsions:
  status: ('A' for Active; 'I' for Inactive)
    1  A    between atoms: C_4  and  C_12
    2  A    between atoms: C_4  and  C_36
    3  A    between atoms: C_7  and  C_60
    4  A    between atoms: C_8  and  C_22
    5  A    between atoms: C_8  and  C_31
    6  A    between atoms: C_12  and  C_23
    7  A    between atoms: C_13  and  C_22
    8  A    between atoms: C_13  and  C_30
    9  A    between atoms: C_14  and  C_15
   10  A    between atoms: C_14  and  C_38
   11  A    between atoms: C_14  and  C_49
   12  A    between atoms: C_16  and  C_29
   13  A    between atoms: C_16  and  N_58
   14  A    between atoms: C_21  and  C_54
   15  A    between atoms: C_22  and  C_25
   16  A    between atoms: C_23  and  C_46
   17  A    between atoms: C_25  and  C_62
   18  A    between atoms: C_31  and  C_41
   19  A    between atoms: C_39  and  C_59
   20  A    between atoms: C_54  and  C_62
                            x       y       z     vdW  Elec       q    Type
                         _______ _______ _______ _____ _____    ______ ____

>  <TORSDO>
F 20

$$$$
=
 OpenBabel11072415203D

 63 69  0  0  1  0  0  0  0  0999 V2000
  157.3990  213.1740  157.2600 O   0  0  0  0  0  0  0  0  0  0  0  0
  159.3190  212.6730  154.4500 C   0  0  2  0  0  3  0  0  0  0  0  0
  156.2910  213.9140  153.8920 C   0  0  0  0  0  2  0  0  0  0  0  0
  157.9050  212.4980  155.0450 C   0  0  1  0  0  3  0  0  0  0  0  0
  156.5590  213.8330  156.3510 C   0  0  1  0  0  3  0  0  0  0  0  0
  157.9760  212.1300  156.5200 C   0  0  0  0  0  2  0  0  0  0  0  0
  159.2850  212.9240  152.9290 C   0  0  1  0  0  3  0  0  0  0  0  0
  156.9740  213.7400  152.5310 C   0  0  2  0  0  3  0  0  0  0  0  0
  158.4470  214.1340  152.5440 C   0  0  0  0  0  2  0  0  0  0  0  0
  157.2060  213.7710  155.0300 N   0  0  2  0  0  0  0  0  0  0  0  0
  161.1990  211.4870  155.6430 N   0  0  0  0  0  0  0  0  0  0  0  0
  161.6990  210.2650  155.6490 N   0  0  0  0  0  0  0  0  0  0  0  0
  160.0130  210.2780  154.1720 N   0  0  0  0  0  2  0  0  0  0  0  0
  160.9800  209.5480  154.7640 C   0  0  0  0  0  0  0  0  0  0  0  0
  160.1860  211.4800  154.7550 C   0  0  0  0  0  0  0  0  0  0  0  0
  161.5250  207.2680  155.4910 N   0  0  0  0  0  0  0  0  0  0  0  0
  161.6870  205.4350  153.9650 C   0  0  0  0  0  3  0  0  0  0  0  0
  161.2230  208.1270  154.4750 C   0  0  0  0  0  0  0  0  0  0  0  0
  161.3800  206.2960  152.9070 C   0  0  0  0  0  3  0  0  0  0  0  0
  161.1460  207.6490  153.1600 C   0  0  0  0  0  3  0  0  0  0  0  0
  161.7530  205.9450  155.2660 C   0  0  0  0  0  3  0  0  0  0  0  0
  155.1320  213.2320  156.5000 C   0  0  2  0  0  3  0  0  0  0  0  0
  154.1750  214.0660  157.0800 O   0  0  0  0  0  1  0  0  0  0  0  0
  155.0140  210.6660  156.3900 C   0  0  0  0  0  0  0  0  0  0  0  0
  154.7540  210.6490  155.1610 O   0  0  0  0  0  0  0  0  0  0  0  0
  155.1370  209.4700  157.0810 O   0  0  0  0  0  1  0  0  0  0  0  0
  155.1190  211.9020  157.1030 N   0  0  0  0  0  2  0  0  0  0  0  0
  156.1830  214.4430  151.4220 C   0  0  1  0  0  3  0  0  0  0  0  0
  156.9270  214.4530  150.0880 C   0  0  0  0  0  3  0  0  0  0  0  0
  156.3930  213.3450  149.2040 C   0  0  0  0  0  2  0  0  0  0  0  0
  157.7110  213.1640  149.9200 C   0  0  0  0  0  2  0  0  0  0  0  0
  154.8100  213.8020  151.2630 C   0  0  0  0  0  2  0  0  0  0  0  0
  154.1550  214.3540  150.1610 O   0  0  0  0  0  1  0  0  0  0  0  0
  160.6800  213.1030  152.3530 C   0  0  0  0  0  2  0  0  0  0  0  0
  161.2690  211.7290  152.0900 C   0  0  0  0  0  2  0  0  0  0  0  0
  160.6570  211.0880  150.8500 C   0  0  2  0  0  3  0  0  0  0  0  0
  160.0970  209.7210  151.2240 C   0  0  0  0  0  1  0  0  0  0  0  0
  161.8370  212.1700  148.8910 C   0  0  0  0  0  0  0  0  0  0  0  0
  162.1210  213.3420  149.0760 O   0  0  0  0  0  0  0  0  0  0  0  0
  161.7280  210.9260  149.7670 C   0  0  2  0  0  3  0  0  0  0  0  0
  161.3080  209.9420  148.7230 C   0  0  1  0  0  3  0  0  0  0  0  0
  161.3910  211.1590  147.4370 S   0  0  0  0  0  0  0  0  0  0  0  0
  162.3500  208.8700  148.5400 C   0  0  0  0  0  0  0  0  0  0  0  0
  163.3480  209.0860  147.8700 O   0  0  0  0  0  0  0  0  0  0  0  0
  162.1730  207.5130  149.1520 C   0  0  2  0  0  3  0  0  0  0  0  0
  163.3310  207.1180  149.8250 O   0  0  0  0  0  1  0  0  0  0  0  0
  161.6810  206.4500  148.1530 C   0  0  2  0  0  3  0  0  0  0  0  0
  160.0670  206.1420  149.9360 O   0  0  0  0  0  1  0  0  0  0  0  0
  160.5180  205.6110  148.7230 C   0  0  2  0  0  3  0  0  0  0  0  0
  159.9720  203.1840  148.1650 C   0  0  0  0  0  2  0  0  0  0  0  0
  160.3800  202.4980  150.8550 C   0  0  0  0  0  2  0  0  0  0  0  0
  160.8960  204.1420  148.9360 C   0  0  2  0  0  3  0  0  0  0  0  0
  161.0590  203.8040  150.4320 C   0  0  0  0  0  2  0  0  0  0  0  0
  161.0860  201.2430  150.3340 C   0  0  0  0  0  2  0  0  0  0  0  0
  161.6490  201.3710  148.9150 C   0  0  1  0  0  3  0  0  0  0  0  0
  162.2050  200.1550  148.5230 O   0  0  0  0  0  1  0  0  0  0  0  0
  160.6200  201.8250  147.8720 C   0  0  0  0  0  2  0  0  0  0  0  0
  162.8160  205.6220  147.5300 C   0  0  0  0  0  2  0  0  0  0  0  0
  162.3150  204.3860  146.7910 C   0  0  0  0  0  2  0  0  0  0  0  0
  162.4730  204.5740  145.2930 C   0  0  0  0  0  2  0  0  0  0  0  0
  161.2730  205.2590  144.7310 C   0  0  0  0  0  0  0  0  0  0  0  0
  161.3760  205.9840  143.5520 O   0  0  0  0  0  0  0  0  0  0  0  0
  160.1590  205.1480  145.3070 O   0  0  0  0  0  1  0  0  0  0  0  0
  2 15  1  6  0  0  0
  2  4  1  0  0  0  0
  4  6  1  1  0  0  0
  5 22  1  6  0  0  0
  5  1  1  0  0  0  0
  6  1  1  0  0  0  0
  7 34  1  1  0  0  0
  7  2  1  0  0  0  0
  8 28  1  6  0  0  0
  8  9  1  0  0  0  0
  8  3  1  0  0  0  0
  9  7  1  0  0  0  0
 10  3  1  6  0  0  0
 10  4  1  0  0  0  0
 10  5  1  0  0  0  0
 11 12  1  0  0  0  0
 13 15  1  0  0  0  0
 13 14  1  0  0  0  0
 14 12  2  0  0  0  0
 15 11  2  0  0  0  0
 17 21  2  0  0  0  0
 18 14  1  0  0  0  0
 18 16  2  0  0  0  0
 19 20  2  0  0  0  0
 19 17  1  0  0  0  0
 20 18  1  0  0  0  0
 21 16  1  0  0  0  0
 22 23  1  1  0  0  0
 22 27  1  0  0  0  0
 24 26  1  0  0  0  0
 24 27  1  0  0  0  0
 25 24  2  0  0  0  0
 28 32  1  6  0  0  0
 29 28  1  0  0  0  0
 30 31  1  0  0  0  0
 30 29  1  0  0  0  0
 31 29  1  0  0  0  0
 33 32  1  0  0  0  0
 35 34  1  0  0  0  0
 36 37  1  1  0  0  0
 36 35  1  0  0  0  0
 38 39  2  0  0  0  0
 38 40  1  0  0  0  0
 40 36  1  1  0  0  0
 41 43  1  6  0  0  0
 41 40  1  0  0  0  0
 42 41  1  0  0  0  0
 42 38  1  0  0  0  0
 43 45  1  0  0  0  0
 44 43  2  0  0  0  0
 45 46  1  6  0  0  0
 47 58  1  1  0  0  0
 47 49  1  0  0  0  0
 47 45  1  0  0  0  0
 49 48  1  1  0  0  0
 50 52  1  0  0  0  0
 52 49  1  1  0  0  0
 52 53  1  0  0  0  0
 53 51  1  0  0  0  0
 54 51  1  0  0  0  0
 55 56  1  6  0  0  0
 55 54  1  0  0  0  0
 57 50  1  0  0  0  0
 57 55  1  0  0  0  0
 59 58  1  0  0  0  0
 60 59  1  0  0  0  0
 61 60  1  0  0  0  0
 61 63  1  0  0  0  0
 62 61  2  0  0  0  0
M  END
>  <MODEL>
2

>  <REMARK>
 VINA RESULT:       1.0      4.837      9.546
  Name = 
  20 active torsions:
  status: ('A' for Active; 'I' for Inactive)
    1  A    between atoms: C_4  and  C_12
    2  A    between atoms: C_4  and  C_36
    3  A    between atoms: C_7  and  C_60
    4  A    between atoms: C_8  and  C_22
    5  A    between atoms: C_8  and  C_31
    6  A    between atoms: C_12  and  C_23
    7  A    between atoms: C_13  and  C_22
    8  A    between atoms: C_13  and  C_30
    9  A    between atoms: C_14  and  C_15
   10  A    between atoms: C_14  and  C_38
   11  A    between atoms: C_14  and  C_49
   12  A    between atoms: C_16  and  C_29
   13  A    between atoms: C_16  and  N_58
   14  A    between atoms: C_21  and  C_54
   15  A    between atoms: C_22  and  C_25
   16  A    between atoms: C_23  and  C_46
   17  A    between atoms: C_25  and  C_62
   18  A    between atoms: C_31  and  C_41
   19  A    between atoms: C_39  and  C_59
   20  A    between atoms: C_54  and  C_62
                            x       y       z     vdW  Elec       q    Type
                         _______ _______ _______ _____ _____    ______ ____

>  <TORSDO>
F 20

$$$$
