=
 OpenBabel11072414413D

 60 69  0  0  1  0  0  0  0  0999 V2000
  160.4780  206.9540  155.2320 C   0  0  0  0  0  0  0  0  0  0  0  0
  159.8700  208.7020  153.6630 C   0  0  0  0  0  0  0  0  0  0  0  0
  160.3320  206.4340  156.3680 O   0  0  0  0  0  0  0  0  0  0  0  0
  158.8520  208.9580  155.6790 C   0  0  0  0  0  3  0  0  0  0  0  0
  159.0190  209.9170  153.5530 C   0  0  1  0  0  3  0  0  0  0  0  0
  161.4870  206.8730  153.0040 C   0  0  0  0  0  0  0  0  0  0  0  0
  160.6920  208.0880  152.5620 C   0  0  0  0  0  2  0  0  0  0  0  0
  159.7550  208.1710  154.8610 C   0  0  0  0  0  0  0  0  0  0  0  0
  158.4220  209.9730  154.9330 C   0  0  0  0  0  3  0  0  0  0  0  0
  161.3720  206.3480  154.2320 C   0  0  0  0  0  3  0  0  0  0  0  0
  159.8920  211.1430  153.3020 C   0  0  0  0  0  2  0  0  0  0  0  0
  157.4620  213.6260  146.7380 C   0  0  1  0  0  3  0  0  0  0  0  0
  156.2730  213.0950  145.9520 C   0  0  1  0  0  3  0  0  0  0  0  0
  156.3220  212.9540  147.4790 C   0  0  2  0  0  3  0  0  0  0  0  0
  160.8670  212.9700  150.7890 O   0  0  0  0  0  0  0  0  0  0  0  0
  158.6070  212.6400  146.6380 C   0  0  0  0  0  2  0  0  0  0  0  0
  159.8590  213.3560  146.1770 C   0  0  0  0  0  2  0  0  0  0  0  0
  160.1370  213.9810  151.4710 C   0  0  1  0  0  3  0  0  0  0  0  0
  158.0000  212.2180  152.0570 C   0  0  0  0  0  2  0  0  0  0  0  0
  158.7980  214.2240  150.7610 C   0  0  0  0  0  2  0  0  0  0  0  0
  156.4580  213.2700  150.4390 C   0  0  1  0  0  3  0  0  0  0  0  0
  157.5880  213.5450  151.4300 C   0  0  1  0  0  3  0  0  0  0  0  0
  161.9250  214.4520  149.3730 O   0  0  0  0  0  0  0  0  0  0  0  0
  159.9590  213.6190  152.9480 C   0  0  0  0  0  2  0  0  0  0  0  0
  162.0640  212.2040  148.8390 O   0  0  0  0  0  0  0  0  0  0  0  0
  155.3050  214.2150  150.7160 C   0  0  0  0  0  2  0  0  0  0  0  0
  159.0460  212.4030  153.1650 C   0  0  2  0  0  3  0  0  0  0  0  0
  155.4820  213.9770  148.2530 C   0  0  0  0  0  2  0  0  0  0  0  0
  156.1940  214.4520  149.5140 C   0  0  2  0  0  3  0  0  0  0  0  0
  155.4490  214.2690  145.4370 C   0  0  0  0  0  1  0  0  0  0  0  0
  162.1600  213.1720  146.6070 C   0  0  0  0  0  2  0  0  0  0  0  0
  160.9830  212.4320  146.1750 N   0  0  0  0  0  0  0  0  0  0  0  0
  162.8970  212.4040  147.7000 C   0  0  0  0  0  2  0  0  0  0  0  0
  161.6340  213.2550  149.6590 C   0  0  0  0  0  0  0  0  0  0  0  0
  161.2070  211.9450  144.8130 C   0  0  0  0  0  2  0  0  0  0  0  0
  161.8730  212.8930  144.0260 O   0  0  0  0  0  1  0  0  0  0  0  0
  162.3910  206.2080  152.0200 C   0  0  0  0  0  2  0  0  0  0  0  0
  161.3510  203.9530  152.2910 C   0  0  0  0  0  3  0  0  0  0  0  0
  160.7250  202.8130  151.7800 C   0  0  0  0  0  3  0  0  0  0  0  0
  160.4950  202.6970  150.4060 C   0  0  0  0  0  0  0  0  0  0  0  0
  161.7550  204.9840  151.4320 C   0  0  0  0  0  0  0  0  0  0  0  0
  160.8970  203.7180  149.5420 C   0  0  0  0  0  3  0  0  0  0  0  0
  161.5350  204.8610  150.0440 C   0  0  0  0  0  0  0  0  0  0  0  0
  159.8820  201.5950  149.9130 F   0  0  0  0  0  0  0  0  0  0  0  0
  161.9430  205.9460  149.0930 C   0  0  0  0  0  2  0  0  0  0  0  0
  162.7470  205.9780  144.4210 C   0  0  0  0  0  2  0  0  0  0  0  0
  161.5070  205.5190  142.4360 O   0  0  0  0  0  1  0  0  0  0  0  0
  161.8830  205.4800  147.6740 C   0  0  0  0  0  0  0  0  0  0  0  0
  162.4970  205.1550  145.5880 N   0  0  0  0  0  0  0  0  0  0  0  0
  160.6540  204.9390  147.0290 C   0  0  0  0  0  2  0  0  0  0  0  0
  161.1560  204.6010  145.6170 C   0  0  1  0  0  0  0  0  0  0  0  0
  160.3750  205.3500  144.5360 C   0  0  0  0  0  2  0  0  0  0  0  0
  162.8630  205.6190  146.8500 N   0  0  0  0  0  0  0  0  0  0  0  0
  161.4110  206.1030  143.7000 C   0  0  1  0  0  3  0  0  0  0  0  0
  161.4900  200.1130  146.3210 O   0  0  0  0  0  1  0  0  0  0  0  0
  160.5690  201.1280  146.5780 C   0  0  1  0  0  3  0  0  0  0  0  0
  159.9610  202.6460  144.8030 C   0  0  0  0  0  2  0  0  0  0  0  0
  161.2980  202.4460  146.7040 C   0  0  0  0  0  2  0  0  0  0  0  0
  161.1940  203.1370  145.4190 N   0  0  2  0  0  0  0  0  0  0  0  0
  159.6560  201.2840  145.3870 C   0  0  0  0  0  2  0  0  0  0  0  0
  1  3  2  0  0  0  0
  2  8  2  0  0  0  0
  5 11  1  1  0  0  0
  5  2  1  0  0  0  0
  5  9  1  0  0  0  0
  6 10  2  0  0  0  0
  7  6  1  0  0  0  0
  7  2  1  0  0  0  0
  8  1  1  0  0  0  0
  8  4  1  0  0  0  0
  9  4  2  0  0  0  0
 10  1  1  0  0  0  0
 12 16  1  6  0  0  0
 12 14  1  0  0  0  0
 13 30  1  1  0  0  0
 13 12  1  0  0  0  0
 13 14  1  0  0  0  0
 14 28  1  1  0  0  0
 15 18  1  0  0  0  0
 17 16  1  0  0  0  0
 18 20  1  6  0  0  0
 18 24  1  0  0  0  0
 19 27  1  0  0  0  0
 21 26  1  1  0  0  0
 21 22  1  0  0  0  0
 22 20  1  6  0  0  0
 22 19  1  0  0  0  0
 23 34  2  0  0  0  0
 24 27  1  0  0  0  0
 25 34  1  0  0  0  0
 27 11  1  6  0  0  0
 29 28  1  6  0  0  0
 29 21  1  0  0  0  0
 29 26  1  0  0  0  0
 31 33  1  0  0  0  0
 32 17  1  0  0  0  0
 32 31  1  0  0  0  0
 33 25  1  0  0  0  0
 34 15  1  0  0  0  0
 35 32  1  0  0  0  0
 36 35  1  0  0  0  0
 37  6  1  0  0  0  0
 39 38  1  0  0  0  0
 40 39  2  0  0  0  0
 41 37  1  0  0  0  0
 41 38  2  0  0  0  0
 42 43  2  0  0  0  0
 42 40  1  0  0  0  0
 43 41  1  0  0  0  0
 44 40  1  0  0  0  0
 45 43  1  0  0  0  0
 46 49  1  0  0  0  0
 48 45  1  0  0  0  0
 49 51  1  0  0  0  0
 49 53  1  0  0  0  0
 50 48  1  0  0  0  0
 51 52  1  6  0  0  0
 51 50  1  0  0  0  0
 53 48  2  0  0  0  0
 54 47  1  6  0  0  0
 54 46  1  0  0  0  0
 54 52  1  0  0  0  0
 56 55  1  6  0  0  0
 56 58  1  0  0  0  0
 57 60  1  0  0  0  0
 59 57  1  1  0  0  0
 59 51  1  0  0  0  0
 59 58  1  0  0  0  0
 60 56  1  0  0  0  0
M  END
>  <MODEL>
1

>  <REMARK>
 VINA RESULT:      -2.5      0.000      0.000
  Name = 
  8 active torsions:
  status: ('A' for Active; 'I' for Inactive)
    1  A    between atoms: C_6  and  C_30
    2  A    between atoms: C_6  and  C_42
    3  A    between atoms: C_10  and  C_25
    4  A    between atoms: C_13  and  N_51
    5  A    between atoms: C_21  and  C_27
    6  A    between atoms: C_21  and  C_33
    7  A    between atoms: C_24  and  N_54
    8  A    between atoms: C_25  and  C_39
                            x       y       z     vdW  Elec       q    Type
                         _______ _______ _______ _____ _____    ______ ____

>  <TORSDO>
F 8

$$$$
=
 OpenBabel11072414413D

 60 69  0  0  1  0  0  0  0  0999 V2000
  157.9880  211.2180  155.9510 C   0  0  0  0  0  0  0  0  0  0  0  0
  159.8310  210.0590  154.8790 C   0  0  0  0  0  0  0  0  0  0  0  0
  157.0980  211.2270  156.8410 O   0  0  0  0  0  0  0  0  0  0  0  0
  158.8580  208.8120  156.5120 C   0  0  0  0  0  3  0  0  0  0  0  0
  160.5820  208.7760  154.9330 C   0  0  1  0  0  3  0  0  0  0  0  0
  159.1590  212.3840  154.1460 C   0  0  0  0  0  0  0  0  0  0  0  0
  160.1420  211.2370  153.9960 C   0  0  0  0  0  2  0  0  0  0  0  0
  158.8720  210.0650  155.7810 C   0  0  0  0  0  0  0  0  0  0  0  0
  159.8410  208.0580  156.0270 C   0  0  0  0  0  3  0  0  0  0  0  0
  158.1770  212.3720  155.0590 C   0  0  0  0  0  3  0  0  0  0  0  0
  160.4320  208.0290  153.6120 C   0  0  0  0  0  2  0  0  0  0  0  0
  161.2520  204.6480  147.0500 C   0  0  1  0  0  3  0  0  0  0  0  0
  160.5040  204.9680  145.7660 C   0  0  1  0  0  3  0  0  0  0  0  0
  160.7130  206.0480  146.8340 C   0  0  2  0  0  3  0  0  0  0  0  0
  161.6870  205.3140  152.3230 O   0  0  0  0  0  0  0  0  0  0  0  0
  160.3240  203.9260  148.0030 C   0  0  0  0  0  2  0  0  0  0  0  0
  160.9740  202.6430  148.4770 C   0  0  0  0  0  2  0  0  0  0  0  0
  162.7910  206.1670  152.0510 C   0  0  1  0  0  3  0  0  0  0  0  0
  161.1090  208.2840  151.2110 C   0  0  0  0  0  2  0  0  0  0  0  0
  162.8050  206.5400  150.5620 C   0  0  0  0  0  2  0  0  0  0  0  0
  161.6960  208.0360  148.8240 C   0  0  1  0  0  3  0  0  0  0  0  0
  162.2400  207.9390  150.2490 C   0  0  1  0  0  3  0  0  0  0  0  0
  162.8590  203.3770  151.8820 O   0  0  0  0  0  0  0  0  0  0  0  0
  162.7640  207.3970  152.9620 C   0  0  0  0  0  2  0  0  0  0  0  0
  160.5560  203.2000  152.0540 O   0  0  0  0  0  0  0  0  0  0  0  0
  162.6250  208.8970  147.9890 C   0  0  0  0  0  2  0  0  0  0  0  0
  161.5880  208.3400  152.6680 C   0  0  2  0  0  3  0  0  0  0  0  0
  161.8450  207.0420  146.5400 C   0  0  0  0  0  2  0  0  0  0  0  0
  162.6250  207.3950  147.8000 C   0  0  2  0  0  3  0  0  0  0  0  0
  161.4910  205.0040  144.6060 C   0  0  0  0  0  1  0  0  0  0  0  0
  160.9990  201.4040  150.4710 C   0  0  0  0  0  2  0  0  0  0  0  0
  160.1270  201.9970  149.4680 N   0  0  0  0  0  0  0  0  0  0  0  0
  160.5320  201.7870  151.8720 C   0  0  0  0  0  2  0  0  0  0  0  0
  161.7440  203.9410  152.0830 C   0  0  0  0  0  0  0  0  0  0  0  0
  159.3550  200.9320  148.8250 C   0  0  0  0  0  2  0  0  0  0  0  0
  157.9780  201.1130  148.9980 O   0  0  0  0  0  1  0  0  0  0  0  0
  159.3220  213.5880  153.2790 C   0  0  0  0  0  2  0  0  0  0  0  0
  156.8800  213.9000  152.8530 C   0  0  0  0  0  3  0  0  0  0  0  0
  155.7900  214.0760  151.9980 C   0  0  0  0  0  3  0  0  0  0  0  0
  155.9810  214.0980  150.6130 C   0  0  0  0  0  0  0  0  0  0  0  0
  158.1700  213.7390  152.3310 C   0  0  0  0  0  0  0  0  0  0  0  0
  157.2630  213.9340  150.0830 C   0  0  0  0  0  3  0  0  0  0  0  0
  158.3630  213.7470  150.9330 C   0  0  0  0  0  0  0  0  0  0  0  0
  154.9240  214.2760  149.7860 F   0  0  0  0  0  0  0  0  0  0  0  0
  159.7280  213.5880  150.3350 C   0  0  0  0  0  2  0  0  0  0  0  0
  157.8350  214.0620  146.0140 C   0  0  0  0  0  2  0  0  0  0  0  0
  158.0970  213.0400  143.8760 O   0  0  0  0  0  1  0  0  0  0  0  0
  159.6840  213.6620  148.8430 C   0  0  0  0  0  0  0  0  0  0  0  0
  159.0190  214.2480  146.8310 N   0  0  0  0  0  0  0  0  0  0  0  0
  160.4490  212.7530  147.9430 C   0  0  0  0  0  2  0  0  0  0  0  0
  160.0610  213.2790  146.5530 C   0  0  1  0  0  0  0  0  0  0  0  0
  159.4040  212.1990  145.6940 C   0  0  0  0  0  2  0  0  0  0  0  0
  158.8840  214.4440  148.2050 N   0  0  0  0  0  0  0  0  0  0  0  0
  158.0570  212.7660  145.2440 C   0  0  1  0  0  3  0  0  0  0  0  0
  164.1750  214.0940  144.7740 O   0  0  0  0  0  1  0  0  0  0  0  0
  163.0300  213.3780  144.4280 C   0  0  1  0  0  3  0  0  0  0  0  0
  160.8740  214.4530  144.5840 C   0  0  0  0  0  2  0  0  0  0  0  0
  162.2970  212.9680  145.6850 C   0  0  0  0  0  2  0  0  0  0  0  0
  161.2200  213.9320  145.9070 N   0  0  2  0  0  0  0  0  0  0  0  0
  162.0800  214.2860  143.6860 C   0  0  0  0  0  2  0  0  0  0  0  0
  1  3  2  0  0  0  0
  2  5  1  0  0  0  0
  2  8  2  0  0  0  0
  5 11  1  6  0  0  0
  5  9  1  0  0  0  0
  6 10  2  0  0  0  0
  7  6  1  0  0  0  0
  7  2  1  0  0  0  0
  8  1  1  0  0  0  0
  8  4  1  0  0  0  0
  9  4  2  0  0  0  0
 10  1  1  0  0  0  0
 12 16  1  1  0  0  0
 13 30  1  6  0  0  0
 13 14  1  0  0  0  0
 13 12  1  0  0  0  0
 14 28  1  6  0  0  0
 14 12  1  0  0  0  0
 16 17  1  0  0  0  0
 17 32  1  0  0  0  0
 18 20  1  6  0  0  0
 18 15  1  0  0  0  0
 18 24  1  0  0  0  0
 19 27  1  0  0  0  0
 21 26  1  6  0  0  0
 21 22  1  0  0  0  0
 22 20  1  1  0  0  0
 22 19  1  0  0  0  0
 23 34  2  0  0  0  0
 25 34  1  0  0  0  0
 27 24  1  0  0  0  0
 27 11  1  1  0  0  0
 29 28  1  6  0  0  0
 29 26  1  0  0  0  0
 29 21  1  0  0  0  0
 31 33  1  0  0  0  0
 32 31  1  0  0  0  0
 33 25  1  0  0  0  0
 34 15  1  0  0  0  0
 35 36  1  0  0  0  0
 35 32  1  0  0  0  0
 37  6  1  0  0  0  0
 39 38  2  0  0  0  0
 40 39  1  0  0  0  0
 41 38  1  0  0  0  0
 41 37  1  0  0  0  0
 42 40  2  0  0  0  0
 42 43  1  0  0  0  0
 43 41  2  0  0  0  0
 44 40  1  0  0  0  0
 45 43  1  0  0  0  0
 46 49  1  0  0  0  0
 48 45  1  0  0  0  0
 49 53  1  0  0  0  0
 50 48  1  0  0  0  0
 51 52  1  6  0  0  0
 51 49  1  0  0  0  0
 51 50  1  0  0  0  0
 53 48  2  0  0  0  0
 54 47  1  6  0  0  0
 54 52  1  0  0  0  0
 54 46  1  0  0  0  0
 56 55  1  1  0  0  0
 56 58  1  0  0  0  0
 58 59  1  0  0  0  0
 59 57  1  6  0  0  0
 59 51  1  0  0  0  0
 60 56  1  0  0  0  0
 60 57  1  0  0  0  0
M  END
>  <MODEL>
2

>  <REMARK>
 VINA RESULT:      -2.3      3.149      9.233
  Name = 
  8 active torsions:
  status: ('A' for Active; 'I' for Inactive)
    1  A    between atoms: C_6  and  C_30
    2  A    between atoms: C_6  and  C_42
    3  A    between atoms: C_10  and  C_25
    4  A    between atoms: C_13  and  N_51
    5  A    between atoms: C_21  and  C_27
    6  A    between atoms: C_21  and  C_33
    7  A    between atoms: C_24  and  N_54
    8  A    between atoms: C_25  and  C_39
                            x       y       z     vdW  Elec       q    Type
                         _______ _______ _______ _____ _____    ______ ____

>  <TORSDO>
F 8

$$$$
=
 OpenBabel11072414413D

 60 69  0  0  1  0  0  0  0  0999 V2000
  163.5300  212.0340  148.6690 C   0  0  0  0  0  0  0  0  0  0  0  0
  161.4500  212.3680  147.4670 C   0  0  0  0  0  0  0  0  0  0  0  0
  164.6490  212.4870  149.0250 O   0  0  0  0  0  0  0  0  0  0  0  0
  162.8730  214.1250  147.2350 C   0  0  0  0  0  3  0  0  0  0  0  0
  160.7500  213.3660  146.6130 C   0  0  1  0  0  3  0  0  0  0  0  0
  161.8660  210.2430  148.7730 C   0  0  0  0  0  0  0  0  0  0  0  0
  160.8840  211.0620  147.9540 C   0  0  0  0  0  2  0  0  0  0  0  0
  162.6370  212.8160  147.8140 C   0  0  0  0  0  0  0  0  0  0  0  0
  161.7900  214.4510  146.5350 C   0  0  0  0  0  3  0  0  0  0  0  0
  163.0780  210.7050  149.1100 C   0  0  0  0  0  3  0  0  0  0  0  0
  160.4920  212.7780  145.2300 C   0  0  0  0  0  2  0  0  0  0  0  0
  157.9260  211.0100  138.4880 C   0  0  1  0  0  3  0  0  0  0  0  0
  156.6160  210.3030  138.1740 C   0  0  1  0  0  3  0  0  0  0  0  0
  156.7650  211.1310  139.4570 C   0  0  2  0  0  3  0  0  0  0  0  0
  161.5130  212.4750  142.1520 O   0  0  0  0  0  0  0  0  0  0  0  0
  158.9110  210.0090  139.0540 C   0  0  0  0  0  2  0  0  0  0  0  0
  160.2100  210.0770  138.2810 C   0  0  0  0  0  2  0  0  0  0  0  0
  160.9870  213.7900  142.0350 C   0  0  1  0  0  3  0  0  0  0  0  0
  158.6770  213.1330  143.5370 C   0  0  0  0  0  2  0  0  0  0  0  0
  159.6430  213.7490  141.2940 C   0  0  0  0  0  2  0  0  0  0  0  0
  157.1750  213.1850  141.5760 C   0  0  1  0  0  3  0  0  0  0  0  0
  158.4060  213.8310  142.2090 C   0  0  1  0  0  3  0  0  0  0  0  0
  162.6530  212.5730  140.1490 O   0  0  0  0  0  0  0  0  0  0  0  0
  160.8750  214.4530  143.4110 C   0  0  0  0  0  2  0  0  0  0  0  0
  162.4350  210.4900  141.1370 O   0  0  0  0  0  0  0  0  0  0  0  0
  156.1900  214.2650  141.1740 C   0  0  0  0  0  2  0  0  0  0  0  0
  159.8220  213.7960  144.3150 C   0  0  2  0  0  3  0  0  0  0  0  0
  156.1380  212.5300  139.4020 C   0  0  0  0  0  2  0  0  0  0  0  0
  157.0060  213.5640  140.1090 C   0  0  2  0  0  3  0  0  0  0  0  0
  155.9270  211.0170  137.0180 C   0  0  0  0  0  1  0  0  0  0  0  0
  162.4890  209.8390  138.7910 C   0  0  0  0  0  2  0  0  0  0  0  0
  161.1910  209.1880  138.8840 N   0  0  0  0  0  0  0  0  0  0  0  0
  163.1950  209.8070  140.1440 C   0  0  0  0  0  2  0  0  0  0  0  0
  162.2210  211.8730  141.1110 C   0  0  0  0  0  0  0  0  0  0  0  0
  161.2370  207.9340  138.1290 C   0  0  0  0  0  2  0  0  0  0  0  0
  161.9400  206.9390  138.8190 O   0  0  0  0  0  1  0  0  0  0  0  0
  161.4460  208.8980  149.2640 C   0  0  0  0  0  2  0  0  0  0  0  0
  160.3730  209.7420  151.3550 C   0  0  0  0  0  3  0  0  0  0  0  0
  160.1890  209.7290  152.7400 C   0  0  0  0  0  3  0  0  0  0  0  0
  160.9280  208.8490  153.5370 C   0  0  0  0  0  0  0  0  0  0  0  0
  161.3000  208.8800  150.7560 C   0  0  0  0  0  0  0  0  0  0  0  0
  161.8570  207.9880  152.9480 C   0  0  0  0  0  3  0  0  0  0  0  0
  162.0570  208.0010  151.5600 C   0  0  0  0  0  0  0  0  0  0  0  0
  160.7430  208.8310  154.8770 F   0  0  0  0  0  0  0  0  0  0  0  0
  163.0520  207.0560  150.9570 C   0  0  0  0  0  2  0  0  0  0  0  0
  161.8300  206.7240  146.3880 C   0  0  0  0  0  2  0  0  0  0  0  0
  160.0280  205.8020  145.1290 O   0  0  0  0  0  1  0  0  0  0  0  0
  162.5240  206.4310  149.7060 C   0  0  0  0  0  0  0  0  0  0  0  0
  162.2810  206.0050  147.5630 N   0  0  0  0  0  0  0  0  0  0  0  0
  161.3010  205.5810  149.6560 C   0  0  0  0  0  2  0  0  0  0  0  0
  161.2410  205.1960  148.1690 C   0  0  1  0  0  0  0  0  0  0  0  0
  159.9340  205.6430  147.5140 C   0  0  0  0  0  2  0  0  0  0  0  0
  163.0160  206.6740  148.5410 N   0  0  0  0  0  0  0  0  0  0  0  0
  160.3270  206.4920  146.3040 C   0  0  1  0  0  3  0  0  0  0  0  0
  161.5290  200.6970  148.8190 O   0  0  0  0  0  1  0  0  0  0  0  0
  160.5420  201.6270  148.4960 C   0  0  1  0  0  3  0  0  0  0  0  0
  160.9690  203.2400  146.7510 C   0  0  0  0  0  2  0  0  0  0  0  0
  160.9170  202.9740  149.0680 C   0  0  0  0  0  2  0  0  0  0  0  0
  161.5330  203.7570  147.9970 N   0  0  2  0  0  0  0  0  0  0  0  0
  160.5120  201.8190  146.9990 C   0  0  0  0  0  2  0  0  0  0  0  0
  1  3  2  0  0  0  0
  1 10  1  0  0  0  0
  2  8  2  0  0  0  0
  2  7  1  0  0  0  0
  4  8  1  0  0  0  0
  5 11  1  6  0  0  0
  5  2  1  0  0  0  0
  6 10  2  0  0  0  0
  6 37  1  0  0  0  0
  7  6  1  0  0  0  0
  8  1  1  0  0  0  0
  9  5  1  0  0  0  0
  9  4  2  0  0  0  0
 12 16  1  1  0  0  0
 12 14  1  0  0  0  0
 13 30  1  6  0  0  0
 13 12  1  0  0  0  0
 13 14  1  0  0  0  0
 14 28  1  6  0  0  0
 17 32  1  0  0  0  0
 17 16  1  0  0  0  0
 18 20  1  1  0  0  0
 18 15  1  0  0  0  0
 18 24  1  0  0  0  0
 19 27  1  0  0  0  0
 21 26  1  1  0  0  0
 21 22  1  0  0  0  0
 22 20  1  6  0  0  0
 22 19  1  0  0  0  0
 23 34  2  0  0  0  0
 24 27  1  0  0  0  0
 27 11  1  6  0  0  0
 29 28  1  6  0  0  0
 29 26  1  0  0  0  0
 29 21  1  0  0  0  0
 31 32  1  0  0  0  0
 31 33  1  0  0  0  0
 33 25  1  0  0  0  0
 34 25  1  0  0  0  0
 34 15  1  0  0  0  0
 35 36  1  0  0  0  0
 35 32  1  0  0  0  0
 37 41  1  0  0  0  0
 38 39  1  0  0  0  0
 39 40  2  0  0  0  0
 40 44  1  0  0  0  0
 41 38  2  0  0  0  0
 41 43  1  0  0  0  0
 42 40  1  0  0  0  0
 43 42  2  0  0  0  0
 45 43  1  0  0  0  0
 46 49  1  0  0  0  0
 48 45  1  0  0  0  0
 49 51  1  0  0  0  0
 49 53  1  0  0  0  0
 50 48  1  0  0  0  0
 51 52  1  6  0  0  0
 51 50  1  0  0  0  0
 53 48  2  0  0  0  0
 54 47  1  6  0  0  0
 54 46  1  0  0  0  0
 54 52  1  0  0  0  0
 56 55  1  6  0  0  0
 56 58  1  0  0  0  0
 57 60  1  0  0  0  0
 59 57  1  6  0  0  0
 59 51  1  0  0  0  0
 59 58  1  0  0  0  0
 60 56  1  0  0  0  0
M  END
>  <MODEL>
3

>  <REMARK>
 VINA RESULT:      -1.4      3.928      7.155
  Name = 
  8 active torsions:
  status: ('A' for Active; 'I' for Inactive)
    1  A    between atoms: C_6  and  C_30
    2  A    between atoms: C_6  and  C_42
    3  A    between atoms: C_10  and  C_25
    4  A    between atoms: C_13  and  N_51
    5  A    between atoms: C_21  and  C_27
    6  A    between atoms: C_21  and  C_33
    7  A    between atoms: C_24  and  N_54
    8  A    between atoms: C_25  and  C_39
                            x       y       z     vdW  Elec       q    Type
                         _______ _______ _______ _____ _____    ______ ____

>  <TORSDO>
F 8

$$$$
