=
 OpenBabel11072411103D

 30 32  0  0  1  0  0  0  0  0999 V2000
  161.0800  205.3820  150.8070 C   0  0  0  0  0  3  0  0  0  0  0  0
  161.2050  207.8550  154.0930 C   0  0  0  0  0  0  0  0  0  0  0  0
  161.2760  207.7410  155.5110 N   0  0  0  0  0  1  0  0  0  0  0  0
  160.8240  208.6900  152.0070 C   0  0  0  0  0  2  0  0  0  0  0  0
  160.7500  208.9210  153.4480 C   0  0  0  0  0  0  0  0  0  0  0  0
  161.4190  207.5150  151.8440 C   0  0  2  0  0  3  0  0  0  0  0  0
  160.8900  204.8310  152.1750 C   0  0  0  0  0  3  0  0  0  0  0  0
  161.3350  206.6840  150.6330 C   0  0  0  0  0  0  0  0  0  0  0  0
  161.1580  205.5460  153.2360 N   0  0  0  0  0  0  0  0  0  0  0  0
  161.7820  206.8720  153.1410 C   0  0  2  0  0  3  0  0  0  0  0  0
  161.4200  207.2500  149.2530 C   0  0  1  0  0  3  0  0  0  0  0  0
  162.7390  207.4950  148.9160 F   0  0  0  0  0  0  0  0  0  0  0  0
  160.7820  206.3060  148.2450 C   0  0  0  0  0  2  0  0  0  0  0  0
  161.8450  205.5880  147.4280 C   0  0  0  0  0  2  0  0  0  0  0  0
  161.2470  204.4230  146.6420 C   0  0  2  0  0  3  0  0  0  0  0  0
  160.9610  201.6880  146.3760 S   0  0  0  0  0  0  0  0  0  0  0  0
  161.5250  203.1020  147.3630 C   0  0  2  0  0  3  0  0  0  0  0  0
  160.9730  200.7510  147.9090 C   0  0  0  0  0  2  0  0  0  0  0  0
  160.8520  203.0730  148.6610 N   0  0  0  0  0  2  0  0  0  0  0  0
  160.4900  201.6960  148.9870 C   0  0  2  0  0  3  0  0  0  0  0  0
  161.0930  201.3050  150.3200 C   0  0  0  0  0  1  0  0  0  0  0  0
  161.8480  204.3900  145.2440 C   0  0  0  0  0  2  0  0  0  0  0  0
  161.2700  205.5150  144.4080 C   0  0  0  0  0  1  0  0  0  0  0  0
  160.1330  210.1180  154.1040 C   0  0  1  0  0  3  0  0  0  0  0  0
  161.1990  211.1180  154.5310 C   0  0  0  0  0  2  0  0  0  0  0  0
  161.3080  211.1630  156.0430 C   0  0  0  0  0  1  0  0  0  0  0  0
  159.2030  210.7530  153.1850 N   0  0  0  0  0  2  0  0  0  0  0  0
  158.6160  211.8830  153.8870 C   0  0  0  0  0  2  0  0  0  0  0  0
  157.3260  211.4580  154.5660 C   0  0  0  0  0  2  0  0  0  0  0  0
  157.3870  211.7630  156.0500 C   0  0  0  0  0  1  0  0  0  0  0  0
  1  7  1  0  0  0  0
  2  3  1  0  0  0  0
  4  5  1  0  0  0  0
  5  2  2  0  0  0  0
  5 24  1  0  0  0  0
  6  4  1  1  0  0  0
  6 10  1  0  0  0  0
  7  9  2  0  0  0  0
  8  1  2  0  0  0  0
  8  6  1  0  0  0  0
 10  9  1  6  0  0  0
 10  2  1  0  0  0  0
 11 12  1  6  0  0  0
 11  8  1  0  0  0  0
 13 11  1  0  0  0  0
 14 13  1  0  0  0  0
 15 22  1  6  0  0  0
 15 14  1  0  0  0  0
 16 17  1  0  0  0  0
 16 18  1  0  0  0  0
 17 15  1  6  0  0  0
 17 19  1  0  0  0  0
 18 20  1  0  0  0  0
 19 20  1  0  0  0  0
 20 21  1  1  0  0  0
 23 22  1  0  0  0  0
 24 25  1  6  0  0  0
 25 26  1  0  0  0  0
 27 28  1  0  0  0  0
 27 24  1  0  0  0  0
 28 29  1  0  0  0  0
 29 30  1  0  0  0  0
M  END
>  <MODEL>
1

>  <REMARK>
 VINA RESULT:      -7.6      0.000      0.000
  Name = 
  11 active torsions:
  status: ('A' for Active; 'I' for Inactive)
    1  A    between atoms: C_1  and  C_28
    2  A    between atoms: C_2  and  C_8
    3  A    between atoms: C_2  and  C_11
    4  A    between atoms: C_2  and  C_12
    5  A    between atoms: C_6  and  C_20
    6  A    between atoms: C_7  and  C_13
    7  A    between atoms: C_7  and  C_22
    8  A    between atoms: C_8  and  C_13
    9  A    between atoms: N_10  and  C_20
   10  A    between atoms: N_10  and  C_28
   11  A    between atoms: C_16  and  C_28
                            x       y       z     vdW  Elec       q    Type
                         _______ _______ _______ _____ _____    ______ ____

>  <TORSDO>
F 11

$$$$
=
 OpenBabel11072411103D

 30 32  0  0  1  0  0  0  0  0999 V2000
  161.6970  204.7820  151.7890 C   0  0  0  0  0  3  0  0  0  0  0  0
  160.6430  202.3180  148.6670 C   0  0  0  0  0  0  0  0  0  0  0  0
  160.2670  200.9600  148.4610 N   0  0  0  0  0  1  0  0  0  0  0  0
  161.4100  204.4310  148.2900 C   0  0  0  0  0  2  0  0  0  0  0  0
  161.1420  203.1090  147.7270 C   0  0  0  0  0  0  0  0  0  0  0  0
  160.9630  204.4050  149.5400 C   0  0  2  0  0  3  0  0  0  0  0  0
  161.6210  203.3100  151.9810 C   0  0  0  0  0  3  0  0  0  0  0  0
  161.3820  205.3260  150.6080 C   0  0  0  0  0  0  0  0  0  0  0  0
  161.0670  202.5380  151.0840 N   0  0  0  0  0  0  0  0  0  0  0  0
  160.3740  203.0850  149.9110 C   0  0  2  0  0  3  0  0  0  0  0  0
  161.5610  206.7930  150.3890 C   0  0  1  0  0  3  0  0  0  0  0  0
  160.4050  207.3440  149.8670 F   0  0  0  0  0  0  0  0  0  0  0  0
  161.9390  207.4870  151.6890 C   0  0  0  0  0  2  0  0  0  0  0  0
  161.0750  208.7180  151.9170 C   0  0  0  0  0  2  0  0  0  0  0  0
  160.5200  208.7500  153.3390 C   0  0  2  0  0  3  0  0  0  0  0  0
  161.7480  210.2030  155.3440 S   0  0  0  0  0  0  0  0  0  0  0  0
  160.6280  210.1640  153.9160 C   0  0  2  0  0  3  0  0  0  0  0  0
  160.9350  211.7370  155.8020 C   0  0  0  0  0  2  0  0  0  0  0  0
  159.3140  210.6520  154.3310 N   0  0  0  0  0  2  0  0  0  0  0  0
  159.4710  211.5600  155.4650 C   0  0  2  0  0  3  0  0  0  0  0  0
  158.8520  212.9030  155.1400 C   0  0  0  0  0  1  0  0  0  0  0  0
  161.2940  207.7710  154.2100 C   0  0  0  0  0  2  0  0  0  0  0  0
  160.3290  206.8680  154.9530 C   0  0  0  0  0  1  0  0  0  0  0  0
  161.4980  202.6690  146.3400 C   0  0  1  0  0  3  0  0  0  0  0  0
  160.2500  202.4840  145.4880 C   0  0  0  0  0  2  0  0  0  0  0  0
  160.1170  201.0380  145.0490 C   0  0  0  0  0  1  0  0  0  0  0  0
  162.3720  203.6540  145.7240 N   0  0  0  0  0  2  0  0  0  0  0  0
  161.6050  204.3050  144.6740 C   0  0  0  0  0  2  0  0  0  0  0  0
  161.6000  205.8070  144.8900 C   0  0  0  0  0  2  0  0  0  0  0  0
  160.2290  206.2680  145.3480 C   0  0  0  0  0  1  0  0  0  0  0  0
  1  7  1  0  0  0  0
  3  2  1  0  0  0  0
  5  4  1  0  0  0  0
  5  2  2  0  0  0  0
  6  4  1  6  0  0  0
  6 10  1  0  0  0  0
  6  8  1  0  0  0  0
  8  1  2  0  0  0  0
  9  7  2  0  0  0  0
 10  2  1  6  0  0  0
 10  9  1  0  0  0  0
 11 12  1  1  0  0  0
 11  8  1  0  0  0  0
 11 13  1  0  0  0  0
 13 14  1  0  0  0  0
 15 14  1  6  0  0  0
 15 22  1  0  0  0  0
 16 18  1  0  0  0  0
 17 15  1  1  0  0  0
 17 19  1  0  0  0  0
 17 16  1  0  0  0  0
 19 20  1  0  0  0  0
 20 21  1  6  0  0  0
 20 18  1  0  0  0  0
 22 23  1  0  0  0  0
 24 25  1  6  0  0  0
 24  5  1  0  0  0  0
 26 25  1  0  0  0  0
 27 24  1  0  0  0  0
 28 29  1  0  0  0  0
 28 27  1  0  0  0  0
 29 30  1  0  0  0  0
M  END
>  <MODEL>
2

>  <REMARK>
 VINA RESULT:      -7.6      2.771      9.184
  Name = 
  11 active torsions:
  status: ('A' for Active; 'I' for Inactive)
    1  A    between atoms: C_1  and  C_28
    2  A    between atoms: C_2  and  C_8
    3  A    between atoms: C_2  and  C_11
    4  A    between atoms: C_2  and  C_12
    5  A    between atoms: C_6  and  C_20
    6  A    between atoms: C_7  and  C_13
    7  A    between atoms: C_7  and  C_22
    8  A    between atoms: C_8  and  C_13
    9  A    between atoms: N_10  and  C_20
   10  A    between atoms: N_10  and  C_28
   11  A    between atoms: C_16  and  C_28
                            x       y       z     vdW  Elec       q    Type
                         _______ _______ _______ _____ _____    ______ ____

>  <TORSDO>
F 11

$$$$
=
 OpenBabel11072411103D

 30 32  0  0  1  0  0  0  0  0999 V2000
  160.8100  206.6990  154.2740 C   0  0  0  0  0  3  0  0  0  0  0  0
  160.6300  210.7770  154.7970 C   0  0  0  0  0  0  0  0  0  0  0  0
  160.5400  211.7110  155.8680 N   0  0  0  0  0  1  0  0  0  0  0  0
  160.5050  209.8510  152.7180 C   0  0  0  0  0  2  0  0  0  0  0  0
  160.2760  211.0350  153.5450 C   0  0  0  0  0  0  0  0  0  0  0  0
  161.0850  208.9510  153.5010 C   0  0  2  0  0  3  0  0  0  0  0  0
  160.4560  207.2770  155.5970 C   0  0  0  0  0  3  0  0  0  0  0  0
  161.1160  207.5020  153.2470 C   0  0  0  0  0  0  0  0  0  0  0  0
  160.6210  208.5480  155.8470 N   0  0  0  0  0  0  0  0  0  0  0  0
  161.2850  209.4470  154.8940 C   0  0  2  0  0  3  0  0  0  0  0  0
  161.3680  206.9210  151.8940 C   0  0  1  0  0  3  0  0  0  0  0  0
  162.5780  207.3700  151.3980 F   0  0  0  0  0  0  0  0  0  0  0  0
  161.3490  205.4010  151.9500 C   0  0  0  0  0  2  0  0  0  0  0  0
  160.4580  204.8300  150.8580 C   0  0  0  0  0  2  0  0  0  0  0  0
  161.2590  203.9740  149.8790 C   0  0  2  0  0  3  0  0  0  0  0  0
  160.4960  206.1620  148.3750 S   0  0  0  0  0  0  0  0  0  0  0  0
  161.6670  204.8060  148.6620 C   0  0  2  0  0  3  0  0  0  0  0  0
  161.1310  206.2120  146.6960 C   0  0  0  0  0  2  0  0  0  0  0  0
  161.7270  203.9700  147.4640 N   0  0  0  0  0  2  0  0  0  0  0  0
  161.3830  204.7760  146.2950 C   0  0  2  0  0  3  0  0  0  0  0  0
  162.5040  204.7150  145.2780 C   0  0  0  0  0  1  0  0  0  0  0  0
  160.4190  202.7830  149.4390 C   0  0  0  0  0  2  0  0  0  0  0  0
  160.8800  201.5320  150.1620 C   0  0  0  0  0  1  0  0  0  0  0  0
  159.6190  212.3000  153.0850 C   0  0  1  0  0  3  0  0  0  0  0  0
  159.9390  212.5830  151.6240 C   0  0  0  0  0  2  0  0  0  0  0  0
  158.8040  213.3490  150.9710 C   0  0  0  0  0  1  0  0  0  0  0  0
  158.1810  212.1960  153.2620 N   0  0  0  0  0  2  0  0  0  0  0  0
  157.7960  213.2130  154.2280 C   0  0  0  0  0  2  0  0  0  0  0  0
  157.0420  212.5760  155.3810 C   0  0  0  0  0  2  0  0  0  0  0  0
  156.7190  211.1280  155.0620 C   0  0  0  0  0  1  0  0  0  0  0  0
  1  7  1  0  0  0  0
  2  3  1  0  0  0  0
  4  5  1  0  0  0  0
  5  2  2  0  0  0  0
  6  4  1  1  0  0  0
  6 10  1  0  0  0  0
  7  9  2  0  0  0  0
  8  6  1  0  0  0  0
  8  1  2  0  0  0  0
 10  2  1  6  0  0  0
 10  9  1  0  0  0  0
 11 12  1  1  0  0  0
 11 13  1  0  0  0  0
 11  8  1  0  0  0  0
 14 13  1  0  0  0  0
 15 22  1  6  0  0  0
 15 14  1  0  0  0  0
 16 17  1  0  0  0  0
 17 15  1  1  0  0  0
 18 16  1  0  0  0  0
 19 17  1  0  0  0  0
 20 21  1  6  0  0  0
 20 18  1  0  0  0  0
 20 19  1  0  0  0  0
 22 23  1  0  0  0  0
 24 25  1  6  0  0  0
 24 27  1  0  0  0  0
 24  5  1  0  0  0  0
 26 25  1  0  0  0  0
 27 28  1  0  0  0  0
 28 29  1  0  0  0  0
 30 29  1  0  0  0  0
M  END
>  <MODEL>
3

>  <REMARK>
 VINA RESULT:      -7.6      1.768      3.703
  Name = 
  11 active torsions:
  status: ('A' for Active; 'I' for Inactive)
    1  A    between atoms: C_1  and  C_28
    2  A    between atoms: C_2  and  C_8
    3  A    between atoms: C_2  and  C_11
    4  A    between atoms: C_2  and  C_12
    5  A    between atoms: C_6  and  C_20
    6  A    between atoms: C_7  and  C_13
    7  A    between atoms: C_7  and  C_22
    8  A    between atoms: C_8  and  C_13
    9  A    between atoms: N_10  and  C_20
   10  A    between atoms: N_10  and  C_28
   11  A    between atoms: C_16  and  C_28
                            x       y       z     vdW  Elec       q    Type
                         _______ _______ _______ _____ _____    ______ ____

>  <TORSDO>
F 11

$$$$
=
 OpenBabel11072411103D

 30 32  0  0  1  0  0  0  0  0999 V2000
  161.2980  206.9960  152.8140 C   0  0  0  0  0  3  0  0  0  0  0  0
  160.1110  209.8570  155.5220 C   0  0  1  0  0  3  0  0  0  0  0  0
  159.8500  209.9610  156.9190 N   0  0  0  0  0  1  0  0  0  0  0  0
  160.1010  210.2820  153.2830 C   0  0  0  0  0  3  0  0  0  0  0  0
  159.6280  210.6860  154.6050 C   0  0  0  0  0  0  0  0  0  0  0  0
  160.9390  209.2710  153.4750 C   0  0  2  0  0  3  0  0  0  0  0  0
  160.8880  206.6110  154.1900 C   0  0  0  0  0  3  0  0  0  0  0  0
  161.3240  208.2850  152.4540 C   0  0  0  0  0  0  0  0  0  0  0  0
  160.7370  207.5080  155.1280 N   0  0  0  0  0  0  0  0  0  0  0  0
  161.0900  208.9180  154.9170 C   0  0  2  0  0  3  0  0  0  0  0  0
  161.6350  208.6590  151.0410 C   0  0  1  0  0  3  0  0  0  0  0  0
  162.4970  209.7400  151.0100 F   0  0  0  0  0  0  0  0  0  0  0  0
  162.2360  207.4790  150.2920 C   0  0  0  0  0  2  0  0  0  0  0  0
  161.2330  206.8940  149.3100 C   0  0  0  0  0  2  0  0  0  0  0  0
  161.3740  205.3760  149.2110 C   0  0  2  0  0  3  0  0  0  0  0  0
  161.4560  203.1600  147.5640 S   0  0  0  0  0  0  0  0  0  0  0  0
  161.0130  204.9040  147.8010 C   0  0  2  0  0  3  0  0  0  0  0  0
  161.4020  203.4990  145.8010 C   0  0  0  0  0  2  0  0  0  0  0  0
  161.7030  205.7100  146.7960 N   0  0  0  0  0  2  0  0  0  0  0  0
  161.9700  204.8880  145.6180 C   0  0  2  0  0  3  0  0  0  0  0  0
  161.3620  205.5350  144.3900 C   0  0  0  0  0  1  0  0  0  0  0  0
  160.4620  204.7130  150.2340 C   0  0  0  0  0  2  0  0  0  0  0  0
  161.2800  203.8350  151.1610 C   0  0  0  0  0  1  0  0  0  0  0  0
  158.6420  211.7810  154.8770 C   0  0  1  0  0  3  0  0  0  0  0  0
  159.3110  213.1470  154.8120 C   0  0  0  0  0  2  0  0  0  0  0  0
  159.5730  213.6760  156.2090 C   0  0  0  0  0  1  0  0  0  0  0  0
  157.5610  211.7160  153.9080 N   0  0  0  0  0  2  0  0  0  0  0  0
  156.3800  212.2700  154.5510 C   0  0  0  0  0  2  0  0  0  0  0  0
  155.9320  211.3630  155.6830 C   0  0  0  0  0  2  0  0  0  0  0  0
  155.2700  210.1160  155.1270 C   0  0  0  0  0  1  0  0  0  0  0  0
  1  7  1  0  0  0  0
  2  3  1  1  0  0  0
  4  5  2  0  0  0  0
  5 24  1  0  0  0  0
  5  2  1  0  0  0  0
  6  4  1  1  0  0  0
  6 10  1  0  0  0  0
  7  9  2  0  0  0  0
  8  1  2  0  0  0  0
  8  6  1  0  0  0  0
 10  9  1  6  0  0  0
 10  2  1  0  0  0  0
 11 12  1  1  0  0  0
 11  8  1  0  0  0  0
 13 11  1  0  0  0  0
 14 13  1  0  0  0  0
 15 14  1  6  0  0  0
 15 22  1  0  0  0  0
 16 17  1  0  0  0  0
 17 15  1  1  0  0  0
 18 16  1  0  0  0  0
 19 17  1  0  0  0  0
 20 21  1  6  0  0  0
 20 18  1  0  0  0  0
 20 19  1  0  0  0  0
 22 23  1  0  0  0  0
 24 25  1  6  0  0  0
 25 26  1  0  0  0  0
 27 28  1  0  0  0  0
 27 24  1  0  0  0  0
 28 29  1  0  0  0  0
 30 29  1  0  0  0  0
M  END
>  <MODEL>
4

>  <REMARK>
 VINA RESULT:      -7.5      1.771      3.317
  Name = 
  11 active torsions:
  status: ('A' for Active; 'I' for Inactive)
    1  A    between atoms: C_1  and  C_28
    2  A    between atoms: C_2  and  C_8
    3  A    between atoms: C_2  and  C_11
    4  A    between atoms: C_2  and  C_12
    5  A    between atoms: C_6  and  C_20
    6  A    between atoms: C_7  and  C_13
    7  A    between atoms: C_7  and  C_22
    8  A    between atoms: C_8  and  C_13
    9  A    between atoms: N_10  and  C_20
   10  A    between atoms: N_10  and  C_28
   11  A    between atoms: C_16  and  C_28
                            x       y       z     vdW  Elec       q    Type
                         _______ _______ _______ _____ _____    ______ ____

>  <TORSDO>
F 11

$$$$
=
 OpenBabel11072411103D

 30 32  0  0  1  0  0  0  0  0999 V2000
  161.4610  205.4400  152.1120 C   0  0  0  0  0  3  0  0  0  0  0  0
  160.6820  202.6660  149.1760 C   0  0  0  0  0  0  0  0  0  0  0  0
  160.3830  201.2770  149.0730 N   0  0  0  0  0  1  0  0  0  0  0  0
  161.3610  204.7770  148.6490 C   0  0  0  0  0  2  0  0  0  0  0  0
  161.1860  203.3990  148.1920 C   0  0  0  0  0  0  0  0  0  0  0  0
  160.8560  204.8340  149.8750 C   0  0  2  0  0  3  0  0  0  0  0  0
  161.4480  203.9880  152.4290 C   0  0  0  0  0  3  0  0  0  0  0  0
  161.1770  205.8640  150.8750 C   0  0  0  0  0  0  0  0  0  0  0  0
  160.9770  203.1140  151.5800 N   0  0  0  0  0  0  0  0  0  0  0  0
  160.3150  203.5210  150.3340 C   0  0  2  0  0  3  0  0  0  0  0  0
  161.2940  207.3140  150.5360 C   0  0  1  0  0  3  0  0  0  0  0  0
  160.6730  207.5760  149.3290 F   0  0  0  0  0  0  0  0  0  0  0  0
  160.6930  208.1730  151.6400 C   0  0  0  0  0  2  0  0  0  0  0  0
  161.7850  208.8000  152.4930 C   0  0  0  0  0  2  0  0  0  0  0  0
  161.2870  210.0640  153.1890 C   0  0  2  0  0  3  0  0  0  0  0  0
  162.3810  210.5670  155.6760 S   0  0  0  0  0  0  0  0  0  0  0  0
  161.0740  209.7960  154.6810 C   0  0  2  0  0  3  0  0  0  0  0  0
  161.9200  209.4160  156.9760 C   0  0  0  0  0  2  0  0  0  0  0  0
  161.0610  208.3590  154.9480 N   0  0  0  0  0  2  0  0  0  0  0  0
  161.5860  208.1110  156.2890 C   0  0  2  0  0  3  0  0  0  0  0  0
  160.5690  207.3440  157.1080 C   0  0  0  0  0  1  0  0  0  0  0  0
  159.9830  210.5190  152.5490 C   0  0  0  0  0  2  0  0  0  0  0  0
  159.1340  211.2480  153.5720 C   0  0  0  0  0  1  0  0  0  0  0  0
  161.6300  202.8610  146.8660 C   0  0  1  0  0  3  0  0  0  0  0  0
  160.4720  202.2040  146.1280 C   0  0  0  0  0  2  0  0  0  0  0  0
  160.8000  200.7570  145.8100 C   0  0  0  0  0  1  0  0  0  0  0  0
  162.1780  203.9400  146.0610 N   0  0  0  0  0  2  0  0  0  0  0  0
  161.3210  204.0770  144.8940 C   0  0  0  0  0  2  0  0  0  0  0  0
  161.2120  205.5380  144.4980 C   0  0  0  0  0  2  0  0  0  0  0  0
  160.2910  206.2740  145.4520 C   0  0  0  0  0  1  0  0  0  0  0  0
  1  7  1  0  0  0  0
  3  2  1  0  0  0  0
  5  4  1  0  0  0  0
  5  2  2  0  0  0  0
  6  4  1  1  0  0  0
  6 10  1  0  0  0  0
  6  8  1  0  0  0  0
  8  1  2  0  0  0  0
  9  7  2  0  0  0  0
 10  2  1  6  0  0  0
 10  9  1  0  0  0  0
 11 12  1  6  0  0  0
 11  8  1  0  0  0  0
 11 13  1  0  0  0  0
 13 14  1  0  0  0  0
 15 14  1  6  0  0  0
 16 18  1  0  0  0  0
 17 15  1  6  0  0  0
 17 19  1  0  0  0  0
 17 16  1  0  0  0  0
 19 20  1  0  0  0  0
 20 18  1  0  0  0  0
 20 21  1  1  0  0  0
 22 15  1  0  0  0  0
 22 23  1  0  0  0  0
 24 25  1  6  0  0  0
 24  5  1  0  0  0  0
 26 25  1  0  0  0  0
 27 24  1  0  0  0  0
 28 27  1  0  0  0  0
 29 28  1  0  0  0  0
 29 30  1  0  0  0  0
M  END
>  <MODEL>
5

>  <REMARK>
 VINA RESULT:      -7.5      2.882      8.779
  Name = 
  11 active torsions:
  status: ('A' for Active; 'I' for Inactive)
    1  A    between atoms: C_1  and  C_28
    2  A    between atoms: C_2  and  C_8
    3  A    between atoms: C_2  and  C_11
    4  A    between atoms: C_2  and  C_12
    5  A    between atoms: C_6  and  C_20
    6  A    between atoms: C_7  and  C_13
    7  A    between atoms: C_7  and  C_22
    8  A    between atoms: C_8  and  C_13
    9  A    between atoms: N_10  and  C_20
   10  A    between atoms: N_10  and  C_28
   11  A    between atoms: C_16  and  C_28
                            x       y       z     vdW  Elec       q    Type
                         _______ _______ _______ _____ _____    ______ ____

>  <TORSDO>
F 11

$$$$
=
 OpenBabel11072411103D

 30 32  0  0  1  0  0  0  0  0999 V2000
  161.4580  203.2070  151.8770 C   0  0  0  0  0  3  0  0  0  0  0  0
  160.9880  201.6180  148.1110 C   0  0  0  0  0  0  0  0  0  0  0  0
  161.0290  200.3420  147.4790 N   0  0  0  0  0  1  0  0  0  0  0  0
  161.0480  203.8730  148.4360 C   0  0  0  0  0  2  0  0  0  0  0  0
  161.1560  202.7730  147.4800 C   0  0  0  0  0  0  0  0  0  0  0  0
  160.7180  203.3290  149.6010 C   0  0  2  0  0  3  0  0  0  0  0  0
  161.8460  201.8000  151.5960 C   0  0  0  0  0  3  0  0  0  0  0  0
  160.9110  203.9610  150.9150 C   0  0  0  0  0  0  0  0  0  0  0  0
  161.4920  201.2080  150.4870 N   0  0  0  0  0  0  0  0  0  0  0  0
  160.5860  201.8450  149.5230 C   0  0  2  0  0  3  0  0  0  0  0  0
  160.6200  205.4040  151.1720 C   0  0  1  0  0  3  0  0  0  0  0  0
  160.4970  205.6340  152.5300 F   0  0  0  0  0  0  0  0  0  0  0  0
  161.7110  206.2850  150.5810 C   0  0  0  0  0  2  0  0  0  0  0  0
  161.1850  207.6850  150.3050 C   0  0  0  0  0  2  0  0  0  0  0  0
  161.7870  208.7040  151.2700 C   0  0  2  0  0  3  0  0  0  0  0  0
  160.5490  210.8280  152.5310 S   0  0  0  0  0  0  0  0  0  0  0  0
  160.7870  209.0350  152.3790 C   0  0  2  0  0  3  0  0  0  0  0  0
  159.9290  210.4970  154.1830 C   0  0  0  0  0  2  0  0  0  0  0  0
  161.2500  208.5080  153.6620 N   0  0  0  0  0  2  0  0  0  0  0  0
  160.7780  209.3760  154.7390 C   0  0  2  0  0  3  0  0  0  0  0  0
  159.9750  208.5690  155.7380 C   0  0  0  0  0  1  0  0  0  0  0  0
  162.1580  209.9690  150.5080 C   0  0  0  0  0  2  0  0  0  0  0  0
  162.0530  209.7210  149.0160 C   0  0  0  0  0  1  0  0  0  0  0  0
  161.5320  202.9120  146.0370 C   0  0  1  0  0  3  0  0  0  0  0  0
  160.2980  202.8880  145.1460 C   0  0  0  0  0  2  0  0  0  0  0  0
  159.9240  201.4610  144.7950 C   0  0  0  0  0  1  0  0  0  0  0  0
  162.2580  204.1550  145.8390 N   0  0  0  0  0  2  0  0  0  0  0  0
  161.4330  204.9980  144.9880 C   0  0  0  0  0  2  0  0  0  0  0  0
  160.8950  206.1720  145.7870 C   0  0  0  0  0  2  0  0  0  0  0  0
  161.9180  206.6230  146.8120 C   0  0  0  0  0  1  0  0  0  0  0  0
  3  2  1  0  0  0  0
  5  2  2  0  0  0  0
  5  4  1  0  0  0  0
  6  4  1  6  0  0  0
  6  8  1  0  0  0  0
  7  1  1  0  0  0  0
  8 11  1  0  0  0  0
  8  1  2  0  0  0  0
  9  7  2  0  0  0  0
 10  2  1  6  0  0  0
 10  6  1  0  0  0  0
 10  9  1  0  0  0  0
 11 12  1  1  0  0  0
 13 11  1  0  0  0  0
 14 13  1  0  0  0  0
 15 14  1  6  0  0  0
 16 18  1  0  0  0  0
 17 15  1  6  0  0  0
 17 16  1  0  0  0  0
 17 19  1  0  0  0  0
 18 20  1  0  0  0  0
 19 20  1  0  0  0  0
 20 21  1  1  0  0  0
 22 15  1  0  0  0  0
 23 22  1  0  0  0  0
 24 25  1  6  0  0  0
 24  5  1  0  0  0  0
 26 25  1  0  0  0  0
 27 24  1  0  0  0  0
 28 29  1  0  0  0  0
 28 27  1  0  0  0  0
 29 30  1  0  0  0  0
M  END
>  <MODEL>
6

>  <REMARK>
 VINA RESULT:      -7.4      2.785      8.450
  Name = 
  11 active torsions:
  status: ('A' for Active; 'I' for Inactive)
    1  A    between atoms: C_1  and  C_28
    2  A    between atoms: C_2  and  C_8
    3  A    between atoms: C_2  and  C_11
    4  A    between atoms: C_2  and  C_12
    5  A    between atoms: C_6  and  C_20
    6  A    between atoms: C_7  and  C_13
    7  A    between atoms: C_7  and  C_22
    8  A    between atoms: C_8  and  C_13
    9  A    between atoms: N_10  and  C_20
   10  A    between atoms: N_10  and  C_28
   11  A    between atoms: C_16  and  C_28
                            x       y       z     vdW  Elec       q    Type
                         _______ _______ _______ _____ _____    ______ ____

>  <TORSDO>
F 11

$$$$
=
 OpenBabel11072411103D

 30 32  0  0  1  0  0  0  0  0999 V2000
  161.2060  202.1990  151.6340 C   0  0  0  0  0  3  0  0  0  0  0  0
  160.9010  202.4810  147.5410 C   0  0  1  0  0  3  0  0  0  0  0  0
  160.8290  201.6130  146.4150 N   0  0  0  0  0  1  0  0  0  0  0  0
  161.2390  204.3340  148.8260 C   0  0  0  0  0  3  0  0  0  0  0  0
  161.2900  203.7490  147.4870 C   0  0  0  0  0  0  0  0  0  0  0  0
  160.7220  203.4070  149.6230 C   0  0  2  0  0  3  0  0  0  0  0  0
  161.4230  201.0050  150.7760 C   0  0  0  0  0  3  0  0  0  0  0  0
  160.8670  203.3720  151.0860 C   0  0  0  0  0  0  0  0  0  0  0  0
  161.1030  201.0140  149.5100 N   0  0  0  0  0  0  0  0  0  0  0  0
  160.3950  202.1450  148.8960 C   0  0  2  0  0  3  0  0  0  0  0  0
  160.7530  204.5920  151.9410 C   0  0  1  0  0  3  0  0  0  0  0  0
  161.2100  204.3260  153.2190 F   0  0  0  0  0  0  0  0  0  0  0  0
  161.5280  205.7500  151.3300 C   0  0  0  0  0  2  0  0  0  0  0  0
  162.0220  206.7000  152.4110 C   0  0  0  0  0  2  0  0  0  0  0  0
  160.8630  207.4490  153.0640 C   0  0  2  0  0  3  0  0  0  0  0  0
  162.1480  209.5620  151.8310 S   0  0  0  0  0  0  0  0  0  0  0  0
  160.5960  208.7590  152.3190 C   0  0  2  0  0  3  0  0  0  0  0  0
  161.1960  211.0770  151.6910 C   0  0  0  0  0  2  0  0  0  0  0  0
  159.8300  209.6800  153.1580 N   0  0  0  0  0  2  0  0  0  0  0  0
  160.1930  211.0550  152.8230 C   0  0  2  0  0  3  0  0  0  0  0  0
  158.9550  211.8340  152.4290 C   0  0  0  0  0  1  0  0  0  0  0  0
  161.1980  207.7360  154.5210 C   0  0  0  0  0  2  0  0  0  0  0  0
  160.2160  207.0180  155.4260 C   0  0  0  0  0  1  0  0  0  0  0  0
  161.8240  204.4280  146.2630 C   0  0  1  0  0  3  0  0  0  0  0  0
  160.7080  205.1160  145.4890 C   0  0  0  0  0  2  0  0  0  0  0  0
  160.8320  204.8210  144.0060 C   0  0  0  0  0  1  0  0  0  0  0  0
  162.8300  205.4040  146.6460 N   0  0  0  0  0  2  0  0  0  0  0  0
  162.1410  206.6680  146.8500 C   0  0  0  0  0  2  0  0  0  0  0  0
  162.6510  207.3400  148.1120 C   0  0  0  0  0  2  0  0  0  0  0  0
  161.6220  208.3230  148.6370 C   0  0  0  0  0  1  0  0  0  0  0  0
  2  3  1  6  0  0  0
  2 10  1  0  0  0  0
  5  2  1  0  0  0  0
  5  4  2  0  0  0  0
  6  4  1  6  0  0  0
  6  8  1  0  0  0  0
  7  1  1  0  0  0  0
  8  1  2  0  0  0  0
  8 11  1  0  0  0  0
  9  7  2  0  0  0  0
 10  9  1  1  0  0  0
 10  6  1  0  0  0  0
 11 12  1  1  0  0  0
 13 11  1  0  0  0  0
 13 14  1  0  0  0  0
 15 14  1  6  0  0  0
 15 22  1  0  0  0  0
 16 17  1  0  0  0  0
 17 15  1  1  0  0  0
 17 19  1  0  0  0  0
 18 16  1  0  0  0  0
 18 20  1  0  0  0  0
 20 21  1  6  0  0  0
 20 19  1  0  0  0  0
 22 23  1  0  0  0  0
 24 25  1  1  0  0  0
 24 27  1  0  0  0  0
 24  5  1  0  0  0  0
 26 25  1  0  0  0  0
 27 28  1  0  0  0  0
 28 29  1  0  0  0  0
 29 30  1  0  0  0  0
M  END
>  <MODEL>
7

>  <REMARK>
 VINA RESULT:      -7.2      2.730      8.330
  Name = 
  11 active torsions:
  status: ('A' for Active; 'I' for Inactive)
    1  A    between atoms: C_1  and  C_28
    2  A    between atoms: C_2  and  C_8
    3  A    between atoms: C_2  and  C_11
    4  A    between atoms: C_2  and  C_12
    5  A    between atoms: C_6  and  C_20
    6  A    between atoms: C_7  and  C_13
    7  A    between atoms: C_7  and  C_22
    8  A    between atoms: C_8  and  C_13
    9  A    between atoms: N_10  and  C_20
   10  A    between atoms: N_10  and  C_28
   11  A    between atoms: C_16  and  C_28
                            x       y       z     vdW  Elec       q    Type
                         _______ _______ _______ _____ _____    ______ ____

>  <TORSDO>
F 11

$$$$
=
 OpenBabel11072411103D

 30 32  0  0  1  0  0  0  0  0999 V2000
  161.1660  206.1110  151.5340 C   0  0  0  0  0  3  0  0  0  0  0  0
  160.9100  209.0630  154.3880 C   0  0  1  0  0  3  0  0  0  0  0  0
  160.9280  209.1780  155.8070 N   0  0  0  0  0  1  0  0  0  0  0  0
  160.5470  209.5220  152.1850 C   0  0  0  0  0  3  0  0  0  0  0  0
  160.3860  209.9660  153.5690 C   0  0  0  0  0  0  0  0  0  0  0  0
  161.2570  208.4020  152.2280 C   0  0  2  0  0  3  0  0  0  0  0  0
  160.9680  205.7630  152.9660 C   0  0  0  0  0  3  0  0  0  0  0  0
  161.3050  207.3890  151.1630 C   0  0  0  0  0  0  0  0  0  0  0  0
  161.1190  206.6560  153.9070 N   0  0  0  0  0  0  0  0  0  0  0  0
  161.6200  208.0070  153.6210 C   0  0  2  0  0  3  0  0  0  0  0  0
  161.3990  207.7400  149.7140 C   0  0  1  0  0  3  0  0  0  0  0  0
  162.7160  207.9630  149.3580 F   0  0  0  0  0  0  0  0  0  0  0  0
  160.7960  206.6390  148.8540 C   0  0  0  0  0  2  0  0  0  0  0  0
  161.8440  206.0400  147.9290 C   0  0  0  0  0  2  0  0  0  0  0  0
  161.2590  204.9090  147.0860 C   0  0  2  0  0  3  0  0  0  0  0  0
  161.0730  202.1870  146.6530 S   0  0  0  0  0  0  0  0  0  0  0  0
  161.5430  203.5580  147.7450 C   0  0  2  0  0  3  0  0  0  0  0  0
  161.0390  201.1650  148.1290 C   0  0  0  0  0  2  0  0  0  0  0  0
  160.8080  203.4350  149.0030 N   0  0  0  0  0  2  0  0  0  0  0  0
  160.4740  202.0310  149.2320 C   0  0  2  0  0  3  0  0  0  0  0  0
  161.0230  201.5830  150.5710 C   0  0  0  0  0  1  0  0  0  0  0  0
  161.8670  204.9470  145.6910 C   0  0  0  0  0  2  0  0  0  0  0  0
  160.9340  205.6730  144.7410 C   0  0  0  0  0  1  0  0  0  0  0  0
  159.6300  211.1820  154.0080 C   0  0  1  0  0  3  0  0  0  0  0  0
  159.8500  212.3400  153.0440 C   0  0  0  0  0  2  0  0  0  0  0  0
  158.5420  212.7380  152.3860 C   0  0  0  0  0  1  0  0  0  0  0  0
  158.2130  210.8730  154.0890 N   0  0  0  0  0  2  0  0  0  0  0  0
  157.8380  210.9610  155.4920 C   0  0  0  0  0  2  0  0  0  0  0  0
  156.5040  211.6720  155.6290 C   0  0  0  0  0  2  0  0  0  0  0  0
  156.7140  213.1730  155.6940 C   0  0  0  0  0  1  0  0  0  0  0  0
  1  7  1  0  0  0  0
  2  3  1  1  0  0  0
  4  5  2  0  0  0  0
  5 24  1  0  0  0  0
  5  2  1  0  0  0  0
  6  4  1  1  0  0  0
  6 10  1  0  0  0  0
  7  9  2  0  0  0  0
  8  1  2  0  0  0  0
  8  6  1  0  0  0  0
 10  9  1  1  0  0  0
 10  2  1  0  0  0  0
 11 12  1  6  0  0  0
 11  8  1  0  0  0  0
 13 11  1  0  0  0  0
 14 13  1  0  0  0  0
 15 22  1  6  0  0  0
 15 14  1  0  0  0  0
 16 17  1  0  0  0  0
 16 18  1  0  0  0  0
 17 15  1  6  0  0  0
 17 19  1  0  0  0  0
 18 20  1  0  0  0  0
 19 20  1  0  0  0  0
 20 21  1  1  0  0  0
 23 22  1  0  0  0  0
 24 25  1  6  0  0  0
 24 27  1  0  0  0  0
 26 25  1  0  0  0  0
 27 28  1  0  0  0  0
 28 29  1  0  0  0  0
 29 30  1  0  0  0  0
M  END
>  <MODEL>
8

>  <REMARK>
 VINA RESULT:      -7.2      1.020      1.398
  Name = 
  11 active torsions:
  status: ('A' for Active; 'I' for Inactive)
    1  A    between atoms: C_1  and  C_28
    2  A    between atoms: C_2  and  C_8
    3  A    between atoms: C_2  and  C_11
    4  A    between atoms: C_2  and  C_12
    5  A    between atoms: C_6  and  C_20
    6  A    between atoms: C_7  and  C_13
    7  A    between atoms: C_7  and  C_22
    8  A    between atoms: C_8  and  C_13
    9  A    between atoms: N_10  and  C_20
   10  A    between atoms: N_10  and  C_28
   11  A    between atoms: C_16  and  C_28
                            x       y       z     vdW  Elec       q    Type
                         _______ _______ _______ _____ _____    ______ ____

>  <TORSDO>
F 11

$$$$
=
 OpenBabel11072411103D

 30 32  0  0  1  0  0  0  0  0999 V2000
  162.3680  206.8500  151.0950 C   0  0  0  0  0  3  0  0  0  0  0  0
  160.5500  209.7880  153.3300 C   0  0  1  0  0  3  0  0  0  0  0  0
  160.3080  211.1890  153.2540 N   0  0  0  0  0  1  0  0  0  0  0  0
  160.8280  207.6820  154.1580 C   0  0  0  0  0  3  0  0  0  0  0  0
  160.5460  209.0860  154.4560 C   0  0  0  0  0  0  0  0  0  0  0  0
  160.8950  207.5830  152.8370 C   0  0  2  0  0  3  0  0  0  0  0  0
  162.5670  208.2860  150.7620 C   0  0  0  0  0  3  0  0  0  0  0  0
  161.5600  206.4970  152.1010 C   0  0  0  0  0  0  0  0  0  0  0  0
  161.8230  209.2150  151.3000 N   0  0  0  0  0  0  0  0  0  0  0  0
  160.6710  208.8910  152.1520 C   0  0  2  0  0  3  0  0  0  0  0  0
  161.4460  205.0610  152.4980 C   0  0  1  0  0  3  0  0  0  0  0  0
  160.1380  204.7580  152.8300 F   0  0  0  0  0  0  0  0  0  0  0  0
  161.9330  204.1540  151.3780 C   0  0  0  0  0  2  0  0  0  0  0  0
  160.8910  204.0500  150.2750 C   0  0  0  0  0  2  0  0  0  0  0  0
  161.4750  203.4080  149.0180 C   0  0  2  0  0  3  0  0  0  0  0  0
  160.6210  205.9150  148.2310 S   0  0  0  0  0  0  0  0  0  0  0  0
  161.6670  204.4640  147.9270 C   0  0  2  0  0  3  0  0  0  0  0  0
  160.8320  206.2970  146.4890 C   0  0  0  0  0  2  0  0  0  0  0  0
  161.3410  203.9110  146.6140 N   0  0  0  0  0  2  0  0  0  0  0  0
  160.8170  204.9730  145.7580 C   0  0  2  0  0  3  0  0  0  0  0  0
  161.6450  205.0740  144.4940 C   0  0  0  0  0  1  0  0  0  0  0  0
  160.5410  202.3120  148.5250 C   0  0  0  0  0  2  0  0  0  0  0  0
  161.2090  200.9590  148.6780 C   0  0  0  0  0  1  0  0  0  0  0  0
  160.4070  209.6710  155.8270 C   0  0  1  0  0  3  0  0  0  0  0  0
  161.3710  210.8320  156.0270 C   0  0  0  0  0  2  0  0  0  0  0  0
  162.7070  210.3300  156.5390 C   0  0  0  0  0  1  0  0  0  0  0  0
  159.0410  210.1250  156.0280 N   0  0  0  0  0  2  0  0  0  0  0  0
  159.1160  211.4880  156.5320 C   0  0  0  0  0  2  0  0  0  0  0  0
  157.9440  212.2990  156.0100 C   0  0  0  0  0  2  0  0  0  0  0  0
  157.0980  211.4580  155.0730 C   0  0  0  0  0  1  0  0  0  0  0  0
  1  8  2  0  0  0  0
  2  3  1  6  0  0  0
  2  5  1  0  0  0  0
  4  5  2  0  0  0  0
  5 24  1  0  0  0  0
  6  4  1  1  0  0  0
  7  1  1  0  0  0  0
  7  9  2  0  0  0  0
  8 11  1  0  0  0  0
  8  6  1  0  0  0  0
 10  9  1  6  0  0  0
 10  6  1  0  0  0  0
 10  2  1  0  0  0  0
 11 12  1  6  0  0  0
 13 11  1  0  0  0  0
 14 13  1  0  0  0  0
 15 22  1  6  0  0  0
 15 14  1  0  0  0  0
 17 16  1  0  0  0  0
 17 15  1  1  0  0  0
 18 16  1  0  0  0  0
 19 17  1  0  0  0  0
 20 21  1  6  0  0  0
 20 18  1  0  0  0  0
 20 19  1  0  0  0  0
 22 23  1  0  0  0  0
 24 25  1  6  0  0  0
 24 27  1  0  0  0  0
 25 26  1  0  0  0  0
 27 28  1  0  0  0  0
 29 28  1  0  0  0  0
 30 29  1  0  0  0  0
M  END
>  <MODEL>
9

>  <REMARK>
 VINA RESULT:      -7.2      1.997      3.521
  Name = 
  11 active torsions:
  status: ('A' for Active; 'I' for Inactive)
    1  A    between atoms: C_1  and  C_28
    2  A    between atoms: C_2  and  C_8
    3  A    between atoms: C_2  and  C_11
    4  A    between atoms: C_2  and  C_12
    5  A    between atoms: C_6  and  C_20
    6  A    between atoms: C_7  and  C_13
    7  A    between atoms: C_7  and  C_22
    8  A    between atoms: C_8  and  C_13
    9  A    between atoms: N_10  and  C_20
   10  A    between atoms: N_10  and  C_28
   11  A    between atoms: C_16  and  C_28
                            x       y       z     vdW  Elec       q    Type
                         _______ _______ _______ _____ _____    ______ ____

>  <TORSDO>
F 11

$$$$
