=
 OpenBabel11072410343D

 54 55  0  0  1  0  0  0  0  0999 V2000
  161.8560  207.4990  151.9410 C   0  0  1  0  0  0  0  0  0  0  0  0
  162.0060  207.7560  154.3420 F   0  0  0  0  0  0  0  0  0  0  0  0
  161.9460  209.7980  151.6290 C   0  0  0  0  0  2  0  0  0  0  0  0
  162.6990  208.6040  151.6430 O   0  0  0  0  0  0  0  0  0  0  0  0
  161.2710  210.0040  152.9810 C   0  0  2  0  0  3  0  0  0  0  0  0
  162.7360  206.2630  152.0860 C   0  0  0  0  0  1  0  0  0  0  0  0
  160.3770  208.9390  153.2560 O   0  0  0  0  0  0  0  0  0  0  0  0
  160.2190  206.6910  153.5070 F   0  0  0  0  0  0  0  0  0  0  0  0
  161.1070  207.7300  153.2850 C   0  0  0  0  0  0  0  0  0  0  0  0
  160.6890  211.2950  153.0770 O   0  0  0  0  0  0  0  0  0  0  0  0
  159.6780  211.3270  154.0620 C   0  0  2  0  0  3  0  0  0  0  0  0
  158.4540  212.0980  153.5540 C   0  0  1  0  0  3  0  0  0  0  0  0
  157.7860  213.5700  155.0790 C   0  0  0  0  0  1  0  0  0  0  0  0
  157.5480  212.2770  154.6040 O   0  0  0  0  0  0  0  0  0  0  0  0
  158.8650  213.3670  153.0820 O   0  0  0  0  0  0  0  0  0  0  0  0
  157.2930  214.4530  151.5530 C   0  0  0  0  0  1  0  0  0  0  0  0
  158.1460  212.3120  151.2140 F   0  0  0  0  0  0  0  0  0  0  0  0
  158.5050  213.5460  151.7220 C   0  0  2  0  0  0  0  0  0  0  0  0
  159.6680  214.0850  150.8920 C   0  0  0  0  0  2  0  0  0  0  0  0
  157.3300  213.3180  147.8800 O   0  0  0  0  0  0  0  0  0  0  0  0
  159.4300  213.8980  149.4690 N   0  0  0  0  0  0  0  0  0  0  0  0
  158.4660  213.6310  148.3110 C   0  0  0  0  0  0  0  0  0  0  0  0
  159.7960  213.9910  148.1240 C   0  0  2  0  0  3  0  0  0  0  0  0
  160.5500  212.7510  147.6640 C   0  0  0  0  0  2  0  0  0  0  0  0
  162.2840  214.3690  147.4550 O   0  0  0  0  0  1  0  0  0  0  0  0
  161.8920  213.0960  147.0450 C   0  0  2  0  0  3  0  0  0  0  0  0
  160.6940  212.7620  145.0230 O   0  0  0  0  0  0  0  0  0  0  0  0
  161.7900  213.0540  145.5590 C   0  0  0  0  0  0  0  0  0  0  0  0
  162.9130  213.3760  144.7410 N   0  0  0  0  0  1  0  0  0  0  0  0
  160.2310  211.9910  155.3280 C   0  0  0  0  0  2  0  0  0  0  0  0
  160.3580  211.0360  156.5150 C   0  0  1  0  0  3  0  0  0  0  0  0
  159.3270  210.0930  156.4980 O   0  0  0  0  0  1  0  0  0  0  0  0
  161.7880  209.0170  156.7160 F   0  0  0  0  0  0  0  0  0  0  0  0
  162.7730  211.0670  156.5660 N   0  0  0  0  0  2  0  0  0  0  0  0
  161.7010  210.3640  156.5730 C   0  0  0  0  0  0  0  0  0  0  0  0
  160.8550  207.2450  150.8000 C   0  0  0  0  0  2  0  0  0  0  0  0
  161.4750  206.6130  149.7160 O   0  0  0  0  0  0  0  0  0  0  0  0
  160.6920  205.4840  149.4540 C   0  0  1  0  0  3  0  0  0  0  0  0
  162.0850  203.4250  149.6950 O   0  0  0  0  0  1  0  0  0  0  0  0
  161.5340  204.3920  148.8630 C   0  0  0  0  0  0  0  0  0  0  0  0
  161.7770  204.3280  147.5530 C   0  0  0  0  0  3  0  0  0  0  0  0
  162.2280  206.3160  146.3460 O   0  0  0  0  0  1  0  0  0  0  0  0
  161.2690  205.3210  146.5520 C   0  0  1  0  0  3  0  0  0  0  0  0
  161.3600  205.3960  144.1390 O   0  0  0  0  0  1  0  0  0  0  0  0
  160.8660  204.6670  145.2270 C   0  0  1  0  0  3  0  0  0  0  0  0
  161.2310  203.1930  145.0990 C   0  0  0  0  0  2  0  0  0  0  0  0
  160.0750  202.3710  144.8130 N   0  0  0  0  0  2  0  0  0  0  0  0
  159.9250  201.4730  145.9500 C   0  0  0  0  0  2  0  0  0  0  0  0
  161.1680  200.6080  146.0960 C   0  0  2  0  0  3  0  0  0  0  0  0
  160.9060  199.3160  145.6300 O   0  0  0  0  0  1  0  0  0  0  0  0
  161.5490  200.5550  147.5670 C   0  0  0  0  0  2  0  0  0  0  0  0
  160.3840  200.9740  148.4330 C   0  0  0  0  0  1  0  0  0  0  0  0
  159.9990  203.6280  150.7880 O   0  0  0  0  0  1  0  0  0  0  0  0
  160.0180  205.0220  150.7360 C   0  0  0  0  0  2  0  0  0  0  0  0
  1  6  1  1  0  0  0
  1  9  1  0  0  0  0
  3  4  1  0  0  0  0
  3  5  1  0  0  0  0
  4  1  1  0  0  0  0
  5 10  1  6  0  0  0
  5  7  1  0  0  0  0
  7  9  1  0  0  0  0
  9  8  1  0  0  0  0
  9  2  1  0  0  0  0
 10 11  1  0  0  0  0
 11 30  1  1  0  0  0
 12 15  1  1  0  0  0
 12 11  1  0  0  0  0
 12 14  1  0  0  0  0
 14 13  1  0  0  0  0
 17 18  1  0  0  0  0
 18 16  1  6  0  0  0
 18 15  1  0  0  0  0
 19 18  1  0  0  0  0
 20 22  2  0  0  0  0
 21 19  1  0  0  0  0
 22 21  1  0  0  0  0
 23 24  1  1  0  0  0
 23 22  1  0  0  0  0
 23 21  1  0  0  0  0
 26 25  1  6  0  0  0
 26 24  1  0  0  0  0
 27 28  2  0  0  0  0
 28 26  1  0  0  0  0
 29 28  1  0  0  0  0
 30 31  1  0  0  0  0
 31 32  1  6  0  0  0
 31 35  1  0  0  0  0
 34 35  2  0  0  0  0
 35 33  1  0  0  0  0
 36  1  1  0  0  0  0
 37 36  1  0  0  0  0
 38 37  1  0  0  0  0
 38 54  1  1  0  0  0
 40 38  1  0  0  0  0
 40 39  1  0  0  0  0
 41 40  2  0  0  0  0
 43 42  1  6  0  0  0
 43 41  1  0  0  0  0
 45 44  1  6  0  0  0
 45 43  1  0  0  0  0
 46 45  1  0  0  0  0
 47 46  1  0  0  0  0
 47 48  1  0  0  0  0
 48 49  1  0  0  0  0
 49 50  1  1  0  0  0
 49 51  1  0  0  0  0
 51 52  1  0  0  0  0
 54 53  1  0  0  0  0
M  END
>  <MODEL>
1

>  <REMARK>
 VINA RESULT:      -5.0      0.000      0.000
  Name = 
  26 active torsions:
  status: ('A' for Active; 'I' for Inactive)
    1  A    between atoms: C_1  and  C_28
    2  A    between atoms: C_1  and  CA_52
    3  A    between atoms: C_2  and  C_36
    4  A    between atoms: C_2  and  C_39
    5  A    between atoms: C_2  and  O_53
    6  A    between atoms: C_5  and  N_15
    7  A    between atoms: C_5  and  C_54
    8  A    between atoms: C_6  and  C_13
    9  A    between atoms: C_6  and  C_38
   10  A    between atoms: C_8  and  C_12
   11  A    between atoms: C_11  and  C_27
   12  A    between atoms: C_11  and  O_30
   13  A    between atoms: C_11  and  C_34
   14  A    between atoms: C_12  and  O_30
   15  A    between atoms: C_16  and  C_39
   16  A    between atoms: C_16  and  C_44
   17  A    between atoms: O_17  and  C_36
   18  A    between atoms: O_17  and  C_54
   19  A    between atoms: C_19  and  N_21
   20  A    between atoms: C_19  and  C_47
   21  A    between atoms: N_21  and  C_38
   22  A    between atoms: C_22  and  C_28
   23  A    between atoms: C_23  and  O_53
   24  A    between atoms: O_33  and  C_36
   25  A    between atoms: C_47  and  C_48
   26  A    between atoms: C_48  and  C_50
                            x       y       z     vdW  Elec       q    Type
                         _______ _______ _______ _____ _____    ______ ____

>  <TORSDO>
F 26

$$$$
=
 OpenBabel11072410343D

 54 55  0  0  1  0  0  0  0  0999 V2000
  161.0960  213.1090  147.4000 C   0  0  1  0  0  0  0  0  0  0  0  0
  161.3710  213.8220  149.6960 F   0  0  0  0  0  0  0  0  0  0  0  0
  161.0950  210.8750  148.0310 C   0  0  0  0  0  2  0  0  0  0  0  0
  160.2840  211.9860  147.7130 O   0  0  0  0  0  0  0  0  0  0  0  0
  162.0000  211.2110  149.2110 C   0  0  2  0  0  3  0  0  0  0  0  0
  160.1800  214.3110  147.2070 C   0  0  0  0  0  1  0  0  0  0  0  0
  162.8610  212.2880  148.8840 O   0  0  0  0  0  0  0  0  0  0  0  0
  162.9230  214.4500  148.2050 F   0  0  0  0  0  0  0  0  0  0  0  0
  162.0750  213.4180  148.5690 C   0  0  0  0  0  0  0  0  0  0  0  0
  162.6670  210.0560  149.6970 O   0  0  0  0  0  0  0  0  0  0  0  0
  162.1670  209.6730  150.9600 C   0  0  2  0  0  3  0  0  0  0  0  0
  161.9680  208.1530  151.0240 C   0  0  1  0  0  3  0  0  0  0  0  0
  161.9070  206.4250  152.4180 C   0  0  0  0  0  1  0  0  0  0  0  0
  161.6010  207.7850  152.3210 O   0  0  0  0  0  0  0  0  0  0  0  0
  160.9340  207.7810  150.1320 O   0  0  0  0  0  0  0  0  0  0  0  0
  162.9570  206.9900  149.0040 C   0  0  0  0  0  1  0  0  0  0  0  0
  161.3160  208.2690  147.9550 F   0  0  0  0  0  0  0  0  0  0  0  0
  161.4650  207.2850  148.9140 C   0  0  2  0  0  0  0  0  0  0  0  0
  160.7250  206.0370  148.4380 C   0  0  0  0  0  2  0  0  0  0  0  0
  160.2480  206.2200  144.5820 O   0  0  0  0  0  0  0  0  0  0  0  0
  161.1100  205.6830  147.0800 N   0  0  0  0  0  0  0  0  0  0  0  0
  160.9080  205.8150  145.5690 C   0  0  0  0  0  0  0  0  0  0  0  0
  161.9930  205.1540  146.1350 C   0  0  2  0  0  3  0  0  0  0  0  0
  161.7740  203.6590  145.9420 C   0  0  0  0  0  2  0  0  0  0  0  0
  161.9520  203.1320  148.2570 O   0  0  0  0  0  1  0  0  0  0  0  0
  161.1140  203.0180  147.1490 C   0  0  2  0  0  3  0  0  0  0  0  0
  161.1490  200.7150  147.7230 O   0  0  0  0  0  0  0  0  0  0  0  0
  160.8370  201.5820  146.8710 C   0  0  0  0  0  0  0  0  0  0  0  0
  160.1880  201.1840  145.6650 N   0  0  0  0  0  1  0  0  0  0  0  0
  160.8350  210.3890  151.2120 C   0  0  0  0  0  2  0  0  0  0  0  0
  160.5810  210.7090  152.6850 C   0  0  1  0  0  3  0  0  0  0  0  0
  161.7880  210.7700  153.3880 O   0  0  0  0  0  1  0  0  0  0  0  0
  159.0340  212.1470  153.9890 F   0  0  0  0  0  0  0  0  0  0  0  0
  159.7480  212.8510  151.9420 N   0  0  0  0  0  2  0  0  0  0  0  0
  159.7850  211.9700  152.8720 C   0  0  0  0  0  0  0  0  0  0  0  0
  161.8720  212.8810  146.0900 C   0  0  0  0  0  2  0  0  0  0  0  0
  161.3750  213.6900  145.0610 O   0  0  0  0  0  0  0  0  0  0  0  0
  161.4690  212.9090  143.9050 C   0  0  1  0  0  3  0  0  0  0  0  0
  158.9900  213.2180  143.9050 O   0  0  0  0  0  1  0  0  0  0  0  0
  160.1360  212.8320  143.2200 C   0  0  0  0  0  0  0  0  0  0  0  0
  160.0200  212.3940  141.9660 C   0  0  0  0  0  3  0  0  0  0  0  0
  161.2510  210.5280  141.1810 O   0  0  0  0  0  1  0  0  0  0  0  0
  161.1690  211.9220  141.1280 C   0  0  1  0  0  3  0  0  0  0  0  0
  162.3470  212.4520  139.0860 O   0  0  0  0  0  1  0  0  0  0  0  0
  161.0790  212.4100  139.6780 C   0  0  1  0  0  3  0  0  0  0  0  0
  160.0990  211.6420  138.8000 C   0  0  0  0  0  2  0  0  0  0  0  0
  158.7520  212.1630  138.9070 N   0  0  0  0  0  2  0  0  0  0  0  0
  157.9850  211.5230  137.8480 C   0  0  0  0  0  2  0  0  0  0  0  0
  156.6130  211.1240  138.3680 C   0  0  2  0  0  3  0  0  0  0  0  0
  156.2140  212.0030  139.3810 O   0  0  0  0  0  1  0  0  0  0  0  0
  156.6980  209.7110  138.9210 C   0  0  0  0  0  2  0  0  0  0  0  0
  155.3550  209.2660  139.4540 C   0  0  0  0  0  1  0  0  0  0  0  0
  163.5950  213.9850  143.7290 O   0  0  0  0  0  1  0  0  0  0  0  0
  162.5270  213.4900  142.9800 C   0  0  0  0  0  2  0  0  0  0  0  0
  1  6  1  6  0  0  0
  1  4  1  0  0  0  0
  1  9  1  0  0  0  0
  3  5  1  0  0  0  0
  4  3  1  0  0  0  0
  5 10  1  6  0  0  0
  7  5  1  0  0  0  0
  8  9  1  0  0  0  0
  9  7  1  0  0  0  0
  9  2  1  0  0  0  0
 10 11  1  0  0  0  0
 11 12  1  0  0  0  0
 11 30  1  6  0  0  0
 12 15  1  6  0  0  0
 12 14  1  0  0  0  0
 14 13  1  0  0  0  0
 17 18  1  0  0  0  0
 18 16  1  1  0  0  0
 18 15  1  0  0  0  0
 19 18  1  0  0  0  0
 20 22  2  0  0  0  0
 21 19  1  0  0  0  0
 22 23  1  0  0  0  0
 22 21  1  0  0  0  0
 23 24  1  6  0  0  0
 23 21  1  0  0  0  0
 24 26  1  0  0  0  0
 26 25  1  1  0  0  0
 28 26  1  0  0  0  0
 28 27  2  0  0  0  0
 29 28  1  0  0  0  0
 30 31  1  0  0  0  0
 31 35  1  0  0  0  0
 31 32  1  1  0  0  0
 34 35  2  0  0  0  0
 35 33  1  0  0  0  0
 36  1  1  0  0  0  0
 37 36  1  0  0  0  0
 38 54  1  6  0  0  0
 38 37  1  0  0  0  0
 40 39  1  0  0  0  0
 40 38  1  0  0  0  0
 41 40  2  0  0  0  0
 43 42  1  6  0  0  0
 43 41  1  0  0  0  0
 45 44  1  6  0  0  0
 45 43  1  0  0  0  0
 46 47  1  0  0  0  0
 46 45  1  0  0  0  0
 48 49  1  0  0  0  0
 48 47  1  0  0  0  0
 49 51  1  0  0  0  0
 49 50  1  1  0  0  0
 51 52  1  0  0  0  0
 54 53  1  0  0  0  0
M  END
>  <MODEL>
2

>  <REMARK>
 VINA RESULT:      -4.3      3.964      9.108
  Name = 
  26 active torsions:
  status: ('A' for Active; 'I' for Inactive)
    1  A    between atoms: C_1  and  C_28
    2  A    between atoms: C_1  and  CA_52
    3  A    between atoms: C_2  and  C_36
    4  A    between atoms: C_2  and  C_39
    5  A    between atoms: C_2  and  O_53
    6  A    between atoms: C_5  and  N_15
    7  A    between atoms: C_5  and  C_54
    8  A    between atoms: C_6  and  C_13
    9  A    between atoms: C_6  and  C_38
   10  A    between atoms: C_8  and  C_12
   11  A    between atoms: C_11  and  C_27
   12  A    between atoms: C_11  and  O_30
   13  A    between atoms: C_11  and  C_34
   14  A    between atoms: C_12  and  O_30
   15  A    between atoms: C_16  and  C_39
   16  A    between atoms: C_16  and  C_44
   17  A    between atoms: O_17  and  C_36
   18  A    between atoms: O_17  and  C_54
   19  A    between atoms: C_19  and  N_21
   20  A    between atoms: C_19  and  C_47
   21  A    between atoms: N_21  and  C_38
   22  A    between atoms: C_22  and  C_28
   23  A    between atoms: C_23  and  O_53
   24  A    between atoms: O_33  and  C_36
   25  A    between atoms: C_47  and  C_48
   26  A    between atoms: C_48  and  C_50
                            x       y       z     vdW  Elec       q    Type
                         _______ _______ _______ _____ _____    ______ ____

>  <TORSDO>
F 26

$$$$
=
 OpenBabel11072410343D

 54 55  0  0  1  0  0  0  0  0999 V2000
  160.3040  210.3980  155.5710 C   0  0  1  0  0  0  0  0  0  0  0  0
  162.2350  209.2680  156.4920 F   0  0  0  0  0  0  0  0  0  0  0  0
  160.1740  208.8790  153.8200 C   0  0  0  0  0  2  0  0  0  0  0  0
  159.6770  209.2140  155.0990 O   0  0  0  0  0  0  0  0  0  0  0  0
  161.6850  208.6830  153.8830 C   0  0  2  0  0  3  0  0  0  0  0  0
  159.8420  210.6340  157.0040 C   0  0  0  0  0  1  0  0  0  0  0  0
  162.3240  209.8810  154.2890 O   0  0  0  0  0  0  0  0  0  0  0  0
  162.4450  211.4300  155.9400 F   0  0  0  0  0  0  0  0  0  0  0  0
  161.8510  210.2350  155.5720 C   0  0  0  0  0  0  0  0  0  0  0  0
  162.1860  208.1340  152.6740 O   0  0  0  0  0  0  0  0  0  0  0  0
  161.2050  207.3520  152.0250 C   0  0  2  0  0  3  0  0  0  0  0  0
  161.6720  205.8970  151.8980 C   0  0  1  0  0  3  0  0  0  0  0  0
  160.7860  205.6950  153.9260 C   0  0  0  0  0  1  0  0  0  0  0  0
  161.9180  205.3740  153.1710 O   0  0  0  0  0  0  0  0  0  0  0  0
  160.6540  205.1340  151.2790 O   0  0  0  0  0  0  0  0  0  0  0  0
  161.8840  203.1090  151.8930 C   0  0  0  0  0  1  0  0  0  0  0  0
  162.0980  204.1670  149.8280 F   0  0  0  0  0  0  0  0  0  0  0  0
  161.1610  203.8960  150.8070 C   0  0  2  0  0  0  0  0  0  0  0  0
  160.0640  203.0290  150.1920 C   0  0  0  0  0  2  0  0  0  0  0  0
  161.5220  200.2280  147.9220 O   0  0  0  0  0  0  0  0  0  0  0  0
  160.4680  202.5120  148.8940 N   0  0  0  0  0  0  0  0  0  0  0  0
  161.0100  201.3680  148.0350 C   0  0  0  0  0  0  0  0  0  0  0  0
  160.5080  202.5480  147.4980 C   0  0  2  0  0  3  0  0  0  0  0  0
  161.6900  203.3660  146.9950 C   0  0  0  0  0  2  0  0  0  0  0  0
  162.2250  204.0370  144.7740 O   0  0  0  0  0  1  0  0  0  0  0  0
  161.3170  204.2400  145.8120 C   0  0  2  0  0  3  0  0  0  0  0  0
  160.2600  206.3340  146.1740 O   0  0  0  0  0  0  0  0  0  0  0  0
  161.3250  205.6720  146.2180 C   0  0  0  0  0  0  0  0  0  0  0  0
  162.5210  206.2900  146.6910 N   0  0  0  0  0  1  0  0  0  0  0  0
  160.9330  207.9410  150.6350 C   0  0  0  0  0  2  0  0  0  0  0  0
  162.0310  208.8830  150.1430 C   0  0  1  0  0  3  0  0  0  0  0  0
  162.3040  208.6550  148.7910 O   0  0  0  0  0  1  0  0  0  0  0  0
  160.8870  210.6810  151.4160 F   0  0  0  0  0  0  0  0  0  0  0  0
  162.1280  211.2310  149.5860 N   0  0  0  0  0  2  0  0  0  0  0  0
  161.7030  210.3290  150.3900 C   0  0  0  0  0  0  0  0  0  0  0  0
  159.8890  211.6170  154.7260 C   0  0  0  0  0  2  0  0  0  0  0  0
  158.5260  211.5730  154.4130 O   0  0  0  0  0  0  0  0  0  0  0  0
  157.8880  212.2470  155.4590 C   0  0  1  0  0  3  0  0  0  0  0  0
  158.4850  214.4530  156.4670 O   0  0  0  0  0  1  0  0  0  0  0  0
  158.1170  213.7250  155.3420 C   0  0  0  0  0  0  0  0  0  0  0  0
  157.9670  214.3660  154.1810 C   0  0  0  0  0  3  0  0  0  0  0  0
  156.1910  213.9480  152.6720 O   0  0  0  0  0  1  0  0  0  0  0  0
  157.5470  213.7070  152.9030 C   0  0  1  0  0  3  0  0  0  0  0  0
  159.7220  213.7350  151.8510 O   0  0  0  0  0  1  0  0  0  0  0  0
  158.3930  214.1520  151.7060 C   0  0  1  0  0  3  0  0  0  0  0  0
  157.8460  213.7460  150.3440 C   0  0  0  0  0  2  0  0  0  0  0  0
  158.7740  214.0470  149.2740 N   0  0  0  0  0  2  0  0  0  0  0  0
  157.9970  214.0190  148.0430 C   0  0  0  0  0  2  0  0  0  0  0  0
  158.2560  212.7210  147.2940 C   0  0  2  0  0  3  0  0  0  0  0  0
  159.6230  212.5910  147.0250 O   0  0  0  0  0  1  0  0  0  0  0  0
  157.4780  212.7530  145.9890 C   0  0  0  0  0  2  0  0  0  0  0  0
  156.9410  214.1400  145.7240 C   0  0  0  0  0  1  0  0  0  0  0  0
  156.1280  210.9850  154.4500 O   0  0  0  0  0  1  0  0  0  0  0  0
  156.4030  211.9210  155.4480 C   0  0  0  0  0  2  0  0  0  0  0  0
  1  9  1  0  0  0  0
  1  6  1  1  0  0  0
  3  5  1  0  0  0  0
  3  4  1  0  0  0  0
  4  1  1  0  0  0  0
  5 10  1  6  0  0  0
  5  7  1  0  0  0  0
  7  9  1  0  0  0  0
  9  8  1  0  0  0  0
  9  2  1  0  0  0  0
 11 30  1  6  0  0  0
 11 10  1  0  0  0  0
 12 15  1  1  0  0  0
 12 11  1  0  0  0  0
 12 14  1  0  0  0  0
 14 13  1  0  0  0  0
 17 18  1  0  0  0  0
 18 15  1  0  0  0  0
 18 16  1  1  0  0  0
 19 18  1  0  0  0  0
 20 22  2  0  0  0  0
 21 19  1  0  0  0  0
 22 21  1  0  0  0  0
 23 24  1  1  0  0  0
 23 22  1  0  0  0  0
 23 21  1  0  0  0  0
 26 25  1  6  0  0  0
 26 28  1  0  0  0  0
 26 24  1  0  0  0  0
 27 28  2  0  0  0  0
 28 29  1  0  0  0  0
 31 32  1  6  0  0  0
 31 35  1  0  0  0  0
 31 30  1  0  0  0  0
 34 35  2  0  0  0  0
 35 33  1  0  0  0  0
 36  1  1  0  0  0  0
 37 36  1  0  0  0  0
 37 38  1  0  0  0  0
 38 54  1  6  0  0  0
 40 38  1  0  0  0  0
 40 39  1  0  0  0  0
 41 40  2  0  0  0  0
 43 42  1  6  0  0  0
 43 41  1  0  0  0  0
 45 44  1  1  0  0  0
 45 43  1  0  0  0  0
 46 45  1  0  0  0  0
 47 46  1  0  0  0  0
 48 47  1  0  0  0  0
 49 50  1  6  0  0  0
 49 48  1  0  0  0  0
 51 49  1  0  0  0  0
 52 51  1  0  0  0  0
 53 54  1  0  0  0  0
M  END
>  <MODEL>
3

>  <REMARK>
 VINA RESULT:      -4.3      2.295      9.402
  Name = 
  26 active torsions:
  status: ('A' for Active; 'I' for Inactive)
    1  A    between atoms: C_1  and  C_28
    2  A    between atoms: C_1  and  CA_52
    3  A    between atoms: C_2  and  C_36
    4  A    between atoms: C_2  and  C_39
    5  A    between atoms: C_2  and  O_53
    6  A    between atoms: C_5  and  N_15
    7  A    between atoms: C_5  and  C_54
    8  A    between atoms: C_6  and  C_13
    9  A    between atoms: C_6  and  C_38
   10  A    between atoms: C_8  and  C_12
   11  A    between atoms: C_11  and  C_27
   12  A    between atoms: C_11  and  O_30
   13  A    between atoms: C_11  and  C_34
   14  A    between atoms: C_12  and  O_30
   15  A    between atoms: C_16  and  C_39
   16  A    between atoms: C_16  and  C_44
   17  A    between atoms: O_17  and  C_36
   18  A    between atoms: O_17  and  C_54
   19  A    between atoms: C_19  and  N_21
   20  A    between atoms: C_19  and  C_47
   21  A    between atoms: N_21  and  C_38
   22  A    between atoms: C_22  and  C_28
   23  A    between atoms: C_23  and  O_53
   24  A    between atoms: O_33  and  C_36
   25  A    between atoms: C_47  and  C_48
   26  A    between atoms: C_48  and  C_50
                            x       y       z     vdW  Elec       q    Type
                         _______ _______ _______ _____ _____    ______ ____

>  <TORSDO>
F 26

$$$$
=
 OpenBabel11072410343D

 54 55  0  0  1  0  0  0  0  0999 V2000
  161.9340  209.0470  149.6060 C   0  0  1  0  0  0  0  0  0  0  0  0
  163.6120  207.3130  149.4290 F   0  0  0  0  0  0  0  0  0  0  0  0
  160.2200  207.4860  149.4860 C   0  0  0  0  0  2  0  0  0  0  0  0
  161.0180  208.2620  150.3550 O   0  0  0  0  0  0  0  0  0  0  0  0
  161.1050  206.5850  148.6310 C   0  0  2  0  0  3  0  0  0  0  0  0
  162.8610  209.7520  150.5880 C   0  0  0  0  0  1  0  0  0  0  0  0
  161.9770  207.3640  147.8290 O   0  0  0  0  0  0  0  0  0  0  0  0
  163.6090  208.9370  147.8830 F   0  0  0  0  0  0  0  0  0  0  0  0
  162.7940  208.1450  148.6760 C   0  0  0  0  0  0  0  0  0  0  0  0
  160.3340  205.6390  147.9070 O   0  0  0  0  0  0  0  0  0  0  0  0
  160.9390  204.3640  147.9300 C   0  0  2  0  0  3  0  0  0  0  0  0
  160.9110  203.7790  149.3480 C   0  0  1  0  0  3  0  0  0  0  0  0
  159.9300  201.7900  149.2020 C   0  0  0  0  0  1  0  0  0  0  0  0
  161.1810  202.4080  149.2920 O   0  0  0  0  0  0  0  0  0  0  0  0
  161.9050  204.4100  150.1320 O   0  0  0  0  0  0  0  0  0  0  0  0
  161.2570  203.4250  152.2760 C   0  0  0  0  0  1  0  0  0  0  0  0
  160.1690  205.2480  151.3170 F   0  0  0  0  0  0  0  0  0  0  0  0
  161.4260  204.6850  151.4380 C   0  0  2  0  0  0  0  0  0  0  0  0
  162.3240  205.6750  152.1770 C   0  0  0  0  0  2  0  0  0  0  0  0
  160.8000  209.0740  153.2940 O   0  0  0  0  0  0  0  0  0  0  0  0
  161.5570  206.4930  153.1030 N   0  0  0  0  0  0  0  0  0  0  0  0
  160.9440  207.8420  153.4830 C   0  0  0  0  0  0  0  0  0  0  0  0
  160.6830  206.6670  154.1790 C   0  0  2  0  0  3  0  0  0  0  0  0
  161.4340  206.7380  155.5020 C   0  0  0  0  0  2  0  0  0  0  0  0
  159.2150  207.1810  156.2430 O   0  0  0  0  0  1  0  0  0  0  0  0
  160.5520  207.2380  156.6320 C   0  0  2  0  0  3  0  0  0  0  0  0
  162.1160  208.9220  157.2240 O   0  0  0  0  0  0  0  0  0  0  0  0
  160.9190  208.6390  156.9780 C   0  0  0  0  0  0  0  0  0  0  0  0
  159.9320  209.6690  156.9960 N   0  0  0  0  0  1  0  0  0  0  0  0
  162.3870  204.4850  147.4400 C   0  0  0  0  0  2  0  0  0  0  0  0
  162.5110  204.5850  145.9190 C   0  0  1  0  0  3  0  0  0  0  0  0
  163.6470  203.9040  145.4740 O   0  0  0  0  0  1  0  0  0  0  0  0
  160.3930  204.9880  144.6890 F   0  0  0  0  0  0  0  0  0  0  0  0
  161.0180  202.8470  145.1540 N   0  0  0  0  0  2  0  0  0  0  0  0
  161.2800  204.1010  145.2070 C   0  0  0  0  0  0  0  0  0  0  0  0
  161.1970  210.1220  148.7860 C   0  0  0  0  0  2  0  0  0  0  0  0
  161.7450  211.3910  149.0080 O   0  0  0  0  0  0  0  0  0  0  0  0
  161.4170  212.1350  147.8710 C   0  0  1  0  0  3  0  0  0  0  0  0
  160.5630  213.8470  149.4770 O   0  0  0  0  0  1  0  0  0  0  0  0
  160.4700  213.2430  148.2290 C   0  0  0  0  0  0  0  0  0  0  0  0
  159.5310  213.6610  147.3790 C   0  0  0  0  0  3  0  0  0  0  0  0
  158.0210  212.5330  145.9450 O   0  0  0  0  0  1  0  0  0  0  0  0
  159.3060  213.0780  146.0180 C   0  0  1  0  0  3  0  0  0  0  0  0
  160.8980  214.2410  144.6210 O   0  0  0  0  0  1  0  0  0  0  0  0
  159.5320  214.0960  144.8960 C   0  0  1  0  0  3  0  0  0  0  0  0
  158.7500  213.8300  143.6170 C   0  0  0  0  0  2  0  0  0  0  0  0
  159.4490  214.3100  142.4430 N   0  0  0  0  0  2  0  0  0  0  0  0
  159.2030  213.3290  141.3960 C   0  0  0  0  0  2  0  0  0  0  0  0
  160.3300  213.3660  140.3750 C   0  0  2  0  0  3  0  0  0  0  0  0
  159.9520  212.6670  139.2240 O   0  0  0  0  0  1  0  0  0  0  0  0
  161.5590  212.7160  140.9880 C   0  0  0  0  0  2  0  0  0  0  0  0
  161.2080  211.3760  141.5910 C   0  0  0  0  0  1  0  0  0  0  0  0
  163.7450  212.6030  148.1400 O   0  0  0  0  0  1  0  0  0  0  0  0
  162.6850  212.6830  147.2350 C   0  0  0  0  0  2  0  0  0  0  0  0
  1  4  1  0  0  0  0
  1  6  1  1  0  0  0
  3  4  1  0  0  0  0
  5 10  1  6  0  0  0
  5  3  1  0  0  0  0
  7  5  1  0  0  0  0
  7  9  1  0  0  0  0
  8  9  1  0  0  0  0
  9  2  1  0  0  0  0
  9  1  1  0  0  0  0
 10 11  1  0  0  0  0
 11 30  1  1  0  0  0
 11 12  1  0  0  0  0
 12 14  1  6  0  0  0
 12 15  1  0  0  0  0
 13 14  1  0  0  0  0
 15 18  1  0  0  0  0
 17 18  1  0  0  0  0
 18 19  1  0  0  0  0
 18 16  1  1  0  0  0
 19 21  1  0  0  0  0
 20 22  2  0  0  0  0
 21 22  1  0  0  0  0
 21 23  1  0  0  0  0
 22 23  1  0  0  0  0
 23 24  1  1  0  0  0
 24 26  1  0  0  0  0
 26 25  1  6  0  0  0
 26 28  1  0  0  0  0
 28 29  1  0  0  0  0
 28 27  2  0  0  0  0
 31 32  1  6  0  0  0
 31 30  1  0  0  0  0
 33 35  1  0  0  0  0
 34 35  2  0  0  0  0
 35 31  1  0  0  0  0
 36 37  1  0  0  0  0
 36  1  1  0  0  0  0
 38 54  1  1  0  0  0
 38 40  1  0  0  0  0
 38 37  1  0  0  0  0
 40 39  1  0  0  0  0
 41 40  2  0  0  0  0
 43 42  1  1  0  0  0
 43 41  1  0  0  0  0
 45 44  1  6  0  0  0
 45 43  1  0  0  0  0
 46 45  1  0  0  0  0
 47 46  1  0  0  0  0
 48 47  1  0  0  0  0
 49 50  1  6  0  0  0
 49 51  1  0  0  0  0
 49 48  1  0  0  0  0
 51 52  1  0  0  0  0
 54 53  1  0  0  0  0
M  END
>  <MODEL>
4

>  <REMARK>
 VINA RESULT:      -3.9      3.123      9.985
  Name = 
  26 active torsions:
  status: ('A' for Active; 'I' for Inactive)
    1  A    between atoms: C_1  and  C_28
    2  A    between atoms: C_1  and  CA_52
    3  A    between atoms: C_2  and  C_36
    4  A    between atoms: C_2  and  C_39
    5  A    between atoms: C_2  and  O_53
    6  A    between atoms: C_5  and  N_15
    7  A    between atoms: C_5  and  C_54
    8  A    between atoms: C_6  and  C_13
    9  A    between atoms: C_6  and  C_38
   10  A    between atoms: C_8  and  C_12
   11  A    between atoms: C_11  and  C_27
   12  A    between atoms: C_11  and  O_30
   13  A    between atoms: C_11  and  C_34
   14  A    between atoms: C_12  and  O_30
   15  A    between atoms: C_16  and  C_39
   16  A    between atoms: C_16  and  C_44
   17  A    between atoms: O_17  and  C_36
   18  A    between atoms: O_17  and  C_54
   19  A    between atoms: C_19  and  N_21
   20  A    between atoms: C_19  and  C_47
   21  A    between atoms: N_21  and  C_38
   22  A    between atoms: C_22  and  C_28
   23  A    between atoms: C_23  and  O_53
   24  A    between atoms: O_33  and  C_36
   25  A    between atoms: C_47  and  C_48
   26  A    between atoms: C_48  and  C_50
                            x       y       z     vdW  Elec       q    Type
                         _______ _______ _______ _____ _____    ______ ____

>  <TORSDO>
F 26

$$$$
=
 OpenBabel11072410343D

 54 55  0  0  1  0  0  0  0  0999 V2000
  160.8740  209.7630  153.9690 C   0  0  1  0  0  0  0  0  0  0  0  0
  162.6130  209.5620  152.3000 F   0  0  0  0  0  0  0  0  0  0  0  0
  161.1220  207.5370  154.5820 C   0  0  0  0  0  2  0  0  0  0  0  0
  161.4790  208.8680  154.8920 O   0  0  0  0  0  0  0  0  0  0  0  0
  161.5560  207.1980  153.1600 C   0  0  2  0  0  3  0  0  0  0  0  0
  161.4030  211.1620  154.2570 C   0  0  0  0  0  1  0  0  0  0  0  0
  160.9040  208.0430  152.2280 O   0  0  0  0  0  0  0  0  0  0  0  0
  160.5740  210.2030  151.6240 F   0  0  0  0  0  0  0  0  0  0  0  0
  161.2520  209.3830  152.5100 C   0  0  0  0  0  0  0  0  0  0  0  0
  161.4120  205.8110  152.8930 O   0  0  0  0  0  0  0  0  0  0  0  0
  161.0460  205.5870  151.5480 C   0  0  2  0  0  3  0  0  0  0  0  0
  160.7950  204.0960  151.2980 C   0  0  1  0  0  3  0  0  0  0  0  0
  160.4320  202.6130  152.9130 C   0  0  0  0  0  1  0  0  0  0  0  0
  159.8160  203.6330  152.1820 O   0  0  0  0  0  0  0  0  0  0  0  0
  160.3350  203.9160  149.9720 O   0  0  0  0  0  0  0  0  0  0  0  0
  161.8960  202.0620  150.3110 C   0  0  0  0  0  1  0  0  0  0  0  0
  161.7710  203.2930  148.3370 F   0  0  0  0  0  0  0  0  0  0  0  0
  160.9740  202.8080  149.3570 C   0  0  2  0  0  0  0  0  0  0  0  0
  159.9650  201.8340  148.7530 C   0  0  0  0  0  2  0  0  0  0  0  0
  161.5970  199.4040  146.1920 O   0  0  0  0  0  0  0  0  0  0  0  0
  160.3390  201.4620  147.3970 N   0  0  0  0  0  0  0  0  0  0  0  0
  160.9570  200.4580  146.4220 C   0  0  0  0  0  0  0  0  0  0  0  0
  160.2770  201.5990  146.0090 C   0  0  2  0  0  3  0  0  0  0  0  0
  161.3120  202.5930  145.4990 C   0  0  0  0  0  2  0  0  0  0  0  0
  159.8300  203.8640  144.1370 O   0  0  0  0  0  1  0  0  0  0  0  0
  160.7050  203.9550  145.2180 C   0  0  2  0  0  3  0  0  0  0  0  0
  161.6030  205.7950  144.0160 O   0  0  0  0  0  0  0  0  0  0  0  0
  161.7830  204.9380  144.9150 C   0  0  0  0  0  0  0  0  0  0  0  0
  163.0000  204.9380  145.6580 N   0  0  0  0  0  1  0  0  0  0  0  0
  162.1650  206.0940  150.6310 C   0  0  0  0  0  2  0  0  0  0  0  0
  161.6560  206.7120  149.3280 C   0  0  1  0  0  3  0  0  0  0  0  0
  160.2590  206.7630  149.3220 O   0  0  0  0  0  1  0  0  0  0  0  0
  163.0370  208.6640  149.9930 F   0  0  0  0  0  0  0  0  0  0  0  0
  161.9410  208.7060  147.9960 N   0  0  0  0  0  2  0  0  0  0  0  0
  162.2460  208.0680  149.0650 C   0  0  0  0  0  0  0  0  0  0  0  0
  159.3440  209.7830  154.1440 C   0  0  0  0  0  2  0  0  0  0  0  0
  158.9910  209.9260  155.4910 O   0  0  0  0  0  0  0  0  0  0  0  0
  158.5580  211.2490  155.6170 C   0  0  1  0  0  3  0  0  0  0  0  0
  156.1660  210.5630  155.3910 O   0  0  0  0  0  1  0  0  0  0  0  0
  157.1970  211.4110  155.0040 C   0  0  0  0  0  0  0  0  0  0  0  0
  156.9520  212.3470  154.0860 C   0  0  0  0  0  3  0  0  0  0  0  0
  158.9110  213.5900  154.5630 O   0  0  0  0  0  1  0  0  0  0  0  0
  157.9790  213.3040  153.5620 C   0  0  1  0  0  3  0  0  0  0  0  0
  157.7800  212.7270  151.2240 O   0  0  0  0  0  1  0  0  0  0  0  0
  158.6750  212.7850  152.3000 C   0  0  1  0  0  3  0  0  0  0  0  0
  159.9410  213.5370  151.9070 C   0  0  0  0  0  2  0  0  0  0  0  0
  159.7750  214.2700  150.6700 N   0  0  0  0  0  2  0  0  0  0  0  0
  160.4670  213.4990  149.6470 C   0  0  0  0  0  2  0  0  0  0  0  0
  160.0080  213.9390  148.2650 C   0  0  2  0  0  3  0  0  0  0  0  0
  158.6200  214.1160  148.2590 O   0  0  0  0  0  1  0  0  0  0  0  0
  160.3920  212.8640  147.2620 C   0  0  0  0  0  2  0  0  0  0  0  0
  161.4120  213.3920  146.2810 C   0  0  0  0  0  1  0  0  0  0  0  0
  157.8280  212.8300  157.2530 O   0  0  0  0  0  1  0  0  0  0  0  0
  158.5470  211.6460  157.0850 C   0  0  0  0  0  2  0  0  0  0  0  0
  1 36  1  0  0  0  0
  1  6  1  1  0  0  0
  1  4  1  0  0  0  0
  2  9  1  0  0  0  0
  3  4  1  0  0  0  0
  5 10  1  6  0  0  0
  5  3  1  0  0  0  0
  7  9  1  0  0  0  0
  7  5  1  0  0  0  0
  8  9  1  0  0  0  0
  9  1  1  0  0  0  0
 11 30  1  6  0  0  0
 11 10  1  0  0  0  0
 12 15  1  6  0  0  0
 12 11  1  0  0  0  0
 12 14  1  0  0  0  0
 14 13  1  0  0  0  0
 17 18  1  0  0  0  0
 18 15  1  0  0  0  0
 18 16  1  1  0  0  0
 19 18  1  0  0  0  0
 20 22  2  0  0  0  0
 21 19  1  0  0  0  0
 22 21  1  0  0  0  0
 23 24  1  1  0  0  0
 23 22  1  0  0  0  0
 23 21  1  0  0  0  0
 26 25  1  6  0  0  0
 26 24  1  0  0  0  0
 27 28  2  0  0  0  0
 28 26  1  0  0  0  0
 28 29  1  0  0  0  0
 31 32  1  1  0  0  0
 31 30  1  0  0  0  0
 34 35  2  0  0  0  0
 35 31  1  0  0  0  0
 35 33  1  0  0  0  0
 36 37  1  0  0  0  0
 37 38  1  0  0  0  0
 38 54  1  1  0  0  0
 40 39  1  0  0  0  0
 40 38  1  0  0  0  0
 41 40  2  0  0  0  0
 43 41  1  0  0  0  0
 43 42  1  1  0  0  0
 45 44  1  6  0  0  0
 45 43  1  0  0  0  0
 46 45  1  0  0  0  0
 47 46  1  0  0  0  0
 48 47  1  0  0  0  0
 49 50  1  1  0  0  0
 49 48  1  0  0  0  0
 51 49  1  0  0  0  0
 52 51  1  0  0  0  0
 54 53  1  0  0  0  0
M  END
>  <MODEL>
5

>  <REMARK>
 VINA RESULT:      -3.5      2.286      9.787
  Name = 
  26 active torsions:
  status: ('A' for Active; 'I' for Inactive)
    1  A    between atoms: C_1  and  C_28
    2  A    between atoms: C_1  and  CA_52
    3  A    between atoms: C_2  and  C_36
    4  A    between atoms: C_2  and  C_39
    5  A    between atoms: C_2  and  O_53
    6  A    between atoms: C_5  and  N_15
    7  A    between atoms: C_5  and  C_54
    8  A    between atoms: C_6  and  C_13
    9  A    between atoms: C_6  and  C_38
   10  A    between atoms: C_8  and  C_12
   11  A    between atoms: C_11  and  C_27
   12  A    between atoms: C_11  and  O_30
   13  A    between atoms: C_11  and  C_34
   14  A    between atoms: C_12  and  O_30
   15  A    between atoms: C_16  and  C_39
   16  A    between atoms: C_16  and  C_44
   17  A    between atoms: O_17  and  C_36
   18  A    between atoms: O_17  and  C_54
   19  A    between atoms: C_19  and  N_21
   20  A    between atoms: C_19  and  C_47
   21  A    between atoms: N_21  and  C_38
   22  A    between atoms: C_22  and  C_28
   23  A    between atoms: C_23  and  O_53
   24  A    between atoms: O_33  and  C_36
   25  A    between atoms: C_47  and  C_48
   26  A    between atoms: C_48  and  C_50
                            x       y       z     vdW  Elec       q    Type
                         _______ _______ _______ _____ _____    ______ ____

>  <TORSDO>
F 26

$$$$
=
 OpenBabel11072410343D

 54 55  0  0  1  0  0  0  0  0999 V2000
  162.0630  211.3000  149.1590 C   0  0  1  0  0  0  0  0  0  0  0  0
  163.0890  209.1330  149.4820 F   0  0  0  0  0  0  0  0  0  0  0  0
  161.2080  211.2840  151.3170 C   0  0  0  0  0  2  0  0  0  0  0  0
  162.2640  211.7360  150.4960 O   0  0  0  0  0  0  0  0  0  0  0  0
  161.1250  209.7620  151.2690 C   0  0  2  0  0  3  0  0  0  0  0  0
  163.2930  211.6880  148.3480 C   0  0  0  0  0  1  0  0  0  0  0  0
  160.8570  209.3220  149.9490 O   0  0  0  0  0  0  0  0  0  0  0  0
  161.6110  209.3590  147.8110 F   0  0  0  0  0  0  0  0  0  0  0  0
  161.9050  209.7530  149.1060 C   0  0  0  0  0  0  0  0  0  0  0  0
  160.2250  209.2620  152.2470 O   0  0  0  0  0  0  0  0  0  0  0  0
  160.7410  209.4330  153.5490 C   0  0  2  0  0  3  0  0  0  0  0  0
  161.3700  208.1300  154.0560 C   0  0  1  0  0  3  0  0  0  0  0  0
  160.2130  207.2340  155.7280 C   0  0  0  0  0  1  0  0  0  0  0  0
  161.2880  208.0840  155.4510 O   0  0  0  0  0  0  0  0  0  0  0  0
  160.6610  207.0300  153.5190 O   0  0  0  0  0  0  0  0  0  0  0  0
  160.8510  204.7150  152.7500 C   0  0  0  0  0  1  0  0  0  0  0  0
  162.4840  205.7860  154.0200 F   0  0  0  0  0  0  0  0  0  0  0  0
  161.5510  206.0380  153.0330 C   0  0  2  0  0  0  0  0  0  0  0  0
  162.2920  206.5030  151.7810 C   0  0  0  0  0  2  0  0  0  0  0  0
  160.8780  203.5160  149.7300 O   0  0  0  0  0  0  0  0  0  0  0  0
  161.6960  205.9410  150.5780 N   0  0  0  0  0  0  0  0  0  0  0  0
  161.1140  204.7450  149.8230 C   0  0  0  0  0  0  0  0  0  0  0  0
  161.0580  206.0470  149.3410 C   0  0  2  0  0  3  0  0  0  0  0  0
  162.0630  206.1610  148.2020 C   0  0  0  0  0  2  0  0  0  0  0  0
  160.0000  206.2820  147.0210 O   0  0  0  0  0  1  0  0  0  0  0  0
  161.3830  206.2880  146.8510 C   0  0  2  0  0  3  0  0  0  0  0  0
  162.5410  205.3750  144.9900 O   0  0  0  0  0  0  0  0  0  0  0  0
  161.7890  205.1570  145.9710 C   0  0  0  0  0  0  0  0  0  0  0  0
  161.3640  203.8250  146.2530 N   0  0  0  0  0  1  0  0  0  0  0  0
  159.6080  209.8690  154.4850 C   0  0  0  0  0  2  0  0  0  0  0  0
  159.6480  211.3550  154.8440 C   0  0  1  0  0  3  0  0  0  0  0  0
  160.9680  211.8130  154.8910 O   0  0  0  0  0  1  0  0  0  0  0  0
  159.3880  213.2170  153.2240 F   0  0  0  0  0  0  0  0  0  0  0  0
  157.5560  212.0030  153.8260 N   0  0  0  0  0  2  0  0  0  0  0  0
  158.8200  212.1950  153.9140 C   0  0  0  0  0  0  0  0  0  0  0  0
  160.8380  211.9910  148.5320 C   0  0  0  0  0  2  0  0  0  0  0  0
  161.2240  212.9110  147.5510 O   0  0  0  0  0  0  0  0  0  0  0  0
  160.0460  213.5660  147.1800 C   0  0  1  0  0  3  0  0  0  0  0  0
  158.2920  212.1830  146.0600 O   0  0  0  0  0  1  0  0  0  0  0  0
  159.4600  212.9290  145.9530 C   0  0  0  0  0  0  0  0  0  0  0  0
  160.0390  213.0520  144.7580 C   0  0  0  0  0  3  0  0  0  0  0  0
  162.4050  212.9540  144.7120 O   0  0  0  0  0  1  0  0  0  0  0  0
  161.3120  213.8020  144.5120 C   0  0  1  0  0  3  0  0  0  0  0  0
  162.6600  214.3950  142.5950 O   0  0  0  0  0  1  0  0  0  0  0  0
  161.3610  214.4370  143.1180 C   0  0  1  0  0  3  0  0  0  0  0  0
  160.3580  213.8740  142.1190 C   0  0  0  0  0  2  0  0  0  0  0  0
  160.5400  214.4320  140.7950 N   0  0  0  0  0  2  0  0  0  0  0  0
  160.0770  213.4170  139.8600 C   0  0  0  0  0  2  0  0  0  0  0  0
  159.0300  212.5370  140.5250 C   0  0  2  0  0  3  0  0  0  0  0  0
  159.2190  211.2030  140.1450 O   0  0  0  0  0  1  0  0  0  0  0  0
  157.6530  213.0050  140.0810 C   0  0  0  0  0  2  0  0  0  0  0  0
  156.9670  211.9370  139.2610 C   0  0  0  0  0  1  0  0  0  0  0  0
  158.0040  214.4150  148.0850 O   0  0  0  0  0  1  0  0  0  0  0  0
  159.0580  213.5360  148.3360 C   0  0  0  0  0  2  0  0  0  0  0  0
  1  6  1  6  0  0  0
  1  4  1  0  0  0  0
  4  3  1  0  0  0  0
  5  3  1  0  0  0  0
  5 10  1  1  0  0  0
  7  5  1  0  0  0  0
  8  9  1  0  0  0  0
  9  1  1  0  0  0  0
  9  2  1  0  0  0  0
  9  7  1  0  0  0  0
 10 11  1  0  0  0  0
 11 12  1  0  0  0  0
 11 30  1  1  0  0  0
 12 15  1  6  0  0  0
 12 14  1  0  0  0  0
 14 13  1  0  0  0  0
 18 16  1  6  0  0  0
 18 15  1  0  0  0  0
 18 17  1  0  0  0  0
 19 18  1  0  0  0  0
 20 22  2  0  0  0  0
 21 19  1  0  0  0  0
 22 21  1  0  0  0  0
 23 24  1  6  0  0  0
 23 22  1  0  0  0  0
 23 21  1  0  0  0  0
 26 25  1  1  0  0  0
 26 24  1  0  0  0  0
 27 28  2  0  0  0  0
 28 29  1  0  0  0  0
 28 26  1  0  0  0  0
 30 31  1  0  0  0  0
 31 32  1  6  0  0  0
 33 35  1  0  0  0  0
 34 35  2  0  0  0  0
 35 31  1  0  0  0  0
 36  1  1  0  0  0  0
 37 36  1  0  0  0  0
 38 37  1  0  0  0  0
 38 54  1  1  0  0  0
 40 39  1  0  0  0  0
 40 38  1  0  0  0  0
 41 40  2  0  0  0  0
 43 42  1  6  0  0  0
 43 41  1  0  0  0  0
 45 44  1  6  0  0  0
 45 43  1  0  0  0  0
 46 45  1  0  0  0  0
 47 46  1  0  0  0  0
 48 49  1  0  0  0  0
 48 47  1  0  0  0  0
 49 50  1  6  0  0  0
 51 49  1  0  0  0  0
 52 51  1  0  0  0  0
 53 54  1  0  0  0  0
M  END
>  <MODEL>
6

>  <REMARK>
 VINA RESULT:      -3.5      3.136      8.244
  Name = 
  26 active torsions:
  status: ('A' for Active; 'I' for Inactive)
    1  A    between atoms: C_1  and  C_28
    2  A    between atoms: C_1  and  CA_52
    3  A    between atoms: C_2  and  C_36
    4  A    between atoms: C_2  and  C_39
    5  A    between atoms: C_2  and  O_53
    6  A    between atoms: C_5  and  N_15
    7  A    between atoms: C_5  and  C_54
    8  A    between atoms: C_6  and  C_13
    9  A    between atoms: C_6  and  C_38
   10  A    between atoms: C_8  and  C_12
   11  A    between atoms: C_11  and  C_27
   12  A    between atoms: C_11  and  O_30
   13  A    between atoms: C_11  and  C_34
   14  A    between atoms: C_12  and  O_30
   15  A    between atoms: C_16  and  C_39
   16  A    between atoms: C_16  and  C_44
   17  A    between atoms: O_17  and  C_36
   18  A    between atoms: O_17  and  C_54
   19  A    between atoms: C_19  and  N_21
   20  A    between atoms: C_19  and  C_47
   21  A    between atoms: N_21  and  C_38
   22  A    between atoms: C_22  and  C_28
   23  A    between atoms: C_23  and  O_53
   24  A    between atoms: O_33  and  C_36
   25  A    between atoms: C_47  and  C_48
   26  A    between atoms: C_48  and  C_50
                            x       y       z     vdW  Elec       q    Type
                         _______ _______ _______ _____ _____    ______ ____

>  <TORSDO>
F 26

$$$$
=
 OpenBabel11072410343D

 54 55  0  0  1  0  0  0  0  0999 V2000
  161.3020  207.3560  150.0230 C   0  0  1  0  0  0  0  0  0  0  0  0
  161.2150  209.5170  148.9390 F   0  0  0  0  0  0  0  0  0  0  0  0
  160.8450  208.3070  152.0910 C   0  0  0  0  0  2  0  0  0  0  0  0
  160.2870  207.6490  150.9730 O   0  0  0  0  0  0  0  0  0  0  0  0
  161.5360  209.5920  151.6480 C   0  0  2  0  0  3  0  0  0  0  0  0
  160.6310  206.7800  148.7820 C   0  0  0  0  0  1  0  0  0  0  0  0
  162.5950  209.3020  150.7510 O   0  0  0  0  0  0  0  0  0  0  0  0
  163.1090  208.3290  148.7690 F   0  0  0  0  0  0  0  0  0  0  0  0
  162.0620  208.6500  149.6170 C   0  0  0  0  0  0  0  0  0  0  0  0
  161.9150  210.3860  152.7620 O   0  0  0  0  0  0  0  0  0  0  0  0
  161.0310  210.1960  153.8470 C   0  0  2  0  0  3  0  0  0  0  0  0
  160.2020  211.4620  154.0950 C   0  0  1  0  0  3  0  0  0  0  0  0
  159.7910  212.3320  156.0970 C   0  0  0  0  0  1  0  0  0  0  0  0
  160.7850  212.2070  155.1230 O   0  0  0  0  0  0  0  0  0  0  0  0
  160.1820  212.2440  152.9160 O   0  0  0  0  0  0  0  0  0  0  0  0
  157.8230  212.1200  153.5540 C   0  0  0  0  0  1  0  0  0  0  0  0
  158.5940  211.7140  151.3930 F   0  0  0  0  0  0  0  0  0  0  0  0
  158.8520  212.5030  152.4980 C   0  0  2  0  0  0  0  0  0  0  0  0
  158.6550  213.9640  152.0990 C   0  0  0  0  0  2  0  0  0  0  0  0
  156.2650  213.9550  149.0310 O   0  0  0  0  0  0  0  0  0  0  0  0
  158.4010  214.0900  150.6720 N   0  0  0  0  0  0  0  0  0  0  0  0
  157.4180  214.1160  149.5000 C   0  0  0  0  0  0  0  0  0  0  0  0
  158.7630  214.4450  149.3710 C   0  0  2  0  0  3  0  0  0  0  0  0
  159.4510  213.2930  148.6500 C   0  0  0  0  0  2  0  0  0  0  0  0
  161.4000  214.4530  149.3750 O   0  0  0  0  0  1  0  0  0  0  0  0
  160.9240  213.1970  149.0050 C   0  0  2  0  0  3  0  0  0  0  0  0
  161.0870  212.3800  146.7820 O   0  0  0  0  0  0  0  0  0  0  0  0
  161.6940  212.6890  147.8360 C   0  0  0  0  0  0  0  0  0  0  0  0
  163.1160  212.5870  147.8880 N   0  0  0  0  0  1  0  0  0  0  0  0
  161.8420  209.8440  155.1000 C   0  0  0  0  0  2  0  0  0  0  0  0
  161.4960  208.4750  155.6870 C   0  0  1  0  0  3  0  0  0  0  0  0
  162.4050  208.1290  156.6920 O   0  0  0  0  0  1  0  0  0  0  0  0
  159.1370  207.7280  155.4930 F   0  0  0  0  0  0  0  0  0  0  0  0
  159.7430  209.0520  157.2460 N   0  0  0  0  0  2  0  0  0  0  0  0
  160.0830  208.4050  156.1930 C   0  0  0  0  0  0  0  0  0  0  0  0
  162.2810  206.3010  150.5700 C   0  0  0  0  0  2  0  0  0  0  0  0
  161.6500  205.0630  150.7370 O   0  0  0  0  0  0  0  0  0  0  0  0
  160.9800  205.1560  151.9600 C   0  0  1  0  0  3  0  0  0  0  0  0
  158.8700  204.2300  152.9240 O   0  0  0  0  0  1  0  0  0  0  0  0
  159.9620  204.0600  152.0800 C   0  0  0  0  0  0  0  0  0  0  0  0
  160.0810  202.9180  151.4030 C   0  0  0  0  0  3  0  0  0  0  0  0
  162.3180  202.1560  151.2310 O   0  0  0  0  0  1  0  0  0  0  0  0
  161.2220  202.5980  150.4850 C   0  0  1  0  0  3  0  0  0  0  0  0
  159.4520  201.5030  149.2560 O   0  0  0  0  0  1  0  0  0  0  0  0
  160.8430  201.5730  149.4110 C   0  0  1  0  0  3  0  0  0  0  0  0
  161.5260  201.7700  148.0640 C   0  0  0  0  0  2  0  0  0  0  0  0
  161.1660  203.0320  147.4520 N   0  0  0  0  0  2  0  0  0  0  0  0
  161.2670  202.8280  146.0140 C   0  0  0  0  0  2  0  0  0  0  0  0
  161.8980  204.0470  145.3590 C   0  0  2  0  0  3  0  0  0  0  0  0
  162.4610  204.8750  146.3370 O   0  0  0  0  0  1  0  0  0  0  0  0
  160.8170  204.8060  144.6070 C   0  0  0  0  0  2  0  0  0  0  0  0
  160.5590  206.1470  145.2550 C   0  0  0  0  0  1  0  0  0  0  0  0
  161.4320  205.6570  154.2520 O   0  0  0  0  0  1  0  0  0  0  0  0
  161.9850  205.0970  153.1000 C   0  0  0  0  0  2  0  0  0  0  0  0
  1  6  1  6  0  0  0
  1 36  1  0  0  0  0
  1  4  1  0  0  0  0
  2  9  1  0  0  0  0
  4  3  1  0  0  0  0
  5  3  1  0  0  0  0
  5 10  1  1  0  0  0
  7  5  1  0  0  0  0
  8  9  1  0  0  0  0
  9  1  1  0  0  0  0
  9  7  1  0  0  0  0
 10 11  1  0  0  0  0
 11 12  1  0  0  0  0
 11 30  1  1  0  0  0
 12 15  1  6  0  0  0
 12 14  1  0  0  0  0
 14 13  1  0  0  0  0
 17 18  1  0  0  0  0
 18 15  1  0  0  0  0
 18 16  1  1  0  0  0
 19 18  1  0  0  0  0
 20 22  2  0  0  0  0
 21 19  1  0  0  0  0
 22 21  1  0  0  0  0
 23 24  1  6  0  0  0
 23 22  1  0  0  0  0
 23 21  1  0  0  0  0
 24 26  1  0  0  0  0
 26 25  1  6  0  0  0
 27 28  2  0  0  0  0
 28 29  1  0  0  0  0
 28 26  1  0  0  0  0
 30 31  1  0  0  0  0
 31 35  1  0  0  0  0
 31 32  1  1  0  0  0
 33 35  1  0  0  0  0
 35 34  2  0  0  0  0
 36 37  1  0  0  0  0
 37 38  1  0  0  0  0
 38 40  1  0  0  0  0
 38 54  1  1  0  0  0
 40 39  1  0  0  0  0
 41 40  2  0  0  0  0
 43 42  1  1  0  0  0
 43 41  1  0  0  0  0
 45 44  1  6  0  0  0
 45 43  1  0  0  0  0
 46 45  1  0  0  0  0
 47 46  1  0  0  0  0
 48 47  1  0  0  0  0
 49 48  1  0  0  0  0
 49 50  1  1  0  0  0
 51 52  1  0  0  0  0
 51 49  1  0  0  0  0
 54 53  1  0  0  0  0
M  END
>  <MODEL>
7

>  <REMARK>
 VINA RESULT:      -3.0      2.093      3.432
  Name = 
  26 active torsions:
  status: ('A' for Active; 'I' for Inactive)
    1  A    between atoms: C_1  and  C_28
    2  A    between atoms: C_1  and  CA_52
    3  A    between atoms: C_2  and  C_36
    4  A    between atoms: C_2  and  C_39
    5  A    between atoms: C_2  and  O_53
    6  A    between atoms: C_5  and  N_15
    7  A    between atoms: C_5  and  C_54
    8  A    between atoms: C_6  and  C_13
    9  A    between atoms: C_6  and  C_38
   10  A    between atoms: C_8  and  C_12
   11  A    between atoms: C_11  and  C_27
   12  A    between atoms: C_11  and  O_30
   13  A    between atoms: C_11  and  C_34
   14  A    between atoms: C_12  and  O_30
   15  A    between atoms: C_16  and  C_39
   16  A    between atoms: C_16  and  C_44
   17  A    between atoms: O_17  and  C_36
   18  A    between atoms: O_17  and  C_54
   19  A    between atoms: C_19  and  N_21
   20  A    between atoms: C_19  and  C_47
   21  A    between atoms: N_21  and  C_38
   22  A    between atoms: C_22  and  C_28
   23  A    between atoms: C_23  and  O_53
   24  A    between atoms: O_33  and  C_36
   25  A    between atoms: C_47  and  C_48
   26  A    between atoms: C_48  and  C_50
                            x       y       z     vdW  Elec       q    Type
                         _______ _______ _______ _____ _____    ______ ____

>  <TORSDO>
F 26

$$$$
=
 OpenBabel11072410343D

 54 55  0  0  1  0  0  0  0  0999 V2000
  161.2800  206.0360  152.6490 C   0  0  1  0  0  0  0  0  0  0  0  0
  163.2760  204.8480  151.9720 F   0  0  0  0  0  0  0  0  0  0  0  0
  160.0690  205.1280  150.8880 C   0  0  0  0  0  2  0  0  0  0  0  0
  160.3820  205.0070  152.2600 O   0  0  0  0  0  0  0  0  0  0  0  0
  161.3440  205.0530  150.0550 C   0  0  2  0  0  3  0  0  0  0  0  0
  161.6960  205.7770  154.0920 C   0  0  0  0  0  1  0  0  0  0  0  0
  162.2180  206.1180  150.3890 O   0  0  0  0  0  0  0  0  0  0  0  0
  163.3700  207.0850  152.0860 F   0  0  0  0  0  0  0  0  0  0  0  0
  162.5540  206.0150  151.7570 C   0  0  0  0  0  0  0  0  0  0  0  0
  161.0510  204.9510  148.6700 O   0  0  0  0  0  0  0  0  0  0  0  0
  162.2310  204.9880  147.8960 C   0  0  2  0  0  3  0  0  0  0  0  0
  162.2530  206.2360  147.0050 C   0  0  1  0  0  3  0  0  0  0  0  0
  160.6680  206.1520  145.4490 C   0  0  0  0  0  1  0  0  0  0  0  0
  162.0180  205.8660  145.6780 O   0  0  0  0  0  0  0  0  0  0  0  0
  161.2310  207.1230  147.4210 O   0  0  0  0  0  0  0  0  0  0  0  0
  163.2960  208.3210  147.9580 C   0  0  0  0  0  1  0  0  0  0  0  0
  161.4750  208.1860  149.4040 F   0  0  0  0  0  0  0  0  0  0  0  0
  161.7780  208.2670  148.0580 C   0  0  2  0  0  0  0  0  0  0  0  0
  161.1820  209.5620  147.5110 C   0  0  0  0  0  2  0  0  0  0  0  0
  161.0530  212.0960  150.4590 O   0  0  0  0  0  0  0  0  0  0  0  0
  161.6910  210.7200  148.2280 N   0  0  0  0  0  0  0  0  0  0  0  0
  161.6250  211.6700  149.4260 C   0  0  0  0  0  0  0  0  0  0  0  0
  162.6600  211.6890  148.4980 C   0  0  2  0  0  3  0  0  0  0  0  0
  162.4740  212.9230  147.6250 C   0  0  0  0  0  2  0  0  0  0  0  0
  162.7130  213.0340  145.2590 O   0  0  0  0  0  1  0  0  0  0  0  0
  161.8730  212.5800  146.2740 C   0  0  2  0  0  3  0  0  0  0  0  0
  160.0170  213.7840  147.1340 O   0  0  0  0  0  0  0  0  0  0  0  0
  160.5320  213.2140  146.1420 C   0  0  0  0  0  0  0  0  0  0  0  0
  159.8440  213.2130  144.8920 N   0  0  0  0  0  1  0  0  0  0  0  0
  162.3050  203.7230  147.0310 C   0  0  0  0  0  2  0  0  0  0  0  0
  161.0200  202.8940  147.0480 C   0  0  1  0  0  3  0  0  0  0  0  0
  160.5410  202.7070  145.7490 O   0  0  0  0  0  1  0  0  0  0  0  0
  161.8840  200.5700  147.1640 F   0  0  0  0  0  0  0  0  0  0  0  0
  160.6210  201.3740  148.8820 N   0  0  0  0  0  2  0  0  0  0  0  0
  161.1930  201.5790  147.7540 C   0  0  0  0  0  0  0  0  0  0  0  0
  160.5980  207.4160  152.5860 C   0  0  0  0  0  2  0  0  0  0  0  0
  160.5740  208.0250  153.8460 O   0  0  0  0  0  0  0  0  0  0  0  0
  160.3640  209.3830  153.5920 C   0  0  1  0  0  3  0  0  0  0  0  0
  161.8150  209.9000  155.5580 O   0  0  0  0  0  1  0  0  0  0  0  0
  160.6800  210.1960  154.8130 C   0  0  0  0  0  0  0  0  0  0  0  0
  159.8910  211.1960  155.2100 C   0  0  0  0  0  3  0  0  0  0  0  0
  157.6010  210.7120  154.8510 O   0  0  0  0  0  1  0  0  0  0  0  0
  158.6270  211.5980  154.5140 C   0  0  1  0  0  3  0  0  0  0  0  0
  159.2910  213.9210  154.5960 O   0  0  0  0  0  1  0  0  0  0  0  0
  158.2220  213.0440  154.8200 C   0  0  1  0  0  3  0  0  0  0  0  0
  156.9680  213.5280  154.1020 C   0  0  0  0  0  2  0  0  0  0  0  0
  157.1130  213.4730  152.6620 N   0  0  0  0  0  2  0  0  0  0  0  0
  156.1350  214.4050  152.1210 C   0  0  0  0  0  2  0  0  0  0  0  0
  156.2280  214.4340  150.6030 C   0  0  2  0  0  3  0  0  0  0  0  0
  155.0050  214.0510  150.0440 O   0  0  0  0  0  1  0  0  0  0  0  0
  157.3160  213.4650  150.1680 C   0  0  0  0  0  2  0  0  0  0  0  0
  157.2530  213.2300  148.6760 C   0  0  0  0  0  1  0  0  0  0  0  0
  162.4450  210.3010  152.8590 O   0  0  0  0  0  1  0  0  0  0  0  0
  161.2150  209.8190  152.4090 C   0  0  0  0  0  2  0  0  0  0  0  0
  1  6  1  1  0  0  0
  3  4  1  0  0  0  0
  4  1  1  0  0  0  0
  5 10  1  6  0  0  0
  5  7  1  0  0  0  0
  5  3  1  0  0  0  0
  7  9  1  0  0  0  0
  9  2  1  0  0  0  0
  9  8  1  0  0  0  0
  9  1  1  0  0  0  0
 11 30  1  6  0  0  0
 11 10  1  0  0  0  0
 12 14  1  6  0  0  0
 12 15  1  0  0  0  0
 12 11  1  0  0  0  0
 13 14  1  0  0  0  0
 15 18  1  0  0  0  0
 18 16  1  6  0  0  0
 18 17  1  0  0  0  0
 19 18  1  0  0  0  0
 19 21  1  0  0  0  0
 21 23  1  0  0  0  0
 21 22  1  0  0  0  0
 22 20  2  0  0  0  0
 23 24  1  6  0  0  0
 23 22  1  0  0  0  0
 26 25  1  6  0  0  0
 26 24  1  0  0  0  0
 28 26  1  0  0  0  0
 28 27  2  0  0  0  0
 29 28  1  0  0  0  0
 30 31  1  0  0  0  0
 31 32  1  6  0  0  0
 31 35  1  0  0  0  0
 33 35  1  0  0  0  0
 35 34  2  0  0  0  0
 36  1  1  0  0  0  0
 36 37  1  0  0  0  0
 38 54  1  6  0  0  0
 38 37  1  0  0  0  0
 38 40  1  0  0  0  0
 40 41  2  0  0  0  0
 40 39  1  0  0  0  0
 43 45  1  0  0  0  0
 43 42  1  1  0  0  0
 43 41  1  0  0  0  0
 45 44  1  6  0  0  0
 46 45  1  0  0  0  0
 47 46  1  0  0  0  0
 48 47  1  0  0  0  0
 49 50  1  6  0  0  0
 49 48  1  0  0  0  0
 51 49  1  0  0  0  0
 52 51  1  0  0  0  0
 54 53  1  0  0  0  0
M  END
>  <MODEL>
8

>  <REMARK>
 VINA RESULT:      -2.9      2.502      9.073
  Name = 
  26 active torsions:
  status: ('A' for Active; 'I' for Inactive)
    1  A    between atoms: C_1  and  C_28
    2  A    between atoms: C_1  and  CA_52
    3  A    between atoms: C_2  and  C_36
    4  A    between atoms: C_2  and  C_39
    5  A    between atoms: C_2  and  O_53
    6  A    between atoms: C_5  and  N_15
    7  A    between atoms: C_5  and  C_54
    8  A    between atoms: C_6  and  C_13
    9  A    between atoms: C_6  and  C_38
   10  A    between atoms: C_8  and  C_12
   11  A    between atoms: C_11  and  C_27
   12  A    between atoms: C_11  and  O_30
   13  A    between atoms: C_11  and  C_34
   14  A    between atoms: C_12  and  O_30
   15  A    between atoms: C_16  and  C_39
   16  A    between atoms: C_16  and  C_44
   17  A    between atoms: O_17  and  C_36
   18  A    between atoms: O_17  and  C_54
   19  A    between atoms: C_19  and  N_21
   20  A    between atoms: C_19  and  C_47
   21  A    between atoms: N_21  and  C_38
   22  A    between atoms: C_22  and  C_28
   23  A    between atoms: C_23  and  O_53
   24  A    between atoms: O_33  and  C_36
   25  A    between atoms: C_47  and  C_48
   26  A    between atoms: C_48  and  C_50
                            x       y       z     vdW  Elec       q    Type
                         _______ _______ _______ _____ _____    ______ ____

>  <TORSDO>
F 26

$$$$
=
 OpenBabel11072410343D

 54 55  0  0  1  0  0  0  0  0999 V2000
  161.9370  209.0680  149.5800 C   0  0  1  0  0  0  0  0  0  0  0  0
  163.5710  207.2850  149.5430 F   0  0  0  0  0  0  0  0  0  0  0  0
  160.1900  207.5540  149.3700 C   0  0  0  0  0  2  0  0  0  0  0  0
  160.9500  208.3220  150.2790 O   0  0  0  0  0  0  0  0  0  0  0  0
  161.1030  206.6140  148.5900 C   0  0  2  0  0  3  0  0  0  0  0  0
  162.8170  209.7640  150.6110 C   0  0  0  0  0  1  0  0  0  0  0  0
  162.0490  207.3540  147.8370 O   0  0  0  0  0  0  0  0  0  0  0  0
  163.7190  208.8810  147.9760 F   0  0  0  0  0  0  0  0  0  0  0  0
  162.8310  208.1260  148.7240 C   0  0  0  0  0  0  0  0  0  0  0  0
  160.3550  205.6770  147.8310 O   0  0  0  0  0  0  0  0  0  0  0  0
  160.8320  204.3640  148.0290 C   0  0  2  0  0  3  0  0  0  0  0  0
  160.7770  203.9870  149.5140 C   0  0  1  0  0  3  0  0  0  0  0  0
  160.0820  202.0390  148.7000 C   0  0  0  0  0  1  0  0  0  0  0  0
  160.9370  202.6050  149.6510 O   0  0  0  0  0  0  0  0  0  0  0  0
  161.8290  204.6390  150.2000 O   0  0  0  0  0  0  0  0  0  0  0  0
  161.3330  203.8260  152.4540 C   0  0  0  0  0  1  0  0  0  0  0  0
  160.1580  205.5530  151.4230 F   0  0  0  0  0  0  0  0  0  0  0  0
  161.4280  205.0160  151.5080 C   0  0  2  0  0  0  0  0  0  0  0  0
  162.3560  206.0720  152.1040 C   0  0  0  0  0  2  0  0  0  0  0  0
  159.8380  206.2540  155.0630 O   0  0  0  0  0  0  0  0  0  0  0  0
  161.7090  206.7850  153.1950 N   0  0  0  0  0  0  0  0  0  0  0  0
  160.7340  206.7980  154.3740 C   0  0  0  0  0  0  0  0  0  0  0  0
  161.5950  207.8530  154.0870 C   0  0  2  0  0  3  0  0  0  0  0  0
  160.7590  208.9830  153.5010 C   0  0  0  0  0  2  0  0  0  0  0  0
  159.9940  209.9390  155.5430 O   0  0  0  0  0  1  0  0  0  0  0  0
  160.7440  210.2060  154.4000 C   0  0  2  0  0  3  0  0  0  0  0  0
  159.7560  212.3640  154.3140 O   0  0  0  0  0  0  0  0  0  0  0  0
  160.1560  211.3640  153.6690 C   0  0  0  0  0  0  0  0  0  0  0  0
  160.0770  211.3640  152.2450 N   0  0  0  0  0  1  0  0  0  0  0  0
  162.2740  204.2700  147.5150 C   0  0  0  0  0  2  0  0  0  0  0  0
  162.3730  203.9450  146.0250 C   0  0  1  0  0  3  0  0  0  0  0  0
  161.4760  202.9270  145.6850 O   0  0  0  0  0  1  0  0  0  0  0  0
  163.0620  206.1770  145.1860 F   0  0  0  0  0  0  0  0  0  0  0  0
  161.1130  205.2620  144.4400 N   0  0  0  0  0  2  0  0  0  0  0  0
  162.1700  205.1540  145.1560 C   0  0  0  0  0  0  0  0  0  0  0  0
  161.2870  210.1490  148.6970 C   0  0  0  0  0  2  0  0  0  0  0  0
  161.5620  211.4320  149.1840 O   0  0  0  0  0  0  0  0  0  0  0  0
  161.6200  212.2490  148.0510 C   0  0  1  0  0  3  0  0  0  0  0  0
  160.0980  213.7950  149.2890 O   0  0  0  0  0  1  0  0  0  0  0  0
  160.5060  213.2540  148.0760 C   0  0  0  0  0  0  0  0  0  0  0  0
  159.8860  213.6370  146.9590 C   0  0  0  0  0  3  0  0  0  0  0  0
  160.6760  211.7980  145.6920 O   0  0  0  0  0  1  0  0  0  0  0  0
  160.2080  213.1110  145.5940 C   0  0  1  0  0  3  0  0  0  0  0  0
  158.3970  214.4490  144.7160 O   0  0  0  0  0  1  0  0  0  0  0  0
  159.0160  213.1950  144.6350 C   0  0  1  0  0  3  0  0  0  0  0  0
  159.3280  212.8420  143.1860 C   0  0  0  0  0  2  0  0  0  0  0  0
  158.5970  213.6750  142.2550 N   0  0  0  0  0  2  0  0  0  0  0  0
  158.5290  212.9260  141.0080 C   0  0  0  0  0  2  0  0  0  0  0  0
  157.6420  213.6550  140.0110 C   0  0  2  0  0  3  0  0  0  0  0  0
  156.5780  214.2690  140.6810 O   0  0  0  0  0  1  0  0  0  0  0  0
  157.1020  212.6430  139.0140 C   0  0  0  0  0  2  0  0  0  0  0  0
  155.6130  212.4610  139.1940 C   0  0  0  0  0  1  0  0  0  0  0  0
  162.8190  214.2580  147.5660 O   0  0  0  0  0  1  0  0  0  0  0  0
  162.9750  212.9370  147.9860 C   0  0  0  0  0  2  0  0  0  0  0  0
  1  4  1  0  0  0  0
  1  6  1  1  0  0  0
  3  4  1  0  0  0  0
  5 10  1  6  0  0  0
  5  3  1  0  0  0  0
  7  5  1  0  0  0  0
  7  9  1  0  0  0  0
  8  9  1  0  0  0  0
  9  2  1  0  0  0  0
  9  1  1  0  0  0  0
 10 11  1  0  0  0  0
 11 30  1  1  0  0  0
 11 12  1  0  0  0  0
 12 14  1  6  0  0  0
 12 15  1  0  0  0  0
 13 14  1  0  0  0  0
 15 18  1  0  0  0  0
 17 18  1  0  0  0  0
 18 19  1  0  0  0  0
 18 16  1  1  0  0  0
 19 21  1  0  0  0  0
 21 23  1  0  0  0  0
 21 22  1  0  0  0  0
 22 20  2  0  0  0  0
 23 24  1  6  0  0  0
 23 22  1  0  0  0  0
 24 26  1  0  0  0  0
 26 25  1  1  0  0  0
 28 27  2  0  0  0  0
 28 26  1  0  0  0  0
 29 28  1  0  0  0  0
 31 32  1  6  0  0  0
 31 30  1  0  0  0  0
 34 35  2  0  0  0  0
 35 33  1  0  0  0  0
 35 31  1  0  0  0  0
 36 37  1  0  0  0  0
 36  1  1  0  0  0  0
 38 54  1  1  0  0  0
 38 40  1  0  0  0  0
 38 37  1  0  0  0  0
 40 39  1  0  0  0  0
 41 40  2  0  0  0  0
 43 42  1  1  0  0  0
 43 41  1  0  0  0  0
 45 44  1  6  0  0  0
 45 43  1  0  0  0  0
 46 45  1  0  0  0  0
 47 46  1  0  0  0  0
 48 47  1  0  0  0  0
 49 50  1  1  0  0  0
 49 48  1  0  0  0  0
 51 52  1  0  0  0  0
 51 49  1  0  0  0  0
 53 54  1  0  0  0  0
M  END
>  <MODEL>
9

>  <REMARK>
 VINA RESULT:      -2.9      3.464      9.710
  Name = 
  26 active torsions:
  status: ('A' for Active; 'I' for Inactive)
    1  A    between atoms: C_1  and  C_28
    2  A    between atoms: C_1  and  CA_52
    3  A    between atoms: C_2  and  C_36
    4  A    between atoms: C_2  and  C_39
    5  A    between atoms: C_2  and  O_53
    6  A    between atoms: C_5  and  N_15
    7  A    between atoms: C_5  and  C_54
    8  A    between atoms: C_6  and  C_13
    9  A    between atoms: C_6  and  C_38
   10  A    between atoms: C_8  and  C_12
   11  A    between atoms: C_11  and  C_27
   12  A    between atoms: C_11  and  O_30
   13  A    between atoms: C_11  and  C_34
   14  A    between atoms: C_12  and  O_30
   15  A    between atoms: C_16  and  C_39
   16  A    between atoms: C_16  and  C_44
   17  A    between atoms: O_17  and  C_36
   18  A    between atoms: O_17  and  C_54
   19  A    between atoms: C_19  and  N_21
   20  A    between atoms: C_19  and  C_47
   21  A    between atoms: N_21  and  C_38
   22  A    between atoms: C_22  and  C_28
   23  A    between atoms: C_23  and  O_53
   24  A    between atoms: O_33  and  C_36
   25  A    between atoms: C_47  and  C_48
   26  A    between atoms: C_48  and  C_50
                            x       y       z     vdW  Elec       q    Type
                         _______ _______ _______ _____ _____    ______ ____

>  <TORSDO>
F 26

$$$$
