=
 OpenBabel11072414203D

 56 62  0  0  1  0  0  0  0  0999 V2000
  160.4130  209.2530  153.5700 C   0  0  0  0  0  3  0  0  0  0  0  0
  162.2150  210.9410  153.6290 C   0  0  0  0  0  3  0  0  0  0  0  0
  160.9950  208.6080  152.5510 C   0  0  0  0  0  0  0  0  0  0  0  0
  160.3570  211.1480  155.3260 C   0  0  1  0  0  3  0  0  0  0  0  0
  160.9820  209.2440  156.6790 C   0  0  2  0  0  3  0  0  0  0  0  0
  160.4590  210.6660  156.7650 C   0  0  0  0  0  2  0  0  0  0  0  0
  161.9040  209.2670  155.4690 C   0  0  0  0  0  2  0  0  0  0  0  0
  161.2070  210.1810  154.4580 C   0  0  1  0  0  0  0  0  0  0  0  0
  162.7760  210.3680  152.5440 C   0  0  0  0  0  3  0  0  0  0  0  0
  162.4310  208.9450  152.1850 C   0  0  0  0  0  2  0  0  0  0  0  0
  158.5940  211.3570  154.8630 P   0  0  2  0  0  0  0  0  0  0  0  0
  157.7170  210.6150  155.8420 O   0  0  0  0  0  1  0  0  0  0  0  0
  158.3370  210.7360  153.3130 O   0  0  0  0  0  0  0  0  0  0  0  0
  158.1960  213.0740  154.8980 N   0  0  0  0  0  2  0  0  0  0  0  0
  156.5350  213.3070  154.4120 S   0  0  0  0  0  0  0  0  0  0  0  0
  155.8220  214.1640  155.4370 O   0  0  0  0  0  0  0  0  0  0  0  0
  155.7830  212.0050  154.3080 O   0  0  0  0  0  0  0  0  0  0  0  0
  156.4930  214.0900  152.8700 N   0  0  0  0  0  0  0  0  0  0  0  0
  159.4980  214.0560  149.8280 C   0  0  2  0  0  3  0  0  0  0  0  0
  155.2710  214.2330  152.0750 C   0  0  0  0  0  3  0  0  0  0  0  0
  155.7240  214.4130  150.6980 N   0  0  0  0  0  0  0  0  0  0  0  0
  158.9960  213.7700  152.2880 C   0  0  0  0  0  2  0  0  0  0  0  0
  157.1400  214.2970  150.7220 C   0  0  0  0  0  0  0  0  0  0  0  0
  157.5650  214.0660  151.9490 C   0  0  0  0  0  0  0  0  0  0  0  0
  159.7170  213.1770  151.0770 C   0  0  0  0  0  2  0  0  0  0  0  0
  158.0000  214.1470  149.5000 C   0  0  0  0  0  2  0  0  0  0  0  0
  161.6380  213.1080  148.8040 N   0  0  0  0  0  1  0  0  0  0  0  0
  160.2830  213.5220  148.6510 C   0  0  0  0  0  0  0  0  0  0  0  0
  159.5200  213.1800  147.2480 S   0  0  0  0  0  0  0  0  0  0  0  0
  159.8500  208.2510  156.5110 C   0  0  0  0  0  3  0  0  0  0  0  0
  159.9870  207.0100  156.9670 C   0  0  0  0  0  2  0  0  0  0  0  0
  160.3360  207.4900  152.0150 O   0  0  0  0  0  0  0  0  0  0  0  0
  161.0340  205.1760  147.8050 C   0  0  2  0  0  3  0  0  0  0  0  0
  162.6320  207.1710  148.3320 C   0  0  0  0  0  2  0  0  0  0  0  0
  161.0180  206.3380  151.5080 C   0  0  2  0  0  3  0  0  0  0  0  0
  162.1140  207.4480  149.7360 C   0  0  0  0  0  2  0  0  0  0  0  0
  161.8440  203.8410  149.8280 C   0  0  0  0  0  2  0  0  0  0  0  0
  161.1230  206.4150  150.0370 N   0  0  1  0  0  0  0  0  0  0  0  0
  161.2820  203.8570  152.2230 C   0  0  0  0  0  2  0  0  0  0  0  0
  162.4360  203.8560  151.2230 C   0  0  0  0  0  2  0  0  0  0  0  0
  161.5440  205.2300  149.2510 C   0  0  2  0  0  0  0  0  0  0  0  0
  162.4690  205.6670  148.1360 C   0  0  1  0  0  3  0  0  0  0  0  0
  159.2200  205.0260  152.3320 O   0  0  0  0  0  0  0  0  0  0  0  0
  160.4060  205.0620  152.0260 C   0  0  0  0  0  0  0  0  0  0  0  0
  160.0250  206.2690  147.4450 C   0  0  0  0  0  2  0  0  0  0  0  0
  159.9250  206.4290  145.9350 C   0  0  0  0  0  2  0  0  0  0  0  0
  161.2030  206.2390  145.3240 O   0  0  0  0  0  0  0  0  0  0  0  0
  161.4730  205.1990  144.4280 C   0  0  0  0  0  0  0  0  0  0  0  0
  160.9830  205.2020  143.2610 O   0  0  0  0  0  0  0  0  0  0  0  0
  162.2650  204.1200  144.8180 O   0  0  0  0  0  0  0  0  0  0  0  0
  161.7760  203.1720  145.7470 C   0  0  0  0  0  2  0  0  0  0  0  0
  160.5460  202.5240  145.2100 C   0  0  0  0  0  3  0  0  0  0  0  0
  160.2350  201.2300  145.3810 C   0  0  0  0  0  3  0  0  0  0  0  0
  160.9960  200.2880  146.1530 N   0  0  0  0  0  0  0  0  0  0  0  0
  161.2150  198.9640  145.5800 C   0  0  0  0  0  1  0  0  0  0  0  0
  161.2420  200.4480  147.5770 C   0  0  0  0  0  1  0  0  0  0  0  0
  2  8  1  0  0  0  0
  3  1  2  0  0  0  0
  4 11  1  6  0  0  0
  4  6  1  0  0  0  0
  5 30  1  6  0  0  0
  5  6  1  0  0  0  0
  7  5  1  0  0  0  0
  8  1  1  6  0  0  0
  8  4  1  0  0  0  0
  8  7  1  0  0  0  0
  9  2  2  0  0  0  0
 10  9  1  0  0  0  0
 10  3  1  0  0  0  0
 11 13  2  6  0  0  0
 11 14  1  0  0  0  0
 11 12  1  0  0  0  0
 15 14  1  0  0  0  0
 15 16  2  0  0  0  0
 17 15  2  0  0  0  0
 18 15  1  0  0  0  0
 19 28  1  6  0  0  0
 19 25  1  0  0  0  0
 20 18  1  0  0  0  0
 21 23  1  0  0  0  0
 21 20  2  0  0  0  0
 23 24  2  0  0  0  0
 24 22  1  0  0  0  0
 24 18  1  0  0  0  0
 25 22  1  0  0  0  0
 26 19  1  0  0  0  0
 26 23  1  0  0  0  0
 28 27  1  0  0  0  0
 29 28  2  0  0  0  0
 30 31  2  0  0  0  0
 32  3  1  0  0  0  0
 33 45  1  1  0  0  0
 33 42  1  0  0  0  0
 33 41  1  0  0  0  0
 34 36  1  0  0  0  0
 35 32  1  6  0  0  0
 35 44  1  0  0  0  0
 37 40  1  0  0  0  0
 38 36  1  1  0  0  0
 38 35  1  0  0  0  0
 40 39  1  0  0  0  0
 41 37  1  1  0  0  0
 41 38  1  0  0  0  0
 42 34  1  1  0  0  0
 42 41  1  0  0  0  0
 44 39  1  0  0  0  0
 44 43  2  0  0  0  0
 46 45  1  0  0  0  0
 47 46  1  0  0  0  0
 48 50  1  0  0  0  0
 48 47  1  0  0  0  0
 49 48  2  0  0  0  0
 50 51  1  0  0  0  0
 52 53  2  0  0  0  0
 52 51  1  0  0  0  0
 53 54  1  0  0  0  0
 54 56  1  0  0  0  0
 55 54  1  0  0  0  0
M  END
>  <MODEL>
1

>  <REMARK>
 VINA RESULT:      -2.9      0.000      0.000
  Name = 
  16 active torsions:
  status: ('A' for Active; 'I' for Inactive)
    1  A    between atoms: C_1  and  C_25
    2  A    between atoms: S_2  and  N_3
    3  A    between atoms: S_2  and  N_6
    4  A    between atoms: C_4  and  C_41
    5  A    between atoms: N_6  and  P_10
    6  A    between atoms: C_7  and  O_56
    7  A    between atoms: C_9  and  C_25
    8  A    between atoms: C_9  and  O_31
    9  A    between atoms: P_10  and  C_18
   10  A    between atoms: N_12  and  C_16
   11  A    between atoms: C_15  and  C_54
   12  A    between atoms: C_17  and  O_56
   13  A    between atoms: C_21  and  C_23
   14  A    between atoms: C_29  and  O_31
   15  A    between atoms: C_29  and  O_37
   16  A    between atoms: O_37  and  C_54
                            x       y       z     vdW  Elec       q    Type
                         _______ _______ _______ _____ _____    ______ ____

>  <TORSDO>
F 16

$$$$
=
 OpenBabel11072414203D

 56 62  0  0  1  0  0  0  0  0999 V2000
  160.4700  209.0800  153.2100 C   0  0  0  0  0  3  0  0  0  0  0  0
  162.3180  210.7170  153.2890 C   0  0  0  0  0  3  0  0  0  0  0  0
  161.0320  208.4350  152.1810 C   0  0  0  0  0  0  0  0  0  0  0  0
  160.4700  210.9500  154.9950 C   0  0  1  0  0  3  0  0  0  0  0  0
  161.0450  209.0090  156.3170 C   0  0  2  0  0  3  0  0  0  0  0  0
  160.5630  210.4440  156.4260 C   0  0  0  0  0  2  0  0  0  0  0  0
  161.9650  209.0240  155.1050 C   0  0  0  0  0  2  0  0  0  0  0  0
  161.2910  209.9730  154.1100 C   0  0  1  0  0  0  0  0  0  0  0  0
  162.8610  210.1450  152.1950 C   0  0  0  0  0  3  0  0  0  0  0  0
  162.4750  208.7370  151.8150 C   0  0  0  0  0  2  0  0  0  0  0  0
  158.7130  211.2140  154.5390 P   0  0  2  0  0  0  0  0  0  0  0  0
  157.8210  210.4210  155.4630 O   0  0  0  0  0  1  0  0  0  0  0  0
  158.4550  210.7030  152.9500 O   0  0  0  0  0  0  0  0  0  0  0  0
  158.3390  212.9310  154.6880 N   0  0  0  0  0  2  0  0  0  0  0  0
  156.6660  213.2110  154.2700 S   0  0  0  0  0  0  0  0  0  0  0  0
  156.0240  214.0980  155.3160 O   0  0  0  0  0  0  0  0  0  0  0  0
  155.8720  211.9320  154.2110 O   0  0  0  0  0  0  0  0  0  0  0  0
  156.5830  213.9820  152.7240 N   0  0  0  0  0  0  0  0  0  0  0  0
  159.5800  214.0810  149.6760 C   0  0  2  0  0  3  0  0  0  0  0  0
  155.3530  214.0590  151.9310 C   0  0  0  0  0  3  0  0  0  0  0  0
  155.7950  214.2540  150.5520 N   0  0  0  0  0  0  0  0  0  0  0  0
  159.0980  213.7840  152.1390 C   0  0  0  0  0  2  0  0  0  0  0  0
  157.2150  214.2100  150.5740 C   0  0  0  0  0  0  0  0  0  0  0  0
  157.6530  214.0060  151.8010 C   0  0  0  0  0  0  0  0  0  0  0  0
  159.8450  213.2210  150.9300 C   0  0  0  0  0  2  0  0  0  0  0  0
  158.0780  214.0950  149.3510 C   0  0  0  0  0  2  0  0  0  0  0  0
  161.6170  212.8860  148.7020 N   0  0  0  0  0  1  0  0  0  0  0  0
  160.3890  213.5800  148.5000 C   0  0  0  0  0  0  0  0  0  0  0  0
  159.7480  213.6070  146.9990 S   0  0  0  0  0  0  0  0  0  0  0  0
  159.8850  208.0500  156.1370 C   0  0  0  0  0  3  0  0  0  0  0  0
  160.0630  206.9160  155.4670 C   0  0  0  0  0  2  0  0  0  0  0  0
  160.3400  207.3440  151.6290 O   0  0  0  0  0  0  0  0  0  0  0  0
  160.9990  205.0470  147.4040 C   0  0  2  0  0  3  0  0  0  0  0  0
  162.6580  206.9820  147.9640 C   0  0  0  0  0  2  0  0  0  0  0  0
  160.9880  206.1750  151.1170 C   0  0  2  0  0  3  0  0  0  0  0  0
  162.1360  207.2630  149.3650 C   0  0  0  0  0  2  0  0  0  0  0  0
  161.7460  203.6670  149.4210 C   0  0  0  0  0  2  0  0  0  0  0  0
  161.1090  206.2610  149.6480 N   0  0  1  0  0  0  0  0  0  0  0  0
  161.1620  203.6790  151.8110 C   0  0  0  0  0  2  0  0  0  0  0  0
  162.3250  203.6500  150.8210 C   0  0  0  0  0  2  0  0  0  0  0  0
  161.4980  205.0700  148.8550 C   0  0  2  0  0  0  0  0  0  0  0  0
  162.4470  205.4860  147.7520 C   0  0  1  0  0  3  0  0  0  0  0  0
  159.1400  204.9160  151.9130 O   0  0  0  0  0  0  0  0  0  0  0  0
  160.3290  204.9150  151.6170 C   0  0  0  0  0  0  0  0  0  0  0  0
  160.0300  206.1760  147.0450 C   0  0  0  0  0  2  0  0  0  0  0  0
  159.7730  206.2040  145.5460 C   0  0  0  0  0  2  0  0  0  0  0  0
  160.5390  205.1960  144.8840 O   0  0  0  0  0  0  0  0  0  0  0  0
  161.6180  205.4870  144.0430 C   0  0  0  0  0  0  0  0  0  0  0  0
  162.7520  205.7850  144.5200 O   0  0  0  0  0  0  0  0  0  0  0  0
  161.4540  205.4820  142.6590 O   0  0  0  0  0  0  0  0  0  0  0  0
  161.6880  206.6580  141.9070 C   0  0  0  0  0  2  0  0  0  0  0  0
  162.2930  206.3070  140.5920 C   0  0  0  0  0  3  0  0  0  0  0  0
  162.1680  207.0460  139.4790 C   0  0  0  0  0  3  0  0  0  0  0  0
  161.4930  208.3120  139.3930 N   0  0  0  0  0  0  0  0  0  0  0  0
  160.3950  208.4290  138.4390 C   0  0  0  0  0  1  0  0  0  0  0  0
  162.0540  209.5450  139.9210 C   0  0  0  0  0  1  0  0  0  0  0  0
  2  8  1  0  0  0  0
  3  1  2  0  0  0  0
  4 11  1  6  0  0  0
  4  6  1  0  0  0  0
  5 30  1  6  0  0  0
  5  6  1  0  0  0  0
  7  5  1  0  0  0  0
  8  1  1  6  0  0  0
  8  4  1  0  0  0  0
  8  7  1  0  0  0  0
  9  2  2  0  0  0  0
 10  3  1  0  0  0  0
 10  9  1  0  0  0  0
 11 13  2  6  0  0  0
 11 14  1  0  0  0  0
 11 12  1  0  0  0  0
 15 14  1  0  0  0  0
 15 16  2  0  0  0  0
 17 15  2  0  0  0  0
 18 15  1  0  0  0  0
 19 28  1  6  0  0  0
 19 25  1  0  0  0  0
 20 18  1  0  0  0  0
 21 23  1  0  0  0  0
 21 20  2  0  0  0  0
 23 24  2  0  0  0  0
 24 22  1  0  0  0  0
 24 18  1  0  0  0  0
 25 22  1  0  0  0  0
 26 19  1  0  0  0  0
 26 23  1  0  0  0  0
 28 27  1  0  0  0  0
 29 28  2  0  0  0  0
 31 30  2  0  0  0  0
 32  3  1  0  0  0  0
 33 45  1  1  0  0  0
 33 42  1  0  0  0  0
 33 41  1  0  0  0  0
 34 36  1  0  0  0  0
 35 44  1  0  0  0  0
 35 32  1  6  0  0  0
 37 40  1  0  0  0  0
 38 36  1  1  0  0  0
 38 35  1  0  0  0  0
 40 39  1  0  0  0  0
 41 37  1  1  0  0  0
 41 38  1  0  0  0  0
 42 34  1  1  0  0  0
 42 41  1  0  0  0  0
 44 39  1  0  0  0  0
 44 43  2  0  0  0  0
 46 45  1  0  0  0  0
 47 46  1  0  0  0  0
 48 49  2  0  0  0  0
 48 47  1  0  0  0  0
 50 48  1  0  0  0  0
 51 50  1  0  0  0  0
 52 51  1  0  0  0  0
 53 52  2  0  0  0  0
 54 53  1  0  0  0  0
 54 56  1  0  0  0  0
 55 54  1  0  0  0  0
M  END
>  <MODEL>
2

>  <REMARK>
 VINA RESULT:      -2.8      2.176      3.146
  Name = 
  16 active torsions:
  status: ('A' for Active; 'I' for Inactive)
    1  A    between atoms: C_1  and  C_25
    2  A    between atoms: S_2  and  N_3
    3  A    between atoms: S_2  and  N_6
    4  A    between atoms: C_4  and  C_41
    5  A    between atoms: N_6  and  P_10
    6  A    between atoms: C_7  and  O_56
    7  A    between atoms: C_9  and  C_25
    8  A    between atoms: C_9  and  O_31
    9  A    between atoms: P_10  and  C_18
   10  A    between atoms: N_12  and  C_16
   11  A    between atoms: C_15  and  C_54
   12  A    between atoms: C_17  and  O_56
   13  A    between atoms: C_21  and  C_23
   14  A    between atoms: C_29  and  O_31
   15  A    between atoms: C_29  and  O_37
   16  A    between atoms: O_37  and  C_54
                            x       y       z     vdW  Elec       q    Type
                         _______ _______ _______ _____ _____    ______ ____

>  <TORSDO>
F 16

$$$$
=
 OpenBabel11072414203D

 56 62  0  0  1  0  0  0  0  0999 V2000
  159.4470  210.4690  154.0500 C   0  0  0  0  0  3  0  0  0  0  0  0
  160.0930  212.8340  153.7550 C   0  0  0  0  0  3  0  0  0  0  0  0
  160.0380  210.1220  152.9010 C   0  0  0  0  0  0  0  0  0  0  0  0
  158.8130  212.2190  155.8430 C   0  0  1  0  0  3  0  0  0  0  0  0
  160.6020  211.0180  156.9400 C   0  0  2  0  0  3  0  0  0  0  0  0
  159.4580  211.9820  157.1990 C   0  0  0  0  0  2  0  0  0  0  0  0
  161.0930  211.3990  155.5520 C   0  0  0  0  0  2  0  0  0  0  0  0
  159.8250  211.7440  154.7660 C   0  0  1  0  0  0  0  0  0  0  0  0
  160.6170  212.5330  152.5490 C   0  0  0  0  0  3  0  0  0  0  0  0
  160.9790  211.1050  152.2250 C   0  0  0  0  0  2  0  0  0  0  0  0
  157.1400  211.4670  155.8080 P   0  0  2  0  0  0  0  0  0  0  0  0
  156.3680  211.8800  157.0380 O   0  0  0  0  0  1  0  0  0  0  0  0
  157.2750  209.7840  155.7810 O   0  0  0  0  0  0  0  0  0  0  0  0
  156.2940  212.0270  154.3660 N   0  0  0  0  0  2  0  0  0  0  0  0
  155.9710  213.7390  154.4970 S   0  0  0  0  0  0  0  0  0  0  0  0
  157.2150  214.4530  154.9830 O   0  0  0  0  0  0  0  0  0  0  0  0
  154.8660  214.0370  155.4760 O   0  0  0  0  0  0  0  0  0  0  0  0
  155.5150  214.3560  152.9460 N   0  0  0  0  0  0  0  0  0  0  0  0
  157.6350  213.9970  149.2510 C   0  0  2  0  0  3  0  0  0  0  0  0
  154.1250  214.4180  152.4850 C   0  0  0  0  0  3  0  0  0  0  0  0
  154.2040  214.4520  151.0260 N   0  0  0  0  0  0  0  0  0  0  0  0
  157.7910  213.9720  151.7720 C   0  0  0  0  0  2  0  0  0  0  0  0
  155.5820  214.3360  150.6950 C   0  0  0  0  0  0  0  0  0  0  0  0
  156.3140  214.2330  151.7870 C   0  0  0  0  0  0  0  0  0  0  0  0
  158.1900  213.2530  150.4840 C   0  0  0  0  0  2  0  0  0  0  0  0
  156.1000  214.0570  149.3140 C   0  0  0  0  0  2  0  0  0  0  0  0
  157.2040  212.5770  147.1710 N   0  0  0  0  0  1  0  0  0  0  0  0
  158.1030  213.3410  147.9710 C   0  0  0  0  0  0  0  0  0  0  0  0
  159.5730  213.7020  147.3590 S   0  0  0  0  0  0  0  0  0  0  0  0
  160.1320  209.5780  157.0010 C   0  0  0  0  0  3  0  0  0  0  0  0
  160.9070  208.6100  156.5230 C   0  0  0  0  0  2  0  0  0  0  0  0
  159.9450  208.7820  152.4890 O   0  0  0  0  0  0  0  0  0  0  0  0
  161.8250  205.5790  149.3630 C   0  0  2  0  0  3  0  0  0  0  0  0
  162.4170  208.0910  148.9750 C   0  0  0  0  0  2  0  0  0  0  0  0
  161.0750  207.9110  152.3730 C   0  0  2  0  0  3  0  0  0  0  0  0
  161.7350  208.6300  150.2240 C   0  0  0  0  0  2  0  0  0  0  0  0
  162.9710  205.5410  151.6450 C   0  0  0  0  0  2  0  0  0  0  0  0
  161.2400  207.4740  150.9720 N   0  0  1  0  0  0  0  0  0  0  0  0
  162.2890  206.2100  153.9130 C   0  0  0  0  0  2  0  0  0  0  0  0
  163.4060  206.3100  152.8780 C   0  0  0  0  0  2  0  0  0  0  0  0
  162.1660  206.3660  150.6350 C   0  0  2  0  0  0  0  0  0  0  0  0
  162.9030  206.6960  149.3550 C   0  0  1  0  0  3  0  0  0  0  0  0
  159.9260  206.3870  153.7840 O   0  0  0  0  0  0  0  0  0  0  0  0
  161.0100  206.7860  153.3750 C   0  0  0  0  0  0  0  0  0  0  0  0
  160.4820  205.9480  148.7270 C   0  0  0  0  0  2  0  0  0  0  0  0
  159.4510  204.8600  148.9830 C   0  0  0  0  0  2  0  0  0  0  0  0
  159.8830  203.9940  150.0350 O   0  0  0  0  0  0  0  0  0  0  0  0
  160.4440  202.7340  149.8040 C   0  0  0  0  0  0  0  0  0  0  0  0
  161.0000  202.0880  150.7410 O   0  0  0  0  0  0  0  0  0  0  0  0
  160.4280  202.1780  148.5260 O   0  0  0  0  0  0  0  0  0  0  0  0
  161.4150  202.5370  147.5770 C   0  0  0  0  0  2  0  0  0  0  0  0
  160.8710  202.3890  146.1980 C   0  0  0  0  0  3  0  0  0  0  0  0
  161.0160  203.3000  145.2250 C   0  0  0  0  0  3  0  0  0  0  0  0
  161.7640  204.5220  145.3340 N   0  0  0  0  0  0  0  0  0  0  0  0
  161.2870  205.6770  144.5810 C   0  0  0  0  0  1  0  0  0  0  0  0
  163.1240  204.5730  145.8450 C   0  0  0  0  0  1  0  0  0  0  0  0
  1  8  1  0  0  0  0
  3  1  2  0  0  0  0
  4 11  1  1  0  0  0
  4  6  1  0  0  0  0
  5 30  1  6  0  0  0
  5  6  1  0  0  0  0
  7  5  1  0  0  0  0
  8  2  1  6  0  0  0
  8  7  1  0  0  0  0
  8  4  1  0  0  0  0
  9  2  2  0  0  0  0
 10  9  1  0  0  0  0
 10  3  1  0  0  0  0
 11 13  2  6  0  0  0
 11 12  1  0  0  0  0
 14 15  1  0  0  0  0
 14 11  1  0  0  0  0
 15 16  2  0  0  0  0
 15 17  2  0  0  0  0
 18 15  1  0  0  0  0
 19 28  1  6  0  0  0
 19 26  1  0  0  0  0
 19 25  1  0  0  0  0
 20 18  1  0  0  0  0
 21 20  2  0  0  0  0
 22 24  1  0  0  0  0
 23 21  1  0  0  0  0
 23 24  2  0  0  0  0
 24 18  1  0  0  0  0
 25 22  1  0  0  0  0
 26 23  1  0  0  0  0
 27 28  1  0  0  0  0
 29 28  2  0  0  0  0
 31 30  2  0  0  0  0
 32  3  1  0  0  0  0
 33 45  1  6  0  0  0
 33 41  1  0  0  0  0
 34 36  1  0  0  0  0
 35 32  1  6  0  0  0
 35 44  1  0  0  0  0
 37 40  1  0  0  0  0
 38 36  1  6  0  0  0
 38 35  1  0  0  0  0
 40 39  1  0  0  0  0
 41 38  1  0  0  0  0
 41 37  1  1  0  0  0
 42 34  1  6  0  0  0
 42 33  1  0  0  0  0
 42 41  1  0  0  0  0
 44 43  2  0  0  0  0
 44 39  1  0  0  0  0
 45 46  1  0  0  0  0
 46 47  1  0  0  0  0
 48 47  1  0  0  0  0
 48 49  2  0  0  0  0
 50 48  1  0  0  0  0
 51 50  1  0  0  0  0
 52 51  1  0  0  0  0
 53 54  1  0  0  0  0
 53 52  2  0  0  0  0
 54 56  1  0  0  0  0
 55 54  1  0  0  0  0
M  END
>  <MODEL>
3

>  <REMARK>
 VINA RESULT:      -1.6      2.137      2.851
  Name = 
  16 active torsions:
  status: ('A' for Active; 'I' for Inactive)
    1  A    between atoms: C_1  and  C_25
    2  A    between atoms: S_2  and  N_3
    3  A    between atoms: S_2  and  N_6
    4  A    between atoms: C_4  and  C_41
    5  A    between atoms: N_6  and  P_10
    6  A    between atoms: C_7  and  O_56
    7  A    between atoms: C_9  and  C_25
    8  A    between atoms: C_9  and  O_31
    9  A    between atoms: P_10  and  C_18
   10  A    between atoms: N_12  and  C_16
   11  A    between atoms: C_15  and  C_54
   12  A    between atoms: C_17  and  O_56
   13  A    between atoms: C_21  and  C_23
   14  A    between atoms: C_29  and  O_31
   15  A    between atoms: C_29  and  O_37
   16  A    between atoms: O_37  and  C_54
                            x       y       z     vdW  Elec       q    Type
                         _______ _______ _______ _____ _____    ______ ____

>  <TORSDO>
F 16

$$$$
=
 OpenBabel11072414203D

 56 62  0  0  1  0  0  0  0  0999 V2000
  160.6490  212.1950  149.5670 C   0  0  0  0  0  3  0  0  0  0  0  0
  160.6500  214.4530  150.5670 C   0  0  0  0  0  3  0  0  0  0  0  0
  160.5960  211.6170  150.7730 C   0  0  0  0  0  0  0  0  0  0  0  0
  160.6990  214.2850  148.0470 C   0  0  1  0  0  3  0  0  0  0  0  0
  158.4220  213.5240  147.7600 C   0  0  2  0  0  3  0  0  0  0  0  0
  159.4740  214.4380  147.1590 C   0  0  0  0  0  2  0  0  0  0  0  0
  158.6980  213.5830  149.2550 C   0  0  0  0  0  2  0  0  0  0  0  0
  160.2240  213.6310  149.3730 C   0  0  1  0  0  0  0  0  0  0  0  0
  160.6900  213.9010  151.7960 C   0  0  0  0  0  3  0  0  0  0  0  0
  160.2640  212.4670  151.9880 C   0  0  0  0  0  2  0  0  0  0  0  0
  162.0360  213.4300  147.1260 P   0  0  2  0  0  0  0  0  0  0  0  0
  161.5350  212.1000  146.6180 O   0  0  0  0  0  0  0  0  0  0  0  0
  163.3530  213.1690  148.1480 O   0  0  0  0  0  1  0  0  0  0  0  0
  162.5210  214.4380  145.7620 N   0  0  0  0  0  2  0  0  0  0  0  0
  162.7210  213.4480  144.3370 S   0  0  0  0  0  0  0  0  0  0  0  0
  162.8450  211.9950  144.7430 O   0  0  0  0  0  0  0  0  0  0  0  0
  163.9620  213.8100  143.5620 O   0  0  0  0  0  0  0  0  0  0  0  0
  161.3490  213.6480  143.3030 N   0  0  0  0  0  0  0  0  0  0  0  0
  160.4260  211.5010  139.7220 C   0  0  2  0  0  3  0  0  0  0  0  0
  160.0110  213.9820  143.8000 C   0  0  0  0  0  3  0  0  0  0  0  0
  159.0890  213.5240  142.7630 N   0  0  0  0  0  0  0  0  0  0  0  0
  162.2380  212.2330  141.3250 C   0  0  0  0  0  2  0  0  0  0  0  0
  159.8830  212.8930  141.7670 C   0  0  0  0  0  0  0  0  0  0  0  0
  161.1580  212.9250  142.1040 C   0  0  0  0  0  0  0  0  0  0  0  0
  161.6560  211.0560  140.5410 C   0  0  0  0  0  2  0  0  0  0  0  0
  159.3340  212.0440  140.6580 C   0  0  0  0  0  2  0  0  0  0  0  0
  160.7950  209.4100  138.3010 N   0  0  0  0  0  1  0  0  0  0  0  0
  159.9030  210.3610  138.8760 C   0  0  0  0  0  0  0  0  0  0  0  0
  158.3000  210.0600  138.8140 S   0  0  0  0  0  0  0  0  0  0  0  0
  158.5430  212.1140  147.2160 C   0  0  0  0  0  3  0  0  0  0  0  0
  158.3560  211.8880  145.9190 C   0  0  0  0  0  2  0  0  0  0  0  0
  160.6220  210.2140  150.8340 O   0  0  0  0  0  0  0  0  0  0  0  0
  160.8350  205.6160  152.3770 C   0  0  2  0  0  3  0  0  0  0  0  0
  162.9700  206.5690  151.2160 C   0  0  0  0  0  2  0  0  0  0  0  0
  160.9100  209.4810  152.0300 C   0  0  2  0  0  3  0  0  0  0  0  0
  162.4620  207.9950  151.0540 C   0  0  0  0  0  2  0  0  0  0  0  0
  160.9680  207.3170  154.2780 C   0  0  0  0  0  2  0  0  0  0  0  0
  161.1560  208.0600  151.7090 N   0  0  1  0  0  0  0  0  0  0  0  0
  160.2470  209.6550  154.5330 C   0  0  0  0  0  2  0  0  0  0  0  0
  161.4100  208.6900  154.7450 C   0  0  0  0  0  2  0  0  0  0  0  0
  161.2110  207.0450  152.7890 C   0  0  2  0  0  0  0  0  0  0  0  0
  162.3190  206.0570  152.4970 C   0  0  1  0  0  3  0  0  0  0  0  0
  158.7080  209.9910  152.7580 O   0  0  0  0  0  0  0  0  0  0  0  0
  159.8560  209.7100  153.0830 C   0  0  0  0  0  0  0  0  0  0  0  0
  160.2950  205.4860  150.9500 C   0  0  0  0  0  2  0  0  0  0  0  0
  161.0580  204.4160  150.1840 C   0  0  0  0  0  2  0  0  0  0  0  0
  160.2790  203.2220  150.0760 O   0  0  0  0  0  0  0  0  0  0  0  0
  160.7740  202.0350  149.5250 C   0  0  0  0  0  0  0  0  0  0  0  0
  161.1840  201.0960  150.2680 O   0  0  0  0  0  0  0  0  0  0  0  0
  160.8520  201.8780  148.1420 O   0  0  0  0  0  0  0  0  0  0  0  0
  161.6110  202.7820  147.3620 C   0  0  0  0  0  2  0  0  0  0  0  0
  161.1620  202.7290  145.9430 C   0  0  0  0  0  3  0  0  0  0  0  0
  160.9620  203.8070  145.1700 C   0  0  0  0  0  3  0  0  0  0  0  0
  161.2090  205.1670  145.5620 N   0  0  0  0  0  0  0  0  0  0  0  0
  162.2230  205.4030  146.5840 C   0  0  0  0  0  1  0  0  0  0  0  0
  160.2870  206.2530  145.2720 C   0  0  0  0  0  1  0  0  0  0  0  0
  1  3  2  0  0  0  0
  2  9  2  0  0  0  0
  3 32  1  0  0  0  0
  3 10  1  0  0  0  0
  4 11  1  6  0  0  0
  4  8  1  0  0  0  0
  5 30  1  6  0  0  0
  5  7  1  0  0  0  0
  6  5  1  0  0  0  0
  6  4  1  0  0  0  0
  8  7  1  6  0  0  0
  8  1  1  0  0  0  0
  8  2  1  0  0  0  0
  9 10  1  0  0  0  0
 11 12  2  6  0  0  0
 11 13  1  0  0  0  0
 14 11  1  0  0  0  0
 15 16  2  0  0  0  0
 15 14  1  0  0  0  0
 17 15  2  0  0  0  0
 18 20  1  0  0  0  0
 18 15  1  0  0  0  0
 19 28  1  1  0  0  0
 19 25  1  0  0  0  0
 19 26  1  0  0  0  0
 21 20  2  0  0  0  0
 22 24  1  0  0  0  0
 23 24  2  0  0  0  0
 23 21  1  0  0  0  0
 24 18  1  0  0  0  0
 25 22  1  0  0  0  0
 26 23  1  0  0  0  0
 27 28  1  0  0  0  0
 29 28  2  0  0  0  0
 31 30  2  0  0  0  0
 33 45  1  6  0  0  0
 33 42  1  0  0  0  0
 33 41  1  0  0  0  0
 35 32  1  6  0  0  0
 35 44  1  0  0  0  0
 36 34  1  0  0  0  0
 37 40  1  0  0  0  0
 38 36  1  1  0  0  0
 38 35  1  0  0  0  0
 38 41  1  0  0  0  0
 39 40  1  0  0  0  0
 41 37  1  1  0  0  0
 42 34  1  6  0  0  0
 42 41  1  0  0  0  0
 43 44  2  0  0  0  0
 44 39  1  0  0  0  0
 46 45  1  0  0  0  0
 47 46  1  0  0  0  0
 48 47  1  0  0  0  0
 48 49  2  0  0  0  0
 50 48  1  0  0  0  0
 51 50  1  0  0  0  0
 52 51  1  0  0  0  0
 53 54  1  0  0  0  0
 53 52  2  0  0  0  0
 54 55  1  0  0  0  0
 56 54  1  0  0  0  0
M  END
>  <MODEL>
4

>  <REMARK>
 VINA RESULT:      -1.4      4.544      7.747
  Name = 
  16 active torsions:
  status: ('A' for Active; 'I' for Inactive)
    1  A    between atoms: C_1  and  C_25
    2  A    between atoms: S_2  and  N_3
    3  A    between atoms: S_2  and  N_6
    4  A    between atoms: C_4  and  C_41
    5  A    between atoms: N_6  and  P_10
    6  A    between atoms: C_7  and  O_56
    7  A    between atoms: C_9  and  C_25
    8  A    between atoms: C_9  and  O_31
    9  A    between atoms: P_10  and  C_18
   10  A    between atoms: N_12  and  C_16
   11  A    between atoms: C_15  and  C_54
   12  A    between atoms: C_17  and  O_56
   13  A    between atoms: C_21  and  C_23
   14  A    between atoms: C_29  and  O_31
   15  A    between atoms: C_29  and  O_37
   16  A    between atoms: O_37  and  C_54
                            x       y       z     vdW  Elec       q    Type
                         _______ _______ _______ _____ _____    ______ ____

>  <TORSDO>
F 16

$$$$
