=
 OpenBabel11072412523D

 41 44  0  0  1  0  0  0  0  0999 V2000
  159.0720  211.1990  154.7800 C   0  0  1  0  0  3  0  0  0  0  0  0
  160.5040  210.0060  153.1080 C   0  0  1  0  0  3  0  0  0  0  0  0
  161.1890  206.3100  148.4930 O   0  0  0  0  0  0  0  0  0  0  0  0
  160.5890  208.8690  155.3190 C   0  0  0  0  0  2  0  0  0  0  0  0
  161.8680  204.5180  151.4800 C   0  0  0  0  0  2  0  0  0  0  0  0
  160.8500  206.2860  152.8360 C   0  0  0  0  0  3  0  0  0  0  0  0
  161.3830  208.1830  150.7630 C   0  0  0  0  0  2  0  0  0  0  0  0
  161.2700  209.8970  154.4130 C   0  0  2  0  0  3  0  0  0  0  0  0
  161.0170  206.8780  153.9850 C   0  0  0  0  0  0  0  0  0  0  0  0
  161.4890  205.9390  149.6600 C   0  0  0  0  0  0  0  0  0  0  0  0
  162.0850  206.8290  150.6780 C   0  0  2  0  0  3  0  0  0  0  0  0
  161.1730  207.5070  155.1190 C   0  0  0  0  0  3  0  0  0  0  0  0
  162.0270  205.9670  151.9630 C   0  0  2  0  0  3  0  0  0  0  0  0
  160.4420  211.1480  154.1020 C   0  0  2  0  0  3  0  0  0  0  0  0
  161.4520  210.3730  151.9780 C   0  0  0  0  0  2  0  0  0  0  0  0
  161.3600  204.6010  150.1190 N   0  0  0  0  0  0  0  0  0  0  0  0
  162.2570  209.1610  151.5320 C   0  0  0  0  0  2  0  0  0  0  0  0
  159.7010  202.6860  149.9150 C   0  0  0  0  0  1  0  0  0  0  0  0
  161.3760  203.1090  148.2220 C   0  0  0  0  0  2  0  0  0  0  0  0
  160.8520  203.4710  149.3860 C   0  0  0  0  0  0  0  0  0  0  0  0
  157.0150  211.4220  156.7630 O   0  0  0  0  0  0  0  0  0  0  0  0
  158.1030  212.0200  156.9700 C   0  0  0  0  0  3  0  0  0  0  0  0
  159.1790  211.9320  156.0340 N   0  0  0  0  0  2  0  0  0  0  0  0
  158.0490  211.8400  153.8850 C   0  0  0  0  0  0  0  0  0  0  0  0
  157.1450  211.1580  153.4310 O   0  0  0  0  0  0  0  0  0  0  0  0
  158.1360  213.2910  153.5170 C   0  0  0  0  0  2  0  0  0  0  0  0
  159.8590  213.7030  150.1580 C   0  0  0  0  0  0  0  0  0  0  0  0
  157.2540  213.5540  151.1870 C   0  0  0  0  0  3  0  0  0  0  0  0
  159.6500  213.5290  151.5340 C   0  0  0  0  0  3  0  0  0  0  0  0
  158.7540  213.8030  149.3050 C   0  0  0  0  0  3  0  0  0  0  0  0
  158.3530  213.4570  152.0500 C   0  0  0  0  0  0  0  0  0  0  0  0
  157.4550  213.7270  149.8160 C   0  0  0  0  0  3  0  0  0  0  0  0
  161.1460  213.7760  149.6130 O   0  0  0  0  0  0  0  0  0  0  0  0
  161.5260  213.2510  148.0170 P   0  0  1  0  0  0  0  0  0  0  0  0
  163.0280  213.2140  147.8510 O   0  0  0  0  0  1  0  0  0  0  0  0
  160.8960  211.7020  147.7720 O   0  0  0  0  0  0  0  0  0  0  0  0
  160.8090  214.4160  146.8180 C   0  0  0  0  0  2  0  0  0  0  0  0
  158.2760  214.4520  145.4580 O   0  0  0  0  0  1  0  0  0  0  0  0
  159.7000  213.5600  145.6600 P   0  0  0  0  0  0  0  0  0  0  0  0
  160.4770  213.4090  144.1660 O   0  0  0  0  0  0  0  0  0  0  0  0
  159.3640  212.1860  146.1860 O   0  0  0  0  0  1  0  0  0  0  0  0
  1 24  1  6  0  0  0
  1 23  1  0  0  0  0
  2 15  1  6  0  0  0
  2 14  1  0  0  0  0
  2  8  1  0  0  0  0
  3 10  2  0  0  0  0
  6  9  2  0  0  0  0
  7 17  1  0  0  0  0
  8  4  1  1  0  0  0
  9 12  2  0  0  0  0
 10 16  1  0  0  0  0
 10 11  1  0  0  0  0
 11  7  1  1  0  0  0
 11 13  1  0  0  0  0
 12  4  1  0  0  0  0
 13  5  1  6  0  0  0
 13  6  1  0  0  0  0
 14  8  1  0  0  0  0
 14  1  1  1  0  0  0
 16  5  1  0  0  0  0
 17 15  1  0  0  0  0
 19 20  2  0  0  0  0
 20 18  1  0  0  0  0
 20 16  1  0  0  0  0
 21 22  2  0  0  0  0
 23 22  1  0  0  0  0
 25 24  2  0  0  0  0
 26 24  1  0  0  0  0
 27 29  1  0  0  0  0
 28 31  1  0  0  0  0
 29 31  2  0  0  0  0
 30 32  1  0  0  0  0
 30 27  2  0  0  0  0
 31 26  1  0  0  0  0
 32 28  2  0  0  0  0
 33 27  1  0  0  0  0
 34 36  2  6  0  0  0
 34 33  1  0  0  0  0
 35 34  1  0  0  0  0
 37 34  1  0  0  0  0
 38 39  1  0  0  0  0
 39 41  1  0  0  0  0
 39 37  1  0  0  0  0
 40 39  2  0  0  0  0
M  END
>  <MODEL>
1

>  <REMARK>
 VINA RESULT:      -7.0      0.000      0.000
  Name = 
  10 active torsions:
  status: ('A' for Active; 'I' for Inactive)
    1  A    between atoms: P_1  and  C_37
    2  A    between atoms: P_1  and  O_40
    3  A    between atoms: C_7  and  O_40
    4  A    between atoms: C_11  and  C_24
    5  A    between atoms: C_11  and  C_39
    6  A    between atoms: C_19  and  N_32
    7  A    between atoms: C_24  and  C_29
    8  A    between atoms: C_28  and  C_39
    9  A    between atoms: P_30  and  C_37
   10  A    between atoms: N_36  and  C_39
                            x       y       z     vdW  Elec       q    Type
                         _______ _______ _______ _____ _____    ______ ____

>  <TORSDO>
F 10

$$$$
=
 OpenBabel11072412523D

 41 44  0  0  1  0  0  0  0  0999 V2000
  161.5180  207.5650  150.5940 C   0  0  1  0  0  3  0  0  0  0  0  0
  160.8080  208.8530  152.6190 C   0  0  1  0  0  3  0  0  0  0  0  0
  156.6150  211.2830  156.0740 O   0  0  0  0  0  0  0  0  0  0  0  0
  161.6500  210.3830  150.8470 C   0  0  0  0  0  2  0  0  0  0  0  0
  157.9790  213.8230  154.0060 C   0  0  0  0  0  2  0  0  0  0  0  0
  159.0350  212.1530  152.5590 C   0  0  0  0  0  3  0  0  0  0  0  0
  159.0350  210.2800  154.7210 C   0  0  0  0  0  2  0  0  0  0  0  0
  162.0280  209.5940  152.1040 C   0  0  2  0  0  3  0  0  0  0  0  0
  160.1300  211.9840  151.8720 C   0  0  0  0  0  0  0  0  0  0  0  0
  157.3300  212.0070  155.3320 C   0  0  0  0  0  0  0  0  0  0  0  0
  158.7580  211.7450  155.0560 C   0  0  2  0  0  3  0  0  0  0  0  0
  161.2260  211.7740  151.1930 C   0  0  0  0  0  3  0  0  0  0  0  0
  159.0820  212.7580  153.9310 C   0  0  2  0  0  3  0  0  0  0  0  0
  161.9350  208.0700  151.9760 C   0  0  2  0  0  3  0  0  0  0  0  0
  160.8920  208.7050  154.1300 C   0  0  0  0  0  2  0  0  0  0  0  0
  156.8740  213.2080  154.7260 N   0  0  0  0  0  0  0  0  0  0  0  0
  160.5280  210.0100  154.8230 C   0  0  0  0  0  2  0  0  0  0  0  0
  155.0050  214.2130  156.1250 C   0  0  0  0  0  1  0  0  0  0  0  0
  154.8090  213.9610  153.7280 C   0  0  0  0  0  2  0  0  0  0  0  0
  155.5570  213.7830  154.8100 C   0  0  0  0  0  0  0  0  0  0  0  0
  161.6380  208.1290  147.7860 O   0  0  0  0  0  0  0  0  0  0  0  0
  162.6810  207.7070  148.3500 C   0  0  0  0  0  3  0  0  0  0  0  0
  162.6980  207.4290  149.7500 N   0  0  0  0  0  2  0  0  0  0  0  0
  160.7930  206.2520  150.6940 C   0  0  0  0  0  0  0  0  0  0  0  0
  159.8250  206.0500  149.9800 O   0  0  0  0  0  0  0  0  0  0  0  0
  161.2200  205.2000  151.6750 C   0  0  0  0  0  2  0  0  0  0  0  0
  160.4650  202.3940  149.2310 C   0  0  0  0  0  0  0  0  0  0  0  0
  161.5600  202.7210  151.7920 C   0  0  0  0  0  3  0  0  0  0  0  0
  160.5770  203.6730  149.7950 C   0  0  0  0  0  3  0  0  0  0  0  0
  160.9040  201.2820  149.9600 C   0  0  0  0  0  3  0  0  0  0  0  0
  161.1210  203.8390  151.0720 C   0  0  0  0  0  0  0  0  0  0  0  0
  161.4520  201.4450  151.2370 C   0  0  0  0  0  3  0  0  0  0  0  0
  159.9280  202.1970  147.9530 O   0  0  0  0  0  0  0  0  0  0  0  0
  160.8830  201.7840  146.5810 P   0  0  1  0  0  0  0  0  0  0  0  0
  161.5270  200.4360  146.8130 O   0  0  0  0  0  1  0  0  0  0  0  0
  159.8930  201.7050  145.2130 O   0  0  0  0  0  0  0  0  0  0  0  0
  162.1740  203.0440  146.3490 C   0  0  0  0  0  2  0  0  0  0  0  0
  162.6970  205.6890  145.3500 O   0  0  0  0  0  1  0  0  0  0  0  0
  161.4600  204.6080  145.7580 P   0  0  0  0  0  0  0  0  0  0  0  0
  160.5180  204.2990  144.3890 O   0  0  0  0  0  0  0  0  0  0  0  0
  160.5920  205.2180  146.8320 O   0  0  0  0  0  1  0  0  0  0  0  0
  1 23  1  6  0  0  0
  1 24  1  0  0  0  0
  2 15  1  1  0  0  0
  4 12  1  0  0  0  0
  5 16  1  0  0  0  0
  7 17  1  0  0  0  0
  8  4  1  6  0  0  0
  8  2  1  0  0  0  0
  9  6  2  0  0  0  0
 10  3  2  0  0  0  0
 11  7  1  6  0  0  0
 11 10  1  0  0  0  0
 12  9  2  0  0  0  0
 13  6  1  6  0  0  0
 13  5  1  0  0  0  0
 13 11  1  0  0  0  0
 14  1  1  6  0  0  0
 14  8  1  0  0  0  0
 14  2  1  0  0  0  0
 15 17  1  0  0  0  0
 16 20  1  0  0  0  0
 16 10  1  0  0  0  0
 19 20  2  0  0  0  0
 20 18  1  0  0  0  0
 21 22  2  0  0  0  0
 22 23  1  0  0  0  0
 24 26  1  0  0  0  0
 25 24  2  0  0  0  0
 27 29  2  0  0  0  0
 27 30  1  0  0  0  0
 29 31  1  0  0  0  0
 30 32  2  0  0  0  0
 31 26  1  0  0  0  0
 31 28  2  0  0  0  0
 32 28  1  0  0  0  0
 33 27  1  0  0  0  0
 34 36  2  6  0  0  0
 34 35  1  0  0  0  0
 34 33  1  0  0  0  0
 37 34  1  0  0  0  0
 38 39  1  0  0  0  0
 39 37  1  0  0  0  0
 39 41  1  0  0  0  0
 40 39  2  0  0  0  0
M  END
>  <MODEL>
2

>  <REMARK>
 VINA RESULT:      -7.0      3.468      9.331
  Name = 
  10 active torsions:
  status: ('A' for Active; 'I' for Inactive)
    1  A    between atoms: P_1  and  C_37
    2  A    between atoms: P_1  and  O_40
    3  A    between atoms: C_7  and  O_40
    4  A    between atoms: C_11  and  C_24
    5  A    between atoms: C_11  and  C_39
    6  A    between atoms: C_19  and  N_32
    7  A    between atoms: C_24  and  C_29
    8  A    between atoms: C_28  and  C_39
    9  A    between atoms: P_30  and  C_37
   10  A    between atoms: N_36  and  C_39
                            x       y       z     vdW  Elec       q    Type
                         _______ _______ _______ _____ _____    ______ ____

>  <TORSDO>
F 10

$$$$
=
 OpenBabel11072412523D

 41 44  0  0  1  0  0  0  0  0999 V2000
  159.4460  211.0140  153.7350 C   0  0  1  0  0  3  0  0  0  0  0  0
  160.7100  209.5070  152.1860 C   0  0  1  0  0  3  0  0  0  0  0  0
  160.9250  205.1480  148.1390 O   0  0  0  0  0  0  0  0  0  0  0  0
  160.8670  208.6970  154.5330 C   0  0  0  0  0  2  0  0  0  0  0  0
  161.6840  203.7680  151.3180 C   0  0  0  0  0  2  0  0  0  0  0  0
  160.8430  205.7720  152.4490 C   0  0  0  0  0  3  0  0  0  0  0  0
  161.3510  207.3140  150.0940 C   0  0  0  0  0  2  0  0  0  0  0  0
  161.5460  209.5410  153.4520 C   0  0  2  0  0  3  0  0  0  0  0  0
  161.1100  206.5130  153.4880 C   0  0  0  0  0  0  0  0  0  0  0  0
  161.2730  204.9320  149.3300 C   0  0  0  0  0  0  0  0  0  0  0  0
  161.9750  205.9210  150.1740 C   0  0  2  0  0  3  0  0  0  0  0  0
  161.3650  207.2880  154.5070 C   0  0  0  0  0  3  0  0  0  0  0  0
  161.9480  205.2600  151.5740 C   0  0  2  0  0  3  0  0  0  0  0  0
  160.7680  210.7820  153.0030 C   0  0  2  0  0  3  0  0  0  0  0  0
  161.6090  209.6480  150.9680 C   0  0  0  0  0  2  0  0  0  0  0  0
  161.1010  203.6850  149.9880 N   0  0  0  0  0  0  0  0  0  0  0  0
  162.3200  208.3380  150.6650 C   0  0  0  0  0  2  0  0  0  0  0  0
  159.6920  201.5990  150.3390 C   0  0  0  0  0  1  0  0  0  0  0  0
  160.6080  202.1690  148.1750 C   0  0  0  0  0  2  0  0  0  0  0  0
  160.4910  202.4940  149.4560 C   0  0  0  0  0  0  0  0  0  0  0  0
  158.0970  210.2070  156.1310 O   0  0  0  0  0  0  0  0  0  0  0  0
  158.9870  211.0920  156.2230 C   0  0  0  0  0  3  0  0  0  0  0  0
  159.7150  211.5240  155.0720 N   0  0  0  0  0  2  0  0  0  0  0  0
  158.5680  211.9700  152.9760 C   0  0  0  0  0  0  0  0  0  0  0  0
  157.4320  211.6330  152.6870 O   0  0  0  0  0  0  0  0  0  0  0  0
  159.0720  213.3150  152.5460 C   0  0  0  0  0  2  0  0  0  0  0  0
  159.0270  214.2130  148.8560 C   0  0  0  0  0  0  0  0  0  0  0  0
  157.2040  213.7710  150.9410 C   0  0  0  0  0  3  0  0  0  0  0  0
  159.4850  213.8740  150.1380 C   0  0  0  0  0  3  0  0  0  0  0  0
  157.6500  214.3290  148.6300 C   0  0  0  0  0  3  0  0  0  0  0  0
  158.5790  213.6560  151.1800 C   0  0  0  0  0  0  0  0  0  0  0  0
  156.7400  214.1080  149.6680 C   0  0  0  0  0  3  0  0  0  0  0  0
  159.9110  214.4340  147.7940 O   0  0  0  0  0  0  0  0  0  0  0  0
  159.9720  213.4340  146.3930 P   0  0  1  0  0  0  0  0  0  0  0  0
  158.9150  212.3590  146.5040 O   0  0  0  0  0  1  0  0  0  0  0  0
  159.6740  214.3750  145.0200 O   0  0  0  0  0  0  0  0  0  0  0  0
  161.6150  212.6630  146.2800 C   0  0  0  0  0  2  0  0  0  0  0  0
  162.4390  214.4530  148.3730 O   0  0  0  0  0  1  0  0  0  0  0  0
  162.5340  212.8520  147.8370 P   0  0  0  0  0  0  0  0  0  0  0  0
  161.8530  211.8340  149.0020 O   0  0  0  0  0  1  0  0  0  0  0  0
  163.9810  212.4730  147.6310 O   0  0  0  0  0  0  0  0  0  0  0  0
  1 24  1  6  0  0  0
  1 23  1  0  0  0  0
  2 15  1  6  0  0  0
  2 14  1  0  0  0  0
  2  8  1  0  0  0  0
  3 10  2  0  0  0  0
  6  9  2  0  0  0  0
  7 17  1  0  0  0  0
  8  4  1  1  0  0  0
  9 12  2  0  0  0  0
 10 16  1  0  0  0  0
 10 11  1  0  0  0  0
 11  7  1  1  0  0  0
 11 13  1  0  0  0  0
 12  4  1  0  0  0  0
 13  5  1  6  0  0  0
 13  6  1  0  0  0  0
 14  8  1  0  0  0  0
 14  1  1  1  0  0  0
 16  5  1  0  0  0  0
 17 15  1  0  0  0  0
 19 20  2  0  0  0  0
 20 16  1  0  0  0  0
 20 18  1  0  0  0  0
 21 22  2  0  0  0  0
 23 22  1  0  0  0  0
 25 24  2  0  0  0  0
 26 24  1  0  0  0  0
 27 29  1  0  0  0  0
 28 31  1  0  0  0  0
 29 31  2  0  0  0  0
 30 27  2  0  0  0  0
 30 32  1  0  0  0  0
 31 26  1  0  0  0  0
 32 28  2  0  0  0  0
 33 27  1  0  0  0  0
 34 36  2  6  0  0  0
 34 35  1  0  0  0  0
 34 33  1  0  0  0  0
 37 34  1  0  0  0  0
 37 39  1  0  0  0  0
 39 38  1  0  0  0  0
 39 40  1  0  0  0  0
 41 39  2  0  0  0  0
M  END
>  <MODEL>
3

>  <REMARK>
 VINA RESULT:      -6.5      1.117      2.097
  Name = 
  10 active torsions:
  status: ('A' for Active; 'I' for Inactive)
    1  A    between atoms: P_1  and  C_37
    2  A    between atoms: P_1  and  O_40
    3  A    between atoms: C_7  and  O_40
    4  A    between atoms: C_11  and  C_24
    5  A    between atoms: C_11  and  C_39
    6  A    between atoms: C_19  and  N_32
    7  A    between atoms: C_24  and  C_29
    8  A    between atoms: C_28  and  C_39
    9  A    between atoms: P_30  and  C_37
   10  A    between atoms: N_36  and  C_39
                            x       y       z     vdW  Elec       q    Type
                         _______ _______ _______ _____ _____    ______ ____

>  <TORSDO>
F 10

$$$$
=
 OpenBabel11072412523D

 41 44  0  0  1  0  0  0  0  0999 V2000
  158.8270  212.5790  153.0380 C   0  0  1  0  0  3  0  0  0  0  0  0
  160.3910  210.9440  151.9680 C   0  0  1  0  0  3  0  0  0  0  0  0
  161.4540  205.9830  148.8550 O   0  0  0  0  0  0  0  0  0  0  0  0
  160.2670  210.5730  154.4250 C   0  0  0  0  0  2  0  0  0  0  0  0
  161.8430  205.2510  152.3050 C   0  0  0  0  0  2  0  0  0  0  0  0
  160.7250  207.3380  152.9300 C   0  0  0  0  0  3  0  0  0  0  0  0
  161.4600  208.4850  150.4150 C   0  0  0  0  0  2  0  0  0  0  0  0
  161.0360  211.2720  153.3020 C   0  0  2  0  0  3  0  0  0  0  0  0
  160.7940  208.2700  153.8400 C   0  0  0  0  0  0  0  0  0  0  0  0
  161.6440  206.0090  150.1010 C   0  0  0  0  0  0  0  0  0  0  0  0
  162.1540  207.1890  150.8300 C   0  0  2  0  0  3  0  0  0  0  0  0
  160.8520  209.2300  154.7230 C   0  0  0  0  0  3  0  0  0  0  0  0
  161.9720  206.7810  152.3130 C   0  0  2  0  0  3  0  0  0  0  0  0
  160.2510  212.3420  152.5350 C   0  0  2  0  0  3  0  0  0  0  0  0
  161.4410  210.9500  150.8680 C   0  0  0  0  0  2  0  0  0  0  0  0
  161.4610  204.8860  150.9500 N   0  0  0  0  0  0  0  0  0  0  0  0
  162.2710  209.6750  150.9060 C   0  0  0  0  0  2  0  0  0  0  0  0
  160.7260  203.2520  149.1470 C   0  0  0  0  0  1  0  0  0  0  0  0
  160.8500  202.6100  151.4750 C   0  0  0  0  0  2  0  0  0  0  0  0
  161.0090  203.5710  150.5740 C   0  0  0  0  0  0  0  0  0  0  0  0
  156.9850  212.4440  155.2300 O   0  0  0  0  0  0  0  0  0  0  0  0
  157.9000  213.3070  155.2790 C   0  0  0  0  0  3  0  0  0  0  0  0
  158.8660  213.4130  154.2320 N   0  0  0  0  0  2  0  0  0  0  0  0
  157.9790  213.2240  151.9770 C   0  0  0  0  0  0  0  0  0  0  0  0
  156.8180  212.8740  151.8480 O   0  0  0  0  0  0  0  0  0  0  0  0
  158.5430  214.2660  151.0570 C   0  0  0  0  0  2  0  0  0  0  0  0
  158.6380  213.0850  147.4490 C   0  0  0  0  0  0  0  0  0  0  0  0
  156.9010  214.4530  149.1750 C   0  0  0  0  0  3  0  0  0  0  0  0
  159.0030  213.3190  148.7830 C   0  0  0  0  0  3  0  0  0  0  0  0
  157.3980  213.5430  146.9880 C   0  0  0  0  0  3  0  0  0  0  0  0
  158.1410  214.0030  149.6450 C   0  0  0  0  0  0  0  0  0  0  0  0
  156.5300  214.2240  147.8480 C   0  0  0  0  0  3  0  0  0  0  0  0
  159.4800  212.4020  146.5650 O   0  0  0  0  0  0  0  0  0  0  0  0
  160.2120  213.1450  145.1940 P   0  0  1  0  0  0  0  0  0  0  0  0
  159.3690  214.3220  144.7590 O   0  0  0  0  0  0  0  0  0  0  0  0
  161.7590  213.6850  145.6090 O   0  0  0  0  0  1  0  0  0  0  0  0
  160.3130  211.9340  143.8400 C   0  0  0  0  0  2  0  0  0  0  0  0
  161.5650  211.5760  141.2770 O   0  0  0  0  0  0  0  0  0  0  0  0
  160.8560  212.7250  142.2960 P   0  0  0  0  0  0  0  0  0  0  0  0
  159.5120  213.3990  141.5230 O   0  0  0  0  0  1  0  0  0  0  0  0
  161.8550  213.8160  142.5980 O   0  0  0  0  0  1  0  0  0  0  0  0
  1 24  1  6  0  0  0
  1 23  1  0  0  0  0
  2 15  1  6  0  0  0
  2 14  1  0  0  0  0
  2  8  1  0  0  0  0
  3 10  2  0  0  0  0
  4 12  1  0  0  0  0
  6  9  2  0  0  0  0
  7 17  1  0  0  0  0
  8  4  1  1  0  0  0
  9 12  2  0  0  0  0
 10 11  1  0  0  0  0
 10 16  1  0  0  0  0
 11  7  1  6  0  0  0
 11 13  1  0  0  0  0
 13  5  1  6  0  0  0
 13  6  1  0  0  0  0
 14  1  1  1  0  0  0
 14  8  1  0  0  0  0
 15 17  1  0  0  0  0
 16  5  1  0  0  0  0
 18 20  1  0  0  0  0
 20 16  1  0  0  0  0
 20 19  2  0  0  0  0
 21 22  2  0  0  0  0
 23 22  1  0  0  0  0
 25 24  2  0  0  0  0
 26 24  1  0  0  0  0
 27 29  1  0  0  0  0
 28 31  1  0  0  0  0
 29 31  2  0  0  0  0
 30 27  2  0  0  0  0
 30 32  1  0  0  0  0
 31 26  1  0  0  0  0
 32 28  2  0  0  0  0
 33 27  1  0  0  0  0
 34 35  2  6  0  0  0
 34 36  1  0  0  0  0
 34 33  1  0  0  0  0
 37 34  1  0  0  0  0
 38 39  2  0  0  0  0
 39 41  1  0  0  0  0
 39 37  1  0  0  0  0
 40 39  1  0  0  0  0
M  END
>  <MODEL>
4

>  <REMARK>
 VINA RESULT:      -6.3      1.709      2.563
  Name = 
  10 active torsions:
  status: ('A' for Active; 'I' for Inactive)
    1  A    between atoms: P_1  and  C_37
    2  A    between atoms: P_1  and  O_40
    3  A    between atoms: C_7  and  O_40
    4  A    between atoms: C_11  and  C_24
    5  A    between atoms: C_11  and  C_39
    6  A    between atoms: C_19  and  N_32
    7  A    between atoms: C_24  and  C_29
    8  A    between atoms: C_28  and  C_39
    9  A    between atoms: P_30  and  C_37
   10  A    between atoms: N_36  and  C_39
                            x       y       z     vdW  Elec       q    Type
                         _______ _______ _______ _____ _____    ______ ____

>  <TORSDO>
F 10

$$$$
=
 OpenBabel11072412523D

 41 44  0  0  1  0  0  0  0  0999 V2000
  160.5260  208.3340  152.5850 C   0  0  1  0  0  3  0  0  0  0  0  0
  161.4830  207.4910  150.4300 C   0  0  1  0  0  3  0  0  0  0  0  0
  160.8680  205.3690  144.9040 O   0  0  0  0  0  0  0  0  0  0  0  0
  161.5430  205.7220  152.1780 C   0  0  0  0  0  2  0  0  0  0  0  0
  161.4390  202.6400  147.1000 C   0  0  0  0  0  2  0  0  0  0  0  0
  160.9770  204.0450  149.0520 C   0  0  0  0  0  3  0  0  0  0  0  0
  161.6970  206.3700  147.5500 C   0  0  0  0  0  2  0  0  0  0  0  0
  162.3360  206.8450  151.5060 C   0  0  2  0  0  3  0  0  0  0  0  0
  161.3860  204.2070  150.2790 C   0  0  0  0  0  0  0  0  0  0  0  0
  161.1970  204.6040  145.8500 C   0  0  0  0  0  0  0  0  0  0  0  0
  162.0740  205.0080  146.9680 C   0  0  2  0  0  3  0  0  0  0  0  0
  161.7900  204.4110  151.5040 C   0  0  0  0  0  3  0  0  0  0  0  0
  161.9600  203.8120  147.9450 C   0  0  2  0  0  3  0  0  0  0  0  0
  161.7750  208.2560  151.7050 C   0  0  2  0  0  3  0  0  0  0  0  0
  162.3690  208.0200  149.3130 C   0  0  0  0  0  2  0  0  0  0  0  0
  160.8260  203.2350  145.9220 N   0  0  0  0  0  0  0  0  0  0  0  0
  162.8390  206.8860  148.4130 C   0  0  0  0  0  2  0  0  0  0  0  0
  159.0480  203.2160  144.1050 C   0  0  0  0  0  1  0  0  0  0  0  0
  160.1000  201.1810  144.8800 C   0  0  0  0  0  2  0  0  0  0  0  0
  160.0100  202.5010  144.9900 C   0  0  0  0  0  0  0  0  0  0  0  0
  161.9220  209.5110  154.7940 O   0  0  0  0  0  0  0  0  0  0  0  0
  161.5140  208.3260  154.9160 C   0  0  0  0  0  3  0  0  0  0  0  0
  160.7910  207.6870  153.8620 N   0  0  0  0  0  2  0  0  0  0  0  0
  160.1030  209.7610  152.7980 C   0  0  0  0  0  0  0  0  0  0  0  0
  159.1210  209.9950  153.4820 O   0  0  0  0  0  0  0  0  0  0  0  0
  160.8490  210.8970  152.1630 C   0  0  0  0  0  2  0  0  0  0  0  0
  158.4930  213.6580  153.2790 C   0  0  0  0  0  0  0  0  0  0  0  0
  159.9670  212.9350  151.0050 C   0  0  0  0  0  3  0  0  0  0  0  0
  159.2870  212.5020  153.2870 C   0  0  0  0  0  3  0  0  0  0  0  0
  158.4430  214.4460  152.1230 C   0  0  0  0  0  3  0  0  0  0  0  0
  160.0210  212.1380  152.1550 C   0  0  0  0  0  0  0  0  0  0  0  0
  159.1790  214.0880  150.9890 C   0  0  0  0  0  3  0  0  0  0  0  0
  157.7500  214.0490  154.3990 O   0  0  0  0  0  0  0  0  0  0  0  0
  158.0940  213.5050  155.9960 P   0  0  1  0  0  0  0  0  0  0  0  0
  159.5770  213.6380  156.2570 O   0  0  0  0  0  0  0  0  0  0  0  0
  157.2420  214.4530  157.1060 O   0  0  0  0  0  1  0  0  0  0  0  0
  157.6010  211.7610  156.1540 C   0  0  0  0  0  2  0  0  0  0  0  0
  155.2940  212.5090  154.6100 O   0  0  0  0  0  0  0  0  0  0  0  0
  155.8100  211.5640  155.9150 P   0  0  0  0  0  0  0  0  0  0  0  0
  155.4760  209.9390  155.5900 O   0  0  0  0  0  1  0  0  0  0  0  0
  155.0730  211.9840  157.1640 O   0  0  0  0  0  1  0  0  0  0  0  0
  1 24  1  1  0  0  0
  1 23  1  0  0  0  0
  2 15  1  6  0  0  0
  2  8  1  0  0  0  0
  2 14  1  0  0  0  0
  3 10  2  0  0  0  0
  6  9  2  0  0  0  0
  7 17  1  0  0  0  0
  8 14  1  0  0  0  0
  8  4  1  1  0  0  0
  9 12  2  0  0  0  0
 10 16  1  0  0  0  0
 10 11  1  0  0  0  0
 11  7  1  1  0  0  0
 11 13  1  0  0  0  0
 12  4  1  0  0  0  0
 13  5  1  6  0  0  0
 13  6  1  0  0  0  0
 14  1  1  1  0  0  0
 16  5  1  0  0  0  0
 17 15  1  0  0  0  0
 18 20  1  0  0  0  0
 19 20  2  0  0  0  0
 20 16  1  0  0  0  0
 21 22  2  0  0  0  0
 23 22  1  0  0  0  0
 24 25  2  0  0  0  0
 26 24  1  0  0  0  0
 27 29  1  0  0  0  0
 27 33  1  0  0  0  0
 28 31  1  0  0  0  0
 30 27  2  0  0  0  0
 31 26  1  0  0  0  0
 31 29  2  0  0  0  0
 32 28  2  0  0  0  0
 32 30  1  0  0  0  0
 33 34  1  0  0  0  0
 34 37  1  0  0  0  0
 34 35  2  1  0  0  0
 34 36  1  0  0  0  0
 38 39  2  0  0  0  0
 39 37  1  0  0  0  0
 39 41  1  0  0  0  0
 40 39  1  0  0  0  0
M  END
>  <MODEL>
5

>  <REMARK>
 VINA RESULT:      -5.6      3.969      5.975
  Name = 
  10 active torsions:
  status: ('A' for Active; 'I' for Inactive)
    1  A    between atoms: P_1  and  C_37
    2  A    between atoms: P_1  and  O_40
    3  A    between atoms: C_7  and  O_40
    4  A    between atoms: C_11  and  C_24
    5  A    between atoms: C_11  and  C_39
    6  A    between atoms: C_19  and  N_32
    7  A    between atoms: C_24  and  C_29
    8  A    between atoms: C_28  and  C_39
    9  A    between atoms: P_30  and  C_37
   10  A    between atoms: N_36  and  C_39
                            x       y       z     vdW  Elec       q    Type
                         _______ _______ _______ _____ _____    ______ ____

>  <TORSDO>
F 10

$$$$
=
 OpenBabel11072412523D

 41 44  0  0  1  0  0  0  0  0999 V2000
  159.1140  213.1550  150.9010 C   0  0  1  0  0  3  0  0  0  0  0  0
  160.6230  211.2800  150.2090 C   0  0  1  0  0  3  0  0  0  0  0  0
  161.5190  205.7580  148.1790 O   0  0  0  0  0  0  0  0  0  0  0  0
  160.4610  211.4180  152.6870 C   0  0  0  0  0  2  0  0  0  0  0  0
  161.8480  205.7240  151.7120 C   0  0  0  0  0  2  0  0  0  0  0  0
  160.8060  207.9340  151.8840 C   0  0  0  0  0  3  0  0  0  0  0  0
  161.6090  208.5220  149.2020 C   0  0  0  0  0  2  0  0  0  0  0  0
  161.2680  211.8480  151.4600 C   0  0  2  0  0  3  0  0  0  0  0  0
  160.9030  209.0270  152.5880 C   0  0  0  0  0  0  0  0  0  0  0  0
  161.6980  206.0280  149.3960 C   0  0  0  0  0  0  0  0  0  0  0  0
  162.2480  207.3110  149.8810 C   0  0  2  0  0  3  0  0  0  0  0  0
  160.9910  210.1430  153.2600 C   0  0  0  0  0  3  0  0  0  0  0  0
  162.0370  207.2190  151.4120 C   0  0  2  0  0  3  0  0  0  0  0  0
  160.5330  212.7690  150.4800 C   0  0  2  0  0  3  0  0  0  0  0  0
  161.6820  211.0260  149.1490 C   0  0  0  0  0  2  0  0  0  0  0  0
  161.4630  205.1070  150.4510 N   0  0  0  0  0  0  0  0  0  0  0  0
  162.4610  209.7550  149.4560 C   0  0  0  0  0  2  0  0  0  0  0  0
  160.8260  203.1170  149.0050 C   0  0  0  0  0  1  0  0  0  0  0  0
  160.6320  203.0560  151.4140 C   0  0  0  0  0  2  0  0  0  0  0  0
  160.9650  203.7610  150.3410 C   0  0  0  0  0  0  0  0  0  0  0  0
  157.1600  213.5610  152.9580 O   0  0  0  0  0  0  0  0  0  0  0  0
  158.1530  214.3340  152.9250 C   0  0  0  0  0  3  0  0  0  0  0  0
  159.1760  214.1730  151.9410 N   0  0  0  0  0  2  0  0  0  0  0  0
  158.3190  213.6530  149.7260 C   0  0  0  0  0  0  0  0  0  0  0  0
  157.1320  213.3810  149.6520 O   0  0  0  0  0  0  0  0  0  0  0  0
  158.9640  214.4530  148.6340 C   0  0  0  0  0  2  0  0  0  0  0  0
  160.1270  212.8210  145.4080 C   0  0  0  0  0  0  0  0  0  0  0  0
  157.7470  213.1900  146.8450 C   0  0  0  0  0  3  0  0  0  0  0  0
  160.1360  213.5120  146.6280 C   0  0  0  0  0  3  0  0  0  0  0  0
  158.9170  212.3190  144.9140 C   0  0  0  0  0  3  0  0  0  0  0  0
  158.9510  213.7000  147.3450 C   0  0  0  0  0  0  0  0  0  0  0  0
  157.7300  212.5010  145.6300 C   0  0  0  0  0  3  0  0  0  0  0  0
  161.2990  212.6160  144.6700 O   0  0  0  0  0  0  0  0  0  0  0  0
  161.4520  213.0370  143.0070 P   0  0  1  0  0  0  0  0  0  0  0  0
  160.5550  214.2170  142.7090 O   0  0  0  0  0  1  0  0  0  0  0  0
  163.0570  213.4550  142.6810 O   0  0  0  0  0  0  0  0  0  0  0  0
  160.9540  211.6190  141.9830 C   0  0  0  0  0  2  0  0  0  0  0  0
  160.6940  213.3270  139.6840 O   0  0  0  0  0  1  0  0  0  0  0  0
  159.8980  212.1500  140.6020 P   0  0  0  0  0  0  0  0  0  0  0  0
  159.5650  210.8130  139.6210 O   0  0  0  0  0  0  0  0  0  0  0  0
  158.6010  212.7140  141.1310 O   0  0  0  0  0  1  0  0  0  0  0  0
  1 24  1  6  0  0  0
  1 23  1  0  0  0  0
  2 15  1  6  0  0  0
  2 14  1  0  0  0  0
  2  8  1  0  0  0  0
  3 10  2  0  0  0  0
  4 12  1  0  0  0  0
  6  9  2  0  0  0  0
  7 17  1  0  0  0  0
  8  4  1  1  0  0  0
  9 12  2  0  0  0  0
 10 11  1  0  0  0  0
 10 16  1  0  0  0  0
 11  7  1  6  0  0  0
 11 13  1  0  0  0  0
 13  5  1  6  0  0  0
 13  6  1  0  0  0  0
 14  1  1  1  0  0  0
 14  8  1  0  0  0  0
 15 17  1  0  0  0  0
 16  5  1  0  0  0  0
 18 20  1  0  0  0  0
 20 16  1  0  0  0  0
 20 19  2  0  0  0  0
 22 21  2  0  0  0  0
 23 22  1  0  0  0  0
 25 24  2  0  0  0  0
 26 24  1  0  0  0  0
 27 29  1  0  0  0  0
 28 31  1  0  0  0  0
 29 31  2  0  0  0  0
 30 27  2  0  0  0  0
 30 32  1  0  0  0  0
 31 26  1  0  0  0  0
 32 28  2  0  0  0  0
 33 27  1  0  0  0  0
 34 36  2  6  0  0  0
 34 33  1  0  0  0  0
 35 34  1  0  0  0  0
 37 34  1  0  0  0  0
 38 39  1  0  0  0  0
 39 41  1  0  0  0  0
 39 37  1  0  0  0  0
 40 39  2  0  0  0  0
M  END
>  <MODEL>
6

>  <REMARK>
 VINA RESULT:      -5.2      2.578      4.003
  Name = 
  10 active torsions:
  status: ('A' for Active; 'I' for Inactive)
    1  A    between atoms: P_1  and  C_37
    2  A    between atoms: P_1  and  O_40
    3  A    between atoms: C_7  and  O_40
    4  A    between atoms: C_11  and  C_24
    5  A    between atoms: C_11  and  C_39
    6  A    between atoms: C_19  and  N_32
    7  A    between atoms: C_24  and  C_29
    8  A    between atoms: C_28  and  C_39
    9  A    between atoms: P_30  and  C_37
   10  A    between atoms: N_36  and  C_39
                            x       y       z     vdW  Elec       q    Type
                         _______ _______ _______ _____ _____    ______ ____

>  <TORSDO>
F 10

$$$$
=
 OpenBabel11072412523D

 41 44  0  0  1  0  0  0  0  0999 V2000
  160.0940  209.3890  152.7270 C   0  0  1  0  0  3  0  0  0  0  0  0
  161.2730  208.4920  150.7080 C   0  0  1  0  0  3  0  0  0  0  0  0
  161.2430  206.1890  145.2200 O   0  0  0  0  0  0  0  0  0  0  0  0
  161.1730  206.7790  152.5100 C   0  0  0  0  0  2  0  0  0  0  0  0
  161.6150  203.5380  147.5500 C   0  0  0  0  0  2  0  0  0  0  0  0
  160.9430  204.9970  149.3990 C   0  0  0  0  0  3  0  0  0  0  0  0
  161.7890  207.2830  147.9030 C   0  0  0  0  0  2  0  0  0  0  0  0
  162.0190  207.8900  151.8850 C   0  0  2  0  0  3  0  0  0  0  0  0
  161.2250  205.2040  150.6550 C   0  0  0  0  0  0  0  0  0  0  0  0
  161.4810  205.4580  146.2190 C   0  0  0  0  0  0  0  0  0  0  0  0
  162.2370  205.9090  147.4060 C   0  0  2  0  0  3  0  0  0  0  0  0
  161.5010  205.4510  151.9070 C   0  0  0  0  0  3  0  0  0  0  0  0
  162.0360  204.7430  148.4040 C   0  0  2  0  0  3  0  0  0  0  0  0
  161.4260  209.3000  151.9810 C   0  0  2  0  0  3  0  0  0  0  0  0
  162.2620  208.9960  149.6700 C   0  0  0  0  0  2  0  0  0  0  0  0
  161.1180  204.0870  146.2980 N   0  0  0  0  0  0  0  0  0  0  0  0
  162.8320  207.8410  148.8590 C   0  0  0  0  0  2  0  0  0  0  0  0
  160.4070  201.8260  145.3810 C   0  0  0  0  0  1  0  0  0  0  0  0
  159.7290  203.8970  144.3330 C   0  0  0  0  0  2  0  0  0  0  0  0
  160.4090  203.3140  145.3120 C   0  0  0  0  0  0  0  0  0  0  0  0
  161.8460  209.9260  154.9300 O   0  0  0  0  0  0  0  0  0  0  0  0
  161.0880  208.9240  155.0080 C   0  0  0  0  0  3  0  0  0  0  0  0
  160.1740  208.6120  153.9560 N   0  0  0  0  0  2  0  0  0  0  0  0
  159.7400  210.8170  153.0310 C   0  0  0  0  0  0  0  0  0  0  0  0
  160.4570  211.4630  153.7770 O   0  0  0  0  0  0  0  0  0  0  0  0
  158.5070  211.4520  152.4590 C   0  0  0  0  0  2  0  0  0  0  0  0
  158.2610  213.7100  149.4160 C   0  0  0  0  0  0  0  0  0  0  0  0
  160.1400  213.0160  151.3790 C   0  0  0  0  0  3  0  0  0  0  0  0
  157.9270  212.7940  150.4230 C   0  0  0  0  0  3  0  0  0  0  0  0
  159.5430  214.2740  149.4000 C   0  0  0  0  0  3  0  0  0  0  0  0
  158.8620  212.4430  151.4010 C   0  0  0  0  0  0  0  0  0  0  0  0
  160.4800  213.9300  150.3800 C   0  0  0  0  0  3  0  0  0  0  0  0
  157.3450  214.0820  148.4250 O   0  0  0  0  0  0  0  0  0  0  0  0
  157.5340  213.6700  146.7630 P   0  0  1  0  0  0  0  0  0  0  0  0
  157.6150  212.1670  146.6300 O   0  0  0  0  0  1  0  0  0  0  0  0
  156.2030  214.2410  145.8900 O   0  0  0  0  0  0  0  0  0  0  0  0
  159.0650  214.4210  146.1310 C   0  0  0  0  0  2  0  0  0  0  0  0
  160.9310  212.2360  146.2460 O   0  0  0  0  0  1  0  0  0  0  0  0
  160.0440  213.2140  145.1880 P   0  0  0  0  0  0  0  0  0  0  0  0
  158.9940  212.2440  144.2840 O   0  0  0  0  0  1  0  0  0  0  0  0
  160.9870  213.9310  144.2530 O   0  0  0  0  0  0  0  0  0  0  0  0
  1 24  1  1  0  0  0
  1 23  1  0  0  0  0
  2 15  1  6  0  0  0
  2  8  1  0  0  0  0
  2 14  1  0  0  0  0
  3 10  2  0  0  0  0
  6  9  2  0  0  0  0
  7 17  1  0  0  0  0
  8 14  1  0  0  0  0
  8  4  1  1  0  0  0
  9 12  2  0  0  0  0
 10 16  1  0  0  0  0
 10 11  1  0  0  0  0
 11  7  1  1  0  0  0
 11 13  1  0  0  0  0
 12  4  1  0  0  0  0
 13  5  1  6  0  0  0
 13  6  1  0  0  0  0
 14  1  1  1  0  0  0
 16  5  1  0  0  0  0
 17 15  1  0  0  0  0
 19 20  2  0  0  0  0
 20 18  1  0  0  0  0
 20 16  1  0  0  0  0
 21 22  2  0  0  0  0
 23 22  1  0  0  0  0
 24 25  2  0  0  0  0
 26 24  1  0  0  0  0
 27 29  1  0  0  0  0
 28 31  1  0  0  0  0
 29 31  2  0  0  0  0
 30 27  2  0  0  0  0
 30 32  1  0  0  0  0
 31 26  1  0  0  0  0
 32 28  2  0  0  0  0
 33 27  1  0  0  0  0
 34 36  2  6  0  0  0
 34 33  1  0  0  0  0
 35 34  1  0  0  0  0
 37 34  1  0  0  0  0
 39 37  1  0  0  0  0
 39 38  1  0  0  0  0
 40 39  1  0  0  0  0
 41 39  2  0  0  0  0
M  END
>  <MODEL>
7

>  <REMARK>
 VINA RESULT:      -4.3      2.207      3.488
  Name = 
  10 active torsions:
  status: ('A' for Active; 'I' for Inactive)
    1  A    between atoms: P_1  and  C_37
    2  A    between atoms: P_1  and  O_40
    3  A    between atoms: C_7  and  O_40
    4  A    between atoms: C_11  and  C_24
    5  A    between atoms: C_11  and  C_39
    6  A    between atoms: C_19  and  N_32
    7  A    between atoms: C_24  and  C_29
    8  A    between atoms: C_28  and  C_39
    9  A    between atoms: P_30  and  C_37
   10  A    between atoms: N_36  and  C_39
                            x       y       z     vdW  Elec       q    Type
                         _______ _______ _______ _____ _____    ______ ____

>  <TORSDO>
F 10

$$$$
=
 OpenBabel11072412523D

 41 44  0  0  1  0  0  0  0  0999 V2000
  161.2060  208.0790  154.1150 C   0  0  1  0  0  3  0  0  0  0  0  0
  160.3340  210.2590  153.2480 C   0  0  1  0  0  3  0  0  0  0  0  0
  156.9990  213.4370  149.4790 O   0  0  0  0  0  0  0  0  0  0  0  0
  162.6440  209.8400  152.4260 C   0  0  0  0  0  2  0  0  0  0  0  0
  160.3460  213.4420  148.2980 C   0  0  0  0  0  2  0  0  0  0  0  0
  160.9360  211.6010  149.8020 C   0  0  0  0  0  3  0  0  0  0  0  0
  158.7920  212.3380  151.5460 C   0  0  0  0  0  2  0  0  0  0  0  0
  161.8060  210.5150  153.5140 C   0  0  2  0  0  3  0  0  0  0  0  0
  161.9370  211.1970  150.5330 C   0  0  0  0  0  0  0  0  0  0  0  0
  158.2510  213.3880  149.3390 C   0  0  0  0  0  0  0  0  0  0  0  0
  159.2030  213.3410  150.4690 C   0  0  2  0  0  3  0  0  0  0  0  0
  162.9130  210.7780  151.2940 C   0  0  0  0  0  3  0  0  0  0  0  0
  160.5530  213.0500  149.7690 C   0  0  2  0  0  3  0  0  0  0  0  0
  161.0090  209.5650  154.4140 C   0  0  2  0  0  3  0  0  0  0  0  0
  159.5030  211.4220  153.7670 C   0  0  0  0  0  2  0  0  0  0  0  0
  158.9070  213.4440  148.0810 N   0  0  0  0  0  0  0  0  0  0  0  0
  159.5800  212.6080  152.8180 C   0  0  0  0  0  2  0  0  0  0  0  0
  158.8680  214.4240  145.7360 C   0  0  0  0  0  1  0  0  0  0  0  0
  157.2260  212.8080  146.4700 C   0  0  0  0  0  2  0  0  0  0  0  0
  158.2950  213.5290  146.7800 C   0  0  0  0  0  0  0  0  0  0  0  0
  161.2350  207.6500  156.9490 O   0  0  0  0  0  0  0  0  0  0  0  0
  160.3180  207.1080  156.2780 C   0  0  0  0  0  3  0  0  0  0  0  0
  160.2310  207.2990  154.8650 N   0  0  0  0  0  2  0  0  0  0  0  0
  161.0780  207.8010  152.6430 C   0  0  0  0  0  0  0  0  0  0  0  0
  160.0630  208.1420  152.0590 O   0  0  0  0  0  0  0  0  0  0  0  0
  162.1620  207.0900  151.8880 C   0  0  0  0  0  2  0  0  0  0  0  0
  160.8870  204.5240  149.3970 C   0  0  0  0  0  0  0  0  0  0  0  0
  161.4420  204.7040  152.1400 C   0  0  0  0  0  3  0  0  0  0  0  0
  161.3800  205.7170  149.9430 C   0  0  0  0  0  3  0  0  0  0  0  0
  160.6730  203.4230  150.2360 C   0  0  0  0  0  3  0  0  0  0  0  0
  161.6550  205.8110  151.3100 C   0  0  0  0  0  0  0  0  0  0  0  0
  160.9510  203.5120  151.6040 C   0  0  0  0  0  3  0  0  0  0  0  0
  160.6050  204.4000  148.0310 O   0  0  0  0  0  0  0  0  0  0  0  0
  161.4450  203.3160  146.9890 P   0  0  1  0  0  0  0  0  0  0  0  0
  162.9330  203.4840  147.1940 O   0  0  0  0  0  0  0  0  0  0  0  0
  161.0030  201.7270  147.3590 O   0  0  0  0  0  1  0  0  0  0  0  0
  161.0210  203.6980  145.2620 C   0  0  0  0  0  2  0  0  0  0  0  0
  162.3360  206.1770  145.8910 O   0  0  0  0  0  1  0  0  0  0  0  0
  161.1140  205.4860  144.9470 P   0  0  0  0  0  0  0  0  0  0  0  0
  161.4670  205.7370  143.3120 O   0  0  0  0  0  0  0  0  0  0  0  0
  159.7920  206.1380  145.2760 O   0  0  0  0  0  1  0  0  0  0  0  0
  1 24  1  6  0  0  0
  1 23  1  0  0  0  0
  2  8  1  0  0  0  0
  2 15  1  1  0  0  0
  2 14  1  0  0  0  0
  6  9  2  0  0  0  0
  7 17  1  0  0  0  0
  8  4  1  6  0  0  0
  8 14  1  0  0  0  0
  9 12  2  0  0  0  0
 10  3  2  0  0  0  0
 10 11  1  0  0  0  0
 11  7  1  1  0  0  0
 12  4  1  0  0  0  0
 13  5  1  6  0  0  0
 13  6  1  0  0  0  0
 13 11  1  0  0  0  0
 14  1  1  6  0  0  0
 16  5  1  0  0  0  0
 16 10  1  0  0  0  0
 17 15  1  0  0  0  0
 18 20  1  0  0  0  0
 19 20  2  0  0  0  0
 20 16  1  0  0  0  0
 22 21  2  0  0  0  0
 23 22  1  0  0  0  0
 25 24  2  0  0  0  0
 26 24  1  0  0  0  0
 27 29  2  0  0  0  0
 27 30  1  0  0  0  0
 29 31  1  0  0  0  0
 30 32  2  0  0  0  0
 31 26  1  0  0  0  0
 31 28  2  0  0  0  0
 32 28  1  0  0  0  0
 33 27  1  0  0  0  0
 34 35  2  1  0  0  0
 34 36  1  0  0  0  0
 34 33  1  0  0  0  0
 37 34  1  0  0  0  0
 39 37  1  0  0  0  0
 39 41  1  0  0  0  0
 39 38  1  0  0  0  0
 40 39  2  0  0  0  0
M  END
>  <MODEL>
8

>  <REMARK>
 VINA RESULT:      -4.2      3.424      7.787
  Name = 
  10 active torsions:
  status: ('A' for Active; 'I' for Inactive)
    1  A    between atoms: P_1  and  C_37
    2  A    between atoms: P_1  and  O_40
    3  A    between atoms: C_7  and  O_40
    4  A    between atoms: C_11  and  C_24
    5  A    between atoms: C_11  and  C_39
    6  A    between atoms: C_19  and  N_32
    7  A    between atoms: C_24  and  C_29
    8  A    between atoms: C_28  and  C_39
    9  A    between atoms: P_30  and  C_37
   10  A    between atoms: N_36  and  C_39
                            x       y       z     vdW  Elec       q    Type
                         _______ _______ _______ _____ _____    ______ ____

>  <TORSDO>
F 10

$$$$
=
 OpenBabel11072412523D

 41 44  0  0  1  0  0  0  0  0999 V2000
  161.4140  206.3530  151.9410 C   0  0  1  0  0  3  0  0  0  0  0  0
  160.4340  207.7390  153.7810 C   0  0  1  0  0  3  0  0  0  0  0  0
  155.9700  210.8720  156.1650 O   0  0  0  0  0  0  0  0  0  0  0  0
  161.9630  209.0990  152.3660 C   0  0  0  0  0  2  0  0  0  0  0  0
  158.2480  213.1330  154.6510 C   0  0  0  0  0  2  0  0  0  0  0  0
  159.3400  211.3060  153.4390 C   0  0  0  0  0  3  0  0  0  0  0  0
  158.4480  209.4540  155.4280 C   0  0  0  0  0  2  0  0  0  0  0  0
  161.8550  208.2490  153.6340 C   0  0  2  0  0  3  0  0  0  0  0  0
  160.5300  210.9440  153.0480 C   0  0  0  0  0  0  0  0  0  0  0  0
  156.9700  211.4590  155.6700 C   0  0  0  0  0  0  0  0  0  0  0  0
  158.3520  210.9430  155.7560 C   0  0  2  0  0  3  0  0  0  0  0  0
  161.7110  210.5420  152.6630 C   0  0  0  0  0  3  0  0  0  0  0  0
  159.1310  211.8860  154.8060 C   0  0  2  0  0  3  0  0  0  0  0  0
  161.5360  206.7680  153.4080 C   0  0  2  0  0  3  0  0  0  0  0  0
  160.0920  207.5700  155.2520 C   0  0  0  0  0  2  0  0  0  0  0  0
  156.9040  212.7250  155.0300 N   0  0  0  0  0  0  0  0  0  0  0  0
  159.7920  208.9160  155.8960 C   0  0  0  0  0  2  0  0  0  0  0  0
  155.0920  214.2640  155.9300 C   0  0  0  0  0  1  0  0  0  0  0  0
  155.2000  213.6510  153.5940 C   0  0  0  0  0  2  0  0  0  0  0  0
  155.7320  213.5290  154.8030 C   0  0  0  0  0  0  0  0  0  0  0  0
  162.0440  208.1770  149.8210 O   0  0  0  0  0  0  0  0  0  0  0  0
  162.9500  207.4010  150.2220 C   0  0  0  0  0  3  0  0  0  0  0  0
  162.7110  206.4830  151.2900 N   0  0  0  0  0  2  0  0  0  0  0  0
  160.9060  204.9440  151.8180 C   0  0  0  0  0  0  0  0  0  0  0  0
  159.7070  204.7350  151.8890 O   0  0  0  0  0  0  0  0  0  0  0  0
  161.8480  203.7900  151.6390 C   0  0  0  0  0  2  0  0  0  0  0  0
  161.1790  202.9440  147.9980 C   0  0  0  0  0  0  0  0  0  0  0  0
  161.2050  201.6590  150.4900 C   0  0  0  0  0  3  0  0  0  0  0  0
  161.5060  203.6580  149.1600 C   0  0  0  0  0  3  0  0  0  0  0  0
  160.8630  201.5830  148.0960 C   0  0  0  0  0  3  0  0  0  0  0  0
  161.5180  203.0210  150.4030 C   0  0  0  0  0  0  0  0  0  0  0  0
  160.8780  200.9410  149.3380 C   0  0  0  0  0  3  0  0  0  0  0  0
  161.1620  203.5550  146.7390 O   0  0  0  0  0  0  0  0  0  0  0  0
  162.4700  204.4930  146.1270 P   0  0  1  0  0  0  0  0  0  0  0  0
  163.7700  203.7770  146.4150 O   0  0  0  0  0  1  0  0  0  0  0  0
  162.2910  204.6820  144.4560 O   0  0  0  0  0  0  0  0  0  0  0  0
  162.4750  206.1180  146.9440 C   0  0  0  0  0  2  0  0  0  0  0  0
  159.8650  206.2960  145.7510 O   0  0  0  0  0  0  0  0  0  0  0  0
  160.7900  206.7850  147.0800 P   0  0  0  0  0  0  0  0  0  0  0  0
  160.0800  206.1970  148.4970 O   0  0  0  0  0  1  0  0  0  0  0  0
  160.8350  208.2940  147.1360 O   0  0  0  0  0  1  0  0  0  0  0  0
  1 23  1  1  0  0  0
  2 15  1  1  0  0  0
  4 12  1  0  0  0  0
  5 13  1  0  0  0  0
  5 16  1  0  0  0  0
  7 17  1  0  0  0  0
  8  4  1  6  0  0  0
  8  2  1  0  0  0  0
  9  6  2  0  0  0  0
 10 11  1  0  0  0  0
 10  3  2  0  0  0  0
 11  7  1  6  0  0  0
 12  9  2  0  0  0  0
 13  6  1  6  0  0  0
 13 11  1  0  0  0  0
 14  1  1  6  0  0  0
 14  8  1  0  0  0  0
 14  2  1  0  0  0  0
 15 17  1  0  0  0  0
 16 10  1  0  0  0  0
 19 20  2  0  0  0  0
 20 16  1  0  0  0  0
 20 18  1  0  0  0  0
 21 22  2  0  0  0  0
 22 23  1  0  0  0  0
 24 25  2  0  0  0  0
 24  1  1  0  0  0  0
 26 24  1  0  0  0  0
 27 30  2  0  0  0  0
 27 29  1  0  0  0  0
 29 31  2  0  0  0  0
 30 32  1  0  0  0  0
 31 28  1  0  0  0  0
 31 26  1  0  0  0  0
 32 28  2  0  0  0  0
 33 27  1  0  0  0  0
 34 36  2  6  0  0  0
 34 35  1  0  0  0  0
 34 33  1  0  0  0  0
 34 37  1  0  0  0  0
 37 39  1  0  0  0  0
 38 39  2  0  0  0  0
 39 41  1  0  0  0  0
 39 40  1  0  0  0  0
M  END
>  <MODEL>
9

>  <REMARK>
 VINA RESULT:      -4.1      3.346      8.799
  Name = 
  10 active torsions:
  status: ('A' for Active; 'I' for Inactive)
    1  A    between atoms: P_1  and  C_37
    2  A    between atoms: P_1  and  O_40
    3  A    between atoms: C_7  and  O_40
    4  A    between atoms: C_11  and  C_24
    5  A    between atoms: C_11  and  C_39
    6  A    between atoms: C_19  and  N_32
    7  A    between atoms: C_24  and  C_29
    8  A    between atoms: C_28  and  C_39
    9  A    between atoms: P_30  and  C_37
   10  A    between atoms: N_36  and  C_39
                            x       y       z     vdW  Elec       q    Type
                         _______ _______ _______ _____ _____    ______ ____

>  <TORSDO>
F 10

$$$$
