=
 OpenBabel11072412383D

 31 33  0  0  1  0  0  0  0  0999 V2000
  158.9890  210.2100  155.3440 C   0  0  0  0  0  2  0  0  0  0  0  0
  162.5750  210.3650  156.2490 C   0  0  0  0  0  1  0  0  0  0  0  0
  160.4620  208.1690  154.9150 C   0  0  0  0  0  0  0  0  0  0  0  0
  160.8440  207.9830  153.6260 C   0  0  0  0  0  0  0  0  0  0  0  0
  159.1620  211.5720  155.8440 N   0  0  0  0  0  0  0  0  0  0  0  0
  161.2120  209.1340  152.7510 C   0  0  0  0  0  2  0  0  0  0  0  0
  160.3130  209.5310  155.5640 C   0  0  1  0  0  3  0  0  0  0  0  0
  161.7560  210.9100  153.9350 C   0  0  0  0  0  2  0  0  0  0  0  0
  160.6080  211.8500  155.8880 C   0  0  0  0  0  2  0  0  0  0  0  0
  162.3070  209.7900  153.3130 O   0  0  0  0  0  0  0  0  0  0  0  0
  161.3540  210.6250  155.3880 C   0  0  2  0  0  0  0  0  0  0  0  0
  160.4440  207.3500  157.2600 C   0  0  0  0  0  1  0  0  0  0  0  0
  160.1680  206.9990  155.8100 C   0  0  0  0  0  2  0  0  0  0  0  0
  158.4410  212.5120  154.9690 C   0  0  2  0  0  3  0  0  0  0  0  0
  157.2150  213.1440  155.6310 C   0  0  0  0  0  2  0  0  0  0  0  0
  155.9450  212.4480  155.1760 C   0  0  0  0  0  2  0  0  0  0  0  0
  155.2620  210.1270  155.4480 N   0  0  0  0  0  1  0  0  0  0  0  0
  155.5620  211.3580  156.1600 C   0  0  0  0  0  2  0  0  0  0  0  0
  158.0610  211.8420  153.6500 C   0  0  0  0  0  2  0  0  0  0  0  0
  159.7500  212.5260  151.9470 C   0  0  0  0  0  3  0  0  0  0  0  0
  157.8450  213.7090  151.8180 C   0  0  0  0  0  0  0  0  0  0  0  0
  159.8490  213.5430  150.8480 C   0  0  0  0  0  3  0  0  0  0  0  0
  156.4680  214.1750  152.1390 C   0  0  0  0  0  1  0  0  0  0  0  0
  158.5620  214.2330  150.8860 N   0  0  0  0  0  0  0  0  0  0  0  0
  158.5510  212.6420  152.4900 C   0  0  2  0  0  3  0  0  0  0  0  0
  160.9480  206.6160  153.0190 C   0  0  0  0  0  2  0  0  0  0  0  0
  161.7460  206.6650  151.7250 C   0  0  0  0  0  2  0  0  0  0  0  0
  161.0280  205.8960  150.6300 C   0  0  0  0  0  2  0  0  0  0  0  0
  161.4590  207.9960  149.3530 O   0  0  0  0  0  1  0  0  0  0  0  0
  160.2210  206.3050  148.4240 O   0  0  0  0  0  0  0  0  0  0  0  0
  160.8680  206.7410  149.4110 C   0  0  0  0  0  0  0  0  0  0  0  0
  1  5  1  0  0  0  0
  3  7  1  0  0  0  0
  3 13  1  0  0  0  0
  4  3  2  0  0  0  0
  5  9  1  0  0  0  0
  6 10  1  0  0  0  0
  6  4  1  0  0  0  0
  7  1  1  6  0  0  0
  8 11  1  0  0  0  0
 10  8  1  0  0  0  0
 11  7  1  0  0  0  0
 11  9  1  0  0  0  0
 11  2  1  1  0  0  0
 13 12  1  0  0  0  0
 14 19  1  6  0  0  0
 14 15  1  0  0  0  0
 14  5  1  0  0  0  0
 16 15  1  0  0  0  0
 16 18  1  0  0  0  0
 17 18  1  0  0  0  0
 20 25  1  0  0  0  0
 21 23  1  0  0  0  0
 21 25  1  0  0  0  0
 22 24  1  0  0  0  0
 22 20  2  0  0  0  0
 24 21  2  0  0  0  0
 25 19  1  1  0  0  0
 26  4  1  0  0  0  0
 27 26  1  0  0  0  0
 28 27  1  0  0  0  0
 29 31  1  0  0  0  0
 30 31  2  0  0  0  0
 31 28  1  0  0  0  0
M  END
>  <MODEL>
1

>  <REMARK>
 VINA RESULT:      -5.7      0.000      0.000
  Name = 
  11 active torsions:
  status: ('A' for Active; 'I' for Inactive)
    1  A    between atoms: C_7  and  C_10
    2  A    between atoms: C_7  and  C_31
    3  A    between atoms: C_8  and  C_18
    4  A    between atoms: C_8  and  C_19
    5  A    between atoms: C_9  and  C_13
    6  A    between atoms: C_10  and  C_26
    7  A    between atoms: C_12  and  C_26
    8  A    between atoms: C_15  and  N_16
    9  A    between atoms: C_15  and  C_19
   10  A    between atoms: C_15  and  C_22
   11  A    between atoms: C_22  and  C_29
                            x       y       z     vdW  Elec       q    Type
                         _______ _______ _______ _____ _____    ______ ____

>  <TORSDO>
F 11

$$$$
=
 OpenBabel11072412383D

 31 33  0  0  1  0  0  0  0  0999 V2000
  158.9610  209.9970  155.0390 C   0  0  0  0  0  2  0  0  0  0  0  0
  162.5760  210.6640  155.4760 C   0  0  0  0  0  1  0  0  0  0  0  0
  160.6140  208.0650  154.7980 C   0  0  0  0  0  0  0  0  0  0  0  0
  160.8860  207.6830  153.5250 C   0  0  0  0  0  0  0  0  0  0  0  0
  159.0210  211.4370  155.2730 N   0  0  0  0  0  0  0  0  0  0  0  0
  161.0290  208.6830  152.4280 C   0  0  0  0  0  2  0  0  0  0  0  0
  160.3700  209.5020  155.2160 C   0  0  1  0  0  3  0  0  0  0  0  0
  161.4750  210.6920  153.2150 C   0  0  0  0  0  2  0  0  0  0  0  0
  160.4230  211.8590  155.0980 C   0  0  0  0  0  2  0  0  0  0  0  0
  162.0900  209.5350  152.7350 O   0  0  0  0  0  0  0  0  0  0  0  0
  161.2540  210.6410  154.7320 C   0  0  2  0  0  0  0  0  0  0  0  0
  160.6870  207.7360  157.2590 C   0  0  0  0  0  1  0  0  0  0  0  0
  160.5470  207.0570  155.9090 C   0  0  0  0  0  2  0  0  0  0  0  0
  158.1130  212.1250  154.3400 C   0  0  2  0  0  3  0  0  0  0  0  0
  158.4620  211.8950  152.8680 C   0  0  0  0  0  2  0  0  0  0  0  0
  158.3920  213.1990  152.0930 C   0  0  0  0  0  2  0  0  0  0  0  0
  159.0130  213.6760  149.7880 N   0  0  0  0  0  1  0  0  0  0  0  0
  159.5250  213.2750  151.0880 C   0  0  0  0  0  2  0  0  0  0  0  0
  158.0420  213.6180  154.6530 C   0  0  0  0  0  2  0  0  0  0  0  0
  156.8200  213.9950  156.7950 C   0  0  0  0  0  3  0  0  0  0  0  0
  155.4920  214.1370  154.9910 C   0  0  0  0  0  0  0  0  0  0  0  0
  155.4090  214.2810  157.2170 C   0  0  0  0  0  2  0  0  0  0  0  0
  155.0730  214.1230  153.5620 C   0  0  0  0  0  1  0  0  0  0  0  0
  154.6690  214.3370  155.9600 N   0  0  0  0  0  0  0  0  0  0  0  0
  156.8370  213.9300  155.4760 C   0  0  0  0  0  0  0  0  0  0  0  0
  161.0890  206.2440  153.1540 C   0  0  0  0  0  2  0  0  0  0  0  0
  161.8100  206.1320  151.8200 C   0  0  0  0  0  2  0  0  0  0  0  0
  160.9820  205.3250  150.8350 C   0  0  0  0  0  2  0  0  0  0  0  0
  160.8720  205.0480  148.3580 O   0  0  0  0  0  0  0  0  0  0  0  0
  161.4850  207.0570  149.2760 O   0  0  0  0  0  1  0  0  0  0  0  0
  161.1380  205.8610  149.4520 C   0  0  0  0  0  0  0  0  0  0  0  0
  1  5  1  0  0  0  0
  3  7  1  0  0  0  0
  3 13  1  0  0  0  0
  4  3  2  0  0  0  0
  6 10  1  0  0  0  0
  6  4  1  0  0  0  0
  7  1  1  6  0  0  0
  8 11  1  0  0  0  0
  9  5  1  0  0  0  0
 10  8  1  0  0  0  0
 11  9  1  0  0  0  0
 11  7  1  0  0  0  0
 11  2  1  1  0  0  0
 13 12  1  0  0  0  0
 14 15  1  6  0  0  0
 14 19  1  0  0  0  0
 14  5  1  0  0  0  0
 16 15  1  0  0  0  0
 17 18  1  0  0  0  0
 18 16  1  0  0  0  0
 19 25  1  0  0  0  0
 20 22  1  0  0  0  0
 21 25  1  0  0  0  0
 21 24  2  0  0  0  0
 23 21  1  0  0  0  0
 24 22  1  0  0  0  0
 25 20  2  0  0  0  0
 26  4  1  0  0  0  0
 27 26  1  0  0  0  0
 28 27  1  0  0  0  0
 29 31  2  0  0  0  0
 30 31  1  0  0  0  0
 31 28  1  0  0  0  0
M  END
>  <MODEL>
2

>  <REMARK>
 VINA RESULT:      -5.2      1.265      3.231
  Name = 
  11 active torsions:
  status: ('A' for Active; 'I' for Inactive)
    1  A    between atoms: C_7  and  C_10
    2  A    between atoms: C_7  and  C_31
    3  A    between atoms: C_8  and  C_18
    4  A    between atoms: C_8  and  C_19
    5  A    between atoms: C_9  and  C_13
    6  A    between atoms: C_10  and  C_26
    7  A    between atoms: C_12  and  C_26
    8  A    between atoms: C_15  and  N_16
    9  A    between atoms: C_15  and  C_19
   10  A    between atoms: C_15  and  C_22
   11  A    between atoms: C_22  and  C_29
                            x       y       z     vdW  Elec       q    Type
                         _______ _______ _______ _____ _____    ______ ____

>  <TORSDO>
F 11

$$$$
=
 OpenBabel11072412383D

 31 33  0  0  1  0  0  0  0  0999 V2000
  160.2190  206.0820  152.4960 C   0  0  0  0  0  2  0  0  0  0  0  0
  163.8080  205.5420  151.7720 C   0  0  0  0  0  1  0  0  0  0  0  0
  160.9000  205.2200  150.1910 C   0  0  0  0  0  0  0  0  0  0  0  0
  160.8850  206.1390  149.1940 C   0  0  0  0  0  0  0  0  0  0  0  0
  160.8880  206.5150  153.7200 N   0  0  0  0  0  0  0  0  0  0  0  0
  161.3400  207.5420  149.4240 C   0  0  0  0  0  2  0  0  0  0  0  0
  161.3070  205.5270  151.6190 C   0  0  1  0  0  3  0  0  0  0  0  0
  162.6380  207.6930  151.1970 C   0  0  0  0  0  2  0  0  0  0  0  0
  162.3190  206.6840  153.4100 C   0  0  0  0  0  2  0  0  0  0  0  0
  162.6790  207.5200  149.8140 O   0  0  0  0  0  0  0  0  0  0  0  0
  162.5400  206.3560  151.9440 C   0  0  2  0  0  0  0  0  0  0  0  0
  161.1790  202.8640  150.9300 C   0  0  0  0  0  1  0  0  0  0  0  0
  160.5140  203.7920  149.9300 C   0  0  0  0  0  2  0  0  0  0  0  0
  160.2720  207.7640  154.2010 C   0  0  2  0  0  3  0  0  0  0  0  0
  160.9700  209.0250  153.6860 C   0  0  0  0  0  2  0  0  0  0  0  0
  160.0800  209.7610  152.7000 C   0  0  0  0  0  2  0  0  0  0  0  0
  159.2000  212.0250  152.5430 N   0  0  0  0  0  1  0  0  0  0  0  0
  160.4140  211.2410  152.6940 C   0  0  0  0  0  2  0  0  0  0  0  0
  160.1870  207.7750  155.7250 C   0  0  0  0  0  2  0  0  0  0  0  0
  161.9640  209.1800  156.7690 C   0  0  0  0  0  3  0  0  0  0  0  0
  160.0440  210.2970  156.4380 C   0  0  0  0  0  0  0  0  0  0  0  0
  162.0980  210.5910  157.2610 C   0  0  0  0  0  2  0  0  0  0  0  0
  158.6370  210.5610  156.0310 C   0  0  0  0  0  1  0  0  0  0  0  0
  160.7910  211.1860  156.9920 N   0  0  0  0  0  0  0  0  0  0  0  0
  160.7450  209.0430  156.2780 C   0  0  0  0  0  0  0  0  0  0  0  0
  160.4460  205.7950  147.8020 C   0  0  0  0  0  2  0  0  0  0  0  0
  161.5890  205.9890  146.8170 C   0  0  0  0  0  2  0  0  0  0  0  0
  162.2400  204.6570  146.4910 C   0  0  0  0  0  2  0  0  0  0  0  0
  161.1100  202.5440  145.7960 O   0  0  0  0  0  1  0  0  0  0  0  0
  160.9270  204.4350  144.5140 O   0  0  0  0  0  0  0  0  0  0  0  0
  161.3990  203.8770  145.5380 C   0  0  0  0  0  0  0  0  0  0  0  0
  1  5  1  0  0  0  0
  3  7  1  0  0  0  0
  4  6  1  0  0  0  0
  4  3  2  0  0  0  0
  5 14  1  0  0  0  0
  6 10  1  0  0  0  0
  7 11  1  0  0  0  0
  7  1  1  6  0  0  0
  8 11  1  0  0  0  0
  9  5  1  0  0  0  0
 10  8  1  0  0  0  0
 11  2  1  6  0  0  0
 11  9  1  0  0  0  0
 13  3  1  0  0  0  0
 13 12  1  0  0  0  0
 14 15  1  1  0  0  0
 14 19  1  0  0  0  0
 16 15  1  0  0  0  0
 17 18  1  0  0  0  0
 18 16  1  0  0  0  0
 19 25  1  0  0  0  0
 20 22  1  0  0  0  0
 21 24  2  0  0  0  0
 23 21  1  0  0  0  0
 24 22  1  0  0  0  0
 25 21  1  0  0  0  0
 25 20  2  0  0  0  0
 26  4  1  0  0  0  0
 27 26  1  0  0  0  0
 28 27  1  0  0  0  0
 30 31  2  0  0  0  0
 31 29  1  0  0  0  0
 31 28  1  0  0  0  0
M  END
>  <MODEL>
3

>  <REMARK>
 VINA RESULT:      -4.5      2.455      5.683
  Name = 
  11 active torsions:
  status: ('A' for Active; 'I' for Inactive)
    1  A    between atoms: C_7  and  C_10
    2  A    between atoms: C_7  and  C_31
    3  A    between atoms: C_8  and  C_18
    4  A    between atoms: C_8  and  C_19
    5  A    between atoms: C_9  and  C_13
    6  A    between atoms: C_10  and  C_26
    7  A    between atoms: C_12  and  C_26
    8  A    between atoms: C_15  and  N_16
    9  A    between atoms: C_15  and  C_19
   10  A    between atoms: C_15  and  C_22
   11  A    between atoms: C_22  and  C_29
                            x       y       z     vdW  Elec       q    Type
                         _______ _______ _______ _____ _____    ______ ____

>  <TORSDO>
F 11

$$$$
=
 OpenBabel11072412383D

 31 33  0  0  1  0  0  0  0  0999 V2000
  160.7850  210.9320  152.7760 C   0  0  0  0  0  2  0  0  0  0  0  0
  162.5380  210.9860  156.0350 C   0  0  0  0  0  1  0  0  0  0  0  0
  159.5330  211.7620  154.8410 C   0  0  0  0  0  0  0  0  0  0  0  0
  158.6510  210.8850  155.3820 C   0  0  0  0  0  0  0  0  0  0  0  0
  162.0990  210.3720  152.4710 N   0  0  0  0  0  0  0  0  0  0  0  0
  158.9540  209.4270  155.4600 C   0  0  0  0  0  2  0  0  0  0  0  0
  160.8530  211.3570  154.2170 C   0  0  1  0  0  3  0  0  0  0  0  0
  161.1180  209.0400  155.3130 C   0  0  0  0  0  2  0  0  0  0  0  0
  162.7380  210.0140  153.7500 C   0  0  0  0  0  2  0  0  0  0  0  0
  160.0970  209.2480  156.2400 O   0  0  0  0  0  0  0  0  0  0  0  0
  161.7830  210.3540  154.8820 C   0  0  2  0  0  0  0  0  0  0  0  0
  159.7490  213.8830  156.1170 C   0  0  0  0  0  1  0  0  0  0  0  0
  159.2510  213.2380  154.8370 C   0  0  0  0  0  2  0  0  0  0  0  0
  161.9420  209.2070  151.5830 C   0  0  2  0  0  3  0  0  0  0  0  0
  161.9800  209.5650  150.0960 C   0  0  0  0  0  2  0  0  0  0  0  0
  162.3410  211.0280  149.9080 C   0  0  0  0  0  2  0  0  0  0  0  0
  162.8420  212.5850  148.1060 N   0  0  0  0  0  1  0  0  0  0  0  0
  161.9850  211.4810  148.5050 C   0  0  0  0  0  2  0  0  0  0  0  0
  160.6710  208.4320  151.9230 C   0  0  0  0  0  2  0  0  0  0  0  0
  161.2720  206.3000  153.0710 C   0  0  0  0  0  3  0  0  0  0  0  0
  160.9680  206.0510  150.8600 C   0  0  0  0  0  0  0  0  0  0  0  0
  161.5050  204.8720  152.6770 C   0  0  0  0  0  2  0  0  0  0  0  0
  160.6760  206.4050  149.4430 C   0  0  0  0  0  1  0  0  0  0  0  0
  161.2840  204.8610  151.2340 N   0  0  0  0  0  0  0  0  0  0  0  0
  160.9440  206.9660  151.9780 C   0  0  0  0  0  0  0  0  0  0  0  0
  157.3410  211.3320  155.9610 C   0  0  0  0  0  2  0  0  0  0  0  0
  156.3190  211.5610  154.8580 C   0  0  0  0  0  2  0  0  0  0  0  0
  155.6630  212.9210  155.0180 C   0  0  0  0  0  2  0  0  0  0  0  0
  156.5790  213.6160  152.8030 O   0  0  0  0  0  0  0  0  0  0  0  0
  154.4150  214.1150  153.3740 O   0  0  0  0  0  1  0  0  0  0  0  0
  155.5140  213.5930  153.6940 C   0  0  0  0  0  0  0  0  0  0  0  0
  3  4  2  0  0  0  0
  4  6  1  0  0  0  0
  4 26  1  0  0  0  0
  5  1  1  0  0  0  0
  5  9  1  0  0  0  0
  6 10  1  0  0  0  0
  7  1  1  6  0  0  0
  7  3  1  0  0  0  0
  7 11  1  0  0  0  0
  8 10  1  0  0  0  0
  9 11  1  0  0  0  0
 11  8  1  0  0  0  0
 11  2  1  1  0  0  0
 13  3  1  0  0  0  0
 13 12  1  0  0  0  0
 14 15  1  6  0  0  0
 14 19  1  0  0  0  0
 14  5  1  0  0  0  0
 16 15  1  0  0  0  0
 17 18  1  0  0  0  0
 18 16  1  0  0  0  0
 19 25  1  0  0  0  0
 21 24  2  0  0  0  0
 21 25  1  0  0  0  0
 22 20  1  0  0  0  0
 23 21  1  0  0  0  0
 24 22  1  0  0  0  0
 25 20  2  0  0  0  0
 27 28  1  0  0  0  0
 27 26  1  0  0  0  0
 29 31  2  0  0  0  0
 30 31  1  0  0  0  0
 31 28  1  0  0  0  0
M  END
>  <MODEL>
4

>  <REMARK>
 VINA RESULT:      -4.4      3.268      6.968
  Name = 
  11 active torsions:
  status: ('A' for Active; 'I' for Inactive)
    1  A    between atoms: C_7  and  C_10
    2  A    between atoms: C_7  and  C_31
    3  A    between atoms: C_8  and  C_18
    4  A    between atoms: C_8  and  C_19
    5  A    between atoms: C_9  and  C_13
    6  A    between atoms: C_10  and  C_26
    7  A    between atoms: C_12  and  C_26
    8  A    between atoms: C_15  and  N_16
    9  A    between atoms: C_15  and  C_19
   10  A    between atoms: C_15  and  C_22
   11  A    between atoms: C_22  and  C_29
                            x       y       z     vdW  Elec       q    Type
                         _______ _______ _______ _____ _____    ______ ____

>  <TORSDO>
F 11

$$$$
=
 OpenBabel11072412383D

 31 33  0  0  1  0  0  0  0  0999 V2000
  160.8620  207.2430  152.3330 C   0  0  0  0  0  2  0  0  0  0  0  0
  163.7770  207.3530  150.0560 C   0  0  0  0  0  1  0  0  0  0  0  0
  161.3810  205.2020  150.8900 C   0  0  0  0  0  0  0  0  0  0  0  0
  160.5920  205.0420  149.7980 C   0  0  0  0  0  0  0  0  0  0  0  0
  161.3920  208.5920  152.5150 N   0  0  0  0  0  0  0  0  0  0  0  0
  160.1520  206.2090  148.9800 C   0  0  0  0  0  2  0  0  0  0  0  0
  161.8310  206.5500  151.4170 C   0  0  1  0  0  3  0  0  0  0  0  0
  161.4580  207.9550  149.2890 C   0  0  0  0  0  2  0  0  0  0  0  0
  162.3190  208.8600  151.4010 C   0  0  0  0  0  2  0  0  0  0  0  0
  161.2800  206.8450  148.4640 O   0  0  0  0  0  0  0  0  0  0  0  0
  162.3540  207.6410  150.4950 C   0  0  2  0  0  0  0  0  0  0  0  0
  160.8510  203.5630  152.6800 C   0  0  0  0  0  1  0  0  0  0  0  0
  161.8820  204.0150  151.6620 C   0  0  0  0  0  2  0  0  0  0  0  0
  160.2790  209.5560  152.5550 C   0  0  2  0  0  3  0  0  0  0  0  0
  160.6380  210.9260  151.9760 C   0  0  0  0  0  2  0  0  0  0  0  0
  159.5460  211.9360  152.2810 C   0  0  0  0  0  2  0  0  0  0  0  0
  158.3300  213.6380  151.0360 N   0  0  0  0  0  1  0  0  0  0  0  0
  159.6540  213.1250  151.3460 C   0  0  0  0  0  2  0  0  0  0  0  0
  159.7320  209.6940  153.9740 C   0  0  0  0  0  2  0  0  0  0  0  0
  161.7220  210.6940  155.0970 C   0  0  0  0  0  3  0  0  0  0  0  0
  161.1870  208.6670  155.9020 C   0  0  0  0  0  0  0  0  0  0  0  0
  162.6880  210.2960  156.1740 C   0  0  0  0  0  2  0  0  0  0  0  0
  160.4590  207.3790  156.0660 C   0  0  0  0  0  1  0  0  0  0  0  0
  162.2290  208.9750  156.5920 N   0  0  0  0  0  0  0  0  0  0  0  0
  160.8420  209.7170  154.9710 C   0  0  0  0  0  0  0  0  0  0  0  0
  160.1470  203.6870  149.3320 C   0  0  0  0  0  2  0  0  0  0  0  0
  161.2850  202.9630  148.6290 C   0  0  0  0  0  2  0  0  0  0  0  0
  161.5930  203.6250  147.2970 C   0  0  0  0  0  2  0  0  0  0  0  0
  160.8720  201.4270  146.3610 O   0  0  0  0  0  1  0  0  0  0  0  0
  160.8940  203.3020  145.0410 O   0  0  0  0  0  0  0  0  0  0  0  0
  161.1110  202.7810  146.1660 C   0  0  0  0  0  0  0  0  0  0  0  0
  1  5  1  0  0  0  0
  3  7  1  0  0  0  0
  3 13  1  0  0  0  0
  4  3  2  0  0  0  0
  5 14  1  0  0  0  0
  6  4  1  0  0  0  0
  7  1  1  6  0  0  0
  8 11  1  0  0  0  0
  9  5  1  0  0  0  0
 10  6  1  0  0  0  0
 10  8  1  0  0  0  0
 11  2  1  6  0  0  0
 11  9  1  0  0  0  0
 11  7  1  0  0  0  0
 13 12  1  0  0  0  0
 14 15  1  1  0  0  0
 14 19  1  0  0  0  0
 15 16  1  0  0  0  0
 17 18  1  0  0  0  0
 18 16  1  0  0  0  0
 19 25  1  0  0  0  0
 20 22  1  0  0  0  0
 21 23  1  0  0  0  0
 21 24  2  0  0  0  0
 22 24  1  0  0  0  0
 25 20  2  0  0  0  0
 25 21  1  0  0  0  0
 26  4  1  0  0  0  0
 27 26  1  0  0  0  0
 28 27  1  0  0  0  0
 30 31  2  0  0  0  0
 31 29  1  0  0  0  0
 31 28  1  0  0  0  0
M  END
>  <MODEL>
5

>  <REMARK>
 VINA RESULT:      -4.4      2.593      5.688
  Name = 
  11 active torsions:
  status: ('A' for Active; 'I' for Inactive)
    1  A    between atoms: C_7  and  C_10
    2  A    between atoms: C_7  and  C_31
    3  A    between atoms: C_8  and  C_18
    4  A    between atoms: C_8  and  C_19
    5  A    between atoms: C_9  and  C_13
    6  A    between atoms: C_10  and  C_26
    7  A    between atoms: C_12  and  C_26
    8  A    between atoms: C_15  and  N_16
    9  A    between atoms: C_15  and  C_19
   10  A    between atoms: C_15  and  C_22
   11  A    between atoms: C_22  and  C_29
                            x       y       z     vdW  Elec       q    Type
                         _______ _______ _______ _____ _____    ______ ____

>  <TORSDO>
F 11

$$$$
=
 OpenBabel11072412383D

 31 33  0  0  1  0  0  0  0  0999 V2000
  160.3610  209.8180  152.6430 C   0  0  0  0  0  2  0  0  0  0  0  0
  162.7900  210.9000  155.2180 C   0  0  0  0  0  1  0  0  0  0  0  0
  159.6030  211.4590  154.4460 C   0  0  0  0  0  0  0  0  0  0  0  0
  158.8530  210.9280  155.4430 C   0  0  0  0  0  0  0  0  0  0  0  0
  161.5700  209.0660  152.3170 N   0  0  0  0  0  0  0  0  0  0  0  0
  159.1510  209.5780  156.0040 C   0  0  0  0  0  2  0  0  0  0  0  0
  160.7500  210.7330  153.7710 C   0  0  1  0  0  3  0  0  0  0  0  0
  161.2250  208.9650  155.5850 C   0  0  0  0  0  2  0  0  0  0  0  0
  162.4710  209.1440  153.4800 C   0  0  0  0  0  2  0  0  0  0  0  0
  160.4350  209.5930  156.5480 O   0  0  0  0  0  0  0  0  0  0  0  0
  161.7920  209.9620  154.5660 C   0  0  2  0  0  0  0  0  0  0  0  0
  158.6160  212.8100  152.6100 C   0  0  0  0  0  1  0  0  0  0  0  0
  159.3430  212.8500  153.9410 C   0  0  0  0  0  2  0  0  0  0  0  0
  161.2100  207.6770  151.9850 C   0  0  2  0  0  3  0  0  0  0  0  0
  160.9730  206.7980  153.2160 C   0  0  0  0  0  2  0  0  0  0  0  0
  161.6840  205.4650  153.0630 C   0  0  0  0  0  2  0  0  0  0  0  0
  161.5050  203.3240  151.9180 N   0  0  0  0  0  1  0  0  0  0  0  0
  160.7440  204.4330  152.4700 C   0  0  0  0  0  2  0  0  0  0  0  0
  162.2540  207.0500  151.0640 C   0  0  0  0  0  2  0  0  0  0  0  0
  161.2550  205.6490  149.2580 C   0  0  0  0  0  3  0  0  0  0  0  0
  161.5820  207.7820  148.6350 C   0  0  0  0  0  0  0  0  0  0  0  0
  160.8180  205.8420  147.8350 C   0  0  0  0  0  3  0  0  0  0  0  0
  161.9810  209.2130  148.7170 C   0  0  0  0  0  1  0  0  0  0  0  0
  161.0930  207.2510  147.5690 N   0  0  0  0  0  0  0  0  0  0  0  0
  161.6870  206.8150  149.7040 C   0  0  2  0  0  3  0  0  0  0  0  0
  157.7080  211.6750  156.0600 C   0  0  0  0  0  2  0  0  0  0  0  0
  156.3860  211.0040  155.7180 C   0  0  0  0  0  2  0  0  0  0  0  0
  155.4710  211.9750  154.9920 C   0  0  0  0  0  2  0  0  0  0  0  0
  154.9360  213.6670  156.7470 O   0  0  0  0  0  1  0  0  0  0  0  0
  156.3170  214.2030  154.9980 O   0  0  0  0  0  0  0  0  0  0  0  0
  155.5940  213.3460  155.5670 C   0  0  0  0  0  0  0  0  0  0  0  0
  3  4  2  0  0  0  0
  4  6  1  0  0  0  0
  4 26  1  0  0  0  0
  5  1  1  0  0  0  0
  5  9  1  0  0  0  0
  6 10  1  0  0  0  0
  7  1  1  6  0  0  0
  7  3  1  0  0  0  0
  7 11  1  0  0  0  0
  8 10  1  0  0  0  0
  9 11  1  0  0  0  0
 11  2  1  1  0  0  0
 11  8  1  0  0  0  0
 12 13  1  0  0  0  0
 13  3  1  0  0  0  0
 14 19  1  1  0  0  0
 14  5  1  0  0  0  0
 14 15  1  0  0  0  0
 16 15  1  0  0  0  0
 17 18  1  0  0  0  0
 18 16  1  0  0  0  0
 20 25  1  0  0  0  0
 21 23  1  0  0  0  0
 21 25  1  0  0  0  0
 22 20  2  0  0  0  0
 24 22  1  0  0  0  0
 24 21  2  0  0  0  0
 25 19  1  6  0  0  0
 27 26  1  0  0  0  0
 28 31  1  0  0  0  0
 28 27  1  0  0  0  0
 30 31  2  0  0  0  0
 31 29  1  0  0  0  0
M  END
>  <MODEL>
6

>  <REMARK>
 VINA RESULT:      -4.1      3.488      7.093
  Name = 
  11 active torsions:
  status: ('A' for Active; 'I' for Inactive)
    1  A    between atoms: C_7  and  C_10
    2  A    between atoms: C_7  and  C_31
    3  A    between atoms: C_8  and  C_18
    4  A    between atoms: C_8  and  C_19
    5  A    between atoms: C_9  and  C_13
    6  A    between atoms: C_10  and  C_26
    7  A    between atoms: C_12  and  C_26
    8  A    between atoms: C_15  and  N_16
    9  A    between atoms: C_15  and  C_19
   10  A    between atoms: C_15  and  C_22
   11  A    between atoms: C_22  and  C_29
                            x       y       z     vdW  Elec       q    Type
                         _______ _______ _______ _____ _____    ______ ____

>  <TORSDO>
F 11

$$$$
=
 OpenBabel11072412383D

 31 33  0  0  1  0  0  0  0  0999 V2000
  159.9200  208.6240  152.6470 C   0  0  0  0  0  2  0  0  0  0  0  0
  162.4300  210.9330  151.2090 C   0  0  0  0  0  1  0  0  0  0  0  0
  159.7810  211.1110  153.2110 C   0  0  0  0  0  0  0  0  0  0  0  0
  160.2340  211.4580  154.4420 C   0  0  0  0  0  0  0  0  0  0  0  0
  160.8070  207.7440  151.8920 N   0  0  0  0  0  0  0  0  0  0  0  0
  161.4450  210.8170  155.0330 C   0  0  0  0  0  2  0  0  0  0  0  0
  160.3980  210.0210  152.3590 C   0  0  1  0  0  3  0  0  0  0  0  0
  162.7140  209.8990  153.4840 C   0  0  0  0  0  2  0  0  0  0  0  0
  162.0330  208.5030  151.5860 C   0  0  0  0  0  2  0  0  0  0  0  0
  162.5380  211.0780  154.2070 O   0  0  0  0  0  0  0  0  0  0  0  0
  161.9040  209.8940  152.1810 C   0  0  2  0  0  0  0  0  0  0  0  0
  159.0740  212.9070  151.6470 C   0  0  0  0  0  1  0  0  0  0  0  0
  158.6070  211.8160  152.5930 C   0  0  0  0  0  2  0  0  0  0  0  0
  161.0870  206.5330  152.6820 C   0  0  2  0  0  3  0  0  0  0  0  0
  161.4370  206.8250  154.1430 C   0  0  0  0  0  2  0  0  0  0  0  0
  160.2360  206.5780  155.0390 C   0  0  0  0  0  2  0  0  0  0  0  0
  161.4500  207.7040  156.8220 N   0  0  0  0  0  1  0  0  0  0  0  0
  160.1730  207.6250  156.1340 C   0  0  0  0  0  2  0  0  0  0  0  0
  162.1770  205.6930  152.0210 C   0  0  0  0  0  2  0  0  0  0  0  0
  161.4090  203.3430  151.6850 C   0  0  0  0  0  3  0  0  0  0  0  0
  161.1610  204.6180  149.8530 C   0  0  0  0  0  0  0  0  0  0  0  0
  160.8300  202.5290  150.5670 C   0  0  0  0  0  3  0  0  0  0  0  0
  161.2080  205.8150  148.9700 C   0  0  0  0  0  1  0  0  0  0  0  0
  160.7340  203.4710  149.4550 N   0  0  0  0  0  0  0  0  0  0  0  0
  161.5800  204.5740  151.2350 C   0  0  2  0  0  3  0  0  0  0  0  0
  159.5700  212.5250  155.2610 C   0  0  0  0  0  2  0  0  0  0  0  0
  158.7450  211.9040  156.3790 C   0  0  0  0  0  2  0  0  0  0  0  0
  157.3820  212.5670  156.4630 C   0  0  0  0  0  2  0  0  0  0  0  0
  155.6330  212.7630  154.6940 O   0  0  0  0  0  0  0  0  0  0  0  0
  156.3850  210.7030  155.3610 O   0  0  0  0  0  1  0  0  0  0  0  0
  156.4360  211.9540  155.4860 C   0  0  0  0  0  0  0  0  0  0  0  0
  3  4  2  0  0  0  0
  4  6  1  0  0  0  0
  4 26  1  0  0  0  0
  5  1  1  0  0  0  0
  5 14  1  0  0  0  0
  7  1  1  1  0  0  0
  7  3  1  0  0  0  0
  8 10  1  0  0  0  0
  9  5  1  0  0  0  0
  9 11  1  0  0  0  0
 10  6  1  0  0  0  0
 11  2  1  6  0  0  0
 11  7  1  0  0  0  0
 11  8  1  0  0  0  0
 12 13  1  0  0  0  0
 13  3  1  0  0  0  0
 14 19  1  6  0  0  0
 14 15  1  0  0  0  0
 15 16  1  0  0  0  0
 16 18  1  0  0  0  0
 18 17  1  0  0  0  0
 21 25  1  0  0  0  0
 22 20  2  0  0  0  0
 23 21  1  0  0  0  0
 24 21  2  0  0  0  0
 24 22  1  0  0  0  0
 25 20  1  0  0  0  0
 25 19  1  6  0  0  0
 26 27  1  0  0  0  0
 27 28  1  0  0  0  0
 29 31  2  0  0  0  0
 30 31  1  0  0  0  0
 31 28  1  0  0  0  0
M  END
>  <MODEL>
7

>  <REMARK>
 VINA RESULT:      -4.1      3.211      7.209
  Name = 
  11 active torsions:
  status: ('A' for Active; 'I' for Inactive)
    1  A    between atoms: C_7  and  C_10
    2  A    between atoms: C_7  and  C_31
    3  A    between atoms: C_8  and  C_18
    4  A    between atoms: C_8  and  C_19
    5  A    between atoms: C_9  and  C_13
    6  A    between atoms: C_10  and  C_26
    7  A    between atoms: C_12  and  C_26
    8  A    between atoms: C_15  and  N_16
    9  A    between atoms: C_15  and  C_19
   10  A    between atoms: C_15  and  C_22
   11  A    between atoms: C_22  and  C_29
                            x       y       z     vdW  Elec       q    Type
                         _______ _______ _______ _____ _____    ______ ____

>  <TORSDO>
F 11

$$$$
=
 OpenBabel11072412383D

 31 33  0  0  1  0  0  0  0  0999 V2000
  161.9300  208.8270  153.9010 C   0  0  0  0  0  2  0  0  0  0  0  0
  160.4910  207.5440  157.0610 C   0  0  0  0  0  1  0  0  0  0  0  0
  161.2800  210.4880  155.7280 C   0  0  0  0  0  0  0  0  0  0  0  0
  160.1170  211.1570  155.5250 C   0  0  0  0  0  0  0  0  0  0  0  0
  161.8530  207.3850  153.6860 N   0  0  0  0  0  0  0  0  0  0  0  0
  158.9260  210.4820  154.9330 C   0  0  0  0  0  2  0  0  0  0  0  0
  161.5060  209.0440  155.3270 C   0  0  1  0  0  3  0  0  0  0  0  0
  159.0480  208.2930  155.1410 C   0  0  0  0  0  2  0  0  0  0  0  0
  160.9690  206.8260  154.7240 C   0  0  0  0  0  2  0  0  0  0  0  0
  158.5450  209.4320  155.7680 O   0  0  0  0  0  0  0  0  0  0  0  0
  160.4730  207.9610  155.6030 C   0  0  2  0  0  0  0  0  0  0  0  0
  163.2120  210.1660  157.2570 C   0  0  0  0  0  1  0  0  0  0  0  0
  162.4480  211.1560  156.3960 C   0  0  0  0  0  2  0  0  0  0  0  0
  161.3530  207.1170  152.3270 C   0  0  2  0  0  3  0  0  0  0  0  0
  160.6360  205.7710  152.1950 C   0  0  0  0  0  2  0  0  0  0  0  0
  161.4070  204.8440  151.2730 C   0  0  0  0  0  2  0  0  0  0  0  0
  161.2050  203.6250  149.1760 N   0  0  0  0  0  1  0  0  0  0  0  0
  160.4610  204.1620  150.3030 C   0  0  0  0  0  2  0  0  0  0  0  0
  162.4790  207.2340  151.3010 C   0  0  0  0  0  2  0  0  0  0  0  0
  162.2190  209.6740  150.8520 C   0  0  0  0  0  3  0  0  0  0  0  0
  162.0380  208.4170  149.0000 C   0  0  0  0  0  0  0  0  0  0  0  0
  161.9540  210.5470  149.6620 C   0  0  0  0  0  3  0  0  0  0  0  0
  161.9990  207.2060  148.1340 C   0  0  0  0  0  1  0  0  0  0  0  0
  161.8530  209.6070  148.5480 N   0  0  0  0  0  0  0  0  0  0  0  0
  162.2760  208.4250  150.4260 C   0  0  2  0  0  3  0  0  0  0  0  0
  159.9510  212.5970  155.9120 C   0  0  0  0  0  2  0  0  0  0  0  0
  158.5770  213.1050  155.5040 C   0  0  0  0  0  2  0  0  0  0  0  0
  158.7030  214.1710  154.4300 C   0  0  0  0  0  2  0  0  0  0  0  0
  159.0930  212.8640  152.3410 O   0  0  0  0  0  0  0  0  0  0  0  0
  157.0770  213.8920  152.7090 O   0  0  0  0  0  1  0  0  0  0  0  0
  158.2440  213.6470  153.1110 C   0  0  0  0  0  0  0  0  0  0  0  0
  3 13  1  0  0  0  0
  4  3  2  0  0  0  0
  4 26  1  0  0  0  0
  5  1  1  0  0  0  0
  5  9  1  0  0  0  0
  6  4  1  0  0  0  0
  6 10  1  0  0  0  0
  7  1  1  6  0  0  0
  7 11  1  0  0  0  0
  7  3  1  0  0  0  0
  8 11  1  0  0  0  0
  8 10  1  0  0  0  0
  9 11  1  0  0  0  0
 11  2  1  1  0  0  0
 13 12  1  0  0  0  0
 14 19  1  6  0  0  0
 14  5  1  0  0  0  0
 15 14  1  0  0  0  0
 16 15  1  0  0  0  0
 17 18  1  0  0  0  0
 18 16  1  0  0  0  0
 21 25  1  0  0  0  0
 22 20  2  0  0  0  0
 23 21  1  0  0  0  0
 24 21  2  0  0  0  0
 24 22  1  0  0  0  0
 25 20  1  0  0  0  0
 25 19  1  1  0  0  0
 27 26  1  0  0  0  0
 28 27  1  0  0  0  0
 29 31  2  0  0  0  0
 30 31  1  0  0  0  0
 31 28  1  0  0  0  0
M  END
>  <MODEL>
8

>  <REMARK>
 VINA RESULT:      -3.9      3.214      6.578
  Name = 
  11 active torsions:
  status: ('A' for Active; 'I' for Inactive)
    1  A    between atoms: C_7  and  C_10
    2  A    between atoms: C_7  and  C_31
    3  A    between atoms: C_8  and  C_18
    4  A    between atoms: C_8  and  C_19
    5  A    between atoms: C_9  and  C_13
    6  A    between atoms: C_10  and  C_26
    7  A    between atoms: C_12  and  C_26
    8  A    between atoms: C_15  and  N_16
    9  A    between atoms: C_15  and  C_19
   10  A    between atoms: C_15  and  C_22
   11  A    between atoms: C_22  and  C_29
                            x       y       z     vdW  Elec       q    Type
                         _______ _______ _______ _____ _____    ______ ____

>  <TORSDO>
F 11

$$$$
=
 OpenBabel11072412383D

 31 33  0  0  1  0  0  0  0  0999 V2000
  159.1160  210.1600  154.8550 C   0  0  0  0  0  2  0  0  0  0  0  0
  162.7360  210.6970  155.4120 C   0  0  0  0  0  1  0  0  0  0  0  0
  160.6970  208.1590  154.7310 C   0  0  0  0  0  0  0  0  0  0  0  0
  161.0000  207.7290  153.4800 C   0  0  0  0  0  0  0  0  0  0  0  0
  159.2260  211.6030  155.0510 N   0  0  0  0  0  0  0  0  0  0  0  0
  161.2260  208.6910  152.3620 C   0  0  0  0  0  2  0  0  0  0  0  0
  160.4960  209.6150  155.0990 C   0  0  1  0  0  3  0  0  0  0  0  0
  161.7220  210.7020  153.1100 C   0  0  0  0  0  2  0  0  0  0  0  0
  160.6490  211.9640  154.9190 C   0  0  0  0  0  2  0  0  0  0  0  0
  162.3070  209.5090  152.6860 O   0  0  0  0  0  0  0  0  0  0  0  0
  161.4430  210.7050  154.6190 C   0  0  2  0  0  0  0  0  0  0  0  0
  159.0830  206.9600  156.1900 C   0  0  0  0  0  1  0  0  0  0  0  0
  160.5480  207.1870  155.8660 C   0  0  0  0  0  2  0  0  0  0  0  0
  158.3820  212.2990  154.0650 C   0  0  2  0  0  3  0  0  0  0  0  0
  159.1780  213.1550  153.0770 C   0  0  0  0  0  2  0  0  0  0  0  0
  158.7950  212.8140  151.6480 C   0  0  0  0  0  2  0  0  0  0  0  0
  157.1890  213.2530  149.8730 N   0  0  0  0  0  1  0  0  0  0  0  0
  157.5180  213.5340  151.2600 C   0  0  0  0  0  2  0  0  0  0  0  0
  157.3070  213.1310  154.7610 C   0  0  0  0  0  2  0  0  0  0  0  0
  156.0790  210.9900  155.1180 C   0  0  0  0  0  3  0  0  0  0  0  0
  155.3950  212.6330  156.4880 C   0  0  0  0  0  0  0  0  0  0  0  0
  154.9750  210.4950  156.0050 C   0  0  0  0  0  2  0  0  0  0  0  0
  155.3130  213.9780  157.1210 C   0  0  0  0  0  1  0  0  0  0  0  0
  154.6290  211.6540  156.8230 N   0  0  0  0  0  0  0  0  0  0  0  0
  156.3110  212.2510  155.4380 C   0  0  0  0  0  0  0  0  0  0  0  0
  161.1600  206.2730  153.1580 C   0  0  0  0  0  2  0  0  0  0  0  0
  161.0270  206.0400  151.6600 C   0  0  0  0  0  2  0  0  0  0  0  0
  161.8810  204.8600  151.2300 C   0  0  0  0  0  2  0  0  0  0  0  0
  160.5690  203.1810  152.5280 O   0  0  0  0  0  1  0  0  0  0  0  0
  160.9130  202.9000  150.2790 O   0  0  0  0  0  0  0  0  0  0  0  0
  161.1050  203.5890  151.3140 C   0  0  0  0  0  0  0  0  0  0  0  0
  1  5  1  0  0  0  0
  3  7  1  0  0  0  0
  3 13  1  0  0  0  0
  4  3  2  0  0  0  0
  6 10  1  0  0  0  0
  6  4  1  0  0  0  0
  7  1  1  6  0  0  0
  8 11  1  0  0  0  0
  9  5  1  0  0  0  0
 10  8  1  0  0  0  0
 11  9  1  0  0  0  0
 11  7  1  0  0  0  0
 11  2  1  1  0  0  0
 13 12  1  0  0  0  0
 14 15  1  1  0  0  0
 14 19  1  0  0  0  0
 14  5  1  0  0  0  0
 16 15  1  0  0  0  0
 17 18  1  0  0  0  0
 18 16  1  0  0  0  0
 19 25  1  0  0  0  0
 20 25  2  0  0  0  0
 20 22  1  0  0  0  0
 21 24  2  0  0  0  0
 21 23  1  0  0  0  0
 22 24  1  0  0  0  0
 25 21  1  0  0  0  0
 26  4  1  0  0  0  0
 27 26  1  0  0  0  0
 28 31  1  0  0  0  0
 28 27  1  0  0  0  0
 30 31  2  0  0  0  0
 31 29  1  0  0  0  0
M  END
>  <MODEL>
9

>  <REMARK>
 VINA RESULT:      -3.9      1.618      3.590
  Name = 
  11 active torsions:
  status: ('A' for Active; 'I' for Inactive)
    1  A    between atoms: C_7  and  C_10
    2  A    between atoms: C_7  and  C_31
    3  A    between atoms: C_8  and  C_18
    4  A    between atoms: C_8  and  C_19
    5  A    between atoms: C_9  and  C_13
    6  A    between atoms: C_10  and  C_26
    7  A    between atoms: C_12  and  C_26
    8  A    between atoms: C_15  and  N_16
    9  A    between atoms: C_15  and  C_19
   10  A    between atoms: C_15  and  C_22
   11  A    between atoms: C_22  and  C_29
                            x       y       z     vdW  Elec       q    Type
                         _______ _______ _______ _____ _____    ______ ____

>  <TORSDO>
F 11

$$$$
