=
 OpenBabel11072413403D

 59 64  0  0  1  0  0  0  0  0999 V2000
  159.9020  212.1170  146.4590 C   0  0  1  0  0  3  0  0  0  0  0  0
  155.5280  214.4530  147.2280 N   0  0  0  0  0  0  0  0  0  0  0  0
  160.1460  213.6760  148.4640 C   0  0  2  0  0  3  0  0  0  0  0  0
  158.7460  213.4860  148.6480 O   0  0  0  0  0  0  0  0  0  0  0  0
  158.0150  213.7400  146.2830 C   0  0  0  0  0  0  0  0  0  0  0  0
  155.7750  214.4300  145.8940 C   0  0  0  0  0  3  0  0  0  0  0  0
  157.7790  213.7880  147.6790 C   0  0  0  0  0  0  0  0  0  0  0  0
  160.7850  212.5660  147.6230 C   0  0  2  0  0  3  0  0  0  0  0  0
  159.3420  213.3200  145.6960 C   0  0  2  0  0  3  0  0  0  0  0  0
  160.6140  211.2630  145.6290 F   0  0  0  0  0  0  0  0  0  0  0  0
  156.5010  214.1370  148.1190 C   0  0  0  0  0  3  0  0  0  0  0  0
  162.0240  213.0010  147.1470 O   0  0  0  0  0  1  0  0  0  0  0  0
  157.0030  214.0750  145.4340 N   0  0  0  0  0  0  0  0  0  0  0  0
  159.1990  213.0110  144.3360 O   0  0  0  0  0  0  0  0  0  0  0  0
  159.3120  214.2330  143.6660 C   0  0  2  0  0  3  0  0  0  0  0  0
  158.3920  214.2410  142.4780 C   0  0  0  0  0  3  0  0  0  0  0  0
  160.7670  214.4390  143.2210 C   0  0  0  0  0  2  0  0  0  0  0  0
  161.0890  213.5760  142.0290 C   0  0  0  0  0  0  0  0  0  0  0  0
  160.1640  213.3000  141.1520 N   0  0  0  0  0  0  0  0  0  0  0  0
  158.8070  213.7440  141.3070 C   0  0  0  0  0  0  0  0  0  0  0  0
  158.3670  214.4510  138.7760 O   0  0  0  0  0  0  0  0  0  0  0  0
  156.4480  214.4060  140.3050 O   0  0  0  0  0  0  0  0  0  0  0  0
  157.7280  213.7180  139.9210 S   0  0  0  0  0  0  0  0  0  0  0  0
  156.4460  211.7120  138.5720 C   0  0  0  0  0  0  0  0  0  0  0  0
  158.6110  209.6490  137.8540 C   0  0  0  0  0  0  0  0  0  0  0  0
  159.4930  208.9810  137.0170 O   0  0  0  0  0  1  0  0  0  0  0  0
  157.4100  212.0470  139.4460 C   0  0  0  0  0  0  0  0  0  0  0  0
  156.1840  210.2680  138.2780 C   0  0  0  0  0  2  0  0  0  0  0  0
  159.2090  210.3740  139.0410 C   0  0  0  0  0  2  0  0  0  0  0  0
  158.2390  210.9610  140.0640 C   0  0  0  0  0  2  0  0  0  0  0  0
  157.3120  209.6400  137.5140 C   0  0  0  0  0  3  0  0  0  0  0  0
  154.3740  213.2380  137.3480 C   0  0  1  0  0  3  0  0  0  0  0  0
  155.5010  214.0260  137.2620 C   0  0  0  0  0  2  0  0  0  0  0  0
  155.6470  212.6920  137.9080 N   0  0  0  0  0  0  0  0  0  0  0  0
  152.9360  212.5320  139.2340 C   0  0  0  0  0  1  0  0  0  0  0  0
  153.5000  213.7220  138.4860 C   0  0  0  0  0  2  0  0  0  0  0  0
  162.3990  213.1250  141.8530 O   0  0  0  0  0  0  0  0  0  0  0  0
  163.4170  213.9240  141.2590 C   0  0  0  0  0  2  0  0  0  0  0  0
  163.8170  213.3620  140.0460 O   0  0  0  0  0  1  0  0  0  0  0  0
  160.8260  213.7890  149.8230 C   0  0  0  0  0  2  0  0  0  0  0  0
  160.5490  212.6100  150.6340 N   0  0  0  0  0  2  0  0  0  0  0  0
  159.9530  213.0480  151.8260 N   0  0  0  0  0  2  0  0  0  0  0  0
  159.5280  211.8710  152.5830 C   0  0  2  0  0  3  0  0  0  0  0  0
  158.2740  212.1700  153.3990 C   0  0  0  0  0  2  0  0  0  0  0  0
  158.1580  213.5440  153.6030 O   0  0  0  0  0  1  0  0  0  0  0  0
  160.6730  211.3500  153.4670 C   0  0  1  0  0  3  0  0  0  0  0  0
  160.1030  211.0780  154.8570 C   0  0  0  0  0  1  0  0  0  0  0  0
  161.1790  209.0600  153.8570 C   0  0  0  0  0  2  0  0  0  0  0  0
  161.2950  210.1440  152.8920 N   0  0  0  0  0  0  0  0  0  0  0  0
  160.5760  209.7460  151.8000 O   0  0  0  0  0  0  0  0  0  0  0  0
  161.0620  207.8150  153.0390 C   0  0  0  0  0  2  0  0  0  0  0  0
  160.8220  208.3670  151.6610 C   0  0  2  0  0  3  0  0  0  0  0  0
  162.0610  208.1380  150.8010 C   0  0  0  0  0  2  0  0  0  0  0  0
  161.4950  208.9290  148.6620 O   0  0  0  0  0  0  0  0  0  0  0  0
  161.6890  207.9440  149.3600 C   0  0  0  0  0  0  0  0  0  0  0  0
  161.5110  206.5760  148.7590 C   0  0  1  0  0  3  0  0  0  0  0  0
  160.2000  206.1380  148.9630 O   0  0  0  0  0  1  0  0  0  0  0  0
  162.9800  205.7670  147.0560 O   0  0  0  0  0  1  0  0  0  0  0  0
  161.8360  206.5370  147.2700 C   0  0  0  0  0  2  0  0  0  0  0  0
  1 10  1  6  0  0  0
  1  8  1  0  0  0  0
  2 11  1  0  0  0  0
  3  4  1  0  0  0  0
  3 40  1  1  0  0  0
  5  7  1  0  0  0  0
  6  2  2  0  0  0  0
  7 11  2  0  0  0  0
  7  4  1  0  0  0  0
  8 12  1  6  0  0  0
  8  3  1  0  0  0  0
  9 14  1  6  0  0  0
  9  5  1  0  0  0  0
  9  1  1  0  0  0  0
 13  6  1  0  0  0  0
 13  5  2  0  0  0  0
 15 14  1  6  0  0  0
 16 15  1  0  0  0  0
 17 15  1  0  0  0  0
 18 17  1  0  0  0  0
 19 20  1  0  0  0  0
 19 18  2  0  0  0  0
 20 16  2  0  0  0  0
 21 23  2  0  0  0  0
 23 22  2  0  0  0  0
 23 20  1  0  0  0  0
 24 27  2  0  0  0  0
 25 29  1  0  0  0  0
 26 25  1  0  0  0  0
 27 23  1  0  0  0  0
 27 30  1  0  0  0  0
 28 24  1  0  0  0  0
 29 30  1  0  0  0  0
 31 25  2  0  0  0  0
 31 28  1  0  0  0  0
 32 34  1  0  0  0  0
 32 36  1  1  0  0  0
 33 32  1  0  0  0  0
 33 34  1  0  0  0  0
 34 24  1  0  0  0  0
 36 35  1  0  0  0  0
 37 18  1  0  0  0  0
 38 37  1  0  0  0  0
 39 38  1  0  0  0  0
 40 41  1  0  0  0  0
 41 42  1  0  0  0  0
 42 43  1  0  0  0  0
 43 44  1  1  0  0  0
 43 46  1  0  0  0  0
 44 45  1  0  0  0  0
 46 47  1  1  0  0  0
 49 46  1  0  0  0  0
 49 48  1  0  0  0  0
 50 49  1  0  0  0  0
 51 48  1  0  0  0  0
 52 53  1  6  0  0  0
 52 50  1  0  0  0  0
 52 51  1  0  0  0  0
 54 55  2  0  0  0  0
 55 53  1  0  0  0  0
 56 57  1  6  0  0  0
 56 55  1  0  0  0  0
 58 59  1  0  0  0  0
 59 56  1  0  0  0  0
M  END
>  <MODEL>
1

>  <REMARK>
 VINA RESULT:      -4.6      0.000      0.000
  Name = 
  19 active torsions:
  status: ('A' for Active; 'I' for Inactive)
    1  A    between atoms: C_2  and  O_26
    2  A    between atoms: C_3  and  N_45
    3  A    between atoms: C_4  and  C_21
    4  A    between atoms: C_6  and  O_38
    5  A    between atoms: C_7  and  N_27
    6  A    between atoms: C_7  and  C_29
    7  A    between atoms: C_7  and  C_43
    8  A    between atoms: C_16  and  C_37
    9  A    between atoms: N_17  and  N_27
   10  A    between atoms: N_17  and  C_37
   11  A    between atoms: C_18  and  C_47
   12  A    between atoms: C_18  and  C_56
   13  A    between atoms: C_22  and  S_25
   14  A    between atoms: N_23  and  C_29
   15  A    between atoms: S_25  and  C_59
   16  A    between atoms: O_26  and  C_46
   17  A    between atoms: C_28  and  O_38
   18  A    between atoms: C_36  and  C_53
   19  A    between atoms: C_36  and  C_56
                            x       y       z     vdW  Elec       q    Type
                         _______ _______ _______ _____ _____    ______ ____

>  <TORSDO>
F 19

$$$$
=
 OpenBabel11072413403D

 59 64  0  0  1  0  0  0  0  0999 V2000
  161.0700  208.4510  151.3990 C   0  0  1  0  0  3  0  0  0  0  0  0
  159.7550  208.8610  156.2240 N   0  0  0  0  0  0  0  0  0  0  0  0
  161.9480  206.4170  152.6650 C   0  0  2  0  0  3  0  0  0  0  0  0
  160.8580  206.6320  153.5560 O   0  0  0  0  0  0  0  0  0  0  0  0
  161.0560  209.1000  153.8090 C   0  0  0  0  0  0  0  0  0  0  0  0
  160.1760  210.0750  155.7880 C   0  0  0  0  0  3  0  0  0  0  0  0
  160.6470  207.8230  154.2660 C   0  0  0  0  0  0  0  0  0  0  0  0
  161.7320  207.0770  151.2990 C   0  0  2  0  0  3  0  0  0  0  0  0
  161.7390  209.3070  152.4770 C   0  0  2  0  0  3  0  0  0  0  0  0
  161.0850  209.0730  150.1600 F   0  0  0  0  0  0  0  0  0  0  0  0
  159.9750  207.7450  155.4870 C   0  0  0  0  0  3  0  0  0  0  0  0
  162.9570  207.1800  150.6360 O   0  0  0  0  0  1  0  0  0  0  0  0
  160.8150  210.1870  154.5940 N   0  0  0  0  0  0  0  0  0  0  0  0
  161.7030  210.6610  152.1150 O   0  0  0  0  0  0  0  0  0  0  0  0
  160.6040  210.7850  151.2590 C   0  0  2  0  0  3  0  0  0  0  0  0
  161.0600  211.3210  149.9310 C   0  0  0  0  0  3  0  0  0  0  0  0
  159.5690  211.7250  151.8930 C   0  0  0  0  0  2  0  0  0  0  0  0
  160.0140  213.1600  151.7860 C   0  0  0  0  0  0  0  0  0  0  0  0
  160.7200  213.5520  150.7640 N   0  0  0  0  0  0  0  0  0  0  0  0
  161.1540  212.6420  149.7400 C   0  0  0  0  0  0  0  0  0  0  0  0
  162.4890  212.2160  147.4750 O   0  0  0  0  0  0  0  0  0  0  0  0
  162.6150  214.4530  148.4780 O   0  0  0  0  0  0  0  0  0  0  0  0
  161.7170  213.2780  148.2030 S   0  0  0  0  0  0  0  0  0  0  0  0
  160.4130  213.9500  145.8930 C   0  0  0  0  0  0  0  0  0  0  0  0
  157.5710  212.8050  146.1550 C   0  0  0  0  0  0  0  0  0  0  0  0
  156.5370  211.9140  145.9010 O   0  0  0  0  0  1  0  0  0  0  0  0
  160.3340  213.7780  147.2230 C   0  0  0  0  0  0  0  0  0  0  0  0
  159.2190  214.4500  145.1410 C   0  0  0  0  0  2  0  0  0  0  0  0
  158.0200  212.9380  147.5950 C   0  0  0  0  0  2  0  0  0  0  0  0
  159.0300  214.0390  147.9140 C   0  0  0  0  0  2  0  0  0  0  0  0
  158.1180  213.4330  145.1010 C   0  0  0  0  0  3  0  0  0  0  0  0
  162.4120  212.9990  144.0980 C   0  0  1  0  0  3  0  0  0  0  0  0
  163.0500  213.9320  144.8870 C   0  0  0  0  0  2  0  0  0  0  0  0
  161.6070  213.6770  145.1590 N   0  0  0  0  0  0  0  0  0  0  0  0
  163.3210  214.2250  142.1500 C   0  0  0  0  0  1  0  0  0  0  0  0
  162.0750  213.6120  142.7550 C   0  0  0  0  0  2  0  0  0  0  0  0
  159.6110  214.0690  152.7690 O   0  0  0  0  0  0  0  0  0  0  0  0
  158.2450  214.2860  153.1050 C   0  0  0  0  0  2  0  0  0  0  0  0
  157.4240  213.5110  152.2850 O   0  0  0  0  0  1  0  0  0  0  0  0
  162.1920  204.9200  152.5140 C   0  0  0  0  0  2  0  0  0  0  0  0
  160.9390  204.1840  152.6190 N   0  0  0  0  0  2  0  0  0  0  0  0
  161.1380  202.9250  152.0310 N   0  0  0  0  0  2  0  0  0  0  0  0
  161.2090  203.1040  150.5820 C   0  0  2  0  0  3  0  0  0  0  0  0
  160.1360  204.0740  150.0980 C   0  0  0  0  0  2  0  0  0  0  0  0
  160.6500  204.8880  149.0900 O   0  0  0  0  0  1  0  0  0  0  0  0
  161.1190  201.7490  149.8610 C   0  0  1  0  0  3  0  0  0  0  0  0
  159.6970  201.2220  150.0340 C   0  0  0  0  0  1  0  0  0  0  0  0
  161.4330  200.5440  147.8360 C   0  0  0  0  0  2  0  0  0  0  0  0
  161.4820  201.8690  148.4380 N   0  0  0  0  0  0  0  0  0  0  0  0
  160.5280  202.6040  147.7910 O   0  0  0  0  0  0  0  0  0  0  0  0
  161.0250  200.7700  146.4170 C   0  0  0  0  0  2  0  0  0  0  0  0
  160.5890  202.2080  146.4420 C   0  0  2  0  0  3  0  0  0  0  0  0
  161.6070  203.0590  145.6900 C   0  0  0  0  0  2  0  0  0  0  0  0
  160.0630  203.9440  144.1560 O   0  0  0  0  0  0  0  0  0  0  0  0
  160.9370  204.1950  144.9730 C   0  0  0  0  0  0  0  0  0  0  0  0
  161.3340  205.6280  145.2010 C   0  0  1  0  0  3  0  0  0  0  0  0
  160.2400  206.3480  145.6890 O   0  0  0  0  0  1  0  0  0  0  0  0
  162.1530  206.6030  147.2240 O   0  0  0  0  0  1  0  0  0  0  0  0
  162.5090  205.7710  146.1620 C   0  0  0  0  0  2  0  0  0  0  0  0
  1 10  1  6  0  0  0
  1  9  1  0  0  0  0
  3 40  1  6  0  0  0
  3  4  1  0  0  0  0
  4  7  1  0  0  0  0
  5  7  2  0  0  0  0
  5 13  1  0  0  0  0
  6  2  1  0  0  0  0
  7 11  1  0  0  0  0
  8 12  1  1  0  0  0
  8  1  1  0  0  0  0
  8  3  1  0  0  0  0
  9 14  1  6  0  0  0
  9  5  1  0  0  0  0
 11  2  2  0  0  0  0
 13  6  2  0  0  0  0
 15 17  1  0  0  0  0
 15 14  1  1  0  0  0
 16 15  1  0  0  0  0
 18 17  1  0  0  0  0
 18 37  1  0  0  0  0
 19 18  2  0  0  0  0
 20 16  2  0  0  0  0
 20 19  1  0  0  0  0
 21 23  2  0  0  0  0
 23 22  2  0  0  0  0
 23 20  1  0  0  0  0
 24 27  2  0  0  0  0
 25 29  1  0  0  0  0
 26 25  1  0  0  0  0
 27 30  1  0  0  0  0
 27 23  1  0  0  0  0
 28 24  1  0  0  0  0
 29 30  1  0  0  0  0
 31 28  1  0  0  0  0
 31 25  2  0  0  0  0
 32 36  1  6  0  0  0
 32 33  1  0  0  0  0
 32 34  1  0  0  0  0
 33 34  1  0  0  0  0
 34 24  1  0  0  0  0
 35 36  1  0  0  0  0
 37 38  1  0  0  0  0
 39 38  1  0  0  0  0
 40 41  1  0  0  0  0
 42 41  1  0  0  0  0
 43 44  1  6  0  0  0
 43 42  1  0  0  0  0
 45 44  1  0  0  0  0
 46 47  1  6  0  0  0
 46 43  1  0  0  0  0
 48 49  1  0  0  0  0
 49 46  1  0  0  0  0
 50 49  1  0  0  0  0
 51 52  1  0  0  0  0
 51 48  1  0  0  0  0
 52 53  1  6  0  0  0
 52 50  1  0  0  0  0
 54 55  2  0  0  0  0
 55 56  1  0  0  0  0
 55 53  1  0  0  0  0
 56 57  1  1  0  0  0
 56 59  1  0  0  0  0
 59 58  1  0  0  0  0
M  END
>  <MODEL>
2

>  <REMARK>
 VINA RESULT:      -4.2      4.625      9.079
  Name = 
  19 active torsions:
  status: ('A' for Active; 'I' for Inactive)
    1  A    between atoms: C_2  and  O_26
    2  A    between atoms: C_3  and  N_45
    3  A    between atoms: C_4  and  C_21
    4  A    between atoms: C_6  and  O_38
    5  A    between atoms: C_7  and  N_27
    6  A    between atoms: C_7  and  C_29
    7  A    between atoms: C_7  and  C_43
    8  A    between atoms: C_16  and  C_37
    9  A    between atoms: N_17  and  N_27
   10  A    between atoms: N_17  and  C_37
   11  A    between atoms: C_18  and  C_47
   12  A    between atoms: C_18  and  C_56
   13  A    between atoms: C_22  and  S_25
   14  A    between atoms: N_23  and  C_29
   15  A    between atoms: S_25  and  C_59
   16  A    between atoms: O_26  and  C_46
   17  A    between atoms: C_28  and  O_38
   18  A    between atoms: C_36  and  C_53
   19  A    between atoms: C_36  and  C_56
                            x       y       z     vdW  Elec       q    Type
                         _______ _______ _______ _____ _____    ______ ____

>  <TORSDO>
F 19

$$$$
=
 OpenBabel11072413403D

 59 64  0  0  1  0  0  0  0  0999 V2000
  159.9820  211.7880  146.8140 C   0  0  1  0  0  3  0  0  0  0  0  0
  155.8020  214.4530  147.5960 N   0  0  0  0  0  0  0  0  0  0  0  0
  160.4040  213.4380  148.7140 C   0  0  2  0  0  3  0  0  0  0  0  0
  159.0030  213.3530  148.9570 O   0  0  0  0  0  0  0  0  0  0  0  0
  158.1990  213.5230  146.6080 C   0  0  0  0  0  0  0  0  0  0  0  0
  155.9960  214.3390  146.2580 C   0  0  0  0  0  3  0  0  0  0  0  0
  158.0210  213.6650  148.0070 C   0  0  0  0  0  0  0  0  0  0  0  0
  160.9360  212.2420  147.9180 C   0  0  2  0  0  3  0  0  0  0  0  0
  159.4730  212.9820  146.0020 C   0  0  2  0  0  3  0  0  0  0  0  0
  160.6040  210.8440  146.0120 F   0  0  0  0  0  0  0  0  0  0  0  0
  156.7860  214.1230  148.4690 C   0  0  0  0  0  3  0  0  0  0  0  0
  162.1820  212.5660  147.3750 O   0  0  0  0  0  1  0  0  0  0  0  0
  157.1790  213.8760  145.7770 N   0  0  0  0  0  0  0  0  0  0  0  0
  159.2580  212.6070  144.6680 O   0  0  0  0  0  0  0  0  0  0  0  0
  159.2120  213.8070  143.9500 C   0  0  2  0  0  3  0  0  0  0  0  0
  158.7390  213.5360  142.5500 C   0  0  0  0  0  3  0  0  0  0  0  0
  160.6080  214.4440  143.9330 C   0  0  0  0  0  2  0  0  0  0  0  0
  161.5140  213.7210  142.9720 C   0  0  0  0  0  0  0  0  0  0  0  0
  161.0240  213.1790  141.8930 N   0  0  0  0  0  0  0  0  0  0  0  0
  159.6180  213.1900  141.6020 C   0  0  0  0  0  0  0  0  0  0  0  0
  159.8180  213.7030  138.9960 O   0  0  0  0  0  0  0  0  0  0  0  0
  157.6010  213.1430  139.8880 O   0  0  0  0  0  0  0  0  0  0  0  0
  159.0710  212.8380  139.9700 S   0  0  0  0  0  0  0  0  0  0  0  0
  158.5210  210.3980  138.8620 C   0  0  0  0  0  0  0  0  0  0  0  0
  161.2230  209.2480  137.9480 C   0  0  0  0  0  0  0  0  0  0  0  0
  162.2030  208.8960  137.0300 O   0  0  0  0  0  1  0  0  0  0  0  0
  159.3690  211.1380  139.5960 C   0  0  0  0  0  0  0  0  0  0  0  0
  158.8020  208.9420  138.6530 C   0  0  0  0  0  2  0  0  0  0  0  0
  161.6180  210.2360  139.0260 C   0  0  0  0  0  2  0  0  0  0  0  0
  160.6090  210.4950  140.1420 C   0  0  0  0  0  2  0  0  0  0  0  0
  159.9990  208.7250  137.7740 C   0  0  0  0  0  3  0  0  0  0  0  0
  155.8710  211.0530  138.0450 C   0  0  1  0  0  3  0  0  0  0  0  0
  156.6840  211.9490  137.3840 C   0  0  0  0  0  2  0  0  0  0  0  0
  157.3450  210.9500  138.2710 N   0  0  0  0  0  0  0  0  0  0  0  0
  153.9830  210.9790  139.6430 C   0  0  0  0  0  1  0  0  0  0  0  0
  155.2340  211.7300  139.2410 C   0  0  0  0  0  2  0  0  0  0  0  0
  162.8880  213.6900  143.2290 O   0  0  0  0  0  0  0  0  0  0  0  0
  163.4290  213.2720  144.4780 C   0  0  0  0  0  2  0  0  0  0  0  0
  163.0590  214.1690  145.4810 O   0  0  0  0  0  1  0  0  0  0  0  0
  161.1410  213.5810  150.0400 C   0  0  0  0  0  2  0  0  0  0  0  0
  161.1940  212.3030  150.7380 N   0  0  0  0  0  2  0  0  0  0  0  0
  160.2740  212.3610  151.7960 N   0  0  0  0  0  2  0  0  0  0  0  0
  160.1830  211.0310  152.3950 C   0  0  2  0  0  3  0  0  0  0  0  0
  159.2650  211.0430  153.6130 C   0  0  0  0  0  2  0  0  0  0  0  0
  157.9320  211.0280  153.2030 O   0  0  0  0  0  1  0  0  0  0  0  0
  161.5810  210.4930  152.7410 C   0  0  1  0  0  3  0  0  0  0  0  0
  161.7250  210.5090  154.2610 C   0  0  0  0  0  1  0  0  0  0  0  0
  161.6180  208.1750  153.2670 C   0  0  0  0  0  2  0  0  0  0  0  0
  161.7910  209.1410  152.1930 N   0  0  0  0  0  0  0  0  0  0  0  0
  160.8070  208.8670  151.2850 O   0  0  0  0  0  0  0  0  0  0  0  0
  161.0670  206.9500  152.6110 C   0  0  0  0  0  2  0  0  0  0  0  0
  160.7020  207.4640  151.2470 C   0  0  2  0  0  3  0  0  0  0  0  0
  161.6690  206.8930  150.2150 C   0  0  0  0  0  2  0  0  0  0  0  0
  159.7440  206.5650  148.9070 O   0  0  0  0  0  0  0  0  0  0  0  0
  160.9290  206.3010  149.0510 C   0  0  0  0  0  0  0  0  0  0  0  0
  161.5920  205.3630  148.0780 C   0  0  1  0  0  3  0  0  0  0  0  0
  161.2250  204.0460  148.3680 O   0  0  0  0  0  1  0  0  0  0  0  0
  162.3930  205.5510  145.8340 O   0  0  0  0  0  1  0  0  0  0  0  0
  161.2520  205.6790  146.6260 C   0  0  0  0  0  2  0  0  0  0  0  0
  1 10  1  6  0  0  0
  1  8  1  0  0  0  0
  2 11  1  0  0  0  0
  3  4  1  0  0  0  0
  3 40  1  1  0  0  0
  5  7  1  0  0  0  0
  6  2  2  0  0  0  0
  7 11  2  0  0  0  0
  7  4  1  0  0  0  0
  8 12  1  6  0  0  0
  8  3  1  0  0  0  0
  9 14  1  6  0  0  0
  9  5  1  0  0  0  0
  9  1  1  0  0  0  0
 13  6  1  0  0  0  0
 13  5  2  0  0  0  0
 15 14  1  1  0  0  0
 16 15  1  0  0  0  0
 17 15  1  0  0  0  0
 18 37  1  0  0  0  0
 18 17  1  0  0  0  0
 19 18  2  0  0  0  0
 20 19  1  0  0  0  0
 20 16  2  0  0  0  0
 21 23  2  0  0  0  0
 22 23  2  0  0  0  0
 23 20  1  0  0  0  0
 24 27  2  0  0  0  0
 25 29  1  0  0  0  0
 26 25  1  0  0  0  0
 27 23  1  0  0  0  0
 27 30  1  0  0  0  0
 28 24  1  0  0  0  0
 29 30  1  0  0  0  0
 31 25  2  0  0  0  0
 31 28  1  0  0  0  0
 32 34  1  0  0  0  0
 32 36  1  1  0  0  0
 33 32  1  0  0  0  0
 33 34  1  0  0  0  0
 34 24  1  0  0  0  0
 36 35  1  0  0  0  0
 37 38  1  0  0  0  0
 38 39  1  0  0  0  0
 40 41  1  0  0  0  0
 41 42  1  0  0  0  0
 42 43  1  0  0  0  0
 43 46  1  0  0  0  0
 43 44  1  1  0  0  0
 45 44  1  0  0  0  0
 46 47  1  1  0  0  0
 49 46  1  0  0  0  0
 49 48  1  0  0  0  0
 50 49  1  0  0  0  0
 51 48  1  0  0  0  0
 52 53  1  6  0  0  0
 52 50  1  0  0  0  0
 52 51  1  0  0  0  0
 54 55  2  0  0  0  0
 55 53  1  0  0  0  0
 56 57  1  1  0  0  0
 56 55  1  0  0  0  0
 58 59  1  0  0  0  0
 59 56  1  0  0  0  0
M  END
>  <MODEL>
3

>  <REMARK>
 VINA RESULT:      -3.7      1.443      1.806
  Name = 
  19 active torsions:
  status: ('A' for Active; 'I' for Inactive)
    1  A    between atoms: C_2  and  O_26
    2  A    between atoms: C_3  and  N_45
    3  A    between atoms: C_4  and  C_21
    4  A    between atoms: C_6  and  O_38
    5  A    between atoms: C_7  and  N_27
    6  A    between atoms: C_7  and  C_29
    7  A    between atoms: C_7  and  C_43
    8  A    between atoms: C_16  and  C_37
    9  A    between atoms: N_17  and  N_27
   10  A    between atoms: N_17  and  C_37
   11  A    between atoms: C_18  and  C_47
   12  A    between atoms: C_18  and  C_56
   13  A    between atoms: C_22  and  S_25
   14  A    between atoms: N_23  and  C_29
   15  A    between atoms: S_25  and  C_59
   16  A    between atoms: O_26  and  C_46
   17  A    between atoms: C_28  and  O_38
   18  A    between atoms: C_36  and  C_53
   19  A    between atoms: C_36  and  C_56
                            x       y       z     vdW  Elec       q    Type
                         _______ _______ _______ _____ _____    ______ ____

>  <TORSDO>
F 19

$$$$
