=
 OpenBabel11072411153D

 28 32  0  0  1  0  0  0  0  0999 V2000
  160.5130  211.4250  154.6340 C   0  0  0  0  0  3  0  0  0  0  0  0
  161.1770  206.5390  153.8420 C   0  0  0  0  0  3  0  0  0  0  0  0
  161.0510  207.0780  152.5620 C   0  0  0  0  0  0  0  0  0  0  0  0
  160.8450  208.4500  152.4140 C   0  0  0  0  0  3  0  0  0  0  0  0
  160.8380  209.4820  155.9560 C   0  0  0  0  0  3  0  0  0  0  0  0
  160.9030  208.6880  154.8140 C   0  0  0  0  0  0  0  0  0  0  0  0
  160.6470  210.8210  155.8430 N   0  0  0  0  0  0  0  0  0  0  0  0
  161.1000  207.3460  154.9320 N   0  0  0  0  0  0  0  0  0  0  0  0
  160.5670  210.6850  153.4400 C   0  0  0  0  0  0  0  0  0  0  0  0
  160.7660  209.2840  153.5390 C   0  0  0  0  0  0  0  0  0  0  0  0
  161.1470  206.2410  151.4160 N   0  0  0  0  0  0  0  0  0  0  0  0
  161.1820  203.8020  148.6150 C   0  0  0  0  0  2  0  0  0  0  0  0
  160.7110  202.9130  149.7620 C   0  0  0  0  0  2  0  0  0  0  0  0
  160.7310  203.7760  151.0140 C   0  0  0  0  0  2  0  0  0  0  0  0
  161.9160  205.6420  150.2810 C   0  0  2  0  0  3  0  0  0  0  0  0
  161.0820  205.2410  149.1010 C   0  0  2  0  0  0  0  0  0  0  0  0
  160.5980  205.1900  150.5050 C   0  0  2  0  0  0  0  0  0  0  0  0
  160.4130  206.3260  148.2730 C   0  0  0  0  0  2  0  0  0  0  0  0
  160.6640  206.1190  146.9160 O   0  0  0  0  0  1  0  0  0  0  0  0
  159.3830  212.4020  151.9810 N   0  0  0  0  0  2  0  0  0  0  0  0
  161.2000  211.1760  151.2020 O   0  0  0  0  0  0  0  0  0  0  0  0
  160.4130  211.4220  152.1570 C   0  0  0  0  0  0  0  0  0  0  0  0
  159.1630  213.1110  150.7280 C   0  0  1  0  0  3  0  0  0  0  0  0
  157.0780  213.4390  149.2330 C   0  0  0  0  0  1  0  0  0  0  0  0
  157.0450  213.7810  151.5560 O   0  0  0  0  0  0  0  0  0  0  0  0
  157.7110  213.4690  150.5820 C   0  0  0  0  0  0  0  0  0  0  0  0
  160.0330  214.3580  150.6980 C   0  0  0  0  0  2  0  0  0  0  0  0
  160.7940  214.4430  149.3870 C   0  0  0  0  0  1  0  0  0  0  0  0
  1  7  1  0  0  0  0
  2  8  1  0  0  0  0
  3  2  2  0  0  0  0
  4  3  1  0  0  0  0
  4 10  2  0  0  0  0
  6  8  2  0  0  0  0
  6  5  1  0  0  0  0
  7  5  2  0  0  0  0
  9 10  1  0  0  0  0
  9  1  2  0  0  0  0
 10  6  1  0  0  0  0
 11  3  1  0  0  0  0
 12 16  1  0  0  0  0
 12 13  1  0  0  0  0
 13 14  1  0  0  0  0
 15 17  1  0  0  0  0
 15 11  1  6  0  0  0
 16 18  1  6  0  0  0
 16 15  1  0  0  0  0
 16 17  1  0  0  0  0
 17 14  1  1  0  0  0
 17 11  1  0  0  0  0
 19 18  1  0  0  0  0
 20 22  1  0  0  0  0
 21 22  2  0  0  0  0
 22  9  1  0  0  0  0
 23 27  1  1  0  0  0
 23 20  1  0  0  0  0
 24 26  1  0  0  0  0
 26 23  1  0  0  0  0
 26 25  2  0  0  0  0
 28 27  1  0  0  0  0
M  END
>  <MODEL>
1

>  <REMARK>
 VINA RESULT:      -7.6      0.000      0.000
  Name = 
  6 active torsions:
  status: ('A' for Active; 'I' for Inactive)
    1  A    between atoms: C_1  and  C_23
    2  A    between atoms: C_6  and  N_9
    3  A    between atoms: C_7  and  N_8
    4  A    between atoms: C_7  and  C_14
    5  A    between atoms: C_7  and  C_27
    6  A    between atoms: C_25  and  C_26
                            x       y       z     vdW  Elec       q    Type
                         _______ _______ _______ _____ _____    ______ ____

>  <TORSDO>
F 6

$$$$
=
 OpenBabel11072411153D

 28 32  0  0  1  0  0  0  0  0999 V2000
  161.8310  210.5270  151.0020 C   0  0  0  0  0  3  0  0  0  0  0  0
  161.6120  206.5510  147.9880 C   0  0  0  0  0  3  0  0  0  0  0  0
  161.3370  206.0350  149.2550 C   0  0  0  0  0  0  0  0  0  0  0  0
  161.3220  206.8920  150.3550 C   0  0  0  0  0  3  0  0  0  0  0  0
  162.1040  210.0890  148.6870 C   0  0  0  0  0  3  0  0  0  0  0  0
  161.8510  208.7350  148.8890 C   0  0  0  0  0  0  0  0  0  0  0  0
  162.0890  210.9480  149.7370 N   0  0  0  0  0  0  0  0  0  0  0  0
  161.8620  207.8770  147.8330 N   0  0  0  0  0  0  0  0  0  0  0  0
  161.5680  209.1750  151.2800 C   0  0  0  0  0  0  0  0  0  0  0  0
  161.5800  208.2620  150.1940 C   0  0  0  0  0  0  0  0  0  0  0  0
  161.0580  204.6510  149.4220 N   0  0  0  0  0  0  0  0  0  0  0  0
  160.5410  200.9740  149.5470 C   0  0  0  0  0  2  0  0  0  0  0  0
  161.0530  201.1430  148.1190 C   0  0  0  0  0  2  0  0  0  0  0  0
  161.2300  202.6370  147.8970 C   0  0  0  0  0  2  0  0  0  0  0  0
  160.1310  203.5220  149.7490 C   0  0  2  0  0  3  0  0  0  0  0  0
  160.8060  202.2870  150.2690 C   0  0  2  0  0  0  0  0  0  0  0  0
  161.4250  203.2080  149.2800 C   0  0  2  0  0  0  0  0  0  0  0  0
  161.4730  202.3360  151.6340 C   0  0  0  0  0  2  0  0  0  0  0  0
  160.7450  203.1570  152.4960 O   0  0  0  0  0  1  0  0  0  0  0  0
  160.7990  209.7520  153.6370 N   0  0  0  0  0  2  0  0  0  0  0  0
  161.5060  207.6090  153.0680 O   0  0  0  0  0  0  0  0  0  0  0  0
  161.2940  208.7950  152.6920 C   0  0  0  0  0  0  0  0  0  0  0  0
  160.5650  209.4380  155.0410 C   0  0  1  0  0  3  0  0  0  0  0  0
  162.1250  208.9410  157.0420 C   0  0  0  0  0  1  0  0  0  0  0  0
  162.4830  210.7290  155.5620 O   0  0  0  0  0  0  0  0  0  0  0  0
  161.7780  209.7780  155.8590 C   0  0  0  0  0  0  0  0  0  0  0  0
  159.3490  210.2100  155.5300 C   0  0  0  0  0  2  0  0  0  0  0  0
  158.9200  211.2360  154.4970 C   0  0  0  0  0  1  0  0  0  0  0  0
  1  9  1  0  0  0  0
  2  3  1  0  0  0  0
  3 11  1  0  0  0  0
  3  4  2  0  0  0  0
  5  6  2  0  0  0  0
  5  7  1  0  0  0  0
  6 10  1  0  0  0  0
  7  1  2  0  0  0  0
  8  2  2  0  0  0  0
  8  6  1  0  0  0  0
  9 22  1  0  0  0  0
 10  4  1  0  0  0  0
 10  9  2  0  0  0  0
 12 16  1  0  0  0  0
 13 12  1  0  0  0  0
 14 13  1  0  0  0  0
 15 11  1  1  0  0  0
 15 16  1  0  0  0  0
 16 18  1  1  0  0  0
 17 14  1  6  0  0  0
 17 11  1  0  0  0  0
 17 15  1  0  0  0  0
 17 16  1  0  0  0  0
 18 19  1  0  0  0  0
 20 23  1  0  0  0  0
 22 21  2  0  0  0  0
 22 20  1  0  0  0  0
 23 27  1  1  0  0  0
 23 26  1  0  0  0  0
 25 26  2  0  0  0  0
 26 24  1  0  0  0  0
 28 27  1  0  0  0  0
M  END
>  <MODEL>
2

>  <REMARK>
 VINA RESULT:      -7.4      3.183      5.236
  Name = 
  6 active torsions:
  status: ('A' for Active; 'I' for Inactive)
    1  A    between atoms: C_1  and  C_23
    2  A    between atoms: C_6  and  N_9
    3  A    between atoms: C_7  and  N_8
    4  A    between atoms: C_7  and  C_14
    5  A    between atoms: C_7  and  C_27
    6  A    between atoms: C_25  and  C_26
                            x       y       z     vdW  Elec       q    Type
                         _______ _______ _______ _____ _____    ______ ____

>  <TORSDO>
F 6

$$$$
=
 OpenBabel11072411153D

 28 32  0  0  1  0  0  0  0  0999 V2000
  161.1940  205.0590  151.3080 C   0  0  0  0  0  3  0  0  0  0  0  0
  162.0080  209.9690  151.7170 C   0  0  0  0  0  3  0  0  0  0  0  0
  161.7540  209.7760  150.3590 C   0  0  0  0  0  0  0  0  0  0  0  0
  161.4870  208.4920  149.8880 C   0  0  0  0  0  3  0  0  0  0  0  0
  161.7160  206.5920  153.0420 C   0  0  0  0  0  3  0  0  0  0  0  0
  161.7310  207.6480  152.1350 C   0  0  0  0  0  0  0  0  0  0  0  0
  161.4500  205.3320  152.6140 N   0  0  0  0  0  0  0  0  0  0  0  0
  161.9920  208.9110  152.5690 N   0  0  0  0  0  0  0  0  0  0  0  0
  161.1940  206.0750  150.3380 C   0  0  0  0  0  0  0  0  0  0  0  0
  161.4690  207.4000  150.7670 C   0  0  0  0  0  0  0  0  0  0  0  0
  161.7530  210.8820  149.4640 N   0  0  0  0  0  0  0  0  0  0  0  0
  162.0790  213.6330  146.9890 C   0  0  0  0  0  2  0  0  0  0  0  0
  163.5000  213.0750  146.9860 C   0  0  0  0  0  2  0  0  0  0  0  0
  163.5350  211.9750  148.0360 C   0  0  0  0  0  2  0  0  0  0  0  0
  161.5230  212.3280  149.1540 C   0  0  2  0  0  3  0  0  0  0  0  0
  161.2080  212.6190  147.7160 C   0  0  2  0  0  0  0  0  0  0  0  0
  162.1030  211.5160  148.1550 C   0  0  2  0  0  0  0  0  0  0  0  0
  159.8890  212.1300  147.1420 C   0  0  0  0  0  2  0  0  0  0  0  0
  159.9500  212.1080  145.7470 O   0  0  0  0  0  1  0  0  0  0  0  0
  161.5070  204.5400  148.3320 N   0  0  0  0  0  2  0  0  0  0  0  0
  160.1140  206.4020  148.2450 O   0  0  0  0  0  0  0  0  0  0  0  0
  160.9030  205.6940  148.9300 C   0  0  0  0  0  0  0  0  0  0  0  0
  161.2910  204.1570  146.9430 C   0  0  1  0  0  3  0  0  0  0  0  0
  161.8840  205.5300  144.8330 C   0  0  0  0  0  1  0  0  0  0  0  0
  163.5070  204.7450  146.3390 O   0  0  0  0  0  0  0  0  0  0  0  0
  162.3200  204.8040  146.0600 C   0  0  0  0  0  0  0  0  0  0  0  0
  161.3540  202.6420  146.8260 C   0  0  0  0  0  2  0  0  0  0  0  0
  160.9210  201.9900  148.1270 C   0  0  0  0  0  1  0  0  0  0  0  0
  1  7  1  0  0  0  0
  2  8  1  0  0  0  0
  3  2  2  0  0  0  0
  4  3  1  0  0  0  0
  4 10  2  0  0  0  0
  6  8  2  0  0  0  0
  6  5  1  0  0  0  0
  7  5  2  0  0  0  0
  9 10  1  0  0  0  0
  9  1  2  0  0  0  0
 10  6  1  0  0  0  0
 11  3  1  0  0  0  0
 12 16  1  0  0  0  0
 13 12  1  0  0  0  0
 13 14  1  0  0  0  0
 15 11  1  1  0  0  0
 16 18  1  6  0  0  0
 16 17  1  0  0  0  0
 16 15  1  0  0  0  0
 17 14  1  6  0  0  0
 17 15  1  0  0  0  0
 17 11  1  0  0  0  0
 19 18  1  0  0  0  0
 20 22  1  0  0  0  0
 21 22  2  0  0  0  0
 22  9  1  0  0  0  0
 23 27  1  1  0  0  0
 23 20  1  0  0  0  0
 24 26  1  0  0  0  0
 26 25  2  0  0  0  0
 26 23  1  0  0  0  0
 27 28  1  0  0  0  0
M  END
>  <MODEL>
3

>  <REMARK>
 VINA RESULT:      -7.2      2.955      7.787
  Name = 
  6 active torsions:
  status: ('A' for Active; 'I' for Inactive)
    1  A    between atoms: C_1  and  C_23
    2  A    between atoms: C_6  and  N_9
    3  A    between atoms: C_7  and  N_8
    4  A    between atoms: C_7  and  C_14
    5  A    between atoms: C_7  and  C_27
    6  A    between atoms: C_25  and  C_26
                            x       y       z     vdW  Elec       q    Type
                         _______ _______ _______ _____ _____    ______ ____

>  <TORSDO>
F 6

$$$$
=
 OpenBabel11072411153D

 28 32  0  0  1  0  0  0  0  0999 V2000
  161.2450  206.8750  153.9510 C   0  0  0  0  0  3  0  0  0  0  0  0
  160.0220  211.6990  153.5290 C   0  0  0  0  0  3  0  0  0  0  0  0
  160.3650  211.3180  152.2320 C   0  0  0  0  0  0  0  0  0  0  0  0
  160.7690  210.0060  151.9870 C   0  0  0  0  0  3  0  0  0  0  0  0
  160.5120  208.6110  155.3930 C   0  0  0  0  0  3  0  0  0  0  0  0
  160.4710  209.5090  154.3290 C   0  0  0  0  0  0  0  0  0  0  0  0
  160.8940  207.3260  155.1840 N   0  0  0  0  0  0  0  0  0  0  0  0
  160.0830  210.7950  154.5420 N   0  0  0  0  0  0  0  0  0  0  0  0
  161.2280  207.7260  152.8330 C   0  0  0  0  0  0  0  0  0  0  0  0
  160.8310  209.0730  153.0320 C   0  0  0  0  0  0  0  0  0  0  0  0
  160.2880  212.2540  151.1630 N   0  0  0  0  0  0  0  0  0  0  0  0
  160.2960  214.4530  148.1700 C   0  0  0  0  0  2  0  0  0  0  0  0
  161.4310  213.4940  147.8230 C   0  0  0  0  0  2  0  0  0  0  0  0
  161.5980  212.5710  149.0210 C   0  0  0  0  0  2  0  0  0  0  0  0
  160.3100  213.6520  150.6310 C   0  0  2  0  0  3  0  0  0  0  0  0
  159.5520  213.8490  149.3520 C   0  0  2  0  0  0  0  0  0  0  0  0
  160.2540  212.5880  149.7060 C   0  0  2  0  0  0  0  0  0  0  0  0
  158.0380  213.7180  149.3700 C   0  0  0  0  0  2  0  0  0  0  0  0
  157.5980  213.0510  148.2250 O   0  0  0  0  0  1  0  0  0  0  0  0
  160.8330  206.1500  150.8730 N   0  0  0  0  0  2  0  0  0  0  0  0
  162.6840  207.5570  150.9610 O   0  0  0  0  0  0  0  0  0  0  0  0
  161.6250  207.1540  151.5180 C   0  0  0  0  0  0  0  0  0  0  0  0
  161.2080  205.5270  149.6110 C   0  0  1  0  0  3  0  0  0  0  0  0
  161.1870  203.2160  148.4500 C   0  0  0  0  0  1  0  0  0  0  0  0
  160.4550  203.5380  150.6580 O   0  0  0  0  0  0  0  0  0  0  0  0
  160.9130  204.0540  149.6510 C   0  0  0  0  0  0  0  0  0  0  0  0
  160.4520  206.1990  148.4750 C   0  0  0  0  0  2  0  0  0  0  0  0
  161.4180  206.9030  147.5390 C   0  0  0  0  0  1  0  0  0  0  0  0
  1  7  1  0  0  0  0
  2  8  1  0  0  0  0
  3  2  2  0  0  0  0
  4  3  1  0  0  0  0
  4 10  2  0  0  0  0
  6  8  2  0  0  0  0
  6  5  1  0  0  0  0
  7  5  2  0  0  0  0
  9 10  1  0  0  0  0
  9  1  2  0  0  0  0
 10  6  1  0  0  0  0
 11  3  1  0  0  0  0
 12 16  1  0  0  0  0
 13 12  1  0  0  0  0
 13 14  1  0  0  0  0
 15 11  1  1  0  0  0
 16 18  1  1  0  0  0
 16 17  1  0  0  0  0
 16 15  1  0  0  0  0
 17 14  1  6  0  0  0
 17 15  1  0  0  0  0
 17 11  1  0  0  0  0
 19 18  1  0  0  0  0
 20 22  1  0  0  0  0
 21 22  2  0  0  0  0
 22  9  1  0  0  0  0
 23 27  1  6  0  0  0
 23 26  1  0  0  0  0
 23 20  1  0  0  0  0
 24 26  1  0  0  0  0
 26 25  2  0  0  0  0
 28 27  1  0  0  0  0
M  END
>  <MODEL>
4

>  <REMARK>
 VINA RESULT:      -7.1      1.678      7.047
  Name = 
  6 active torsions:
  status: ('A' for Active; 'I' for Inactive)
    1  A    between atoms: C_1  and  C_23
    2  A    between atoms: C_6  and  N_9
    3  A    between atoms: C_7  and  N_8
    4  A    between atoms: C_7  and  C_14
    5  A    between atoms: C_7  and  C_27
    6  A    between atoms: C_25  and  C_26
                            x       y       z     vdW  Elec       q    Type
                         _______ _______ _______ _____ _____    ______ ____

>  <TORSDO>
F 6

$$$$
=
 OpenBabel11072411153D

 28 32  0  0  1  0  0  0  0  0999 V2000
  161.8260  210.1390  151.1070 C   0  0  0  0  0  3  0  0  0  0  0  0
  161.7430  206.6500  147.5350 C   0  0  0  0  0  3  0  0  0  0  0  0
  161.6050  205.9280  148.7210 C   0  0  0  0  0  0  0  0  0  0  0  0
  161.5940  206.6080  149.9390 C   0  0  0  0  0  3  0  0  0  0  0  0
  161.9710  210.0770  148.7400 C   0  0  0  0  0  3  0  0  0  0  0  0
  161.8530  208.6900  148.7460 C   0  0  0  0  0  0  0  0  0  0  0  0
  161.9550  210.7660  149.9090 N   0  0  0  0  0  0  0  0  0  0  0  0
  161.8650  208.0030  147.5720 N   0  0  0  0  0  0  0  0  0  0  0  0
  161.7030  208.7420  151.1890 C   0  0  0  0  0  0  0  0  0  0  0  0
  161.7180  208.0040  149.9760 C   0  0  0  0  0  0  0  0  0  0  0  0
  161.4620  204.5140  148.6890 N   0  0  0  0  0  0  0  0  0  0  0  0
  160.8780  200.8530  148.9240 C   0  0  0  0  0  2  0  0  0  0  0  0
  160.4860  201.2960  150.3310 C   0  0  0  0  0  2  0  0  0  0  0  0
  160.7600  202.7900  150.4060 C   0  0  0  0  0  2  0  0  0  0  0  0
  162.0070  203.1370  148.4700 C   0  0  2  0  0  3  0  0  0  0  0  0
  160.9830  202.1130  148.0780 C   0  0  2  0  0  0  0  0  0  0  0  0
  160.6940  203.2620  148.9750 C   0  0  2  0  0  0  0  0  0  0  0  0
  160.3150  202.2290  146.7180 C   0  0  0  0  0  2  0  0  0  0  0  0
  160.7790  201.2260  145.8660 O   0  0  0  0  0  1  0  0  0  0  0  0
  161.3400  208.9410  153.7000 N   0  0  0  0  0  2  0  0  0  0  0  0
  161.6530  206.8800  152.6660 O   0  0  0  0  0  0  0  0  0  0  0  0
  161.5650  208.1320  152.5390 C   0  0  0  0  0  0  0  0  0  0  0  0
  161.2480  208.3930  155.0470 C   0  0  1  0  0  3  0  0  0  0  0  0
  162.2860  210.6830  155.6520 C   0  0  0  0  0  1  0  0  0  0  0  0
  162.3560  208.8330  157.0960 O   0  0  0  0  0  0  0  0  0  0  0  0
  161.9920  209.2680  156.0150 C   0  0  0  0  0  0  0  0  0  0  0  0
  159.7840  208.2740  155.4410 C   0  0  0  0  0  2  0  0  0  0  0  0
  159.5470  206.9960  156.2260 C   0  0  0  0  0  1  0  0  0  0  0  0
  1  9  1  0  0  0  0
  2  8  2  0  0  0  0
  2  3  1  0  0  0  0
  3  4  2  0  0  0  0
  4 10  1  0  0  0  0
  5  6  2  0  0  0  0
  5  7  1  0  0  0  0
  6 10  1  0  0  0  0
  7  1  2  0  0  0  0
  8  6  1  0  0  0  0
  9 22  1  0  0  0  0
 10  9  2  0  0  0  0
 11  3  1  0  0  0  0
 11 17  1  0  0  0  0
 12 13  1  0  0  0  0
 13 14  1  0  0  0  0
 15 11  1  6  0  0  0
 15 17  1  0  0  0  0
 16 18  1  6  0  0  0
 16 15  1  0  0  0  0
 16 12  1  0  0  0  0
 16 17  1  0  0  0  0
 17 14  1  1  0  0  0
 19 18  1  0  0  0  0
 20 23  1  0  0  0  0
 22 21  2  0  0  0  0
 22 20  1  0  0  0  0
 23 27  1  1  0  0  0
 23 26  1  0  0  0  0
 24 26  1  0  0  0  0
 26 25  2  0  0  0  0
 27 28  1  0  0  0  0
M  END
>  <MODEL>
5

>  <REMARK>
 VINA RESULT:      -7.0      3.339      5.578
  Name = 
  6 active torsions:
  status: ('A' for Active; 'I' for Inactive)
    1  A    between atoms: C_1  and  C_23
    2  A    between atoms: C_6  and  N_9
    3  A    between atoms: C_7  and  N_8
    4  A    between atoms: C_7  and  C_14
    5  A    between atoms: C_7  and  C_27
    6  A    between atoms: C_25  and  C_26
                            x       y       z     vdW  Elec       q    Type
                         _______ _______ _______ _____ _____    ______ ____

>  <TORSDO>
F 6

$$$$
=
 OpenBabel11072411153D

 28 32  0  0  1  0  0  0  0  0999 V2000
  161.2500  201.5040  148.0580 C   0  0  0  0  0  3  0  0  0  0  0  0
  160.7670  203.8480  152.4420 C   0  0  0  0  0  3  0  0  0  0  0  0
  161.0000  204.8760  151.5280 C   0  0  0  0  0  0  0  0  0  0  0  0
  161.1890  204.5660  150.1820 C   0  0  0  0  0  3  0  0  0  0  0  0
  160.8460  200.8950  150.3150 C   0  0  0  0  0  3  0  0  0  0  0  0
  160.9040  202.2290  150.7100 C   0  0  0  0  0  0  0  0  0  0  0  0
  161.0180  200.5630  149.0110 N   0  0  0  0  0  0  0  0  0  0  0  0
  160.7260  202.5580  152.0180 N   0  0  0  0  0  0  0  0  0  0  0  0
  161.3230  202.8690  148.3850 C   0  0  0  0  0  0  0  0  0  0  0  0
  161.1450  203.2340  149.7440 C   0  0  0  0  0  0  0  0  0  0  0  0
  161.0280  206.2300  151.9620 N   0  0  0  0  0  0  0  0  0  0  0  0
  161.2090  209.6350  153.4360 C   0  0  0  0  0  2  0  0  0  0  0  0
  161.1970  208.7770  154.6990 C   0  0  0  0  0  2  0  0  0  0  0  0
  161.0380  207.3350  154.2400 C   0  0  0  0  0  2  0  0  0  0  0  0
  160.4620  207.6150  152.0010 C   0  0  2  0  0  3  0  0  0  0  0  0
  161.4670  208.6960  152.2670 C   0  0  2  0  0  0  0  0  0  0  0  0
  161.5680  207.3240  152.8280 C   0  0  2  0  0  0  0  0  0  0  0  0
  162.5200  208.9930  151.2120 C   0  0  0  0  0  2  0  0  0  0  0  0
  162.2410  210.2070  150.5810 O   0  0  0  0  0  1  0  0  0  0  0  0
  161.6090  205.2470  147.5240 N   0  0  0  0  0  2  0  0  0  0  0  0
  161.7690  203.4050  146.1120 O   0  0  0  0  0  0  0  0  0  0  0  0
  161.5790  203.8350  147.2840 C   0  0  0  0  0  0  0  0  0  0  0  0
  161.8060  206.2320  146.4690 C   0  0  1  0  0  3  0  0  0  0  0  0
  161.2080  205.6780  144.0140 C   0  0  0  0  0  1  0  0  0  0  0  0
  159.5890  206.2040  145.6320 O   0  0  0  0  0  0  0  0  0  0  0  0
  160.7760  206.0510  145.3910 C   0  0  0  0  0  0  0  0  0  0  0  0
  161.7260  207.6290  147.0650 C   0  0  0  0  0  2  0  0  0  0  0  0
  161.2070  207.5680  148.4910 C   0  0  0  0  0  1  0  0  0  0  0  0
  1  9  2  0  0  0  0
  1  7  1  0  0  0  0
  3 11  1  0  0  0  0
  3  2  2  0  0  0  0
  4  3  1  0  0  0  0
  5  6  1  0  0  0  0
  6  8  2  0  0  0  0
  7  5  2  0  0  0  0
  8  2  1  0  0  0  0
  9 10  1  0  0  0  0
 10  4  2  0  0  0  0
 10  6  1  0  0  0  0
 11 17  1  0  0  0  0
 12 13  1  0  0  0  0
 14 13  1  0  0  0  0
 15 11  1  6  0  0  0
 15 16  1  0  0  0  0
 15 17  1  0  0  0  0
 16 18  1  6  0  0  0
 16 17  1  0  0  0  0
 16 12  1  0  0  0  0
 17 14  1  1  0  0  0
 19 18  1  0  0  0  0
 21 22  2  0  0  0  0
 22 20  1  0  0  0  0
 22  9  1  0  0  0  0
 23 27  1  1  0  0  0
 23 20  1  0  0  0  0
 24 26  1  0  0  0  0
 26 25  2  0  0  0  0
 26 23  1  0  0  0  0
 27 28  1  0  0  0  0
M  END
>  <MODEL>
6

>  <REMARK>
 VINA RESULT:      -7.0      3.454      7.607
  Name = 
  6 active torsions:
  status: ('A' for Active; 'I' for Inactive)
    1  A    between atoms: C_1  and  C_23
    2  A    between atoms: C_6  and  N_9
    3  A    between atoms: C_7  and  N_8
    4  A    between atoms: C_7  and  C_14
    5  A    between atoms: C_7  and  C_27
    6  A    between atoms: C_25  and  C_26
                            x       y       z     vdW  Elec       q    Type
                         _______ _______ _______ _____ _____    ______ ____

>  <TORSDO>
F 6

$$$$
=
 OpenBabel11072411153D

 28 32  0  0  1  0  0  0  0  0999 V2000
  161.5880  211.1960  150.8000 C   0  0  0  0  0  3  0  0  0  0  0  0
  161.9590  206.9560  148.1880 C   0  0  0  0  0  3  0  0  0  0  0  0
  161.4210  206.5580  149.4120 C   0  0  0  0  0  0  0  0  0  0  0  0
  161.1870  207.5130  150.4000 C   0  0  0  0  0  3  0  0  0  0  0  0
  162.3330  210.5480  148.6430 C   0  0  0  0  0  3  0  0  0  0  0  0
  162.0290  209.2160  148.9130 C   0  0  0  0  0  0  0  0  0  0  0  0
  162.1080  211.5010  149.5830 N   0  0  0  0  0  0  0  0  0  0  0  0
  162.2510  208.2640  147.9670 N   0  0  0  0  0  0  0  0  0  0  0  0
  161.2580  209.8740  151.1410 C   0  0  0  0  0  0  0  0  0  0  0  0
  161.4860  208.8640  150.1710 C   0  0  0  0  0  0  0  0  0  0  0  0
  161.0980  205.1920  149.6450 N   0  0  0  0  0  0  0  0  0  0  0  0
  160.4310  201.5490  149.9230 C   0  0  0  0  0  2  0  0  0  0  0  0
  160.7970  201.6610  148.4450 C   0  0  0  0  0  2  0  0  0  0  0  0
  161.0180  203.1390  148.1650 C   0  0  0  0  0  2  0  0  0  0  0  0
  160.1610  204.1170  150.0970 C   0  0  2  0  0  3  0  0  0  0  0  0
  160.8300  202.8630  150.5770 C   0  0  2  0  0  0  0  0  0  0  0  0
  161.3830  203.7300  149.5040 C   0  0  2  0  0  0  0  0  0  0  0  0
  161.6380  202.9100  151.8630 C   0  0  0  0  0  2  0  0  0  0  0  0
  162.3670  201.7290  152.0180 O   0  0  0  0  0  1  0  0  0  0  0  0
  161.4390  208.9250  153.4960 N   0  0  0  0  0  2  0  0  0  0  0  0
  159.5280  210.0320  152.7640 O   0  0  0  0  0  0  0  0  0  0  0  0
  160.6920  209.6250  152.4940 C   0  0  0  0  0  0  0  0  0  0  0  0
  160.9060  208.6140  154.8160 C   0  0  1  0  0  3  0  0  0  0  0  0
  161.2050  206.1970  153.9470 C   0  0  0  0  0  1  0  0  0  0  0  0
  159.8500  206.7290  155.7900 O   0  0  0  0  0  0  0  0  0  0  0  0
  160.5950  207.1490  154.9190 C   0  0  0  0  0  0  0  0  0  0  0  0
  161.9180  209.0270  155.8750 C   0  0  0  0  0  2  0  0  0  0  0  0
  161.7740  210.5030  156.1990 C   0  0  0  0  0  1  0  0  0  0  0  0
  1  9  1  0  0  0  0
  2  3  1  0  0  0  0
  3 11  1  0  0  0  0
  3  4  2  0  0  0  0
  5  6  2  0  0  0  0
  5  7  1  0  0  0  0
  6 10  1  0  0  0  0
  7  1  2  0  0  0  0
  8  2  2  0  0  0  0
  8  6  1  0  0  0  0
  9 22  1  0  0  0  0
 10  4  1  0  0  0  0
 10  9  2  0  0  0  0
 12 16  1  0  0  0  0
 13 12  1  0  0  0  0
 14 13  1  0  0  0  0
 15 11  1  1  0  0  0
 15 16  1  0  0  0  0
 16 18  1  1  0  0  0
 17 14  1  6  0  0  0
 17 11  1  0  0  0  0
 17 15  1  0  0  0  0
 17 16  1  0  0  0  0
 18 19  1  0  0  0  0
 20 23  1  0  0  0  0
 22 21  2  0  0  0  0
 22 20  1  0  0  0  0
 23 26  1  0  0  0  0
 23 27  1  1  0  0  0
 24 26  1  0  0  0  0
 26 25  2  0  0  0  0
 27 28  1  0  0  0  0
M  END
>  <MODEL>
7

>  <REMARK>
 VINA RESULT:      -7.0      2.799      5.370
  Name = 
  6 active torsions:
  status: ('A' for Active; 'I' for Inactive)
    1  A    between atoms: C_1  and  C_23
    2  A    between atoms: C_6  and  N_9
    3  A    between atoms: C_7  and  N_8
    4  A    between atoms: C_7  and  C_14
    5  A    between atoms: C_7  and  C_27
    6  A    between atoms: C_25  and  C_26
                            x       y       z     vdW  Elec       q    Type
                         _______ _______ _______ _____ _____    ______ ____

>  <TORSDO>
F 6

$$$$
=
 OpenBabel11072411153D

 28 32  0  0  1  0  0  0  0  0999 V2000
  161.7580  206.4850  148.0080 C   0  0  0  0  0  3  0  0  0  0  0  0
  161.9510  209.8500  151.6930 C   0  0  0  0  0  3  0  0  0  0  0  0
  161.3740  208.7270  152.2850 C   0  0  0  0  0  0  0  0  0  0  0  0
  161.1640  207.5800  151.5200 C   0  0  0  0  0  3  0  0  0  0  0  0
  162.4990  208.7230  148.2760 C   0  0  0  0  0  3  0  0  0  0  0  0
  162.1150  208.7140  149.6140 C   0  0  0  0  0  0  0  0  0  0  0  0
  162.3150  207.6190  147.5080 N   0  0  0  0  0  0  0  0  0  0  0  0
  162.3050  209.8210  150.3810 N   0  0  0  0  0  0  0  0  0  0  0  0
  161.3460  206.4060  149.3490 C   0  0  0  0  0  0  0  0  0  0  0  0
  161.5300  207.5500  150.1660 C   0  0  0  0  0  0  0  0  0  0  0  0
  161.0150  208.7440  153.6620 N   0  0  0  0  0  0  0  0  0  0  0  0
  160.1510  208.4150  157.2590 C   0  0  0  0  0  2  0  0  0  0  0  0
  160.1130  206.9530  156.8210 C   0  0  0  0  0  2  0  0  0  0  0  0
  160.3700  206.9450  155.3210 C   0  0  0  0  0  2  0  0  0  0  0  0
  160.1500  209.2020  154.7930 C   0  0  2  0  0  3  0  0  0  0  0  0
  160.8190  209.1950  156.1360 C   0  0  2  0  0  0  0  0  0  0  0  0
  161.1300  208.2210  155.0580 C   0  0  2  0  0  0  0  0  0  0  0  0
  161.9450  210.1810  156.3990 C   0  0  0  0  0  2  0  0  0  0  0  0
  162.8950  209.6120  157.2490 O   0  0  0  0  0  1  0  0  0  0  0  0
  161.3280  203.8640  149.4790 N   0  0  0  0  0  2  0  0  0  0  0  0
  159.7000  205.1560  150.5240 O   0  0  0  0  0  0  0  0  0  0  0  0
  160.7460  205.1280  149.8180 C   0  0  0  0  0  0  0  0  0  0  0  0
  160.7480  202.5870  149.8730 C   0  0  1  0  0  3  0  0  0  0  0  0
  160.8140  201.9880  147.3580 C   0  0  0  0  0  1  0  0  0  0  0  0
  161.2000  200.4090  149.0540 O   0  0  0  0  0  0  0  0  0  0  0  0
  160.9400  201.5710  148.7840 C   0  0  0  0  0  0  0  0  0  0  0  0
  161.3970  202.1200  151.1680 C   0  0  0  0  0  2  0  0  0  0  0  0
  160.9550  202.9940  152.3280 C   0  0  0  0  0  1  0  0  0  0  0  0
  1  9  1  0  0  0  0
  2  3  1  0  0  0  0
  3 11  1  0  0  0  0
  4  3  2  0  0  0  0
  5  6  2  0  0  0  0
  6 10  1  0  0  0  0
  6  8  1  0  0  0  0
  7  1  2  0  0  0  0
  7  5  1  0  0  0  0
  8  2  2  0  0  0  0
  9 22  1  0  0  0  0
  9 10  2  0  0  0  0
 10  4  1  0  0  0  0
 11 17  1  0  0  0  0
 13 12  1  0  0  0  0
 14 13  1  0  0  0  0
 15 11  1  6  0  0  0
 15 17  1  0  0  0  0
 15 16  1  0  0  0  0
 16 18  1  1  0  0  0
 16 12  1  0  0  0  0
 17 14  1  1  0  0  0
 17 16  1  0  0  0  0
 18 19  1  0  0  0  0
 20 22  1  0  0  0  0
 20 23  1  0  0  0  0
 22 21  2  0  0  0  0
 23 27  1  1  0  0  0
 24 26  1  0  0  0  0
 26 25  2  0  0  0  0
 26 23  1  0  0  0  0
 27 28  1  0  0  0  0
M  END
>  <MODEL>
8

>  <REMARK>
 VINA RESULT:      -6.9      3.563      8.375
  Name = 
  6 active torsions:
  status: ('A' for Active; 'I' for Inactive)
    1  A    between atoms: C_1  and  C_23
    2  A    between atoms: C_6  and  N_9
    3  A    between atoms: C_7  and  N_8
    4  A    between atoms: C_7  and  C_14
    5  A    between atoms: C_7  and  C_27
    6  A    between atoms: C_25  and  C_26
                            x       y       z     vdW  Elec       q    Type
                         _______ _______ _______ _____ _____    ______ ____

>  <TORSDO>
F 6

$$$$
=
 OpenBabel11072411153D

 28 32  0  0  1  0  0  0  0  0999 V2000
  161.6620  210.9020  151.6230 C   0  0  0  0  0  3  0  0  0  0  0  0
  161.3070  205.9860  150.8170 C   0  0  0  0  0  3  0  0  0  0  0  0
  161.4950  206.5280  149.5460 C   0  0  0  0  0  0  0  0  0  0  0  0
  161.6300  207.9080  149.4030 C   0  0  0  0  0  3  0  0  0  0  0  0
  161.3400  208.9480  152.9310 C   0  0  0  0  0  3  0  0  0  0  0  0
  161.3890  208.1500  151.7920 C   0  0  0  0  0  0  0  0  0  0  0  0
  161.4760  210.2940  152.8240 N   0  0  0  0  0  0  0  0  0  0  0  0
  161.2560  206.8000  151.9030 N   0  0  0  0  0  0  0  0  0  0  0  0
  161.7200  210.1580  150.4320 C   0  0  0  0  0  0  0  0  0  0  0  0
  161.5790  208.7490  150.5250 C   0  0  0  0  0  0  0  0  0  0  0  0
  161.5650  205.6800  148.4060 N   0  0  0  0  0  0  0  0  0  0  0  0
  161.5560  203.2070  145.6350 C   0  0  0  0  0  2  0  0  0  0  0  0
  161.1930  202.3120  146.8170 C   0  0  0  0  0  2  0  0  0  0  0  0
  161.2430  203.1930  148.0560 C   0  0  0  0  0  2  0  0  0  0  0  0
  162.2960  205.1010  147.2360 C   0  0  2  0  0  3  0  0  0  0  0  0
  161.4160  204.6450  146.1090 C   0  0  2  0  0  0  0  0  0  0  0  0
  161.0150  204.5920  147.5390 C   0  0  2  0  0  0  0  0  0  0  0  0
  160.6520  205.6870  145.3100 C   0  0  0  0  0  2  0  0  0  0  0  0
  161.2070  205.8190  144.0350 O   0  0  0  0  0  1  0  0  0  0  0  0
  161.1480  212.0570  148.8370 N   0  0  0  0  0  2  0  0  0  0  0  0
  162.8010  210.4960  148.3420 O   0  0  0  0  0  0  0  0  0  0  0  0
  161.9270  210.8980  149.1590 C   0  0  0  0  0  0  0  0  0  0  0  0
  161.2810  212.7830  147.5810 C   0  0  1  0  0  3  0  0  0  0  0  0
  158.7880  213.3800  147.2420 C   0  0  0  0  0  1  0  0  0  0  0  0
  159.9820  212.0100  145.7550 O   0  0  0  0  0  0  0  0  0  0  0  0
  160.0150  212.6720  146.7800 C   0  0  0  0  0  0  0  0  0  0  0  0
  161.6080  214.2390  147.8760 C   0  0  0  0  0  2  0  0  0  0  0  0
  163.1110  214.4530  147.8940 C   0  0  0  0  0  1  0  0  0  0  0  0
  1  7  1  0  0  0  0
  2  8  1  0  0  0  0
  3  2  2  0  0  0  0
  4  3  1  0  0  0  0
  4 10  2  0  0  0  0
  6  8  2  0  0  0  0
  6  5  1  0  0  0  0
  7  5  2  0  0  0  0
  9 10  1  0  0  0  0
  9  1  2  0  0  0  0
 10  6  1  0  0  0  0
 11  3  1  0  0  0  0
 12 16  1  0  0  0  0
 12 13  1  0  0  0  0
 13 14  1  0  0  0  0
 15 17  1  0  0  0  0
 15 11  1  6  0  0  0
 16 18  1  6  0  0  0
 16 15  1  0  0  0  0
 16 17  1  0  0  0  0
 17 14  1  1  0  0  0
 17 11  1  0  0  0  0
 19 18  1  0  0  0  0
 20 22  1  0  0  0  0
 21 22  2  0  0  0  0
 22  9  1  0  0  0  0
 23 27  1  1  0  0  0
 23 20  1  0  0  0  0
 25 26  2  0  0  0  0
 26 24  1  0  0  0  0
 26 23  1  0  0  0  0
 27 28  1  0  0  0  0
M  END
>  <MODEL>
9

>  <REMARK>
 VINA RESULT:      -6.7      2.638      3.404
  Name = 
  6 active torsions:
  status: ('A' for Active; 'I' for Inactive)
    1  A    between atoms: C_1  and  C_23
    2  A    between atoms: C_6  and  N_9
    3  A    between atoms: C_7  and  N_8
    4  A    between atoms: C_7  and  C_14
    5  A    between atoms: C_7  and  C_27
    6  A    between atoms: C_25  and  C_26
                            x       y       z     vdW  Elec       q    Type
                         _______ _______ _______ _____ _____    ______ ____

>  <TORSDO>
F 6

$$$$
