=
 OpenBabel11072410123D

 43 49  0  0  1  0  0  0  0  0999 V2000
  154.1350  214.3370  150.5670 C   0  0  0  0  0  0  0  0  0  0  0  0
  160.2820  211.5460  155.2760 C   0  0  1  0  0  3  0  0  0  0  0  0
  162.5720  212.6820  148.3550 C   0  0  0  0  0  3  0  0  0  0  0  0
  157.8700  211.3880  153.0210 C   0  0  0  0  0  2  0  0  0  0  0  0
  161.2350  211.9090  150.2920 C   0  0  2  0  0  3  0  0  0  0  0  0
  159.4160  210.4710  155.5840 O   0  0  0  0  0  0  0  0  0  0  0  0
  156.0970  214.2940  152.5530 C   0  0  1  0  0  3  0  0  0  0  0  0
  154.9540  214.0960  147.7570 N   0  0  0  0  0  1  0  0  0  0  0  0
  157.2710  213.9180  148.5150 C   0  0  0  0  0  0  0  0  0  0  0  0
  153.8120  214.4530  151.8810 N   0  0  0  0  0  0  0  0  0  0  0  0
  160.3190  211.0550  152.3020 C   0  0  2  0  0  3  0  0  0  0  0  0
  160.6300  212.6280  145.1890 C   0  0  2  0  0  3  0  0  0  0  0  0
  160.2040  212.5490  152.1210 C   0  0  1  0  0  3  0  0  0  0  0  0
  154.7460  214.4390  152.8650 C   0  0  0  0  0  3  0  0  0  0  0  0
  161.8260  212.3120  147.3150 C   0  0  0  0  0  3  0  0  0  0  0  0
  159.3970  213.2710  145.5150 O   0  0  0  0  0  0  0  0  0  0  0  0
  160.9360  210.6070  151.0110 C   0  0  0  0  0  2  0  0  0  0  0  0
  156.4740  214.1770  151.2040 C   0  0  0  0  0  0  0  0  0  0  0  0
  157.7220  213.7850  147.1160 C   0  0  0  0  0  3  0  0  0  0  0  0
  156.9800  213.1040  154.5730 C   0  0  0  0  0  2  0  0  0  0  0  0
  157.8210  214.0460  150.8690 C   0  0  0  0  0  3  0  0  0  0  0  0
  158.0990  210.9750  155.5410 C   0  0  1  0  0  0  0  0  0  0  0  0
  159.4840  212.6580  154.6180 C   0  0  1  0  0  3  0  0  0  0  0  0
  158.2150  213.9120  149.5450 C   0  0  0  0  0  3  0  0  0  0  0  0
  158.9380  213.3340  146.8260 C   0  0  0  0  0  3  0  0  0  0  0  0
  153.2090  214.3620  149.7140 O   0  0  0  0  0  0  0  0  0  0  0  0
  160.2440  213.3170  153.4420 C   0  0  0  0  0  2  0  0  0  0  0  0
  162.5870  211.8490  149.5980 C   0  0  0  0  0  2  0  0  0  0  0  0
  158.0930  212.0540  154.4090 C   0  0  1  0  0  0  0  0  0  0  0  0
  155.9050  214.0750  148.8230 C   0  0  0  0  0  0  0  0  0  0  0  0
  157.1130  214.3190  153.6580 C   0  0  0  0  0  2  0  0  0  0  0  0
  157.2320  209.9270  155.2130 O   0  0  0  0  0  1  0  0  0  0  0  0
  158.9500  210.4060  152.5310 C   0  0  0  0  0  2  0  0  0  0  0  0
  161.7770  213.1260  146.0650 C   0  0  0  0  0  2  0  0  0  0  0  0
  155.4910  214.1960  150.1790 C   0  0  0  0  0  0  0  0  0  0  0  0
  161.2010  212.9550  151.2300 O   0  0  0  0  0  0  0  0  0  0  0  0
  157.4810  212.7350  157.1430 O   0  0  0  0  0  0  0  0  0  0  0  0
  156.4720  211.8460  157.1370 O   0  0  0  0  0  0  0  0  0  0  0  0
  157.7660  211.3960  157.0030 C   0  0  0  0  0  3  0  0  0  0  0  0
  160.8890  212.0200  156.4400 O   0  0  0  0  0  0  0  0  0  0  0  0
  161.8480  211.0570  156.7560 C   0  0  0  0  0  1  0  0  0  0  0  0
  160.9310  212.8630  143.8470 O   0  0  0  0  0  0  0  0  0  0  0  0
  160.0440  212.0550  143.1370 C   0  0  0  0  0  1  0  0  0  0  0  0
  1 10  1  0  0  0  0
  2  6  1  0  0  0  0
  2 40  1  1  0  0  0
  3 28  1  0  0  0  0
  5 28  1  1  0  0  0
  5 17  1  0  0  0  0
  5 36  1  0  0  0  0
  7 14  1  6  0  0  0
  7 31  1  0  0  0  0
  8 30  1  0  0  0  0
  9 30  2  0  0  0  0
  9 24  1  0  0  0  0
 10 14  2  0  0  0  0
 11 17  1  6  0  0  0
 11 33  1  0  0  0  0
 12 42  1  6  0  0  0
 12 16  1  0  0  0  0
 12 34  1  0  0  0  0
 13 11  1  0  0  0  0
 13 27  1  1  0  0  0
 15  3  2  0  0  0  0
 16 25  1  0  0  0  0
 18  7  1  0  0  0  0
 19  9  1  0  0  0  0
 21 18  1  0  0  0  0
 22 32  1  6  0  0  0
 22  6  1  0  0  0  0
 22 39  1  0  0  0  0
 23 27  1  6  0  0  0
 23  2  1  0  0  0  0
 24 21  2  0  0  0  0
 25 19  2  0  0  0  0
 26  1  2  0  0  0  0
 29  4  1  6  0  0  0
 29 20  1  0  0  0  0
 29 23  1  0  0  0  0
 29 22  1  0  0  0  0
 30 35  1  0  0  0  0
 31 20  1  0  0  0  0
 33  4  1  0  0  0  0
 34 15  1  0  0  0  0
 35  1  1  0  0  0  0
 35 18  2  0  0  0  0
 36 13  1  0  0  0  0
 38 37  1  0  0  0  0
 39 38  1  0  0  0  0
 39 37  1  0  0  0  0
 40 41  1  0  0  0  0
 43 42  1  0  0  0  0
M  END
>  <MODEL>
1

>  <REMARK>
 VINA RESULT:       1.4      0.000      0.000
  Name = 
  3 active torsions:
  status: ('A' for Active; 'I' for Inactive)
    1  A    between atoms: O_1  and  C_3
    2  A    between atoms: C_15  and  O_25
    3  A    between atoms: C_26  and  C_41
                            x       y       z     vdW  Elec       q    Type
                         _______ _______ _______ _____ _____    ______ ____

>  <TORSDO>
F 3

$$$$
