=
 OpenBabel11072415053D

 64 70  0  0  1  0  0  0  0  0999 V2000
  160.9220  207.7370  152.2320 C   0  0  0  0  0  0  0  0  0  0  0  0
  160.3970  208.9690  152.1460 C   0  0  0  0  0  3  0  0  0  0  0  0
  161.3500  207.0780  150.9510 C   0  0  1  0  0  3  0  0  0  0  0  0
  160.3860  207.2570  149.9540 O   0  0  0  0  0  1  0  0  0  0  0  0
  162.7400  207.4920  150.4600 C   0  0  0  0  0  2  0  0  0  0  0  0
  161.4040  208.7000  148.7060 C   0  0  0  0  0  2  0  0  0  0  0  0
  161.4160  207.8370  147.5910 O   0  0  0  0  0  0  0  0  0  0  0  0
  162.6510  207.3370  147.8940 N   0  0  1  0  0  0  0  0  0  0  0  0
  162.7500  208.1770  149.0900 C   0  0  2  0  0  3  0  0  0  0  0  0
  162.6510  205.8450  147.8050 C   0  0  2  0  0  3  0  0  0  0  0  0
  162.1430  205.1570  146.5210 C   0  0  1  0  0  3  0  0  0  0  0  0
  161.2950  205.1610  147.7910 C   0  0  1  0  0  3  0  0  0  0  0  0
  161.3590  203.8390  148.4990 C   0  0  0  0  0  0  0  0  0  0  0  0
  161.2990  202.6000  147.7800 N   0  0  0  0  0  2  0  0  0  0  0  0
  161.4730  203.8330  149.7530 O   0  0  0  0  0  0  0  0  0  0  0  0
  161.2730  201.3020  148.4390 C   0  0  0  0  0  2  0  0  0  0  0  0
  160.7580  201.4200  150.7430 O   0  0  0  0  0  0  0  0  0  0  0  0
  160.3330  201.3160  149.6040 C   0  0  0  0  0  0  0  0  0  0  0  0
  158.8600  201.2970  149.3610 C   0  0  0  0  0  1  0  0  0  0  0  0
  161.4900  206.0180  145.4510 C   0  0  2  0  0  3  0  0  0  0  0  0
  160.1700  206.2880  145.8150 O   0  0  0  0  0  1  0  0  0  0  0  0
  161.5010  205.2700  144.1300 C   0  0  0  0  0  2  0  0  0  0  0  0
  160.5610  204.2370  144.1610 O   0  0  0  0  0  1  0  0  0  0  0  0
  161.1370  207.0220  153.5510 C   0  0  1  0  0  3  0  0  0  0  0  0
  161.6700  205.5840  153.4480 C   0  0  0  0  0  3  0  0  0  0  0  0
  161.0020  204.8890  152.4620 O   0  0  0  0  0  0  0  0  0  0  0  0
  160.6970  204.6530  153.7450 O   0  0  0  0  0  0  0  0  0  0  0  0
  161.8760  207.8170  154.4750 O   0  0  0  0  0  0  0  0  0  0  0  0
  162.2710  208.5750  156.5980 O   0  0  0  0  0  0  0  0  0  0  0  0
  161.5300  207.9210  155.8220 C   0  0  0  0  0  0  0  0  0  0  0  0
  160.3100  207.2560  156.3720 C   0  0  0  0  0  2  0  0  0  0  0  0
  159.2450  208.1540  156.3640 O   0  0  0  0  0  1  0  0  0  0  0  0
  160.0350  209.7970  153.3420 C   0  0  0  0  0  2  0  0  0  0  0  0
  159.8470  211.7640  155.6370 C   0  0  0  0  0  2  0  0  0  0  0  0
  161.1710  211.3530  154.9990 C   0  0  0  0  0  2  0  0  0  0  0  0
  159.2450  212.8380  154.9170 O   0  0  0  0  0  0  0  0  0  0  0  0
  158.6030  213.7900  152.9300 O   0  0  0  0  0  0  0  0  0  0  0  0
  160.9540  211.0060  153.5220 C   0  0  2  0  0  3  0  0  0  0  0  0
  159.3430  212.9620  153.5270 C   0  0  0  0  0  0  0  0  0  0  0  0
  160.4100  212.2270  152.7600 C   0  0  2  0  0  3  0  0  0  0  0  0
  159.9340  211.8580  151.4710 O   0  0  0  0  0  0  0  0  0  0  0  0
  160.6840  212.0850  150.3200 C   0  0  0  0  0  0  0  0  0  0  0  0
  161.7980  211.5110  150.1900 O   0  0  0  0  0  0  0  0  0  0  0  0
  160.1780  212.9180  149.3130 O   0  0  0  0  0  0  0  0  0  0  0  0
  161.2120  212.1580  147.3770 O   0  0  0  0  0  0  0  0  0  0  0  0
  160.1810  212.6200  147.9420 C   0  0  0  0  0  0  0  0  0  0  0  0
  158.9380  212.8310  147.1260 C   0  0  2  0  0  3  0  0  0  0  0  0
  159.1730  213.3940  145.7420 C   0  0  0  0  0  0  0  0  0  0  0  0
  158.2990  214.4380  145.2870 S   0  0  0  0  0  0  0  0  0  0  0  0
  159.7580  213.1130  143.2820 C   0  0  1  0  0  0  0  0  0  0  0  0
  162.9700  212.9770  141.4090 O   0  0  0  0  0  0  0  0  0  0  0  0
  162.0850  211.8820  141.3050 C   0  0  1  0  0  3  0  0  0  0  0  0
  162.1620  213.0280  143.6190 O   0  0  0  0  0  0  0  0  0  0  0  0
  159.8360  211.9530  142.2920 C   0  0  0  0  0  2  0  0  0  0  0  0
  158.7190  214.0310  143.1070 O   0  0  0  0  0  1  0  0  0  0  0  0
  160.0560  212.7020  144.7250 C   0  0  1  0  0  3  0  0  0  0  0  0
  160.6570  212.3120  141.0640 C   0  0  2  0  0  3  0  0  0  0  0  0
  160.9810  213.6800  143.9940 C   0  0  2  0  0  3  0  0  0  0  0  0
  162.4420  211.0660  140.1750 N   0  0  0  0  0  2  0  0  0  0  0  0
  162.6540  213.7760  142.5360 C   0  0  0  0  0  2  0  0  0  0  0  0
  161.1630  210.6720  139.6120 C   0  0  0  0  0  2  0  0  0  0  0  0
  160.1760  211.6160  139.9480 O   0  0  0  0  0  0  0  0  0  0  0  0
  157.0500  212.6400  148.6160 O   0  0  0  0  0  1  0  0  0  0  0  0
  157.8150  213.5450  147.8790 C   0  0  0  0  0  2  0  0  0  0  0  0
  2  1  2  0  0  0  0
  2 33  1  0  0  0  0
  3  4  1  6  0  0  0
  3  1  1  0  0  0  0
  5  3  1  0  0  0  0
  6  9  1  0  0  0  0
  7  6  1  0  0  0  0
  8  7  1  1  0  0  0
  8  9  1  0  0  0  0
  9  5  1  1  0  0  0
 10  8  1  6  0  0  0
 11 20  1  6  0  0  0
 11 12  1  0  0  0  0
 11 10  1  0  0  0  0
 12 10  1  0  0  0  0
 12 13  1  1  0  0  0
 13 15  2  0  0  0  0
 14 16  1  0  0  0  0
 14 13  1  0  0  0  0
 16 18  1  0  0  0  0
 18 17  2  0  0  0  0
 19 18  1  0  0  0  0
 20 21  1  1  0  0  0
 22 23  1  0  0  0  0
 22 20  1  0  0  0  0
 24  1  1  6  0  0  0
 24 28  1  0  0  0  0
 25 24  1  0  0  0  0
 25 27  1  0  0  0  0
 26 25  1  0  0  0  0
 26 27  1  0  0  0  0
 28 30  1  0  0  0  0
 30 31  1  0  0  0  0
 30 29  2  0  0  0  0
 32 31  1  0  0  0  0
 35 34  1  0  0  0  0
 36 34  1  0  0  0  0
 37 39  2  0  0  0  0
 38 33  1  1  0  0  0
 38 35  1  0  0  0  0
 39 36  1  0  0  0  0
 40 41  1  6  0  0  0
 40 38  1  0  0  0  0
 40 39  1  0  0  0  0
 42 41  1  0  0  0  0
 43 42  2  0  0  0  0
 44 42  1  0  0  0  0
 45 46  2  0  0  0  0
 46 44  1  0  0  0  0
 47 64  1  1  0  0  0
 47 46  1  0  0  0  0
 48 47  1  0  0  0  0
 49 48  2  0  0  0  0
 50 55  1  6  0  0  0
 50 58  1  0  0  0  0
 50 56  1  0  0  0  0
 51 60  1  0  0  0  0
 52 59  1  6  0  0  0
 52 51  1  0  0  0  0
 54 50  1  0  0  0  0
 56 48  1  1  0  0  0
 57 52  1  0  0  0  0
 57 54  1  1  0  0  0
 58 53  1  6  0  0  0
 58 56  1  0  0  0  0
 60 53  1  0  0  0  0
 61 62  1  0  0  0  0
 61 59  1  0  0  0  0
 62 57  1  0  0  0  0
 64 63  1  0  0  0  0
M  END
>  <MODEL>
1

>  <REMARK>
 VINA RESULT:      -5.8      0.000      0.000
  Name = 
  24 active torsions:
  status: ('A' for Active; 'I' for Inactive)
    1  A    between atoms: C_1  and  C_56
    2  A    between atoms: C_1  and  C_59
    3  A    between atoms: C_5  and  C_32
    4  A    between atoms: C_5  and  C_39
    5  A    between atoms: C_14  and  N_23
    6  A    between atoms: C_15  and  C_17
    7  A    between atoms: C_15  and  C_34
    8  A    between atoms: C_16  and  C_59
    9  A    between atoms: C_19  and  C_27
   10  A    between atoms: C_22  and  C_25
   11  A    between atoms: C_24  and  C_54
   12  A    between atoms: C_25  and  N_41
   13  A    between atoms: O_26  and  C_53
   14  A    between atoms: O_26  and  C_64
   15  A    between atoms: C_27  and  O_33
   16  A    between atoms: C_29  and  C_43
   17  A    between atoms: O_31  and  C_53
   18  A    between atoms: O_31  and  C_60
   19  A    between atoms: O_33  and  C_59
   20  A    between atoms: C_35  and  C_48
   21  A    between atoms: C_35  and  C_56
   22  A    between atoms: C_38  and  C_43
   23  A    between atoms: C_39  and  C_60
   24  A    between atoms: C_39  and  C_62
                            x       y       z     vdW  Elec       q    Type
                         _______ _______ _______ _____ _____    ______ ____

>  <TORSDO>
F 24

$$$$
