=
 OpenBabel11072411503D

 53 60  0  0  1  0  0  0  0  0999 V2000
  160.6010  207.7220  150.5720 N   0  0  0  0  0  0  0  0  0  0  0  0
  162.1310  211.5590  151.4210 C   0  0  0  0  0  2  0  0  0  0  0  0
  161.8070  209.8220  149.8410 C   0  0  0  0  0  2  0  0  0  0  0  0
  161.2520  208.9450  150.9340 C   0  0  0  0  0  0  0  0  0  0  0  0
  161.2420  209.3750  152.2040 C   0  0  0  0  0  2  0  0  0  0  0  0
  161.9160  210.6560  152.6370 C   0  0  2  0  0  3  0  0  0  0  0  0
  162.7730  210.7920  150.3580 N   0  0  0  0  0  2  0  0  0  0  0  0
  160.9450  210.3920  154.8100 C   0  0  2  0  0  3  0  0  0  0  0  0
  161.1510  211.3340  153.7020 N   0  0  2  0  0  0  0  0  0  0  0  0
  161.2580  209.7920  157.2590 C   0  0  0  0  0  2  0  0  0  0  0  0
  159.4580  210.1840  154.9590 C   0  0  1  0  0  0  0  0  0  0  0  0
  161.6470  210.7680  156.1300 C   0  0  1  0  0  3  0  0  0  0  0  0
  157.5840  211.1330  153.5400 C   0  0  0  0  0  2  0  0  0  0  0  0
  158.7840  211.0260  156.0780 C   0  0  0  0  0  2  0  0  0  0  0  0
  159.7970  208.0160  156.1730 C   0  0  0  0  0  0  0  0  0  0  0  0
  159.0270  210.6190  153.5770 C   0  0  1  0  0  3  0  0  0  0  0  0
  157.3650  212.3450  154.4580 C   0  0  0  0  0  2  0  0  0  0  0  0
  159.1840  208.8010  155.1770 O   0  0  0  0  0  0  0  0  0  0  0  0
  158.3730  212.4200  155.6110 C   0  0  1  0  0  3  0  0  0  0  0  0
  161.1420  208.3420  156.7810 C   0  0  0  0  0  2  0  0  0  0  0  0
  159.9160  211.6380  153.1810 O   0  0  0  0  0  0  0  0  0  0  0  0
  159.2520  206.9310  156.5020 O   0  0  0  0  0  0  0  0  0  0  0  0
  158.5630  214.2780  157.2560 O   0  0  0  0  0  0  0  0  0  0  0  0
  156.7140  212.9270  157.2610 O   0  0  0  0  0  1  0  0  0  0  0  0
  157.8260  213.2170  156.7470 C   0  0  0  0  0  0  0  0  0  0  0  0
  163.7530  211.0070  157.2320 O   0  0  0  0  0  1  0  0  0  0  0  0
  163.1580  210.8110  155.9850 C   0  0  0  0  0  2  0  0  0  0  0  0
  160.6120  207.1760  149.2200 C   0  0  0  0  0  2  0  0  0  0  0  0
  161.3930  202.3440  148.2770 C   0  0  0  0  0  2  0  0  0  0  0  0
  161.5440  204.9800  144.7110 C   0  0  1  0  0  3  0  0  0  0  0  0
  163.5930  203.4680  146.7440 O   0  0  0  0  0  0  0  0  0  0  0  0
  159.3890  205.1650  145.7540 N   0  0  0  0  0  2  0  0  0  0  0  0
  162.1040  199.6540  147.3170 O   0  0  0  0  0  1  0  0  0  0  0  0
  160.3770  204.3840  149.9630 O   0  0  0  0  0  0  0  0  0  0  0  0
  159.9970  200.9130  144.5040 C   0  0  1  0  0  3  0  0  0  0  0  0
  161.7380  206.1600  149.0720 C   0  0  2  0  0  3  0  0  0  0  0  0
  162.6490  206.5410  148.0320 O   0  0  0  0  0  0  0  0  0  0  0  0
  160.3400  202.2980  144.9030 N   0  0  2  0  0  0  0  0  0  0  0  0
  160.9190  199.9460  145.2600 C   0  0  0  0  0  2  0  0  0  0  0  0
  158.2690  203.2050  144.1530 O   0  0  0  0  0  1  0  0  0  0  0  0
  162.1040  205.4660  143.5430 F   0  0  0  0  0  0  0  0  0  0  0  0
  161.6440  206.0280  145.8090 C   0  0  1  0  0  3  0  0  0  0  0  0
  160.0990  202.4610  146.2350 O   0  0  0  0  0  0  0  0  0  0  0  0
  160.2300  206.1980  146.3390 C   0  0  0  0  0  2  0  0  0  0  0  0
  160.0540  204.7700  144.5210 C   0  0  2  0  0  3  0  0  0  0  0  0
  161.1800  201.8210  146.8600 C   0  0  2  0  0  3  0  0  0  0  0  0
  162.7470  204.2330  147.2790 C   0  0  0  0  0  0  0  0  0  0  0  0
  161.2410  204.7250  149.1100 C   0  0  0  0  0  0  0  0  0  0  0  0
  162.6820  205.6750  146.9020 C   0  0  2  0  0  3  0  0  0  0  0  0
  159.6610  203.3390  144.1060 C   0  0  1  0  0  3  0  0  0  0  0  0
  161.0080  200.3080  146.7510 C   0  0  2  0  0  3  0  0  0  0  0  0
  161.8040  203.7500  148.2300 N   0  0  0  0  0  0  0  0  0  0  0  0
  158.5480  200.5410  144.8130 C   0  0  0  0  0  1  0  0  0  0  0  0
  1  4  2  0  0  0  0
  3  7  1  0  0  0  0
  3  4  1  0  0  0  0
  4  5  1  0  0  0  0
  5  6  1  0  0  0  0
  6  2  1  6  0  0  0
  6  9  1  0  0  0  0
  7  2  1  0  0  0  0
  8 11  1  0  0  0  0
  8 12  1  0  0  0  0
  9  8  1  0  0  0  0
 11 18  1  0  0  0  0
 11 14  1  0  0  0  0
 12 10  1  0  0  0  0
 13 16  1  0  0  0  0
 13 17  1  0  0  0  0
 15 22  2  0  0  0  0
 15 20  1  0  0  0  0
 16 11  1  0  0  0  0
 17 19  1  0  0  0  0
 18 15  1  0  0  0  0
 19 14  1  0  0  0  0
 19 25  1  0  0  0  0
 20 10  1  0  0  0  0
 21 16  1  0  0  0  0
 21  9  1  0  0  0  0
 25 23  2  0  0  0  0
 25 24  1  0  0  0  0
 27 12  1  0  0  0  0
 27 26  1  0  0  0  0
 28  1  1  0  0  0  0
 30 42  1  0  0  0  0
 31 47  2  0  0  0  0
 32 44  1  0  0  0  0
 35 53  1  0  0  0  0
 35 38  1  0  0  0  0
 35 39  1  0  0  0  0
 36 48  1  0  0  0  0
 36 28  1  0  0  0  0
 37 36  1  0  0  0  0
 38 43  1  0  0  0  0
 39 51  1  0  0  0  0
 41 30  1  0  0  0  0
 42 44  1  0  0  0  0
 42 49  1  0  0  0  0
 43 46  1  0  0  0  0
 45 30  1  0  0  0  0
 45 32  1  0  0  0  0
 46 29  1  0  0  0  0
 47 52  1  0  0  0  0
 48 34  2  0  0  0  0
 49 47  1  0  0  0  0
 49 37  1  0  0  0  0
 50 40  1  0  0  0  0
 50 45  1  0  0  0  0
 50 38  1  0  0  0  0
 51 46  1  0  0  0  0
 51 33  1  0  0  0  0
 52 29  1  0  0  0  0
 52 48  1  0  0  0  0
M  END
>  <MODEL>
1

>  <REMARK>
 VINA RESULT:       1.8      0.000      0.000
  Name = 
  6 active torsions:
  status: ('A' for Active; 'I' for Inactive)
    1  A    between atoms: N_9  and  C_46
    2  A    between atoms: C_11  and  C_38
    3  A    between atoms: N_19  and  C_33
    4  A    between atoms: N_19  and  C_38
    5  A    between atoms: C_21  and  C_22
    6  A    between atoms: C_45  and  C_47
                            x       y       z     vdW  Elec       q    Type
                         _______ _______ _______ _____ _____    ______ ____

>  <TORSDO>
F 6

$$$$
=
 OpenBabel11072411503D

 53 60  0  0  1  0  0  0  0  0999 V2000
  162.6310  208.3270  151.9450 N   0  0  0  0  0  2  0  0  0  0  0  0
  160.8150  212.1000  151.4480 C   0  0  0  0  0  2  0  0  0  0  0  0
  161.8690  210.2240  150.4560 C   0  0  0  0  0  2  0  0  0  0  0  0
  162.1630  209.6750  151.8280 C   0  0  0  0  0  0  0  0  0  0  0  0
  161.8520  210.3880  152.9200 C   0  0  0  0  0  3  0  0  0  0  0  0
  161.3570  211.8140  152.8500 C   0  0  2  0  0  3  0  0  0  0  0  0
  161.8010  211.6850  150.4550 N   0  0  0  0  0  2  0  0  0  0  0  0
  160.3250  210.9550  154.8320 C   0  0  2  0  0  3  0  0  0  0  0  0
  160.3550  212.0870  153.8980 N   0  0  2  0  0  0  0  0  0  0  0  0
  160.5920  210.0580  157.1940 C   0  0  0  0  0  2  0  0  0  0  0  0
  158.9420  210.3520  154.7700 C   0  0  1  0  0  0  0  0  0  0  0  0
  160.7900  211.2730  156.2660 C   0  0  1  0  0  3  0  0  0  0  0  0
  157.0000  211.0120  153.2810 C   0  0  0  0  0  2  0  0  0  0  0  0
  157.9780  210.7970  155.9060 C   0  0  0  0  0  2  0  0  0  0  0  0
  159.7590  208.1720  155.7040 C   0  0  0  0  0  0  0  0  0  0  0  0
  158.5210  210.8850  153.4200 C   0  0  1  0  0  3  0  0  0  0  0  0
  156.3890  211.9590  154.3240 C   0  0  0  0  0  2  0  0  0  0  0  0
  159.0360  208.9280  154.7600 O   0  0  0  0  0  0  0  0  0  0  0  0
  157.2440  212.0970  155.5900 C   0  0  1  0  0  3  0  0  0  0  0  0
  160.9110  208.7260  156.5090 C   0  0  0  0  0  2  0  0  0  0  0  0
  159.1290  212.1490  153.2790 O   0  0  0  0  0  0  0  0  0  0  0  0
  159.5030  206.9450  155.8110 O   0  0  0  0  0  0  0  0  0  0  0  0
  155.4490  211.6700  157.2600 O   0  0  0  0  0  0  0  0  0  0  0  0
  156.5640  213.6710  157.2610 O   0  0  0  0  0  1  0  0  0  0  0  0
  156.4130  212.5290  156.7510 C   0  0  0  0  0  0  0  0  0  0  0  0
  163.0790  210.6770  155.9300 O   0  0  0  0  0  1  0  0  0  0  0  0
  162.2400  211.7240  156.3120 C   0  0  0  0  0  2  0  0  0  0  0  0
  163.1700  207.5630  150.8250 C   0  0  0  0  0  2  0  0  0  0  0  0
  161.9720  205.1000  146.6610 C   0  0  0  0  0  2  0  0  0  0  0  0
  159.5410  204.0310  150.2160 C   0  0  1  0  0  3  0  0  0  0  0  0
  159.3020  205.8550  147.5270 O   0  0  0  0  0  0  0  0  0  0  0  0
  161.8580  203.5880  150.6660 N   0  0  0  0  0  2  0  0  0  0  0  0
  160.8130  203.5930  144.4140 O   0  0  0  0  0  1  0  0  0  0  0  0
  163.8350  206.6140  148.1690 O   0  0  0  0  0  0  0  0  0  0  0  0
  160.5910  201.0920  147.1760 C   0  0  1  0  0  3  0  0  0  0  0  0
  162.2180  207.6290  149.6370 C   0  0  2  0  0  3  0  0  0  0  0  0
  160.8500  207.6290  150.0660 O   0  0  0  0  0  0  0  0  0  0  0  0
  160.5860  202.2090  148.1500 N   0  0  2  0  0  0  0  0  0  0  0  0
  160.3810  201.6720  145.7700 C   0  0  0  0  0  2  0  0  0  0  0  0
  161.6760  200.9490  149.8540 O   0  0  0  0  0  1  0  0  0  0  0  0
  158.3570  203.7950  150.8900 F   0  0  0  0  0  0  0  0  0  0  0  0
  160.1750  205.3200  150.7170 C   0  0  1  0  0  3  0  0  0  0  0  0
  161.6330  203.0430  147.8910 O   0  0  0  0  0  0  0  0  0  0  0  0
  161.5950  204.9480  151.1110 C   0  0  0  0  0  2  0  0  0  0  0  0
  160.5530  202.9530  150.5550 C   0  0  2  0  0  3  0  0  0  0  0  0
  161.2170  203.7790  146.7720 C   0  0  2  0  0  3  0  0  0  0  0  0
  160.2920  206.0930  148.2700 C   0  0  0  0  0  0  0  0  0  0  0  0
  162.6240  206.6940  148.5100 C   0  0  0  0  0  0  0  0  0  0  0  0
  160.0940  206.4810  149.6970 C   0  0  2  0  0  3  0  0  0  0  0  0
  160.5850  201.7750  149.5620 C   0  0  1  0  0  3  0  0  0  0  0  0
  161.2790  202.8950  145.5290 C   0  0  2  0  0  3  0  0  0  0  0  0
  161.6270  205.9650  147.7920 N   0  0  0  0  0  0  0  0  0  0  0  0
  161.8950  200.2970  147.1820 C   0  0  0  0  0  1  0  0  0  0  0  0
  3  4  1  0  0  0  0
  4  1  1  0  0  0  0
  4  5  2  0  0  0  0
  6  2  1  6  0  0  0
  6  5  1  0  0  0  0
  6  9  1  0  0  0  0
  7  3  1  0  0  0  0
  7  2  1  0  0  0  0
  8 12  1  0  0  0  0
  9  8  1  0  0  0  0
 11  8  1  0  0  0  0
 11 14  1  0  0  0  0
 12 27  1  0  0  0  0
 12 10  1  0  0  0  0
 13 16  1  0  0  0  0
 13 17  1  0  0  0  0
 15 22  2  0  0  0  0
 15 20  1  0  0  0  0
 16 11  1  0  0  0  0
 17 19  1  0  0  0  0
 18 11  1  0  0  0  0
 18 15  1  0  0  0  0
 19 14  1  0  0  0  0
 19 25  1  0  0  0  0
 20 10  1  0  0  0  0
 21 16  1  0  0  0  0
 21  9  1  0  0  0  0
 25 23  2  0  0  0  0
 25 24  1  0  0  0  0
 26 27  1  0  0  0  0
 28  1  1  0  0  0  0
 29 46  1  0  0  0  0
 29 52  1  0  0  0  0
 30 45  1  0  0  0  0
 30 42  1  0  0  0  0
 30 41  1  0  0  0  0
 31 47  2  0  0  0  0
 32 44  1  0  0  0  0
 33 51  1  0  0  0  0
 34 48  2  0  0  0  0
 35 53  1  0  0  0  0
 35 38  1  0  0  0  0
 36 37  1  0  0  0  0
 36 28  1  0  0  0  0
 38 50  1  0  0  0  0
 39 35  1  0  0  0  0
 42 44  1  0  0  0  0
 43 38  1  0  0  0  0
 45 32  1  0  0  0  0
 46 43  1  0  0  0  0
 47 49  1  0  0  0  0
 48 36  1  0  0  0  0
 49 37  1  0  0  0  0
 49 42  1  0  0  0  0
 50 40  1  0  0  0  0
 50 45  1  0  0  0  0
 51 39  1  0  0  0  0
 51 46  1  0  0  0  0
 52 47  1  0  0  0  0
 52 48  1  0  0  0  0
M  END
>  <MODEL>
2

>  <REMARK>
 VINA RESULT:       3.9      1.990      3.246
  Name = 
  6 active torsions:
  status: ('A' for Active; 'I' for Inactive)
    1  A    between atoms: N_9  and  C_46
    2  A    between atoms: C_11  and  C_38
    3  A    between atoms: N_19  and  C_33
    4  A    between atoms: N_19  and  C_38
    5  A    between atoms: C_21  and  C_22
    6  A    between atoms: C_45  and  C_47
                            x       y       z     vdW  Elec       q    Type
                         _______ _______ _______ _____ _____    ______ ____

>  <TORSDO>
F 6

$$$$
