=
 OpenBabel11072413583D

 29 33  0  0  1  0  0  0  0  0999 V2000
  162.5840  207.6040  148.4000 N   0  0  0  0  0  2  0  0  0  0  0  0
  160.7740  207.9450  151.3430 C   0  0  2  0  0  3  0  0  0  0  0  0
  161.3290  206.2170  149.9390 C   0  0  1  0  0  3  0  0  0  0  0  0
  162.1470  207.2160  149.6740 C   0  0  2  0  0  3  0  0  0  0  0  0
  162.0300  209.4670  149.6310 C   0  0  0  0  0  2  0  0  0  0  0  0
  160.5230  206.5770  151.0100 O   0  0  0  0  0  0  0  0  0  0  0  0
  162.6110  209.0090  148.3450 N   0  0  0  0  0  2  0  0  0  0  0  0
  161.9150  208.3050  150.5030 N   0  0  1  0  0  0  0  0  0  0  0  0
  161.1410  203.6860  147.0840 C   0  0  0  0  0  3  0  0  0  0  0  0
  161.0980  202.4770  147.7940 C   0  0  0  0  0  2  0  0  0  0  0  0
  161.1720  204.9310  147.7500 C   0  0  0  0  0  0  0  0  0  0  0  0
  161.1420  202.1810  151.3290 C   0  0  0  0  0  3  0  0  0  0  0  0
  161.1320  203.7320  149.8510 C   0  0  0  0  0  0  0  0  0  0  0  0
  161.1720  204.9640  149.1780 C   0  0  0  0  0  0  0  0  0  0  0  0
  161.0920  201.5240  150.1000 C   0  0  0  0  0  3  0  0  0  0  0  0
  161.0910  202.5440  149.1800 C   0  0  0  0  0  0  0  0  0  0  0  0
  161.1740  203.5270  151.1780 N   0  0  0  0  0  0  0  0  0  0  0  0
  161.2000  206.0760  146.9380 O   0  0  0  0  0  0  0  0  0  0  0  0
  160.4480  206.2410  145.7450 C   0  0  0  0  0  1  0  0  0  0  0  0
  160.9650  209.3200  154.6840 C   0  0  2  0  0  3  0  0  0  0  0  0
  161.1520  208.0620  152.8130 C   0  0  1  0  0  3  0  0  0  0  0  0
  161.3460  206.8660  154.9800 C   0  0  0  0  0  2  0  0  0  0  0  0
  160.3860  209.0710  153.4250 O   0  0  0  0  0  0  0  0  0  0  0  0
  161.3570  208.3420  156.8500 O   0  0  0  0  0  1  0  0  0  0  0  0
  160.7440  208.1180  155.6160 C   0  0  1  0  0  3  0  0  0  0  0  0
  160.9030  206.7320  153.5280 C   0  0  0  0  0  2  0  0  0  0  0  0
  161.1070  211.5640  155.5040 O   0  0  0  0  0  0  0  0  0  0  0  0
  160.3780  210.5650  155.2650 C   0  0  0  0  0  0  0  0  0  0  0  0
  158.9840  210.6250  155.5410 N   0  0  0  0  0  1  0  0  0  0  0  0
  2  6  1  6  0  0  0
  2 21  1  0  0  0  0
  3 14  1  6  0  0  0
  3  6  1  0  0  0  0
  4  1  1  6  0  0  0
  4  3  1  0  0  0  0
  4  8  1  0  0  0  0
  7  1  1  0  0  0  0
  7  5  1  0  0  0  0
  8  5  1  6  0  0  0
  8  2  1  0  0  0  0
  9 11  2  0  0  0  0
  9 10  1  0  0  0  0
 10 16  1  0  0  0  0
 11 14  1  0  0  0  0
 13 17  1  0  0  0  0
 14 13  2  0  0  0  0
 15 12  1  0  0  0  0
 16 13  1  0  0  0  0
 16 15  2  0  0  0  0
 17 12  2  0  0  0  0
 18 11  1  0  0  0  0
 19 18  1  0  0  0  0
 20 28  1  1  0  0  0
 20 25  1  0  0  0  0
 21 23  1  0  0  0  0
 21 26  1  1  0  0  0
 22 25  1  0  0  0  0
 23 20  1  0  0  0  0
 25 24  1  1  0  0  0
 26 22  1  0  0  0  0
 28 27  2  0  0  0  0
 28 29  1  0  0  0  0
M  END
>  <MODEL>
1

>  <REMARK>
 VINA RESULT:      -8.8      0.000      0.000
  Name = 
  4 active torsions:
  status: ('A' for Active; 'I' for Inactive)
    1  A    between atoms: C_2  and  C_16
    2  A    between atoms: C_6  and  O_9
    3  A    between atoms: C_8  and  C_10
    4  A    between atoms: C_14  and  C_18
                            x       y       z     vdW  Elec       q    Type
                         _______ _______ _______ _____ _____    ______ ____

>  <TORSDO>
F 4

$$$$
=
 OpenBabel11072413583D

 29 33  0  0  1  0  0  0  0  0999 V2000
  162.5770  208.2200  148.6310 N   0  0  0  0  0  2  0  0  0  0  0  0
  160.7370  208.3190  151.5720 C   0  0  2  0  0  3  0  0  0  0  0  0
  161.4790  206.6820  150.1460 C   0  0  1  0  0  3  0  0  0  0  0  0
  162.1830  207.7690  149.8980 C   0  0  2  0  0  3  0  0  0  0  0  0
  161.8210  209.9940  149.8870 C   0  0  0  0  0  2  0  0  0  0  0  0
  160.6370  206.9360  151.2190 O   0  0  0  0  0  0  0  0  0  0  0  0
  162.4500  209.6210  148.5970 N   0  0  0  0  0  2  0  0  0  0  0  0
  161.8320  208.8130  150.7420 N   0  0  1  0  0  0  0  0  0  0  0  0
  161.3700  202.9860  149.1870 C   0  0  0  0  0  3  0  0  0  0  0  0
  161.1870  203.0700  147.7990 C   0  0  0  0  0  3  0  0  0  0  0  0
  161.5140  204.1440  149.9830 C   0  0  0  0  0  0  0  0  0  0  0  0
  160.9520  206.0880  145.9480 C   0  0  0  0  0  3  0  0  0  0  0  0
  161.2740  205.4710  147.9740 C   0  0  0  0  0  0  0  0  0  0  0  0
  161.4610  205.4320  149.3660 C   0  0  0  0  0  0  0  0  0  0  0  0
  160.9450  204.6940  145.9190 C   0  0  0  0  0  3  0  0  0  0  0  0
  161.1480  204.3350  147.2300 C   0  0  0  0  0  0  0  0  0  0  0  0
  161.1440  206.5630  147.2020 N   0  0  0  0  0  2  0  0  0  0  0  0
  161.7050  203.9390  151.3580 O   0  0  0  0  0  0  0  0  0  0  0  0
  160.6870  203.5520  152.2690 C   0  0  0  0  0  1  0  0  0  0  0  0
  160.8470  209.7090  154.9110 C   0  0  2  0  0  3  0  0  0  0  0  0
  161.0980  208.4540  153.0460 C   0  0  1  0  0  3  0  0  0  0  0  0
  161.3200  207.2720  155.2180 C   0  0  0  0  0  2  0  0  0  0  0  0
  160.2880  209.4340  153.6480 O   0  0  0  0  0  0  0  0  0  0  0  0
  161.2580  208.7540  157.0830 O   0  0  0  0  0  1  0  0  0  0  0  0
  160.6650  208.5020  155.8450 C   0  0  1  0  0  3  0  0  0  0  0  0
  160.8940  207.1180  153.7620 C   0  0  0  0  0  2  0  0  0  0  0  0
  160.9140  211.8870  155.9000 O   0  0  0  0  0  0  0  0  0  0  0  0
  160.2070  210.9320  155.4830 C   0  0  0  0  0  0  0  0  0  0  0  0
  158.7890  211.0210  155.5480 N   0  0  0  0  0  1  0  0  0  0  0  0
  2  6  1  6  0  0  0
  2 21  1  0  0  0  0
  3 14  1  6  0  0  0
  3  6  1  0  0  0  0
  4  1  1  6  0  0  0
  4  3  1  0  0  0  0
  4  8  1  0  0  0  0
  7  1  1  0  0  0  0
  7  5  1  0  0  0  0
  8  5  1  6  0  0  0
  8  2  1  0  0  0  0
  9 11  1  0  0  0  0
 10  9  2  0  0  0  0
 11 18  1  0  0  0  0
 12 17  1  0  0  0  0
 13 14  1  0  0  0  0
 14 11  2  0  0  0  0
 15 12  2  0  0  0  0
 15 16  1  0  0  0  0
 16 10  1  0  0  0  0
 16 13  2  0  0  0  0
 17 13  1  0  0  0  0
 18 19  1  0  0  0  0
 20 28  1  1  0  0  0
 20 25  1  0  0  0  0
 21 23  1  0  0  0  0
 21 26  1  1  0  0  0
 22 25  1  0  0  0  0
 23 20  1  0  0  0  0
 25 24  1  1  0  0  0
 26 22  1  0  0  0  0
 28 29  1  0  0  0  0
 28 27  2  0  0  0  0
M  END
>  <MODEL>
2

>  <REMARK>
 VINA RESULT:      -8.2      1.410      2.631
  Name = 
  4 active torsions:
  status: ('A' for Active; 'I' for Inactive)
    1  A    between atoms: C_2  and  C_16
    2  A    between atoms: C_6  and  O_9
    3  A    between atoms: C_8  and  C_10
    4  A    between atoms: C_14  and  C_18
                            x       y       z     vdW  Elec       q    Type
                         _______ _______ _______ _____ _____    ______ ____

>  <TORSDO>
F 4

$$$$
=
 OpenBabel11072413583D

 29 33  0  0  1  0  0  0  0  0999 V2000
  160.3780  203.1500  150.7190 N   0  0  0  0  0  2  0  0  0  0  0  0
  161.9220  206.2410  151.0480 C   0  0  2  0  0  3  0  0  0  0  0  0
  161.2210  204.9260  149.3040 C   0  0  1  0  0  3  0  0  0  0  0  0
  160.6150  204.4920  150.3910 C   0  0  2  0  0  3  0  0  0  0  0  0
  161.1180  204.2840  152.5790 C   0  0  0  0  0  2  0  0  0  0  0  0
  161.9670  206.0490  149.6310 O   0  0  0  0  0  0  0  0  0  0  0  0
  160.5960  202.9820  152.0980 N   0  0  0  0  0  2  0  0  0  0  0  0
  160.9480  205.2530  151.5040 N   0  0  1  0  0  0  0  0  0  0  0  0
  161.2260  202.3200  146.5110 C   0  0  0  0  0  3  0  0  0  0  0  0
  161.0200  203.1280  145.3830 C   0  0  0  0  0  3  0  0  0  0  0  0
  161.3410  202.8750  147.8040 C   0  0  0  0  0  0  0  0  0  0  0  0
  160.6530  206.6570  145.4390 C   0  0  0  0  0  3  0  0  0  0  0  0
  161.0260  205.0620  146.8200 C   0  0  0  0  0  0  0  0  0  0  0  0
  161.2350  204.2890  147.9740 C   0  0  0  0  0  0  0  0  0  0  0  0
  160.6940  205.4970  144.6660 C   0  0  0  0  0  3  0  0  0  0  0  0
  160.9290  204.4980  145.5820 C   0  0  0  0  0  0  0  0  0  0  0  0
  160.8480  206.3920  146.7540 N   0  0  0  0  0  2  0  0  0  0  0  0
  161.5600  201.9710  148.8560 O   0  0  0  0  0  0  0  0  0  0  0  0
  161.4800  200.5580  148.7410 C   0  0  0  0  0  1  0  0  0  0  0  0
  160.7750  209.0570  153.0090 C   0  0  2  0  0  3  0  0  0  0  0  0
  161.4270  207.6460  151.3650 C   0  0  1  0  0  3  0  0  0  0  0  0
  161.7290  210.0720  150.9320 C   0  0  0  0  0  2  0  0  0  0  0  0
  161.4940  207.8740  152.7520 O   0  0  0  0  0  0  0  0  0  0  0  0
  160.7930  211.4380  152.6450 O   0  0  0  0  0  1  0  0  0  0  0  0
  161.5260  210.2680  152.4330 C   0  0  1  0  0  3  0  0  0  0  0  0
  162.2870  208.6840  150.6400 C   0  0  0  0  0  2  0  0  0  0  0  0
  159.6150  209.8990  154.9260 O   0  0  0  0  0  0  0  0  0  0  0  0
  160.5670  209.2040  154.4820 C   0  0  0  0  0  0  0  0  0  0  0  0
  161.4460  208.5480  155.3860 N   0  0  0  0  0  1  0  0  0  0  0  0
  1  7  1  0  0  0  0
  2  6  1  6  0  0  0
  2 21  1  0  0  0  0
  2  8  1  0  0  0  0
  3 14  1  1  0  0  0
  3  6  1  0  0  0  0
  3  4  1  0  0  0  0
  4  1  1  1  0  0  0
  4  8  1  0  0  0  0
  7  5  1  0  0  0  0
  8  5  1  1  0  0  0
  9 11  1  0  0  0  0
 10 16  1  0  0  0  0
 10  9  2  0  0  0  0
 11 14  2  0  0  0  0
 11 18  1  0  0  0  0
 12 17  1  0  0  0  0
 13 14  1  0  0  0  0
 15 12  2  0  0  0  0
 15 16  1  0  0  0  0
 16 13  2  0  0  0  0
 17 13  1  0  0  0  0
 19 18  1  0  0  0  0
 20 28  1  1  0  0  0
 21 26  1  6  0  0  0
 21 23  1  0  0  0  0
 22 25  1  0  0  0  0
 23 20  1  0  0  0  0
 25 24  1  6  0  0  0
 25 20  1  0  0  0  0
 26 22  1  0  0  0  0
 28 27  2  0  0  0  0
 28 29  1  0  0  0  0
M  END
>  <MODEL>
3

>  <REMARK>
 VINA RESULT:      -8.0      1.960      4.141
  Name = 
  4 active torsions:
  status: ('A' for Active; 'I' for Inactive)
    1  A    between atoms: C_2  and  C_16
    2  A    between atoms: C_6  and  O_9
    3  A    between atoms: C_8  and  C_10
    4  A    between atoms: C_14  and  C_18
                            x       y       z     vdW  Elec       q    Type
                         _______ _______ _______ _____ _____    ______ ____

>  <TORSDO>
F 4

$$$$
=
 OpenBabel11072413583D

 29 33  0  0  1  0  0  0  0  0999 V2000
  162.4350  209.1610  149.4620 N   0  0  0  0  0  2  0  0  0  0  0  0
  160.4700  210.3380  152.0700 C   0  0  2  0  0  3  0  0  0  0  0  0
  161.3070  208.3020  151.4260 C   0  0  1  0  0  3  0  0  0  0  0  0
  161.9970  209.2290  150.7920 C   0  0  2  0  0  3  0  0  0  0  0  0
  161.5870  211.2560  149.8950 C   0  0  0  0  0  2  0  0  0  0  0  0
  160.4150  208.9260  152.2870 O   0  0  0  0  0  0  0  0  0  0  0  0
  162.2790  210.4300  148.8750 N   0  0  0  0  0  2  0  0  0  0  0  0
  161.5880  210.5070  151.1450 N   0  0  1  0  0  0  0  0  0  0  0  0
  161.4230  204.5270  152.0010 C   0  0  0  0  0  3  0  0  0  0  0  0
  161.1870  204.0460  150.7040 C   0  0  0  0  0  3  0  0  0  0  0  0
  161.5130  205.9110  152.2690 C   0  0  0  0  0  0  0  0  0  0  0  0
  160.6790  206.0720  147.8360 C   0  0  0  0  0  3  0  0  0  0  0  0
  161.1130  206.3230  149.9190 C   0  0  0  0  0  0  0  0  0  0  0  0
  161.3500  206.8460  151.2010 C   0  0  0  0  0  0  0  0  0  0  0  0
  160.7680  204.7810  148.3560 C   0  0  0  0  0  3  0  0  0  0  0  0
  161.0410  204.9800  149.6890 C   0  0  0  0  0  0  0  0  0  0  0  0
  160.8810  207.0130  148.7900 N   0  0  0  0  0  2  0  0  0  0  0  0
  161.7650  206.2760  153.6010 O   0  0  0  0  0  0  0  0  0  0  0  0
  160.7630  206.5400  154.5720 C   0  0  0  0  0  1  0  0  0  0  0  0
  159.9040  212.3520  155.0220 C   0  0  2  0  0  3  0  0  0  0  0  0
  160.7650  211.0540  153.3820 C   0  0  1  0  0  3  0  0  0  0  0  0
  161.8410  210.8840  155.6120 C   0  0  0  0  0  2  0  0  0  0  0  0
  159.5610  211.4680  153.9810 O   0  0  0  0  0  0  0  0  0  0  0  0
  160.9820  212.4650  157.1730 O   0  0  0  0  0  1  0  0  0  0  0  0
  160.6000  211.5850  156.1590 C   0  0  1  0  0  3  0  0  0  0  0  0
  161.5110  210.1190  154.3350 C   0  0  0  0  0  2  0  0  0  0  0  0
  157.7480  212.3870  156.0600 O   0  0  0  0  0  0  0  0  0  0  0  0
  158.6740  213.0430  155.5150 C   0  0  0  0  0  0  0  0  0  0  0  0
  158.5530  214.4530  155.3730 N   0  0  0  0  0  1  0  0  0  0  0  0
  2  6  1  1  0  0  0
  2 21  1  0  0  0  0
  3 14  1  6  0  0  0
  3  6  1  0  0  0  0
  4  1  1  6  0  0  0
  4  8  1  0  0  0  0
  4  3  1  0  0  0  0
  7  1  1  0  0  0  0
  7  5  1  0  0  0  0
  8  5  1  6  0  0  0
  8  2  1  0  0  0  0
  9 11  1  0  0  0  0
 10  9  2  0  0  0  0
 11 18  1  0  0  0  0
 12 15  2  0  0  0  0
 12 17  1  0  0  0  0
 13 14  1  0  0  0  0
 14 11  2  0  0  0  0
 15 16  1  0  0  0  0
 16 13  2  0  0  0  0
 16 10  1  0  0  0  0
 17 13  1  0  0  0  0
 18 19  1  0  0  0  0
 20 28  1  1  0  0  0
 20 25  1  0  0  0  0
 21 23  1  0  0  0  0
 21 26  1  1  0  0  0
 22 25  1  0  0  0  0
 23 20  1  0  0  0  0
 25 24  1  1  0  0  0
 26 22  1  0  0  0  0
 28 27  2  0  0  0  0
 29 28  1  0  0  0  0
M  END
>  <MODEL>
4

>  <REMARK>
 VINA RESULT:      -7.9      2.260      3.815
  Name = 
  4 active torsions:
  status: ('A' for Active; 'I' for Inactive)
    1  A    between atoms: C_2  and  C_16
    2  A    between atoms: C_6  and  O_9
    3  A    between atoms: C_8  and  C_10
    4  A    between atoms: C_14  and  C_18
                            x       y       z     vdW  Elec       q    Type
                         _______ _______ _______ _____ _____    ______ ____

>  <TORSDO>
F 4

$$$$
=
 OpenBabel11072413583D

 29 33  0  0  1  0  0  0  0  0999 V2000
  160.7100  202.8460  150.1850 N   0  0  0  0  0  2  0  0  0  0  0  0
  161.7840  205.7360  151.7780 C   0  0  2  0  0  3  0  0  0  0  0  0
  161.3850  205.0990  149.6100 C   0  0  1  0  0  3  0  0  0  0  0  0
  160.7780  204.2290  150.3930 C   0  0  2  0  0  3  0  0  0  0  0  0
  161.1660  203.2760  152.3990 C   0  0  0  0  0  2  0  0  0  0  0  0
  161.9450  206.0920  150.4020 O   0  0  0  0  0  0  0  0  0  0  0  0
  160.8620  202.1990  151.4250 N   0  0  0  0  0  2  0  0  0  0  0  0
  160.9300  204.5520  151.7350 N   0  0  1  0  0  0  0  0  0  0  0  0
  162.4210  205.8660  146.0140 C   0  0  0  0  0  3  0  0  0  0  0  0
  162.1080  204.6560  145.3760 C   0  0  0  0  0  3  0  0  0  0  0  0
  162.1580  206.0650  147.3880 C   0  0  0  0  0  0  0  0  0  0  0  0
  160.7020  201.8130  146.9660 C   0  0  0  0  0  3  0  0  0  0  0  0
  161.2770  203.8140  147.4750 C   0  0  0  0  0  0  0  0  0  0  0  0
  161.5720  205.0090  148.1510 C   0  0  0  0  0  0  0  0  0  0  0  0
  161.1690  202.3800  145.7810 C   0  0  0  0  0  3  0  0  0  0  0  0
  161.5320  203.6550  146.1440 C   0  0  0  0  0  0  0  0  0  0  0  0
  160.7740  202.6850  148.0010 N   0  0  0  0  0  2  0  0  0  0  0  0
  162.5010  207.3200  147.9160 O   0  0  0  0  0  0  0  0  0  0  0  0
  161.5840  208.3790  148.1460 C   0  0  0  0  0  1  0  0  0  0  0  0
  160.6660  207.7650  154.5570 C   0  0  2  0  0  3  0  0  0  0  0  0
  161.0780  206.8610  152.5250 C   0  0  1  0  0  3  0  0  0  0  0  0
  160.5870  209.2930  152.5790 C   0  0  0  0  0  2  0  0  0  0  0  0
  161.5380  206.9120  153.8540 O   0  0  0  0  0  0  0  0  0  0  0  0
  159.9520  210.0580  154.7440 O   0  0  0  0  0  1  0  0  0  0  0  0
  160.8470  209.2160  154.0820 C   0  0  1  0  0  3  0  0  0  0  0  0
  161.3530  208.2010  151.8410 C   0  0  0  0  0  2  0  0  0  0  0  0
  161.9750  208.1220  156.5280 O   0  0  0  0  0  0  0  0  0  0  0  0
  160.9250  207.6440  156.0240 C   0  0  0  0  0  0  0  0  0  0  0  0
  159.9750  206.9910  156.8560 N   0  0  0  0  0  1  0  0  0  0  0  0
  1  7  1  0  0  0  0
  2  6  1  6  0  0  0
  2 21  1  0  0  0  0
  3 14  1  1  0  0  0
  3  4  1  0  0  0  0
  3  6  1  0  0  0  0
  4  1  1  1  0  0  0
  4  8  1  0  0  0  0
  7  5  1  0  0  0  0
  8  2  1  0  0  0  0
  8  5  1  1  0  0  0
  9 11  1  0  0  0  0
 10  9  2  0  0  0  0
 10 16  1  0  0  0  0
 11 18  1  0  0  0  0
 11 14  2  0  0  0  0
 12 17  1  0  0  0  0
 13 17  1  0  0  0  0
 13 14  1  0  0  0  0
 15 16  1  0  0  0  0
 15 12  2  0  0  0  0
 16 13  2  0  0  0  0
 18 19  1  0  0  0  0
 20 28  1  1  0  0  0
 21 26  1  6  0  0  0
 21 23  1  0  0  0  0
 22 25  1  0  0  0  0
 23 20  1  0  0  0  0
 25 20  1  0  0  0  0
 25 24  1  1  0  0  0
 26 22  1  0  0  0  0
 28 27  2  0  0  0  0
 28 29  1  0  0  0  0
M  END
>  <MODEL>
5

>  <REMARK>
 VINA RESULT:      -7.8      2.229      3.509
  Name = 
  4 active torsions:
  status: ('A' for Active; 'I' for Inactive)
    1  A    between atoms: C_2  and  C_16
    2  A    between atoms: C_6  and  O_9
    3  A    between atoms: C_8  and  C_10
    4  A    between atoms: C_14  and  C_18
                            x       y       z     vdW  Elec       q    Type
                         _______ _______ _______ _____ _____    ______ ____

>  <TORSDO>
F 4

$$$$
=
 OpenBabel11072413583D

 29 33  0  0  1  0  0  0  0  0999 V2000
  160.7330  211.4260  151.9970 N   0  0  0  0  0  2  0  0  0  0  0  0
  161.6920  208.1190  152.4380 C   0  0  2  0  0  3  0  0  0  0  0  0
  160.5990  209.7000  153.6910 C   0  0  1  0  0  3  0  0  0  0  0  0
  160.5720  210.1050  152.4370 C   0  0  2  0  0  3  0  0  0  0  0  0
  161.9410  210.0060  150.6500 C   0  0  0  0  0  2  0  0  0  0  0  0
  161.1980  208.4490  153.7390 O   0  0  0  0  0  0  0  0  0  0  0  0
  161.5150  211.4150  150.8280 N   0  0  0  0  0  2  0  0  0  0  0  0
  161.1800  209.1910  151.5880 N   0  0  1  0  0  0  0  0  0  0  0  0
  160.6840  211.6420  156.9800 C   0  0  0  0  0  3  0  0  0  0  0  0
  159.3720  212.1340  157.0400 C   0  0  0  0  0  2  0  0  0  0  0  0
  161.1100  210.8060  155.9240 C   0  0  0  0  0  0  0  0  0  0  0  0
  156.8510  211.5320  154.6160 C   0  0  0  0  0  3  0  0  0  0  0  0
  158.8890  210.9780  154.9820 C   0  0  0  0  0  0  0  0  0  0  0  0
  160.1920  210.4620  154.8860 C   0  0  0  0  0  0  0  0  0  0  0  0
  157.1940  212.1460  155.8210 C   0  0  0  0  0  3  0  0  0  0  0  0
  158.5030  211.7750  156.0200 C   0  0  0  0  0  0  0  0  0  0  0  0
  157.8870  210.8260  154.1000 N   0  0  0  0  0  0  0  0  0  0  0  0
  162.4410  210.3620  155.9750 O   0  0  0  0  0  0  0  0  0  0  0  0
  163.4110  210.8140  156.9080 C   0  0  0  0  0  1  0  0  0  0  0  0
  160.7630  205.4140  150.2230 C   0  0  2  0  0  3  0  0  0  0  0  0
  161.1220  206.7800  151.9900 C   0  0  1  0  0  3  0  0  0  0  0  0
  160.9710  204.3500  152.4760 C   0  0  0  0  0  2  0  0  0  0  0  0
  161.5340  206.5030  150.6730 O   0  0  0  0  0  0  0  0  0  0  0  0
  160.3670  203.0630  150.5650 O   0  0  0  0  0  1  0  0  0  0  0  0
  161.1620  204.1350  150.9760 C   0  0  1  0  0  3  0  0  0  0  0  0
  161.6060  205.6650  152.9180 C   0  0  0  0  0  2  0  0  0  0  0  0
  161.5660  204.2530  148.2910 O   0  0  0  0  0  0  0  0  0  0  0  0
  160.9480  205.2490  148.7490 C   0  0  0  0  0  0  0  0  0  0  0  0
  160.4130  206.2200  147.8580 N   0  0  0  0  0  1  0  0  0  0  0  0
  2  6  1  1  0  0  0
  3  6  1  0  0  0  0
  3 14  1  1  0  0  0
  4  1  1  1  0  0  0
  4  3  1  0  0  0  0
  5  7  1  0  0  0  0
  7  1  1  0  0  0  0
  8  5  1  1  0  0  0
  8  4  1  0  0  0  0
  8  2  1  0  0  0  0
  9 10  1  0  0  0  0
 11 18  1  0  0  0  0
 11  9  2  0  0  0  0
 12 15  1  0  0  0  0
 13 16  1  0  0  0  0
 14 13  2  0  0  0  0
 14 11  1  0  0  0  0
 15 16  2  0  0  0  0
 16 10  1  0  0  0  0
 17 12  2  0  0  0  0
 17 13  1  0  0  0  0
 18 19  1  0  0  0  0
 20 28  1  6  0  0  0
 20 23  1  0  0  0  0
 20 25  1  0  0  0  0
 21  2  1  0  0  0  0
 21 26  1  1  0  0  0
 22 26  1  0  0  0  0
 23 21  1  0  0  0  0
 25 24  1  6  0  0  0
 25 22  1  0  0  0  0
 27 28  2  0  0  0  0
 29 28  1  0  0  0  0
M  END
>  <MODEL>
6

>  <REMARK>
 VINA RESULT:      -7.7      2.188      8.039
  Name = 
  4 active torsions:
  status: ('A' for Active; 'I' for Inactive)
    1  A    between atoms: C_2  and  C_16
    2  A    between atoms: C_6  and  O_9
    3  A    between atoms: C_8  and  C_10
    4  A    between atoms: C_14  and  C_18
                            x       y       z     vdW  Elec       q    Type
                         _______ _______ _______ _____ _____    ______ ____

>  <TORSDO>
F 4

$$$$
=
 OpenBabel11072413583D

 29 33  0  0  1  0  0  0  0  0999 V2000
  162.0100  205.7820  152.5270 N   0  0  0  0  0  2  0  0  0  0  0  0
  160.0090  204.0230  150.3030 C   0  0  2  0  0  3  0  0  0  0  0  0
  161.2600  205.9450  150.2300 C   0  0  1  0  0  3  0  0  0  0  0  0
  161.6630  205.2530  151.2770 C   0  0  2  0  0  3  0  0  0  0  0  0
  160.7210  203.8980  152.8120 C   0  0  0  0  0  2  0  0  0  0  0  0
  160.3070  205.2010  149.5480 O   0  0  0  0  0  0  0  0  0  0  0  0
  161.5160  204.9260  153.5280 N   0  0  0  0  0  2  0  0  0  0  0  0
  160.9870  204.0460  151.3870 N   0  0  1  0  0  0  0  0  0  0  0  0
  162.3270  209.0400  148.2620 C   0  0  0  0  0  3  0  0  0  0  0  0
  162.1050  210.0540  149.2060 C   0  0  0  0  0  2  0  0  0  0  0  0
  162.1050  207.6800  148.5740 C   0  0  0  0  0  0  0  0  0  0  0  0
  160.8850  209.5460  152.4990 C   0  0  0  0  0  3  0  0  0  0  0  0
  161.4200  208.3710  150.7890 C   0  0  0  0  0  0  0  0  0  0  0  0
  161.6320  207.3260  149.8740 C   0  0  0  0  0  0  0  0  0  0  0  0
  161.3250  210.4590  151.5420 C   0  0  0  0  0  3  0  0  0  0  0  0
  161.6540  209.6750  150.4620 C   0  0  0  0  0  0  0  0  0  0  0  0
  160.9350  208.2720  152.0370 N   0  0  0  0  0  0  0  0  0  0  0  0
  162.3740  206.7520  147.5550 O   0  0  0  0  0  0  0  0  0  0  0  0
  161.4400  206.3400  146.5670 C   0  0  0  0  0  1  0  0  0  0  0  0
  160.6270  202.0310  147.3460 C   0  0  2  0  0  3  0  0  0  0  0  0
  160.2160  202.7860  149.4390 C   0  0  1  0  0  3  0  0  0  0  0  0
  161.3390  200.5790  149.2550 C   0  0  0  0  0  2  0  0  0  0  0  0
  160.7210  203.1610  148.1800 O   0  0  0  0  0  0  0  0  0  0  0  0
  161.5010  199.8130  147.0050 O   0  0  0  0  0  1  0  0  0  0  0  0
  161.6240  200.9530  147.8010 C   0  0  1  0  0  3  0  0  0  0  0  0
  161.2000  201.8300  150.1160 C   0  0  0  0  0  2  0  0  0  0  0  0
  161.8020  203.2470  145.6530 O   0  0  0  0  0  0  0  0  0  0  0  0
  160.8810  202.4340  145.9300 C   0  0  0  0  0  0  0  0  0  0  0  0
  160.0820  201.8890  144.8880 N   0  0  0  0  0  1  0  0  0  0  0  0
  1  7  1  0  0  0  0
  2  6  1  6  0  0  0
  2  8  1  0  0  0  0
  3 14  1  1  0  0  0
  3  4  1  0  0  0  0
  4  8  1  0  0  0  0
  4  1  1  1  0  0  0
  5  7  1  0  0  0  0
  6  3  1  0  0  0  0
  8  5  1  1  0  0  0
  9 11  2  0  0  0  0
  9 10  1  0  0  0  0
 10 16  1  0  0  0  0
 11 14  1  0  0  0  0
 13 17  1  0  0  0  0
 14 13  2  0  0  0  0
 15 12  1  0  0  0  0
 16 13  1  0  0  0  0
 16 15  2  0  0  0  0
 17 12  2  0  0  0  0
 18 11  1  0  0  0  0
 19 18  1  0  0  0  0
 20 28  1  6  0  0  0
 20 25  1  0  0  0  0
 20 23  1  0  0  0  0
 21 26  1  1  0  0  0
 21  2  1  0  0  0  0
 22 26  1  0  0  0  0
 23 21  1  0  0  0  0
 25 24  1  6  0  0  0
 25 22  1  0  0  0  0
 27 28  2  0  0  0  0
 29 28  1  0  0  0  0
M  END
>  <MODEL>
7

>  <REMARK>
 VINA RESULT:      -7.6      3.227      7.463
  Name = 
  4 active torsions:
  status: ('A' for Active; 'I' for Inactive)
    1  A    between atoms: C_2  and  C_16
    2  A    between atoms: C_6  and  O_9
    3  A    between atoms: C_8  and  C_10
    4  A    between atoms: C_14  and  C_18
                            x       y       z     vdW  Elec       q    Type
                         _______ _______ _______ _____ _____    ______ ____

>  <TORSDO>
F 4

$$$$
=
 OpenBabel11072413583D

 29 33  0  0  1  0  0  0  0  0999 V2000
  161.4890  204.9450  153.1030 N   0  0  0  0  0  2  0  0  0  0  0  0
  160.5270  205.4050  149.8000 C   0  0  2  0  0  3  0  0  0  0  0  0
  161.2940  206.7470  151.4960 C   0  0  1  0  0  3  0  0  0  0  0  0
  161.5800  205.5010  151.8200 C   0  0  2  0  0  3  0  0  0  0  0  0
  160.6270  203.4760  151.5560 C   0  0  0  0  0  2  0  0  0  0  0  0
  160.7250  206.7550  150.2300 O   0  0  0  0  0  0  0  0  0  0  0  0
  160.9760  203.6400  152.9890 N   0  0  0  0  0  2  0  0  0  0  0  0
  161.1870  204.6090  150.8320 N   0  0  1  0  0  0  0  0  0  0  0  0
  161.8770  210.3300  152.6840 C   0  0  0  0  0  3  0  0  0  0  0  0
  161.4100  210.2590  154.0050 C   0  0  0  0  0  2  0  0  0  0  0  0
  161.8960  209.1930  151.8460 C   0  0  0  0  0  0  0  0  0  0  0  0
  160.1100  207.3460  155.5570 C   0  0  0  0  0  3  0  0  0  0  0  0
  160.9590  207.9150  153.6750 C   0  0  0  0  0  0  0  0  0  0  0  0
  161.4200  207.9430  152.3480 C   0  0  0  0  0  0  0  0  0  0  0  0
  160.4270  208.6970  155.6850 C   0  0  0  0  0  3  0  0  0  0  0  0
  160.9630  209.0280  154.4640 C   0  0  0  0  0  0  0  0  0  0  0  0
  160.4270  206.8700  154.3290 N   0  0  0  0  0  0  0  0  0  0  0  0
  162.3960  209.3800  150.5480 O   0  0  0  0  0  0  0  0  0  0  0  0
  162.0650  210.4700  149.7010 C   0  0  0  0  0  1  0  0  0  0  0  0
  161.4400  203.7730  146.7030 C   0  0  2  0  0  3  0  0  0  0  0  0
  161.2080  205.1840  148.4560 C   0  0  1  0  0  3  0  0  0  0  0  0
  161.8330  206.2070  146.2820 C   0  0  0  0  0  2  0  0  0  0  0  0
  160.6040  204.1030  147.7870 O   0  0  0  0  0  0  0  0  0  0  0  0
  162.2620  204.5850  144.5900 O   0  0  0  0  0  1  0  0  0  0  0  0
  161.4000  204.8880  145.6450 C   0  0  1  0  0  3  0  0  0  0  0  0
  161.0920  206.4420  147.5930 C   0  0  0  0  0  2  0  0  0  0  0  0
  160.4440  202.4220  144.9970 O   0  0  0  0  0  0  0  0  0  0  0  0
  161.0090  202.4650  146.1220 C   0  0  0  0  0  0  0  0  0  0  0  0
  161.2460  201.2620  146.8410 N   0  0  0  0  0  1  0  0  0  0  0  0
  2  6  1  1  0  0  0
  2  8  1  0  0  0  0
  3  4  1  0  0  0  0
  3 14  1  1  0  0  0
  4  1  1  1  0  0  0
  5  7  1  0  0  0  0
  6  3  1  0  0  0  0
  7  1  1  0  0  0  0
  8  5  1  1  0  0  0
  8  4  1  0  0  0  0
  9 10  1  0  0  0  0
 10 16  1  0  0  0  0
 11 14  1  0  0  0  0
 11  9  2  0  0  0  0
 12 15  1  0  0  0  0
 13 17  1  0  0  0  0
 13 16  1  0  0  0  0
 14 13  2  0  0  0  0
 16 15  2  0  0  0  0
 17 12  2  0  0  0  0
 18 11  1  0  0  0  0
 19 18  1  0  0  0  0
 20 28  1  6  0  0  0
 20 23  1  0  0  0  0
 21 26  1  6  0  0  0
 21  2  1  0  0  0  0
 22 26  1  0  0  0  0
 23 21  1  0  0  0  0
 25 24  1  6  0  0  0
 25 22  1  0  0  0  0
 25 20  1  0  0  0  0
 27 28  2  0  0  0  0
 28 29  1  0  0  0  0
M  END
>  <MODEL>
8

>  <REMARK>
 VINA RESULT:      -7.6      2.679      7.838
  Name = 
  4 active torsions:
  status: ('A' for Active; 'I' for Inactive)
    1  A    between atoms: C_2  and  C_16
    2  A    between atoms: C_6  and  O_9
    3  A    between atoms: C_8  and  C_10
    4  A    between atoms: C_14  and  C_18
                            x       y       z     vdW  Elec       q    Type
                         _______ _______ _______ _____ _____    ______ ____

>  <TORSDO>
F 4

$$$$
=
 OpenBabel11072413583D

 29 33  0  0  1  0  0  0  0  0999 V2000
  157.4090  211.2470  154.2070 N   0  0  0  0  0  2  0  0  0  0  0  0
  159.5490  213.2910  152.3930 C   0  0  2  0  0  3  0  0  0  0  0  0
  159.6540  211.1860  153.3000 C   0  0  1  0  0  3  0  0  0  0  0  0
  158.3810  211.5240  153.2370 C   0  0  2  0  0  3  0  0  0  0  0  0
  157.1700  213.4110  153.4620 C   0  0  0  0  0  2  0  0  0  0  0  0
  160.4090  212.1950  152.7190 O   0  0  0  0  0  0  0  0  0  0  0  0
  156.5680  212.3690  154.3290 N   0  0  0  0  0  2  0  0  0  0  0  0
  158.2090  212.7760  152.6620 N   0  0  1  0  0  0  0  0  0  0  0  0
  160.7530  208.6970  155.9810 C   0  0  0  0  0  3  0  0  0  0  0  0
  161.1570  207.6090  155.1940 C   0  0  0  0  0  3  0  0  0  0  0  0
  160.2980  209.9000  155.3980 C   0  0  0  0  0  0  0  0  0  0  0  0
  161.0790  207.5130  151.6480 C   0  0  0  0  0  3  0  0  0  0  0  0
  160.6440  208.8980  153.2240 C   0  0  0  0  0  0  0  0  0  0  0  0
  160.2340  210.0110  153.9750 C   0  0  0  0  0  0  0  0  0  0  0  0
  161.3840  206.8400  152.8300 C   0  0  0  0  0  2  0  0  0  0  0  0
  161.0900  207.7520  153.8150 C   0  0  0  0  0  0  0  0  0  0  0  0
  160.6200  208.7650  151.8870 N   0  0  0  0  0  0  0  0  0  0  0  0
  159.9330  210.9270  156.2830 O   0  0  0  0  0  0  0  0  0  0  0  0
  160.8000  211.9600  156.7270 C   0  0  0  0  0  1  0  0  0  0  0  0
  160.8910  213.2910  149.0330 C   0  0  2  0  0  3  0  0  0  0  0  0
  159.6870  213.6380  150.9160 C   0  0  1  0  0  3  0  0  0  0  0  0
  158.4920  213.9400  148.7620 C   0  0  0  0  0  2  0  0  0  0  0  0
  160.5960  212.7560  150.3020 O   0  0  0  0  0  0  0  0  0  0  0  0
  159.9350  213.7660  146.8740 O   0  0  0  0  0  1  0  0  0  0  0  0
  159.6590  213.1950  148.1180 C   0  0  1  0  0  3  0  0  0  0  0  0
  158.3290  213.5310  150.2210 C   0  0  0  0  0  2  0  0  0  0  0  0
  163.0230  213.1970  147.9480 O   0  0  0  0  0  0  0  0  0  0  0  0
  162.0550  212.5610  148.4440 C   0  0  0  0  0  0  0  0  0  0  0  0
  162.0730  211.1390  148.4520 N   0  0  0  0  0  1  0  0  0  0  0  0
  1  7  1  0  0  0  0
  2  8  1  0  0  0  0
  2  6  1  6  0  0  0
  3 14  1  1  0  0  0
  4  3  1  0  0  0  0
  4  1  1  1  0  0  0
  5  7  1  0  0  0  0
  6  3  1  0  0  0  0
  8  4  1  0  0  0  0
  8  5  1  1  0  0  0
 10  9  2  0  0  0  0
 11  9  1  0  0  0  0
 11 18  1  0  0  0  0
 12 17  2  0  0  0  0
 12 15  1  0  0  0  0
 13 16  2  0  0  0  0
 13 14  1  0  0  0  0
 14 11  2  0  0  0  0
 15 16  1  0  0  0  0
 16 10  1  0  0  0  0
 17 13  1  0  0  0  0
 18 19  1  0  0  0  0
 20 28  1  6  0  0  0
 20 23  1  0  0  0  0
 21 26  1  6  0  0  0
 21  2  1  0  0  0  0
 22 26  1  0  0  0  0
 23 21  1  0  0  0  0
 25 24  1  6  0  0  0
 25 22  1  0  0  0  0
 25 20  1  0  0  0  0
 27 28  2  0  0  0  0
 28 29  1  0  0  0  0
M  END
>  <MODEL>
9

>  <REMARK>
 VINA RESULT:      -7.5      3.914      7.929
  Name = 
  4 active torsions:
  status: ('A' for Active; 'I' for Inactive)
    1  A    between atoms: C_2  and  C_16
    2  A    between atoms: C_6  and  O_9
    3  A    between atoms: C_8  and  C_10
    4  A    between atoms: C_14  and  C_18
                            x       y       z     vdW  Elec       q    Type
                         _______ _______ _______ _____ _____    ______ ____

>  <TORSDO>
F 4

$$$$
