=
 OpenBabel11072412573D

 48 53  0  0  1  0  0  0  0  0999 V2000
  159.4750  210.7210  155.7210 O   0  0  0  0  0  0  0  0  0  0  0  0
  160.6910  210.9700  156.3710 C   0  0  0  0  0  2  0  0  0  0  0  0
  159.7040  210.7650  154.3280 C   0  0  2  0  0  3  0  0  0  0  0  0
  160.8300  209.8220  153.8230 C   0  0  1  0  0  3  0  0  0  0  0  0
  161.9070  207.5170  156.5170 O   0  0  0  0  0  0  0  0  0  0  0  0
  161.2620  209.7140  156.8220 N   0  0  0  0  0  2  0  0  0  0  0  0
  161.3930  208.5450  156.0010 C   0  0  0  0  0  0  0  0  0  0  0  0
  160.8390  208.4680  154.5840 C   0  0  2  0  0  3  0  0  0  0  0  0
  162.4210  210.2610  150.6240 O   0  0  0  0  0  0  0  0  0  0  0  0
  161.0350  208.2530  150.5270 C   0  0  2  0  0  3  0  0  0  0  0  0
  162.6380  208.9090  148.7810 O   0  0  0  0  0  1  0  0  0  0  0  0
  161.7460  209.3920  149.7410 C   0  0  2  0  0  3  0  0  0  0  0  0
  160.7580  209.6430  152.2940 C   0  0  1  0  0  3  0  0  0  0  0  0
  161.4660  210.7810  151.5220 C   0  0  0  0  0  2  0  0  0  0  0  0
  161.2530  208.3820  151.9120 O   0  0  0  0  0  0  0  0  0  0  0  0
  161.3710  206.8560  150.0800 C   0  0  0  0  0  0  0  0  0  0  0  0
  162.4030  206.3290  150.4700 O   0  0  0  0  0  0  0  0  0  0  0  0
  160.4750  206.1350  149.1000 C   0  0  1  0  0  3  0  0  0  0  0  0
  160.4550  206.2030  146.6580 C   0  0  0  0  0  3  0  0  0  0  0  0
  162.3690  205.0830  147.6620 C   0  0  0  0  0  3  0  0  0  0  0  0
  160.9660  205.8310  145.2930 C   0  0  0  0  0  2  0  0  0  0  0  0
  161.0940  205.8190  147.7650 C   0  0  0  0  0  0  0  0  0  0  0  0
  162.9530  204.9290  146.4740 C   0  0  0  0  0  3  0  0  0  0  0  0
  162.3450  205.4430  145.3230 O   0  0  0  0  0  0  0  0  0  0  0  0
  159.7940  205.0050  149.6620 O   0  0  0  0  0  0  0  0  0  0  0  0
  161.5450  201.2850  150.5680 C   0  0  0  0  0  3  0  0  0  0  0  0
  160.3650  203.7530  149.9370 C   0  0  0  0  0  0  0  0  0  0  0  0
  161.0100  201.4970  149.2950 C   0  0  0  0  0  3  0  0  0  0  0  0
  160.4210  202.7260  148.9820 C   0  0  0  0  0  3  0  0  0  0  0  0
  161.4930  202.3000  151.5240 C   0  0  0  0  0  3  0  0  0  0  0  0
  160.9060  203.5300  151.2080 C   0  0  0  0  0  3  0  0  0  0  0  0
  161.4910  207.3200  153.7930 C   0  0  0  0  0  2  0  0  0  0  0  0
  160.7280  206.0110  153.9480 C   0  0  0  0  0  1  0  0  0  0  0  0
  159.8630  212.2050  153.8220 C   0  0  0  0  0  2  0  0  0  0  0  0
  159.1180  213.9700  155.2540 O   0  0  0  0  0  0  0  0  0  0  0  0
  158.8190  213.1240  154.3700 C   0  0  0  0  0  0  0  0  0  0  0  0
  157.4350  212.9730  153.8880 C   0  0  0  0  0  3  0  0  0  0  0  0
  156.9170  213.5080  152.7780 C   0  0  0  0  0  3  0  0  0  0  0  0
  157.6630  214.3780  151.8200 C   0  0  0  0  0  2  0  0  0  0  0  0
  157.1800  214.1870  150.5230 O   0  0  0  0  0  0  0  0  0  0  0  0
  158.2850  213.9770  149.7660 N   0  0  0  0  0  2  0  0  0  0  0  0
  161.9590  212.8010  147.1700 C   0  0  0  0  0  2  0  0  0  0  0  0
  158.1940  213.4100  148.4580 C   0  0  0  0  0  0  0  0  0  0  0  0
  161.4650  213.0130  148.5180 C   0  0  0  0  0  2  0  0  0  0  0  0
  159.3710  213.2450  147.6740 N   0  0  0  0  0  0  0  0  0  0  0  0
  159.9970  213.1400  146.4530 O   0  0  0  0  0  0  0  0  0  0  0  0
  157.0780  213.0610  147.9900 O   0  0  0  0  0  0  0  0  0  0  0  0
  160.7430  213.7310  147.3570 C   0  0  0  0  0  0  0  0  0  0  0  0
  1  2  1  0  0  0  0
  2  6  1  0  0  0  0
  3 34  1  1  0  0  0
  3  1  1  0  0  0  0
  4 13  1  6  0  0  0
  4  3  1  0  0  0  0
  4  8  1  0  0  0  0
  7  5  2  0  0  0  0
  7  6  1  0  0  0  0
  8 32  1  6  0  0  0
  8  7  1  0  0  0  0
  9 14  1  0  0  0  0
 10 16  1  6  0  0  0
 10 15  1  0  0  0  0
 12 11  1  6  0  0  0
 12 10  1  0  0  0  0
 12  9  1  0  0  0  0
 13 14  1  6  0  0  0
 15 13  1  0  0  0  0
 16 17  2  0  0  0  0
 18 25  1  1  0  0  0
 18 16  1  0  0  0  0
 19 22  2  0  0  0  0
 20 22  1  0  0  0  0
 21 24  1  0  0  0  0
 21 19  1  0  0  0  0
 22 18  1  0  0  0  0
 23 20  2  0  0  0  0
 24 23  1  0  0  0  0
 25 27  1  0  0  0  0
 26 30  1  0  0  0  0
 27 31  1  0  0  0  0
 28 26  2  0  0  0  0
 29 28  1  0  0  0  0
 29 27  2  0  0  0  0
 31 30  2  0  0  0  0
 32 33  1  0  0  0  0
 34 36  1  0  0  0  0
 36 35  2  0  0  0  0
 37 36  1  0  0  0  0
 38 37  2  0  0  0  0
 39 38  1  0  0  0  0
 40 39  1  0  0  0  0
 41 40  1  0  0  0  0
 42 48  1  0  0  0  0
 42 44  1  0  0  0  0
 43 41  1  0  0  0  0
 45 43  1  0  0  0  0
 46 48  1  0  0  0  0
 46 45  1  0  0  0  0
 47 43  2  0  0  0  0
 48 45  1  0  0  0  0
 48 44  1  0  0  0  0
M  END
>  <MODEL>
1

>  <REMARK>
 VINA RESULT:      -7.5      0.000      0.000
  Name = 
  13 active torsions:
  status: ('A' for Active; 'I' for Inactive)
    1  A    between atoms: C_1  and  C_13
    2  A    between atoms: C_5  and  O_7
    3  A    between atoms: N_6  and  O_12
    4  A    between atoms: O_7  and  C_46
    5  A    between atoms: O_12  and  C_27
    6  A    between atoms: C_13  and  C_14
    7  A    between atoms: C_14  and  C_17
    8  A    between atoms: C_16  and  C_45
    9  A    between atoms: C_19  and  C_43
   10  A    between atoms: C_24  and  C_28
   11  A    between atoms: C_25  and  C_27
   12  A    between atoms: C_28  and  C_46
   13  A    between atoms: C_31  and  C_46
                            x       y       z     vdW  Elec       q    Type
                         _______ _______ _______ _____ _____    ______ ____

>  <TORSDO>
F 13

$$$$
=
 OpenBabel11072412573D

 48 53  0  0  1  0  0  0  0  0999 V2000
  162.4030  205.9420  146.7990 O   0  0  0  0  0  0  0  0  0  0  0  0
  161.3700  205.6650  145.8930 C   0  0  0  0  0  2  0  0  0  0  0  0
  161.8200  206.2800  148.0410 C   0  0  2  0  0  3  0  0  0  0  0  0
  160.8300  205.2250  148.6030 C   0  0  1  0  0  3  0  0  0  0  0  0
  160.9940  202.0940  146.6270 O   0  0  0  0  0  0  0  0  0  0  0  0
  161.2140  204.2260  145.7670 N   0  0  0  0  0  2  0  0  0  0  0  0
  161.1280  203.3230  146.8760 C   0  0  0  0  0  0  0  0  0  0  0  0
  161.3030  203.7730  148.3210 C   0  0  2  0  0  3  0  0  0  0  0  0
  161.7530  204.6180  152.0300 O   0  0  0  0  0  0  0  0  0  0  0  0
  160.7940  206.8590  151.8740 C   0  0  2  0  0  3  0  0  0  0  0  0
  161.9250  205.9760  153.8730 O   0  0  0  0  0  1  0  0  0  0  0  0
  161.1260  205.6360  152.7780 C   0  0  2  0  0  3  0  0  0  0  0  0
  160.5430  205.4770  150.0960 C   0  0  1  0  0  3  0  0  0  0  0  0
  160.8750  204.2560  150.9860 C   0  0  0  0  0  2  0  0  0  0  0  0
  161.2080  206.6330  150.5470 O   0  0  0  0  0  0  0  0  0  0  0  0
  161.3210  208.1810  152.3610 C   0  0  0  0  0  0  0  0  0  0  0  0
  162.4840  208.4860  152.1400 O   0  0  0  0  0  0  0  0  0  0  0  0
  160.4390  209.0960  153.1790 C   0  0  1  0  0  3  0  0  0  0  0  0
  160.2390  208.4750  155.5330 C   0  0  0  0  0  3  0  0  0  0  0  0
  161.8280  210.2540  155.0490 C   0  0  0  0  0  3  0  0  0  0  0  0
  160.5070  208.6490  157.0030 C   0  0  0  0  0  2  0  0  0  0  0  0
  160.8300  209.2530  154.6240 C   0  0  0  0  0  0  0  0  0  0  0  0
  162.2430  210.2830  156.3140 C   0  0  0  0  0  3  0  0  0  0  0  0
  161.7150  209.3810  157.2450 O   0  0  0  0  0  0  0  0  0  0  0  0
  160.1740  210.3580  152.5500 O   0  0  0  0  0  0  0  0  0  0  0  0
  157.6440  213.4080  153.9730 C   0  0  0  0  0  3  0  0  0  0  0  0
  159.3090  211.3520  153.0320 C   0  0  0  0  0  0  0  0  0  0  0  0
  157.3420  212.0750  154.2660 C   0  0  0  0  0  3  0  0  0  0  0  0
  158.1700  211.0520  153.7960 C   0  0  0  0  0  3  0  0  0  0  0  0
  158.7750  213.7150  153.2130 C   0  0  0  0  0  3  0  0  0  0  0  0
  159.6030  212.6900  152.7460 C   0  0  0  0  0  3  0  0  0  0  0  0
  160.7290  202.7350  149.3020 C   0  0  0  0  0  2  0  0  0  0  0  0
  161.3980  201.3750  149.1540 C   0  0  0  0  0  1  0  0  0  0  0  0
  161.2360  207.6980  148.0270 C   0  0  0  0  0  2  0  0  0  0  0  0
  163.4260  208.6530  148.1340 O   0  0  0  0  0  0  0  0  0  0  0  0
  162.2180  208.7290  148.4830 C   0  0  0  0  0  0  0  0  0  0  0  0
  161.7450  209.7910  149.3870 C   0  0  0  0  0  3  0  0  0  0  0  0
  161.8470  211.1090  149.1880 C   0  0  0  0  0  3  0  0  0  0  0  0
  162.4830  211.7460  147.9960 C   0  0  0  0  0  2  0  0  0  0  0  0
  162.1410  213.0990  147.9370 O   0  0  0  0  0  0  0  0  0  0  0  0
  160.8190  213.1390  148.2370 N   0  0  0  0  0  2  0  0  0  0  0  0
  156.3050  213.7350  149.1820 C   0  0  0  0  0  2  0  0  0  0  0  0
  159.8520  213.5790  147.2830 C   0  0  0  0  0  0  0  0  0  0  0  0
  157.6480  213.7010  149.7310 C   0  0  0  0  0  2  0  0  0  0  0  0
  158.4690  213.5650  147.6190 N   0  0  0  0  0  0  0  0  0  0  0  0
  157.1430  213.4950  147.2540 O   0  0  0  0  0  0  0  0  0  0  0  0
  160.2140  213.9740  146.1440 O   0  0  0  0  0  0  0  0  0  0  0  0
  157.3790  212.9350  148.4170 C   0  0  0  0  0  0  0  0  0  0  0  0
  1  3  1  0  0  0  0
  2  1  1  0  0  0  0
  3 34  1  6  0  0  0
  3  4  1  0  0  0  0
  4 13  1  1  0  0  0
  5  7  2  0  0  0  0
  6  2  1  0  0  0  0
  6  7  1  0  0  0  0
  7  8  1  0  0  0  0
  8  4  1  0  0  0  0
  8 32  1  1  0  0  0
  9 12  1  0  0  0  0
 10 16  1  1  0  0  0
 10 12  1  0  0  0  0
 12 11  1  1  0  0  0
 13 15  1  0  0  0  0
 13 14  1  1  0  0  0
 14  9  1  0  0  0  0
 15 10  1  0  0  0  0
 17 16  2  0  0  0  0
 18 16  1  6  0  0  0
 18 22  1  0  0  0  0
 19 21  1  0  0  0  0
 20 23  2  0  0  0  0
 21 24  1  0  0  0  0
 22 20  1  0  0  0  0
 22 19  2  0  0  0  0
 23 24  1  0  0  0  0
 25 27  1  0  0  0  0
 25 18  1  0  0  0  0
 26 28  1  0  0  0  0
 27 29  1  0  0  0  0
 29 28  2  0  0  0  0
 30 26  2  0  0  0  0
 31 27  2  0  0  0  0
 31 30  1  0  0  0  0
 33 32  1  0  0  0  0
 34 36  1  0  0  0  0
 35 36  2  0  0  0  0
 36 37  1  0  0  0  0
 38 37  2  0  0  0  0
 39 38  1  0  0  0  0
 40 39  1  0  0  0  0
 40 41  1  0  0  0  0
 42 44  1  0  0  0  0
 43 45  1  0  0  0  0
 43 41  1  0  0  0  0
 45 48  1  0  0  0  0
 46 45  1  0  0  0  0
 46 48  1  0  0  0  0
 47 43  2  0  0  0  0
 48 42  1  0  0  0  0
 48 44  1  0  0  0  0
M  END
>  <MODEL>
2

>  <REMARK>
 VINA RESULT:      -7.4      2.123      7.918
  Name = 
  13 active torsions:
  status: ('A' for Active; 'I' for Inactive)
    1  A    between atoms: C_1  and  C_13
    2  A    between atoms: C_5  and  O_7
    3  A    between atoms: N_6  and  O_12
    4  A    between atoms: O_7  and  C_46
    5  A    between atoms: O_12  and  C_27
    6  A    between atoms: C_13  and  C_14
    7  A    between atoms: C_14  and  C_17
    8  A    between atoms: C_16  and  C_45
    9  A    between atoms: C_19  and  C_43
   10  A    between atoms: C_24  and  C_28
   11  A    between atoms: C_25  and  C_27
   12  A    between atoms: C_28  and  C_46
   13  A    between atoms: C_31  and  C_46
                            x       y       z     vdW  Elec       q    Type
                         _______ _______ _______ _____ _____    ______ ____

>  <TORSDO>
F 13

$$$$
=
 OpenBabel11072412573D

 48 53  0  0  1  0  0  0  0  0999 V2000
  159.5280  214.1040  150.5110 O   0  0  0  0  0  0  0  0  0  0  0  0
  158.5980  213.7630  149.5190 C   0  0  0  0  0  2  0  0  0  0  0  0
  160.0160  212.9090  151.0860 C   0  0  2  0  0  3  0  0  0  0  0  0
  160.6040  211.8910  150.0710 C   0  0  1  0  0  3  0  0  0  0  0  0
  160.9380  213.4350  146.7180 O   0  0  0  0  0  0  0  0  0  0  0  0
  159.2300  213.8550  148.2150 N   0  0  0  0  0  2  0  0  0  0  0  0
  160.5020  213.2800  147.8910 C   0  0  0  0  0  0  0  0  0  0  0  0
  161.3840  212.5950  148.9270 C   0  0  2  0  0  3  0  0  0  0  0  0
  160.7920  209.3920  152.6560 O   0  0  0  0  0  0  0  0  0  0  0  0
  162.1970  208.6800  150.7900 C   0  0  2  0  0  3  0  0  0  0  0  0
  161.6320  207.2570  152.7150 O   0  0  0  0  0  1  0  0  0  0  0  0
  161.8850  208.5700  152.3110 C   0  0  2  0  0  3  0  0  0  0  0  0
  161.4430  210.8170  150.7890 C   0  0  1  0  0  3  0  0  0  0  0  0
  161.1260  210.7150  152.2990 C   0  0  0  0  0  2  0  0  0  0  0  0
  161.3080  209.5670  150.1540 O   0  0  0  0  0  0  0  0  0  0  0  0
  162.2420  207.3720  150.0460 C   0  0  0  0  0  0  0  0  0  0  0  0
  163.2820  206.7300  150.0150 O   0  0  0  0  0  0  0  0  0  0  0  0
  161.0290  206.8900  149.2840 C   0  0  1  0  0  3  0  0  0  0  0  0
  160.3320  206.6220  146.9580 C   0  0  0  0  0  3  0  0  0  0  0  0
  162.5550  205.7840  147.4920 C   0  0  0  0  0  3  0  0  0  0  0  0
  160.4850  206.1020  145.5550 C   0  0  0  0  0  2  0  0  0  0  0  0
  161.2870  206.4380  147.8730 C   0  0  0  0  0  0  0  0  0  0  0  0
  162.8030  205.5100  146.2120 C   0  0  0  0  0  3  0  0  0  0  0  0
  161.8520  205.8190  145.2320 O   0  0  0  0  0  0  0  0  0  0  0  0
  160.2220  205.9550  150.0130 O   0  0  0  0  0  0  0  0  0  0  0  0
  161.2600  201.9810  150.9360 C   0  0  0  0  0  3  0  0  0  0  0  0
  160.5560  204.6210  150.2920 C   0  0  0  0  0  0  0  0  0  0  0  0
  160.8940  202.3060  149.6270 C   0  0  0  0  0  3  0  0  0  0  0  0
  160.5420  203.6210  149.3080 C   0  0  0  0  0  3  0  0  0  0  0  0
  161.2760  202.9690  151.9220 C   0  0  0  0  0  3  0  0  0  0  0  0
  160.9260  204.2850  151.5990 C   0  0  0  0  0  3  0  0  0  0  0  0
  162.4380  211.6970  148.2550 C   0  0  0  0  0  2  0  0  0  0  0  0
  163.7160  212.4570  147.9280 C   0  0  0  0  0  1  0  0  0  0  0  0
  158.9930  212.2760  152.0370 C   0  0  0  0  0  2  0  0  0  0  0  0
  158.8490  214.4080  153.1130 O   0  0  0  0  0  0  0  0  0  0  0  0
  158.6550  213.1660  153.1910 C   0  0  0  0  0  0  0  0  0  0  0  0
  158.1450  212.5430  154.4250 C   0  0  0  0  0  3  0  0  0  0  0  0
  158.6670  212.6630  155.6500 C   0  0  0  0  0  3  0  0  0  0  0  0
  159.8890  213.4540  155.9850 C   0  0  0  0  0  2  0  0  0  0  0  0
  160.5280  212.8990  157.0960 O   0  0  0  0  0  0  0  0  0  0  0  0
  160.4400  211.5580  156.9180 N   0  0  0  0  0  2  0  0  0  0  0  0
  160.3540  207.0220  155.8970 C   0  0  0  0  0  2  0  0  0  0  0  0
  161.6060  210.7480  156.7680 C   0  0  0  0  0  0  0  0  0  0  0  0
  159.6420  208.2830  155.8040 C   0  0  0  0  0  2  0  0  0  0  0  0
  161.4760  209.3380  156.6270 N   0  0  0  0  0  0  0  0  0  0  0  0
  161.9810  208.0640  156.7620 O   0  0  0  0  0  0  0  0  0  0  0  0
  162.7510  211.2730  156.7650 O   0  0  0  0  0  0  0  0  0  0  0  0
  160.6800  208.1160  156.9350 C   0  0  0  0  0  0  0  0  0  0  0  0
  1  3  1  0  0  0  0
  2  1  1  0  0  0  0
  3 34  1  6  0  0  0
  4 13  1  1  0  0  0
  4  3  1  0  0  0  0
  5  7  2  0  0  0  0
  6  2  1  0  0  0  0
  7  6  1  0  0  0  0
  7  8  1  0  0  0  0
  8 32  1  6  0  0  0
  8  4  1  0  0  0  0
 10 16  1  6  0  0  0
 10 12  1  0  0  0  0
 12  9  1  0  0  0  0
 12 11  1  6  0  0  0
 13 14  1  1  0  0  0
 14  9  1  0  0  0  0
 15 13  1  0  0  0  0
 15 10  1  0  0  0  0
 17 16  2  0  0  0  0
 18 25  1  1  0  0  0
 18 16  1  0  0  0  0
 19 22  2  0  0  0  0
 20 22  1  0  0  0  0
 21 19  1  0  0  0  0
 22 18  1  0  0  0  0
 23 20  2  0  0  0  0
 24 21  1  0  0  0  0
 24 23  1  0  0  0  0
 25 27  1  0  0  0  0
 26 30  1  0  0  0  0
 27 31  1  0  0  0  0
 28 26  2  0  0  0  0
 29 28  1  0  0  0  0
 29 27  2  0  0  0  0
 31 30  2  0  0  0  0
 33 32  1  0  0  0  0
 34 36  1  0  0  0  0
 35 36  2  0  0  0  0
 36 37  1  0  0  0  0
 37 38  2  0  0  0  0
 38 39  1  0  0  0  0
 39 40  1  0  0  0  0
 41 40  1  0  0  0  0
 42 48  1  0  0  0  0
 43 41  1  0  0  0  0
 44 42  1  0  0  0  0
 44 48  1  0  0  0  0
 45 46  1  0  0  0  0
 45 43  1  0  0  0  0
 45 48  1  0  0  0  0
 46 48  1  0  0  0  0
 47 43  2  0  0  0  0
M  END
>  <MODEL>
3

>  <REMARK>
 VINA RESULT:      -7.3      1.451      5.783
  Name = 
  13 active torsions:
  status: ('A' for Active; 'I' for Inactive)
    1  A    between atoms: C_1  and  C_13
    2  A    between atoms: C_5  and  O_7
    3  A    between atoms: N_6  and  O_12
    4  A    between atoms: O_7  and  C_46
    5  A    between atoms: O_12  and  C_27
    6  A    between atoms: C_13  and  C_14
    7  A    between atoms: C_14  and  C_17
    8  A    between atoms: C_16  and  C_45
    9  A    between atoms: C_19  and  C_43
   10  A    between atoms: C_24  and  C_28
   11  A    between atoms: C_25  and  C_27
   12  A    between atoms: C_28  and  C_46
   13  A    between atoms: C_31  and  C_46
                            x       y       z     vdW  Elec       q    Type
                         _______ _______ _______ _____ _____    ______ ____

>  <TORSDO>
F 13

$$$$
=
 OpenBabel11072412573D

 48 53  0  0  1  0  0  0  0  0999 V2000
  162.3990  205.9340  146.8180 O   0  0  0  0  0  0  0  0  0  0  0  0
  161.3560  205.6510  145.9250 C   0  0  0  0  0  2  0  0  0  0  0  0
  161.8300  206.2810  148.0640 C   0  0  2  0  0  3  0  0  0  0  0  0
  160.8450  205.2290  148.6440 C   0  0  1  0  0  3  0  0  0  0  0  0
  160.9880  202.0860  146.6860 O   0  0  0  0  0  0  0  0  0  0  0  0
  161.1990  204.2120  145.8100 N   0  0  0  0  0  2  0  0  0  0  0  0
  161.1250  203.3150  146.9260 C   0  0  0  0  0  0  0  0  0  0  0  0
  161.3160  203.7750  148.3660 C   0  0  2  0  0  3  0  0  0  0  0  0
  161.8510  204.7090  152.0620 O   0  0  0  0  0  0  0  0  0  0  0  0
  160.7990  206.9060  151.8930 C   0  0  2  0  0  3  0  0  0  0  0  0
  162.0000  206.0990  153.8820 O   0  0  0  0  0  1  0  0  0  0  0  0
  161.1960  205.7110  152.8070 C   0  0  2  0  0  3  0  0  0  0  0  0
  160.5740  205.4900  150.1380 C   0  0  1  0  0  3  0  0  0  0  0  0
  160.9710  204.2970  151.0390 C   0  0  0  0  0  2  0  0  0  0  0  0
  161.1990  206.6790  150.5620 O   0  0  0  0  0  0  0  0  0  0  0  0
  161.2810  208.2560  152.3520 C   0  0  0  0  0  0  0  0  0  0  0  0
  162.4230  208.6090  152.0960 O   0  0  0  0  0  0  0  0  0  0  0  0
  160.3810  209.1410  153.1840 C   0  0  1  0  0  3  0  0  0  0  0  0
  161.8130  210.3400  154.7590 C   0  0  0  0  0  3  0  0  0  0  0  0
  160.3190  208.6910  155.7450 C   0  0  0  0  0  3  0  0  0  0  0  0
  162.4100  210.5960  156.1160 C   0  0  0  0  0  2  0  0  0  0  0  0
  160.8610  209.4210  154.5830 C   0  0  0  0  0  0  0  0  0  0  0  0
  160.6720  209.0490  156.9790 C   0  0  0  0  0  3  0  0  0  0  0  0
  161.5780  210.1000  157.1710 O   0  0  0  0  0  0  0  0  0  0  0  0
  159.9560  210.3320  152.5090 O   0  0  0  0  0  0  0  0  0  0  0  0
  157.6090  213.4320  154.1240 C   0  0  0  0  0  3  0  0  0  0  0  0
  159.1500  211.3440  153.0530 C   0  0  0  0  0  0  0  0  0  0  0  0
  157.2210  212.1040  154.3250 C   0  0  0  0  0  3  0  0  0  0  0  0
  157.9880  211.0650  153.7900 C   0  0  0  0  0  3  0  0  0  0  0  0
  158.7630  213.7180  153.3920 C   0  0  0  0  0  3  0  0  0  0  0  0
  159.5300  212.6770  152.8600 C   0  0  0  0  0  3  0  0  0  0  0  0
  160.7520  202.7430  149.3590 C   0  0  0  0  0  2  0  0  0  0  0  0
  161.4130  201.3800  149.2070 C   0  0  0  0  0  1  0  0  0  0  0  0
  161.2450  207.6980  148.0480 C   0  0  0  0  0  2  0  0  0  0  0  0
  163.4440  208.6380  148.0750 O   0  0  0  0  0  0  0  0  0  0  0  0
  162.2440  208.7360  148.4460 C   0  0  0  0  0  0  0  0  0  0  0  0
  161.7980  209.8350  149.3190 C   0  0  0  0  0  3  0  0  0  0  0  0
  161.9590  211.1430  149.0970 C   0  0  0  0  0  3  0  0  0  0  0  0
  162.6440  211.7300  147.9070 C   0  0  0  0  0  2  0  0  0  0  0  0
  162.1360  213.0040  147.6420 O   0  0  0  0  0  0  0  0  0  0  0  0
  161.7160  212.9520  146.3540 N   0  0  0  0  0  2  0  0  0  0  0  0
  160.1240  212.3410  142.0270 C   0  0  0  0  0  2  0  0  0  0  0  0
  160.3400  212.7460  146.0270 C   0  0  0  0  0  0  0  0  0  0  0  0
  161.2700  212.2180  142.9100 C   0  0  0  0  0  2  0  0  0  0  0  0
  159.9290  212.7430  144.6640 N   0  0  0  0  0  0  0  0  0  0  0  0
  158.9670  212.9310  143.6980 O   0  0  0  0  0  0  0  0  0  0  0  0
  159.4880  212.5740  146.9370 O   0  0  0  0  0  0  0  0  0  0  0  0
  160.1730  213.2400  143.2810 C   0  0  0  0  0  0  0  0  0  0  0  0
  1  3  1  0  0  0  0
  2  1  1  0  0  0  0
  3 34  1  6  0  0  0
  3  4  1  0  0  0  0
  4 13  1  1  0  0  0
  5  7  2  0  0  0  0
  6  2  1  0  0  0  0
  6  7  1  0  0  0  0
  7  8  1  0  0  0  0
  8  4  1  0  0  0  0
  8 32  1  1  0  0  0
  9 12  1  0  0  0  0
 10 16  1  1  0  0  0
 10 12  1  0  0  0  0
 12 11  1  1  0  0  0
 13 15  1  0  0  0  0
 13 14  1  1  0  0  0
 14  9  1  0  0  0  0
 15 10  1  0  0  0  0
 17 16  2  0  0  0  0
 18 16  1  6  0  0  0
 18 22  1  0  0  0  0
 19 21  1  0  0  0  0
 20 23  2  0  0  0  0
 21 24  1  0  0  0  0
 22 19  2  0  0  0  0
 22 20  1  0  0  0  0
 23 24  1  0  0  0  0
 25 27  1  0  0  0  0
 25 18  1  0  0  0  0
 26 28  1  0  0  0  0
 27 29  1  0  0  0  0
 29 28  2  0  0  0  0
 30 26  2  0  0  0  0
 31 27  2  0  0  0  0
 31 30  1  0  0  0  0
 33 32  1  0  0  0  0
 34 36  1  0  0  0  0
 35 36  2  0  0  0  0
 36 37  1  0  0  0  0
 38 37  2  0  0  0  0
 39 38  1  0  0  0  0
 40 39  1  0  0  0  0
 41 40  1  0  0  0  0
 42 44  1  0  0  0  0
 42 48  1  0  0  0  0
 43 41  1  0  0  0  0
 43 47  2  0  0  0  0
 44 48  1  0  0  0  0
 45 43  1  0  0  0  0
 46 45  1  0  0  0  0
 48 46  1  0  0  0  0
 48 45  1  0  0  0  0
M  END
>  <MODEL>
4

>  <REMARK>
 VINA RESULT:      -7.1      2.529      7.986
  Name = 
  13 active torsions:
  status: ('A' for Active; 'I' for Inactive)
    1  A    between atoms: C_1  and  C_13
    2  A    between atoms: C_5  and  O_7
    3  A    between atoms: N_6  and  O_12
    4  A    between atoms: O_7  and  C_46
    5  A    between atoms: O_12  and  C_27
    6  A    between atoms: C_13  and  C_14
    7  A    between atoms: C_14  and  C_17
    8  A    between atoms: C_16  and  C_45
    9  A    between atoms: C_19  and  C_43
   10  A    between atoms: C_24  and  C_28
   11  A    between atoms: C_25  and  C_27
   12  A    between atoms: C_28  and  C_46
   13  A    between atoms: C_31  and  C_46
                            x       y       z     vdW  Elec       q    Type
                         _______ _______ _______ _____ _____    ______ ____

>  <TORSDO>
F 13

$$$$
=
 OpenBabel11072412573D

 48 53  0  0  1  0  0  0  0  0999 V2000
  161.7750  203.7310  148.7590 O   0  0  0  0  0  0  0  0  0  0  0  0
  160.4490  203.4640  149.1250 C   0  0  0  0  0  2  0  0  0  0  0  0
  161.9560  205.1330  148.7520 C   0  0  2  0  0  3  0  0  0  0  0  0
  161.5700  205.8450  150.0780 C   0  0  1  0  0  3  0  0  0  0  0  0
  160.9340  203.3640  152.7560 O   0  0  0  0  0  0  0  0  0  0  0  0
  160.4040  203.0830  150.5260 N   0  0  0  0  0  2  0  0  0  0  0  0
  161.0520  203.8040  151.5810 C   0  0  0  0  0  0  0  0  0  0  0  0
  161.9570  205.0030  151.3240 C   0  0  2  0  0  3  0  0  0  0  0  0
  161.9820  209.0210  148.4330 O   0  0  0  0  0  0  0  0  0  0  0  0
  161.8800  209.4070  150.8430 C   0  0  2  0  0  3  0  0  0  0  0  0
  161.8140  211.1940  149.1540 O   0  0  0  0  0  1  0  0  0  0  0  0
  162.3350  209.9320  149.4500 C   0  0  2  0  0  3  0  0  0  0  0  0
  162.1440  207.2740  150.1250 C   0  0  1  0  0  3  0  0  0  0  0  0
  162.5950  207.7870  148.7370 C   0  0  0  0  0  2  0  0  0  0  0  0
  161.2320  208.1620  150.7260 O   0  0  0  0  0  0  0  0  0  0  0  0
  161.0310  210.3570  151.6430 C   0  0  0  0  0  0  0  0  0  0  0  0
  161.0710  211.5540  151.3990 O   0  0  0  0  0  0  0  0  0  0  0  0
  160.1880  209.8430  152.7870 C   0  0  1  0  0  3  0  0  0  0  0  0
  160.5430  208.7480  154.9420 C   0  0  0  0  0  3  0  0  0  0  0  0
  161.9280  210.7050  154.5170 C   0  0  0  0  0  3  0  0  0  0  0  0
  161.1320  208.6440  156.3220 C   0  0  0  0  0  2  0  0  0  0  0  0
  160.8900  209.7360  154.1130 C   0  0  0  0  0  0  0  0  0  0  0  0
  162.6180  210.5110  155.6400 C   0  0  0  0  0  3  0  0  0  0  0  0
  162.3410  209.4030  156.4490 O   0  0  0  0  0  0  0  0  0  0  0  0
  158.9120  210.4880  152.9010 O   0  0  0  0  0  0  0  0  0  0  0  0
  157.8160  213.3850  155.7520 C   0  0  0  0  0  3  0  0  0  0  0  0
  158.5680  211.4740  153.8380 C   0  0  0  0  0  0  0  0  0  0  0  0
  158.5940  213.7650  154.6540 C   0  0  0  0  0  3  0  0  0  0  0  0
  158.9690  212.8120  153.7030 C   0  0  0  0  0  3  0  0  0  0  0  0
  157.4140  212.0560  155.8950 C   0  0  0  0  0  3  0  0  0  0  0  0
  157.7880  211.1050  154.9400 C   0  0  0  0  0  3  0  0  0  0  0  0
  162.1470  205.8410  152.6010 C   0  0  0  0  0  2  0  0  0  0  0  0
  160.8370  206.0540  153.3480 C   0  0  0  0  0  1  0  0  0  0  0  0
  161.3160  205.7830  147.5200 C   0  0  0  0  0  2  0  0  0  0  0  0
  163.0960  205.3010  145.9960 O   0  0  0  0  0  0  0  0  0  0  0  0
  161.8610  205.2420  146.2370 C   0  0  0  0  0  0  0  0  0  0  0  0
  160.9120  204.6940  145.2520 C   0  0  0  0  0  3  0  0  0  0  0  0
  160.7810  205.0740  143.9780 C   0  0  0  0  0  3  0  0  0  0  0  0
  161.5810  206.1500  143.3200 C   0  0  0  0  0  2  0  0  0  0  0  0
  161.8190  205.8210  141.9830 O   0  0  0  0  0  0  0  0  0  0  0  0
  161.7930  207.0040  141.3210 N   0  0  0  0  0  2  0  0  0  0  0  0
  162.1490  210.9820  138.9390 C   0  0  0  0  0  2  0  0  0  0  0  0
  162.0440  207.0780  139.9170 C   0  0  0  0  0  0  0  0  0  0  0  0
  162.2800  210.3490  140.2390 C   0  0  0  0  0  2  0  0  0  0  0  0
  161.9640  208.3320  139.2490 N   0  0  0  0  0  0  0  0  0  0  0  0
  161.7520  209.0760  138.1100 O   0  0  0  0  0  0  0  0  0  0  0  0
  162.3320  206.0400  139.2660 O   0  0  0  0  0  0  0  0  0  0  0  0
  161.3490  209.6890  139.1990 C   0  0  0  0  0  0  0  0  0  0  0  0
  1  2  1  0  0  0  0
  2  6  1  0  0  0  0
  3 34  1  6  0  0  0
  3  1  1  0  0  0  0
  3  4  1  0  0  0  0
  4 13  1  1  0  0  0
  4  8  1  0  0  0  0
  6  7  1  0  0  0  0
  7  5  2  0  0  0  0
  8  7  1  0  0  0  0
  8 32  1  1  0  0  0
  9 14  1  0  0  0  0
  9 12  1  0  0  0  0
 10 16  1  6  0  0  0
 12 11  1  6  0  0  0
 12 10  1  0  0  0  0
 13 14  1  6  0  0  0
 13 15  1  0  0  0  0
 15 10  1  0  0  0  0
 17 16  2  0  0  0  0
 18 16  1  6  0  0  0
 18 25  1  0  0  0  0
 18 22  1  0  0  0  0
 19 21  1  0  0  0  0
 20 23  2  0  0  0  0
 21 24  1  0  0  0  0
 22 20  1  0  0  0  0
 22 19  2  0  0  0  0
 23 24  1  0  0  0  0
 25 27  1  0  0  0  0
 26 30  1  0  0  0  0
 27 31  1  0  0  0  0
 28 26  2  0  0  0  0
 29 27  2  0  0  0  0
 29 28  1  0  0  0  0
 31 30  2  0  0  0  0
 32 33  1  0  0  0  0
 35 36  2  0  0  0  0
 36 34  1  0  0  0  0
 37 36  1  0  0  0  0
 38 37  2  0  0  0  0
 39 38  1  0  0  0  0
 40 39  1  0  0  0  0
 41 40  1  0  0  0  0
 42 48  1  0  0  0  0
 42 44  1  0  0  0  0
 43 41  1  0  0  0  0
 45 43  1  0  0  0  0
 46 48  1  0  0  0  0
 46 45  1  0  0  0  0
 47 43  2  0  0  0  0
 48 45  1  0  0  0  0
 48 44  1  0  0  0  0
M  END
>  <MODEL>
5

>  <REMARK>
 VINA RESULT:      -7.0      3.760      9.026
  Name = 
  13 active torsions:
  status: ('A' for Active; 'I' for Inactive)
    1  A    between atoms: C_1  and  C_13
    2  A    between atoms: C_5  and  O_7
    3  A    between atoms: N_6  and  O_12
    4  A    between atoms: O_7  and  C_46
    5  A    between atoms: O_12  and  C_27
    6  A    between atoms: C_13  and  C_14
    7  A    between atoms: C_14  and  C_17
    8  A    between atoms: C_16  and  C_45
    9  A    between atoms: C_19  and  C_43
   10  A    between atoms: C_24  and  C_28
   11  A    between atoms: C_25  and  C_27
   12  A    between atoms: C_28  and  C_46
   13  A    between atoms: C_31  and  C_46
                            x       y       z     vdW  Elec       q    Type
                         _______ _______ _______ _____ _____    ______ ____

>  <TORSDO>
F 13

$$$$
=
 OpenBabel11072412573D

 48 53  0  0  1  0  0  0  0  0999 V2000
  160.0170  214.3430  149.5630 O   0  0  0  0  0  0  0  0  0  0  0  0
  159.2000  213.9890  148.4790 C   0  0  0  0  0  2  0  0  0  0  0  0
  160.3340  213.1660  150.2780 C   0  0  2  0  0  3  0  0  0  0  0  0
  160.9700  212.0370  149.4220 C   0  0  1  0  0  3  0  0  0  0  0  0
  161.8530  213.2930  146.0490 O   0  0  0  0  0  0  0  0  0  0  0  0
  160.0020  213.9390  147.2700 N   0  0  0  0  0  2  0  0  0  0  0  0
  161.2590  213.2580  147.1600 C   0  0  0  0  0  0  0  0  0  0  0  0
  161.9440  212.5980  148.3500 C   0  0  2  0  0  3  0  0  0  0  0  0
  160.6270  209.7280  152.1630 O   0  0  0  0  0  0  0  0  0  0  0  0
  162.2160  208.7940  150.5610 C   0  0  2  0  0  3  0  0  0  0  0  0
  161.2950  207.5540  152.4760 O   0  0  0  0  0  1  0  0  0  0  0  0
  161.6940  208.8160  152.0270 C   0  0  2  0  0  3  0  0  0  0  0  0
  161.6250  210.9680  150.3170 C   0  0  1  0  0  3  0  0  0  0  0  0
  161.1010  210.9980  151.7720 C   0  0  0  0  0  2  0  0  0  0  0  0
  161.4870  209.6850  149.7510 O   0  0  0  0  0  0  0  0  0  0  0  0
  162.2660  207.4350  149.9160 C   0  0  0  0  0  0  0  0  0  0  0  0
  163.2990  206.7820  149.9620 O   0  0  0  0  0  0  0  0  0  0  0  0
  161.0700  206.9100  149.1560 C   0  0  1  0  0  3  0  0  0  0  0  0
  160.4730  206.5790  146.8110 C   0  0  0  0  0  3  0  0  0  0  0  0
  162.5850  205.5890  147.5070 C   0  0  0  0  0  3  0  0  0  0  0  0
  160.6530  205.9760  145.4440 C   0  0  0  0  0  2  0  0  0  0  0  0
  161.3610  206.3650  147.7850 C   0  0  0  0  0  0  0  0  0  0  0  0
  162.8750  205.2290  146.2570 C   0  0  0  0  0  3  0  0  0  0  0  0
  162.0050  205.5630  145.2120 O   0  0  0  0  0  0  0  0  0  0  0  0
  160.2380  206.0300  149.9240 O   0  0  0  0  0  0  0  0  0  0  0  0
  161.1860  202.0860  151.0520 C   0  0  0  0  0  3  0  0  0  0  0  0
  160.5420  204.7050  150.2720 C   0  0  0  0  0  0  0  0  0  0  0  0
  160.8280  202.3520  149.7270 C   0  0  0  0  0  3  0  0  0  0  0  0
  160.5060  203.6560  149.3400 C   0  0  0  0  0  3  0  0  0  0  0  0
  161.2230  203.1230  151.9850 C   0  0  0  0  0  3  0  0  0  0  0  0
  160.9030  204.4280  151.5950 C   0  0  0  0  0  3  0  0  0  0  0  0
  163.0050  211.5830  147.8880 C   0  0  0  0  0  2  0  0  0  0  0  0
  164.4040  212.1850  147.8680 C   0  0  0  0  0  1  0  0  0  0  0  0
  159.1510  212.6770  151.1220 C   0  0  0  0  0  2  0  0  0  0  0  0
  159.0300  214.3990  152.7780 O   0  0  0  0  0  0  0  0  0  0  0  0
  158.4550  213.7920  151.8360 C   0  0  0  0  0  0  0  0  0  0  0  0
  157.0730  214.1170  151.4430 C   0  0  0  0  0  3  0  0  0  0  0  0
  156.0260  214.2580  152.2610 C   0  0  0  0  0  3  0  0  0  0  0  0
  156.0740  214.0960  153.7450 C   0  0  0  0  0  2  0  0  0  0  0  0
  155.8340  212.7630  154.0890 O   0  0  0  0  0  0  0  0  0  0  0  0
  157.0460  212.2720  154.4500 N   0  0  0  0  0  2  0  0  0  0  0  0
  161.1580  210.8360  156.0780 C   0  0  0  0  0  2  0  0  0  0  0  0
  157.2110  211.4930  155.6360 C   0  0  0  0  0  0  0  0  0  0  0  0
  160.4690  211.8320  155.2770 C   0  0  0  0  0  2  0  0  0  0  0  0
  158.4890  210.9570  155.9580 N   0  0  0  0  0  0  0  0  0  0  0  0
  159.2750  210.0110  156.5770 O   0  0  0  0  0  0  0  0  0  0  0  0
  156.2310  211.2730  156.3960 O   0  0  0  0  0  0  0  0  0  0  0  0
  159.7990  210.4520  155.4580 C   0  0  0  0  0  0  0  0  0  0  0  0
  1  3  1  0  0  0  0
  2  1  1  0  0  0  0
  3 34  1  6  0  0  0
  4  3  1  0  0  0  0
  4 13  1  1  0  0  0
  5  7  2  0  0  0  0
  6  2  1  0  0  0  0
  7  6  1  0  0  0  0
  7  8  1  0  0  0  0
  8 32  1  6  0  0  0
  8  4  1  0  0  0  0
 10 16  1  6  0  0  0
 10 12  1  0  0  0  0
 12  9  1  0  0  0  0
 12 11  1  6  0  0  0
 13 14  1  1  0  0  0
 14  9  1  0  0  0  0
 15 13  1  0  0  0  0
 15 10  1  0  0  0  0
 16 17  2  0  0  0  0
 18 16  1  1  0  0  0
 18 25  1  0  0  0  0
 19 22  2  0  0  0  0
 20 22  1  0  0  0  0
 21 19  1  0  0  0  0
 22 18  1  0  0  0  0
 23 20  2  0  0  0  0
 24 21  1  0  0  0  0
 24 23  1  0  0  0  0
 25 27  1  0  0  0  0
 26 30  1  0  0  0  0
 27 31  1  0  0  0  0
 28 26  2  0  0  0  0
 29 28  1  0  0  0  0
 29 27  2  0  0  0  0
 31 30  2  0  0  0  0
 33 32  1  0  0  0  0
 34 36  1  0  0  0  0
 36 35  2  0  0  0  0
 37 36  1  0  0  0  0
 37 38  2  0  0  0  0
 38 39  1  0  0  0  0
 39 40  1  0  0  0  0
 40 41  1  0  0  0  0
 41 43  1  0  0  0  0
 43 45  1  0  0  0  0
 43 47  2  0  0  0  0
 44 48  1  0  0  0  0
 44 42  1  0  0  0  0
 45 46  1  0  0  0  0
 48 45  1  0  0  0  0
 48 42  1  0  0  0  0
 48 46  1  0  0  0  0
M  END
>  <MODEL>
6

>  <REMARK>
 VINA RESULT:      -6.8      1.715      5.380
  Name = 
  13 active torsions:
  status: ('A' for Active; 'I' for Inactive)
    1  A    between atoms: C_1  and  C_13
    2  A    between atoms: C_5  and  O_7
    3  A    between atoms: N_6  and  O_12
    4  A    between atoms: O_7  and  C_46
    5  A    between atoms: O_12  and  C_27
    6  A    between atoms: C_13  and  C_14
    7  A    between atoms: C_14  and  C_17
    8  A    between atoms: C_16  and  C_45
    9  A    between atoms: C_19  and  C_43
   10  A    between atoms: C_24  and  C_28
   11  A    between atoms: C_25  and  C_27
   12  A    between atoms: C_28  and  C_46
   13  A    between atoms: C_31  and  C_46
                            x       y       z     vdW  Elec       q    Type
                         _______ _______ _______ _____ _____    ______ ____

>  <TORSDO>
F 13

$$$$
=
 OpenBabel11072412573D

 48 53  0  0  1  0  0  0  0  0999 V2000
  157.4700  213.3450  151.5880 O   0  0  0  0  0  0  0  0  0  0  0  0
  157.1650  214.4030  152.4550 C   0  0  0  0  0  2  0  0  0  0  0  0
  158.7400  212.8370  151.9440 C   0  0  2  0  0  3  0  0  0  0  0  0
  158.8790  212.4180  153.4330 C   0  0  1  0  0  3  0  0  0  0  0  0
  155.5750  212.4420  155.1110 O   0  0  0  0  0  0  0  0  0  0  0  0
  156.2540  213.9340  153.4840 N   0  0  0  0  0  2  0  0  0  0  0  0
  156.4430  212.7350  154.2460 C   0  0  0  0  0  0  0  0  0  0  0  0
  157.5820  211.7590  153.9760 C   0  0  2  0  0  3  0  0  0  0  0  0
  160.9880  210.6250  155.7350 O   0  0  0  0  0  0  0  0  0  0  0  0
  161.0180  209.4570  153.5900 C   0  0  2  0  0  3  0  0  0  0  0  0
  161.9820  208.5570  155.6660 O   0  0  0  0  0  1  0  0  0  0  0  0
  161.7360  209.7270  154.9440 C   0  0  2  0  0  3  0  0  0  0  0  0
  160.1260  211.5390  153.6460 C   0  0  1  0  0  3  0  0  0  0  0  0
  160.8330  211.8150  154.9930 C   0  0  0  0  0  2  0  0  0  0  0  0
  159.8090  210.1740  153.5070 O   0  0  0  0  0  0  0  0  0  0  0  0
  160.7790  208.0070  153.2660 C   0  0  0  0  0  0  0  0  0  0  0  0
  160.4240  207.2410  154.1500 O   0  0  0  0  0  0  0  0  0  0  0  0
  161.0450  207.4860  151.8730 C   0  0  1  0  0  3  0  0  0  0  0  0
  161.4180  208.2220  149.5730 C   0  0  0  0  0  3  0  0  0  0  0  0
  162.0650  209.8090  151.3020 C   0  0  0  0  0  3  0  0  0  0  0  0
  161.9550  209.1600  148.5270 C   0  0  0  0  0  2  0  0  0  0  0  0
  161.5060  208.5120  150.8730 C   0  0  0  0  0  0  0  0  0  0  0  0
  162.3460  210.7440  150.3960 C   0  0  0  0  0  3  0  0  0  0  0  0
  162.1360  210.4870  149.0360 O   0  0  0  0  0  0  0  0  0  0  0  0
  161.8520  206.3000  151.8420 O   0  0  0  0  0  0  0  0  0  0  0  0
  160.7570  202.5470  150.2810 C   0  0  0  0  0  3  0  0  0  0  0  0
  161.4780  205.0630  151.2950 C   0  0  0  0  0  0  0  0  0  0  0  0
  160.8390  203.6470  149.4240 C   0  0  0  0  0  3  0  0  0  0  0  0
  161.1960  204.9010  149.9290 C   0  0  0  0  0  3  0  0  0  0  0  0
  161.0360  202.7000  151.6410 C   0  0  0  0  0  3  0  0  0  0  0  0
  161.3960  203.9550  152.1440 C   0  0  0  0  0  3  0  0  0  0  0  0
  157.8180  210.8320  155.1820 C   0  0  0  0  0  2  0  0  0  0  0  0
  157.7940  211.5890  156.5020 C   0  0  0  0  0  1  0  0  0  0  0  0
  159.8730  213.7580  151.4760 C   0  0  0  0  0  2  0  0  0  0  0  0
  161.1610  214.0940  149.4890 O   0  0  0  0  0  0  0  0  0  0  0  0
  160.0700  213.7190  149.9940 C   0  0  0  0  0  0  0  0  0  0  0  0
  158.9420  213.2840  149.1520 C   0  0  0  0  0  3  0  0  0  0  0  0
  158.8620  213.3770  147.8220 C   0  0  0  0  0  3  0  0  0  0  0  0
  159.9170  213.9600  146.9400 C   0  0  0  0  0  2  0  0  0  0  0  0
  160.8820  212.9940  146.6450 O   0  0  0  0  0  0  0  0  0  0  0  0
  160.7530  212.7660  145.3140 N   0  0  0  0  0  2  0  0  0  0  0  0
  160.4260  212.4320  140.6880 C   0  0  0  0  0  2  0  0  0  0  0  0
  161.8500  212.9470  144.4180 C   0  0  0  0  0  0  0  0  0  0  0  0
  159.7120  212.7080  141.9210 C   0  0  0  0  0  2  0  0  0  0  0  0
  161.6900  212.6550  143.0340 N   0  0  0  0  0  0  0  0  0  0  0  0
  162.2120  212.2890  141.8140 O   0  0  0  0  0  0  0  0  0  0  0  0
  162.9610  213.3590  144.8450 O   0  0  0  0  0  0  0  0  0  0  0  0
  160.9900  211.8440  141.9980 C   0  0  0  0  0  0  0  0  0  0  0  0
  1  3  1  0  0  0  0
  1  2  1  0  0  0  0
  2  6  1  0  0  0  0
  3 34  1  1  0  0  0
  3  4  1  0  0  0  0
  4 13  1  6  0  0  0
  4  8  1  0  0  0  0
  6  7  1  0  0  0  0
  7  5  2  0  0  0  0
  8  7  1  0  0  0  0
  8 32  1  1  0  0  0
 10 16  1  1  0  0  0
 10 12  1  0  0  0  0
 12 11  1  1  0  0  0
 12  9  1  0  0  0  0
 13 14  1  1  0  0  0
 14  9  1  0  0  0  0
 15 10  1  0  0  0  0
 15 13  1  0  0  0  0
 16 17  2  0  0  0  0
 18 25  1  1  0  0  0
 18 16  1  0  0  0  0
 19 22  2  0  0  0  0
 21 24  1  0  0  0  0
 21 19  1  0  0  0  0
 22 20  1  0  0  0  0
 22 18  1  0  0  0  0
 23 20  2  0  0  0  0
 24 23  1  0  0  0  0
 26 30  1  0  0  0  0
 27 25  1  0  0  0  0
 27 31  1  0  0  0  0
 28 29  1  0  0  0  0
 28 26  2  0  0  0  0
 29 27  2  0  0  0  0
 30 31  2  0  0  0  0
 32 33  1  0  0  0  0
 35 36  2  0  0  0  0
 36 34  1  0  0  0  0
 37 36  1  0  0  0  0
 38 37  2  0  0  0  0
 39 38  1  0  0  0  0
 40 39  1  0  0  0  0
 41 40  1  0  0  0  0
 42 44  1  0  0  0  0
 42 48  1  0  0  0  0
 43 47  2  0  0  0  0
 43 41  1  0  0  0  0
 44 48  1  0  0  0  0
 45 43  1  0  0  0  0
 46 48  1  0  0  0  0
 46 45  1  0  0  0  0
 48 45  1  0  0  0  0
M  END
>  <MODEL>
7

>  <REMARK>
 VINA RESULT:      -6.6      2.547      4.997
  Name = 
  13 active torsions:
  status: ('A' for Active; 'I' for Inactive)
    1  A    between atoms: C_1  and  C_13
    2  A    between atoms: C_5  and  O_7
    3  A    between atoms: N_6  and  O_12
    4  A    between atoms: O_7  and  C_46
    5  A    between atoms: O_12  and  C_27
    6  A    between atoms: C_13  and  C_14
    7  A    between atoms: C_14  and  C_17
    8  A    between atoms: C_16  and  C_45
    9  A    between atoms: C_19  and  C_43
   10  A    between atoms: C_24  and  C_28
   11  A    between atoms: C_25  and  C_27
   12  A    between atoms: C_28  and  C_46
   13  A    between atoms: C_31  and  C_46
                            x       y       z     vdW  Elec       q    Type
                         _______ _______ _______ _____ _____    ______ ____

>  <TORSDO>
F 13

$$$$
=
 OpenBabel11072412573D

 48 53  0  0  1  0  0  0  0  0999 V2000
  162.5770  207.5440  148.5230 O   0  0  0  0  0  0  0  0  0  0  0  0
  161.5950  207.1670  147.5960 C   0  0  0  0  0  2  0  0  0  0  0  0
  161.9270  207.9650  149.7050 C   0  0  2  0  0  3  0  0  0  0  0  0
  160.9350  206.9320  150.3060 C   0  0  1  0  0  3  0  0  0  0  0  0
  161.2670  203.6580  148.6010 O   0  0  0  0  0  0  0  0  0  0  0  0
  161.4790  205.7190  147.5810 N   0  0  0  0  0  2  0  0  0  0  0  0
  161.3610  204.9060  148.7550 C   0  0  0  0  0  0  0  0  0  0  0  0
  161.4560  205.4750  150.1650 C   0  0  2  0  0  3  0  0  0  0  0  0
  161.7140  206.6390  153.8090 O   0  0  0  0  0  0  0  0  0  0  0  0
  160.6950  208.8250  153.4250 C   0  0  2  0  0  3  0  0  0  0  0  0
  161.7580  208.1480  155.5380 O   0  0  0  0  0  1  0  0  0  0  0  0
  161.0220  207.6920  154.4410 C   0  0  2  0  0  3  0  0  0  0  0  0
  160.5710  207.2940  151.7580 C   0  0  1  0  0  3  0  0  0  0  0  0
  160.8980  206.1630  152.7610 C   0  0  0  0  0  2  0  0  0  0  0  0
  161.1780  208.5060  152.1410 O   0  0  0  0  0  0  0  0  0  0  0  0
  161.1590  210.2000  153.8230 C   0  0  0  0  0  0  0  0  0  0  0  0
  162.3180  210.5300  153.6180 O   0  0  0  0  0  0  0  0  0  0  0  0
  160.2170  211.1430  154.5360 C   0  0  1  0  0  3  0  0  0  0  0  0
  159.2750  211.8410  152.3920 C   0  0  0  0  0  3  0  0  0  0  0  0
  159.1700  213.4960  154.1740 C   0  0  0  0  0  3  0  0  0  0  0  0
  158.6890  212.8450  151.4380 C   0  0  0  0  0  2  0  0  0  0  0  0
  159.5340  212.1600  153.6620 C   0  0  0  0  0  0  0  0  0  0  0  0
  158.4560  214.3260  153.4160 C   0  0  0  0  0  3  0  0  0  0  0  0
  158.0730  213.9420  152.1250 O   0  0  0  0  0  0  0  0  0  0  0  0
  159.2990  210.4850  155.4200 O   0  0  0  0  0  0  0  0  0  0  0  0
  155.4440  211.8580  156.4120 C   0  0  0  0  0  3  0  0  0  0  0  0
  158.0250  210.9510  155.7790 C   0  0  0  0  0  0  0  0  0  0  0  0
  156.5210  212.1800  157.2430 C   0  0  0  0  0  3  0  0  0  0  0  0
  157.8050  211.7270  156.9280 C   0  0  0  0  0  3  0  0  0  0  0  0
  155.6540  211.0850  155.2680 C   0  0  0  0  0  3  0  0  0  0  0  0
  156.9410  210.6350  154.9540 C   0  0  0  0  0  3  0  0  0  0  0  0
  160.8600  204.5040  151.1990 C   0  0  0  0  0  2  0  0  0  0  0  0
  161.8820  203.4860  151.6860 C   0  0  0  0  0  1  0  0  0  0  0  0
  161.3100  209.3600  149.5500 C   0  0  0  0  0  2  0  0  0  0  0  0
  162.9610  210.7510  150.5810 O   0  0  0  0  0  0  0  0  0  0  0  0
  162.3400  210.4440  149.5290 C   0  0  0  0  0  0  0  0  0  0  0  0
  162.5640  211.1700  148.2660 C   0  0  0  0  0  3  0  0  0  0  0  0
  162.0850  212.3760  147.9470 C   0  0  0  0  0  3  0  0  0  0  0  0
  161.2140  213.2100  148.8280 C   0  0  0  0  0  2  0  0  0  0  0  0
  160.0450  213.5640  148.1490 O   0  0  0  0  0  0  0  0  0  0  0  0
  160.3480  213.4210  146.8350 N   0  0  0  0  0  2  0  0  0  0  0  0
  161.3390  212.4730  142.3910 C   0  0  0  0  0  2  0  0  0  0  0  0
  159.4330  212.8130  145.9220 C   0  0  0  0  0  0  0  0  0  0  0  0
  161.8830  212.6820  143.7210 C   0  0  0  0  0  2  0  0  0  0  0  0
  159.7670  212.7210  144.5410 N   0  0  0  0  0  0  0  0  0  0  0  0
  159.3970  212.6330  143.2180 O   0  0  0  0  0  0  0  0  0  0  0  0
  158.3310  212.3620  146.3290 O   0  0  0  0  0  0  0  0  0  0  0  0
  160.5100  213.3070  143.3900 C   0  0  0  0  0  0  0  0  0  0  0  0
  1  3  1  0  0  0  0
  2  1  1  0  0  0  0
  3 34  1  6  0  0  0
  3  4  1  0  0  0  0
  4 13  1  1  0  0  0
  5  7  2  0  0  0  0
  6  2  1  0  0  0  0
  6  7  1  0  0  0  0
  7  8  1  0  0  0  0
  8  4  1  0  0  0  0
  8 32  1  1  0  0  0
  9 12  1  0  0  0  0
 10 16  1  1  0  0  0
 10 12  1  0  0  0  0
 12 11  1  1  0  0  0
 13 15  1  0  0  0  0
 13 14  1  1  0  0  0
 14  9  1  0  0  0  0
 15 10  1  0  0  0  0
 17 16  2  0  0  0  0
 18 16  1  6  0  0  0
 18 25  1  0  0  0  0
 19 22  2  0  0  0  0
 21 24  1  0  0  0  0
 21 19  1  0  0  0  0
 22 20  1  0  0  0  0
 22 18  1  0  0  0  0
 23 20  2  0  0  0  0
 24 23  1  0  0  0  0
 25 27  1  0  0  0  0
 26 28  1  0  0  0  0
 27 29  1  0  0  0  0
 29 28  2  0  0  0  0
 30 26  2  0  0  0  0
 31 30  1  0  0  0  0
 31 27  2  0  0  0  0
 32 33  1  0  0  0  0
 36 34  1  0  0  0  0
 36 35  2  0  0  0  0
 37 36  1  0  0  0  0
 38 37  2  0  0  0  0
 38 39  1  0  0  0  0
 40 39  1  0  0  0  0
 41 40  1  0  0  0  0
 42 48  1  0  0  0  0
 42 44  1  0  0  0  0
 43 47  2  0  0  0  0
 43 41  1  0  0  0  0
 45 43  1  0  0  0  0
 46 48  1  0  0  0  0
 46 45  1  0  0  0  0
 48 44  1  0  0  0  0
 48 45  1  0  0  0  0
M  END
>  <MODEL>
8

>  <REMARK>
 VINA RESULT:      -6.2      2.332      7.479
  Name = 
  13 active torsions:
  status: ('A' for Active; 'I' for Inactive)
    1  A    between atoms: C_1  and  C_13
    2  A    between atoms: C_5  and  O_7
    3  A    between atoms: N_6  and  O_12
    4  A    between atoms: O_7  and  C_46
    5  A    between atoms: O_12  and  C_27
    6  A    between atoms: C_13  and  C_14
    7  A    between atoms: C_14  and  C_17
    8  A    between atoms: C_16  and  C_45
    9  A    between atoms: C_19  and  C_43
   10  A    between atoms: C_24  and  C_28
   11  A    between atoms: C_25  and  C_27
   12  A    between atoms: C_28  and  C_46
   13  A    between atoms: C_31  and  C_46
                            x       y       z     vdW  Elec       q    Type
                         _______ _______ _______ _____ _____    ______ ____

>  <TORSDO>
F 13

$$$$
=
 OpenBabel11072412573D

 48 53  0  0  1  0  0  0  0  0999 V2000
  160.2810  205.6870  149.1220 O   0  0  0  0  0  0  0  0  0  0  0  0
  161.5900  205.2810  148.8320 C   0  0  0  0  0  2  0  0  0  0  0  0
  160.1830  205.8940  150.5170 C   0  0  2  0  0  3  0  0  0  0  0  0
  161.2330  206.8770  151.1030 C   0  0  1  0  0  3  0  0  0  0  0  0
  163.0670  208.6050  148.3860 O   0  0  0  0  0  0  0  0  0  0  0  0
  162.3430  206.4130  148.3200 N   0  0  0  0  0  2  0  0  0  0  0  0
  162.3720  207.7080  148.9340 C   0  0  0  0  0  0  0  0  0  0  0  0
  161.5180  208.0650  150.1440 C   0  0  2  0  0  3  0  0  0  0  0  0
  161.9600  206.8890  154.6300 O   0  0  0  0  0  0  0  0  0  0  0  0
  160.8680  208.9980  154.0590 C   0  0  2  0  0  3  0  0  0  0  0  0
  161.9170  208.5290  156.2350 O   0  0  0  0  0  1  0  0  0  0  0  0
  161.2180  207.9610  155.1670 C   0  0  2  0  0  3  0  0  0  0  0  0
  160.8300  207.3380  152.5170 C   0  0  1  0  0  3  0  0  0  0  0  0
  161.1800  206.3020  153.6100 C   0  0  0  0  0  2  0  0  0  0  0  0
  161.3850  208.5980  152.8120 O   0  0  0  0  0  0  0  0  0  0  0  0
  161.2730  210.4170  154.3550 C   0  0  0  0  0  0  0  0  0  0  0  0
  162.4400  210.7540  154.2110 O   0  0  0  0  0  0  0  0  0  0  0  0
  160.2590  211.4000  154.8920 C   0  0  1  0  0  3  0  0  0  0  0  0
  159.2500  211.6890  152.6870 C   0  0  0  0  0  3  0  0  0  0  0  0
  159.2470  213.6640  154.1090 C   0  0  0  0  0  3  0  0  0  0  0  0
  158.6480  212.5020  151.5740 C   0  0  0  0  0  2  0  0  0  0  0  0
  159.5640  212.2440  153.8590 C   0  0  0  0  0  0  0  0  0  0  0  0
  158.5210  214.3490  153.2270 C   0  0  0  0  0  3  0  0  0  0  0  0
  158.0810  213.7290  152.0510 O   0  0  0  0  0  0  0  0  0  0  0  0
  159.3400  210.8280  155.8320 O   0  0  0  0  0  0  0  0  0  0  0  0
  155.4330  212.1970  156.6000 C   0  0  0  0  0  3  0  0  0  0  0  0
  158.0490  211.3010  156.1130 C   0  0  0  0  0  0  0  0  0  0  0  0
  156.5110  212.7950  157.2610 C   0  0  0  0  0  3  0  0  0  0  0  0
  157.8120  212.3470  157.0190 C   0  0  0  0  0  3  0  0  0  0  0  0
  155.6600  211.1560  155.6990 C   0  0  0  0  0  3  0  0  0  0  0  0
  156.9630  210.7110  155.4560 C   0  0  0  0  0  3  0  0  0  0  0  0
  162.0590  209.3180  150.8570 C   0  0  0  0  0  2  0  0  0  0  0  0
  161.6750  210.6010  150.1330 C   0  0  0  0  0  1  0  0  0  0  0  0
  160.1130  204.5690  151.2860 C   0  0  0  0  0  2  0  0  0  0  0  0
  162.5040  204.5240  151.2370 O   0  0  0  0  0  0  0  0  0  0  0  0
  161.4330  203.8690  151.3440 C   0  0  0  0  0  0  0  0  0  0  0  0
  161.4390  202.4020  151.4760 C   0  0  0  0  0  3  0  0  0  0  0  0
  161.0130  201.5210  150.5660 C   0  0  0  0  0  3  0  0  0  0  0  0
  160.4350  201.8780  149.2360 C   0  0  0  0  0  2  0  0  0  0  0  0
  161.2900  201.4570  148.2140 O   0  0  0  0  0  0  0  0  0  0  0  0
  161.2930  202.4750  147.3180 N   0  0  0  0  0  2  0  0  0  0  0  0
  161.5640  205.6940  143.9730 C   0  0  0  0  0  2  0  0  0  0  0  0
  160.7620  202.3100  146.0020 C   0  0  0  0  0  0  0  0  0  0  0  0
  162.1600  205.1830  145.1940 C   0  0  0  0  0  2  0  0  0  0  0  0
  160.7410  203.4140  145.1040 N   0  0  0  0  0  0  0  0  0  0  0  0
  160.2030  204.0740  144.0220 O   0  0  0  0  0  0  0  0  0  0  0  0
  160.3080  201.1950  145.6330 O   0  0  0  0  0  0  0  0  0  0  0  0
  160.6650  204.8930  144.9380 C   0  0  0  0  0  0  0  0  0  0  0  0
  1  3  1  0  0  0  0
  2  1  1  0  0  0  0
  3  4  1  0  0  0  0
  3 34  1  1  0  0  0
  4 13  1  1  0  0  0
  5  7  2  0  0  0  0
  6  2  1  0  0  0  0
  6  7  1  0  0  0  0
  7  8  1  0  0  0  0
  8 32  1  1  0  0  0
  8  4  1  0  0  0  0
  9 12  1  0  0  0  0
 10 16  1  1  0  0  0
 10 12  1  0  0  0  0
 12 11  1  1  0  0  0
 13 15  1  0  0  0  0
 13 14  1  1  0  0  0
 14  9  1  0  0  0  0
 15 10  1  0  0  0  0
 17 16  2  0  0  0  0
 18 16  1  6  0  0  0
 18 25  1  0  0  0  0
 19 22  2  0  0  0  0
 21 24  1  0  0  0  0
 21 19  1  0  0  0  0
 22 20  1  0  0  0  0
 22 18  1  0  0  0  0
 23 20  2  0  0  0  0
 24 23  1  0  0  0  0
 25 27  1  0  0  0  0
 26 28  1  0  0  0  0
 27 29  1  0  0  0  0
 29 28  2  0  0  0  0
 30 26  2  0  0  0  0
 31 30  1  0  0  0  0
 31 27  2  0  0  0  0
 33 32  1  0  0  0  0
 34 36  1  0  0  0  0
 35 36  2  0  0  0  0
 36 37  1  0  0  0  0
 38 37  2  0  0  0  0
 39 38  1  0  0  0  0
 40 39  1  0  0  0  0
 41 40  1  0  0  0  0
 42 48  1  0  0  0  0
 42 44  1  0  0  0  0
 43 41  1  0  0  0  0
 45 43  1  0  0  0  0
 46 48  1  0  0  0  0
 46 45  1  0  0  0  0
 47 43  2  0  0  0  0
 48 45  1  0  0  0  0
 48 44  1  0  0  0  0
M  END
>  <MODEL>
9

>  <REMARK>
 VINA RESULT:      -6.1      3.077      9.317
  Name = 
  13 active torsions:
  status: ('A' for Active; 'I' for Inactive)
    1  A    between atoms: C_1  and  C_13
    2  A    between atoms: C_5  and  O_7
    3  A    between atoms: N_6  and  O_12
    4  A    between atoms: O_7  and  C_46
    5  A    between atoms: O_12  and  C_27
    6  A    between atoms: C_13  and  C_14
    7  A    between atoms: C_14  and  C_17
    8  A    between atoms: C_16  and  C_45
    9  A    between atoms: C_19  and  C_43
   10  A    between atoms: C_24  and  C_28
   11  A    between atoms: C_25  and  C_27
   12  A    between atoms: C_28  and  C_46
   13  A    between atoms: C_31  and  C_46
                            x       y       z     vdW  Elec       q    Type
                         _______ _______ _______ _____ _____    ______ ____

>  <TORSDO>
F 13

$$$$
