=
 OpenBabel11072411363D

 25 28  0  0  1  0  0  0  0  0999 V2000
  161.4740  209.0700  151.2190 O   0  0  0  0  0  0  0  0  0  0  0  0
  161.2530  208.4280  154.8330 C   0  0  0  0  0  2  0  0  0  0  0  0
  161.1900  205.9220  153.0540 C   0  0  0  0  0  0  0  0  0  0  0  0
  160.7570  209.1530  153.5930 C   0  0  2  0  0  3  0  0  0  0  0  0
  160.8480  206.0620  154.4380 N   0  0  0  0  0  2  0  0  0  0  0  0
  161.3410  207.0650  152.1200 C   0  0  0  0  0  0  0  0  0  0  0  0
  161.7840  208.1950  150.2960 C   0  0  0  0  0  0  0  0  0  0  0  0
  161.2050  208.4380  152.3380 C   0  0  0  0  0  0  0  0  0  0  0  0
  160.3350  207.2560  155.0840 C   0  0  0  0  0  2  0  0  0  0  0  0
  161.4110  204.7620  152.6180 O   0  0  0  0  0  0  0  0  0  0  0  0
  161.7220  206.9090  150.7970 C   0  0  0  0  0  3  0  0  0  0  0  0
  157.0690  213.6020  153.1520 C   0  0  0  0  0  2  0  0  0  0  0  0
  158.4070  212.9930  151.2860 O   0  0  0  0  0  0  0  0  0  0  0  0
  158.2650  212.9580  152.5380 C   0  0  0  0  0  0  0  0  0  0  0  0
  159.9770  211.4470  155.6760 C   0  0  0  0  0  2  0  0  0  0  0  0
  156.4770  212.5740  154.5310 S   0  0  0  0  0  0  0  0  0  0  0  0
  161.1650  210.6420  153.6100 C   0  0  1  0  0  3  0  0  0  0  0  0
  160.1690  211.4730  152.8300 C   0  0  0  0  0  3  0  0  0  0  0  0
  161.3360  211.1790  155.0410 C   0  0  0  0  0  2  0  0  0  0  0  0
  159.2580  212.2790  153.3940 C   0  0  0  0  0  0  0  0  0  0  0  0
  159.2860  212.5500  154.8880 C   0  0  1  0  0  3  0  0  0  0  0  0
  157.9540  212.9490  155.5380 C   0  0  0  0  0  2  0  0  0  0  0  0
  162.1440  208.5570  148.9230 C   0  0  0  0  0  0  0  0  0  0  0  0
  162.5740  207.5750  148.0380 O   0  0  0  0  0  0  0  0  0  0  0  0
  162.0670  209.7530  148.5370 O   0  0  0  0  0  1  0  0  0  0  0  0
  1  8  1  0  0  0  0
  2  9  1  0  0  0  0
  3  5  1  0  0  0  0
  4 17  1  0  0  0  0
  4  2  1  1  0  0  0
  5  9  1  0  0  0  0
  6  8  2  0  0  0  0
  6  3  1  0  0  0  0
  7 11  2  0  0  0  0
  7  1  1  0  0  0  0
  8  4  1  0  0  0  0
 10  3  2  0  0  0  0
 11  6  1  0  0  0  0
 12 16  1  0  0  0  0
 13 14  2  0  0  0  0
 14 12  1  0  0  0  0
 14 20  1  0  0  0  0
 16 22  1  0  0  0  0
 17 18  1  1  0  0  0
 17 19  1  0  0  0  0
 18 20  2  0  0  0  0
 19 15  1  0  0  0  0
 20 21  1  0  0  0  0
 21 22  1  1  0  0  0
 21 15  1  0  0  0  0
 23  7  1  0  0  0  0
 24 23  2  0  0  0  0
 25 23  1  0  0  0  0
M  END
>  <MODEL>
1

>  <REMARK>
 VINA RESULT:      -7.3      0.000      0.000
  Name = 
  2 active torsions:
  status: ('A' for Active; 'I' for Inactive)
    1  A    between atoms: C_2  and  C_16
    2  A    between atoms: C_9  and  C_11
                            x       y       z     vdW  Elec       q    Type
                         _______ _______ _______ _____ _____    ______ ____

>  <TORSDO>
F 2

$$$$
=
 OpenBabel11072411363D

 25 28  0  0  1  0  0  0  0  0999 V2000
  161.7520  210.5900  150.3910 O   0  0  0  0  0  0  0  0  0  0  0  0
  161.7760  207.8430  152.8360 C   0  0  0  0  0  2  0  0  0  0  0  0
  161.6730  206.9700  149.8900 C   0  0  0  0  0  0  0  0  0  0  0  0
  161.1830  209.1460  152.3270 C   0  0  2  0  0  3  0  0  0  0  0  0
  161.4140  206.2050  151.0730 N   0  0  0  0  0  2  0  0  0  0  0  0
  161.7330  208.4530  149.8610 C   0  0  0  0  0  0  0  0  0  0  0  0
  162.0290  210.4910  149.1150 C   0  0  0  0  0  0  0  0  0  0  0  0
  161.5710  209.3870  150.8860 C   0  0  0  0  0  0  0  0  0  0  0  0
  160.9090  206.7130  152.3360 C   0  0  0  0  0  2  0  0  0  0  0  0
  161.9000  206.3420  148.8220 O   0  0  0  0  0  0  0  0  0  0  0  0
  162.0350  209.1700  148.7140 C   0  0  0  0  0  3  0  0  0  0  0  0
  157.4140  213.0590  154.3470 C   0  0  0  0  0  2  0  0  0  0  0  0
  158.8890  213.6480  152.5810 O   0  0  0  0  0  0  0  0  0  0  0  0
  158.6650  212.8820  153.5560 C   0  0  0  0  0  0  0  0  0  0  0  0
  160.2050  209.7770  155.3030 C   0  0  0  0  0  2  0  0  0  0  0  0
  156.7600  211.4250  154.8060 S   0  0  0  0  0  0  0  0  0  0  0  0
  161.5480  210.3290  153.2500 C   0  0  1  0  0  3  0  0  0  0  0  0
  160.5850  211.4780  153.0450 C   0  0  0  0  0  3  0  0  0  0  0  0
  161.6090  209.9130  154.7290 C   0  0  0  0  0  2  0  0  0  0  0  0
  159.6170  211.8110  153.9110 C   0  0  0  0  0  0  0  0  0  0  0  0
  159.5380  211.1450  155.2740 C   0  0  1  0  0  3  0  0  0  0  0  0
  158.1550  211.1050  155.9390 C   0  0  0  0  0  2  0  0  0  0  0  0
  162.2920  211.6450  148.2500 C   0  0  0  0  0  0  0  0  0  0  0  0
  161.2890  212.1310  147.4220 O   0  0  0  0  0  0  0  0  0  0  0  0
  163.4220  212.1990  148.2520 O   0  0  0  0  0  1  0  0  0  0  0  0
  1  8  1  0  0  0  0
  3  5  1  0  0  0  0
  4  2  1  1  0  0  0
  4 17  1  0  0  0  0
  5  9  1  0  0  0  0
  6  3  1  0  0  0  0
  6  8  2  0  0  0  0
  7  1  1  0  0  0  0
  8  4  1  0  0  0  0
  9  2  1  0  0  0  0
 10  3  2  0  0  0  0
 11  7  2  0  0  0  0
 11  6  1  0  0  0  0
 12 16  1  0  0  0  0
 13 14  2  0  0  0  0
 14 20  1  0  0  0  0
 14 12  1  0  0  0  0
 16 22  1  0  0  0  0
 17 18  1  1  0  0  0
 17 19  1  0  0  0  0
 18 20  2  0  0  0  0
 19 15  1  0  0  0  0
 20 21  1  0  0  0  0
 21 15  1  6  0  0  0
 21 22  1  0  0  0  0
 23 25  1  0  0  0  0
 23  7  1  0  0  0  0
 24 23  2  0  0  0  0
M  END
>  <MODEL>
2

>  <REMARK>
 VINA RESULT:      -6.5      1.647      2.397
  Name = 
  2 active torsions:
  status: ('A' for Active; 'I' for Inactive)
    1  A    between atoms: C_2  and  C_16
    2  A    between atoms: C_9  and  C_11
                            x       y       z     vdW  Elec       q    Type
                         _______ _______ _______ _____ _____    ______ ____

>  <TORSDO>
F 2

$$$$
=
 OpenBabel11072411363D

 25 28  0  0  1  0  0  0  0  0999 V2000
  160.7760  209.0260  154.4840 O   0  0  0  0  0  0  0  0  0  0  0  0
  160.4500  211.8240  152.1200 C   0  0  0  0  0  2  0  0  0  0  0  0
  158.3730  211.7770  154.3850 C   0  0  0  0  0  0  0  0  0  0  0  0
  160.5690  210.3320  152.3850 C   0  0  2  0  0  3  0  0  0  0  0  0
  158.3700  212.5300  153.1660 N   0  0  0  0  0  2  0  0  0  0  0  0
  159.2550  210.6100  154.6350 C   0  0  0  0  0  0  0  0  0  0  0  0
  160.2420  208.9560  155.6770 C   0  0  0  0  0  0  0  0  0  0  0  0
  160.2170  210.0110  153.8200 C   0  0  0  0  0  0  0  0  0  0  0  0
  158.9890  212.1430  151.9120 C   0  0  0  0  0  2  0  0  0  0  0  0
  157.6060  212.1550  155.3100 O   0  0  0  0  0  0  0  0  0  0  0  0
  159.2750  209.9280  155.8410 C   0  0  0  0  0  3  0  0  0  0  0  0
  161.5110  205.3010  149.6640 C   0  0  0  0  0  2  0  0  0  0  0  0
  161.9840  205.4920  151.9840 O   0  0  0  0  0  0  0  0  0  0  0  0
  161.8290  206.0920  150.8880 C   0  0  0  0  0  0  0  0  0  0  0  0
  161.7270  209.7050  149.4730 C   0  0  0  0  0  2  0  0  0  0  0  0
  160.3090  206.2190  148.6540 S   0  0  0  0  0  0  0  0  0  0  0  0
  161.9580  209.7970  151.9760 C   0  0  1  0  0  3  0  0  0  0  0  0
  161.9530  208.2840  151.9370 C   0  0  0  0  0  3  0  0  0  0  0  0
  162.4350  210.3850  150.6370 C   0  0  0  0  0  2  0  0  0  0  0  0
  161.9460  207.5620  150.8070 C   0  0  0  0  0  0  0  0  0  0  0  0
  162.1260  208.2370  149.4580 C   0  0  1  0  0  3  0  0  0  0  0  0
  161.5330  207.5100  148.2430 C   0  0  0  0  0  2  0  0  0  0  0  0
  160.6350  207.9680  156.6860 C   0  0  0  0  0  0  0  0  0  0  0  0
  159.7700  206.9310  157.0120 O   0  0  0  0  0  0  0  0  0  0  0  0
  161.7520  208.0530  157.2610 O   0  0  0  0  0  1  0  0  0  0  0  0
  1  7  1  0  0  0  0
  3  6  1  0  0  0  0
  3 10  2  0  0  0  0
  4  2  1  1  0  0  0
  4  8  1  0  0  0  0
  5  3  1  0  0  0  0
  6 11  1  0  0  0  0
  7 11  2  0  0  0  0
  7 23  1  0  0  0  0
  8  1  1  0  0  0  0
  8  6  2  0  0  0  0
  9  2  1  0  0  0  0
  9  5  1  0  0  0  0
 12 14  1  0  0  0  0
 14 13  2  0  0  0  0
 15 19  1  0  0  0  0
 16 12  1  0  0  0  0
 17 19  1  6  0  0  0
 17  4  1  0  0  0  0
 18 17  1  0  0  0  0
 20 14  1  0  0  0  0
 20 18  2  0  0  0  0
 21 22  1  6  0  0  0
 21 15  1  0  0  0  0
 21 20  1  0  0  0  0
 22 16  1  0  0  0  0
 23 24  2  0  0  0  0
 23 25  1  0  0  0  0
M  END
>  <MODEL>
3

>  <REMARK>
 VINA RESULT:      -6.1      3.245      6.829
  Name = 
  2 active torsions:
  status: ('A' for Active; 'I' for Inactive)
    1  A    between atoms: C_2  and  C_16
    2  A    between atoms: C_9  and  C_11
                            x       y       z     vdW  Elec       q    Type
                         _______ _______ _______ _____ _____    ______ ____

>  <TORSDO>
F 2

$$$$
=
 OpenBabel11072411363D

 25 28  0  0  1  0  0  0  0  0999 V2000
  161.4220  203.9780  149.0840 O   0  0  0  0  0  0  0  0  0  0  0  0
  162.6490  207.3280  148.1930 C   0  0  0  0  0  2  0  0  0  0  0  0
  161.1430  207.1560  150.8670 C   0  0  0  0  0  0  0  0  0  0  0  0
  161.8720  206.0720  147.8320 C   0  0  2  0  0  3  0  0  0  0  0  0
  161.4950  208.3110  150.0960 N   0  0  0  0  0  2  0  0  0  0  0  0
  161.1680  205.7700  150.3390 C   0  0  0  0  0  0  0  0  0  0  0  0
  161.0480  203.5840  150.2760 C   0  0  0  0  0  0  0  0  0  0  0  0
  161.5130  205.2880  149.0740 C   0  0  0  0  0  0  0  0  0  0  0  0
  161.6590  208.3690  148.6540 C   0  0  0  0  0  2  0  0  0  0  0  0
  160.8310  207.3290  152.0750 O   0  0  0  0  0  0  0  0  0  0  0  0
  160.8720  204.6630  151.1180 C   0  0  0  0  0  3  0  0  0  0  0  0
  159.7060  201.4040  145.1670 C   0  0  0  0  0  2  0  0  0  0  0  0
  161.2950  201.1320  146.9120 O   0  0  0  0  0  0  0  0  0  0  0  0
  160.8170  201.8960  146.0310 C   0  0  0  0  0  0  0  0  0  0  0  0
  161.1750  205.5450  144.7590 C   0  0  0  0  0  2  0  0  0  0  0  0
  158.5220  202.7560  144.8860 S   0  0  0  0  0  0  0  0  0  0  0  0
  162.6280  205.2240  146.7870 C   0  0  1  0  0  3  0  0  0  0  0  0
  162.1260  203.7960  146.8020 C   0  0  0  0  0  3  0  0  0  0  0  0
  162.5390  205.8280  145.3750 C   0  0  0  0  0  2  0  0  0  0  0  0
  161.3350  203.2670  145.8570 C   0  0  0  0  0  0  0  0  0  0  0  0
  161.0280  204.0410  144.5860 C   0  0  1  0  0  3  0  0  0  0  0  0
  159.7180  203.6870  143.8680 C   0  0  0  0  0  2  0  0  0  0  0  0
  160.8500  202.1780  150.6400 C   0  0  0  0  0  0  0  0  0  0  0  0
  159.9990  201.3810  149.8840 O   0  0  0  0  0  0  0  0  0  0  0  0
  161.4460  201.6860  151.6340 O   0  0  0  0  0  1  0  0  0  0  0  0
  1  7  1  0  0  0  0
  2  9  1  0  0  0  0
  3 10  2  0  0  0  0
  4  2  1  1  0  0  0
  4  8  1  0  0  0  0
  5  3  1  0  0  0  0
  6  3  1  0  0  0  0
  6 11  1  0  0  0  0
  7 23  1  0  0  0  0
  7 11  2  0  0  0  0
  8  1  1  0  0  0  0
  8  6  2  0  0  0  0
  9  5  1  0  0  0  0
 12 14  1  0  0  0  0
 14 13  2  0  0  0  0
 15 19  1  0  0  0  0
 16 12  1  0  0  0  0
 17 19  1  6  0  0  0
 17 18  1  0  0  0  0
 17  4  1  0  0  0  0
 20 14  1  0  0  0  0
 20 18  2  0  0  0  0
 21 22  1  1  0  0  0
 21 15  1  0  0  0  0
 21 20  1  0  0  0  0
 22 16  1  0  0  0  0
 23 25  1  0  0  0  0
 24 23  2  0  0  0  0
M  END
>  <MODEL>
4

>  <REMARK>
 VINA RESULT:      -5.8      5.449      9.345
  Name = 
  2 active torsions:
  status: ('A' for Active; 'I' for Inactive)
    1  A    between atoms: C_2  and  C_16
    2  A    between atoms: C_9  and  C_11
                            x       y       z     vdW  Elec       q    Type
                         _______ _______ _______ _____ _____    ______ ____

>  <TORSDO>
F 2

$$$$
=
 OpenBabel11072411363D

 25 28  0  0  1  0  0  0  0  0999 V2000
  160.8610  206.6470  151.7120 O   0  0  0  0  0  0  0  0  0  0  0  0
  160.8970  210.1320  150.5410 C   0  0  0  0  0  2  0  0  0  0  0  0
  162.2950  208.1160  148.6890 C   0  0  0  0  0  0  0  0  0  0  0  0
  161.1650  209.1080  151.6310 C   0  0  2  0  0  3  0  0  0  0  0  0
  162.3650  209.5470  148.6910 N   0  0  0  0  0  2  0  0  0  0  0  0
  161.7650  207.3120  149.8180 C   0  0  0  0  0  0  0  0  0  0  0  0
  161.0920  205.5840  150.9840 C   0  0  0  0  0  0  0  0  0  0  0  0
  161.2440  207.7140  151.0500 C   0  0  0  0  0  0  0  0  0  0  0  0
  162.2040  210.4180  149.8410 C   0  0  0  0  0  2  0  0  0  0  0  0
  162.6730  207.5110  147.6520 O   0  0  0  0  0  0  0  0  0  0  0  0
  161.6610  205.9310  149.7740 C   0  0  0  0  0  3  0  0  0  0  0  0
  162.4950  209.4910  157.2590 C   0  0  0  0  0  2  0  0  0  0  0  0
  161.6760  207.4420  156.3800 O   0  0  0  0  0  0  0  0  0  0  0  0
  161.7490  208.6930  156.2450 C   0  0  0  0  0  0  0  0  0  0  0  0
  160.7210  211.4700  153.7370 C   0  0  0  0  0  2  0  0  0  0  0  0
  163.4060  210.8230  156.4200 S   0  0  0  0  0  0  0  0  0  0  0  0
  160.1350  209.2210  152.7750 C   0  0  1  0  0  3  0  0  0  0  0  0
  160.6960  208.6350  154.0530 C   0  0  0  0  0  3  0  0  0  0  0  0
  159.6630  210.6690  152.9890 C   0  0  0  0  0  2  0  0  0  0  0  0
  161.1180  209.3680  155.0930 C   0  0  0  0  0  0  0  0  0  0  0  0
  160.8890  210.8690  155.1240 C   0  0  1  0  0  3  0  0  0  0  0  0
  161.8650  211.6940  155.9750 C   0  0  0  0  0  2  0  0  0  0  0  0
  160.7810  204.2190  151.4170 C   0  0  0  0  0  0  0  0  0  0  0  0
  160.4760  203.2460  150.4740 O   0  0  0  0  0  0  0  0  0  0  0  0
  160.7870  203.9210  152.6410 O   0  0  0  0  0  1  0  0  0  0  0  0
  3  5  1  0  0  0  0
  3  6  1  0  0  0  0
  4  2  1  6  0  0  0
  4 17  1  0  0  0  0
  5  9  1  0  0  0  0
  6  8  2  0  0  0  0
  7 23  1  0  0  0  0
  7  1  1  0  0  0  0
  8  4  1  0  0  0  0
  8  1  1  0  0  0  0
  9  2  1  0  0  0  0
 10  3  2  0  0  0  0
 11  6  1  0  0  0  0
 11  7  2  0  0  0  0
 14 13  2  0  0  0  0
 14 12  1  0  0  0  0
 16 12  1  0  0  0  0
 17 19  1  1  0  0  0
 17 18  1  0  0  0  0
 18 20  2  0  0  0  0
 19 15  1  0  0  0  0
 20 21  1  0  0  0  0
 20 14  1  0  0  0  0
 21 15  1  6  0  0  0
 21 22  1  0  0  0  0
 22 16  1  0  0  0  0
 23 25  1  0  0  0  0
 24 23  2  0  0  0  0
M  END
>  <MODEL>
5

>  <REMARK>
 VINA RESULT:      -5.3      2.987      4.887
  Name = 
  2 active torsions:
  status: ('A' for Active; 'I' for Inactive)
    1  A    between atoms: C_2  and  C_16
    2  A    between atoms: C_9  and  C_11
                            x       y       z     vdW  Elec       q    Type
                         _______ _______ _______ _____ _____    ______ ____

>  <TORSDO>
F 2

$$$$
=
 OpenBabel11072411363D

 25 28  0  0  1  0  0  0  0  0999 V2000
  162.1970  205.2100  148.6290 O   0  0  0  0  0  0  0  0  0  0  0  0
  161.4190  203.7190  151.8990 C   0  0  0  0  0  2  0  0  0  0  0  0
  160.1350  202.3170  149.4840 C   0  0  0  0  0  0  0  0  0  0  0  0
  161.4780  204.9340  150.9870 C   0  0  2  0  0  3  0  0  0  0  0  0
  159.8290  202.1870  150.8770 N   0  0  0  0  0  2  0  0  0  0  0  0
  160.9430  203.4230  148.9140 C   0  0  0  0  0  0  0  0  0  0  0  0
  162.0480  204.6350  147.4620 C   0  0  0  0  0  0  0  0  0  0  0  0
  161.5540  204.5130  149.5370 C   0  0  0  0  0  0  0  0  0  0  0  0
  159.9990  203.2070  151.8970 C   0  0  0  0  0  2  0  0  0  0  0  0
  159.7240  201.4150  148.7060 O   0  0  0  0  0  0  0  0  0  0  0  0
  161.2680  203.5000  147.5690 C   0  0  0  0  0  3  0  0  0  0  0  0
  160.9220  210.6570  151.7110 C   0  0  0  0  0  2  0  0  0  0  0  0
  161.9740  209.8150  149.7550 O   0  0  0  0  0  0  0  0  0  0  0  0
  161.6500  209.6000  150.9540 C   0  0  0  0  0  0  0  0  0  0  0  0
  161.7720  206.7580  153.5940 C   0  0  0  0  0  2  0  0  0  0  0  0
  159.6680  209.8780  152.7720 S   0  0  0  0  0  0  0  0  0  0  0  0
  162.6230  205.8870  151.3930 C   0  0  1  0  0  3  0  0  0  0  0  0
  162.3700  207.2780  150.8530 C   0  0  0  0  0  3  0  0  0  0  0  0
  162.8430  205.9140  152.9150 C   0  0  0  0  0  2  0  0  0  0  0  0
  161.9730  208.3150  151.6050 C   0  0  0  0  0  0  0  0  0  0  0  0
  161.9200  208.1960  153.1180 C   0  0  1  0  0  3  0  0  0  0  0  0
  160.9400  209.1270  153.8460 C   0  0  0  0  0  2  0  0  0  0  0  0
  162.6390  205.1480  146.2230 C   0  0  0  0  0  0  0  0  0  0  0  0
  161.9670  206.1130  145.4840 O   0  0  0  0  0  0  0  0  0  0  0  0
  163.7530  204.7200  145.8220 O   0  0  0  0  0  1  0  0  0  0  0  0
  1  8  1  0  0  0  0
  3  5  1  0  0  0  0
  4 17  1  0  0  0  0
  4  2  1  1  0  0  0
  5  9  1  0  0  0  0
  6  3  1  0  0  0  0
  6  8  2  0  0  0  0
  7 11  2  0  0  0  0
  7  1  1  0  0  0  0
  8  4  1  0  0  0  0
  9  2  1  0  0  0  0
 10  3  2  0  0  0  0
 11  6  1  0  0  0  0
 12 16  1  0  0  0  0
 13 14  2  0  0  0  0
 14 20  1  0  0  0  0
 14 12  1  0  0  0  0
 16 22  1  0  0  0  0
 17 18  1  1  0  0  0
 17 19  1  0  0  0  0
 18 20  2  0  0  0  0
 19 15  1  0  0  0  0
 20 21  1  0  0  0  0
 21 15  1  6  0  0  0
 21 22  1  0  0  0  0
 23  7  1  0  0  0  0
 24 23  2  0  0  0  0
 25 23  1  0  0  0  0
M  END
>  <MODEL>
6

>  <REMARK>
 VINA RESULT:      -5.2      3.169      5.067
  Name = 
  2 active torsions:
  status: ('A' for Active; 'I' for Inactive)
    1  A    between atoms: C_2  and  C_16
    2  A    between atoms: C_9  and  C_11
                            x       y       z     vdW  Elec       q    Type
                         _______ _______ _______ _____ _____    ______ ____

>  <TORSDO>
F 2

$$$$
=
 OpenBabel11072411363D

 25 28  0  0  1  0  0  0  0  0999 V2000
  161.3670  205.6340  152.3630 O   0  0  0  0  0  0  0  0  0  0  0  0
  161.3810  209.3050  152.5660 C   0  0  0  0  0  2  0  0  0  0  0  0
  161.6010  208.1530  149.7250 C   0  0  0  0  0  0  0  0  0  0  0  0
  161.9370  207.9610  153.0060 C   0  0  2  0  0  3  0  0  0  0  0  0
  161.8560  209.4850  150.1870 N   0  0  0  0  0  2  0  0  0  0  0  0
  161.4840  206.9750  150.6200 C   0  0  0  0  0  0  0  0  0  0  0  0
  161.1310  204.9200  151.2910 C   0  0  0  0  0  0  0  0  0  0  0  0
  161.5800  206.8800  152.0100 C   0  0  0  0  0  0  0  0  0  0  0  0
  162.3050  209.8670  151.5130 C   0  0  0  0  0  2  0  0  0  0  0  0
  161.4300  207.9820  148.4890 O   0  0  0  0  0  0  0  0  0  0  0  0
  161.1870  205.7040  150.1550 C   0  0  0  0  0  3  0  0  0  0  0  0
  161.1770  211.8270  157.2570 C   0  0  0  0  0  2  0  0  0  0  0  0
  163.1180  210.4570  157.2450 O   0  0  0  0  0  0  0  0  0  0  0  0
  161.9280  210.6030  156.8560 C   0  0  0  0  0  0  0  0  0  0  0  0
  159.3090  208.8430  154.5960 C   0  0  0  0  0  2  0  0  0  0  0  0
  160.1490  212.3820  155.8630 S   0  0  0  0  0  0  0  0  0  0  0  0
  161.4990  207.6150  154.4460 C   0  0  1  0  0  3  0  0  0  0  0  0
  162.0320  208.6400  155.4230 C   0  0  0  0  0  3  0  0  0  0  0  0
  159.9720  207.4720  154.5690 C   0  0  0  0  0  2  0  0  0  0  0  0
  161.2800  209.5860  156.0040 C   0  0  0  0  0  0  0  0  0  0  0  0
  159.7700  209.5760  155.8480 C   0  0  1  0  0  3  0  0  0  0  0  0
  159.0550  210.9260  155.9980 C   0  0  0  0  0  2  0  0  0  0  0  0
  160.8470  203.4820  151.3190 C   0  0  0  0  0  0  0  0  0  0  0  0
  160.5590  202.8110  150.1380 O   0  0  0  0  0  0  0  0  0  0  0  0
  160.8630  202.8500  152.4080 O   0  0  0  0  0  1  0  0  0  0  0  0
  3  5  1  0  0  0  0
  3  6  1  0  0  0  0
  4  2  1  6  0  0  0
  4 17  1  0  0  0  0
  5  9  1  0  0  0  0
  6  8  2  0  0  0  0
  7 23  1  0  0  0  0
  7  1  1  0  0  0  0
  8  1  1  0  0  0  0
  8  4  1  0  0  0  0
  9  2  1  0  0  0  0
 10  3  2  0  0  0  0
 11  6  1  0  0  0  0
 11  7  2  0  0  0  0
 14 13  2  0  0  0  0
 14 12  1  0  0  0  0
 16 22  1  0  0  0  0
 16 12  1  0  0  0  0
 17 19  1  6  0  0  0
 17 18  1  0  0  0  0
 18 20  2  0  0  0  0
 19 15  1  0  0  0  0
 20 14  1  0  0  0  0
 21 15  1  6  0  0  0
 21 22  1  0  0  0  0
 21 20  1  0  0  0  0
 23 25  1  0  0  0  0
 24 23  2  0  0  0  0
M  END
>  <MODEL>
7

>  <REMARK>
 VINA RESULT:      -5.1      2.670      4.507
  Name = 
  2 active torsions:
  status: ('A' for Active; 'I' for Inactive)
    1  A    between atoms: C_2  and  C_16
    2  A    between atoms: C_9  and  C_11
                            x       y       z     vdW  Elec       q    Type
                         _______ _______ _______ _____ _____    ______ ____

>  <TORSDO>
F 2

$$$$
=
 OpenBabel11072411363D

 25 28  0  0  1  0  0  0  0  0999 V2000
  160.1190  209.0990  138.8270 O   0  0  0  0  0  0  0  0  0  0  0  0
  158.9520  212.5510  139.3220 C   0  0  0  0  0  2  0  0  0  0  0  0
  161.4010  211.7470  140.9950 C   0  0  0  0  0  0  0  0  0  0  0  0
  158.6650  211.0590  139.2770 C   0  0  2  0  0  3  0  0  0  0  0  0
  160.5340  212.8770  141.1410 N   0  0  0  0  0  2  0  0  0  0  0  0
  161.0740  210.5530  140.1770 C   0  0  0  0  0  0  0  0  0  0  0  0
  161.2930  208.6250  139.1610 C   0  0  0  0  0  0  0  0  0  0  0  0
  159.9440  210.2620  139.4100 C   0  0  0  0  0  0  0  0  0  0  0  0
  159.1330  212.9440  140.7680 C   0  0  0  0  0  2  0  0  0  0  0  0
  162.5230  211.7890  141.5670 O   0  0  0  0  0  0  0  0  0  0  0  0
  161.9500  209.4920  140.0110 C   0  0  0  0  0  3  0  0  0  0  0  0
  153.0360  209.6800  139.2580 C   0  0  0  0  0  2  0  0  0  0  0  0
  154.6670  207.9690  139.0340 O   0  0  0  0  0  0  0  0  0  0  0  0
  154.4000  209.1940  138.9080 C   0  0  0  0  0  0  0  0  0  0  0  0
  156.1490  212.5280  137.9650 C   0  0  0  0  0  2  0  0  0  0  0  0
  153.1690  211.3000  140.0740 S   0  0  0  0  0  0  0  0  0  0  0  0
  157.8540  210.6790  138.0190 C   0  0  1  0  0  3  0  0  0  0  0  0
  156.7070  209.7620  138.3850 C   0  0  0  0  0  3  0  0  0  0  0  0
  157.3520  211.9180  137.2570 C   0  0  0  0  0  2  0  0  0  0  0  0
  155.4230  210.1450  138.4310 C   0  0  0  0  0  0  0  0  0  0  0  0
  155.0100  211.5190  137.9330 C   0  0  1  0  0  3  0  0  0  0  0  0
  153.7260  212.1090  138.5350 C   0  0  0  0  0  2  0  0  0  0  0  0
  161.8150  207.3410  138.6850 C   0  0  0  0  0  0  0  0  0  0  0  0
  161.9350  207.1070  137.3210 O   0  0  0  0  0  0  0  0  0  0  0  0
  162.1540  206.4460  139.5030 O   0  0  0  0  0  1  0  0  0  0  0  0
  1  7  1  0  0  0  0
  1  8  1  0  0  0  0
  2  9  1  0  0  0  0
  3  5  1  0  0  0  0
  3 10  2  0  0  0  0
  4  2  1  6  0  0  0
  4  8  1  0  0  0  0
  6  3  1  0  0  0  0
  7 11  2  0  0  0  0
  8  6  2  0  0  0  0
  9  5  1  0  0  0  0
 11  6  1  0  0  0  0
 12 16  1  0  0  0  0
 14 13  2  0  0  0  0
 14 12  1  0  0  0  0
 17 19  1  1  0  0  0
 17 18  1  0  0  0  0
 17  4  1  0  0  0  0
 18 20  2  0  0  0  0
 19 15  1  0  0  0  0
 20 14  1  0  0  0  0
 21 15  1  1  0  0  0
 21 20  1  0  0  0  0
 21 22  1  0  0  0  0
 22 16  1  0  0  0  0
 23  7  1  0  0  0  0
 23 25  1  0  0  0  0
 24 23  2  0  0  0  0
M  END
>  <MODEL>
8

>  <REMARK>
 VINA RESULT:      -5.0     12.459     14.398
  Name = 
  2 active torsions:
  status: ('A' for Active; 'I' for Inactive)
    1  A    between atoms: C_2  and  C_16
    2  A    between atoms: C_9  and  C_11
                            x       y       z     vdW  Elec       q    Type
                         _______ _______ _______ _____ _____    ______ ____

>  <TORSDO>
F 2

$$$$
=
 OpenBabel11072411363D

 25 28  0  0  1  0  0  0  0  0999 V2000
  161.6510  207.7300  147.5480 O   0  0  0  0  0  0  0  0  0  0  0  0
  161.9970  209.2090  150.8970 C   0  0  0  0  0  2  0  0  0  0  0  0
  161.0210  206.2950  150.8490 C   0  0  0  0  0  0  0  0  0  0  0  0
  161.4470  209.2720  149.4820 C   0  0  2  0  0  3  0  0  0  0  0  0
  160.9950  207.2430  151.9230 N   0  0  0  0  0  2  0  0  0  0  0  0
  161.2440  206.6590  149.4280 C   0  0  0  0  0  0  0  0  0  0  0  0
  161.5680  206.4530  147.2720 C   0  0  0  0  0  0  0  0  0  0  0  0
  161.4670  207.9040  148.8370 C   0  0  0  0  0  0  0  0  0  0  0  0
  160.9030  208.6860  151.7970 C   0  0  0  0  0  2  0  0  0  0  0  0
  160.8840  205.0760  151.1390 O   0  0  0  0  0  0  0  0  0  0  0  0
  161.3140  205.7180  148.4130 C   0  0  0  0  0  3  0  0  0  0  0  0
  158.8380  213.5550  146.5780 C   0  0  0  0  0  2  0  0  0  0  0  0
  159.6850  211.6770  145.3960 O   0  0  0  0  0  0  0  0  0  0  0  0
  159.7420  212.3780  146.4410 C   0  0  0  0  0  0  0  0  0  0  0  0
  161.5520  212.4410  149.8740 C   0  0  0  0  0  2  0  0  0  0  0  0
  158.2590  213.6690  148.2980 S   0  0  0  0  0  0  0  0  0  0  0  0
  162.1780  210.3400  148.6400 C   0  0  1  0  0  3  0  0  0  0  0  0
  161.2830  210.8410  147.5270 C   0  0  0  0  0  3  0  0  0  0  0  0
  162.6940  211.5040  149.5040 C   0  0  0  0  0  2  0  0  0  0  0  0
  160.6810  212.0390  147.5290 C   0  0  0  0  0  0  0  0  0  0  0  0
  161.0100  213.0670  148.5970 C   0  0  1  0  0  3  0  0  0  0  0  0
  159.9250  214.1090  148.9040 C   0  0  0  0  0  2  0  0  0  0  0  0
  161.7270  205.9030  145.9230 C   0  0  0  0  0  0  0  0  0  0  0  0
  160.6790  205.9860  145.0150 O   0  0  0  0  0  0  0  0  0  0  0  0
  162.8070  205.3540  145.5810 O   0  0  0  0  0  1  0  0  0  0  0  0
  1  8  1  0  0  0  0
  2  9  1  0  0  0  0
  3 10  2  0  0  0  0
  3  5  1  0  0  0  0
  4  2  1  1  0  0  0
  6  3  1  0  0  0  0
  7  1  1  0  0  0  0
  7 11  2  0  0  0  0
  8  6  2  0  0  0  0
  8  4  1  0  0  0  0
  9  5  1  0  0  0  0
 11  6  1  0  0  0  0
 12 16  1  0  0  0  0
 13 14  2  0  0  0  0
 14 12  1  0  0  0  0
 14 20  1  0  0  0  0
 16 22  1  0  0  0  0
 17 18  1  6  0  0  0
 17  4  1  0  0  0  0
 17 19  1  0  0  0  0
 18 20  2  0  0  0  0
 19 15  1  0  0  0  0
 20 21  1  0  0  0  0
 21 22  1  1  0  0  0
 21 15  1  0  0  0  0
 23  7  1  0  0  0  0
 24 23  2  0  0  0  0
 25 23  1  0  0  0  0
M  END
>  <MODEL>
9

>  <REMARK>
 VINA RESULT:      -5.0      3.670      4.894
  Name = 
  2 active torsions:
  status: ('A' for Active; 'I' for Inactive)
    1  A    between atoms: C_2  and  C_16
    2  A    between atoms: C_9  and  C_11
                            x       y       z     vdW  Elec       q    Type
                         _______ _______ _______ _____ _____    ______ ____

>  <TORSDO>
F 2

$$$$
