=
 OpenBabel11072410293D

 32 34  0  0  1  0  0  0  0  0999 V2000
  159.5840  212.0700  152.9510 C   0  0  0  0  0  0  0  0  0  0  0  0
  160.6140  211.1210  153.0850 C   0  0  0  0  0  0  0  0  0  0  0  0
  161.4940  211.6150  156.6570 O   0  0  0  0  0  1  0  0  0  0  0  0
  161.2640  210.9680  154.3360 C   0  0  0  0  0  0  0  0  0  0  0  0
  159.1550  212.8000  154.0760 C   0  0  0  0  0  0  0  0  0  0  0  0
  162.6440  209.8960  154.5500 Cl  0  0  0  0  0  0  0  0  0  0  0  0
  159.7910  212.6320  155.3080 C   0  0  0  0  0  0  0  0  0  0  0  0
  159.3600  213.3600  156.4160 O   0  0  0  0  0  1  0  0  0  0  0  0
  160.8480  211.7320  155.4370 C   0  0  0  0  0  0  0  0  0  0  0  0
  158.0780  213.6710  153.9840 O   0  0  0  0  0  1  0  0  0  0  0  0
  160.1090  214.1850  150.9990 O   0  0  0  0  0  0  0  0  0  0  0  0
  159.1620  213.3780  150.7930 C   0  0  0  0  0  0  0  0  0  0  0  0
  158.9670  212.2560  151.6630 N   0  0  0  0  0  2  0  0  0  0  0  0
  156.9370  213.9580  149.8260 C   0  0  0  0  0  3  0  0  0  0  0  0
  156.5830  213.9880  147.4260 C   0  0  0  0  0  3  0  0  0  0  0  0
  158.2700  213.5750  149.6340 C   0  0  0  0  0  0  0  0  0  0  0  0
  156.0950  214.1620  148.7260 C   0  0  0  0  0  3  0  0  0  0  0  0
  158.7490  213.3960  148.3270 C   0  0  0  0  0  3  0  0  0  0  0  0
  157.9100  213.6030  147.2250 C   0  0  0  0  0  3  0  0  0  0  0  0
  160.9890  210.3240  151.8550 C   0  0  2  0  0  3  0  0  0  0  0  0
  161.6030  206.2750  153.1920 O   0  0  0  0  0  0  0  0  0  0  0  0
  160.9920  206.0070  150.8500 C   0  0  0  0  0  1  0  0  0  0  0  0
  160.8340  208.8100  152.0300 C   0  0  1  0  0  3  0  0  0  0  0  0
  161.9920  206.5940  151.8480 C   0  0  1  0  0  3  0  0  0  0  0  0
  162.1460  208.1080  151.6700 C   0  0  0  0  0  2  0  0  0  0  0  0
  160.2900  208.4360  153.4150 C   0  0  0  0  0  2  0  0  0  0  0  0
  160.4200  206.7360  155.1030 O   0  0  0  0  0  0  0  0  0  0  0  0
  160.7540  207.0950  153.9400 C   0  0  0  0  0  0  0  0  0  0  0  0
  162.2650  210.7710  151.1450 C   0  0  0  0  0  2  0  0  0  0  0  0
  162.0070  209.8020  148.8610 O   0  0  0  0  0  0  0  0  0  0  0  0
  162.0260  210.9220  149.6830 C   0  0  0  0  0  0  0  0  0  0  0  0
  161.8710  212.0720  149.1910 O   0  0  0  0  0  1  0  0  0  0  0  0
  1  2  2  0  0  0  0
  1  5  1  0  0  0  0
  2  4  1  0  0  0  0
  4  6  1  0  0  0  0
  4  9  2  0  0  0  0
  5  7  2  0  0  0  0
  7  9  1  0  0  0  0
  7  8  1  0  0  0  0
  9  3  1  0  0  0  0
 10  5  1  0  0  0  0
 12 11  2  0  0  0  0
 12 13  1  0  0  0  0
 13  1  1  0  0  0  0
 15 17  1  0  0  0  0
 16 14  1  0  0  0  0
 16 12  1  0  0  0  0
 17 14  2  0  0  0  0
 18 16  2  0  0  0  0
 19 15  2  0  0  0  0
 19 18  1  0  0  0  0
 20 29  1  1  0  0  0
 20  2  1  0  0  0  0
 21 28  1  0  0  0  0
 23 20  1  1  0  0  0
 23 26  1  0  0  0  0
 24 22  1  6  0  0  0
 24 21  1  0  0  0  0
 25 24  1  0  0  0  0
 25 23  1  0  0  0  0
 26 28  1  0  0  0  0
 28 27  2  0  0  0  0
 30 31  2  0  0  0  0
 31 29  1  0  0  0  0
 32 31  1  0  0  0  0
M  END
>  <MODEL>
1

>  <REMARK>
 VINA RESULT:      -5.5      0.000      0.000
  Name = 
  6 active torsions:
  status: ('A' for Active; 'I' for Inactive)
    1  A    between atoms: C_2  and  C_20
    2  A    between atoms: C_3  and  C_7
    3  A    between atoms: C_3  and  C_11
    4  A    between atoms: C_3  and  C_30
    5  A    between atoms: C_5  and  N_22
    6  A    between atoms: C_18  and  C_30
                            x       y       z     vdW  Elec       q    Type
                         _______ _______ _______ _____ _____    ______ ____

>  <TORSDO>
F 6

$$$$
=
 OpenBabel11072410293D

 32 34  0  0  1  0  0  0  0  0999 V2000
  159.2450  211.5040  153.0650 C   0  0  0  0  0  0  0  0  0  0  0  0
  159.6580  210.7030  154.1460 C   0  0  0  0  0  0  0  0  0  0  0  0
  156.8360  211.2670  156.4910 O   0  0  0  0  0  1  0  0  0  0  0  0
  158.8470  210.6250  155.3070 C   0  0  0  0  0  0  0  0  0  0  0  0
  157.9970  212.1540  153.1140 C   0  0  0  0  0  0  0  0  0  0  0  0
  159.3550  209.7490  156.7470 Cl  0  0  0  0  0  0  0  0  0  0  0  0
  157.1970  212.0580  154.2550 C   0  0  0  0  0  0  0  0  0  0  0  0
  155.9630  212.7060  154.2940 O   0  0  0  0  0  1  0  0  0  0  0  0
  157.6230  211.3100  155.3510 C   0  0  0  0  0  0  0  0  0  0  0  0
  157.5310  212.8700  152.0190 O   0  0  0  0  0  1  0  0  0  0  0  0
  160.0640  213.9450  151.6790 O   0  0  0  0  0  0  0  0  0  0  0  0
  160.3740  212.8260  151.1880 C   0  0  0  0  0  0  0  0  0  0  0  0
  160.1000  211.6190  151.9130 N   0  0  0  0  0  2  0  0  0  0  0  0
  160.9630  213.8390  148.9870 C   0  0  0  0  0  3  0  0  0  0  0  0
  162.3550  212.6510  147.3940 C   0  0  0  0  0  3  0  0  0  0  0  0
  161.0450  212.7610  149.8760 C   0  0  0  0  0  0  0  0  0  0  0  0
  161.6150  213.7840  147.7490 C   0  0  0  0  0  3  0  0  0  0  0  0
  161.7840  211.6250  149.5090 C   0  0  0  0  0  3  0  0  0  0  0  0
  162.4400  211.5700  148.2730 C   0  0  0  0  0  3  0  0  0  0  0  0
  160.9800  209.9800  154.0110 C   0  0  2  0  0  3  0  0  0  0  0  0
  162.1300  206.5520  151.6690 O   0  0  0  0  0  0  0  0  0  0  0  0
  161.1090  208.0360  150.0300 C   0  0  0  0  0  1  0  0  0  0  0  0
  160.9710  208.8700  152.9560 C   0  0  1  0  0  3  0  0  0  0  0  0
  162.2330  207.8410  151.0490 C   0  0  1  0  0  3  0  0  0  0  0  0
  162.2400  208.9550  152.1030 C   0  0  0  0  0  2  0  0  0  0  0  0
  160.7280  207.4850  153.5690 C   0  0  0  0  0  2  0  0  0  0  0  0
  161.2990  205.1700  153.3010 O   0  0  0  0  0  0  0  0  0  0  0  0
  161.3790  206.3380  152.8290 C   0  0  0  0  0  0  0  0  0  0  0  0
  161.6740  209.6270  155.3240 C   0  0  0  0  0  2  0  0  0  0  0  0
  162.3310  211.5040  156.8300 O   0  0  0  0  0  1  0  0  0  0  0  0
  162.6160  210.7070  155.7280 C   0  0  0  0  0  0  0  0  0  0  0  0
  163.6580  210.9140  155.0480 O   0  0  0  0  0  0  0  0  0  0  0  0
  1  5  2  0  0  0  0
  1  2  1  0  0  0  0
  2  4  2  0  0  0  0
  4  9  1  0  0  0  0
  4  6  1  0  0  0  0
  5  7  1  0  0  0  0
  7  8  1  0  0  0  0
  7  9  2  0  0  0  0
  9  3  1  0  0  0  0
 10  5  1  0  0  0  0
 12 11  2  0  0  0  0
 12 13  1  0  0  0  0
 13  1  1  0  0  0  0
 14 16  1  0  0  0  0
 15 17  1  0  0  0  0
 15 19  2  0  0  0  0
 16 12  1  0  0  0  0
 17 14  2  0  0  0  0
 18 16  2  0  0  0  0
 19 18  1  0  0  0  0
 20  2  1  0  0  0  0
 20 29  1  1  0  0  0
 21 28  1  0  0  0  0
 23 26  1  0  0  0  0
 23 20  1  1  0  0  0
 24 22  1  6  0  0  0
 24 21  1  0  0  0  0
 24 25  1  0  0  0  0
 25 23  1  0  0  0  0
 28 27  2  0  0  0  0
 28 26  1  0  0  0  0
 29 31  1  0  0  0  0
 31 30  1  0  0  0  0
 32 31  2  0  0  0  0
M  END
>  <MODEL>
2

>  <REMARK>
 VINA RESULT:      -5.1      2.451      3.593
  Name = 
  6 active torsions:
  status: ('A' for Active; 'I' for Inactive)
    1  A    between atoms: C_2  and  C_20
    2  A    between atoms: C_3  and  C_7
    3  A    between atoms: C_3  and  C_11
    4  A    between atoms: C_3  and  C_30
    5  A    between atoms: C_5  and  N_22
    6  A    between atoms: C_18  and  C_30
                            x       y       z     vdW  Elec       q    Type
                         _______ _______ _______ _____ _____    ______ ____

>  <TORSDO>
F 6

$$$$
=
 OpenBabel11072410293D

 32 34  0  0  1  0  0  0  0  0999 V2000
  161.6350  208.6610  151.4640 C   0  0  0  0  0  0  0  0  0  0  0  0
  161.0420  208.6610  152.7400 C   0  0  0  0  0  0  0  0  0  0  0  0
  161.1750  205.0350  153.5220 O   0  0  0  0  0  1  0  0  0  0  0  0
  160.8820  207.4360  153.4360 C   0  0  0  0  0  0  0  0  0  0  0  0
  162.1340  207.4590  150.9260 C   0  0  0  0  0  0  0  0  0  0  0  0
  160.0370  207.3380  154.9770 Cl  0  0  0  0  0  0  0  0  0  0  0  0
  161.9860  206.2590  151.6250 C   0  0  0  0  0  0  0  0  0  0  0  0
  162.4830  205.0750  151.0830 O   0  0  0  0  0  1  0  0  0  0  0  0
  161.3530  206.2430  152.8670 C   0  0  0  0  0  0  0  0  0  0  0  0
  162.8060  207.4560  149.7110 O   0  0  0  0  0  1  0  0  0  0  0  0
  161.3030  209.1000  148.5920 O   0  0  0  0  0  0  0  0  0  0  0  0
  161.7000  210.0520  149.3180 C   0  0  0  0  0  0  0  0  0  0  0  0
  161.7450  209.9020  150.7430 N   0  0  0  0  0  2  0  0  0  0  0  0
  163.4160  211.5440  148.2930 C   0  0  0  0  0  3  0  0  0  0  0  0
  162.8310  213.7560  147.4860 C   0  0  0  0  0  3  0  0  0  0  0  0
  162.0930  211.3320  148.6990 C   0  0  0  0  0  0  0  0  0  0  0  0
  163.7840  212.7530  147.6890 C   0  0  0  0  0  3  0  0  0  0  0  0
  161.1440  212.3470  148.4970 C   0  0  0  0  0  3  0  0  0  0  0  0
  161.5100  213.5550  147.8910 C   0  0  0  0  0  3  0  0  0  0  0  0
  160.5810  209.9920  153.2920 C   0  0  2  0  0  3  0  0  0  0  0  0
  161.5420  211.7360  157.1120 O   0  0  0  0  0  0  0  0  0  0  0  0
  162.4920  209.4990  157.2600 C   0  0  0  0  0  1  0  0  0  0  0  0
  160.8320  210.1580  154.7940 C   0  0  1  0  0  3  0  0  0  0  0  0
  162.5040  210.8440  156.5320 C   0  0  1  0  0  3  0  0  0  0  0  0
  162.2540  210.6750  155.0290 C   0  0  0  0  0  2  0  0  0  0  0  0
  159.7450  210.9980  155.4770 C   0  0  0  0  0  2  0  0  0  0  0  0
  159.4110  212.5740  157.2550 O   0  0  0  0  0  0  0  0  0  0  0  0
  160.2150  211.7930  156.6750 C   0  0  0  0  0  0  0  0  0  0  0  0
  159.2150  210.4700  152.8020 C   0  0  0  0  0  2  0  0  0  0  0  0
  160.4060  212.4900  151.9510 O   0  0  0  0  0  0  0  0  0  0  0  0
  159.2530  211.9230  152.4810 C   0  0  0  0  0  0  0  0  0  0  0  0
  158.2450  212.6420  152.7180 O   0  0  0  0  0  1  0  0  0  0  0  0
  1  2  1  0  0  0  0
  2 20  1  0  0  0  0
  2  4  2  0  0  0  0
  4  6  1  0  0  0  0
  5  1  2  0  0  0  0
  5  7  1  0  0  0  0
  7  9  2  0  0  0  0
  8  7  1  0  0  0  0
  9  4  1  0  0  0  0
  9  3  1  0  0  0  0
 10  5  1  0  0  0  0
 11 12  2  0  0  0  0
 12 13  1  0  0  0  0
 13  1  1  0  0  0  0
 14 16  1  0  0  0  0
 15 17  1  0  0  0  0
 15 19  2  0  0  0  0
 16 12  1  0  0  0  0
 17 14  2  0  0  0  0
 18 16  2  0  0  0  0
 19 18  1  0  0  0  0
 20 29  1  1  0  0  0
 23 20  1  6  0  0  0
 23 25  1  0  0  0  0
 23 26  1  0  0  0  0
 24 21  1  0  0  0  0
 24 22  1  1  0  0  0
 25 24  1  0  0  0  0
 26 28  1  0  0  0  0
 28 21  1  0  0  0  0
 28 27  2  0  0  0  0
 30 31  2  0  0  0  0
 31 32  1  0  0  0  0
 31 29  1  0  0  0  0
M  END
>  <MODEL>
3

>  <REMARK>
 VINA RESULT:      -4.9      2.391      5.641
  Name = 
  6 active torsions:
  status: ('A' for Active; 'I' for Inactive)
    1  A    between atoms: C_2  and  C_20
    2  A    between atoms: C_3  and  C_7
    3  A    between atoms: C_3  and  C_11
    4  A    between atoms: C_3  and  C_30
    5  A    between atoms: C_5  and  N_22
    6  A    between atoms: C_18  and  C_30
                            x       y       z     vdW  Elec       q    Type
                         _______ _______ _______ _____ _____    ______ ____

>  <TORSDO>
F 6

$$$$
=
 OpenBabel11072410293D

 32 34  0  0  1  0  0  0  0  0999 V2000
  159.6790  211.9340  152.3490 C   0  0  0  0  0  0  0  0  0  0  0  0
  160.8110  211.1040  152.4450 C   0  0  0  0  0  0  0  0  0  0  0  0
  161.4200  211.2510  156.1040 O   0  0  0  0  0  1  0  0  0  0  0  0
  161.4040  210.8740  153.7130 C   0  0  0  0  0  0  0  0  0  0  0  0
  159.1000  212.4640  153.5180 C   0  0  0  0  0  0  0  0  0  0  0  0
  162.8920  209.9530  153.8980 Cl  0  0  0  0  0  0  0  0  0  0  0  0
  159.6810  212.2200  154.7650 C   0  0  0  0  0  0  0  0  0  0  0  0
  159.1010  212.7500  155.9170 O   0  0  0  0  0  1  0  0  0  0  0  0
  160.8340  211.4410  154.8630 C   0  0  0  0  0  0  0  0  0  0  0  0
  157.9290  213.2070  153.4520 O   0  0  0  0  0  1  0  0  0  0  0  0
  159.9780  214.3540  150.7340 O   0  0  0  0  0  0  0  0  0  0  0  0
  159.1830  213.4530  150.3510 C   0  0  0  0  0  0  0  0  0  0  0  0
  159.1170  212.2040  151.0520 N   0  0  0  0  0  2  0  0  0  0  0  0
  158.8110  213.3290  147.8880 C   0  0  0  0  0  3  0  0  0  0  0  0
  156.7210  214.0650  146.8990 C   0  0  0  0  0  3  0  0  0  0  0  0
  158.3410  213.6760  149.1600 C   0  0  0  0  0  0  0  0  0  0  0  0
  158.0040  213.5240  146.7600 C   0  0  0  0  0  3  0  0  0  0  0  0
  157.0550  214.2240  149.2900 C   0  0  0  0  0  3  0  0  0  0  0  0
  156.2450  214.4160  148.1630 C   0  0  0  0  0  3  0  0  0  0  0  0
  161.3510  210.5140  151.1610 C   0  0  2  0  0  3  0  0  0  0  0  0
  160.9850  206.2390  150.7870 O   0  0  0  0  0  0  0  0  0  0  0  0
  162.0700  206.5230  152.9480 C   0  0  0  0  0  1  0  0  0  0  0  0
  161.6530  209.0150  151.2490 C   0  0  1  0  0  3  0  0  0  0  0  0
  160.8310  206.8030  152.0960 C   0  0  1  0  0  3  0  0  0  0  0  0
  160.5310  208.3040  152.0110 C   0  0  0  0  0  2  0  0  0  0  0  0
  161.9560  208.4000  149.8770 C   0  0  0  0  0  2  0  0  0  0  0  0
  161.7060  206.3770  148.6130 O   0  0  0  0  0  0  0  0  0  0  0  0
  161.5650  206.9460  149.7290 C   0  0  0  0  0  0  0  0  0  0  0  0
  162.4100  211.3520  150.4470 C   0  0  0  0  0  2  0  0  0  0  0  0
  161.3070  210.7840  148.2830 O   0  0  0  0  0  0  0  0  0  0  0  0
  161.9520  211.7230  149.0790 C   0  0  0  0  0  0  0  0  0  0  0  0
  162.1760  212.8820  148.6370 O   0  0  0  0  0  1  0  0  0  0  0  0
  1  2  2  0  0  0  0
  1  5  1  0  0  0  0
  2  4  1  0  0  0  0
  4  6  1  0  0  0  0
  4  9  2  0  0  0  0
  5  7  2  0  0  0  0
  7  9  1  0  0  0  0
  7  8  1  0  0  0  0
  9  3  1  0  0  0  0
 10  5  1  0  0  0  0
 12 11  2  0  0  0  0
 12 13  1  0  0  0  0
 13  1  1  0  0  0  0
 14 16  1  0  0  0  0
 15 19  2  0  0  0  0
 16 18  2  0  0  0  0
 16 12  1  0  0  0  0
 17 15  1  0  0  0  0
 17 14  2  0  0  0  0
 19 18  1  0  0  0  0
 20 29  1  1  0  0  0
 20  2  1  0  0  0  0
 21 24  1  0  0  0  0
 23 20  1  6  0  0  0
 23 25  1  0  0  0  0
 24 22  1  1  0  0  0
 25 24  1  0  0  0  0
 26 23  1  0  0  0  0
 27 28  2  0  0  0  0
 28 26  1  0  0  0  0
 28 21  1  0  0  0  0
 30 31  2  0  0  0  0
 31 29  1  0  0  0  0
 32 31  1  0  0  0  0
M  END
>  <MODEL>
4

>  <REMARK>
 VINA RESULT:      -4.3      1.224      2.022
  Name = 
  6 active torsions:
  status: ('A' for Active; 'I' for Inactive)
    1  A    between atoms: C_2  and  C_20
    2  A    between atoms: C_3  and  C_7
    3  A    between atoms: C_3  and  C_11
    4  A    between atoms: C_3  and  C_30
    5  A    between atoms: C_5  and  N_22
    6  A    between atoms: C_18  and  C_30
                            x       y       z     vdW  Elec       q    Type
                         _______ _______ _______ _____ _____    ______ ____

>  <TORSDO>
F 6

$$$$
=
 OpenBabel11072410293D

 32 34  0  0  1  0  0  0  0  0999 V2000
  161.5520  210.2350  150.4160 C   0  0  0  0  0  0  0  0  0  0  0  0
  160.9540  211.2090  151.2360 C   0  0  0  0  0  0  0  0  0  0  0  0
  161.1830  214.1680  149.0050 O   0  0  0  0  0  1  0  0  0  0  0  0
  160.8320  212.5410  150.7630 C   0  0  0  0  0  0  0  0  0  0  0  0
  161.9500  210.5710  149.1080 C   0  0  0  0  0  0  0  0  0  0  0  0
  160.2130  213.8410  151.7750 Cl  0  0  0  0  0  0  0  0  0  0  0  0
  161.8110  211.8810  148.6440 C   0  0  0  0  0  0  0  0  0  0  0  0
  162.2080  212.2040  147.3470 O   0  0  0  0  0  1  0  0  0  0  0  0
  161.2680  212.8640  149.4690 C   0  0  0  0  0  0  0  0  0  0  0  0
  162.4540  209.6000  148.2520 O   0  0  0  0  0  1  0  0  0  0  0  0
  160.8310  207.7170  149.1140 O   0  0  0  0  0  0  0  0  0  0  0  0
  161.2360  207.6980  150.3080 C   0  0  0  0  0  0  0  0  0  0  0  0
  161.7200  208.8990  150.9250 N   0  0  0  0  0  2  0  0  0  0  0  0
  161.5960  206.4140  152.4160 C   0  0  0  0  0  3  0  0  0  0  0  0
  161.2060  204.0210  152.5070 C   0  0  0  0  0  3  0  0  0  0  0  0
  161.2390  206.4300  151.0620 C   0  0  0  0  0  0  0  0  0  0  0  0
  161.5810  205.2130  153.1360 C   0  0  0  0  0  3  0  0  0  0  0  0
  160.8710  205.2290  150.4370 C   0  0  0  0  0  3  0  0  0  0  0  0
  160.8520  204.0270  151.1560 C   0  0  0  0  0  3  0  0  0  0  0  0
  160.4920  210.7740  152.6090 C   0  0  2  0  0  3  0  0  0  0  0  0
  157.5680  212.4610  155.2860 O   0  0  0  0  0  0  0  0  0  0  0  0
  157.0040  213.4580  153.1370 C   0  0  0  0  0  1  0  0  0  0  0  0
  159.5280  211.7600  153.2770 C   0  0  1  0  0  3  0  0  0  0  0  0
  157.1470  212.1680  153.9470 C   0  0  1  0  0  3  0  0  0  0  0  0
  158.1100  211.1830  153.2750 C   0  0  0  0  0  2  0  0  0  0  0  0
  160.0160  212.2030  154.6620 C   0  0  0  0  0  2  0  0  0  0  0  0
  159.2190  212.8420  156.8330 O   0  0  0  0  0  0  0  0  0  0  0  0
  158.9170  212.5420  155.6460 C   0  0  0  0  0  0  0  0  0  0  0  0
  161.5770  210.2050  153.5190 C   0  0  0  0  0  2  0  0  0  0  0  0
  161.4760  209.1870  155.7950 O   0  0  0  0  0  1  0  0  0  0  0  0
  160.9930  209.2400  154.4920 C   0  0  0  0  0  0  0  0  0  0  0  0
  160.0810  208.4530  154.1220 O   0  0  0  0  0  0  0  0  0  0  0  0
  1 13  1  0  0  0  0
  1  2  1  0  0  0  0
  2 20  1  0  0  0  0
  3  9  1  0  0  0  0
  4  2  2  0  0  0  0
  4  6  1  0  0  0  0
  5  1  2  0  0  0  0
  7  5  1  0  0  0  0
  7  9  2  0  0  0  0
  8  7  1  0  0  0  0
  9  4  1  0  0  0  0
 10  5  1  0  0  0  0
 11 12  2  0  0  0  0
 12 13  1  0  0  0  0
 12 16  1  0  0  0  0
 14 17  1  0  0  0  0
 15 17  2  0  0  0  0
 16 14  2  0  0  0  0
 18 16  1  0  0  0  0
 18 19  2  0  0  0  0
 19 15  1  0  0  0  0
 20 29  1  1  0  0  0
 21 28  1  0  0  0  0
 23 20  1  1  0  0  0
 23 26  1  0  0  0  0
 24 22  1  6  0  0  0
 24 21  1  0  0  0  0
 25 23  1  0  0  0  0
 25 24  1  0  0  0  0
 26 28  1  0  0  0  0
 28 27  2  0  0  0  0
 29 31  1  0  0  0  0
 31 30  1  0  0  0  0
 32 31  2  0  0  0  0
M  END
>  <MODEL>
5

>  <REMARK>
 VINA RESULT:      -4.3      2.494      7.027
  Name = 
  6 active torsions:
  status: ('A' for Active; 'I' for Inactive)
    1  A    between atoms: C_2  and  C_20
    2  A    between atoms: C_3  and  C_7
    3  A    between atoms: C_3  and  C_11
    4  A    between atoms: C_3  and  C_30
    5  A    between atoms: C_5  and  N_22
    6  A    between atoms: C_18  and  C_30
                            x       y       z     vdW  Elec       q    Type
                         _______ _______ _______ _____ _____    ______ ____

>  <TORSDO>
F 6

$$$$
=
 OpenBabel11072410293D

 32 34  0  0  1  0  0  0  0  0999 V2000
  160.2710  209.4480  152.9410 C   0  0  0  0  0  0  0  0  0  0  0  0
  161.0940  208.4030  152.4820 C   0  0  0  0  0  0  0  0  0  0  0  0
  161.6700  206.5820  155.6660 O   0  0  0  0  0  1  0  0  0  0  0  0
  161.5720  207.4350  153.4020 C   0  0  0  0  0  0  0  0  0  0  0  0
  159.8650  209.4780  154.2890 C   0  0  0  0  0  0  0  0  0  0  0  0
  162.7060  206.1740  152.9310 Cl  0  0  0  0  0  0  0  0  0  0  0  0
  160.3270  208.5110  155.1850 C   0  0  0  0  0  0  0  0  0  0  0  0
  159.9200  208.5500  156.5180 O   0  0  0  0  0  1  0  0  0  0  0  0
  161.1860  207.5030  154.7500 C   0  0  0  0  0  0  0  0  0  0  0  0
  158.9770  210.4460  154.7370 O   0  0  0  0  0  1  0  0  0  0  0  0
  160.4560  212.3530  153.2260 O   0  0  0  0  0  0  0  0  0  0  0  0
  159.8290  211.8690  152.2450 C   0  0  0  0  0  0  0  0  0  0  0  0
  159.8350  210.4550  152.0090 N   0  0  0  0  0  2  0  0  0  0  0  0
  159.7850  213.3650  150.2490 C   0  0  0  0  0  3  0  0  0  0  0  0
  157.7320  214.4450  149.5380 C   0  0  0  0  0  3  0  0  0  0  0  0
  159.1100  212.7670  151.3200 C   0  0  0  0  0  0  0  0  0  0  0  0
  159.0980  214.2030  149.3610 C   0  0  0  0  0  3  0  0  0  0  0  0
  157.7400  213.0210  151.4940 C   0  0  0  0  0  3  0  0  0  0  0  0
  157.0510  213.8550  150.6050 C   0  0  0  0  0  3  0  0  0  0  0  0
  161.4460  208.3900  151.0110 C   0  0  2  0  0  3  0  0  0  0  0  0
  160.9820  204.9430  148.4690 O   0  0  0  0  0  0  0  0  0  0  0  0
  161.1940  203.9760  150.6940 C   0  0  0  0  0  1  0  0  0  0  0  0
  161.5990  206.9820  150.4260 C   0  0  1  0  0  3  0  0  0  0  0  0
  160.3840  204.8890  149.7710 C   0  0  1  0  0  3  0  0  0  0  0  0
  160.2320  206.2960  150.3600 C   0  0  0  0  0  2  0  0  0  0  0  0
  162.3560  206.9850  149.0920 C   0  0  0  0  0  2  0  0  0  0  0  0
  162.4730  205.8530  146.9800 O   0  0  0  0  0  0  0  0  0  0  0  0
  161.9590  205.8850  148.1320 C   0  0  0  0  0  0  0  0  0  0  0  0
  162.5130  209.3940  150.5810 C   0  0  0  0  0  2  0  0  0  0  0  0
  161.5750  209.5440  148.2740 O   0  0  0  0  0  0  0  0  0  0  0  0
  162.0430  210.1900  149.4130 C   0  0  0  0  0  0  0  0  0  0  0  0
  162.0990  211.4480  149.4500 O   0  0  0  0  0  1  0  0  0  0  0  0
  1  5  1  0  0  0  0
  2  1  2  0  0  0  0
  2  4  1  0  0  0  0
  4  9  2  0  0  0  0
  5 10  1  0  0  0  0
  5  7  2  0  0  0  0
  6  4  1  0  0  0  0
  7  8  1  0  0  0  0
  9  7  1  0  0  0  0
  9  3  1  0  0  0  0
 12 11  2  0  0  0  0
 13 12  1  0  0  0  0
 13  1  1  0  0  0  0
 14 16  1  0  0  0  0
 15 19  2  0  0  0  0
 16 18  2  0  0  0  0
 16 12  1  0  0  0  0
 17 15  1  0  0  0  0
 17 14  2  0  0  0  0
 19 18  1  0  0  0  0
 20 29  1  1  0  0  0
 20  2  1  0  0  0  0
 21 24  1  0  0  0  0
 23 20  1  6  0  0  0
 24 25  1  0  0  0  0
 24 22  1  1  0  0  0
 25 23  1  0  0  0  0
 26 23  1  0  0  0  0
 27 28  2  0  0  0  0
 28 21  1  0  0  0  0
 28 26  1  0  0  0  0
 30 31  2  0  0  0  0
 31 32  1  0  0  0  0
 31 29  1  0  0  0  0
M  END
>  <MODEL>
6

>  <REMARK>
 VINA RESULT:      -3.5      2.062      3.615
  Name = 
  6 active torsions:
  status: ('A' for Active; 'I' for Inactive)
    1  A    between atoms: C_2  and  C_20
    2  A    between atoms: C_3  and  C_7
    3  A    between atoms: C_3  and  C_11
    4  A    between atoms: C_3  and  C_30
    5  A    between atoms: C_5  and  N_22
    6  A    between atoms: C_18  and  C_30
                            x       y       z     vdW  Elec       q    Type
                         _______ _______ _______ _____ _____    ______ ____

>  <TORSDO>
F 6

$$$$
=
 OpenBabel11072410293D

 32 34  0  0  1  0  0  0  0  0999 V2000
  160.0770  211.8910  152.2230 C   0  0  0  0  0  0  0  0  0  0  0  0
  160.8550  210.7440  151.9870 C   0  0  0  0  0  0  0  0  0  0  0  0
  162.2010  211.5480  148.6220 O   0  0  0  0  0  1  0  0  0  0  0  0
  161.5710  210.6230  150.7690 C   0  0  0  0  0  0  0  0  0  0  0  0
  160.0800  212.9420  151.2860 C   0  0  0  0  0  0  0  0  0  0  0  0
  162.4620  209.1650  150.3460 Cl  0  0  0  0  0  0  0  0  0  0  0  0
  160.8000  212.8220  150.0960 C   0  0  0  0  0  0  0  0  0  0  0  0
  160.7950  213.8680  149.1740 O   0  0  0  0  0  1  0  0  0  0  0  0
  161.5310  211.6660  149.8300 C   0  0  0  0  0  0  0  0  0  0  0  0
  159.3940  214.1220  151.5460 O   0  0  0  0  0  1  0  0  0  0  0  0
  157.1680  211.9770  152.5090 O   0  0  0  0  0  0  0  0  0  0  0  0
  157.8910  212.1480  153.5270 C   0  0  0  0  0  0  0  0  0  0  0  0
  159.3120  211.9800  153.4400 N   0  0  0  0  0  2  0  0  0  0  0  0
  157.5550  213.7170  155.4360 C   0  0  0  0  0  3  0  0  0  0  0  0
  156.0530  213.1680  157.2600 C   0  0  0  0  0  3  0  0  0  0  0  0
  157.2680  212.4940  154.8190 C   0  0  0  0  0  0  0  0  0  0  0  0
  156.9500  214.0530  156.6540 C   0  0  0  0  0  3  0  0  0  0  0  0
  156.3720  211.6090  155.4380 C   0  0  0  0  0  3  0  0  0  0  0  0
  155.7630  211.9440  156.6540 C   0  0  0  0  0  3  0  0  0  0  0  0
  160.8620  209.6750  153.0580 C   0  0  2  0  0  3  0  0  0  0  0  0
  161.7190  210.0850  157.2600 O   0  0  0  0  0  0  0  0  0  0  0  0
  159.4720  210.9980  157.0530 C   0  0  0  0  0  1  0  0  0  0  0  0
  160.9160  210.2310  154.4850 C   0  0  1  0  0  3  0  0  0  0  0  0
  160.3700  209.7710  156.8880 C   0  0  1  0  0  3  0  0  0  0  0  0
  160.3130  209.2170  155.4600 C   0  0  0  0  0  2  0  0  0  0  0  0
  162.3230  210.7030  154.8730 C   0  0  0  0  0  2  0  0  0  0  0  0
  163.8120  210.8730  156.7460 O   0  0  0  0  0  0  0  0  0  0  0  0
  162.6520  210.5820  156.3440 C   0  0  0  0  0  0  0  0  0  0  0  0
  161.7720  208.4790  152.7890 C   0  0  0  0  0  2  0  0  0  0  0  0
  160.7370  206.4910  153.8820 O   0  0  0  0  0  1  0  0  0  0  0  0
  160.9800  207.2200  152.7250 C   0  0  0  0  0  0  0  0  0  0  0  0
  160.5550  206.8040  151.6130 O   0  0  0  0  0  0  0  0  0  0  0  0
  1 13  1  0  0  0  0
  2  1  1  0  0  0  0
  2 20  1  0  0  0  0
  3  9  1  0  0  0  0
  4  2  2  0  0  0  0
  5 10  1  0  0  0  0
  5  1  2  0  0  0  0
  6  4  1  0  0  0  0
  7  5  1  0  0  0  0
  8  7  1  0  0  0  0
  9  7  2  0  0  0  0
  9  4  1  0  0  0  0
 11 12  2  0  0  0  0
 12 16  1  0  0  0  0
 13 12  1  0  0  0  0
 14 17  1  0  0  0  0
 16 14  2  0  0  0  0
 16 18  1  0  0  0  0
 17 15  2  0  0  0  0
 18 19  2  0  0  0  0
 19 15  1  0  0  0  0
 20 29  1  6  0  0  0
 23 20  1  6  0  0  0
 23 26  1  0  0  0  0
 23 25  1  0  0  0  0
 24 22  1  6  0  0  0
 24 21  1  0  0  0  0
 25 24  1  0  0  0  0
 26 28  1  0  0  0  0
 28 27  2  0  0  0  0
 28 21  1  0  0  0  0
 31 29  1  0  0  0  0
 31 30  1  0  0  0  0
 32 31  2  0  0  0  0
M  END
>  <MODEL>
7

>  <REMARK>
 VINA RESULT:      -3.5      2.374      5.509
  Name = 
  6 active torsions:
  status: ('A' for Active; 'I' for Inactive)
    1  A    between atoms: C_2  and  C_20
    2  A    between atoms: C_3  and  C_7
    3  A    between atoms: C_3  and  C_11
    4  A    between atoms: C_3  and  C_30
    5  A    between atoms: C_5  and  N_22
    6  A    between atoms: C_18  and  C_30
                            x       y       z     vdW  Elec       q    Type
                         _______ _______ _______ _____ _____    ______ ____

>  <TORSDO>
F 6

$$$$
=
 OpenBabel11072410293D

 32 34  0  0  1  0  0  0  0  0999 V2000
  160.6130  210.6200  154.1630 C   0  0  0  0  0  0  0  0  0  0  0  0
  159.7420  211.6910  153.8940 C   0  0  0  0  0  0  0  0  0  0  0  0
  160.4380  213.8490  156.8340 O   0  0  0  0  0  1  0  0  0  0  0  0
  159.6780  212.7820  154.7980 C   0  0  0  0  0  0  0  0  0  0  0  0
  161.4690  210.6770  155.2800 C   0  0  0  0  0  0  0  0  0  0  0  0
  158.5240  214.0970  154.5990 Cl  0  0  0  0  0  0  0  0  0  0  0  0
  161.4100  211.7630  156.1560 C   0  0  0  0  0  0  0  0  0  0  0  0
  162.2610  211.8100  157.2600 O   0  0  0  0  0  1  0  0  0  0  0  0
  160.5120  212.8040  155.9260 C   0  0  0  0  0  0  0  0  0  0  0  0
  162.4010  209.6740  155.5070 O   0  0  0  0  0  1  0  0  0  0  0  0
  162.6310  209.9640  152.1490 O   0  0  0  0  0  0  0  0  0  0  0  0
  161.5750  209.2770  152.2090 C   0  0  0  0  0  0  0  0  0  0  0  0
  160.6320  209.4920  153.2680 N   0  0  0  0  0  2  0  0  0  0  0  0
  161.5050  208.5000  149.8400 C   0  0  0  0  0  3  0  0  0  0  0  0
  160.8840  206.2210  149.2860 C   0  0  0  0  0  3  0  0  0  0  0  0
  161.3240  208.2290  151.2010 C   0  0  0  0  0  0  0  0  0  0  0  0
  161.2840  207.5000  148.8850 C   0  0  0  0  0  3  0  0  0  0  0  0
  160.9160  206.9450  151.5950 C   0  0  0  0  0  3  0  0  0  0  0  0
  160.6980  205.9420  150.6410 C   0  0  0  0  0  3  0  0  0  0  0  0
  158.8920  211.6000  152.6460 C   0  0  2  0  0  3  0  0  0  0  0  0
  159.1750  213.7700  148.9350 O   0  0  0  0  0  0  0  0  0  0  0  0
  161.1780  214.4530  150.1400 C   0  0  0  0  0  1  0  0  0  0  0  0
  159.1730  212.7080  151.6260 C   0  0  1  0  0  3  0  0  0  0  0  0
  160.3970  213.2950  149.5180 C   0  0  1  0  0  3  0  0  0  0  0  0
  160.1180  212.1870  150.5400 C   0  0  0  0  0  2  0  0  0  0  0  0
  157.8850  213.3360  151.0780 C   0  0  0  0  0  2  0  0  0  0  0  0
  156.9530  214.3200  149.0980 O   0  0  0  0  0  0  0  0  0  0  0  0
  157.9830  213.8560  149.6610 C   0  0  0  0  0  0  0  0  0  0  0  0
  157.4160  211.2850  152.8770 C   0  0  0  0  0  2  0  0  0  0  0  0
  157.6100  210.4210  155.2080 O   0  0  0  0  0  1  0  0  0  0  0  0
  157.0840  211.3570  154.3270 C   0  0  0  0  0  0  0  0  0  0  0  0
  156.3030  212.2530  154.7460 O   0  0  0  0  0  0  0  0  0  0  0  0
  1  5  1  0  0  0  0
  2  1  2  0  0  0  0
  2  4  1  0  0  0  0
  4  9  2  0  0  0  0
  5 10  1  0  0  0  0
  5  7  2  0  0  0  0
  6  4  1  0  0  0  0
  7  8  1  0  0  0  0
  9  7  1  0  0  0  0
  9  3  1  0  0  0  0
 11 12  2  0  0  0  0
 12 13  1  0  0  0  0
 13  1  1  0  0  0  0
 14 16  1  0  0  0  0
 15 19  2  0  0  0  0
 16 18  2  0  0  0  0
 16 12  1  0  0  0  0
 17 15  1  0  0  0  0
 17 14  2  0  0  0  0
 19 18  1  0  0  0  0
 20 29  1  1  0  0  0
 20  2  1  0  0  0  0
 21 24  1  0  0  0  0
 21 28  1  0  0  0  0
 23 20  1  1  0  0  0
 24 22  1  1  0  0  0
 24 25  1  0  0  0  0
 25 23  1  0  0  0  0
 26 23  1  0  0  0  0
 27 28  2  0  0  0  0
 28 26  1  0  0  0  0
 29 31  1  0  0  0  0
 31 32  2  0  0  0  0
 31 30  1  0  0  0  0
M  END
>  <MODEL>
8

>  <REMARK>
 VINA RESULT:      -3.4      2.252      6.176
  Name = 
  6 active torsions:
  status: ('A' for Active; 'I' for Inactive)
    1  A    between atoms: C_2  and  C_20
    2  A    between atoms: C_3  and  C_7
    3  A    between atoms: C_3  and  C_11
    4  A    between atoms: C_3  and  C_30
    5  A    between atoms: C_5  and  N_22
    6  A    between atoms: C_18  and  C_30
                            x       y       z     vdW  Elec       q    Type
                         _______ _______ _______ _____ _____    ______ ____

>  <TORSDO>
F 6

$$$$
=
 OpenBabel11072410293D

 32 34  0  0  1  0  0  0  0  0999 V2000
  160.9530  210.5940  150.9330 C   0  0  0  0  0  0  0  0  0  0  0  0
  160.4100  211.6800  151.6420 C   0  0  0  0  0  0  0  0  0  0  0  0
  161.2150  214.4530  149.3090 O   0  0  0  0  0  1  0  0  0  0  0  0
  160.5010  212.9870  151.0980 C   0  0  0  0  0  0  0  0  0  0  0  0
  161.5090  210.8020  149.6550 C   0  0  0  0  0  0  0  0  0  0  0  0
  159.9600  214.4100  151.9820 Cl  0  0  0  0  0  0  0  0  0  0  0  0
  161.5810  212.0900  149.1190 C   0  0  0  0  0  0  0  0  0  0  0  0
  162.1340  212.2850  147.8550 O   0  0  0  0  0  1  0  0  0  0  0  0
  161.0920  213.1780  149.8400 C   0  0  0  0  0  0  0  0  0  0  0  0
  161.9640  209.7280  148.9000 O   0  0  0  0  0  1  0  0  0  0  0  0
  162.9410  208.4590  150.7170 O   0  0  0  0  0  0  0  0  0  0  0  0
  161.8390  208.2200  151.2820 C   0  0  0  0  0  0  0  0  0  0  0  0
  160.9030  209.2800  151.5180 N   0  0  0  0  0  2  0  0  0  0  0  0
  161.5190  206.5330  153.0910 C   0  0  0  0  0  3  0  0  0  0  0  0
  160.8940  204.2460  152.5760 C   0  0  0  0  0  3  0  0  0  0  0  0
  161.5270  206.8480  151.7270 C   0  0  0  0  0  0  0  0  0  0  0  0
  161.2050  205.2360  153.5140 C   0  0  0  0  0  3  0  0  0  0  0  0
  161.2200  205.8480  150.7920 C   0  0  0  0  0  3  0  0  0  0  0  0
  160.9020  204.5500  151.2130 C   0  0  0  0  0  3  0  0  0  0  0  0
  159.7710  211.3860  152.9820 C   0  0  2  0  0  3  0  0  0  0  0  0
  161.3470  209.6590  156.6000 O   0  0  0  0  0  0  0  0  0  0  0  0
  163.2950  210.7090  155.5830 C   0  0  0  0  0  1  0  0  0  0  0  0
  160.7090  210.6930  153.9750 C   0  0  1  0  0  3  0  0  0  0  0  0
  161.8970  210.9120  156.1710 C   0  0  1  0  0  3  0  0  0  0  0  0
  160.9610  211.6070  155.1760 C   0  0  0  0  0  2  0  0  0  0  0  0
  160.2210  209.2890  154.3550 C   0  0  0  0  0  2  0  0  0  0  0  0
  160.1750  207.7320  156.1800 O   0  0  0  0  0  0  0  0  0  0  0  0
  160.5980  208.8400  155.7500 C   0  0  0  0  0  0  0  0  0  0  0  0
  158.3520  210.8240  152.9250 C   0  0  0  0  0  2  0  0  0  0  0  0
  157.1120  212.9190  153.4710 O   0  0  0  0  0  0  0  0  0  0  0  0
  157.4410  211.6100  153.8030 C   0  0  0  0  0  0  0  0  0  0  0  0
  156.9940  211.0940  154.8620 O   0  0  0  0  0  1  0  0  0  0  0  0
  1 13  1  0  0  0  0
  1  2  1  0  0  0  0
  2 20  1  0  0  0  0
  3  9  1  0  0  0  0
  4  2  2  0  0  0  0
  4  6  1  0  0  0  0
  5  1  2  0  0  0  0
  7  5  1  0  0  0  0
  7  9  2  0  0  0  0
  8  7  1  0  0  0  0
  9  4  1  0  0  0  0
 10  5  1  0  0  0  0
 11 12  2  0  0  0  0
 12 13  1  0  0  0  0
 12 16  1  0  0  0  0
 14 17  1  0  0  0  0
 15 17  2  0  0  0  0
 16 14  2  0  0  0  0
 18 19  2  0  0  0  0
 18 16  1  0  0  0  0
 19 15  1  0  0  0  0
 20 29  1  6  0  0  0
 23 20  1  6  0  0  0
 23 26  1  0  0  0  0
 23 25  1  0  0  0  0
 24 22  1  6  0  0  0
 24 21  1  0  0  0  0
 25 24  1  0  0  0  0
 26 28  1  0  0  0  0
 28 27  2  0  0  0  0
 28 21  1  0  0  0  0
 29 31  1  0  0  0  0
 30 31  2  0  0  0  0
 31 32  1  0  0  0  0
M  END
>  <MODEL>
9

>  <REMARK>
 VINA RESULT:      -3.4      2.539      6.545
  Name = 
  6 active torsions:
  status: ('A' for Active; 'I' for Inactive)
    1  A    between atoms: C_2  and  C_20
    2  A    between atoms: C_3  and  C_7
    3  A    between atoms: C_3  and  C_11
    4  A    between atoms: C_3  and  C_30
    5  A    between atoms: C_5  and  N_22
    6  A    between atoms: C_18  and  C_30
                            x       y       z     vdW  Elec       q    Type
                         _______ _______ _______ _____ _____    ______ ____

>  <TORSDO>
F 6

$$$$
