=
 OpenBabel11072411293D

 35 37  0  0  1  0  0  0  0  0999 V2000
  161.8270  209.2190  150.8010 C   0  0  1  0  0  3  0  0  0  0  0  0
  160.2590  210.7640  152.1020 C   0  0  0  0  0  3  0  0  0  0  0  0
  161.5840  210.4700  153.9860 C   0  0  0  0  0  0  0  0  0  0  0  0
  160.8880  209.3560  152.0230 C   0  0  2  0  0  3  0  0  0  0  0  0
  162.1890  210.7580  155.0530 O   0  0  0  0  0  0  0  0  0  0  0  0
  160.8000  211.4060  153.2850 N   0  0  0  0  0  0  0  0  0  0  0  0
  161.6440  209.1440  153.3410 C   0  0  2  0  0  3  0  0  0  0  0  0
  160.9050  208.1220  154.1860 C   0  0  0  0  0  1  0  0  0  0  0  0
  162.7340  206.8760  151.2090 C   0  0  0  0  0  2  0  0  0  0  0  0
  161.9480  207.7670  150.2560 C   0  0  2  0  0  0  0  0  0  0  0  0
  160.7870  205.6210  150.4280 C   0  0  1  0  0  3  0  0  0  0  0  0
  162.1000  205.4970  151.1760 C   0  0  0  0  0  2  0  0  0  0  0  0
  162.6230  207.7440  148.8890 C   0  0  0  0  0  1  0  0  0  0  0  0
  160.5860  207.1030  150.1640 C   0  0  0  0  0  2  0  0  0  0  0  0
  160.8880  204.9000  149.1640 N   0  0  0  0  0  2  0  0  0  0  0  0
  160.9090  203.4700  149.0490 C   0  0  0  0  0  0  0  0  0  0  0  0
  160.5240  202.7020  150.0680 C   0  0  0  0  0  2  0  0  0  0  0  0
  160.9770  201.5920  147.5380 O   0  0  0  0  0  1  0  0  0  0  0  0
  161.3300  202.8720  147.8150 N   0  0  0  0  0  0  0  0  0  0  0  0
  162.1090  203.5890  146.8910 N   0  0  0  0  0  2  0  0  0  0  0  0
  161.3790  203.6290  145.6300 C   0  0  0  0  0  2  0  0  0  0  0  0
  162.7580  205.5550  145.4410 O   0  0  0  0  0  1  0  0  0  0  0  0
  161.6170  204.9510  144.9110 C   0  0  2  0  0  3  0  0  0  0  0  0
  160.2630  206.4440  146.1430 O   0  0  0  0  0  0  0  0  0  0  0  0
  160.4480  205.8690  145.0830 C   0  0  0  0  0  3  0  0  0  0  0  0
  161.4130  210.1890  149.6900 C   0  0  0  0  0  2  0  0  0  0  0  0
  162.5530  211.1540  149.4200 C   0  0  0  0  0  2  0  0  0  0  0  0
  160.8870  214.0970  148.4450 C   0  0  1  0  0  3  0  0  0  0  0  0
  161.0040  211.5440  147.5640 N   0  0  0  0  0  2  0  0  0  0  0  0
  162.2830  213.4590  148.5060 C   0  0  0  0  0  2  0  0  0  0  0  0
  162.2760  211.9600  148.1620 C   0  0  1  0  0  3  0  0  0  0  0  0
  160.6780  212.4700  146.5570 N   0  0  0  0  0  2  0  0  0  0  0  0
  160.1060  213.6610  147.1940 C   0  0  0  0  0  2  0  0  0  0  0  0
  160.0810  213.7670  149.6940 C   0  0  0  0  0  2  0  0  0  0  0  0
  158.5950  213.7780  149.3860 C   0  0  0  0  0  1  0  0  0  0  0  0
  1 26  1  6  0  0  0
  2  6  2  0  0  0  0
  3  5  2  0  0  0  0
  4  1  1  6  0  0  0
  4  2  1  0  0  0  0
  4  7  1  0  0  0  0
  6  3  1  0  0  0  0
  7  3  1  0  0  0  0
  7  8  1  1  0  0  0
 10 13  1  6  0  0  0
 10  1  1  0  0  0  0
 10  9  1  0  0  0  0
 11 15  1  6  0  0  0
 11 12  1  0  0  0  0
 12  9  1  0  0  0  0
 14 10  1  0  0  0  0
 14 11  1  0  0  0  0
 16 15  1  0  0  0  0
 16 17  2  0  0  0  0
 18 19  1  0  0  0  0
 19 16  1  0  0  0  0
 20 19  1  0  0  0  0
 21 20  1  0  0  0  0
 23 25  1  0  0  0  0
 23 22  1  1  0  0  0
 23 21  1  0  0  0  0
 25 24  2  0  0  0  0
 27 26  1  0  0  0  0
 28 30  1  0  0  0  0
 28 34  1  1  0  0  0
 29 31  1  0  0  0  0
 31 30  1  0  0  0  0
 31 27  1  1  0  0  0
 32 33  1  0  0  0  0
 32 29  1  0  0  0  0
 33 28  1  0  0  0  0
 35 34  1  0  0  0  0
M  END
>  <MODEL>
1

>  <REMARK>
 VINA RESULT:      -6.6      0.000      0.000
  Name = 
  13 active torsions:
  status: ('A' for Active; 'I' for Inactive)
    1  A    between atoms: C_4  and  N_24
    2  A    between atoms: C_4  and  C_32
    3  A    between atoms: C_5  and  N_8
    4  A    between atoms: C_5  and  N_10
    5  A    between atoms: C_6  and  C_12
    6  A    between atoms: N_8  and  C_21
    7  A    between atoms: C_9  and  C_17
    8  A    between atoms: C_9  and  C_26
    9  A    between atoms: N_10  and  N_24
   10  A    between atoms: C_13  and  C_28
   11  A    between atoms: C_17  and  C_28
   12  A    between atoms: C_20  and  C_28
   13  A    between atoms: C_30  and  C_32
                            x       y       z     vdW  Elec       q    Type
                         _______ _______ _______ _____ _____    ______ ____

>  <TORSDO>
F 13

$$$$
=
 OpenBabel11072411293D

 35 37  0  0  1  0  0  0  0  0999 V2000
  161.2930  207.8100  151.4410 C   0  0  1  0  0  3  0  0  0  0  0  0
  162.5880  210.0050  151.2250 C   0  0  0  0  0  3  0  0  0  0  0  0
  161.6760  210.2980  149.1110 C   0  0  0  0  0  0  0  0  0  0  0  0
  162.3360  208.6060  150.6210 C   0  0  2  0  0  3  0  0  0  0  0  0
  161.1810  210.8950  148.1170 O   0  0  0  0  0  0  0  0  0  0  0  0
  162.0810  210.9770  150.2760 N   0  0  0  0  0  0  0  0  0  0  0  0
  161.8630  208.8360  149.1790 C   0  0  2  0  0  3  0  0  0  0  0  0
  162.9540  208.4070  148.2160 C   0  0  0  0  0  1  0  0  0  0  0  0
  161.0220  205.6360  152.7360 C   0  0  0  0  0  2  0  0  0  0  0  0
  161.5380  206.2740  151.4530 C   0  0  2  0  0  0  0  0  0  0  0  0
  160.3690  204.2070  150.8620 C   0  0  1  0  0  3  0  0  0  0  0  0
  160.4490  204.2770  152.3740 C   0  0  0  0  0  2  0  0  0  0  0  0
  163.0190  205.9480  151.3010 C   0  0  0  0  0  1  0  0  0  0  0  0
  160.7490  205.5870  150.3520 C   0  0  0  0  0  2  0  0  0  0  0  0
  161.3260  203.2180  150.3780 N   0  0  0  0  0  2  0  0  0  0  0  0
  160.9920  202.1330  149.5010 C   0  0  0  0  0  0  0  0  0  0  0  0
  160.5620  200.9710  149.9930 C   0  0  0  0  0  2  0  0  0  0  0  0
  160.7900  201.2960  147.2480 O   0  0  0  0  0  1  0  0  0  0  0  0
  161.1050  202.3170  148.0830 N   0  0  0  0  0  0  0  0  0  0  0  0
  161.5460  203.5380  147.5440 N   0  0  0  0  0  2  0  0  0  0  0  0
  161.4410  203.4470  146.0930 C   0  0  0  0  0  2  0  0  0  0  0  0
  162.5830  205.5060  146.4140 O   0  0  0  0  0  1  0  0  0  0  0  0
  162.1420  204.6240  145.4270 C   0  0  2  0  0  3  0  0  0  0  0  0
  160.4010  206.1440  144.9380 O   0  0  0  0  0  0  0  0  0  0  0  0
  161.2130  205.3440  144.5020 C   0  0  0  0  0  3  0  0  0  0  0  0
  161.1940  208.3600  152.8670 C   0  0  0  0  0  2  0  0  0  0  0  0
  160.1130  209.4240  152.9170 C   0  0  0  0  0  2  0  0  0  0  0  0
  160.5570  209.3350  156.4070 C   0  0  1  0  0  3  0  0  0  0  0  0
  159.0910  210.7970  154.6680 N   0  0  0  0  0  2  0  0  0  0  0  0
  161.2820  209.7000  155.1030 C   0  0  0  0  0  2  0  0  0  0  0  0
  160.3640  210.3790  154.0730 C   0  0  1  0  0  3  0  0  0  0  0  0
  159.3790  211.4740  155.8670 N   0  0  0  0  0  2  0  0  0  0  0  0
  159.6540  210.4760  156.9060 C   0  0  0  0  0  2  0  0  0  0  0  0
  159.7330  208.0660  156.2370 C   0  0  0  0  0  2  0  0  0  0  0  0
  160.2820  206.9550  157.1140 C   0  0  0  0  0  1  0  0  0  0  0  0
  1 10  1  0  0  0  0
  1 26  1  1  0  0  0
  3  7  1  0  0  0  0
  3  6  1  0  0  0  0
  4  2  1  0  0  0  0
  4  1  1  1  0  0  0
  5  3  2  0  0  0  0
  6  2  2  0  0  0  0
  7  8  1  6  0  0  0
  7  4  1  0  0  0  0
 10 13  1  6  0  0  0
 10  9  1  0  0  0  0
 11 15  1  6  0  0  0
 11 12  1  0  0  0  0
 12  9  1  0  0  0  0
 14 11  1  0  0  0  0
 14 10  1  0  0  0  0
 16 17  2  0  0  0  0
 16 15  1  0  0  0  0
 18 19  1  0  0  0  0
 19 16  1  0  0  0  0
 20 19  1  0  0  0  0
 21 20  1  0  0  0  0
 23 21  1  0  0  0  0
 23 22  1  1  0  0  0
 25 24  2  0  0  0  0
 25 23  1  0  0  0  0
 26 27  1  0  0  0  0
 28 34  1  6  0  0  0
 28 33  1  0  0  0  0
 29 32  1  0  0  0  0
 30 28  1  0  0  0  0
 31 27  1  6  0  0  0
 31 29  1  0  0  0  0
 31 30  1  0  0  0  0
 32 33  1  0  0  0  0
 34 35  1  0  0  0  0
M  END
>  <MODEL>
2

>  <REMARK>
 VINA RESULT:      -6.5      2.366      4.942
  Name = 
  13 active torsions:
  status: ('A' for Active; 'I' for Inactive)
    1  A    between atoms: C_4  and  N_24
    2  A    between atoms: C_4  and  C_32
    3  A    between atoms: C_5  and  N_8
    4  A    between atoms: C_5  and  N_10
    5  A    between atoms: C_6  and  C_12
    6  A    between atoms: N_8  and  C_21
    7  A    between atoms: C_9  and  C_17
    8  A    between atoms: C_9  and  C_26
    9  A    between atoms: N_10  and  N_24
   10  A    between atoms: C_13  and  C_28
   11  A    between atoms: C_17  and  C_28
   12  A    between atoms: C_20  and  C_28
   13  A    between atoms: C_30  and  C_32
                            x       y       z     vdW  Elec       q    Type
                         _______ _______ _______ _____ _____    ______ ____

>  <TORSDO>
F 13

$$$$
=
 OpenBabel11072411293D

 35 37  0  0  1  0  0  0  0  0999 V2000
  160.7270  206.9080  152.7760 C   0  0  1  0  0  3  0  0  0  0  0  0
  161.2280  207.9010  150.4730 C   0  0  0  0  0  3  0  0  0  0  0  0
  162.3370  209.6590  151.5070 C   0  0  0  0  0  0  0  0  0  0  0  0
  160.5640  208.1350  151.8480 C   0  0  2  0  0  3  0  0  0  0  0  0
  163.2090  210.5480  151.6970 O   0  0  0  0  0  0  0  0  0  0  0  0
  162.3510  208.8140  150.3810 N   0  0  0  0  0  0  0  0  0  0  0  0
  161.2290  209.3840  152.4430 C   0  0  2  0  0  3  0  0  0  0  0  0
  160.2410  210.5350  152.4300 C   0  0  0  0  0  1  0  0  0  0  0  0
  161.1180  204.3970  152.9290 C   0  0  0  0  0  2  0  0  0  0  0  0
  161.2580  205.6360  152.0540 C   0  0  2  0  0  0  0  0  0  0  0  0
  160.4170  203.8080  150.6620 C   0  0  1  0  0  3  0  0  0  0  0  0
  160.7570  203.2330  152.0230 C   0  0  0  0  0  2  0  0  0  0  0  0
  162.7210  205.7950  151.6560 C   0  0  0  0  0  1  0  0  0  0  0  0
  160.4260  205.3190  150.8240 C   0  0  0  0  0  2  0  0  0  0  0  0
  161.4390  203.4040  149.7030 N   0  0  0  0  0  2  0  0  0  0  0  0
  161.1870  202.5940  148.5460 C   0  0  0  0  0  0  0  0  0  0  0  0
  160.5790  201.4130  148.6650 C   0  0  0  0  0  2  0  0  0  0  0  0
  161.0100  202.5430  146.1420 O   0  0  0  0  0  1  0  0  0  0  0  0
  161.5760  203.0760  147.2530 N   0  0  0  0  0  0  0  0  0  0  0  0
  162.5410  204.0890  147.1180 N   0  0  0  0  0  2  0  0  0  0  0  0
  162.6650  204.3980  145.6990 C   0  0  0  0  0  2  0  0  0  0  0  0
  162.0460  206.5000  146.6210 O   0  0  0  0  0  1  0  0  0  0  0  0
  162.1850  205.8160  145.4120 C   0  0  2  0  0  3  0  0  0  0  0  0
  159.8590  206.1940  145.2590 O   0  0  0  0  0  0  0  0  0  0  0  0
  160.8690  205.7990  144.7010 C   0  0  0  0  0  3  0  0  0  0  0  0
  161.6010  207.2560  153.9840 C   0  0  0  0  0  2  0  0  0  0  0  0
  160.7560  207.2010  155.2430 C   0  0  0  0  0  2  0  0  0  0  0  0
  159.9040  210.1050  157.0400 C   0  0  1  0  0  3  0  0  0  0  0  0
  162.0720  209.2160  155.6920 N   0  0  0  0  0  2  0  0  0  0  0  0
  160.2100  208.6110  157.2270 C   0  0  0  0  0  2  0  0  0  0  0  0
  161.3400  208.1080  156.3130 C   0  0  1  0  0  3  0  0  0  0  0  0
  162.3810  210.1470  156.6990 N   0  0  0  0  0  2  0  0  0  0  0  0
  161.1840  210.9520  156.9660 C   0  0  0  0  0  2  0  0  0  0  0  0
  159.0610  210.3370  155.7930 C   0  0  0  0  0  2  0  0  0  0  0  0
  157.9780  211.3640  156.0680 C   0  0  0  0  0  1  0  0  0  0  0  0
  1 26  1  1  0  0  0
  2  4  1  0  0  0  0
  3  5  2  0  0  0  0
  3  7  1  0  0  0  0
  4  7  1  0  0  0  0
  4  1  1  1  0  0  0
  6  2  2  0  0  0  0
  6  3  1  0  0  0  0
  7  8  1  6  0  0  0
 10 13  1  6  0  0  0
 10  1  1  0  0  0  0
 10  9  1  0  0  0  0
 11 15  1  6  0  0  0
 11 14  1  0  0  0  0
 11 12  1  0  0  0  0
 12  9  1  0  0  0  0
 14 10  1  0  0  0  0
 16 17  2  0  0  0  0
 16 15  1  0  0  0  0
 18 19  1  0  0  0  0
 19 16  1  0  0  0  0
 20 19  1  0  0  0  0
 21 20  1  0  0  0  0
 23 21  1  0  0  0  0
 23 22  1  1  0  0  0
 25 24  2  0  0  0  0
 25 23  1  0  0  0  0
 26 27  1  0  0  0  0
 28 34  1  6  0  0  0
 28 30  1  0  0  0  0
 29 31  1  0  0  0  0
 29 32  1  0  0  0  0
 31 27  1  6  0  0  0
 31 30  1  0  0  0  0
 32 33  1  0  0  0  0
 33 28  1  0  0  0  0
 34 35  1  0  0  0  0
M  END
>  <MODEL>
3

>  <REMARK>
 VINA RESULT:      -6.3      2.742      5.020
  Name = 
  13 active torsions:
  status: ('A' for Active; 'I' for Inactive)
    1  A    between atoms: C_4  and  N_24
    2  A    between atoms: C_4  and  C_32
    3  A    between atoms: C_5  and  N_8
    4  A    between atoms: C_5  and  N_10
    5  A    between atoms: C_6  and  C_12
    6  A    between atoms: N_8  and  C_21
    7  A    between atoms: C_9  and  C_17
    8  A    between atoms: C_9  and  C_26
    9  A    between atoms: N_10  and  N_24
   10  A    between atoms: C_13  and  C_28
   11  A    between atoms: C_17  and  C_28
   12  A    between atoms: C_20  and  C_28
   13  A    between atoms: C_30  and  C_32
                            x       y       z     vdW  Elec       q    Type
                         _______ _______ _______ _____ _____    ______ ____

>  <TORSDO>
F 13

$$$$
=
 OpenBabel11072411293D

 35 37  0  0  1  0  0  0  0  0999 V2000
  161.2060  205.5480  150.0100 C   0  0  1  0  0  3  0  0  0  0  0  0
  161.9390  203.5380  148.6100 C   0  0  0  0  0  3  0  0  0  0  0  0
  160.1800  202.3140  149.5020 C   0  0  0  0  0  0  0  0  0  0  0  0
  161.6670  204.0710  150.0330 C   0  0  2  0  0  3  0  0  0  0  0  0
  159.2260  201.4920  149.5500 O   0  0  0  0  0  0  0  0  0  0  0  0
  160.9360  202.5270  148.3340 N   0  0  0  0  0  0  0  0  0  0  0  0
  160.5960  203.1550  150.6410 C   0  0  2  0  0  3  0  0  0  0  0  0
  161.2240  202.2940  151.7210 C   0  0  0  0  0  1  0  0  0  0  0  0
  161.9550  207.8300  150.8520 C   0  0  0  0  0  2  0  0  0  0  0  0
  161.6890  206.3800  151.2320 C   0  0  2  0  0  0  0  0  0  0  0  0
  160.7590  207.8120  152.9840 C   0  0  1  0  0  3  0  0  0  0  0  0
  161.5250  208.6980  152.0210 C   0  0  0  0  0  2  0  0  0  0  0  0
  162.9580  205.7890  151.8370 C   0  0  0  0  0  1  0  0  0  0  0  0
  160.6090  206.4660  152.2960 C   0  0  0  0  0  2  0  0  0  0  0  0
  161.5320  207.6600  154.2110 N   0  0  0  0  0  2  0  0  0  0  0  0
  161.1200  208.1580  155.4930 C   0  0  0  0  0  0  0  0  0  0  0  0
  160.1280  207.5700  156.1610 C   0  0  0  0  0  2  0  0  0  0  0  0
  162.4190  209.1570  157.2610 O   0  0  0  0  0  1  0  0  0  0  0  0
  161.8030  209.2840  156.0600 N   0  0  0  0  0  0  0  0  0  0  0  0
  161.8360  210.5220  155.3940 N   0  0  0  0  0  2  0  0  0  0  0  0
  160.9610  211.4380  156.1140 C   0  0  0  0  0  2  0  0  0  0  0  0
  158.7250  210.7950  155.6280 O   0  0  0  0  0  1  0  0  0  0  0  0
  159.7050  211.7340  155.3030 C   0  0  2  0  0  3  0  0  0  0  0  0
  159.2260  211.0770  153.0860 O   0  0  0  0  0  0  0  0  0  0  0  0
  159.9890  211.6620  153.8360 C   0  0  0  0  0  3  0  0  0  0  0  0
  161.6110  206.2200  148.6950 C   0  0  0  0  0  2  0  0  0  0  0  0
  160.4270  206.2130  147.7450 C   0  0  0  0  0  2  0  0  0  0  0  0
  160.4810  204.5590  144.6390 C   0  0  1  0  0  3  0  0  0  0  0  0
  162.2550  205.9430  146.1380 N   0  0  0  0  0  2  0  0  0  0  0  0
  159.9010  205.7950  145.3430 C   0  0  0  0  0  2  0  0  0  0  0  0
  160.8920  206.4530  146.3180 C   0  0  1  0  0  3  0  0  0  0  0  0
  162.5450  205.9660  144.7630 N   0  0  0  0  0  2  0  0  0  0  0  0
  161.9150  204.7970  144.1380 C   0  0  0  0  0  2  0  0  0  0  0  0
  160.4530  203.3440  145.5580 C   0  0  0  0  0  2  0  0  0  0  0  0
  160.0480  202.1030  144.7860 C   0  0  0  0  0  1  0  0  0  0  0  0
  1 26  1  6  0  0  0
  1 10  1  0  0  0  0
  2  4  1  0  0  0  0
  3  5  2  0  0  0  0
  3  7  1  0  0  0  0
  4  1  1  6  0  0  0
  4  7  1  0  0  0  0
  6  2  2  0  0  0  0
  6  3  1  0  0  0  0
  7  8  1  1  0  0  0
  9 10  1  0  0  0  0
  9 12  1  0  0  0  0
 10 13  1  1  0  0  0
 10 14  1  0  0  0  0
 11 15  1  1  0  0  0
 12 11  1  0  0  0  0
 14 11  1  0  0  0  0
 15 16  1  0  0  0  0
 16 19  1  0  0  0  0
 16 17  2  0  0  0  0
 19 18  1  0  0  0  0
 20 19  1  0  0  0  0
 20 21  1  0  0  0  0
 23 22  1  1  0  0  0
 23 21  1  0  0  0  0
 24 25  2  0  0  0  0
 25 23  1  0  0  0  0
 27 26  1  0  0  0  0
 28 30  1  0  0  0  0
 28 34  1  1  0  0  0
 29 31  1  0  0  0  0
 30 31  1  0  0  0  0
 31 27  1  1  0  0  0
 32 29  1  0  0  0  0
 33 28  1  0  0  0  0
 33 32  1  0  0  0  0
 35 34  1  0  0  0  0
M  END
>  <MODEL>
4

>  <REMARK>
 VINA RESULT:      -5.8      3.526      8.425
  Name = 
  13 active torsions:
  status: ('A' for Active; 'I' for Inactive)
    1  A    between atoms: C_4  and  N_24
    2  A    between atoms: C_4  and  C_32
    3  A    between atoms: C_5  and  N_8
    4  A    between atoms: C_5  and  N_10
    5  A    between atoms: C_6  and  C_12
    6  A    between atoms: N_8  and  C_21
    7  A    between atoms: C_9  and  C_17
    8  A    between atoms: C_9  and  C_26
    9  A    between atoms: N_10  and  N_24
   10  A    between atoms: C_13  and  C_28
   11  A    between atoms: C_17  and  C_28
   12  A    between atoms: C_20  and  C_28
   13  A    between atoms: C_30  and  C_32
                            x       y       z     vdW  Elec       q    Type
                         _______ _______ _______ _____ _____    ______ ____

>  <TORSDO>
F 13

$$$$
=
 OpenBabel11072411293D

 35 37  0  0  1  0  0  0  0  0999 V2000
  160.2860  211.2850  153.5850 C   0  0  1  0  0  3  0  0  0  0  0  0
  158.0350  211.2020  154.7950 C   0  0  0  0  0  3  0  0  0  0  0  0
  158.4880  213.2840  155.7140 C   0  0  0  0  0  0  0  0  0  0  0  0
  159.5650  211.3250  154.9530 C   0  0  2  0  0  3  0  0  0  0  0  0
  158.2780  214.4530  156.1350 O   0  0  0  0  0  0  0  0  0  0  0  0
  157.4600  212.4690  155.2030 N   0  0  0  0  0  0  0  0  0  0  0  0
  159.8200  212.6500  155.6850 C   0  0  2  0  0  3  0  0  0  0  0  0
  160.2880  212.3620  157.1000 C   0  0  0  0  0  1  0  0  0  0  0  0
  161.2470  209.1660  154.6180 C   0  0  0  0  0  2  0  0  0  0  0  0
  161.1130  209.9890  153.3440 C   0  0  2  0  0  0  0  0  0  0  0  0
  160.7490  207.6370  152.7770 C   0  0  1  0  0  3  0  0  0  0  0  0
  161.1860  207.7010  154.2270 C   0  0  0  0  0  2  0  0  0  0  0  0
  162.5060  210.3120  152.8170 C   0  0  0  0  0  1  0  0  0  0  0  0
  160.4030  209.0600  152.3740 C   0  0  0  0  0  2  0  0  0  0  0  0
  161.8560  207.1450  151.9650 N   0  0  0  0  0  2  0  0  0  0  0  0
  161.7460  206.0850  151.0050 C   0  0  0  0  0  0  0  0  0  0  0  0
  161.5650  204.8260  151.4030 C   0  0  0  0  0  2  0  0  0  0  0  0
  162.3900  207.5540  149.2050 O   0  0  0  0  0  1  0  0  0  0  0  0
  161.8110  206.3960  149.6060 N   0  0  0  0  0  0  0  0  0  0  0  0
  161.2770  205.5220  148.6440 N   0  0  0  0  0  2  0  0  0  0  0  0
  160.5270  206.3220  147.6850 C   0  0  0  0  0  2  0  0  0  0  0  0
  160.0220  206.1880  145.3660 O   0  0  0  0  0  1  0  0  0  0  0  0
  161.0780  206.1330  146.2770 C   0  0  2  0  0  3  0  0  0  0  0  0
  162.2890  204.4870  145.0930 O   0  0  0  0  0  0  0  0  0  0  0  0
  161.7720  204.8150  146.1490 C   0  0  0  0  0  3  0  0  0  0  0  0
  159.2920  211.5200  152.4440 C   0  0  0  0  0  2  0  0  0  0  0  0
  159.2750  212.9960  152.0930 C   0  0  0  0  0  2  0  0  0  0  0  0
  159.2970  214.0150  148.7240 C   0  0  1  0  0  3  0  0  0  0  0  0
  160.5010  212.0810  150.1810 N   0  0  0  0  0  2  0  0  0  0  0  0
  159.7510  214.4530  150.1250 C   0  0  0  0  0  2  0  0  0  0  0  0
  160.2710  213.2870  150.9820 C   0  0  1  0  0  3  0  0  0  0  0  0
  161.2280  212.4560  149.0380 N   0  0  0  0  0  2  0  0  0  0  0  0
  160.2960  213.0450  148.0700 C   0  0  0  0  0  2  0  0  0  0  0  0
  157.9160  213.3740  148.7730 C   0  0  0  0  0  2  0  0  0  0  0  0
  157.2390  213.4680  147.4180 C   0  0  0  0  0  1  0  0  0  0  0  0
  1 26  1  6  0  0  0
  2  4  1  0  0  0  0
  2  6  2  0  0  0  0
  3  5  2  0  0  0  0
  4  1  1  6  0  0  0
  4  7  1  0  0  0  0
  6  3  1  0  0  0  0
  7  3  1  0  0  0  0
  7  8  1  1  0  0  0
 10 13  1  6  0  0  0
 10  1  1  0  0  0  0
 10  9  1  0  0  0  0
 11 15  1  6  0  0  0
 11 12  1  0  0  0  0
 12  9  1  0  0  0  0
 14 11  1  0  0  0  0
 14 10  1  0  0  0  0
 16 17  2  0  0  0  0
 16 15  1  0  0  0  0
 18 19  1  0  0  0  0
 19 16  1  0  0  0  0
 20 19  1  0  0  0  0
 21 20  1  0  0  0  0
 23 22  1  6  0  0  0
 23 21  1  0  0  0  0
 24 25  2  0  0  0  0
 25 23  1  0  0  0  0
 27 26  1  0  0  0  0
 28 34  1  1  0  0  0
 28 30  1  0  0  0  0
 29 31  1  0  0  0  0
 30 31  1  0  0  0  0
 31 27  1  1  0  0  0
 32 29  1  0  0  0  0
 33 28  1  0  0  0  0
 33 32  1  0  0  0  0
 35 34  1  0  0  0  0
M  END
>  <MODEL>
5

>  <REMARK>
 VINA RESULT:      -5.5      2.371      3.649
  Name = 
  13 active torsions:
  status: ('A' for Active; 'I' for Inactive)
    1  A    between atoms: C_4  and  N_24
    2  A    between atoms: C_4  and  C_32
    3  A    between atoms: C_5  and  N_8
    4  A    between atoms: C_5  and  N_10
    5  A    between atoms: C_6  and  C_12
    6  A    between atoms: N_8  and  C_21
    7  A    between atoms: C_9  and  C_17
    8  A    between atoms: C_9  and  C_26
    9  A    between atoms: N_10  and  N_24
   10  A    between atoms: C_13  and  C_28
   11  A    between atoms: C_17  and  C_28
   12  A    between atoms: C_20  and  C_28
   13  A    between atoms: C_30  and  C_32
                            x       y       z     vdW  Elec       q    Type
                         _______ _______ _______ _____ _____    ______ ____

>  <TORSDO>
F 13

$$$$
=
 OpenBabel11072411293D

 35 37  0  0  1  0  0  0  0  0999 V2000
  161.6770  205.7760  150.6050 C   0  0  1  0  0  3  0  0  0  0  0  0
  159.9760  206.1310  148.7290 C   0  0  0  0  0  3  0  0  0  0  0  0
  161.7300  206.3920  147.2310 C   0  0  0  0  0  0  0  0  0  0  0  0
  161.1700  206.7330  149.5000 C   0  0  2  0  0  3  0  0  0  0  0  0
  162.3790  206.3020  146.1550 O   0  0  0  0  0  0  0  0  0  0  0  0
  160.4280  205.8760  147.3740 N   0  0  0  0  0  0  0  0  0  0  0  0
  162.2600  207.0180  148.4580 C   0  0  2  0  0  3  0  0  0  0  0  0
  162.3890  208.5170  148.2610 C   0  0  0  0  0  1  0  0  0  0  0  0
  162.1170  207.9650  151.8280 C   0  0  0  0  0  2  0  0  0  0  0  0
  161.9070  206.4650  151.9810 C   0  0  2  0  0  0  0  0  0  0  0  0
  160.6170  207.6000  153.7240 C   0  0  1  0  0  3  0  0  0  0  0  0
  161.4510  208.6460  153.0100 C   0  0  0  0  0  2  0  0  0  0  0  0
  163.1100  205.8700  152.7040 C   0  0  0  0  0  1  0  0  0  0  0  0
  160.6750  206.3500  152.8620 C   0  0  0  0  0  2  0  0  0  0  0  0
  161.2050  207.3300  155.0310 N   0  0  0  0  0  2  0  0  0  0  0  0
  160.7340  207.8980  156.2610 C   0  0  0  0  0  0  0  0  0  0  0  0
  160.0780  207.1480  157.1470 C   0  0  0  0  0  2  0  0  0  0  0  0
  162.2740  209.7300  156.5510 O   0  0  0  0  0  1  0  0  0  0  0  0
  160.9950  209.2800  156.5410 N   0  0  0  0  0  0  0  0  0  0  0  0
  159.9460  210.1750  156.8140 N   0  0  0  0  0  2  0  0  0  0  0  0
  159.2690  210.4610  155.5560 C   0  0  0  0  0  2  0  0  0  0  0  0
  160.0790  212.6920  155.6760 O   0  0  0  0  0  1  0  0  0  0  0  0
  159.9630  211.5990  154.8160 C   0  0  2  0  0  3  0  0  0  0  0  0
  158.6690  211.1590  152.8900 O   0  0  0  0  0  0  0  0  0  0  0  0
  159.1820  212.0030  153.6060 C   0  0  0  0  0  3  0  0  0  0  0  0
  160.7440  204.5700  150.7450 C   0  0  0  0  0  2  0  0  0  0  0  0
  161.5730  203.3260  151.0060 C   0  0  0  0  0  2  0  0  0  0  0  0
  161.2110  201.3780  148.0970 C   0  0  1  0  0  3  0  0  0  0  0  0
  159.5480  202.4660  149.9310 N   0  0  0  0  0  2  0  0  0  0  0  0
  161.7170  201.3090  149.5450 C   0  0  0  0  0  2  0  0  0  0  0  0
  160.8300  202.0870  150.5320 C   0  0  1  0  0  3  0  0  0  0  0  0
  159.0170  201.3280  149.2980 N   0  0  0  0  0  2  0  0  0  0  0  0
  159.6910  201.1620  148.0050 C   0  0  0  0  0  2  0  0  0  0  0  0
  161.5810  202.7080  147.4520 C   0  0  0  0  0  2  0  0  0  0  0  0
  161.2040  202.7080  145.9820 C   0  0  0  0  0  1  0  0  0  0  0  0
  1 26  1  1  0  0  0
  1 10  1  0  0  0  0
  2  4  1  0  0  0  0
  3  6  1  0  0  0  0
  3  7  1  0  0  0  0
  4  1  1  1  0  0  0
  5  3  2  0  0  0  0
  6  2  2  0  0  0  0
  7  8  1  6  0  0  0
  7  4  1  0  0  0  0
  9 10  1  0  0  0  0
  9 12  1  0  0  0  0
 10 13  1  1  0  0  0
 10 14  1  0  0  0  0
 11 15  1  1  0  0  0
 12 11  1  0  0  0  0
 14 11  1  0  0  0  0
 15 16  1  0  0  0  0
 16 19  1  0  0  0  0
 16 17  2  0  0  0  0
 19 18  1  0  0  0  0
 19 20  1  0  0  0  0
 21 20  1  0  0  0  0
 23 21  1  0  0  0  0
 23 22  1  1  0  0  0
 24 25  2  0  0  0  0
 25 23  1  0  0  0  0
 26 27  1  0  0  0  0
 28 34  1  1  0  0  0
 28 30  1  0  0  0  0
 29 31  1  0  0  0  0
 30 31  1  0  0  0  0
 31 27  1  6  0  0  0
 32 29  1  0  0  0  0
 33 28  1  0  0  0  0
 33 32  1  0  0  0  0
 35 34  1  0  0  0  0
M  END
>  <MODEL>
6

>  <REMARK>
 VINA RESULT:      -5.5      3.135      8.966
  Name = 
  13 active torsions:
  status: ('A' for Active; 'I' for Inactive)
    1  A    between atoms: C_4  and  N_24
    2  A    between atoms: C_4  and  C_32
    3  A    between atoms: C_5  and  N_8
    4  A    between atoms: C_5  and  N_10
    5  A    between atoms: C_6  and  C_12
    6  A    between atoms: N_8  and  C_21
    7  A    between atoms: C_9  and  C_17
    8  A    between atoms: C_9  and  C_26
    9  A    between atoms: N_10  and  N_24
   10  A    between atoms: C_13  and  C_28
   11  A    between atoms: C_17  and  C_28
   12  A    between atoms: C_20  and  C_28
   13  A    between atoms: C_30  and  C_32
                            x       y       z     vdW  Elec       q    Type
                         _______ _______ _______ _____ _____    ______ ____

>  <TORSDO>
F 13

$$$$
=
 OpenBabel11072411293D

 35 37  0  0  1  0  0  0  0  0999 V2000
  161.6890  209.1770  150.9640 C   0  0  1  0  0  3  0  0  0  0  0  0
  160.0110  210.2610  152.5600 C   0  0  0  0  0  3  0  0  0  0  0  0
  161.3510  209.6290  154.3480 C   0  0  0  0  0  0  0  0  0  0  0  0
  160.7410  208.9580  152.1670 C   0  0  2  0  0  3  0  0  0  0  0  0
  161.9320  209.7020  155.4630 O   0  0  0  0  0  0  0  0  0  0  0  0
  160.5030  210.6460  153.8700 N   0  0  0  0  0  0  0  0  0  0  0  0
  161.5080  208.4980  153.4140 C   0  0  2  0  0  3  0  0  0  0  0  0
  160.8440  207.2580  153.9840 C   0  0  0  0  0  1  0  0  0  0  0  0
  160.7210  206.9130  150.3170 C   0  0  0  0  0  2  0  0  0  0  0  0
  161.7900  207.9530  150.0090 C   0  0  2  0  0  0  0  0  0  0  0  0
  160.8490  207.1750  147.8890 C   0  0  1  0  0  3  0  0  0  0  0  0
  160.2650  206.3190  148.9960 C   0  0  0  0  0  2  0  0  0  0  0  0
  163.1610  207.2920  150.1000 C   0  0  0  0  0  1  0  0  0  0  0  0
  161.5140  208.3580  148.5720 C   0  0  0  0  0  2  0  0  0  0  0  0
  161.8450  206.3980  147.1600 N   0  0  0  0  0  2  0  0  0  0  0  0
  161.5470  205.5410  146.0480 C   0  0  0  0  0  0  0  0  0  0  0  0
  160.7460  205.9580  145.0670 C   0  0  0  0  0  2  0  0  0  0  0  0
  163.4050  204.0940  145.5320 O   0  0  0  0  0  1  0  0  0  0  0  0
  162.1370  204.2350  145.9910 N   0  0  0  0  0  0  0  0  0  0  0  0
  161.4180  203.0970  146.3960 N   0  0  0  0  0  2  0  0  0  0  0  0
  161.4090  203.0730  147.8530 C   0  0  0  0  0  2  0  0  0  0  0  0
  160.9800  200.8000  147.3080 O   0  0  0  0  0  1  0  0  0  0  0  0
  161.3190  201.6420  148.3690 C   0  0  2  0  0  3  0  0  0  0  0  0
  159.1220  201.2840  149.1570 O   0  0  0  0  0  0  0  0  0  0  0  0
  160.2840  201.5260  149.4410 C   0  0  0  0  0  3  0  0  0  0  0  0
  161.3030  210.4430  150.1940 C   0  0  0  0  0  2  0  0  0  0  0  0
  162.4040  210.7810  149.2060 C   0  0  0  0  0  2  0  0  0  0  0  0
  160.5460  213.2800  147.5660 C   0  0  1  0  0  3  0  0  0  0  0  0
  163.1490  212.5640  147.7020 N   0  0  0  0  0  2  0  0  0  0  0  0
  161.0190  212.8420  148.9590 C   0  0  0  0  0  2  0  0  0  0  0  0
  162.4510  212.2800  148.9600 C   0  0  1  0  0  3  0  0  0  0  0  0
  162.9570  213.9240  147.4010 N   0  0  0  0  0  2  0  0  0  0  0  0
  161.6210  214.0820  146.8150 C   0  0  0  0  0  2  0  0  0  0  0  0
  160.1240  212.0780  146.7300 C   0  0  0  0  0  2  0  0  0  0  0  0
  159.0200  212.4650  145.7630 C   0  0  0  0  0  1  0  0  0  0  0  0
  1 26  1  6  0  0  0
  2  6  2  0  0  0  0
  3  5  2  0  0  0  0
  4  1  1  6  0  0  0
  4  2  1  0  0  0  0
  4  7  1  0  0  0  0
  6  3  1  0  0  0  0
  7  8  1  1  0  0  0
  7  3  1  0  0  0  0
 10 13  1  1  0  0  0
 10  9  1  0  0  0  0
 10  1  1  0  0  0  0
 11 15  1  1  0  0  0
 11 14  1  0  0  0  0
 11 12  1  0  0  0  0
 12  9  1  0  0  0  0
 14 10  1  0  0  0  0
 16 15  1  0  0  0  0
 17 16  2  0  0  0  0
 18 19  1  0  0  0  0
 19 16  1  0  0  0  0
 19 20  1  0  0  0  0
 20 21  1  0  0  0  0
 21 23  1  0  0  0  0
 23 22  1  6  0  0  0
 23 25  1  0  0  0  0
 24 25  2  0  0  0  0
 27 26  1  0  0  0  0
 28 34  1  6  0  0  0
 28 30  1  0  0  0  0
 29 31  1  0  0  0  0
 30 31  1  0  0  0  0
 31 27  1  6  0  0  0
 32 29  1  0  0  0  0
 33 32  1  0  0  0  0
 33 28  1  0  0  0  0
 35 34  1  0  0  0  0
M  END
>  <MODEL>
7

>  <REMARK>
 VINA RESULT:      -5.3      1.520      2.902
  Name = 
  13 active torsions:
  status: ('A' for Active; 'I' for Inactive)
    1  A    between atoms: C_4  and  N_24
    2  A    between atoms: C_4  and  C_32
    3  A    between atoms: C_5  and  N_8
    4  A    between atoms: C_5  and  N_10
    5  A    between atoms: C_6  and  C_12
    6  A    between atoms: N_8  and  C_21
    7  A    between atoms: C_9  and  C_17
    8  A    between atoms: C_9  and  C_26
    9  A    between atoms: N_10  and  N_24
   10  A    between atoms: C_13  and  C_28
   11  A    between atoms: C_17  and  C_28
   12  A    between atoms: C_20  and  C_28
   13  A    between atoms: C_30  and  C_32
                            x       y       z     vdW  Elec       q    Type
                         _______ _______ _______ _____ _____    ______ ____

>  <TORSDO>
F 13

$$$$
=
 OpenBabel11072411293D

 35 37  0  0  1  0  0  0  0  0999 V2000
  160.5210  210.7090  153.5100 C   0  0  1  0  0  3  0  0  0  0  0  0
  158.5250  210.9470  155.0900 C   0  0  0  0  0  3  0  0  0  0  0  0
  159.8180  212.2910  156.4720 C   0  0  0  0  0  0  0  0  0  0  0  0
  159.9940  210.4940  154.9490 C   0  0  2  0  0  3  0  0  0  0  0  0
  160.1090  213.2330  157.2570 O   0  0  0  0  0  0  0  0  0  0  0  0
  158.5160  212.0990  155.9710 N   0  0  0  0  0  0  0  0  0  0  0  0
  160.7990  211.3080  155.9710 C   0  0  2  0  0  3  0  0  0  0  0  0
  161.2440  210.3990  157.1010 C   0  0  0  0  0  1  0  0  0  0  0  0
  161.4940  208.4050  153.9840 C   0  0  0  0  0  2  0  0  0  0  0  0
  161.3060  209.4950  152.9370 C   0  0  2  0  0  0  0  0  0  0  0  0
  160.8630  207.3330  151.8790 C   0  0  1  0  0  3  0  0  0  0  0  0
  161.3820  207.0660  153.2790 C   0  0  0  0  0  2  0  0  0  0  0  0
  162.6750  209.9170  152.4140 C   0  0  0  0  0  1  0  0  0  0  0  0
  160.5250  208.8140  151.8270 C   0  0  0  0  0  2  0  0  0  0  0  0
  161.9130  207.0290  150.9140 N   0  0  0  0  0  2  0  0  0  0  0  0
  161.7640  207.1500  149.4920 C   0  0  0  0  0  0  0  0  0  0  0  0
  161.8660  208.3390  148.8980 C   0  0  0  0  0  2  0  0  0  0  0  0
  162.2000  205.7910  147.5490 O   0  0  0  0  0  1  0  0  0  0  0  0
  161.5230  205.9720  148.7100 N   0  0  0  0  0  0  0  0  0  0  0  0
  160.5910  205.0050  149.1230 N   0  0  0  0  0  2  0  0  0  0  0  0
  161.3340  203.8280  149.5550 C   0  0  0  0  0  2  0  0  0  0  0  0
  160.9150  201.6310  150.3580 O   0  0  0  0  0  1  0  0  0  0  0  0
  160.4790  202.5730  149.4260 C   0  0  2  0  0  3  0  0  0  0  0  0
  161.1790  200.9420  147.8670 O   0  0  0  0  0  0  0  0  0  0  0  0
  160.5880  201.9940  148.0510 C   0  0  0  0  0  3  0  0  0  0  0  0
  159.3810  211.1160  152.5720 C   0  0  0  0  0  2  0  0  0  0  0  0
  159.2500  212.6280  152.5740 C   0  0  0  0  0  2  0  0  0  0  0  0
  158.8280  214.2060  149.4550 C   0  0  1  0  0  3  0  0  0  0  0  0
  160.3810  212.2230  150.4400 N   0  0  0  0  0  2  0  0  0  0  0  0
  159.3620  214.4520  150.8740 C   0  0  0  0  0  2  0  0  0  0  0  0
  160.0930  213.2330  151.4630 C   0  0  1  0  0  3  0  0  0  0  0  0
  160.9450  212.8810  149.3320 N   0  0  0  0  0  2  0  0  0  0  0  0
  159.8620  213.5010  148.5620 C   0  0  0  0  0  2  0  0  0  0  0  0
  157.5400  213.3920  149.4910 C   0  0  0  0  0  2  0  0  0  0  0  0
  157.2320  212.8260  148.1160 C   0  0  0  0  0  1  0  0  0  0  0  0
  1 26  1  6  0  0  0
  2  6  2  0  0  0  0
  3  5  2  0  0  0  0
  4  1  1  6  0  0  0
  4  2  1  0  0  0  0
  4  7  1  0  0  0  0
  6  3  1  0  0  0  0
  7  3  1  0  0  0  0
  7  8  1  1  0  0  0
 10 13  1  6  0  0  0
 10  1  1  0  0  0  0
 10  9  1  0  0  0  0
 11 15  1  6  0  0  0
 11 12  1  0  0  0  0
 12  9  1  0  0  0  0
 14 11  1  0  0  0  0
 14 10  1  0  0  0  0
 16 15  1  0  0  0  0
 17 16  2  0  0  0  0
 18 19  1  0  0  0  0
 19 20  1  0  0  0  0
 19 16  1  0  0  0  0
 20 21  1  0  0  0  0
 23 21  1  0  0  0  0
 23 22  1  1  0  0  0
 24 25  2  0  0  0  0
 25 23  1  0  0  0  0
 26 27  1  0  0  0  0
 28 34  1  1  0  0  0
 28 30  1  0  0  0  0
 29 31  1  0  0  0  0
 30 31  1  0  0  0  0
 31 27  1  1  0  0  0
 32 29  1  0  0  0  0
 33 32  1  0  0  0  0
 33 28  1  0  0  0  0
 35 34  1  0  0  0  0
M  END
>  <MODEL>
8

>  <REMARK>
 VINA RESULT:      -5.3      2.227      3.791
  Name = 
  13 active torsions:
  status: ('A' for Active; 'I' for Inactive)
    1  A    between atoms: C_4  and  N_24
    2  A    between atoms: C_4  and  C_32
    3  A    between atoms: C_5  and  N_8
    4  A    between atoms: C_5  and  N_10
    5  A    between atoms: C_6  and  C_12
    6  A    between atoms: N_8  and  C_21
    7  A    between atoms: C_9  and  C_17
    8  A    between atoms: C_9  and  C_26
    9  A    between atoms: N_10  and  N_24
   10  A    between atoms: C_13  and  C_28
   11  A    between atoms: C_17  and  C_28
   12  A    between atoms: C_20  and  C_28
   13  A    between atoms: C_30  and  C_32
                            x       y       z     vdW  Elec       q    Type
                         _______ _______ _______ _____ _____    ______ ____

>  <TORSDO>
F 13

$$$$
=
 OpenBabel11072411293D

 35 37  0  0  1  0  0  0  0  0999 V2000
  161.3650  207.9240  151.8760 C   0  0  1  0  0  3  0  0  0  0  0  0
  162.3360  210.0000  153.0100 C   0  0  0  0  0  3  0  0  0  0  0  0
  160.7870  211.3060  151.8770 C   0  0  0  0  0  0  0  0  0  0  0  0
  162.0270  209.3060  151.6660 C   0  0  2  0  0  3  0  0  0  0  0  0
  159.9580  212.2320  151.6720 O   0  0  0  0  0  0  0  0  0  0  0  0
  161.4770  211.1660  153.0970 N   0  0  0  0  0  0  0  0  0  0  0  0
  161.1100  210.2590  150.8880 C   0  0  2  0  0  3  0  0  0  0  0  0
  161.8780  210.8620  149.7260 C   0  0  0  0  0  1  0  0  0  0  0  0
  161.5960  205.4570  151.2950 C   0  0  0  0  0  2  0  0  0  0  0  0
  161.7110  206.8830  150.7730 C   0  0  2  0  0  0  0  0  0  0  0  0
  160.5780  205.5370  149.0730 C   0  0  1  0  0  3  0  0  0  0  0  0
  161.0450  204.6000  150.1690 C   0  0  0  0  0  2  0  0  0  0  0  0
  163.1200  207.0980  150.2330 C   0  0  0  0  0  1  0  0  0  0  0  0
  160.7120  206.9440  149.6310 C   0  0  0  0  0  2  0  0  0  0  0  0
  161.4410  205.3800  147.9090 N   0  0  0  0  0  2  0  0  0  0  0  0
  160.9770  205.3910  146.5510 C   0  0  0  0  0  0  0  0  0  0  0  0
  160.3560  206.4620  146.0560 C   0  0  0  0  0  2  0  0  0  0  0  0
  160.8060  204.2640  144.4260 O   0  0  0  0  0  1  0  0  0  0  0  0
  161.2070  204.2440  145.7220 N   0  0  0  0  0  0  0  0  0  0  0  0
  161.8350  203.0950  146.2320 N   0  0  0  0  0  2  0  0  0  0  0  0
  160.7920  202.1880  146.6950 C   0  0  0  0  0  2  0  0  0  0  0  0
  161.5670  200.0740  147.4550 O   0  0  0  0  0  1  0  0  0  0  0  0
  161.2780  201.3690  147.8860 C   0  0  2  0  0  3  0  0  0  0  0  0
  160.5540  201.1840  150.1260 O   0  0  0  0  0  0  0  0  0  0  0  0
  160.2350  201.3130  148.9550 C   0  0  0  0  0  3  0  0  0  0  0  0
  161.6900  207.3750  153.2690 C   0  0  0  0  0  2  0  0  0  0  0  0
  160.3950  207.0530  153.9920 C   0  0  0  0  0  2  0  0  0  0  0  0
  159.6360  209.4670  156.4390 C   0  0  1  0  0  3  0  0  0  0  0  0
  161.8010  207.9950  155.7620 N   0  0  0  0  0  2  0  0  0  0  0  0
  159.3270  208.0190  156.0290 C   0  0  0  0  0  2  0  0  0  0  0  0
  160.5570  207.2700  155.4880 C   0  0  1  0  0  3  0  0  0  0  0  0
  161.7860  208.3800  157.1140 N   0  0  0  0  0  2  0  0  0  0  0  0
  160.9420  209.5730  157.2440 C   0  0  0  0  0  2  0  0  0  0  0  0
  159.7100  210.3760  155.2190 C   0  0  0  0  0  2  0  0  0  0  0  0
  158.3150  210.7200  154.7290 C   0  0  0  0  0  1  0  0  0  0  0  0
  1 26  1  1  0  0  0
  2  6  2  0  0  0  0
  3  6  1  0  0  0  0
  4  1  1  1  0  0  0
  4  2  1  0  0  0  0
  5  3  2  0  0  0  0
  7  8  1  6  0  0  0
  7  4  1  0  0  0  0
  7  3  1  0  0  0  0
 10 13  1  6  0  0  0
 10  9  1  0  0  0  0
 10  1  1  0  0  0  0
 11 15  1  6  0  0  0
 11 14  1  0  0  0  0
 11 12  1  0  0  0  0
 12  9  1  0  0  0  0
 14 10  1  0  0  0  0
 16 15  1  0  0  0  0
 17 16  2  0  0  0  0
 18 19  1  0  0  0  0
 19 20  1  0  0  0  0
 19 16  1  0  0  0  0
 20 21  1  0  0  0  0
 21 23  1  0  0  0  0
 23 22  1  6  0  0  0
 23 25  1  0  0  0  0
 25 24  2  0  0  0  0
 26 27  1  0  0  0  0
 28 34  1  6  0  0  0
 28 33  1  0  0  0  0
 29 32  1  0  0  0  0
 30 28  1  0  0  0  0
 31 27  1  6  0  0  0
 31 29  1  0  0  0  0
 31 30  1  0  0  0  0
 32 33  1  0  0  0  0
 35 34  1  0  0  0  0
M  END
>  <MODEL>
9

>  <REMARK>
 VINA RESULT:      -5.2      2.497      5.403
  Name = 
  13 active torsions:
  status: ('A' for Active; 'I' for Inactive)
    1  A    between atoms: C_4  and  N_24
    2  A    between atoms: C_4  and  C_32
    3  A    between atoms: C_5  and  N_8
    4  A    between atoms: C_5  and  N_10
    5  A    between atoms: C_6  and  C_12
    6  A    between atoms: N_8  and  C_21
    7  A    between atoms: C_9  and  C_17
    8  A    between atoms: C_9  and  C_26
    9  A    between atoms: N_10  and  N_24
   10  A    between atoms: C_13  and  C_28
   11  A    between atoms: C_17  and  C_28
   12  A    between atoms: C_20  and  C_28
   13  A    between atoms: C_30  and  C_32
                            x       y       z     vdW  Elec       q    Type
                         _______ _______ _______ _____ _____    ______ ____

>  <TORSDO>
F 13

$$$$
