=
 OpenBabel11072413493D

 29 31  0  0  0  0  0  0  0  0999 V2000
  161.1830  206.3250  151.0410 C   0  0  0  0  0  3  0  0  0  0  0  0
  160.2550  211.2670  151.9640 S   0  0  0  0  0  0  0  0  0  0  0  0
  158.7090  212.7160  153.6900 C   0  0  0  0  0  2  0  0  0  0  0  0
  158.9780  209.7690  155.7050 O   0  0  0  0  0  0  0  0  0  0  0  0
  161.2170  206.3080  153.4700 C   0  0  0  0  0  0  0  0  0  0  0  0
  158.7170  211.4090  152.9170 C   0  0  0  0  0  2  0  0  0  0  0  0
  161.2120  209.1320  155.9500 C   0  0  0  0  0  0  0  0  0  0  0  0
  161.1540  208.3770  152.2640 N   0  0  0  0  0  0  0  0  0  0  0  0
  156.7250  210.2900  155.3410 N   0  0  0  0  0  2  0  0  0  0  0  0
  161.2250  207.0140  154.6700 C   0  0  0  0  0  3  0  0  0  0  0  0
  161.2160  204.9260  151.0380 C   0  0  0  0  0  3  0  0  0  0  0  0
  161.1820  208.4120  154.6620 C   0  0  0  0  0  0  0  0  0  0  0  0
  156.1830  212.7760  155.2570 C   0  0  0  0  0  2  0  0  0  0  0  0
  161.2510  204.2210  152.2470 C   0  0  0  0  0  3  0  0  0  0  0  0
  154.8320  211.0860  154.2590 O   0  0  0  0  0  0  0  0  0  0  0  0
  161.1340  209.0920  153.4260 C   0  0  0  0  0  0  0  0  0  0  0  0
  161.1810  207.0190  152.2540 C   0  0  0  0  0  0  0  0  0  0  0  0
  157.5190  213.5360  153.3050 C   0  0  0  0  0  0  0  0  0  0  0  0
  157.8800  210.5120  156.1960 C   0  0  0  0  0  2  0  0  0  0  0  0
  157.5860  214.4490  151.9520 S   0  0  0  0  0  0  0  0  0  0  0  0
  161.2520  204.9120  153.4640 C   0  0  0  0  0  3  0  0  0  0  0  0
  155.8680  211.3520  154.9240 C   0  0  0  0  0  0  0  0  0  0  0  0
  160.1680  209.7600  156.3960 N   0  0  0  0  0  0  0  0  0  0  0  0
  161.1990  210.5920  153.3700 C   0  0  0  0  0  2  0  0  0  0  0  0
  156.3470  213.5420  154.0690 O   0  0  0  0  0  0  0  0  0  0  0  0
  162.4480  209.0930  156.7870 C   0  0  0  0  0  2  0  0  0  0  0  0
  162.8300  210.4870  157.2590 C   0  0  0  0  0  2  0  0  0  0  0  0
  164.6950  211.6590  157.1480 C   0  0  0  0  0  1  0  0  0  0  0  0
  163.7110  211.0770  156.3510 O   0  0  0  0  0  0  0  0  0  0  0  0
  1 17  1  0  0  0  0
  2  6  1  0  0  0  0
  2 24  1  0  0  0  0
  4 19  1  0  0  0  0
  4 23  1  0  0  0  0
  5 10  1  0  0  0  0
  6  3  1  0  0  0  0
  7 23  2  0  0  0  0
  7 26  1  0  0  0  0
  8 16  2  0  0  0  0
  9 19  1  0  0  0  0
 11  1  2  0  0  0  0
 11 14  1  0  0  0  0
 12 10  2  0  0  0  0
 12  7  1  0  0  0  0
 14 21  2  0  0  0  0
 15 22  2  0  0  0  0
 16 12  1  0  0  0  0
 17  8  1  0  0  0  0
 17  5  2  0  0  0  0
 18  3  1  0  0  0  0
 18 25  1  0  0  0  0
 20 18  2  0  0  0  0
 21  5  1  0  0  0  0
 22 13  1  0  0  0  0
 22  9  1  0  0  0  0
 24 16  1  0  0  0  0
 25 13  1  0  0  0  0
 26 27  1  0  0  0  0
 29 28  1  0  0  0  0
 29 27  1  0  0  0  0
M  END
>  <MODEL>
1

>  <REMARK>
 VINA RESULT:      -6.3      0.000      0.000
  Name = 
  3 active torsions:
  status: ('A' for Active; 'I' for Inactive)
    1  A    between atoms: C_4  and  C_10
    2  A    between atoms: C_4  and  O_13
    3  A    between atoms: C_9  and  C_10
                            x       y       z     vdW  Elec       q    Type
                         _______ _______ _______ _____ _____    ______ ____

>  <TORSDO>
F 3

$$$$
=
 OpenBabel11072413493D

 29 31  0  0  0  0  0  0  0  0999 V2000
  161.6620  205.7990  150.4580 C   0  0  0  0  0  3  0  0  0  0  0  0
  162.3260  210.6650  149.0370 S   0  0  0  0  0  0  0  0  0  0  0  0
  161.0600  213.0520  149.4490 C   0  0  0  0  0  2  0  0  0  0  0  0
  159.8880  211.4140  152.4080 O   0  0  0  0  0  0  0  0  0  0  0  0
  161.1990  206.9150  152.5650 C   0  0  0  0  0  0  0  0  0  0  0  0
  160.7730  211.5690  149.2900 C   0  0  0  0  0  2  0  0  0  0  0  0
  161.6670  210.4950  153.6090 C   0  0  0  0  0  0  0  0  0  0  0  0
  162.0960  208.1360  150.7090 N   0  0  0  0  0  0  0  0  0  0  0  0
  158.0740  212.1810  151.1430 N   0  0  0  0  0  2  0  0  0  0  0  0
  161.2080  208.0790  153.3280 C   0  0  0  0  0  3  0  0  0  0  0  0
  161.2120  204.5930  151.0060 C   0  0  0  0  0  3  0  0  0  0  0  0
  161.6520  209.2820  152.7680 C   0  0  0  0  0  0  0  0  0  0  0  0
  158.4490  214.3890  149.9320 C   0  0  0  0  0  2  0  0  0  0  0  0
  160.7580  204.5480  152.3290 C   0  0  0  0  0  3  0  0  0  0  0  0
  156.8290  212.7700  149.2740 O   0  0  0  0  0  0  0  0  0  0  0  0
  162.0900  209.2960  151.4270 C   0  0  0  0  0  0  0  0  0  0  0  0
  161.6550  206.9620  151.2330 C   0  0  0  0  0  0  0  0  0  0  0  0
  160.3280  213.8340  148.4050 C   0  0  0  0  0  0  0  0  0  0  0  0
  159.0370  212.5200  152.1780 C   0  0  0  0  0  2  0  0  0  0  0  0
  160.9760  213.9680  146.9110 S   0  0  0  0  0  0  0  0  0  0  0  0
  160.7520  205.7080  153.1100 C   0  0  0  0  0  3  0  0  0  0  0  0
  157.7370  213.0830  150.0890 C   0  0  0  0  0  0  0  0  0  0  0  0
  160.8360  211.4700  153.4030 N   0  0  0  0  0  0  0  0  0  0  0  0
  162.6770  210.5390  150.8220 C   0  0  0  0  0  2  0  0  0  0  0  0
  159.1020  214.4530  148.6690 O   0  0  0  0  0  0  0  0  0  0  0  0
  162.6200  210.5830  154.7560 C   0  0  0  0  0  2  0  0  0  0  0  0
  161.8770  210.5770  156.0830 C   0  0  0  0  0  2  0  0  0  0  0  0
  161.7510  208.5250  156.8820 C   0  0  0  0  0  1  0  0  0  0  0  0
  162.4940  209.7000  156.9750 O   0  0  0  0  0  0  0  0  0  0  0  0
  1 11  2  0  0  0  0
  1 17  1  0  0  0  0
  2  6  1  0  0  0  0
  2 24  1  0  0  0  0
  4 23  1  0  0  0  0
  5 21  1  0  0  0  0
  5 10  1  0  0  0  0
  6  3  1  0  0  0  0
  7 26  1  0  0  0  0
  8 17  1  0  0  0  0
  8 16  2  0  0  0  0
  9 19  1  0  0  0  0
 11 14  1  0  0  0  0
 12 10  2  0  0  0  0
 12  7  1  0  0  0  0
 13 22  1  0  0  0  0
 14 21  2  0  0  0  0
 15 22  2  0  0  0  0
 16 12  1  0  0  0  0
 17  5  2  0  0  0  0
 18 25  1  0  0  0  0
 18  3  1  0  0  0  0
 19  4  1  0  0  0  0
 20 18  2  0  0  0  0
 22  9  1  0  0  0  0
 23  7  2  0  0  0  0
 24 16  1  0  0  0  0
 25 13  1  0  0  0  0
 26 27  1  0  0  0  0
 27 29  1  0  0  0  0
 28 29  1  0  0  0  0
M  END
>  <MODEL>
2

>  <REMARK>
 VINA RESULT:      -5.0      3.112      3.703
  Name = 
  3 active torsions:
  status: ('A' for Active; 'I' for Inactive)
    1  A    between atoms: C_4  and  C_10
    2  A    between atoms: C_4  and  O_13
    3  A    between atoms: C_9  and  C_10
                            x       y       z     vdW  Elec       q    Type
                         _______ _______ _______ _____ _____    ______ ____

>  <TORSDO>
F 3

$$$$
=
 OpenBabel11072413493D

 29 31  0  0  0  0  0  0  0  0999 V2000
  156.5040  213.9670  149.2690 C   0  0  0  0  0  3  0  0  0  0  0  0
  159.9230  211.7700  152.3710 S   0  0  0  0  0  0  0  0  0  0  0  0
  161.7820  209.7750  152.1930 C   0  0  0  0  0  2  0  0  0  0  0  0
  161.6810  210.5960  148.7100 O   0  0  0  0  0  0  0  0  0  0  0  0
  158.3940  213.8000  147.7530 C   0  0  0  0  0  0  0  0  0  0  0  0
  160.4140  210.1700  151.6670 C   0  0  0  0  0  2  0  0  0  0  0  0
  161.9850  212.8890  148.3880 C   0  0  0  0  0  0  0  0  0  0  0  0
  158.6560  213.3280  150.0870 N   0  0  0  0  0  0  0  0  0  0  0  0
  161.2110  208.3230  149.0130 N   0  0  0  0  0  2  0  0  0  0  0  0
  159.7460  213.5330  147.5530 C   0  0  0  0  0  3  0  0  0  0  0  0
  155.6870  214.3450  148.1980 C   0  0  0  0  0  3  0  0  0  0  0  0
  160.5510  213.1460  148.6290 C   0  0  0  0  0  0  0  0  0  0  0  0
  162.4880  207.1910  150.9020 C   0  0  0  0  0  2  0  0  0  0  0  0
  156.2230  214.4520  146.9090 C   0  0  0  0  0  3  0  0  0  0  0  0
  160.4220  206.3880  150.0270 O   0  0  0  0  0  0  0  0  0  0  0  0
  159.9770  213.0350  149.9130 C   0  0  0  0  0  0  0  0  0  0  0  0
  157.8560  213.6910  149.0510 C   0  0  0  0  0  0  0  0  0  0  0  0
  161.7050  208.4550  152.8930 C   0  0  0  0  0  0  0  0  0  0  0  0
  162.2600  209.3100  148.8190 C   0  0  0  0  0  2  0  0  0  0  0  0
  161.2010  208.4070  154.4460 S   0  0  0  0  0  0  0  0  0  0  0  0
  157.5770  214.1800  146.6860 C   0  0  0  0  0  3  0  0  0  0  0  0
  161.3230  207.2670  149.9670 C   0  0  0  0  0  0  0  0  0  0  0  0
  162.4740  211.6880  148.4450 N   0  0  0  0  0  0  0  0  0  0  0  0
  160.8290  212.7310  151.1130 C   0  0  0  0  0  2  0  0  0  0  0  0
  162.0480  207.2580  152.2550 O   0  0  0  0  0  0  0  0  0  0  0  0
  162.8840  214.0220  148.0160 C   0  0  0  0  0  2  0  0  0  0  0  0
  162.7030  214.4030  146.5550 C   0  0  0  0  0  2  0  0  0  0  0  0
  162.0070  213.5760  144.6330 C   0  0  0  0  0  1  0  0  0  0  0  0
  162.7810  213.2670  145.7500 O   0  0  0  0  0  0  0  0  0  0  0  0
  3 18  1  0  0  0  0
  4 19  1  0  0  0  0
  5 17  1  0  0  0  0
  6  3  1  0  0  0  0
  6  2  1  0  0  0  0
  7 23  2  0  0  0  0
  7 12  1  0  0  0  0
  9 22  1  0  0  0  0
 10  5  2  0  0  0  0
 10 12  1  0  0  0  0
 11  1  2  0  0  0  0
 12 16  2  0  0  0  0
 13 25  1  0  0  0  0
 14 11  1  0  0  0  0
 16  8  1  0  0  0  0
 16 24  1  0  0  0  0
 17  1  1  0  0  0  0
 17  8  2  0  0  0  0
 18 20  2  0  0  0  0
 19  9  1  0  0  0  0
 21 14  2  0  0  0  0
 21  5  1  0  0  0  0
 22 15  2  0  0  0  0
 22 13  1  0  0  0  0
 23  4  1  0  0  0  0
 24  2  1  0  0  0  0
 25 18  1  0  0  0  0
 26  7  1  0  0  0  0
 27 26  1  0  0  0  0
 28 29  1  0  0  0  0
 29 27  1  0  0  0  0
M  END
>  <MODEL>
3

>  <REMARK>
 VINA RESULT:      -4.6      5.398      8.704
  Name = 
  3 active torsions:
  status: ('A' for Active; 'I' for Inactive)
    1  A    between atoms: C_4  and  C_10
    2  A    between atoms: C_4  and  O_13
    3  A    between atoms: C_9  and  C_10
                            x       y       z     vdW  Elec       q    Type
                         _______ _______ _______ _____ _____    ______ ____

>  <TORSDO>
F 3

$$$$
=
 OpenBabel11072413493D

 29 31  0  0  0  0  0  0  0  0999 V2000
  162.3990  208.0390  151.0040 C   0  0  0  0  0  3  0  0  0  0  0  0
  162.0690  212.4270  148.4010 S   0  0  0  0  0  0  0  0  0  0  0  0
  160.0770  214.0830  147.5310 C   0  0  0  0  0  2  0  0  0  0  0  0
  158.2690  212.6040  150.2440 O   0  0  0  0  0  0  0  0  0  0  0  0
  160.7050  209.1770  152.3210 C   0  0  0  0  0  0  0  0  0  0  0  0
  160.3750  212.6140  147.7760 C   0  0  0  0  0  2  0  0  0  0  0  0
  159.4950  212.7340  152.2280 C   0  0  0  0  0  0  0  0  0  0  0  0
  161.9120  210.3460  150.6130 N   0  0  0  0  0  0  0  0  0  0  0  0
  157.0910  212.3140  148.2420 N   0  0  0  0  0  2  0  0  0  0  0  0
  159.9990  210.3420  152.6100 C   0  0  0  0  0  3  0  0  0  0  0  0
  162.1550  206.8620  151.7200 C   0  0  0  0  0  3  0  0  0  0  0  0
  160.2450  211.5110  151.8840 C   0  0  0  0  0  0  0  0  0  0  0  0
  157.2600  214.2440  146.5920 C   0  0  0  0  0  2  0  0  0  0  0  0
  161.1890  206.8430  152.7330 C   0  0  0  0  0  3  0  0  0  0  0  0
  156.7180  212.0080  145.9710 O   0  0  0  0  0  0  0  0  0  0  0  0
  161.2160  211.4930  150.8590 C   0  0  0  0  0  0  0  0  0  0  0  0
  161.6760  209.1980  151.3000 C   0  0  0  0  0  0  0  0  0  0  0  0
  159.6950  214.3010  146.1020 C   0  0  0  0  0  0  0  0  0  0  0  0
  157.3160  213.1920  149.3790 C   0  0  0  0  0  2  0  0  0  0  0  0
  160.8720  214.4530  144.9790 S   0  0  0  0  0  0  0  0  0  0  0  0
  160.4630  208.0010  153.0340 C   0  0  0  0  0  3  0  0  0  0  0  0
  157.0060  212.8040  146.9040 C   0  0  0  0  0  0  0  0  0  0  0  0
  158.5890  213.2170  151.4340 N   0  0  0  0  0  0  0  0  0  0  0  0
  161.5890  212.7520  150.1300 C   0  0  0  0  0  2  0  0  0  0  0  0
  158.3580  214.3740  145.6950 O   0  0  0  0  0  0  0  0  0  0  0  0
  159.7390  213.4020  153.5410 C   0  0  0  0  0  2  0  0  0  0  0  0
  158.5070  213.3260  154.4290 C   0  0  0  0  0  2  0  0  0  0  0  0
  160.0240  212.4870  155.7930 C   0  0  0  0  0  1  0  0  0  0  0  0
  158.6880  212.3590  155.4180 O   0  0  0  0  0  0  0  0  0  0  0  0
  1 17  2  0  0  0  0
  1 11  1  0  0  0  0
  2 24  1  0  0  0  0
  3  6  1  0  0  0  0
  4 23  1  0  0  0  0
  5 10  1  0  0  0  0
  5 21  2  0  0  0  0
  6  2  1  0  0  0  0
  7 26  1  0  0  0  0
  8 16  2  0  0  0  0
  8 17  1  0  0  0  0
  9 19  1  0  0  0  0
 11 14  2  0  0  0  0
 12  7  1  0  0  0  0
 12 10  2  0  0  0  0
 13 22  1  0  0  0  0
 14 21  1  0  0  0  0
 15 22  2  0  0  0  0
 16 12  1  0  0  0  0
 17  5  1  0  0  0  0
 18  3  1  0  0  0  0
 19  4  1  0  0  0  0
 20 18  2  0  0  0  0
 22  9  1  0  0  0  0
 23  7  2  0  0  0  0
 24 16  1  0  0  0  0
 25 18  1  0  0  0  0
 25 13  1  0  0  0  0
 26 27  1  0  0  0  0
 27 29  1  0  0  0  0
 29 28  1  0  0  0  0
M  END
>  <MODEL>
4

>  <REMARK>
 VINA RESULT:      -3.7      4.579      5.729
  Name = 
  3 active torsions:
  status: ('A' for Active; 'I' for Inactive)
    1  A    between atoms: C_4  and  C_10
    2  A    between atoms: C_4  and  O_13
    3  A    between atoms: C_9  and  C_10
                            x       y       z     vdW  Elec       q    Type
                         _______ _______ _______ _____ _____    ______ ____

>  <TORSDO>
F 3

$$$$
