=
 OpenBabel11072410273D

 32 35  0  0  1  0  0  0  0  0999 V2000
  160.7060  208.2980  154.2400 C   0  0  0  0  0  0  0  0  0  0  0  0
  161.1800  209.2010  152.0300 C   0  0  0  0  0  3  0  0  0  0  0  0
  162.0690  207.7990  150.1810 C   0  0  0  0  0  1  0  0  0  0  0  0
  160.7340  209.3860  153.3430 C   0  0  0  0  0  0  0  0  0  0  0  0
  161.6030  207.9450  151.5900 C   0  0  0  0  0  0  0  0  0  0  0  0
  161.5840  206.8540  152.4750 C   0  0  0  0  0  0  0  0  0  0  0  0
  161.1310  207.0350  153.7840 C   0  0  0  0  0  3  0  0  0  0  0  0
  159.6320  207.3090  156.2560 C   0  0  0  0  0  2  0  0  0  0  0  0
  161.1050  209.1600  156.6260 C   0  0  1  0  0  3  0  0  0  0  0  0
  161.0100  207.6900  156.6170 N   0  0  2  0  0  0  0  0  0  0  0  0
  162.3720  209.5710  156.0360 N   0  0  0  0  0  1  0  0  0  0  0  0
  160.2070  208.5080  155.6620 C   0  0  2  0  0  0  0  0  0  0  0  0
  160.2970  210.7550  153.7630 C   0  0  0  0  0  2  0  0  0  0  0  0
  158.1980  213.0010  152.1120 C   0  0  2  0  0  3  0  0  0  0  0  0
  159.0510  211.1140  153.1010 N   0  0  0  0  0  0  0  0  0  0  0  0
  158.2000  211.7300  154.1080 C   0  0  0  0  0  2  0  0  0  0  0  0
  157.5160  212.8960  153.4510 C   0  0  0  0  0  2  0  0  0  0  0  0
  159.3520  212.1180  152.1620 N   0  0  0  0  0  2  0  0  0  0  0  0
  158.6580  214.4260  151.8460 C   0  0  0  0  0  2  0  0  0  0  0  0
  159.8140  214.4530  150.8600 C   0  0  0  0  0  2  0  0  0  0  0  0
  159.3330  214.4050  149.5500 O   0  0  0  0  0  0  0  0  0  0  0  0
  160.0460  213.4630  148.9710 O   0  0  0  0  0  1  0  0  0  0  0  0
  162.0060  205.4860  152.0440 C   0  0  0  0  0  2  0  0  0  0  0  0
  160.9260  204.5380  152.2630 N   0  0  0  0  0  2  0  0  0  0  0  0
  160.9640  203.5850  151.1660 C   0  0  0  0  0  2  0  0  0  0  0  0
  161.2000  204.3060  149.8500 C   0  0  0  0  0  2  0  0  0  0  0  0
  160.8770  203.4060  148.6680 C   0  0  2  0  0  3  0  0  0  0  0  0
  160.8520  202.0710  149.0790 O   0  0  0  0  0  1  0  0  0  0  0  0
  161.8930  203.5790  147.6420 N   0  0  0  0  0  2  0  0  0  0  0  0
  161.4870  203.9340  145.2760 C   0  0  0  0  0  1  0  0  0  0  0  0
  161.3720  204.5230  146.6680 C   0  0  0  0  0  3  0  0  0  0  0  0
  162.1700  205.8080  146.7340 C   0  0  0  0  0  1  0  0  0  0  0  0
  2  4  1  0  0  0  0
  3  5  1  0  0  0  0
  4 13  1  0  0  0  0
  4  1  2  0  0  0  0
  5  2  2  0  0  0  0
  5  6  1  0  0  0  0
  6  7  2  0  0  0  0
  7  1  1  0  0  0  0
  9 11  1  6  0  0  0
 10  8  1  1  0  0  0
 10  9  1  0  0  0  0
 12  1  1  6  0  0  0
 12  8  1  0  0  0  0
 12 10  1  0  0  0  0
 12  9  1  0  0  0  0
 14 19  1  1  0  0  0
 14 18  1  0  0  0  0
 14 17  1  0  0  0  0
 15 13  1  0  0  0  0
 15 16  1  0  0  0  0
 17 16  1  0  0  0  0
 18 15  1  0  0  0  0
 20 19  1  0  0  0  0
 21 20  1  0  0  0  0
 22 21  1  0  0  0  0
 23 24  1  0  0  0  0
 23  6  1  0  0  0  0
 25 24  1  0  0  0  0
 26 25  1  0  0  0  0
 27 28  1  1  0  0  0
 27 26  1  0  0  0  0
 29 27  1  0  0  0  0
 30 31  1  0  0  0  0
 31 32  1  0  0  0  0
 31 29  1  0  0  0  0
M  END
>  <MODEL>
1

>  <REMARK>
 VINA RESULT:      -6.7      0.000      0.000
  Name = 
  13 active torsions:
  status: ('A' for Active; 'I' for Inactive)
    1  A    between atoms: C_2  and  C_4
    2  A    between atoms: C_3  and  C_23
    3  A    between atoms: C_3  and  N_26
    4  A    between atoms: C_4  and  C_25
    5  A    between atoms: C_6  and  C_29
    6  A    between atoms: N_8  and  C_22
    7  A    between atoms: C_11  and  N_12
    8  A    between atoms: N_12  and  C_15
    9  A    between atoms: C_15  and  C_23
   10  A    between atoms: C_17  and  C_22
   11  A    between atoms: O_19  and  C_25
   12  A    between atoms: N_26  and  C_27
   13  A    between atoms: C_27  and  C_30
                            x       y       z     vdW  Elec       q    Type
                         _______ _______ _______ _____ _____    ______ ____

>  <TORSDO>
F 13

$$$$
=
 OpenBabel11072410273D

 32 35  0  0  1  0  0  0  0  0999 V2000
  160.5730  208.3860  154.5070 C   0  0  0  0  0  0  0  0  0  0  0  0
  161.1630  209.7660  152.5910 C   0  0  0  0  0  3  0  0  0  0  0  0
  162.0670  208.8060  150.4860 C   0  0  0  0  0  1  0  0  0  0  0  0
  160.6750  209.6540  153.8980 C   0  0  0  0  0  0  0  0  0  0  0  0
  161.5540  208.6330  151.8760 C   0  0  0  0  0  0  0  0  0  0  0  0
  161.4620  207.3640  152.4730 C   0  0  0  0  0  0  0  0  0  0  0  0
  160.9680  207.2490  153.7750 C   0  0  0  0  0  3  0  0  0  0  0  0
  159.2930  207.0410  156.1650 C   0  0  0  0  0  2  0  0  0  0  0  0
  160.9460  208.5340  157.0440 C   0  0  1  0  0  3  0  0  0  0  0  0
  160.6850  207.1410  156.6400 N   0  0  2  0  0  0  0  0  0  0  0  0
  162.2790  208.9270  156.6090 N   0  0  0  0  0  1  0  0  0  0  0  0
  160.0300  208.2730  155.9240 C   0  0  2  0  0  0  0  0  0  0  0  0
  160.2740  210.9010  154.6210 C   0  0  0  0  0  2  0  0  0  0  0  0
  157.8500  213.3910  154.2970 C   0  0  2  0  0  3  0  0  0  0  0  0
  159.2070  211.5820  153.9020 N   0  0  0  0  0  0  0  0  0  0  0  0
  157.9510  211.0280  154.3840 C   0  0  0  0  0  2  0  0  0  0  0  0
  156.9900  212.1750  154.5250 C   0  0  0  0  0  2  0  0  0  0  0  0
  159.2300  212.9320  154.3010 N   0  0  0  0  0  2  0  0  0  0  0  0
  157.6500  214.4140  155.4040 C   0  0  0  0  0  2  0  0  0  0  0  0
  156.8590  213.8230  156.5600 C   0  0  0  0  0  2  0  0  0  0  0  0
  155.6190  214.4530  156.6680 O   0  0  0  0  0  0  0  0  0  0  0  0
  154.7680  213.4730  156.8870 O   0  0  0  0  0  1  0  0  0  0  0  0
  161.8490  206.1210  151.7390 C   0  0  0  0  0  2  0  0  0  0  0  0
  161.3080  204.9540  152.4150 N   0  0  0  0  0  2  0  0  0  0  0  0
  161.0610  203.9450  151.3980 C   0  0  0  0  0  2  0  0  0  0  0  0
  161.1060  204.5720  150.0140 C   0  0  0  0  0  2  0  0  0  0  0  0
  160.8960  203.5250  148.9330 C   0  0  2  0  0  3  0  0  0  0  0  0
  160.9910  202.2450  149.4840 O   0  0  0  0  0  1  0  0  0  0  0  0
  161.9130  203.6860  147.9050 N   0  0  0  0  0  2  0  0  0  0  0  0
  161.4860  204.0580  145.5460 C   0  0  0  0  0  1  0  0  0  0  0  0
  161.4080  204.6480  146.9400 C   0  0  0  0  0  3  0  0  0  0  0  0
  162.2460  205.9070  146.9970 C   0  0  0  0  0  1  0  0  0  0  0  0
  2  4  2  0  0  0  0
  3  5  1  0  0  0  0
  4  1  1  0  0  0  0
  4 13  1  0  0  0  0
  5  6  2  0  0  0  0
  5  2  1  0  0  0  0
  6  7  1  0  0  0  0
  7  1  2  0  0  0  0
  9 11  1  6  0  0  0
 10  8  1  1  0  0  0
 10  9  1  0  0  0  0
 12  1  1  6  0  0  0
 12  8  1  0  0  0  0
 12 10  1  0  0  0  0
 12  9  1  0  0  0  0
 14 18  1  0  0  0  0
 14 17  1  0  0  0  0
 14 19  1  1  0  0  0
 15 18  1  0  0  0  0
 15 16  1  0  0  0  0
 15 13  1  0  0  0  0
 16 17  1  0  0  0  0
 19 20  1  0  0  0  0
 20 21  1  0  0  0  0
 21 22  1  0  0  0  0
 23 24  1  0  0  0  0
 23  6  1  0  0  0  0
 25 24  1  0  0  0  0
 26 25  1  0  0  0  0
 27 28  1  1  0  0  0
 27 26  1  0  0  0  0
 29 27  1  0  0  0  0
 30 31  1  0  0  0  0
 31 32  1  0  0  0  0
 31 29  1  0  0  0  0
M  END
>  <MODEL>
2

>  <REMARK>
 VINA RESULT:      -6.4      2.420      2.692
  Name = 
  13 active torsions:
  status: ('A' for Active; 'I' for Inactive)
    1  A    between atoms: C_2  and  C_4
    2  A    between atoms: C_3  and  C_23
    3  A    between atoms: C_3  and  N_26
    4  A    between atoms: C_4  and  C_25
    5  A    between atoms: C_6  and  C_29
    6  A    between atoms: N_8  and  C_22
    7  A    between atoms: C_11  and  N_12
    8  A    between atoms: N_12  and  C_15
    9  A    between atoms: C_15  and  C_23
   10  A    between atoms: C_17  and  C_22
   11  A    between atoms: O_19  and  C_25
   12  A    between atoms: N_26  and  C_27
   13  A    between atoms: C_27  and  C_30
                            x       y       z     vdW  Elec       q    Type
                         _______ _______ _______ _____ _____    ______ ____

>  <TORSDO>
F 13

$$$$
=
 OpenBabel11072410273D

 32 35  0  0  1  0  0  0  0  0999 V2000
  161.1720  206.7270  150.8950 C   0  0  0  0  0  0  0  0  0  0  0  0
  161.5260  208.3560  149.1220 C   0  0  0  0  0  3  0  0  0  0  0  0
  162.2370  210.6910  149.5820 C   0  0  0  0  0  1  0  0  0  0  0  0
  161.1760  207.0620  149.5250 C   0  0  0  0  0  0  0  0  0  0  0  0
  161.8720  209.3280  150.0630 C   0  0  0  0  0  0  0  0  0  0  0  0
  161.8660  209.0070  151.4310 C   0  0  0  0  0  0  0  0  0  0  0  0
  161.5260  207.7140  151.8350 C   0  0  0  0  0  3  0  0  0  0  0  0
  161.2750  204.2890  150.4020 C   0  0  0  0  0  2  0  0  0  0  0  0
  161.0860  204.9090  152.7080 C   0  0  1  0  0  3  0  0  0  0  0  0
  162.0330  204.5330  151.6430 N   0  0  2  0  0  0  0  0  0  0  0  0
  161.6540  205.9830  153.5100 N   0  0  0  0  0  1  0  0  0  0  0  0
  160.8030  205.3130  151.3220 C   0  0  2  0  0  0  0  0  0  0  0  0
  160.8100  206.0600  148.4760 C   0  0  0  0  0  2  0  0  0  0  0  0
  161.4440  205.5330  145.0840 C   0  0  2  0  0  3  0  0  0  0  0  0
  161.4650  206.3840  147.2160 N   0  0  0  0  0  0  0  0  0  0  0  0
  162.6440  205.5370  147.1240 C   0  0  0  0  0  2  0  0  0  0  0  0
  162.7390  205.0690  145.6980 C   0  0  0  0  0  2  0  0  0  0  0  0
  160.6000  205.9820  146.1810 N   0  0  0  0  0  2  0  0  0  0  0  0
  160.7550  204.3970  144.3440 C   0  0  0  0  0  2  0  0  0  0  0  0
  160.7430  203.1270  145.1790 C   0  0  0  0  0  2  0  0  0  0  0  0
  159.7590  202.2530  144.7140 O   0  0  0  0  0  0  0  0  0  0  0  0
  160.1720  201.0610  145.0880 O   0  0  0  0  0  1  0  0  0  0  0  0
  162.2500  210.0080  152.4730 C   0  0  0  0  0  2  0  0  0  0  0  0
  161.3710  209.8910  153.6250 N   0  0  0  0  0  2  0  0  0  0  0  0
  160.8820  211.2260  153.9270 C   0  0  0  0  0  2  0  0  0  0  0  0
  160.5170  211.3310  155.3980 C   0  0  0  0  0  2  0  0  0  0  0  0
  159.6220  210.1780  155.8230 C   0  0  2  0  0  3  0  0  0  0  0  0
  158.2810  210.5600  155.7410 O   0  0  0  0  0  1  0  0  0  0  0  0
  159.9370  209.8040  157.1930 N   0  0  0  0  0  2  0  0  0  0  0  0
  161.9610  208.4940  156.9220 C   0  0  0  0  0  1  0  0  0  0  0  0
  160.4660  208.4510  157.1640 C   0  0  0  0  0  3  0  0  0  0  0  0
  159.8020  207.6740  156.0460 C   0  0  0  0  0  1  0  0  0  0  0  0
  1  7  1  0  0  0  0
  2  4  1  0  0  0  0
  2  5  2  0  0  0  0
  3  5  1  0  0  0  0
  4  1  2  0  0  0  0
  5  6  1  0  0  0  0
  6  7  2  0  0  0  0
  6 23  1  0  0  0  0
  8 12  1  0  0  0  0
  9 11  1  1  0  0  0
 10  8  1  6  0  0  0
 10  9  1  0  0  0  0
 12  1  1  6  0  0  0
 12 10  1  0  0  0  0
 12  9  1  0  0  0  0
 13  4  1  0  0  0  0
 14 19  1  1  0  0  0
 14 17  1  0  0  0  0
 14 18  1  0  0  0  0
 15 13  1  0  0  0  0
 16 15  1  0  0  0  0
 17 16  1  0  0  0  0
 18 15  1  0  0  0  0
 19 20  1  0  0  0  0
 21 22  1  0  0  0  0
 21 20  1  0  0  0  0
 23 24  1  0  0  0  0
 24 25  1  0  0  0  0
 25 26  1  0  0  0  0
 26 27  1  0  0  0  0
 27 28  1  1  0  0  0
 27 29  1  0  0  0  0
 30 31  1  0  0  0  0
 31 29  1  0  0  0  0
 32 31  1  0  0  0  0
M  END
>  <MODEL>
3

>  <REMARK>
 VINA RESULT:      -6.3      2.939      8.634
  Name = 
  13 active torsions:
  status: ('A' for Active; 'I' for Inactive)
    1  A    between atoms: C_2  and  C_4
    2  A    between atoms: C_3  and  C_23
    3  A    between atoms: C_3  and  N_26
    4  A    between atoms: C_4  and  C_25
    5  A    between atoms: C_6  and  C_29
    6  A    between atoms: N_8  and  C_22
    7  A    between atoms: C_11  and  N_12
    8  A    between atoms: N_12  and  C_15
    9  A    between atoms: C_15  and  C_23
   10  A    between atoms: C_17  and  C_22
   11  A    between atoms: O_19  and  C_25
   12  A    between atoms: N_26  and  C_27
   13  A    between atoms: C_27  and  C_30
                            x       y       z     vdW  Elec       q    Type
                         _______ _______ _______ _____ _____    ______ ____

>  <TORSDO>
F 13

$$$$
=
 OpenBabel11072410273D

 32 35  0  0  1  0  0  0  0  0999 V2000
  160.5720  208.5570  154.4430 C   0  0  0  0  0  0  0  0  0  0  0  0
  161.0450  210.1610  152.6740 C   0  0  0  0  0  3  0  0  0  0  0  0
  162.0630  209.4950  150.5090 C   0  0  0  0  0  1  0  0  0  0  0  0
  160.5550  209.8810  153.9550 C   0  0  0  0  0  0  0  0  0  0  0  0
  161.5540  209.1440  151.8660 C   0  0  0  0  0  0  0  0  0  0  0  0
  161.5810  207.8220  152.3420 C   0  0  0  0  0  0  0  0  0  0  0  0
  161.0850  207.5380  153.6170 C   0  0  0  0  0  3  0  0  0  0  0  0
  159.3300  206.9850  155.9200 C   0  0  0  0  0  2  0  0  0  0  0  0
  160.9280  208.4180  156.9820 C   0  0  1  0  0  3  0  0  0  0  0  0
  160.7160  207.0740  156.4150 N   0  0  2  0  0  0  0  0  0  0  0  0
  162.2490  208.9030  156.6080 N   0  0  0  0  0  1  0  0  0  0  0  0
  160.0260  208.2610  155.8310 C   0  0  2  0  0  0  0  0  0  0  0  0
  160.0250  211.0100  154.7810 C   0  0  0  0  0  2  0  0  0  0  0  0
  157.1690  212.7200  153.7320 C   0  0  2  0  0  3  0  0  0  0  0  0
  158.5860  211.1370  154.6010 N   0  0  0  0  0  0  0  0  0  0  0  0
  158.0800  211.8770  155.7460 C   0  0  0  0  0  2  0  0  0  0  0  0
  157.0440  212.8350  155.2280 C   0  0  0  0  0  2  0  0  0  0  0  0
  158.3770  211.9520  153.4720 N   0  0  0  0  0  2  0  0  0  0  0  0
  157.2910  214.0930  153.0890 C   0  0  0  0  0  2  0  0  0  0  0  0
  158.4730  214.1470  152.1330 C   0  0  0  0  0  2  0  0  0  0  0  0
  158.0360  214.4480  150.8420 O   0  0  0  0  0  0  0  0  0  0  0  0
  157.2260  213.4590  150.5290 O   0  0  0  0  0  1  0  0  0  0  0  0
  162.0970  206.6960  151.5050 C   0  0  0  0  0  2  0  0  0  0  0  0
  161.0900  205.6540  151.3950 N   0  0  0  0  0  2  0  0  0  0  0  0
  161.0660  205.2250  150.0060 C   0  0  0  0  0  2  0  0  0  0  0  0
  160.8570  206.4200  149.0910 C   0  0  0  0  0  2  0  0  0  0  0  0
  161.8210  206.3840  147.9170 C   0  0  2  0  0  3  0  0  0  0  0  0
  162.6630  207.4980  147.9570 O   0  0  0  0  0  1  0  0  0  0  0  0
  161.0650  206.3910  146.6740 N   0  0  0  0  0  2  0  0  0  0  0  0
  160.9940  204.8630  144.7910 C   0  0  0  0  0  1  0  0  0  0  0  0
  161.8770  205.7290  145.6670 C   0  0  0  0  0  3  0  0  0  0  0  0
  162.9130  204.8600  146.3470 C   0  0  0  0  0  1  0  0  0  0  0  0
  2  4  2  0  0  0  0
  3  5  1  0  0  0  0
  4  1  1  0  0  0  0
  4 13  1  0  0  0  0
  5  6  2  0  0  0  0
  5  2  1  0  0  0  0
  6  7  1  0  0  0  0
  7  1  2  0  0  0  0
  9 11  1  6  0  0  0
 10  8  1  1  0  0  0
 10  9  1  0  0  0  0
 12  1  1  6  0  0  0
 12  8  1  0  0  0  0
 12 10  1  0  0  0  0
 12  9  1  0  0  0  0
 14 19  1  6  0  0  0
 14 17  1  0  0  0  0
 15 13  1  0  0  0  0
 15 16  1  0  0  0  0
 17 16  1  0  0  0  0
 18 14  1  0  0  0  0
 18 15  1  0  0  0  0
 20 19  1  0  0  0  0
 21 20  1  0  0  0  0
 22 21  1  0  0  0  0
 23  6  1  0  0  0  0
 24 23  1  0  0  0  0
 25 24  1  0  0  0  0
 26 25  1  0  0  0  0
 27 28  1  6  0  0  0
 27 26  1  0  0  0  0
 29 27  1  0  0  0  0
 30 31  1  0  0  0  0
 31 32  1  0  0  0  0
 31 29  1  0  0  0  0
M  END
>  <MODEL>
4

>  <REMARK>
 VINA RESULT:      -6.2      1.723      1.935
  Name = 
  13 active torsions:
  status: ('A' for Active; 'I' for Inactive)
    1  A    between atoms: C_2  and  C_4
    2  A    between atoms: C_3  and  C_23
    3  A    between atoms: C_3  and  N_26
    4  A    between atoms: C_4  and  C_25
    5  A    between atoms: C_6  and  C_29
    6  A    between atoms: N_8  and  C_22
    7  A    between atoms: C_11  and  N_12
    8  A    between atoms: N_12  and  C_15
    9  A    between atoms: C_15  and  C_23
   10  A    between atoms: C_17  and  C_22
   11  A    between atoms: O_19  and  C_25
   12  A    between atoms: N_26  and  C_27
   13  A    between atoms: C_27  and  C_30
                            x       y       z     vdW  Elec       q    Type
                         _______ _______ _______ _____ _____    ______ ____

>  <TORSDO>
F 13

$$$$
=
 OpenBabel11072410273D

 32 35  0  0  1  0  0  0  0  0999 V2000
  161.2130  206.7980  150.8550 C   0  0  0  0  0  0  0  0  0  0  0  0
  161.4840  208.4510  149.0900 C   0  0  0  0  0  3  0  0  0  0  0  0
  162.2840  210.7600  149.5380 C   0  0  0  0  0  1  0  0  0  0  0  0
  161.1310  207.1590  149.4940 C   0  0  0  0  0  0  0  0  0  0  0  0
  161.9190  209.3970  150.0200 C   0  0  0  0  0  0  0  0  0  0  0  0
  162.0010  209.0510  151.3800 C   0  0  0  0  0  0  0  0  0  0  0  0
  161.6560  207.7590  151.7840 C   0  0  0  0  0  3  0  0  0  0  0  0
  161.3360  204.3580  150.3810 C   0  0  0  0  0  2  0  0  0  0  0  0
  161.0910  204.9920  152.6770 C   0  0  1  0  0  3  0  0  0  0  0  0
  162.0640  204.6130  151.6370 N   0  0  2  0  0  0  0  0  0  0  0  0
  161.6360  206.0740  153.4850 N   0  0  0  0  0  1  0  0  0  0  0  0
  160.8390  205.3870  151.2830 C   0  0  2  0  0  0  0  0  0  0  0  0
  160.6670  206.1870  148.4550 C   0  0  0  0  0  2  0  0  0  0  0  0
  161.3160  205.4990  145.0960 C   0  0  2  0  0  3  0  0  0  0  0  0
  161.3060  206.4660  147.1780 N   0  0  0  0  0  0  0  0  0  0  0  0
  162.5190  205.6650  147.1280 C   0  0  0  0  0  2  0  0  0  0  0  0
  162.6310  205.1230  145.7300 C   0  0  0  0  0  2  0  0  0  0  0  0
  160.4570  205.9730  146.1700 N   0  0  0  0  0  2  0  0  0  0  0  0
  160.6740  204.2970  144.4220 C   0  0  0  0  0  2  0  0  0  0  0  0
  160.7830  203.0570  145.2940 C   0  0  0  0  0  2  0  0  0  0  0  0
  159.9110  202.0670  144.8380 O   0  0  0  0  0  0  0  0  0  0  0  0
  160.4280  200.9410  145.2800 O   0  0  0  0  0  1  0  0  0  0  0  0
  162.4810  210.0230  152.4090 C   0  0  0  0  0  2  0  0  0  0  0  0
  161.6270  209.9670  153.5840 N   0  0  0  0  0  2  0  0  0  0  0  0
  160.7330  211.1120  153.5170 C   0  0  0  0  0  2  0  0  0  0  0  0
  159.3530  210.7310  154.0260 C   0  0  0  0  0  2  0  0  0  0  0  0
  158.2750  211.5720  153.3620 C   0  0  2  0  0  3  0  0  0  0  0  0
  158.8580  212.4910  152.4870 O   0  0  0  0  0  1  0  0  0  0  0  0
  157.5230  212.2840  154.3840 N   0  0  0  0  0  2  0  0  0  0  0  0
  155.6860  210.8280  155.0120 C   0  0  0  0  0  1  0  0  0  0  0  0
  157.0820  211.3040  155.3620 C   0  0  0  0  0  3  0  0  0  0  0  0
  157.0630  211.9380  156.7370 C   0  0  0  0  0  1  0  0  0  0  0  0
  1  7  1  0  0  0  0
  2  4  1  0  0  0  0
  2  5  2  0  0  0  0
  3  5  1  0  0  0  0
  4  1  2  0  0  0  0
  5  6  1  0  0  0  0
  6  7  2  0  0  0  0
  6 23  1  0  0  0  0
  8 12  1  0  0  0  0
  9 11  1  1  0  0  0
 10  8  1  6  0  0  0
 10  9  1  0  0  0  0
 12  1  1  6  0  0  0
 12 10  1  0  0  0  0
 12  9  1  0  0  0  0
 13  4  1  0  0  0  0
 14 19  1  1  0  0  0
 14 17  1  0  0  0  0
 14 18  1  0  0  0  0
 15 13  1  0  0  0  0
 16 15  1  0  0  0  0
 17 16  1  0  0  0  0
 18 15  1  0  0  0  0
 19 20  1  0  0  0  0
 21 22  1  0  0  0  0
 21 20  1  0  0  0  0
 23 24  1  0  0  0  0
 25 24  1  0  0  0  0
 25 26  1  0  0  0  0
 27 28  1  6  0  0  0
 27 26  1  0  0  0  0
 27 29  1  0  0  0  0
 29 31  1  0  0  0  0
 30 31  1  0  0  0  0
 31 32  1  0  0  0  0
M  END
>  <MODEL>
5

>  <REMARK>
 VINA RESULT:      -6.0      2.434      8.782
  Name = 
  13 active torsions:
  status: ('A' for Active; 'I' for Inactive)
    1  A    between atoms: C_2  and  C_4
    2  A    between atoms: C_3  and  C_23
    3  A    between atoms: C_3  and  N_26
    4  A    between atoms: C_4  and  C_25
    5  A    between atoms: C_6  and  C_29
    6  A    between atoms: N_8  and  C_22
    7  A    between atoms: C_11  and  N_12
    8  A    between atoms: N_12  and  C_15
    9  A    between atoms: C_15  and  C_23
   10  A    between atoms: C_17  and  C_22
   11  A    between atoms: O_19  and  C_25
   12  A    between atoms: N_26  and  C_27
   13  A    between atoms: C_27  and  C_30
                            x       y       z     vdW  Elec       q    Type
                         _______ _______ _______ _____ _____    ______ ____

>  <TORSDO>
F 13

$$$$
=
 OpenBabel11072410273D

 32 35  0  0  1  0  0  0  0  0999 V2000
  161.1790  206.3630  150.6900 C   0  0  0  0  0  0  0  0  0  0  0  0
  161.3000  204.6340  152.3990 C   0  0  0  0  0  3  0  0  0  0  0  0
  160.8900  202.2350  151.8990 C   0  0  0  0  0  1  0  0  0  0  0  0
  161.3990  205.9800  152.0300 C   0  0  0  0  0  0  0  0  0  0  0  0
  160.9830  203.6560  151.4540 C   0  0  0  0  0  0  0  0  0  0  0  0
  160.7570  204.0250  150.1180 C   0  0  0  0  0  0  0  0  0  0  0  0
  160.8630  205.3670  149.7450 C   0  0  0  0  0  3  0  0  0  0  0  0
  162.3780  208.5240  150.9850 C   0  0  0  0  0  2  0  0  0  0  0  0
  161.3260  208.1630  148.8650 C   0  0  1  0  0  3  0  0  0  0  0  0
  162.5990  208.0680  149.6010 N   0  0  2  0  0  0  0  0  0  0  0  0
  161.1700  206.9990  148.0040 N   0  0  0  0  0  1  0  0  0  0  0  0
  161.3010  207.8270  150.2960 C   0  0  2  0  0  0  0  0  0  0  0  0
  161.7370  206.9880  153.0830 C   0  0  0  0  0  2  0  0  0  0  0  0
  160.0320  208.9660  155.3980 C   0  0  2  0  0  3  0  0  0  0  0  0
  160.5320  207.4230  153.7730 N   0  0  0  0  0  0  0  0  0  0  0  0
  160.4610  206.6700  155.0160 C   0  0  0  0  0  2  0  0  0  0  0  0
  160.0010  207.6240  156.0830 C   0  0  0  0  0  2  0  0  0  0  0  0
  160.7200  208.7710  154.1320 N   0  0  0  0  0  2  0  0  0  0  0  0
  160.7850  209.9870  156.2360 C   0  0  0  0  0  2  0  0  0  0  0  0
  162.0670  209.3950  156.7980 C   0  0  0  0  0  2  0  0  0  0  0  0
  162.9470  210.4130  157.1690 O   0  0  0  0  0  0  0  0  0  0  0  0
  163.5700  210.7340  156.0550 O   0  0  0  0  0  1  0  0  0  0  0  0
  160.4360  203.0110  149.0670 C   0  0  0  0  0  2  0  0  0  0  0  0
  161.6080  202.1990  148.7830 N   0  0  0  0  0  2  0  0  0  0  0  0
  161.1360  200.9560  148.1950 C   0  0  0  0  0  2  0  0  0  0  0  0
  161.3910  200.9540  146.6970 C   0  0  0  0  0  2  0  0  0  0  0  0
  160.6350  202.0820  146.0130 C   0  0  2  0  0  3  0  0  0  0  0  0
  159.6930  201.5560  145.1270 O   0  0  0  0  0  1  0  0  0  0  0  0
  161.5770  202.9160  145.2820 N   0  0  0  0  0  2  0  0  0  0  0  0
  160.8700  205.2130  144.9440 C   0  0  0  0  0  1  0  0  0  0  0  0
  161.5480  204.2370  145.8860 C   0  0  0  0  0  3  0  0  0  0  0  0
  162.9650  204.7020  146.1490 C   0  0  0  0  0  1  0  0  0  0  0  0
  1  4  1  0  0  0  0
  4  2  2  0  0  0  0
  4 13  1  0  0  0  0
  5  3  1  0  0  0  0
  5  2  1  0  0  0  0
  6  5  2  0  0  0  0
  7  6  1  0  0  0  0
  7  1  2  0  0  0  0
  9 11  1  6  0  0  0
  9 10  1  0  0  0  0
  9 12  1  0  0  0  0
 10 12  1  0  0  0  0
 10  8  1  1  0  0  0
 12  1  1  1  0  0  0
 12  8  1  0  0  0  0
 13 15  1  0  0  0  0
 14 17  1  0  0  0  0
 14 19  1  1  0  0  0
 15 18  1  0  0  0  0
 15 16  1  0  0  0  0
 16 17  1  0  0  0  0
 18 14  1  0  0  0  0
 19 20  1  0  0  0  0
 20 21  1  0  0  0  0
 22 21  1  0  0  0  0
 23  6  1  0  0  0  0
 24 23  1  0  0  0  0
 25 24  1  0  0  0  0
 26 25  1  0  0  0  0
 27 28  1  6  0  0  0
 27 26  1  0  0  0  0
 29 31  1  0  0  0  0
 29 27  1  0  0  0  0
 30 31  1  0  0  0  0
 31 32  1  0  0  0  0
M  END
>  <MODEL>
6

>  <REMARK>
 VINA RESULT:      -6.0      3.515      5.365
  Name = 
  13 active torsions:
  status: ('A' for Active; 'I' for Inactive)
    1  A    between atoms: C_2  and  C_4
    2  A    between atoms: C_3  and  C_23
    3  A    between atoms: C_3  and  N_26
    4  A    between atoms: C_4  and  C_25
    5  A    between atoms: C_6  and  C_29
    6  A    between atoms: N_8  and  C_22
    7  A    between atoms: C_11  and  N_12
    8  A    between atoms: N_12  and  C_15
    9  A    between atoms: C_15  and  C_23
   10  A    between atoms: C_17  and  C_22
   11  A    between atoms: O_19  and  C_25
   12  A    between atoms: N_26  and  C_27
   13  A    between atoms: C_27  and  C_30
                            x       y       z     vdW  Elec       q    Type
                         _______ _______ _______ _____ _____    ______ ____

>  <TORSDO>
F 13

$$$$
=
 OpenBabel11072410273D

 32 35  0  0  1  0  0  0  0  0999 V2000
  161.3490  207.9840  151.4330 C   0  0  0  0  0  0  0  0  0  0  0  0
  161.3860  205.9070  152.7000 C   0  0  0  0  0  3  0  0  0  0  0  0
  161.1260  203.6840  151.6210 C   0  0  0  0  0  1  0  0  0  0  0  0
  161.4620  207.3030  152.6630 C   0  0  0  0  0  0  0  0  0  0  0  0
  161.1990  205.1710  151.5280 C   0  0  0  0  0  0  0  0  0  0  0  0
  161.0810  205.8380  150.2970 C   0  0  0  0  0  0  0  0  0  0  0  0
  161.1640  207.2310  150.2570 C   0  0  0  0  0  3  0  0  0  0  0  0
  162.2560  210.0530  152.4790 C   0  0  0  0  0  2  0  0  0  0  0  0
  161.7990  210.1520  150.1310 C   0  0  1  0  0  3  0  0  0  0  0  0
  162.8520  209.9250  151.1370 N   0  0  2  0  0  0  0  0  0  0  0  0
  161.9600  209.2070  149.0340 N   0  0  0  0  0  1  0  0  0  0  0  0
  161.4460  209.5020  151.4020 C   0  0  2  0  0  0  0  0  0  0  0  0
  161.6600  208.0430  153.9490 C   0  0  0  0  0  2  0  0  0  0  0  0
  159.5020  209.3100  156.3810 C   0  0  2  0  0  3  0  0  0  0  0  0
  160.4450  207.9990  154.7500 N   0  0  0  0  0  0  0  0  0  0  0  0
  160.7930  207.3620  156.0100 C   0  0  0  0  0  2  0  0  0  0  0  0
  160.0780  208.1160  157.0970 C   0  0  0  0  0  2  0  0  0  0  0  0
  160.0990  209.3290  155.0550 N   0  0  0  0  0  2  0  0  0  0  0  0
  159.8440  210.5990  157.1120 C   0  0  0  0  0  2  0  0  0  0  0  0
  161.0470  211.2820  156.4830 C   0  0  0  0  0  2  0  0  0  0  0  0
  162.2200  210.8860  157.1290 O   0  0  0  0  0  0  0  0  0  0  0  0
  163.0950  210.7320  156.1580 O   0  0  0  0  0  1  0  0  0  0  0  0
  160.9000  205.0910  149.0140 C   0  0  0  0  0  2  0  0  0  0  0  0
  160.6290  206.0210  147.9310 N   0  0  0  0  0  2  0  0  0  0  0  0
  161.3210  205.5210  146.7540 C   0  0  0  0  0  2  0  0  0  0  0  0
  162.0520  204.2310  147.0830 C   0  0  0  0  0  2  0  0  0  0  0  0
  161.5150  203.0720  146.2580 C   0  0  2  0  0  3  0  0  0  0  0  0
  160.9520  203.5520  145.0730 O   0  0  0  0  0  1  0  0  0  0  0  0
  160.5010  202.3660  147.0260 N   0  0  0  0  0  2  0  0  0  0  0  0
  161.5820  200.2300  147.4190 C   0  0  0  0  0  1  0  0  0  0  0  0
  161.1900  201.5640  148.0230 C   0  0  0  0  0  3  0  0  0  0  0  0
  160.2700  201.3270  149.2020 C   0  0  0  0  0  1  0  0  0  0  0  0
  1  4  1  0  0  0  0
  4  2  2  0  0  0  0
  4 13  1  0  0  0  0
  5  3  1  0  0  0  0
  5  2  1  0  0  0  0
  6  5  2  0  0  0  0
  7  6  1  0  0  0  0
  7  1  2  0  0  0  0
  9 11  1  6  0  0  0
  9 10  1  0  0  0  0
  9 12  1  0  0  0  0
 10 12  1  0  0  0  0
 10  8  1  1  0  0  0
 12  1  1  1  0  0  0
 12  8  1  0  0  0  0
 13 15  1  0  0  0  0
 14 17  1  0  0  0  0
 14 19  1  1  0  0  0
 15 18  1  0  0  0  0
 15 16  1  0  0  0  0
 16 17  1  0  0  0  0
 18 14  1  0  0  0  0
 20 19  1  0  0  0  0
 20 21  1  0  0  0  0
 22 21  1  0  0  0  0
 23  6  1  0  0  0  0
 24 23  1  0  0  0  0
 25 26  1  0  0  0  0
 25 24  1  0  0  0  0
 27 28  1  6  0  0  0
 27 29  1  0  0  0  0
 27 26  1  0  0  0  0
 29 31  1  0  0  0  0
 30 31  1  0  0  0  0
 31 32  1  0  0  0  0
M  END
>  <MODEL>
7

>  <REMARK>
 VINA RESULT:      -5.9      3.340      4.944
  Name = 
  13 active torsions:
  status: ('A' for Active; 'I' for Inactive)
    1  A    between atoms: C_2  and  C_4
    2  A    between atoms: C_3  and  C_23
    3  A    between atoms: C_3  and  N_26
    4  A    between atoms: C_4  and  C_25
    5  A    between atoms: C_6  and  C_29
    6  A    between atoms: N_8  and  C_22
    7  A    between atoms: C_11  and  N_12
    8  A    between atoms: N_12  and  C_15
    9  A    between atoms: C_15  and  C_23
   10  A    between atoms: C_17  and  C_22
   11  A    between atoms: O_19  and  C_25
   12  A    between atoms: N_26  and  C_27
   13  A    between atoms: C_27  and  C_30
                            x       y       z     vdW  Elec       q    Type
                         _______ _______ _______ _____ _____    ______ ____

>  <TORSDO>
F 13

$$$$
=
 OpenBabel11072410273D

 32 35  0  0  1  0  0  0  0  0999 V2000
  161.2600  206.3270  150.3500 C   0  0  0  0  0  0  0  0  0  0  0  0
  161.3670  204.9100  152.3250 C   0  0  0  0  0  3  0  0  0  0  0  0
  160.8300  202.4850  152.2550 C   0  0  0  0  0  1  0  0  0  0  0  0
  161.5140  206.1670  151.7280 C   0  0  0  0  0  0  0  0  0  0  0  0
  160.9710  203.8030  151.5720 C   0  0  0  0  0  0  0  0  0  0  0  0
  160.7120  203.9510  150.1990 C   0  0  0  0  0  0  0  0  0  0  0  0
  160.8650  205.2030  149.5990 C   0  0  0  0  0  3  0  0  0  0  0  0
  162.7060  208.3290  150.0300 C   0  0  0  0  0  2  0  0  0  0  0  0
  161.1620  207.8280  148.2680 C   0  0  1  0  0  3  0  0  0  0  0  0
  162.5550  207.6640  148.7220 N   0  0  2  0  0  0  0  0  0  0  0  0
  160.6980  206.5890  147.6600 N   0  0  0  0  0  1  0  0  0  0  0  0
  161.4350  207.6950  149.7070 C   0  0  2  0  0  0  0  0  0  0  0  0
  161.9370  207.3200  152.5830 C   0  0  0  0  0  2  0  0  0  0  0  0
  160.0840  209.9530  153.9300 C   0  0  2  0  0  3  0  0  0  0  0  0
  160.7940  207.8620  153.3040 N   0  0  0  0  0  0  0  0  0  0  0  0
  161.2030  208.0120  154.6920 C   0  0  0  0  0  2  0  0  0  0  0  0
  160.6360  209.3160  155.1790 C   0  0  0  0  0  2  0  0  0  0  0  0
  160.5660  209.1600  152.8100 N   0  0  0  0  0  2  0  0  0  0  0  0
  160.5740  211.3850  153.7880 C   0  0  0  0  0  2  0  0  0  0  0  0
  159.5270  212.2580  153.1150 C   0  0  0  0  0  2  0  0  0  0  0  0
  159.9950  212.7050  151.8780 O   0  0  0  0  0  0  0  0  0  0  0  0
  159.0750  213.5500  151.4630 O   0  0  0  0  0  1  0  0  0  0  0  0
  160.3060  202.7910  149.3470 C   0  0  0  0  0  2  0  0  0  0  0  0
  161.4530  202.2890  148.6090 N   0  0  0  0  0  2  0  0  0  0  0  0
  161.1290  200.9380  148.1800 C   0  0  0  0  0  2  0  0  0  0  0  0
  161.2060  200.8340  146.6660 C   0  0  0  0  0  2  0  0  0  0  0  0
  160.5680  202.0450  146.0030 C   0  0  2  0  0  3  0  0  0  0  0  0
  159.5600  201.6330  145.1290 O   0  0  0  0  0  1  0  0  0  0  0  0
  161.5840  202.7770  145.2620 N   0  0  0  0  0  2  0  0  0  0  0  0
  160.8820  204.9810  144.5310 C   0  0  0  0  0  1  0  0  0  0  0  0
  161.4910  204.1720  145.6580 C   0  0  0  0  0  3  0  0  0  0  0  0
  162.8760  204.7030  145.9630 C   0  0  0  0  0  1  0  0  0  0  0  0
  1  4  1  0  0  0  0
  4  2  2  0  0  0  0
  4 13  1  0  0  0  0
  5  3  1  0  0  0  0
  5  2  1  0  0  0  0
  6  5  2  0  0  0  0
  7  6  1  0  0  0  0
  7  1  2  0  0  0  0
  9 11  1  6  0  0  0
  9 10  1  0  0  0  0
  9 12  1  0  0  0  0
 10 12  1  0  0  0  0
 10  8  1  1  0  0  0
 12  8  1  0  0  0  0
 12  1  1  1  0  0  0
 13 15  1  0  0  0  0
 14 19  1  6  0  0  0
 14 17  1  0  0  0  0
 15 16  1  0  0  0  0
 16 17  1  0  0  0  0
 18 15  1  0  0  0  0
 18 14  1  0  0  0  0
 20 19  1  0  0  0  0
 21 20  1  0  0  0  0
 22 21  1  0  0  0  0
 23  6  1  0  0  0  0
 24 23  1  0  0  0  0
 25 24  1  0  0  0  0
 26 25  1  0  0  0  0
 27 28  1  6  0  0  0
 27 26  1  0  0  0  0
 29 31  1  0  0  0  0
 29 27  1  0  0  0  0
 30 31  1  0  0  0  0
 31 32  1  0  0  0  0
M  END
>  <MODEL>
8

>  <REMARK>
 VINA RESULT:      -5.9      2.082      4.690
  Name = 
  13 active torsions:
  status: ('A' for Active; 'I' for Inactive)
    1  A    between atoms: C_2  and  C_4
    2  A    between atoms: C_3  and  C_23
    3  A    between atoms: C_3  and  N_26
    4  A    between atoms: C_4  and  C_25
    5  A    between atoms: C_6  and  C_29
    6  A    between atoms: N_8  and  C_22
    7  A    between atoms: C_11  and  N_12
    8  A    between atoms: N_12  and  C_15
    9  A    between atoms: C_15  and  C_23
   10  A    between atoms: C_17  and  C_22
   11  A    between atoms: O_19  and  C_25
   12  A    between atoms: N_26  and  C_27
   13  A    between atoms: C_27  and  C_30
                            x       y       z     vdW  Elec       q    Type
                         _______ _______ _______ _____ _____    ______ ____

>  <TORSDO>
F 13

$$$$
=
 OpenBabel11072410273D

 32 35  0  0  1  0  0  0  0  0999 V2000
  161.1820  206.6690  150.8910 C   0  0  0  0  0  0  0  0  0  0  0  0
  161.5760  208.2610  149.0930 C   0  0  0  0  0  3  0  0  0  0  0  0
  162.3350  210.5880  149.5160 C   0  0  0  0  0  1  0  0  0  0  0  0
  161.1980  206.9810  149.5160 C   0  0  0  0  0  0  0  0  0  0  0  0
  161.9400  209.2400  150.0180 C   0  0  0  0  0  0  0  0  0  0  0  0
  161.9240  208.9430  151.3910 C   0  0  0  0  0  0  0  0  0  0  0  0
  161.5550  207.6640  151.8160 C   0  0  0  0  0  3  0  0  0  0  0  0
  161.2270  204.2220  150.4330 C   0  0  0  0  0  2  0  0  0  0  0  0
  161.0630  204.8800  152.7300 C   0  0  1  0  0  3  0  0  0  0  0  0
  161.9960  204.4670  151.6670 N   0  0  2  0  0  0  0  0  0  0  0  0
  161.6590  205.9520  153.5140 N   0  0  0  0  0  1  0  0  0  0  0  0
  160.7830  205.2710  151.3400 C   0  0  2  0  0  0  0  0  0  0  0  0
  160.8140  205.9710  148.4820 C   0  0  0  0  0  2  0  0  0  0  0  0
  161.3630  205.4240  145.0790 C   0  0  2  0  0  3  0  0  0  0  0  0
  161.3920  206.3200  147.1920 N   0  0  0  0  0  0  0  0  0  0  0  0
  162.6340  205.5720  147.0700 C   0  0  0  0  0  2  0  0  0  0  0  0
  162.7140  205.0830  145.6500 C   0  0  0  0  0  2  0  0  0  0  0  0
  160.5260  205.8250  146.1990 N   0  0  0  0  0  2  0  0  0  0  0  0
  160.7450  204.2200  144.3870 C   0  0  0  0  0  2  0  0  0  0  0  0
  160.8270  202.9820  145.2650 C   0  0  0  0  0  2  0  0  0  0  0  0
  159.8440  202.0620  144.8970 O   0  0  0  0  0  0  0  0  0  0  0  0
  160.3830  200.8860  145.1420 O   0  0  0  0  0  1  0  0  0  0  0  0
  162.3260  209.9520  152.4180 C   0  0  0  0  0  2  0  0  0  0  0  0
  161.5590  209.7560  153.6370 N   0  0  0  0  0  2  0  0  0  0  0  0
  160.9030  211.0180  153.9390 C   0  0  0  0  0  2  0  0  0  0  0  0
  159.4800  211.0110  153.4070 C   0  0  0  0  0  2  0  0  0  0  0  0
  158.6840  212.1810  153.9620 C   0  0  2  0  0  3  0  0  0  0  0  0
  157.3170  211.9040  153.8910 O   0  0  0  0  0  1  0  0  0  0  0  0
  158.9780  213.3740  153.1820 N   0  0  0  0  0  2  0  0  0  0  0  0
  159.6790  213.3350  150.8590 C   0  0  0  0  0  1  0  0  0  0  0  0
  158.5270  213.1280  151.8230 C   0  0  0  0  0  3  0  0  0  0  0  0
  157.4100  214.0910  151.4800 C   0  0  0  0  0  1  0  0  0  0  0  0
  1  7  1  0  0  0  0
  2  4  1  0  0  0  0
  2  5  2  0  0  0  0
  3  5  1  0  0  0  0
  4  1  2  0  0  0  0
  5  6  1  0  0  0  0
  6  7  2  0  0  0  0
  6 23  1  0  0  0  0
  8 12  1  0  0  0  0
  9 11  1  1  0  0  0
 10  8  1  6  0  0  0
 10  9  1  0  0  0  0
 12  1  1  6  0  0  0
 12 10  1  0  0  0  0
 12  9  1  0  0  0  0
 13  4  1  0  0  0  0
 14 19  1  1  0  0  0
 14 17  1  0  0  0  0
 14 18  1  0  0  0  0
 15 13  1  0  0  0  0
 16 15  1  0  0  0  0
 17 16  1  0  0  0  0
 18 15  1  0  0  0  0
 19 20  1  0  0  0  0
 21 22  1  0  0  0  0
 21 20  1  0  0  0  0
 23 24  1  0  0  0  0
 24 25  1  0  0  0  0
 26 25  1  0  0  0  0
 26 27  1  0  0  0  0
 27 28  1  6  0  0  0
 29 27  1  0  0  0  0
 30 31  1  0  0  0  0
 31 29  1  0  0  0  0
 32 31  1  0  0  0  0
M  END
>  <MODEL>
9

>  <REMARK>
 VINA RESULT:      -5.9      2.464      8.600
  Name = 
  13 active torsions:
  status: ('A' for Active; 'I' for Inactive)
    1  A    between atoms: C_2  and  C_4
    2  A    between atoms: C_3  and  C_23
    3  A    between atoms: C_3  and  N_26
    4  A    between atoms: C_4  and  C_25
    5  A    between atoms: C_6  and  C_29
    6  A    between atoms: N_8  and  C_22
    7  A    between atoms: C_11  and  N_12
    8  A    between atoms: N_12  and  C_15
    9  A    between atoms: C_15  and  C_23
   10  A    between atoms: C_17  and  C_22
   11  A    between atoms: O_19  and  C_25
   12  A    between atoms: N_26  and  C_27
   13  A    between atoms: C_27  and  C_30
                            x       y       z     vdW  Elec       q    Type
                         _______ _______ _______ _____ _____    ______ ____

>  <TORSDO>
F 13

$$$$
