=
 OpenBabel11072415243D

 25 28  0  0  1  0  0  0  0  0999 V2000
  161.8040  209.3390  149.7360 C   0  0  0  0  0  2  0  0  0  0  0  0
  161.8380  208.5710  150.9760 N   0  0  0  0  0  2  0  0  0  0  0  0
  161.5200  207.2120  148.4970 C   0  0  0  0  0  2  0  0  0  0  0  0
  161.0830  204.4880  153.4800 O   0  0  0  0  0  1  0  0  0  0  0  0
  161.3720  205.0220  149.8090 C   0  0  0  0  0  0  0  0  0  0  0  0
  161.5870  207.2110  153.4070 O   0  0  0  0  0  1  0  0  0  0  0  0
  161.3260  204.1720  148.5710 C   0  0  0  0  0  0  0  0  0  0  0  0
  160.3930  202.3700  149.8400 C   0  0  0  0  0  0  0  0  0  0  0  0
  161.4890  206.4950  152.2190 C   0  0  0  0  0  0  0  0  0  0  0  0
  161.2450  205.1230  152.2530 C   0  0  0  0  0  0  0  0  0  0  0  0
  161.5520  206.4300  149.7830 C   0  0  0  0  0  0  0  0  0  0  0  0
  159.7050  201.3170  149.8090 O   0  0  0  0  0  0  0  0  0  0  0  0
  162.7330  205.4700  146.4470 C   0  0  0  0  0  2  0  0  0  0  0  0
  161.9100  204.5890  147.3360 N   0  0  0  0  0  0  0  0  0  0  0  0
  160.8270  202.9740  148.6220 N   0  0  0  0  0  0  0  0  0  0  0  0
  161.1570  204.3890  151.0600 C   0  0  0  0  0  0  0  0  0  0  0  0
  162.3400  208.4950  148.5900 C   0  0  0  0  0  2  0  0  0  0  0  0
  160.8530  202.9190  151.1500 C   0  0  0  0  0  2  0  0  0  0  0  0
  162.1730  204.3400  145.8860 C   0  0  1  0  0  3  0  0  0  0  0  0
  161.6150  207.1540  150.9940 C   0  0  0  0  0  0  0  0  0  0  0  0
  160.9190  204.6210  145.0330 C   0  0  1  0  0  3  0  0  0  0  0  0
  161.0820  205.6640  143.9280 C   0  0  0  0  0  1  0  0  0  0  0  0
  160.4350  203.4290  144.4900 O   0  0  0  0  0  0  0  0  0  0  0  0
  160.8180  202.4390  145.3970 C   0  0  0  0  0  2  0  0  0  0  0  0
  160.0270  201.1770  145.1320 C   0  0  0  0  0  1  0  0  0  0  0  0
  1  2  1  0  0  0  0
  2 20  1  0  0  0  0
  3 17  1  0  0  0  0
  3 11  1  0  0  0  0
  5 16  1  0  0  0  0
  7 15  2  0  0  0  0
  7  5  1  0  0  0  0
  8 18  1  0  0  0  0
  9 10  1  0  0  0  0
  9  6  1  0  0  0  0
 10  4  1  0  0  0  0
 11  5  2  0  0  0  0
 11 20  1  0  0  0  0
 12  8  2  0  0  0  0
 13 14  1  0  0  0  0
 14  7  1  0  0  0  0
 15  8  1  0  0  0  0
 16 18  1  0  0  0  0
 16 10  2  0  0  0  0
 17  1  1  0  0  0  0
 19 21  1  6  0  0  0
 19 13  1  0  0  0  0
 19 14  1  0  0  0  0
 20  9  2  0  0  0  0
 21 22  1  6  0  0  0
 23 21  1  0  0  0  0
 23 24  1  0  0  0  0
 25 24  1  0  0  0  0
M  END
>  <MODEL>
1

>  <REMARK>
 VINA RESULT:      -9.4      0.000      0.000
  Name = 
  3 active torsions:
  status: ('A' for Active; 'I' for Inactive)
    1  A    between atoms: C_4  and  O_5
    2  A    between atoms: C_4  and  C_24
    3  A    between atoms: O_5  and  C_9
                            x       y       z     vdW  Elec       q    Type
                         _______ _______ _______ _____ _____    ______ ____

>  <TORSDO>
F 3

$$$$
=
 OpenBabel11072415243D

 25 28  0  0  1  0  0  0  0  0999 V2000
  160.1860  201.7560  149.6690 C   0  0  0  0  0  2  0  0  0  0  0  0
  160.7570  202.2490  148.4200 N   0  0  0  0  0  2  0  0  0  0  0  0
  160.6500  203.9690  150.6830 C   0  0  0  0  0  2  0  0  0  0  0  0
  162.2810  205.8580  145.5620 O   0  0  0  0  0  1  0  0  0  0  0  0
  161.6900  205.8040  149.2350 C   0  0  0  0  0  0  0  0  0  0  0  0
  161.5330  203.2140  145.9120 O   0  0  0  0  0  1  0  0  0  0  0  0
  161.8100  206.7700  150.3780 C   0  0  0  0  0  0  0  0  0  0  0  0
  161.9800  208.5860  148.8290 C   0  0  0  0  0  0  0  0  0  0  0  0
  161.5580  204.0740  147.0040 C   0  0  0  0  0  0  0  0  0  0  0  0
  161.9430  205.4020  146.8330 C   0  0  0  0  0  0  0  0  0  0  0  0
  161.2340  204.4680  149.3870 C   0  0  0  0  0  0  0  0  0  0  0  0
  161.8230  209.8210  148.6460 O   0  0  0  0  0  0  0  0  0  0  0  0
  162.1360  205.3390  152.8330 C   0  0  0  0  0  2  0  0  0  0  0  0
  161.9400  206.3380  151.7340 N   0  0  0  0  0  0  0  0  0  0  0  0
  161.8980  208.0450  150.1470 N   0  0  0  0  0  0  0  0  0  0  0  0
  161.9840  206.2750  147.9300 C   0  0  0  0  0  0  0  0  0  0  0  0
  160.8350  202.4650  150.8480 C   0  0  0  0  0  2  0  0  0  0  0  0
  162.3680  207.7080  147.6860 C   0  0  0  0  0  2  0  0  0  0  0  0
  162.0380  206.6690  153.1880 C   0  0  1  0  0  3  0  0  0  0  0  0
  161.1780  203.6110  148.2650 C   0  0  0  0  0  0  0  0  0  0  0  0
  160.6620  207.0600  153.7670 C   0  0  1  0  0  3  0  0  0  0  0  0
  160.5390  207.0120  155.2900 C   0  0  0  0  0  1  0  0  0  0  0  0
  160.2930  208.3250  153.3040 O   0  0  0  0  0  0  0  0  0  0  0  0
  161.1890  209.2060  153.9120 C   0  0  0  0  0  2  0  0  0  0  0  0
  161.5020  210.3430  152.9630 C   0  0  0  0  0  1  0  0  0  0  0  0
  1 17  1  0  0  0  0
  2  1  1  0  0  0  0
  3 17  1  0  0  0  0
  4 10  1  0  0  0  0
  5 11  1  0  0  0  0
  5  7  1  0  0  0  0
  6  9  1  0  0  0  0
  7 14  1  0  0  0  0
  8 15  1  0  0  0  0
  9 20  1  0  0  0  0
 10  9  2  0  0  0  0
 10 16  1  0  0  0  0
 11  3  1  0  0  0  0
 12  8  2  0  0  0  0
 13 19  1  0  0  0  0
 14 13  1  0  0  0  0
 14 19  1  0  0  0  0
 15  7  2  0  0  0  0
 16  5  2  0  0  0  0
 18 16  1  0  0  0  0
 18  8  1  0  0  0  0
 19 21  1  1  0  0  0
 20  2  1  0  0  0  0
 20 11  2  0  0  0  0
 21 22  1  1  0  0  0
 23 21  1  0  0  0  0
 23 24  1  0  0  0  0
 25 24  1  0  0  0  0
M  END
>  <MODEL>
2

>  <REMARK>
 VINA RESULT:      -9.3      2.006      7.235
  Name = 
  3 active torsions:
  status: ('A' for Active; 'I' for Inactive)
    1  A    between atoms: C_4  and  O_5
    2  A    between atoms: C_4  and  C_24
    3  A    between atoms: O_5  and  C_9
                            x       y       z     vdW  Elec       q    Type
                         _______ _______ _______ _____ _____    ______ ____

>  <TORSDO>
F 3

$$$$
=
 OpenBabel11072415243D

 25 28  0  0  1  0  0  0  0  0999 V2000
  160.6840  203.5370  152.2250 C   0  0  0  0  0  2  0  0  0  0  0  0
  160.7870  202.5540  151.1530 N   0  0  0  0  0  2  0  0  0  0  0  0
  161.1320  205.3140  150.5570 C   0  0  0  0  0  2  0  0  0  0  0  0
  160.8990  201.3730  146.4500 O   0  0  0  0  0  1  0  0  0  0  0  0
  161.4410  204.6630  148.1030 C   0  0  0  0  0  0  0  0  0  0  0  0
  160.6460  200.6460  149.1110 O   0  0  0  0  0  1  0  0  0  0  0  0
  161.7680  206.0640  147.6730 C   0  0  0  0  0  0  0  0  0  0  0  0
  161.2260  205.4990  145.4110 C   0  0  0  0  0  0  0  0  0  0  0  0
  160.8810  201.9760  148.7790 C   0  0  0  0  0  0  0  0  0  0  0  0
  161.0180  202.3430  147.4420 C   0  0  0  0  0  0  0  0  0  0  0  0
  161.2320  204.2900  149.4570 C   0  0  0  0  0  0  0  0  0  0  0  0
  160.8600  205.9280  144.2860 O   0  0  0  0  0  0  0  0  0  0  0  0
  162.9960  207.4830  149.8300 C   0  0  0  0  0  2  0  0  0  0  0  0
  162.3510  207.0200  148.5610 N   0  0  0  0  0  0  0  0  0  0  0  0
  161.6130  206.4180  146.4330 N   0  0  0  0  0  0  0  0  0  0  0  0
  161.2680  203.6790  147.0950 C   0  0  0  0  0  0  0  0  0  0  0  0
  161.5550  204.7420  151.9060 C   0  0  0  0  0  2  0  0  0  0  0  0
  161.3690  204.0300  145.6360 C   0  0  0  0  0  2  0  0  0  0  0  0
  162.8330  208.4100  148.8210 C   0  0  1  0  0  3  0  0  0  0  0  0
  160.9590  202.9430  149.7830 C   0  0  0  0  0  0  0  0  0  0  0  0
  161.6530  209.3780  149.0470 C   0  0  1  0  0  3  0  0  0  0  0  0
  161.5370  209.9750  150.4500 C   0  0  0  0  0  1  0  0  0  0  0  0
  161.6900  210.4030  148.1000 O   0  0  0  0  0  0  0  0  0  0  0  0
  162.1000  211.5340  148.8090 C   0  0  0  0  0  2  0  0  0  0  0  0
  163.0420  212.3530  147.9530 C   0  0  0  0  0  1  0  0  0  0  0  0
  2  1  1  0  0  0  0
  3 17  1  0  0  0  0
  4 10  1  0  0  0  0
  5 11  1  0  0  0  0
  7  5  1  0  0  0  0
  7 14  1  0  0  0  0
  8 18  1  0  0  0  0
  8 15  1  0  0  0  0
  9  6  1  0  0  0  0
  9 20  1  0  0  0  0
 10  9  2  0  0  0  0
 11 20  2  0  0  0  0
 11  3  1  0  0  0  0
 12  8  2  0  0  0  0
 14 19  1  0  0  0  0
 14 13  1  0  0  0  0
 15  7  2  0  0  0  0
 16 10  1  0  0  0  0
 16  5  2  0  0  0  0
 17  1  1  0  0  0  0
 18 16  1  0  0  0  0
 19 21  1  1  0  0  0
 19 13  1  0  0  0  0
 20  2  1  0  0  0  0
 21 22  1  1  0  0  0
 23 24  1  0  0  0  0
 23 21  1  0  0  0  0
 25 24  1  0  0  0  0
M  END
>  <MODEL>
3

>  <REMARK>
 VINA RESULT:      -8.6      2.311      6.094
  Name = 
  3 active torsions:
  status: ('A' for Active; 'I' for Inactive)
    1  A    between atoms: C_4  and  O_5
    2  A    between atoms: C_4  and  C_24
    3  A    between atoms: O_5  and  C_9
                            x       y       z     vdW  Elec       q    Type
                         _______ _______ _______ _____ _____    ______ ____

>  <TORSDO>
F 3

$$$$
=
 OpenBabel11072415243D

 25 28  0  0  1  0  0  0  0  0999 V2000
  161.2120  203.8320  152.4240 C   0  0  0  0  0  2  0  0  0  0  0  0
  161.0540  205.0660  153.1860 N   0  0  0  0  0  2  0  0  0  0  0  0
  161.4460  205.2000  150.3710 C   0  0  0  0  0  2  0  0  0  0  0  0
  161.4030  209.8840  153.6120 O   0  0  0  0  0  1  0  0  0  0  0  0
  161.3800  207.7490  150.5650 C   0  0  0  0  0  0  0  0  0  0  0  0
  161.0680  207.3820  154.7540 O   0  0  0  0  0  1  0  0  0  0  0  0
  161.4540  207.9590  149.0800 C   0  0  0  0  0  0  0  0  0  0  0  0
  162.1950  210.2080  149.4320 C   0  0  0  0  0  0  0  0  0  0  0  0
  161.1980  207.4990  153.3740 C   0  0  0  0  0  0  0  0  0  0  0  0
  161.3570  208.7570  152.7970 C   0  0  0  0  0  0  0  0  0  0  0  0
  161.2860  206.4670  151.1680 C   0  0  0  0  0  0  0  0  0  0  0  0
  162.8190  211.1890  148.9520 O   0  0  0  0  0  0  0  0  0  0  0  0
  160.2650  205.7410  147.7220 C   0  0  0  0  0  2  0  0  0  0  0  0
  160.9750  206.9900  148.1460 N   0  0  0  0  0  0  0  0  0  0  0  0
  161.8750  209.0910  148.6020 N   0  0  0  0  0  0  0  0  0  0  0  0
  161.4770  208.8880  151.4050 C   0  0  0  0  0  0  0  0  0  0  0  0
  160.7010  204.0310  151.0060 C   0  0  0  0  0  2  0  0  0  0  0  0
  161.6860  210.2640  150.8340 C   0  0  0  0  0  2  0  0  0  0  0  0
  160.7900  206.5450  146.7310 C   0  0  1  0  0  3  0  0  0  0  0  0
  161.1900  206.3560  152.5730 C   0  0  0  0  0  0  0  0  0  0  0  0
  162.1110  206.0170  146.1330 C   0  0  1  0  0  3  0  0  0  0  0  0
  162.9730  205.1650  147.0650 C   0  0  0  0  0  1  0  0  0  0  0  0
  161.8520  205.3130  144.9550 O   0  0  0  0  0  0  0  0  0  0  0  0
  162.0870  203.9750  145.2770 C   0  0  0  0  0  2  0  0  0  0  0  0
  160.8060  203.1840  145.1120 C   0  0  0  0  0  1  0  0  0  0  0  0
  1  2  1  0  0  0  0
  3 17  1  0  0  0  0
  3 11  1  0  0  0  0
  5 11  2  0  0  0  0
  5 16  1  0  0  0  0
  7  5  1  0  0  0  0
  8 18  1  0  0  0  0
  9  6  1  0  0  0  0
 10  9  1  0  0  0  0
 10  4  1  0  0  0  0
 11 20  1  0  0  0  0
 12  8  2  0  0  0  0
 13 14  1  0  0  0  0
 14  7  1  0  0  0  0
 15  7  2  0  0  0  0
 15  8  1  0  0  0  0
 16 10  2  0  0  0  0
 17  1  1  0  0  0  0
 18 16  1  0  0  0  0
 19 21  1  1  0  0  0
 19 13  1  0  0  0  0
 19 14  1  0  0  0  0
 20  2  1  0  0  0  0
 20  9  2  0  0  0  0
 21 22  1  1  0  0  0
 23 24  1  0  0  0  0
 23 21  1  0  0  0  0
 25 24  1  0  0  0  0
M  END
>  <MODEL>
4

>  <REMARK>
 VINA RESULT:      -8.4      2.222      4.510
  Name = 
  3 active torsions:
  status: ('A' for Active; 'I' for Inactive)
    1  A    between atoms: C_4  and  O_5
    2  A    between atoms: C_4  and  C_24
    3  A    between atoms: O_5  and  C_9
                            x       y       z     vdW  Elec       q    Type
                         _______ _______ _______ _____ _____    ______ ____

>  <TORSDO>
F 3

$$$$
=
 OpenBabel11072415243D

 25 28  0  0  1  0  0  0  0  0999 V2000
  161.7960  209.3320  149.8170 C   0  0  0  0  0  2  0  0  0  0  0  0
  161.8290  208.5120  151.0230 N   0  0  0  0  0  2  0  0  0  0  0  0
  161.5060  207.2610  148.4890 C   0  0  0  0  0  2  0  0  0  0  0  0
  161.0680  204.3270  153.3510 O   0  0  0  0  0  1  0  0  0  0  0  0
  161.3540  205.0170  149.7060 C   0  0  0  0  0  0  0  0  0  0  0  0
  161.5780  207.0490  153.3940 O   0  0  0  0  0  1  0  0  0  0  0  0
  161.3040  204.2210  148.4340 C   0  0  0  0  0  0  0  0  0  0  0  0
  160.3680  202.3680  149.6260 C   0  0  0  0  0  0  0  0  0  0  0  0
  161.4770  206.3850  152.1770 C   0  0  0  0  0  0  0  0  0  0  0  0
  161.2300  205.0140  152.1530 C   0  0  0  0  0  0  0  0  0  0  0  0
  161.5370  206.4240  149.7400 C   0  0  0  0  0  0  0  0  0  0  0  0
  159.6780  201.3190  149.5500 O   0  0  0  0  0  0  0  0  0  0  0  0
  162.7120  205.6050  146.3650 C   0  0  0  0  0  2  0  0  0  0  0  0
  161.8880  204.6890  147.2170 N   0  0  0  0  0  0  0  0  0  0  0  0
  160.8030  203.0230  148.4340 N   0  0  0  0  0  0  0  0  0  0  0  0
  161.1390  204.3310  150.9300 C   0  0  0  0  0  0  0  0  0  0  0  0
  162.3290  208.5360  148.6360 C   0  0  0  0  0  2  0  0  0  0  0  0
  160.8310  202.8600  150.9570 C   0  0  0  0  0  2  0  0  0  0  0  0
  162.1490  204.5010  145.7570 C   0  0  1  0  0  3  0  0  0  0  0  0
  161.6030  207.0960  150.9810 C   0  0  0  0  0  0  0  0  0  0  0  0
  160.8940  204.8220  144.9180 C   0  0  1  0  0  3  0  0  0  0  0  0
  160.1770  206.1280  145.2600 C   0  0  0  0  0  1  0  0  0  0  0  0
  161.2120  204.7990  143.5590 O   0  0  0  0  0  0  0  0  0  0  0  0
  161.5710  206.1130  143.2510 C   0  0  0  0  0  2  0  0  0  0  0  0
  161.9540  206.2030  141.7900 C   0  0  0  0  0  1  0  0  0  0  0  0
  1  2  1  0  0  0  0
  3 17  1  0  0  0  0
  3 11  1  0  0  0  0
  5 11  2  0  0  0  0
  5 16  1  0  0  0  0
  7  5  1  0  0  0  0
  8 18  1  0  0  0  0
  9  6  1  0  0  0  0
 10  9  1  0  0  0  0
 10  4  1  0  0  0  0
 11 20  1  0  0  0  0
 12  8  2  0  0  0  0
 13 14  1  0  0  0  0
 14  7  1  0  0  0  0
 15  7  2  0  0  0  0
 15  8  1  0  0  0  0
 16 18  1  0  0  0  0
 16 10  2  0  0  0  0
 17  1  1  0  0  0  0
 19 21  1  6  0  0  0
 19 13  1  0  0  0  0
 19 14  1  0  0  0  0
 20  2  1  0  0  0  0
 20  9  2  0  0  0  0
 21 22  1  1  0  0  0
 23 21  1  0  0  0  0
 24 23  1  0  0  0  0
 25 24  1  0  0  0  0
M  END
>  <MODEL>
5

>  <REMARK>
 VINA RESULT:      -8.2      0.995      1.619
  Name = 
  3 active torsions:
  status: ('A' for Active; 'I' for Inactive)
    1  A    between atoms: C_4  and  O_5
    2  A    between atoms: C_4  and  C_24
    3  A    between atoms: O_5  and  C_9
                            x       y       z     vdW  Elec       q    Type
                         _______ _______ _______ _____ _____    ______ ____

>  <TORSDO>
F 3

$$$$
=
 OpenBabel11072415243D

 25 28  0  0  1  0  0  0  0  0999 V2000
  160.8850  201.9030  151.6710 C   0  0  0  0  0  2  0  0  0  0  0  0
  161.0200  201.4010  150.3080 N   0  0  0  0  0  2  0  0  0  0  0  0
  161.0910  204.2060  150.7780 C   0  0  0  0  0  2  0  0  0  0  0  0
  161.0000  202.0580  145.5030 O   0  0  0  0  0  1  0  0  0  0  0  0
  161.3330  204.5410  148.2540 C   0  0  0  0  0  0  0  0  0  0  0  0
  160.9440  200.3780  147.7050 O   0  0  0  0  0  1  0  0  0  0  0  0
  161.5130  206.0270  148.3730 C   0  0  0  0  0  0  0  0  0  0  0  0
  160.9110  206.2860  146.0710 C   0  0  0  0  0  0  0  0  0  0  0  0
  161.0450  201.7530  147.8880 C   0  0  0  0  0  0  0  0  0  0  0  0
  161.0820  202.5990  146.7820 C   0  0  0  0  0  0  0  0  0  0  0  0
  161.2250  203.6760  149.3750 C   0  0  0  0  0  0  0  0  0  0  0  0
  160.4520  207.0610  145.1920 O   0  0  0  0  0  0  0  0  0  0  0  0
  162.7180  206.6650  150.8860 C   0  0  0  0  0  2  0  0  0  0  0  0
  162.0540  206.6410  149.5440 N   0  0  0  0  0  0  0  0  0  0  0  0
  161.2660  206.7960  147.3560 N   0  0  0  0  0  0  0  0  0  0  0  0
  161.1970  203.9870  146.9550 C   0  0  0  0  0  0  0  0  0  0  0  0
  161.6290  203.2220  151.8110 C   0  0  0  0  0  2  0  0  0  0  0  0
  161.1930  204.8600  145.7310 C   0  0  0  0  0  2  0  0  0  0  0  0
  162.4240  207.8770  150.2970 C   0  0  1  0  0  3  0  0  0  0  0  0
  161.0880  202.2840  149.1790 C   0  0  0  0  0  0  0  0  0  0  0  0
  161.1760  208.5700  150.8840 C   0  0  1  0  0  3  0  0  0  0  0  0
  160.6480  207.9950  152.1970 C   0  0  0  0  0  1  0  0  0  0  0  0
  161.4160  209.9380  151.0300 O   0  0  0  0  0  0  0  0  0  0  0  0
  161.1650  210.2050  152.3770 C   0  0  0  0  0  2  0  0  0  0  0  0
  160.4920  211.5550  152.5080 C   0  0  0  0  0  1  0  0  0  0  0  0
  1 17  1  0  0  0  0
  2  1  1  0  0  0  0
  3 17  1  0  0  0  0
  4 10  1  0  0  0  0
  5  7  1  0  0  0  0
  5 11  1  0  0  0  0
  6  9  1  0  0  0  0
  7 14  1  0  0  0  0
  8 15  1  0  0  0  0
  9 20  1  0  0  0  0
 10 16  1  0  0  0  0
 10  9  2  0  0  0  0
 11  3  1  0  0  0  0
 12  8  2  0  0  0  0
 14 19  1  0  0  0  0
 14 13  1  0  0  0  0
 15  7  2  0  0  0  0
 16  5  2  0  0  0  0
 18  8  1  0  0  0  0
 18 16  1  0  0  0  0
 19 21  1  1  0  0  0
 19 13  1  0  0  0  0
 20 11  2  0  0  0  0
 20  2  1  0  0  0  0
 21 23  1  0  0  0  0
 21 22  1  1  0  0  0
 23 24  1  0  0  0  0
 24 25  1  0  0  0  0
M  END
>  <MODEL>
6

>  <REMARK>
 VINA RESULT:      -7.8      2.127      6.720
  Name = 
  3 active torsions:
  status: ('A' for Active; 'I' for Inactive)
    1  A    between atoms: C_4  and  O_5
    2  A    between atoms: C_4  and  C_24
    3  A    between atoms: O_5  and  C_9
                            x       y       z     vdW  Elec       q    Type
                         _______ _______ _______ _____ _____    ______ ____

>  <TORSDO>
F 3

$$$$
=
 OpenBabel11072415243D

 25 28  0  0  1  0  0  0  0  0999 V2000
  161.5580  205.6340  153.4930 C   0  0  0  0  0  2  0  0  0  0  0  0
  161.5210  206.8880  152.7500 N   0  0  0  0  0  2  0  0  0  0  0  0
  161.4930  204.4220  151.3320 C   0  0  0  0  0  2  0  0  0  0  0  0
  161.9560  209.4180  148.6360 O   0  0  0  0  0  1  0  0  0  0  0  0
  161.4700  205.7660  149.1560 C   0  0  0  0  0  0  0  0  0  0  0  0
  161.7810  209.3240  151.3990 O   0  0  0  0  0  1  0  0  0  0  0  0
  161.3240  204.5460  148.2930 C   0  0  0  0  0  0  0  0  0  0  0  0
  162.1210  205.7840  146.4060 C   0  0  0  0  0  0  0  0  0  0  0  0
  161.7050  208.1470  150.6620 C   0  0  0  0  0  0  0  0  0  0  0  0
  161.7840  208.1920  149.2720 C   0  0  0  0  0  0  0  0  0  0  0  0
  161.4590  205.7240  150.5760 C   0  0  0  0  0  0  0  0  0  0  0  0
  162.6730  205.7260  145.2760 O   0  0  0  0  0  0  0  0  0  0  0  0
  159.9340  202.4990  149.7260 C   0  0  0  0  0  2  0  0  0  0  0  0
  160.7060  203.3470  148.7630 N   0  0  0  0  0  0  0  0  0  0  0  0
  161.6760  204.5870  147.0430 N   0  0  0  0  0  0  0  0  0  0  0  0
  161.6970  207.0120  148.5170 C   0  0  0  0  0  0  0  0  0  0  0  0
  160.8430  204.5460  152.7060 C   0  0  0  0  0  2  0  0  0  0  0  0
  161.8270  207.1110  147.0230 C   0  0  0  0  0  2  0  0  0  0  0  0
  160.3110  201.9240  148.5300 C   0  0  1  0  0  3  0  0  0  0  0  0
  161.5720  206.9210  151.3170 C   0  0  0  0  0  0  0  0  0  0  0  0
  161.5260  200.9800  148.6460 C   0  0  1  0  0  3  0  0  0  0  0  0
  161.9430  200.5980  150.0660 C   0  0  0  0  0  1  0  0  0  0  0  0
  161.3050  199.8250  147.8920 O   0  0  0  0  0  0  0  0  0  0  0  0
  161.2060  200.2710  146.5720 C   0  0  0  0  0  2  0  0  0  0  0  0
  161.2060  199.0820  145.6360 C   0  0  0  0  0  1  0  0  0  0  0  0
  2  1  1  0  0  0  0
  3 17  1  0  0  0  0
  4 10  1  0  0  0  0
  5 11  1  0  0  0  0
  7 14  1  0  0  0  0
  7  5  1  0  0  0  0
  8 18  1  0  0  0  0
  8 15  1  0  0  0  0
  9 20  1  0  0  0  0
  9  6  1  0  0  0  0
 10  9  2  0  0  0  0
 11 20  2  0  0  0  0
 11  3  1  0  0  0  0
 12  8  2  0  0  0  0
 14 13  1  0  0  0  0
 15  7  2  0  0  0  0
 16  5  2  0  0  0  0
 16 10  1  0  0  0  0
 17  1  1  0  0  0  0
 18 16  1  0  0  0  0
 19 21  1  1  0  0  0
 19 14  1  0  0  0  0
 19 13  1  0  0  0  0
 20  2  1  0  0  0  0
 21 22  1  1  0  0  0
 23 21  1  0  0  0  0
 24 23  1  0  0  0  0
 25 24  1  0  0  0  0
M  END
>  <MODEL>
7

>  <REMARK>
 VINA RESULT:      -7.8      1.973      4.360
  Name = 
  3 active torsions:
  status: ('A' for Active; 'I' for Inactive)
    1  A    between atoms: C_4  and  O_5
    2  A    between atoms: C_4  and  C_24
    3  A    between atoms: O_5  and  C_9
                            x       y       z     vdW  Elec       q    Type
                         _______ _______ _______ _____ _____    ______ ____

>  <TORSDO>
F 3

$$$$
=
 OpenBabel11072415243D

 25 28  0  0  1  0  0  0  0  0999 V2000
  161.4750  205.3700  144.6230 C   0  0  0  0  0  2  0  0  0  0  0  0
  161.1540  203.9590  144.8040 N   0  0  0  0  0  2  0  0  0  0  0  0
  161.5190  205.6130  147.0890 C   0  0  0  0  0  2  0  0  0  0  0  0
  160.8550  199.9750  147.5530 O   0  0  0  0  0  1  0  0  0  0  0  0
  161.1110  203.5520  148.5470 C   0  0  0  0  0  0  0  0  0  0  0  0
  160.8620  201.1890  145.0630 O   0  0  0  0  0  1  0  0  0  0  0  0
  161.1530  204.3320  149.8290 C   0  0  0  0  0  0  0  0  0  0  0  0
  161.5870  202.3160  151.0440 C   0  0  0  0  0  0  0  0  0  0  0  0
  160.9710  201.9670  146.2100 C   0  0  0  0  0  0  0  0  0  0  0  0
  160.9590  201.3600  147.4640 C   0  0  0  0  0  0  0  0  0  0  0  0
  161.1920  204.1540  147.2630 C   0  0  0  0  0  0  0  0  0  0  0  0
  162.0730  201.8110  152.0890 O   0  0  0  0  0  0  0  0  0  0  0  0
  160.2690  207.0120  149.3670 C   0  0  0  0  0  2  0  0  0  0  0  0
  160.8060  205.7170  149.8930 N   0  0  0  0  0  0  0  0  0  0  0  0
  161.4180  203.7310  150.9490 N   0  0  0  0  0  0  0  0  0  0  0  0
  161.0570  202.1360  148.6290 C   0  0  0  0  0  0  0  0  0  0  0  0
  160.9380  206.1760  145.7960 C   0  0  0  0  0  2  0  0  0  0  0  0
  161.0780  201.4300  149.9560 C   0  0  0  0  0  2  0  0  0  0  0  0
  160.6790  206.9780  150.6840 C   0  0  1  0  0  3  0  0  0  0  0  0
  161.1140  203.3520  146.1030 C   0  0  0  0  0  0  0  0  0  0  0  0
  162.0580  207.6280  150.9260 C   0  0  1  0  0  3  0  0  0  0  0  0
  162.2520  209.0240  150.3330 C   0  0  0  0  0  1  0  0  0  0  0  0
  162.3390  207.6530  152.2930 O   0  0  0  0  0  0  0  0  0  0  0  0
  161.0990  207.8160  152.9130 C   0  0  0  0  0  2  0  0  0  0  0  0
  161.1100  207.1220  154.2580 C   0  0  0  0  0  1  0  0  0  0  0  0
  1  2  1  0  0  0  0
  1 17  1  0  0  0  0
  2 20  1  0  0  0  0
  3 11  1  0  0  0  0
  5 16  1  0  0  0  0
  5  7  1  0  0  0  0
  6  9  1  0  0  0  0
  7 14  1  0  0  0  0
  7 15  2  0  0  0  0
  8 12  2  0  0  0  0
  9 10  1  0  0  0  0
 10  4  1  0  0  0  0
 10 16  2  0  0  0  0
 11  5  2  0  0  0  0
 13 14  1  0  0  0  0
 13 19  1  0  0  0  0
 14 19  1  0  0  0  0
 15  8  1  0  0  0  0
 16 18  1  0  0  0  0
 17  3  1  0  0  0  0
 18  8  1  0  0  0  0
 19 21  1  6  0  0  0
 20  9  2  0  0  0  0
 20 11  1  0  0  0  0
 21 22  1  1  0  0  0
 21 23  1  0  0  0  0
 23 24  1  0  0  0  0
 24 25  1  0  0  0  0
M  END
>  <MODEL>
8

>  <REMARK>
 VINA RESULT:      -7.7      1.804      6.043
  Name = 
  3 active torsions:
  status: ('A' for Active; 'I' for Inactive)
    1  A    between atoms: C_4  and  O_5
    2  A    between atoms: C_4  and  C_24
    3  A    between atoms: O_5  and  C_9
                            x       y       z     vdW  Elec       q    Type
                         _______ _______ _______ _____ _____    ______ ____

>  <TORSDO>
F 3

$$$$
=
 OpenBabel11072415243D

 25 28  0  0  1  0  0  0  0  0999 V2000
  161.6390  207.2890  154.0540 C   0  0  0  0  0  2  0  0  0  0  0  0
  161.6170  208.3860  153.0920 N   0  0  0  0  0  2  0  0  0  0  0  0
  161.5290  205.7010  152.1540 C   0  0  0  0  0  2  0  0  0  0  0  0
  162.0550  210.1030  148.5780 O   0  0  0  0  0  1  0  0  0  0  0  0
  161.5070  206.6210  149.7680 C   0  0  0  0  0  0  0  0  0  0  0  0
  161.9070  210.5240  151.3120 O   0  0  0  0  0  1  0  0  0  0  0  0
  161.3290  205.2660  149.1450 C   0  0  0  0  0  0  0  0  0  0  0  0
  162.1290  206.1180  147.0570 C   0  0  0  0  0  0  0  0  0  0  0  0
  161.8020  209.2330  150.8060 C   0  0  0  0  0  0  0  0  0  0  0  0
  161.8670  209.0200  149.4300 C   0  0  0  0  0  0  0  0  0  0  0  0
  161.5110  206.8410  151.1710 C   0  0  0  0  0  0  0  0  0  0  0  0
  162.6680  205.8410  145.9530 O   0  0  0  0  0  0  0  0  0  0  0  0
  159.9180  203.5460  150.9420 C   0  0  0  0  0  2  0  0  0  0  0  0
  160.6950  204.1860  149.8330 N   0  0  0  0  0  0  0  0  0  0  0  0
  161.6690  205.0680  147.9070 N   0  0  0  0  0  0  0  0  0  0  0  0
  161.7500  207.7230  148.9080 C   0  0  0  0  0  0  0  0  0  0  0  0
  160.8960  206.0900  153.4860 C   0  0  0  0  0  2  0  0  0  0  0  0
  161.8650  207.5410  147.4200 C   0  0  0  0  0  2  0  0  0  0  0  0
  160.2720  202.7530  149.8700 C   0  0  1  0  0  3  0  0  0  0  0  0
  161.6530  208.1520  151.6770 C   0  0  0  0  0  0  0  0  0  0  0  0
  161.4700  201.8220  150.1500 C   0  0  1  0  0  3  0  0  0  0  0  0
  161.8050  201.5880  151.6230 C   0  0  0  0  0  1  0  0  0  0  0  0
  161.2800  200.5960  149.5080 O   0  0  0  0  0  0  0  0  0  0  0  0
  160.8500  200.9270  148.2210 C   0  0  0  0  0  2  0  0  0  0  0  0
  161.5720  200.0630  147.2090 C   0  0  0  0  0  1  0  0  0  0  0  0
  2  1  1  0  0  0  0
  3 17  1  0  0  0  0
  4 10  1  0  0  0  0
  5 11  1  0  0  0  0
  7  5  1  0  0  0  0
  7 14  1  0  0  0  0
  8 18  1  0  0  0  0
  8 15  1  0  0  0  0
  9  6  1  0  0  0  0
  9 20  1  0  0  0  0
 10  9  2  0  0  0  0
 11 20  2  0  0  0  0
 11  3  1  0  0  0  0
 12  8  2  0  0  0  0
 14 19  1  0  0  0  0
 14 13  1  0  0  0  0
 15  7  2  0  0  0  0
 16 10  1  0  0  0  0
 16  5  2  0  0  0  0
 17  1  1  0  0  0  0
 18 16  1  0  0  0  0
 19 21  1  1  0  0  0
 19 13  1  0  0  0  0
 20  2  1  0  0  0  0
 21 22  1  1  0  0  0
 23 21  1  0  0  0  0
 24 23  1  0  0  0  0
 25 24  1  0  0  0  0
M  END
>  <MODEL>
9

>  <REMARK>
 VINA RESULT:      -7.3      2.203      4.644
  Name = 
  3 active torsions:
  status: ('A' for Active; 'I' for Inactive)
    1  A    between atoms: C_4  and  O_5
    2  A    between atoms: C_4  and  C_24
    3  A    between atoms: O_5  and  C_9
                            x       y       z     vdW  Elec       q    Type
                         _______ _______ _______ _____ _____    ______ ____

>  <TORSDO>
F 3

$$$$
