=
 OpenBabel11072413163D

 27 29  0  0  1  0  0  0  0  0999 V2000
  161.7430  206.8120  148.3990 C   0  0  0  0  0  0  0  0  0  0  0  0
  161.4730  205.0000  146.8500 C   0  0  0  0  0  0  0  0  0  0  0  0
  161.0460  202.7730  147.7300 C   0  0  0  0  0  0  0  0  0  0  0  0
  161.3320  204.6690  149.2480 C   0  0  0  0  0  0  0  0  0  0  0  0
  161.1430  203.8090  150.3560 C   0  0  0  0  0  0  0  0  0  0  0  0
  161.0050  202.2750  146.3400 C   0  0  0  0  0  0  0  0  0  0  0  0
  161.7060  206.3530  147.0800 C   0  0  0  0  0  3  0  0  0  0  0  0
  161.4240  204.4650  145.4740 C   0  0  0  0  0  3  0  0  0  0  0  0
  161.9520  208.0320  148.6270 O   0  0  0  0  0  0  0  0  0  0  0  0
  160.7960  201.0580  146.0930 O   0  0  0  0  0  0  0  0  0  0  0  0
  161.2820  204.1400  147.9400 C   0  0  0  0  0  0  0  0  0  0  0  0
  161.2060  203.2000  145.2600 N   0  0  0  0  0  0  0  0  0  0  0  0
  160.8580  201.9280  148.8250 C   0  0  0  0  0  3  0  0  0  0  0  0
  161.5590  205.9720  149.4160 O   0  0  0  0  0  0  0  0  0  0  0  0
  160.9080  202.4430  150.1220 C   0  0  0  0  0  3  0  0  0  0  0  0
  160.6100  203.6190  152.6640 O   0  0  0  0  0  0  0  0  0  0  0  0
  161.8540  205.4990  152.1070 N   0  0  0  0  0  2  0  0  0  0  0  0
  161.1800  204.2880  151.7600 C   0  0  0  0  0  0  0  0  0  0  0  0
  161.8920  205.9550  153.4310 N   0  0  0  0  0  2  0  0  0  0  0  0
  160.7820  206.8790  153.5850 C   0  0  0  0  0  2  0  0  0  0  0  0
  161.2750  208.2010  154.1640 C   0  0  2  0  0  3  0  0  0  0  0  0
  160.8180  208.3390  155.6170 C   0  0  1  0  0  3  0  0  0  0  0  0
  159.7310  207.3270  155.9370 C   0  0  0  0  0  1  0  0  0  0  0  0
  161.8930  208.1280  156.4840 O   0  0  0  0  0  1  0  0  0  0  0  0
  160.7280  209.3600  153.3340 C   0  0  0  0  0  2  0  0  0  0  0  0
  161.0090  209.1610  151.8530 C   0  0  0  0  0  2  0  0  0  0  0  0
  162.3620  209.3740  151.5920 O   0  0  0  0  0  1  0  0  0  0  0  0
  1  9  2  0  0  0  0
  1 14  1  0  0  0  0
  2  7  2  0  0  0  0
  2 11  1  0  0  0  0
  3 11  2  0  0  0  0
  3 13  1  0  0  0  0
  4 14  1  0  0  0  0
  4  5  2  0  0  0  0
  5 18  1  0  0  0  0
  6  3  1  0  0  0  0
  7  1  1  0  0  0  0
  8  2  1  0  0  0  0
 10  6  2  0  0  0  0
 11  4  1  0  0  0  0
 12  8  2  0  0  0  0
 12  6  1  0  0  0  0
 13 15  2  0  0  0  0
 15  5  1  0  0  0  0
 17 19  1  0  0  0  0
 18 17  1  0  0  0  0
 18 16  2  0  0  0  0
 19 20  1  0  0  0  0
 20 21  1  0  0  0  0
 21 25  1  6  0  0  0
 21 22  1  0  0  0  0
 22 23  1  1  0  0  0
 22 24  1  0  0  0  0
 26 25  1  0  0  0  0
 27 26  1  0  0  0  0
M  END
>  <MODEL>
1

>  <REMARK>
 VINA RESULT:      -9.0      0.000      0.000
  Name = 
  7 active torsions:
  status: ('A' for Active; 'I' for Inactive)
    1  A    between atoms: C_3  and  C_25
    2  A    between atoms: C_4  and  C_14
    3  A    between atoms: N_5  and  N_18
    4  A    between atoms: N_5  and  C_22
    5  A    between atoms: C_9  and  C_19
    6  A    between atoms: C_14  and  C_25
    7  A    between atoms: C_22  and  C_25
                            x       y       z     vdW  Elec       q    Type
                         _______ _______ _______ _____ _____    ______ ____

>  <TORSDO>
F 7

$$$$
=
 OpenBabel11072413163D

 27 29  0  0  1  0  0  0  0  0999 V2000
  160.9460  204.0550  151.3640 C   0  0  0  0  0  0  0  0  0  0  0  0
  160.9030  202.7790  149.3320 C   0  0  0  0  0  0  0  0  0  0  0  0
  161.2830  203.9340  147.2270 C   0  0  0  0  0  0  0  0  0  0  0  0
  161.3130  205.1700  149.3370 C   0  0  0  0  0  0  0  0  0  0  0  0
  161.5790  206.3670  148.6320 C   0  0  0  0  0  0  0  0  0  0  0  0
  161.1210  202.6400  146.5340 C   0  0  0  0  0  0  0  0  0  0  0  0
  160.7910  202.8250  150.7190 C   0  0  0  0  0  3  0  0  0  0  0  0
  160.7470  201.5040  148.6050 C   0  0  0  0  0  3  0  0  0  0  0  0
  160.8490  204.1170  152.6180 O   0  0  0  0  0  0  0  0  0  0  0  0
  161.2150  202.5600  145.2800 O   0  0  0  0  0  0  0  0  0  0  0  0
  161.1670  203.9600  148.6240 C   0  0  0  0  0  0  0  0  0  0  0  0
  160.8510  201.4620  147.3080 N   0  0  0  0  0  0  0  0  0  0  0  0
  161.5460  205.1170  146.5340 C   0  0  0  0  0  3  0  0  0  0  0  0
  161.1960  205.1620  150.6660 O   0  0  0  0  0  0  0  0  0  0  0  0
  161.6910  206.3190  147.2310 C   0  0  0  0  0  3  0  0  0  0  0  0
  161.5560  208.7440  148.6610 O   0  0  0  0  0  0  0  0  0  0  0  0
  162.1180  207.7530  150.6850 N   0  0  0  0  0  2  0  0  0  0  0  0
  161.7460  207.6780  149.3080 C   0  0  0  0  0  0  0  0  0  0  0  0
  162.2760  208.9880  151.3270 N   0  0  0  0  0  2  0  0  0  0  0  0
  161.0570  209.2240  152.0810 C   0  0  0  0  0  2  0  0  0  0  0  0
  161.3930  209.7410  153.4760 C   0  0  2  0  0  3  0  0  0  0  0  0
  160.8360  208.7900  154.5350 C   0  0  1  0  0  3  0  0  0  0  0  0
  160.9310  207.3480  154.0660 C   0  0  0  0  0  1  0  0  0  0  0  0
  161.5520  208.9190  155.7260 O   0  0  0  0  0  1  0  0  0  0  0  0
  160.7980  211.1350  153.6620 C   0  0  0  0  0  2  0  0  0  0  0  0
  159.6750  211.3960  152.6710 C   0  0  0  0  0  2  0  0  0  0  0  0
  158.4520  211.4440  153.3400 O   0  0  0  0  0  1  0  0  0  0  0  0
  1  9  2  0  0  0  0
  2  7  2  0  0  0  0
  3 11  1  0  0  0  0
  4 14  1  0  0  0  0
  5 18  1  0  0  0  0
  5  4  1  0  0  0  0
  6  3  1  0  0  0  0
  6 12  1  0  0  0  0
  7  1  1  0  0  0  0
  8  2  1  0  0  0  0
 10  6  2  0  0  0  0
 11  2  1  0  0  0  0
 11  4  2  0  0  0  0
 12  8  2  0  0  0  0
 13  3  2  0  0  0  0
 13 15  1  0  0  0  0
 14  1  1  0  0  0  0
 15  5  2  0  0  0  0
 16 18  2  0  0  0  0
 17 19  1  0  0  0  0
 18 17  1  0  0  0  0
 19 20  1  0  0  0  0
 21 20  1  6  0  0  0
 21 25  1  0  0  0  0
 21 22  1  0  0  0  0
 22 23  1  6  0  0  0
 22 24  1  0  0  0  0
 26 27  1  0  0  0  0
 26 25  1  0  0  0  0
M  END
>  <MODEL>
2

>  <REMARK>
 VINA RESULT:      -8.6      1.654      3.361
  Name = 
  7 active torsions:
  status: ('A' for Active; 'I' for Inactive)
    1  A    between atoms: C_3  and  C_25
    2  A    between atoms: C_4  and  C_14
    3  A    between atoms: N_5  and  N_18
    4  A    between atoms: N_5  and  C_22
    5  A    between atoms: C_9  and  C_19
    6  A    between atoms: C_14  and  C_25
    7  A    between atoms: C_22  and  C_25
                            x       y       z     vdW  Elec       q    Type
                         _______ _______ _______ _____ _____    ______ ____

>  <TORSDO>
F 7

$$$$
=
 OpenBabel11072413163D

 27 29  0  0  1  0  0  0  0  0999 V2000
  161.1790  204.7640  152.3140 C   0  0  0  0  0  0  0  0  0  0  0  0
  160.9670  203.0700  150.6270 C   0  0  0  0  0  0  0  0  0  0  0  0
  161.1770  203.7230  148.2930 C   0  0  0  0  0  0  0  0  0  0  0  0
  161.3830  205.3940  150.0680 C   0  0  0  0  0  0  0  0  0  0  0  0
  161.5930  206.3990  149.0950 C   0  0  0  0  0  0  0  0  0  0  0  0
  160.9550  202.3110  147.9200 C   0  0  0  0  0  0  0  0  0  0  0  0
  160.9690  203.4250  151.9730 C   0  0  0  0  0  3  0  0  0  0  0  0
  160.7480  201.6690  150.2150 C   0  0  0  0  0  3  0  0  0  0  0  0
  161.1850  205.1040  153.5260 O   0  0  0  0  0  0  0  0  0  0  0  0
  160.9470  201.9530  146.7130 O   0  0  0  0  0  0  0  0  0  0  0  0
  161.1760  204.0590  149.6550 C   0  0  0  0  0  0  0  0  0  0  0  0
  160.7470  201.3390  148.9560 N   0  0  0  0  0  0  0  0  0  0  0  0
  161.3860  204.7170  147.3360 C   0  0  0  0  0  3  0  0  0  0  0  0
  161.3750  205.6820  151.3700 O   0  0  0  0  0  0  0  0  0  0  0  0
  161.5910  206.0400  147.7360 C   0  0  0  0  0  3  0  0  0  0  0  0
  162.3570  208.5970  148.6100 O   0  0  0  0  0  0  0  0  0  0  0  0
  161.4330  208.3350  150.7240 N   0  0  0  0  0  2  0  0  0  0  0  0
  161.8180  207.8230  149.4470 C   0  0  0  0  0  0  0  0  0  0  0  0
  161.6430  209.6780  151.0610 N   0  0  0  0  0  2  0  0  0  0  0  0
  161.8900  209.7140  152.4920 C   0  0  0  0  0  2  0  0  0  0  0  0
  160.6600  209.2290  153.2510 C   0  0  2  0  0  3  0  0  0  0  0  0
  159.8400  210.4240  153.7390 C   0  0  1  0  0  3  0  0  0  0  0  0
  160.7510  211.5550  154.1840 C   0  0  0  0  0  1  0  0  0  0  0  0
  159.0130  210.8930  152.7160 O   0  0  0  0  0  1  0  0  0  0  0  0
  161.0950  208.3750  154.4390 C   0  0  0  0  0  2  0  0  0  0  0  0
  160.0330  208.3580  155.5280 C   0  0  0  0  0  2  0  0  0  0  0  0
  160.0070  207.1090  156.1480 O   0  0  0  0  0  1  0  0  0  0  0  0
  1  9  2  0  0  0  0
  2  7  2  0  0  0  0
  3 11  1  0  0  0  0
  4 14  1  0  0  0  0
  5 18  1  0  0  0  0
  5  4  1  0  0  0  0
  6  3  1  0  0  0  0
  6 12  1  0  0  0  0
  7  1  1  0  0  0  0
  8  2  1  0  0  0  0
 10  6  2  0  0  0  0
 11  4  2  0  0  0  0
 11  2  1  0  0  0  0
 12  8  2  0  0  0  0
 13 15  1  0  0  0  0
 13  3  2  0  0  0  0
 14  1  1  0  0  0  0
 15  5  2  0  0  0  0
 16 18  2  0  0  0  0
 17 19  1  0  0  0  0
 18 17  1  0  0  0  0
 19 20  1  0  0  0  0
 21 20  1  1  0  0  0
 21 22  1  0  0  0  0
 21 25  1  0  0  0  0
 22 23  1  6  0  0  0
 24 22  1  0  0  0  0
 25 26  1  0  0  0  0
 26 27  1  0  0  0  0
M  END
>  <MODEL>
3

>  <REMARK>
 VINA RESULT:      -8.6      1.856      3.935
  Name = 
  7 active torsions:
  status: ('A' for Active; 'I' for Inactive)
    1  A    between atoms: C_3  and  C_25
    2  A    between atoms: C_4  and  C_14
    3  A    between atoms: N_5  and  N_18
    4  A    between atoms: N_5  and  C_22
    5  A    between atoms: C_9  and  C_19
    6  A    between atoms: C_14  and  C_25
    7  A    between atoms: C_22  and  C_25
                            x       y       z     vdW  Elec       q    Type
                         _______ _______ _______ _____ _____    ______ ____

>  <TORSDO>
F 7

$$$$
=
 OpenBabel11072413163D

 27 29  0  0  1  0  0  0  0  0999 V2000
  161.9110  207.0750  148.2010 C   0  0  0  0  0  0  0  0  0  0  0  0
  161.6460  205.0960  146.8690 C   0  0  0  0  0  0  0  0  0  0  0  0
  161.0860  203.0100  147.9860 C   0  0  0  0  0  0  0  0  0  0  0  0
  161.3720  205.0670  149.2790 C   0  0  0  0  0  0  0  0  0  0  0  0
  161.0930  204.3560  150.4700 C   0  0  0  0  0  0  0  0  0  0  0  0
  161.0940  202.3480  146.6670 C   0  0  0  0  0  0  0  0  0  0  0  0
  161.9210  206.4590  146.9470 C   0  0  0  0  0  3  0  0  0  0  0  0
  161.6440  204.4000  145.5670 C   0  0  0  0  0  3  0  0  0  0  0  0
  162.1570  208.3060  148.2920 O   0  0  0  0  0  0  0  0  0  0  0  0
  160.8500  201.1170  146.5580 O   0  0  0  0  0  0  0  0  0  0  0  0
  161.3660  204.3830  148.0430 C   0  0  0  0  0  0  0  0  0  0  0  0
  161.3860  203.1260  145.4960 N   0  0  0  0  0  0  0  0  0  0  0  0
  160.8100  202.3120  149.1630 C   0  0  0  0  0  3  0  0  0  0  0  0
  161.6430  206.3730  149.3000 O   0  0  0  0  0  0  0  0  0  0  0  0
  160.8150  202.9800  150.3900 C   0  0  0  0  0  3  0  0  0  0  0  0
  161.0530  204.2880  152.8450 O   0  0  0  0  0  0  0  0  0  0  0  0
  161.0960  206.4240  151.9370 N   0  0  0  0  0  2  0  0  0  0  0  0
  161.0790  205.0020  151.8060 C   0  0  0  0  0  0  0  0  0  0  0  0
  161.0830  207.0380  153.1950 N   0  0  0  0  0  2  0  0  0  0  0  0
  160.8970  208.4590  152.9630 C   0  0  0  0  0  2  0  0  0  0  0  0
  160.7300  209.1920  154.2900 C   0  0  2  0  0  3  0  0  0  0  0  0
  161.4320  210.5490  154.2320 C   0  0  1  0  0  3  0  0  0  0  0  0
  160.4310  211.6610  153.9690 C   0  0  0  0  0  1  0  0  0  0  0  0
  162.0810  210.8100  155.4400 O   0  0  0  0  0  1  0  0  0  0  0  0
  161.3180  208.3480  155.4190 C   0  0  0  0  0  2  0  0  0  0  0  0
  160.2950  208.0980  156.5150 C   0  0  0  0  0  2  0  0  0  0  0  0
  159.3870  207.1220  156.1050 O   0  0  0  0  0  1  0  0  0  0  0  0
  1  9  2  0  0  0  0
  1 14  1  0  0  0  0
  2  7  2  0  0  0  0
  2 11  1  0  0  0  0
  3 11  2  0  0  0  0
  3 13  1  0  0  0  0
  4 14  1  0  0  0  0
  4  5  2  0  0  0  0
  5 18  1  0  0  0  0
  6  3  1  0  0  0  0
  7  1  1  0  0  0  0
  8  2  1  0  0  0  0
 10  6  2  0  0  0  0
 11  4  1  0  0  0  0
 12  8  2  0  0  0  0
 12  6  1  0  0  0  0
 13 15  2  0  0  0  0
 15  5  1  0  0  0  0
 17 19  1  0  0  0  0
 18 17  1  0  0  0  0
 18 16  2  0  0  0  0
 20 19  1  0  0  0  0
 21 20  1  6  0  0  0
 21 25  1  0  0  0  0
 22 23  1  1  0  0  0
 22 21  1  0  0  0  0
 22 24  1  0  0  0  0
 25 26  1  0  0  0  0
 27 26  1  0  0  0  0
M  END
>  <MODEL>
4

>  <REMARK>
 VINA RESULT:      -8.6      1.137      2.048
  Name = 
  7 active torsions:
  status: ('A' for Active; 'I' for Inactive)
    1  A    between atoms: C_3  and  C_25
    2  A    between atoms: C_4  and  C_14
    3  A    between atoms: N_5  and  N_18
    4  A    between atoms: N_5  and  C_22
    5  A    between atoms: C_9  and  C_19
    6  A    between atoms: C_14  and  C_25
    7  A    between atoms: C_22  and  C_25
                            x       y       z     vdW  Elec       q    Type
                         _______ _______ _______ _____ _____    ______ ____

>  <TORSDO>
F 7

$$$$
=
 OpenBabel11072413163D

 27 29  0  0  1  0  0  0  0  0999 V2000
  160.9460  203.9640  151.4720 C   0  0  0  0  0  0  0  0  0  0  0  0
  160.9470  202.9290  149.3060 C   0  0  0  0  0  0  0  0  0  0  0  0
  161.3420  204.3230  147.3530 C   0  0  0  0  0  0  0  0  0  0  0  0
  161.3280  205.3070  149.5920 C   0  0  0  0  0  0  0  0  0  0  0  0
  161.5880  206.5810  149.0330 C   0  0  0  0  0  0  0  0  0  0  0  0
  161.2060  203.1150  146.5140 C   0  0  0  0  0  0  0  0  0  0  0  0
  160.8160  202.8140  150.6870 C   0  0  0  0  0  3  0  0  0  0  0  0
  160.8170  201.7440  148.4350 C   0  0  0  0  0  3  0  0  0  0  0  0
  160.8310  203.8800  152.7220 O   0  0  0  0  0  0  0  0  0  0  0  0
  161.3180  203.1810  145.2610 O   0  0  0  0  0  0  0  0  0  0  0  0
  161.2070  204.1860  148.7420 C   0  0  0  0  0  0  0  0  0  0  0  0
  160.9400  201.8530  147.1430 N   0  0  0  0  0  0  0  0  0  0  0  0
  161.6000  205.5800  146.8040 C   0  0  0  0  0  3  0  0  0  0  0  0
  161.1930  205.1450  150.9090 O   0  0  0  0  0  0  0  0  0  0  0  0
  161.7200  206.6950  147.6380 C   0  0  0  0  0  3  0  0  0  0  0  0
  161.9220  208.9190  149.2960 O   0  0  0  0  0  0  0  0  0  0  0  0
  161.6500  207.7480  151.2820 N   0  0  0  0  0  2  0  0  0  0  0  0
  161.7290  207.8070  149.8570 C   0  0  0  0  0  0  0  0  0  0  0  0
  161.7830  208.9020  152.0640 N   0  0  0  0  0  2  0  0  0  0  0  0
  160.4570  209.2210  152.5650 C   0  0  0  0  0  2  0  0  0  0  0  0
  160.5170  209.5280  154.0570 C   0  0  2  0  0  3  0  0  0  0  0  0
  161.1990  210.8760  154.2870 C   0  0  1  0  0  3  0  0  0  0  0  0
  160.2860  211.8160  155.0570 C   0  0  0  0  0  1  0  0  0  0  0  0
  162.3780  210.7040  155.0160 O   0  0  0  0  0  1  0  0  0  0  0  0
  161.2870  208.4230  154.7770 C   0  0  0  0  0  2  0  0  0  0  0  0
  160.4550  207.1570  154.9000 C   0  0  0  0  0  2  0  0  0  0  0  0
  160.0780  206.9630  156.2290 O   0  0  0  0  0  1  0  0  0  0  0  0
  1  9  2  0  0  0  0
  2  7  2  0  0  0  0
  3 11  1  0  0  0  0
  4 14  1  0  0  0  0
  5  4  1  0  0  0  0
  5 18  1  0  0  0  0
  6 12  1  0  0  0  0
  6  3  1  0  0  0  0
  7  1  1  0  0  0  0
  8  2  1  0  0  0  0
 10  6  2  0  0  0  0
 11  2  1  0  0  0  0
 11  4  2  0  0  0  0
 12  8  2  0  0  0  0
 13  3  2  0  0  0  0
 13 15  1  0  0  0  0
 14  1  1  0  0  0  0
 15  5  2  0  0  0  0
 16 18  2  0  0  0  0
 17 19  1  0  0  0  0
 18 17  1  0  0  0  0
 19 20  1  0  0  0  0
 21 20  1  6  0  0  0
 21 22  1  0  0  0  0
 21 25  1  0  0  0  0
 22 24  1  0  0  0  0
 22 23  1  1  0  0  0
 25 26  1  0  0  0  0
 26 27  1  0  0  0  0
M  END
>  <MODEL>
5

>  <REMARK>
 VINA RESULT:      -8.4      1.607      3.594
  Name = 
  7 active torsions:
  status: ('A' for Active; 'I' for Inactive)
    1  A    between atoms: C_3  and  C_25
    2  A    between atoms: C_4  and  C_14
    3  A    between atoms: N_5  and  N_18
    4  A    between atoms: N_5  and  C_22
    5  A    between atoms: C_9  and  C_19
    6  A    between atoms: C_14  and  C_25
    7  A    between atoms: C_22  and  C_25
                            x       y       z     vdW  Elec       q    Type
                         _______ _______ _______ _____ _____    ______ ____

>  <TORSDO>
F 7

$$$$
=
 OpenBabel11072413163D

 27 29  0  0  1  0  0  0  0  0999 V2000
  161.9010  207.3540  148.4920 C   0  0  0  0  0  0  0  0  0  0  0  0
  161.5870  205.1750  147.5370 C   0  0  0  0  0  0  0  0  0  0  0  0
  161.0670  203.3200  149.0220 C   0  0  0  0  0  0  0  0  0  0  0  0
  161.4000  205.5700  149.9230 C   0  0  0  0  0  0  0  0  0  0  0  0
  161.1620  205.0800  151.2290 C   0  0  0  0  0  0  0  0  0  0  0  0
  161.0280  202.4370  147.8390 C   0  0  0  0  0  0  0  0  0  0  0  0
  161.8660  206.5280  147.3650 C   0  0  0  0  0  3  0  0  0  0  0  0
  161.5390  204.2610  146.3780 C   0  0  0  0  0  3  0  0  0  0  0  0
  162.1510  208.5800  148.3570 O   0  0  0  0  0  0  0  0  0  0  0  0
  160.7790  201.2080  147.9560 O   0  0  0  0  0  0  0  0  0  0  0  0
  161.3490  204.6800  148.8280 C   0  0  0  0  0  0  0  0  0  0  0  0
  161.2780  202.9960  146.5400 N   0  0  0  0  0  0  0  0  0  0  0  0
  160.8320  202.8410  150.3120 C   0  0  0  0  0  3  0  0  0  0  0  0
  161.6720  206.8570  149.7060 O   0  0  0  0  0  0  0  0  0  0  0  0
  160.8810  203.7140  151.4020 C   0  0  0  0  0  3  0  0  0  0  0  0
  161.5510  205.4690  153.5420 O   0  0  0  0  0  0  0  0  0  0  0  0
  160.8340  207.3290  152.3520 N   0  0  0  0  0  2  0  0  0  0  0  0
  161.1970  205.9500  152.4310 C   0  0  0  0  0  0  0  0  0  0  0  0
  160.8650  208.1540  153.4840 N   0  0  0  0  0  2  0  0  0  0  0  0
  161.3230  209.4580  153.0360 C   0  0  0  0  0  2  0  0  0  0  0  0
  161.4180  210.4170  154.2180 C   0  0  2  0  0  3  0  0  0  0  0  0
  161.0760  209.6840  155.5160 C   0  0  1  0  0  3  0  0  0  0  0  0
  162.2260  209.7800  156.5050 C   0  0  0  0  0  1  0  0  0  0  0  0
  159.9370  210.2410  156.1000 O   0  0  0  0  0  1  0  0  0  0  0  0
  160.4560  211.5840  154.0100 C   0  0  0  0  0  2  0  0  0  0  0  0
  159.9490  211.6350  152.5780 C   0  0  0  0  0  2  0  0  0  0  0  0
  159.4730  212.9130  152.2860 O   0  0  0  0  0  1  0  0  0  0  0  0
  1 14  1  0  0  0  0
  2 11  1  0  0  0  0
  3 13  1  0  0  0  0
  4  5  2  0  0  0  0
  5 15  1  0  0  0  0
  5 18  1  0  0  0  0
  6 10  2  0  0  0  0
  6  3  1  0  0  0  0
  7  2  2  0  0  0  0
  7  1  1  0  0  0  0
  8 12  2  0  0  0  0
  8  2  1  0  0  0  0
  9  1  2  0  0  0  0
 11  3  2  0  0  0  0
 11  4  1  0  0  0  0
 12  6  1  0  0  0  0
 13 15  2  0  0  0  0
 14  4  1  0  0  0  0
 17 18  1  0  0  0  0
 17 19  1  0  0  0  0
 18 16  2  0  0  0  0
 20 19  1  0  0  0  0
 21 20  1  6  0  0  0
 21 22  1  0  0  0  0
 22 24  1  0  0  0  0
 22 23  1  1  0  0  0
 25 21  1  0  0  0  0
 26 25  1  0  0  0  0
 27 26  1  0  0  0  0
M  END
>  <MODEL>
6

>  <REMARK>
 VINA RESULT:      -8.3      1.743      2.036
  Name = 
  7 active torsions:
  status: ('A' for Active; 'I' for Inactive)
    1  A    between atoms: C_3  and  C_25
    2  A    between atoms: C_4  and  C_14
    3  A    between atoms: N_5  and  N_18
    4  A    between atoms: N_5  and  C_22
    5  A    between atoms: C_9  and  C_19
    6  A    between atoms: C_14  and  C_25
    7  A    between atoms: C_22  and  C_25
                            x       y       z     vdW  Elec       q    Type
                         _______ _______ _______ _____ _____    ______ ____

>  <TORSDO>
F 7

$$$$
=
 OpenBabel11072413163D

 27 29  0  0  1  0  0  0  0  0999 V2000
  161.9630  208.8510  150.0540 C   0  0  0  0  0  0  0  0  0  0  0  0
  161.4870  209.6740  152.2580 C   0  0  0  0  0  0  0  0  0  0  0  0
  160.9670  208.0690  154.0100 C   0  0  0  0  0  0  0  0  0  0  0  0
  161.4630  207.3040  151.7400 C   0  0  0  0  0  0  0  0  0  0  0  0
  161.2790  205.9630  152.1530 C   0  0  0  0  0  0  0  0  0  0  0  0
  160.8130  209.2010  154.9460 C   0  0  0  0  0  0  0  0  0  0  0  0
  161.8210  209.9300  150.9310 C   0  0  0  0  0  3  0  0  0  0  0  0
  161.3250  210.7800  153.2230 C   0  0  0  0  0  3  0  0  0  0  0  0
  162.2660  209.0630  148.8510 O   0  0  0  0  0  0  0  0  0  0  0  0
  160.5110  209.0070  156.1530 O   0  0  0  0  0  0  0  0  0  0  0  0
  161.3040  208.3480  152.6770 C   0  0  0  0  0  0  0  0  0  0  0  0
  161.0120  210.5390  154.4630 N   0  0  0  0  0  0  0  0  0  0  0  0
  160.7870  206.7450  154.4140 C   0  0  0  0  0  3  0  0  0  0  0  0
  161.7830  207.6020  150.4800 O   0  0  0  0  0  0  0  0  0  0  0  0
  160.9420  205.7060  153.4930 C   0  0  0  0  0  3  0  0  0  0  0  0
  161.9980  203.7590  151.6290 O   0  0  0  0  0  0  0  0  0  0  0  0
  160.9370  204.8730  149.8900 N   0  0  0  0  0  2  0  0  0  0  0  0
  161.4290  204.8110  151.2300 C   0  0  0  0  0  0  0  0  0  0  0  0
  161.0750  203.7880  149.0150 N   0  0  0  0  0  2  0  0  0  0  0  0
  160.7350  204.2760  147.6900 C   0  0  0  0  0  2  0  0  0  0  0  0
  161.7760  203.8150  146.6760 C   0  0  2  0  0  3  0  0  0  0  0  0
  162.5150  205.0210  146.0960 C   0  0  1  0  0  3  0  0  0  0  0  0
  161.8200  205.5240  144.8420 C   0  0  0  0  0  1  0  0  0  0  0  0
  162.5540  206.0590  147.0300 O   0  0  0  0  0  1  0  0  0  0  0  0
  161.0900  203.0360  145.5560 C   0  0  0  0  0  2  0  0  0  0  0  0
  160.7240  201.6290  146.0030 C   0  0  0  0  0  2  0  0  0  0  0  0
  160.1720  200.9200  144.9360 O   0  0  0  0  0  1  0  0  0  0  0  0
  1 14  1  0  0  0  0
  1  7  1  0  0  0  0
  2 11  1  0  0  0  0
  2  8  1  0  0  0  0
  3 13  1  0  0  0  0
  3  6  1  0  0  0  0
  4  5  2  0  0  0  0
  4 11  1  0  0  0  0
  5 15  1  0  0  0  0
  6 10  2  0  0  0  0
  7  2  2  0  0  0  0
  8 12  2  0  0  0  0
  9  1  2  0  0  0  0
 11  3  2  0  0  0  0
 12  6  1  0  0  0  0
 14  4  1  0  0  0  0
 15 13  2  0  0  0  0
 17 18  1  0  0  0  0
 18 16  2  0  0  0  0
 18  5  1  0  0  0  0
 19 17  1  0  0  0  0
 20 19  1  0  0  0  0
 21 25  1  6  0  0  0
 21 20  1  0  0  0  0
 22 23  1  6  0  0  0
 22 21  1  0  0  0  0
 22 24  1  0  0  0  0
 25 26  1  0  0  0  0
 27 26  1  0  0  0  0
M  END
>  <MODEL>
7

>  <REMARK>
 VINA RESULT:      -8.2      1.896      7.732
  Name = 
  7 active torsions:
  status: ('A' for Active; 'I' for Inactive)
    1  A    between atoms: C_3  and  C_25
    2  A    between atoms: C_4  and  C_14
    3  A    between atoms: N_5  and  N_18
    4  A    between atoms: N_5  and  C_22
    5  A    between atoms: C_9  and  C_19
    6  A    between atoms: C_14  and  C_25
    7  A    between atoms: C_22  and  C_25
                            x       y       z     vdW  Elec       q    Type
                         _______ _______ _______ _____ _____    ______ ____

>  <TORSDO>
F 7

$$$$
=
 OpenBabel11072413163D

 27 29  0  0  1  0  0  0  0  0999 V2000
  161.9470  207.4010  149.0460 C   0  0  0  0  0  0  0  0  0  0  0  0
  161.7080  208.7300  151.0300 C   0  0  0  0  0  0  0  0  0  0  0  0
  161.2060  207.6070  153.1270 C   0  0  0  0  0  0  0  0  0  0  0  0
  161.4630  206.3170  151.0650 C   0  0  0  0  0  0  0  0  0  0  0  0
  161.2100  205.1230  151.7810 C   0  0  0  0  0  0  0  0  0  0  0  0
  161.2130  208.9270  153.7900 C   0  0  0  0  0  0  0  0  0  0  0  0
  161.9560  208.6550  149.6620 C   0  0  0  0  0  3  0  0  0  0  0  0
  161.7080  210.0320  151.7270 C   0  0  0  0  0  3  0  0  0  0  0  0
  162.1690  207.3130  147.8100 O   0  0  0  0  0  0  0  0  0  0  0  0
  160.9930  209.0330  155.0250 O   0  0  0  0  0  0  0  0  0  0  0  0
  161.4580  207.5530  151.7490 C   0  0  0  0  0  0  0  0  0  0  0  0
  161.4760  210.1010  153.0060 N   0  0  0  0  0  0  0  0  0  0  0  0
  160.9580  206.4270  153.8310 C   0  0  0  0  0  3  0  0  0  0  0  0
  161.7050  206.2990  149.7540 O   0  0  0  0  0  0  0  0  0  0  0  0
  160.9600  205.2010  153.1620 C   0  0  0  0  0  3  0  0  0  0  0  0
  161.8720  202.8450  151.6360 O   0  0  0  0  0  0  0  0  0  0  0  0
  160.4350  203.5470  149.9530 N   0  0  0  0  0  2  0  0  0  0  0  0
  161.1990  203.7870  151.1360 C   0  0  0  0  0  0  0  0  0  0  0  0
  160.4200  202.2880  149.3410 N   0  0  0  0  0  2  0  0  0  0  0  0
  161.4940  202.2890  148.3620 C   0  0  0  0  0  2  0  0  0  0  0  0
  160.9870  202.8180  147.0250 C   0  0  2  0  0  3  0  0  0  0  0  0
  161.0130  201.7040  145.9780 C   0  0  1  0  0  3  0  0  0  0  0  0
  161.2060  200.3500  146.6380 C   0  0  0  0  0  1  0  0  0  0  0  0
  159.8140  201.6850  145.2620 O   0  0  0  0  0  1  0  0  0  0  0  0
  161.8630  203.9830  146.5700 C   0  0  0  0  0  2  0  0  0  0  0  0
  161.1600  204.8260  145.5180 C   0  0  0  0  0  2  0  0  0  0  0  0
  162.0800  205.6630  144.8870 O   0  0  0  0  0  1  0  0  0  0  0  0
  1  7  1  0  0  0  0
  1 14  1  0  0  0  0
  2  8  1  0  0  0  0
  2 11  1  0  0  0  0
  3  6  1  0  0  0  0
  3 13  1  0  0  0  0
  4 11  1  0  0  0  0
  4  5  2  0  0  0  0
  5 15  1  0  0  0  0
  6 10  2  0  0  0  0
  7  2  2  0  0  0  0
  8 12  2  0  0  0  0
  9  1  2  0  0  0  0
 11  3  2  0  0  0  0
 12  6  1  0  0  0  0
 14  4  1  0  0  0  0
 15 13  2  0  0  0  0
 17 18  1  0  0  0  0
 18 16  2  0  0  0  0
 18  5  1  0  0  0  0
 19 17  1  0  0  0  0
 20 19  1  0  0  0  0
 21 25  1  6  0  0  0
 21 20  1  0  0  0  0
 22 23  1  1  0  0  0
 22 21  1  0  0  0  0
 24 22  1  0  0  0  0
 26 25  1  0  0  0  0
 27 26  1  0  0  0  0
M  END
>  <MODEL>
8

>  <REMARK>
 VINA RESULT:      -8.2      1.974      7.285
  Name = 
  7 active torsions:
  status: ('A' for Active; 'I' for Inactive)
    1  A    between atoms: C_3  and  C_25
    2  A    between atoms: C_4  and  C_14
    3  A    between atoms: N_5  and  N_18
    4  A    between atoms: N_5  and  C_22
    5  A    between atoms: C_9  and  C_19
    6  A    between atoms: C_14  and  C_25
    7  A    between atoms: C_22  and  C_25
                            x       y       z     vdW  Elec       q    Type
                         _______ _______ _______ _____ _____    ______ ____

>  <TORSDO>
F 7

$$$$
=
 OpenBabel11072413163D

 27 29  0  0  1  0  0  0  0  0999 V2000
  161.2050  205.3100  152.5790 C   0  0  0  0  0  0  0  0  0  0  0  0
  161.0220  207.1390  154.1230 C   0  0  0  0  0  0  0  0  0  0  0  0
  161.2130  209.4060  153.2650 C   0  0  0  0  0  0  0  0  0  0  0  0
  161.3890  207.4930  151.7510 C   0  0  0  0  0  0  0  0  0  0  0  0
  161.5780  208.3750  150.6610 C   0  0  0  0  0  0  0  0  0  0  0  0
  161.0190  209.9010  154.6430 C   0  0  0  0  0  0  0  0  0  0  0  0
  161.0200  205.7670  153.8870 C   0  0  0  0  0  3  0  0  0  0  0  0
  160.8310  207.6700  155.4870 C   0  0  0  0  0  3  0  0  0  0  0  0
  161.2060  204.0740  152.3460 O   0  0  0  0  0  0  0  0  0  0  0  0
  161.0140  211.1350  154.8950 O   0  0  0  0  0  0  0  0  0  0  0  0
  161.2070  208.0210  153.0490 C   0  0  0  0  0  0  0  0  0  0  0  0
  160.8330  208.9530  155.7060 N   0  0  0  0  0  0  0  0  0  0  0  0
  161.3990  210.2730  152.1870 C   0  0  0  0  0  3  0  0  0  0  0  0
  161.3790  206.1710  151.5780 O   0  0  0  0  0  0  0  0  0  0  0  0
  161.5800  209.7600  150.9010 C   0  0  0  0  0  3  0  0  0  0  0  0
  162.7000  208.3890  148.5660 O   0  0  0  0  0  0  0  0  0  0  0  0
  160.9300  206.8930  148.7080 N   0  0  0  0  0  2  0  0  0  0  0  0
  161.7740  207.9000  149.2690 C   0  0  0  0  0  0  0  0  0  0  0  0
  161.1120  206.4420  147.3950 N   0  0  0  0  0  2  0  0  0  0  0  0
  161.9320  205.2460  147.4760 C   0  0  0  0  0  2  0  0  0  0  0  0
  161.1570  204.0400  146.9570 C   0  0  2  0  0  3  0  0  0  0  0  0
  161.4140  202.8270  147.8520 C   0  0  1  0  0  3  0  0  0  0  0  0
  160.8320  203.0490  149.2380 C   0  0  0  0  0  1  0  0  0  0  0  0
  160.8290  201.6860  147.3000 O   0  0  0  0  0  1  0  0  0  0  0  0
  161.5870  203.7320  145.5250 C   0  0  0  0  0  2  0  0  0  0  0  0
  160.6570  204.3850  144.5150 C   0  0  0  0  0  2  0  0  0  0  0  0
  161.3220  205.4170  143.8530 O   0  0  0  0  0  1  0  0  0  0  0  0
  1  7  1  0  0  0  0
  2  8  1  0  0  0  0
  3  6  1  0  0  0  0
  4 11  2  0  0  0  0
  5 15  2  0  0  0  0
  5  4  1  0  0  0  0
  6 10  2  0  0  0  0
  6 12  1  0  0  0  0
  7  2  2  0  0  0  0
  8 12  2  0  0  0  0
  9  1  2  0  0  0  0
 11  3  1  0  0  0  0
 11  2  1  0  0  0  0
 13  3  2  0  0  0  0
 14  4  1  0  0  0  0
 14  1  1  0  0  0  0
 15 13  1  0  0  0  0
 16 18  2  0  0  0  0
 17 18  1  0  0  0  0
 18  5  1  0  0  0  0
 19 20  1  0  0  0  0
 19 17  1  0  0  0  0
 21 25  1  6  0  0  0
 21 20  1  0  0  0  0
 21 22  1  0  0  0  0
 22 23  1  1  0  0  0
 24 22  1  0  0  0  0
 26 25  1  0  0  0  0
 27 26  1  0  0  0  0
M  END
>  <MODEL>
9

>  <REMARK>
 VINA RESULT:      -8.2      2.039      8.076
  Name = 
  7 active torsions:
  status: ('A' for Active; 'I' for Inactive)
    1  A    between atoms: C_3  and  C_25
    2  A    between atoms: C_4  and  C_14
    3  A    between atoms: N_5  and  N_18
    4  A    between atoms: N_5  and  C_22
    5  A    between atoms: C_9  and  C_19
    6  A    between atoms: C_14  and  C_25
    7  A    between atoms: C_22  and  C_25
                            x       y       z     vdW  Elec       q    Type
                         _______ _______ _______ _____ _____    ______ ____

>  <TORSDO>
F 7

$$$$
