=
 OpenBabel11072412233D

 27 30  0  0  1  0  0  0  0  0999 V2000
  160.6690  206.0350  148.7020 C   0  0  0  0  0  2  0  0  0  0  0  0
  161.5010  203.7100  146.9270 C   0  0  0  0  0  0  0  0  0  0  0  0
  161.1480  201.4930  146.6210 N   0  0  0  0  0  0  0  0  0  0  0  0
  160.2460  202.6510  150.2420 C   0  0  0  0  0  3  0  0  0  0  0  0
  160.5750  204.9400  149.6620 N   0  0  0  0  0  2  0  0  0  0  0  0
  161.9690  205.9820  147.9030 C   0  0  1  0  0  3  0  0  0  0  0  0
  161.6560  203.0650  148.2610 C   0  0  2  0  0  3  0  0  0  0  0  0
  161.3350  201.6600  147.8860 C   0  0  0  0  0  0  0  0  0  0  0  0
  160.8990  200.6970  148.8980 C   0  0  0  0  0  3  0  0  0  0  0  0
  161.8050  205.1480  146.6210 C   0  0  2  0  0  3  0  0  0  0  0  0
  161.3030  202.7690  146.0080 C   0  0  0  0  0  3  0  0  0  0  0  0
  160.7310  203.5460  149.3630 C   0  0  0  0  0  0  0  0  0  0  0  0
  160.3990  201.1860  150.0400 C   0  0  0  0  0  3  0  0  0  0  0  0
  160.8220  205.7380  145.6390 C   0  0  0  0  0  0  0  0  0  0  0  0
  159.7580  206.2000  146.0180 O   0  0  0  0  0  0  0  0  0  0  0  0
  161.2150  205.7350  143.8930 S   0  0  0  0  0  1  0  0  0  0  0  0
  162.4710  207.3840  147.5820 C   0  0  0  0  0  2  0  0  0  0  0  0
  162.1290  208.9960  149.6840 C   0  0  0  0  0  0  0  0  0  0  0  0
  162.2840  208.2700  148.7340 C   0  0  0  0  0  0  0  0  0  0  0  0
  161.7540  211.0900  150.6310 O   0  0  0  0  0  0  0  0  0  0  0  0
  161.9470  209.8590  150.8160 C   0  0  0  0  0  0  0  0  0  0  0  0
  161.9890  209.3150  152.1070 O   0  0  0  0  0  0  0  0  0  0  0  0
  160.9980  207.1440  154.7230 C   0  0  0  0  0  2  0  0  0  0  0  0
  161.6620  206.9170  152.4200 C   0  0  0  0  0  2  0  0  0  0  0  0
  161.0930  208.3120  152.5900 C   0  0  0  0  0  3  0  0  0  0  0  0
  160.7740  208.4940  154.0650 C   0  0  0  0  0  2  0  0  0  0  0  0
  161.1360  206.1360  153.6010 C   0  0  0  0  0  2  0  0  0  0  0  0
  1  5  1  0  0  0  0
  3  8  2  0  0  0  0
  6 17  1  6  0  0  0
  6  1  1  0  0  0  0
  7  2  1  6  0  0  0
  7 12  1  0  0  0  0
  8  7  1  0  0  0  0
  8  9  1  0  0  0  0
  9 13  2  0  0  0  0
 10 14  1  6  0  0  0
 10  2  1  0  0  0  0
 10  6  1  0  0  0  0
 11  3  1  0  0  0  0
 11  2  2  0  0  0  0
 12  5  1  0  0  0  0
 12  4  2  0  0  0  0
 13  4  1  0  0  0  0
 14 15  2  0  0  0  0
 16 14  1  0  0  0  0
 17 19  1  0  0  0  0
 18 21  1  0  0  0  0
 19 18  3  0  0  0  0
 20 21  2  0  0  0  0
 21 22  1  0  0  0  0
 22 25  1  0  0  0  0
 24 25  1  0  0  0  0
 24 27  1  0  0  0  0
 25 26  1  0  0  0  0
 26 23  1  0  0  0  0
 27 23  1  0  0  0  0
M  END
>  <MODEL>
1

>  <REMARK>
 VINA RESULT:      -8.4      0.000      0.000
  Name = 
  6 active torsions:
  status: ('A' for Active; 'I' for Inactive)
    1  A    between atoms: C_4  and  C_18
    2  A    between atoms: C_6  and  C_24
    3  A    between atoms: C_10  and  C_16
    4  A    between atoms: C_16  and  C_27
    5  A    between atoms: C_17  and  O_20
    6  A    between atoms: O_20  and  C_24
                            x       y       z     vdW  Elec       q    Type
                         _______ _______ _______ _____ _____    ______ ____

>  <TORSDO>
F 6

$$$$
=
 OpenBabel11072412233D

 27 30  0  0  1  0  0  0  0  0999 V2000
  162.2320  208.7450  151.1180 C   0  0  0  0  0  2  0  0  0  0  0  0
  160.8670  206.0290  151.0050 C   0  0  0  0  0  0  0  0  0  0  0  0
  160.8950  204.0730  149.8620 N   0  0  0  0  0  0  0  0  0  0  0  0
  162.4540  207.0100  147.8100 C   0  0  0  0  0  3  0  0  0  0  0  0
  162.3300  208.4730  149.6870 N   0  0  0  0  0  2  0  0  0  0  0  0
  160.8320  208.4590  151.6580 C   0  0  1  0  0  3  0  0  0  0  0  0
  160.8310  206.3790  149.5570 C   0  0  2  0  0  3  0  0  0  0  0  0
  160.9180  205.0110  148.9770 C   0  0  0  0  0  0  0  0  0  0  0  0
  161.3750  204.8090  147.6020 C   0  0  0  0  0  3  0  0  0  0  0  0
  160.7020  207.0030  152.1360 C   0  0  2  0  0  3  0  0  0  0  0  0
  160.8110  204.7060  151.1350 C   0  0  0  0  0  3  0  0  0  0  0  0
  161.9600  207.2500  149.0370 C   0  0  0  0  0  0  0  0  0  0  0  0
  162.0930  205.7900  147.0400 C   0  0  0  0  0  3  0  0  0  0  0  0
  161.5950  206.6690  153.3050 C   0  0  0  0  0  0  0  0  0  0  0  0
  162.7060  206.1940  153.1300 O   0  0  0  0  0  0  0  0  0  0  0  0
  161.0060  206.9530  154.9710 S   0  0  0  0  0  1  0  0  0  0  0  0
  160.4650  209.4330  152.7700 C   0  0  0  0  0  2  0  0  0  0  0  0
  159.9960  211.8620  151.7600 C   0  0  0  0  0  0  0  0  0  0  0  0
  160.2060  210.7660  152.2170 C   0  0  0  0  0  0  0  0  0  0  0  0
  158.7570  213.8290  151.6240 O   0  0  0  0  0  0  0  0  0  0  0  0
  159.7460  213.1650  151.2160 C   0  0  0  0  0  0  0  0  0  0  0  0
  160.6090  213.6760  150.2360 O   0  0  0  0  0  0  0  0  0  0  0  0
  162.8930  212.3730  147.8630 C   0  0  0  0  0  2  0  0  0  0  0  0
  161.2050  214.0900  147.9050 C   0  0  0  0  0  2  0  0  0  0  0  0
  160.8350  213.0680  148.9630 C   0  0  0  0  0  3  0  0  0  0  0  0
  161.9560  212.0420  149.0110 C   0  0  0  0  0  2  0  0  0  0  0  0
  162.1630  213.3700  146.9860 C   0  0  0  0  0  2  0  0  0  0  0  0
  1  6  1  0  0  0  0
  2 11  2  0  0  0  0
  2 10  1  0  0  0  0
  3 11  1  0  0  0  0
  4 12  2  0  0  0  0
  5  1  1  0  0  0  0
  6 10  1  0  0  0  0
  6 17  1  1  0  0  0
  7  8  1  6  0  0  0
  7  2  1  0  0  0  0
  8  3  2  0  0  0  0
  9  8  1  0  0  0  0
 10 14  1  1  0  0  0
 12  7  1  0  0  0  0
 12  5  1  0  0  0  0
 13  9  2  0  0  0  0
 13  4  1  0  0  0  0
 14 16  1  0  0  0  0
 15 14  2  0  0  0  0
 18 19  3  0  0  0  0
 19 17  1  0  0  0  0
 21 20  2  0  0  0  0
 21 18  1  0  0  0  0
 22 21  1  0  0  0  0
 23 26  1  0  0  0  0
 24 25  1  0  0  0  0
 25 26  1  0  0  0  0
 25 22  1  0  0  0  0
 27 23  1  0  0  0  0
 27 24  1  0  0  0  0
M  END
>  <MODEL>
2

>  <REMARK>
 VINA RESULT:      -7.4      3.436      6.024
  Name = 
  6 active torsions:
  status: ('A' for Active; 'I' for Inactive)
    1  A    between atoms: C_4  and  C_18
    2  A    between atoms: C_6  and  C_24
    3  A    between atoms: C_10  and  C_16
    4  A    between atoms: C_16  and  C_27
    5  A    between atoms: C_17  and  O_20
    6  A    between atoms: O_20  and  C_24
                            x       y       z     vdW  Elec       q    Type
                         _______ _______ _______ _____ _____    ______ ____

>  <TORSDO>
F 6

$$$$
=
 OpenBabel11072412233D

 27 30  0  0  1  0  0  0  0  0999 V2000
  160.6440  205.9220  148.8130 C   0  0  0  0  0  2  0  0  0  0  0  0
  161.5200  203.6930  146.9390 C   0  0  0  0  0  0  0  0  0  0  0  0
  161.2010  201.4880  146.5300 N   0  0  0  0  0  0  0  0  0  0  0  0
  160.2640  202.4650  150.1950 C   0  0  0  0  0  3  0  0  0  0  0  0
  160.5610  204.7820  149.7220 N   0  0  0  0  0  2  0  0  0  0  0  0
  161.9480  205.9250  148.0200 C   0  0  1  0  0  3  0  0  0  0  0  0
  161.6780  202.9900  148.2430 C   0  0  2  0  0  3  0  0  0  0  0  0
  161.3790  201.5990  147.8030 C   0  0  0  0  0  0  0  0  0  0  0  0
  160.9530  200.5840  148.7670 C   0  0  0  0  0  3  0  0  0  0  0  0
  161.8040  205.1480  146.7000 C   0  0  2  0  0  3  0  0  0  0  0  0
  161.3400  202.7920  145.9770 C   0  0  0  0  0  3  0  0  0  0  0  0
  160.7400  203.4060  149.3610 C   0  0  0  0  0  0  0  0  0  0  0  0
  160.4400  201.0130  149.9270 C   0  0  0  0  0  3  0  0  0  0  0  0
  160.8170  205.7670  145.7410 C   0  0  0  0  0  0  0  0  0  0  0  0
  159.7520  206.2130  146.1370 O   0  0  0  0  0  0  0  0  0  0  0  0
  161.2060  205.8250  143.9950 S   0  0  0  0  0  1  0  0  0  0  0  0
  162.4310  207.3470  147.7660 C   0  0  0  0  0  2  0  0  0  0  0  0
  162.0520  208.8580  149.9370 C   0  0  0  0  0  0  0  0  0  0  0  0
  162.2250  208.1770  148.9570 C   0  0  0  0  0  0  0  0  0  0  0  0
  161.5890  210.8920  150.9710 O   0  0  0  0  0  0  0  0  0  0  0  0
  161.8460  209.6660  151.1040 C   0  0  0  0  0  0  0  0  0  0  0  0
  161.9370  209.0760  152.3720 O   0  0  0  0  0  0  0  0  0  0  0  0
  161.5700  209.9640  155.7810 C   0  0  0  0  0  2  0  0  0  0  0  0
  160.8280  208.1740  154.3510 C   0  0  0  0  0  2  0  0  0  0  0  0
  161.0750  209.3830  153.4690 C   0  0  0  0  0  3  0  0  0  0  0  0
  161.6460  210.4790  154.3540 C   0  0  0  0  0  2  0  0  0  0  0  0
  160.6880  208.7330  155.7470 C   0  0  0  0  0  2  0  0  0  0  0  0
  1  5  1  0  0  0  0
  3  8  2  0  0  0  0
  6 17  1  6  0  0  0
  6  1  1  0  0  0  0
  7  2  1  6  0  0  0
  7 12  1  0  0  0  0
  8  7  1  0  0  0  0
  8  9  1  0  0  0  0
  9 13  2  0  0  0  0
 10 14  1  6  0  0  0
 10  2  1  0  0  0  0
 10  6  1  0  0  0  0
 11  3  1  0  0  0  0
 11  2  2  0  0  0  0
 12  5  1  0  0  0  0
 12  4  2  0  0  0  0
 13  4  1  0  0  0  0
 14 15  2  0  0  0  0
 16 14  1  0  0  0  0
 17 19  1  0  0  0  0
 18 21  1  0  0  0  0
 19 18  3  0  0  0  0
 20 21  2  0  0  0  0
 21 22  1  0  0  0  0
 22 25  1  0  0  0  0
 24 27  1  0  0  0  0
 25 24  1  0  0  0  0
 25 26  1  0  0  0  0
 26 23  1  0  0  0  0
 27 23  1  0  0  0  0
M  END
>  <MODEL>
3

>  <REMARK>
 VINA RESULT:      -7.3      0.764      1.132
  Name = 
  6 active torsions:
  status: ('A' for Active; 'I' for Inactive)
    1  A    between atoms: C_4  and  C_18
    2  A    between atoms: C_6  and  C_24
    3  A    between atoms: C_10  and  C_16
    4  A    between atoms: C_16  and  C_27
    5  A    between atoms: C_17  and  O_20
    6  A    between atoms: O_20  and  C_24
                            x       y       z     vdW  Elec       q    Type
                         _______ _______ _______ _____ _____    ______ ____

>  <TORSDO>
F 6

$$$$
=
 OpenBabel11072412233D

 27 30  0  0  1  0  0  0  0  0999 V2000
  162.7530  207.6570  149.2570 C   0  0  0  0  0  2  0  0  0  0  0  0
  161.0650  205.2360  149.9910 C   0  0  0  0  0  0  0  0  0  0  0  0
  160.7520  203.0590  149.4510 N   0  0  0  0  0  0  0  0  0  0  0  0
  162.4660  205.0670  146.5710 C   0  0  0  0  0  3  0  0  0  0  0  0
  162.6890  206.9930  147.9590 N   0  0  0  0  0  2  0  0  0  0  0  0
  161.3830  207.7320  149.9280 C   0  0  1  0  0  3  0  0  0  0  0  0
  160.9410  205.1780  148.5080 C   0  0  2  0  0  3  0  0  0  0  0  0
  160.8100  203.7040  148.3370 C   0  0  0  0  0  0  0  0  0  0  0  0
  161.1130  203.0700  147.0530 C   0  0  0  0  0  3  0  0  0  0  0  0
  161.1210  206.4970  150.8060 C   0  0  2  0  0  3  0  0  0  0  0  0
  160.8600  204.0220  150.4940 C   0  0  0  0  0  3  0  0  0  0  0  0
  162.1160  205.7030  147.7040 C   0  0  0  0  0  0  0  0  0  0  0  0
  161.8920  203.7470  146.2000 C   0  0  0  0  0  3  0  0  0  0  0  0
  162.0680  206.3740  151.9740 C   0  0  0  0  0  0  0  0  0  0  0  0
  163.2520  206.1320  151.7990 O   0  0  0  0  0  0  0  0  0  0  0  0
  161.4400  206.5610  153.6390 S   0  0  0  0  0  1  0  0  0  0  0  0
  161.2390  209.0160  150.7350 C   0  0  0  0  0  2  0  0  0  0  0  0
  162.0100  211.1200  149.2810 C   0  0  0  0  0  0  0  0  0  0  0  0
  161.6640  210.1710  149.9380 C   0  0  0  0  0  0  0  0  0  0  0  0
  163.4920  212.1920  147.8400 O   0  0  0  0  0  0  0  0  0  0  0  0
  162.4200  212.2500  148.4980 C   0  0  0  0  0  0  0  0  0  0  0  0
  161.6190  213.4010  148.4830 O   0  0  0  0  0  0  0  0  0  0  0  0
  158.3180  212.9060  147.2990 C   0  0  0  0  0  2  0  0  0  0  0  0
  160.5470  212.5860  146.4470 C   0  0  0  0  0  2  0  0  0  0  0  0
  160.6190  213.6750  147.5000 C   0  0  0  0  0  3  0  0  0  0  0  0
  159.2340  213.8020  148.1140 C   0  0  0  0  0  2  0  0  0  0  0  0
  159.0900  212.5200  146.0540 C   0  0  0  0  0  2  0  0  0  0  0  0
  1  6  1  0  0  0  0
  2 11  2  0  0  0  0
  2 10  1  0  0  0  0
  3 11  1  0  0  0  0
  4 12  2  0  0  0  0
  5  1  1  0  0  0  0
  6 17  1  1  0  0  0
  6 10  1  0  0  0  0
  7 12  1  6  0  0  0
  7  2  1  0  0  0  0
  8  7  1  0  0  0  0
  8  3  2  0  0  0  0
  9  8  1  0  0  0  0
 10 14  1  1  0  0  0
 12  5  1  0  0  0  0
 13  4  1  0  0  0  0
 13  9  2  0  0  0  0
 14 16  1  0  0  0  0
 15 14  2  0  0  0  0
 18 19  3  0  0  0  0
 19 17  1  0  0  0  0
 20 21  2  0  0  0  0
 21 18  1  0  0  0  0
 22 21  1  0  0  0  0
 23 26  1  0  0  0  0
 24 25  1  0  0  0  0
 25 26  1  0  0  0  0
 25 22  1  0  0  0  0
 27 24  1  0  0  0  0
 27 23  1  0  0  0  0
M  END
>  <MODEL>
4

>  <REMARK>
 VINA RESULT:      -7.3      3.495      5.493
  Name = 
  6 active torsions:
  status: ('A' for Active; 'I' for Inactive)
    1  A    between atoms: C_4  and  C_18
    2  A    between atoms: C_6  and  C_24
    3  A    between atoms: C_10  and  C_16
    4  A    between atoms: C_16  and  C_27
    5  A    between atoms: C_17  and  O_20
    6  A    between atoms: O_20  and  C_24
                            x       y       z     vdW  Elec       q    Type
                         _______ _______ _______ _____ _____    ______ ____

>  <TORSDO>
F 6

$$$$
=
 OpenBabel11072412233D

 27 30  0  0  1  0  0  0  0  0999 V2000
  160.7180  206.1390  148.6710 C   0  0  0  0  0  2  0  0  0  0  0  0
  161.4480  203.7480  146.9410 C   0  0  0  0  0  0  0  0  0  0  0  0
  161.0260  201.5350  146.6980 N   0  0  0  0  0  0  0  0  0  0  0  0
  160.2290  202.8090  150.3050 C   0  0  0  0  0  3  0  0  0  0  0  0
  160.6110  205.0720  149.6600 N   0  0  0  0  0  2  0  0  0  0  0  0
  161.9990  206.0290  147.8490 C   0  0  1  0  0  3  0  0  0  0  0  0
  161.6110  203.1320  148.2870 C   0  0  2  0  0  3  0  0  0  0  0  0
  161.2420  201.7280  147.9550 C   0  0  0  0  0  0  0  0  0  0  0  0
  160.8000  200.8030  149.0000 C   0  0  0  0  0  3  0  0  0  0  0  0
  161.7870  205.1680  146.5920 C   0  0  2  0  0  3  0  0  0  0  0  0
  161.2050  202.7900  146.0500 C   0  0  0  0  0  3  0  0  0  0  0  0
  160.7220  203.6670  149.3950 C   0  0  0  0  0  0  0  0  0  0  0  0
  160.3370  201.3350  150.1380 C   0  0  0  0  0  3  0  0  0  0  0  0
  160.8020  205.7610  145.6140 C   0  0  0  0  0  0  0  0  0  0  0  0
  159.7290  206.2010  145.9940 O   0  0  0  0  0  0  0  0  0  0  0  0
  161.2060  205.7960  143.8710 S   0  0  0  0  0  1  0  0  0  0  0  0
  162.5350  207.4070  147.4830 C   0  0  0  0  0  2  0  0  0  0  0  0
  162.1590  209.1160  149.5010 C   0  0  0  0  0  0  0  0  0  0  0  0
  162.3300  208.3460  148.5900 C   0  0  0  0  0  0  0  0  0  0  0  0
  161.9590  209.5990  151.7700 O   0  0  0  0  0  0  0  0  0  0  0  0
  161.9550  210.0310  150.5870 C   0  0  0  0  0  0  0  0  0  0  0  0
  161.7530  211.3900  150.3100 O   0  0  0  0  0  0  0  0  0  0  0  0
  162.7070  213.6270  147.7360 C   0  0  0  0  0  2  0  0  0  0  0  0
  160.7340  213.2180  149.0540 C   0  0  0  0  0  2  0  0  0  0  0  0
  161.5200  211.9220  149.0050 C   0  0  0  0  0  3  0  0  0  0  0  0
  162.8170  212.2080  148.2650 C   0  0  0  0  0  2  0  0  0  0  0  0
  161.2570  214.0340  147.8960 C   0  0  0  0  0  2  0  0  0  0  0  0
  1  5  1  0  0  0  0
  3  8  2  0  0  0  0
  6 17  1  6  0  0  0
  6  1  1  0  0  0  0
  7  2  1  6  0  0  0
  7 12  1  0  0  0  0
  8  7  1  0  0  0  0
  8  9  1  0  0  0  0
  9 13  2  0  0  0  0
 10 14  1  1  0  0  0
 10  2  1  0  0  0  0
 10  6  1  0  0  0  0
 11  3  1  0  0  0  0
 11  2  2  0  0  0  0
 12  5  1  0  0  0  0
 12  4  2  0  0  0  0
 13  4  1  0  0  0  0
 14 15  2  0  0  0  0
 16 14  1  0  0  0  0
 17 19  1  0  0  0  0
 18 21  1  0  0  0  0
 19 18  3  0  0  0  0
 21 20  2  0  0  0  0
 22 21  1  0  0  0  0
 23 27  1  0  0  0  0
 23 26  1  0  0  0  0
 25 24  1  0  0  0  0
 25 22  1  0  0  0  0
 26 25  1  0  0  0  0
 27 24  1  0  0  0  0
M  END
>  <MODEL>
5

>  <REMARK>
 VINA RESULT:      -7.3      1.804      3.495
  Name = 
  6 active torsions:
  status: ('A' for Active; 'I' for Inactive)
    1  A    between atoms: C_4  and  C_18
    2  A    between atoms: C_6  and  C_24
    3  A    between atoms: C_10  and  C_16
    4  A    between atoms: C_16  and  C_27
    5  A    between atoms: C_17  and  O_20
    6  A    between atoms: O_20  and  C_24
                            x       y       z     vdW  Elec       q    Type
                         _______ _______ _______ _____ _____    ______ ____

>  <TORSDO>
F 6

$$$$
=
 OpenBabel11072412233D

 27 30  0  0  1  0  0  0  0  0999 V2000
  161.9740  207.2170  152.6800 C   0  0  0  0  0  2  0  0  0  0  0  0
  160.6030  209.8630  153.2860 C   0  0  0  0  0  0  0  0  0  0  0  0
  160.2190  211.3180  154.9800 N   0  0  0  0  0  0  0  0  0  0  0  0
  161.0640  207.7290  156.2730 C   0  0  0  0  0  3  0  0  0  0  0  0
  161.5900  206.9890  154.0690 N   0  0  0  0  0  2  0  0  0  0  0  0
  160.8260  207.8020  151.8600 C   0  0  1  0  0  3  0  0  0  0  0  0
  160.0970  209.0590  154.4340 C   0  0  2  0  0  3  0  0  0  0  0  0
  159.9650  210.1430  155.4460 C   0  0  0  0  0  0  0  0  0  0  0  0
  159.9390  209.8320  156.8760 C   0  0  0  0  0  3  0  0  0  0  0  0
  160.8360  209.3400  151.8980 C   0  0  2  0  0  3  0  0  0  0  0  0
  160.5700  211.1530  153.6100 C   0  0  0  0  0  3  0  0  0  0  0  0
  161.0060  207.9590  154.9490 C   0  0  0  0  0  0  0  0  0  0  0  0
  160.4480  208.6550  157.2610 C   0  0  0  0  0  3  0  0  0  0  0  0
  162.0590  209.9510  151.2610 C   0  0  0  0  0  0  0  0  0  0  0  0
  163.1130  210.0270  151.8720 O   0  0  0  0  0  0  0  0  0  0  0  0
  161.9540  210.5950  149.5950 S   0  0  0  0  0  1  0  0  0  0  0  0
  160.8640  207.2910  150.4250 C   0  0  0  0  0  2  0  0  0  0  0  0
  160.8230  204.6210  150.3880 C   0  0  0  0  0  0  0  0  0  0  0  0
  160.8390  205.8260  150.4030 C   0  0  0  0  0  0  0  0  0  0  0  0
  161.1250  202.5500  151.4090 O   0  0  0  0  0  0  0  0  0  0  0  0
  160.8030  203.1860  150.3710 C   0  0  0  0  0  0  0  0  0  0  0  0
  160.4260  202.5200  149.1960 O   0  0  0  0  0  0  0  0  0  0  0  0
  161.3940  203.7870  146.0340 C   0  0  0  0  0  2  0  0  0  0  0  0
  160.5250  201.7130  146.8950 C   0  0  0  0  0  2  0  0  0  0  0  0
  161.2480  202.4060  148.0340 C   0  0  0  0  0  3  0  0  0  0  0  0
  161.7040  203.7620  147.5210 C   0  0  0  0  0  2  0  0  0  0  0  0
  161.0600  202.3630  145.6410 C   0  0  0  0  0  2  0  0  0  0  0  0
  1  5  1  0  0  0  0
  2 11  2  0  0  0  0
  3  8  2  0  0  0  0
  4 13  1  0  0  0  0
  5 12  1  0  0  0  0
  6 17  1  6  0  0  0
  6 10  1  0  0  0  0
  6  1  1  0  0  0  0
  7  2  1  6  0  0  0
  7 12  1  0  0  0  0
  7  8  1  0  0  0  0
  8  9  1  0  0  0  0
  9 13  2  0  0  0  0
 10 14  1  1  0  0  0
 10  2  1  0  0  0  0
 11  3  1  0  0  0  0
 12  4  2  0  0  0  0
 14 15  2  0  0  0  0
 16 14  1  0  0  0  0
 18 19  3  0  0  0  0
 19 17  1  0  0  0  0
 21 18  1  0  0  0  0
 21 20  2  0  0  0  0
 22 21  1  0  0  0  0
 23 26  1  0  0  0  0
 24 25  1  0  0  0  0
 25 22  1  0  0  0  0
 26 25  1  0  0  0  0
 27 23  1  0  0  0  0
 27 24  1  0  0  0  0
M  END
>  <MODEL>
6

>  <REMARK>
 VINA RESULT:      -7.3      3.201      8.154
  Name = 
  6 active torsions:
  status: ('A' for Active; 'I' for Inactive)
    1  A    between atoms: C_4  and  C_18
    2  A    between atoms: C_6  and  C_24
    3  A    between atoms: C_10  and  C_16
    4  A    between atoms: C_16  and  C_27
    5  A    between atoms: C_17  and  O_20
    6  A    between atoms: O_20  and  C_24
                            x       y       z     vdW  Elec       q    Type
                         _______ _______ _______ _____ _____    ______ ____

>  <TORSDO>
F 6

$$$$
=
 OpenBabel11072412233D

 27 30  0  0  1  0  0  0  0  0999 V2000
  160.9290  209.1060  155.3620 C   0  0  0  0  0  2  0  0  0  0  0  0
  159.5330  210.6850  153.1690 C   0  0  0  0  0  0  0  0  0  0  0  0
  158.3320  212.5760  152.8310 N   0  0  0  0  0  0  0  0  0  0  0  0
  158.2190  211.3950  156.5540 C   0  0  0  0  0  3  0  0  0  0  0  0
  159.8400  209.7000  156.1330 N   0  0  0  0  0  2  0  0  0  0  0  0
  160.4350  208.5060  154.0480 C   0  0  1  0  0  3  0  0  0  0  0  0
  158.4570  210.6980  154.2000 C   0  0  2  0  0  3  0  0  0  0  0  0
  157.8270  212.0060  153.8720 C   0  0  0  0  0  0  0  0  0  0  0  0
  157.0140  212.7140  154.8620 C   0  0  0  0  0  3  0  0  0  0  0  0
  160.4700  209.5410  152.9100 C   0  0  2  0  0  3  0  0  0  0  0  0
  159.3700  211.7240  152.3550 C   0  0  0  0  0  3  0  0  0  0  0  0
  158.9010  210.6690  155.6500 C   0  0  0  0  0  0  0  0  0  0  0  0
  157.1930  212.3930  156.1500 C   0  0  0  0  0  3  0  0  0  0  0  0
  161.8620  210.0150  152.5700 C   0  0  0  0  0  0  0  0  0  0  0  0
  162.6480  210.3360  153.4470 O   0  0  0  0  0  0  0  0  0  0  0  0
  162.3550  210.1310  150.8540 S   0  0  0  0  0  1  0  0  0  0  0  0
  161.2340  207.2630  153.6800 C   0  0  0  0  0  2  0  0  0  0  0  0
  161.0180  206.7590  151.0650 C   0  0  0  0  0  0  0  0  0  0  0  0
  161.1150  206.9840  152.2460 C   0  0  0  0  0  0  0  0  0  0  0  0
  161.2050  207.3920  148.8320 O   0  0  0  0  0  0  0  0  0  0  0  0
  160.9020  206.4930  149.6610 C   0  0  0  0  0  0  0  0  0  0  0  0
  160.4530  205.2340  149.2360 O   0  0  0  0  0  0  0  0  0  0  0  0
  160.7850  201.7770  148.5430 C   0  0  0  0  0  2  0  0  0  0  0  0
  160.5770  203.1540  150.5070 C   0  0  0  0  0  2  0  0  0  0  0  0
  161.1780  204.0160  149.4140 C   0  0  0  0  0  3  0  0  0  0  0  0
  161.2100  203.1800  148.1450 C   0  0  0  0  0  2  0  0  0  0  0  0
  160.8140  201.7320  150.0570 C   0  0  0  0  0  2  0  0  0  0  0  0
  1  5  1  0  0  0  0
  3  8  2  0  0  0  0
  6 17  1  6  0  0  0
  6  1  1  0  0  0  0
  7  2  1  6  0  0  0
  7 12  1  0  0  0  0
  8  7  1  0  0  0  0
  8  9  1  0  0  0  0
  9 13  2  0  0  0  0
 10 14  1  1  0  0  0
 10  2  1  0  0  0  0
 10  6  1  0  0  0  0
 11  3  1  0  0  0  0
 11  2  2  0  0  0  0
 12  5  1  0  0  0  0
 12  4  2  0  0  0  0
 13  4  1  0  0  0  0
 14 15  2  0  0  0  0
 16 14  1  0  0  0  0
 18 19  3  0  0  0  0
 19 17  1  0  0  0  0
 20 21  2  0  0  0  0
 21 18  1  0  0  0  0
 22 25  1  0  0  0  0
 22 21  1  0  0  0  0
 23 27  1  0  0  0  0
 25 24  1  0  0  0  0
 26 23  1  0  0  0  0
 26 25  1  0  0  0  0
 27 24  1  0  0  0  0
M  END
>  <MODEL>
7

>  <REMARK>
 VINA RESULT:      -6.9      3.831      8.607
  Name = 
  6 active torsions:
  status: ('A' for Active; 'I' for Inactive)
    1  A    between atoms: C_4  and  C_18
    2  A    between atoms: C_6  and  C_24
    3  A    between atoms: C_10  and  C_16
    4  A    between atoms: C_16  and  C_27
    5  A    between atoms: C_17  and  O_20
    6  A    between atoms: O_20  and  C_24
                            x       y       z     vdW  Elec       q    Type
                         _______ _______ _______ _____ _____    ______ ____

>  <TORSDO>
F 6

$$$$
=
 OpenBabel11072412233D

 27 30  0  0  1  0  0  0  0  0999 V2000
  162.6390  207.3460  150.6300 C   0  0  0  0  0  2  0  0  0  0  0  0
  160.8660  209.3080  152.1330 C   0  0  0  0  0  0  0  0  0  0  0  0
  160.2270  209.8780  154.2300 N   0  0  0  0  0  0  0  0  0  0  0  0
  161.5810  206.2180  154.0380 C   0  0  0  0  0  3  0  0  0  0  0  0
  162.2630  206.5210  151.7740 N   0  0  0  0  0  2  0  0  0  0  0  0
  161.4340  208.0610  150.0220 C   0  0  1  0  0  3  0  0  0  0  0  0
  160.4640  208.0460  152.8150 C   0  0  2  0  0  3  0  0  0  0  0  0
  160.1450  208.5930  154.1620 C   0  0  0  0  0  0  0  0  0  0  0  0
  160.1350  207.7230  155.3390 C   0  0  0  0  0  3  0  0  0  0  0  0
  161.2080  209.4350  150.6760 C   0  0  2  0  0  3  0  0  0  0  0  0
  160.6300  210.3360  152.9440 C   0  0  0  0  0  3  0  0  0  0  0  0
  161.5180  206.9600  152.9170 C   0  0  0  0  0  0  0  0  0  0  0  0
  160.8090  206.5700  155.2590 C   0  0  0  0  0  3  0  0  0  0  0  0
  162.3370  210.4070  150.4420 C   0  0  0  0  0  0  0  0  0  0  0  0
  163.2580  210.5030  151.2380 O   0  0  0  0  0  0  0  0  0  0  0  0
  162.3120  211.4510  148.9890 S   0  0  0  0  0  1  0  0  0  0  0  0
  161.5800  208.1920  148.5120 C   0  0  0  0  0  2  0  0  0  0  0  0
  161.7910  205.7790  147.3860 C   0  0  0  0  0  0  0  0  0  0  0  0
  161.6960  206.8690  147.8920 C   0  0  0  0  0  0  0  0  0  0  0  0
  161.9460  204.3820  145.5300 O   0  0  0  0  0  0  0  0  0  0  0  0
  161.9010  204.4820  146.7840 C   0  0  0  0  0  0  0  0  0  0  0  0
  161.9550  203.3470  147.6060 O   0  0  0  0  0  0  0  0  0  0  0  0
  160.8680  202.5090  150.8700 C   0  0  0  0  0  2  0  0  0  0  0  0
  160.9320  201.4300  148.7190 C   0  0  0  0  0  2  0  0  0  0  0  0
  160.9000  202.9270  148.4720 C   0  0  0  0  0  3  0  0  0  0  0  0
  160.9690  203.6090  149.8290 C   0  0  0  0  0  2  0  0  0  0  0  0
  160.4350  201.2580  150.1340 C   0  0  0  0  0  2  0  0  0  0  0  0
  1  5  1  0  0  0  0
  2 11  2  0  0  0  0
  4 13  1  0  0  0  0
  5 12  1  0  0  0  0
  6 17  1  6  0  0  0
  6  1  1  0  0  0  0
  6 10  1  0  0  0  0
  7  2  1  6  0  0  0
  7 12  1  0  0  0  0
  7  8  1  0  0  0  0
  8  3  2  0  0  0  0
  8  9  1  0  0  0  0
 10 14  1  1  0  0  0
 10  2  1  0  0  0  0
 11  3  1  0  0  0  0
 12  4  2  0  0  0  0
 13  9  2  0  0  0  0
 14 15  2  0  0  0  0
 16 14  1  0  0  0  0
 18 19  3  0  0  0  0
 19 17  1  0  0  0  0
 20 21  2  0  0  0  0
 21 18  1  0  0  0  0
 21 22  1  0  0  0  0
 22 25  1  0  0  0  0
 24 27  1  0  0  0  0
 25 24  1  0  0  0  0
 25 26  1  0  0  0  0
 26 23  1  0  0  0  0
 27 23  1  0  0  0  0
M  END
>  <MODEL>
8

>  <REMARK>
 VINA RESULT:      -6.9      2.453      6.825
  Name = 
  6 active torsions:
  status: ('A' for Active; 'I' for Inactive)
    1  A    between atoms: C_4  and  C_18
    2  A    between atoms: C_6  and  C_24
    3  A    between atoms: C_10  and  C_16
    4  A    between atoms: C_16  and  C_27
    5  A    between atoms: C_17  and  O_20
    6  A    between atoms: O_20  and  C_24
                            x       y       z     vdW  Elec       q    Type
                         _______ _______ _______ _____ _____    ______ ____

>  <TORSDO>
F 6

$$$$
=
 OpenBabel11072412233D

 27 30  0  0  1  0  0  0  0  0999 V2000
  162.2980  208.7360  151.1890 C   0  0  0  0  0  2  0  0  0  0  0  0
  160.8930  206.0570  150.8660 C   0  0  0  0  0  0  0  0  0  0  0  0
  160.8430  204.2270  149.5320 N   0  0  0  0  0  0  0  0  0  0  0  0
  162.3480  207.3420  147.7160 C   0  0  0  0  0  3  0  0  0  0  0  0
  162.3270  208.6100  149.7350 N   0  0  0  0  0  2  0  0  0  0  0  0
  160.9200  208.4090  151.7610 C   0  0  1  0  0  3  0  0  0  0  0  0
  160.7960  206.5530  149.4640 C   0  0  2  0  0  3  0  0  0  0  0  0
  160.8390  205.2490  148.7460 C   0  0  0  0  0  0  0  0  0  0  0  0
  161.2300  205.1830  147.3380 C   0  0  0  0  0  3  0  0  0  0  0  0
  160.7920  206.9130  152.0950 C   0  0  2  0  0  3  0  0  0  0  0  0
  160.8250  204.7290  150.8650 C   0  0  0  0  0  3  0  0  0  0  0  0
  161.9120  207.4610  148.9830 C   0  0  0  0  0  0  0  0  0  0  0  0
  161.9360  206.2090  146.8450 C   0  0  0  0  0  3  0  0  0  0  0  0
  161.7320  206.4550  153.1830 C   0  0  0  0  0  0  0  0  0  0  0  0
  162.8250  205.9840  152.9100 O   0  0  0  0  0  0  0  0  0  0  0  0
  161.2260  206.5840  154.8940 S   0  0  0  0  0  1  0  0  0  0  0  0
  160.6170  209.2700  152.9810 C   0  0  0  0  0  2  0  0  0  0  0  0
  159.3790  211.5220  152.2510 C   0  0  0  0  0  0  0  0  0  0  0  0
  159.9360  210.5040  152.5790 C   0  0  0  0  0  0  0  0  0  0  0  0
  158.9510  213.2280  150.7260 O   0  0  0  0  0  0  0  0  0  0  0  0
  158.7180  212.7330  151.8610 C   0  0  0  0  0  0  0  0  0  0  0  0
  157.8240  213.3450  152.7510 O   0  0  0  0  0  0  0  0  0  0  0  0
  155.7750  213.5450  155.6330 C   0  0  0  0  0  2  0  0  0  0  0  0
  158.0670  212.9830  155.1530 C   0  0  0  0  0  2  0  0  0  0  0  0
  157.2620  212.7050  153.8980 C   0  0  0  0  0  3  0  0  0  0  0  0
  155.8370  213.1600  154.1650 C   0  0  0  0  0  2  0  0  0  0  0  0
  157.0490  213.0240  156.2670 C   0  0  0  0  0  2  0  0  0  0  0  0
  1  6  1  0  0  0  0
  2 10  1  0  0  0  0
  3 11  1  0  0  0  0
  4 12  2  0  0  0  0
  5  1  1  0  0  0  0
  6 10  1  0  0  0  0
  6 17  1  1  0  0  0
  7  8  1  6  0  0  0
  7  2  1  0  0  0  0
  8  3  2  0  0  0  0
  9  8  1  0  0  0  0
 10 14  1  1  0  0  0
 11  2  2  0  0  0  0
 12  7  1  0  0  0  0
 12  5  1  0  0  0  0
 13  9  2  0  0  0  0
 13  4  1  0  0  0  0
 14 16  1  0  0  0  0
 15 14  2  0  0  0  0
 18 19  3  0  0  0  0
 19 17  1  0  0  0  0
 20 21  2  0  0  0  0
 21 18  1  0  0  0  0
 21 22  1  0  0  0  0
 22 25  1  0  0  0  0
 23 27  1  0  0  0  0
 24 27  1  0  0  0  0
 25 26  1  0  0  0  0
 25 24  1  0  0  0  0
 26 23  1  0  0  0  0
M  END
>  <MODEL>
9

>  <REMARK>
 VINA RESULT:      -6.6      4.037      5.952
  Name = 
  6 active torsions:
  status: ('A' for Active; 'I' for Inactive)
    1  A    between atoms: C_4  and  C_18
    2  A    between atoms: C_6  and  C_24
    3  A    between atoms: C_10  and  C_16
    4  A    between atoms: C_16  and  C_27
    5  A    between atoms: C_17  and  O_20
    6  A    between atoms: O_20  and  C_24
                            x       y       z     vdW  Elec       q    Type
                         _______ _______ _______ _____ _____    ______ ____

>  <TORSDO>
F 6

$$$$
