=
 OpenBabel11072413193D

 44 49  0  0  1  0  0  0  0  0999 V2000
  162.6760  209.1050  150.7530 C   0  0  1  0  0  3  0  0  0  0  0  0
  160.6330  210.1510  151.4560 C   0  0  1  0  0  3  0  0  0  0  0  0
  161.8640  208.2720  151.7200 C   0  0  1  0  0  3  0  0  0  0  0  0
  161.9350  210.4080  150.7180 C   0  0  1  0  0  0  0  0  0  0  0  0
  160.5660  208.8030  151.8460 O   0  0  0  0  0  0  0  0  0  0  0  0
  163.2490  210.3140  151.4730 C   0  0  0  0  0  2  0  0  0  0  0  0
  161.4750  204.8480  149.5030 C   0  0  1  0  0  3  0  0  0  0  0  0
  160.9120  204.3660  148.1940 C   0  0  2  0  0  3  0  0  0  0  0  0
  161.1390  206.6380  149.5990 S   0  0  0  0  0  0  0  0  0  0  0  0
  160.1900  200.5340  149.7450 O   0  0  0  0  0  0  0  0  0  0  0  0
  162.8780  205.1020  146.9220 O   0  0  0  0  0  1  0  0  0  0  0  0
  160.9760  206.0040  152.2440 C   0  0  0  0  0  2  0  0  0  0  0  0
  160.5770  201.6960  149.4510 C   0  0  0  0  0  0  0  0  0  0  0  0
  160.7360  202.0690  147.9880 C   0  0  1  0  0  3  0  0  0  0  0  0
  161.1930  204.5170  152.0120 C   0  0  1  0  0  3  0  0  0  0  0  0
  161.7800  203.1510  147.9100 C   0  0  1  0  0  3  0  0  0  0  0  0
  161.8210  206.8120  151.2780 C   0  0  2  0  0  3  0  0  0  0  0  0
  160.8970  202.6030  150.5310 N   0  0  0  0  0  2  0  0  0  0  0  0
  160.5010  203.8050  152.9950 O   0  0  0  0  0  1  0  0  0  0  0  0
  161.2020  200.8790  147.1640 C   0  0  0  0  0  1  0  0  0  0  0  0
  160.7310  204.0700  150.6200 C   0  0  2  0  0  3  0  0  0  0  0  0
  161.7320  204.3040  146.9310 C   0  0  1  0  0  0  0  0  0  0  0  0
  161.0020  204.0740  145.6140 C   0  0  0  0  0  2  0  0  0  0  0  0
  161.3640  205.5220  143.7580 O   0  0  0  0  0  0  0  0  0  0  0  0
  160.8190  205.3600  144.8800 C   0  0  0  0  0  0  0  0  0  0  0  0
  160.0400  206.3730  145.4240 O   0  0  0  0  0  1  0  0  0  0  0  0
  160.9880  212.0710  149.2530 F   0  0  0  0  0  0  0  0  0  0  0  0
  161.9060  211.0360  149.3230 C   0  0  0  0  0  0  0  0  0  0  0  0
  163.1610  211.5260  149.0060 F   0  0  0  0  0  0  0  0  0  0  0  0
  161.5550  210.0680  148.3990 F   0  0  0  0  0  0  0  0  0  0  0  0
  160.4680  211.2190  152.9050 S   0  0  1  0  0  0  0  0  0  0  0  0
  160.0870  212.5760  152.3320 O   0  0  0  0  0  0  0  0  0  0  0  0
  158.9800  210.6630  153.6480 N   0  0  0  0  0  2  0  0  0  0  0  0
  159.0090  210.9370  156.1000 C   0  0  0  0  0  3  0  0  0  0  0  0
  158.4650  211.4960  157.2590 C   0  0  0  0  0  3  0  0  0  0  0  0
  157.3530  212.0920  154.7690 C   0  0  0  0  0  3  0  0  0  0  0  0
  156.7980  212.6550  155.9260 C   0  0  0  0  0  0  0  0  0  0  0  0
  157.3630  212.3520  157.1730 C   0  0  0  0  0  3  0  0  0  0  0  0
  158.4530  211.2340  154.8480 C   0  0  0  0  0  0  0  0  0  0  0  0
  155.6340  213.5470  155.8290 C   0  0  0  0  0  0  0  0  0  0  0  0
  154.7210  213.4910  156.6980 O   0  0  0  0  0  0  0  0  0  0  0  0
  155.5410  214.4470  154.7630 O   0  0  0  0  0  0  0  0  0  0  0  0
  154.5780  214.3120  153.7660 C   0  0  0  0  0  3  0  0  0  0  0  0
  154.9380  214.2190  152.5300 N   0  0  0  0  0  2  0  0  0  0  0  0
  1  6  1  1  0  0  0
  1  3  1  0  0  0  0
  2  5  1  0  0  0  0
  2 31  1  1  0  0  0
  3  5  1  6  0  0  0
  4 28  1  6  0  0  0
  4  1  1  0  0  0  0
  4  2  1  0  0  0  0
  4  6  1  0  0  0  0
  7  9  1  1  0  0  0
  7 21  1  0  0  0  0
  8  7  1  0  0  0  0
  9 17  1  0  0  0  0
 11 22  1  0  0  0  0
 13 10  2  0  0  0  0
 13 18  1  0  0  0  0
 14 13  1  0  0  0  0
 15 12  1  0  0  0  0
 15 19  1  0  0  0  0
 16 14  1  0  0  0  0
 16  8  1  0  0  0  0
 17  3  1  0  0  0  0
 17 12  1  0  0  0  0
 18 21  1  0  0  0  0
 20 14  1  0  0  0  0
 21 15  1  0  0  0  0
 22 16  1  0  0  0  0
 22  8  1  0  0  0  0
 23 22  1  0  0  0  0
 24 25  2  0  0  0  0
 25 26  1  0  0  0  0
 25 23  1  0  0  0  0
 27 28  1  0  0  0  0
 29 28  1  0  0  0  0
 30 28  1  0  0  0  0
 31 33  1  0  0  0  0
 32 31  2  0  0  0  0
 33 39  1  0  0  0  0
 34 35  1  0  0  0  0
 36 39  1  0  0  0  0
 36 37  2  0  0  0  0
 37 38  1  0  0  0  0
 38 35  2  0  0  0  0
 39 34  2  0  0  0  0
 40 37  1  0  0  0  0
 40 41  2  0  0  0  0
 42 40  1  0  0  0  0
 43 42  1  0  0  0  0
 44 43  2  0  0  0  0
M  END
>  <MODEL>
1

>  <REMARK>
 VINA RESULT:      -7.3      0.000      0.000
  Name = 
  10 active torsions:
  status: ('A' for Active; 'I' for Inactive)
    1  A    between atoms: C_2  and  S_28
    2  A    between atoms: O_4  and  C_11
    3  A    between atoms: O_4  and  C_19
    4  A    between atoms: C_11  and  C_32
    5  A    between atoms: C_13  and  C_26
    6  A    between atoms: C_15  and  C_25
    7  A    between atoms: S_28  and  N_35
    8  A    between atoms: C_29  and  C_30
    9  A    between atoms: C_29  and  C_44
   10  A    between atoms: N_35  and  C_39
                            x       y       z     vdW  Elec       q    Type
                         _______ _______ _______ _____ _____    ______ ____

>  <TORSDO>
F 10

$$$$
=
 OpenBabel11072413193D

 44 49  0  0  1  0  0  0  0  0999 V2000
  161.1790  209.3670  155.0570 C   0  0  1  0  0  3  0  0  0  0  0  0
  160.8940  211.7480  155.1690 C   0  0  1  0  0  3  0  0  0  0  0  0
  160.2040  209.9150  154.0390 C   0  0  1  0  0  3  0  0  0  0  0  0
  161.4990  210.5640  155.9020 C   0  0  1  0  0  0  0  0  0  0  0  0
  160.3170  211.3160  153.9630 O   0  0  0  0  0  0  0  0  0  0  0  0
  160.5860  209.4830  156.4510 C   0  0  0  0  0  2  0  0  0  0  0  0
  161.0130  207.2430  151.0400 C   0  0  1  0  0  3  0  0  0  0  0  0
  161.6410  205.8940  150.8210 C   0  0  2  0  0  3  0  0  0  0  0  0
  161.1350  207.6010  152.8240 S   0  0  0  0  0  0  0  0  0  0  0  0
  162.7950  206.9000  146.9130 O   0  0  0  0  0  0  0  0  0  0  0  0
  159.6140  204.6890  151.5020 O   0  0  0  0  0  1  0  0  0  0  0  0
  161.3480  210.1320  151.8360 C   0  0  0  0  0  2  0  0  0  0  0  0
  162.2760  206.7640  148.0530 C   0  0  0  0  0  0  0  0  0  0  0  0
  162.0880  205.3660  148.6130 C   0  0  1  0  0  3  0  0  0  0  0  0
  161.3100  209.6850  150.3840 C   0  0  1  0  0  3  0  0  0  0  0  0
  160.9240  205.4160  149.5680 C   0  0  1  0  0  3  0  0  0  0  0  0
  160.4230  209.2700  152.6730 C   0  0  2  0  0  3  0  0  0  0  0  0
  161.8420  207.9540  148.7510 N   0  0  0  0  0  2  0  0  0  0  0  0
  162.0710  210.5740  149.6210 O   0  0  0  0  0  1  0  0  0  0  0  0
  161.7730  204.3690  147.5100 C   0  0  0  0  0  1  0  0  0  0  0  0
  161.8330  208.2560  150.1990 C   0  0  2  0  0  3  0  0  0  0  0  0
  160.8450  204.6140  150.8480 C   0  0  1  0  0  0  0  0  0  0  0  0
  161.6090  203.2970  150.8970 C   0  0  0  0  0  2  0  0  0  0  0  0
  160.0450  202.4350  149.3210 O   0  0  0  0  0  0  0  0  0  0  0  0
  160.8010  202.1960  150.2970 C   0  0  0  0  0  0  0  0  0  0  0  0
  160.8900  200.9060  150.8030 O   0  0  0  0  0  1  0  0  0  0  0  0
  163.3340  209.4470  156.9960 F   0  0  0  0  0  0  0  0  0  0  0  0
  162.9670  210.6080  156.3350 C   0  0  0  0  0  0  0  0  0  0  0  0
  163.7760  210.7660  155.2230 F   0  0  0  0  0  0  0  0  0  0  0  0
  163.1560  211.6820  157.1850 F   0  0  0  0  0  0  0  0  0  0  0  0
  159.6540  212.5920  156.1780 S   0  0  1  0  0  0  0  0  0  0  0  0
  160.4650  213.3380  157.2270 O   0  0  0  0  0  0  0  0  0  0  0  0
  159.0810  213.8720  155.1250 N   0  0  0  0  0  2  0  0  0  0  0  0
  156.6480  213.8460  155.5360 C   0  0  0  0  0  3  0  0  0  0  0  0
  155.3400  213.9010  155.0470 C   0  0  0  0  0  3  0  0  0  0  0  0
  157.4970  214.0920  153.2840 C   0  0  0  0  0  3  0  0  0  0  0  0
  156.1890  214.1450  152.7850 C   0  0  0  0  0  0  0  0  0  0  0  0
  155.1110  214.0500  153.6760 C   0  0  0  0  0  3  0  0  0  0  0  0
  157.7330  213.9420  154.6540 C   0  0  0  0  0  0  0  0  0  0  0  0
  155.9550  214.2930  151.3410 C   0  0  0  0  0  0  0  0  0  0  0  0
  154.7790  214.2650  150.8860 O   0  0  0  0  0  0  0  0  0  0  0  0
  157.0440  214.4530  150.4780 O   0  0  0  0  0  0  0  0  0  0  0  0
  157.2800  213.5800  149.4200 C   0  0  0  0  0  3  0  0  0  0  0  0
  158.4760  213.4380  148.9560 N   0  0  0  0  0  2  0  0  0  0  0  0
  1  4  1  0  0  0  0
  1  6  1  1  0  0  0
  2  4  1  0  0  0  0
  2 31  1  1  0  0  0
  3  5  1  6  0  0  0
  3  1  1  0  0  0  0
  4 28  1  1  0  0  0
  4  6  1  0  0  0  0
  5  2  1  0  0  0  0
  7  9  1  1  0  0  0
  8 22  1  0  0  0  0
  8  7  1  0  0  0  0
 10 13  2  0  0  0  0
 12 17  1  0  0  0  0
 13 14  1  0  0  0  0
 13 18  1  0  0  0  0
 14 16  1  0  0  0  0
 15 12  1  0  0  0  0
 16  8  1  0  0  0  0
 16 22  1  0  0  0  0
 17  9  1  0  0  0  0
 17  3  1  0  0  0  0
 18 21  1  0  0  0  0
 19 15  1  0  0  0  0
 20 14  1  0  0  0  0
 21 15  1  0  0  0  0
 21  7  1  0  0  0  0
 22 23  1  0  0  0  0
 22 11  1  0  0  0  0
 24 25  2  0  0  0  0
 25 26  1  0  0  0  0
 25 23  1  0  0  0  0
 28 27  1  0  0  0  0
 28 30  1  0  0  0  0
 29 28  1  0  0  0  0
 31 32  2  0  0  0  0
 33 31  1  0  0  0  0
 35 34  1  0  0  0  0
 36 39  1  0  0  0  0
 37 36  2  0  0  0  0
 37 38  1  0  0  0  0
 38 35  2  0  0  0  0
 39 33  1  0  0  0  0
 39 34  2  0  0  0  0
 40 37  1  0  0  0  0
 41 40  2  0  0  0  0
 42 40  1  0  0  0  0
 43 42  1  0  0  0  0
 44 43  2  0  0  0  0
M  END
>  <MODEL>
2

>  <REMARK>
 VINA RESULT:      -6.0      3.267      5.133
  Name = 
  10 active torsions:
  status: ('A' for Active; 'I' for Inactive)
    1  A    between atoms: C_2  and  S_28
    2  A    between atoms: O_4  and  C_11
    3  A    between atoms: O_4  and  C_19
    4  A    between atoms: C_11  and  C_32
    5  A    between atoms: C_13  and  C_26
    6  A    between atoms: C_15  and  C_25
    7  A    between atoms: S_28  and  N_35
    8  A    between atoms: C_29  and  C_30
    9  A    between atoms: C_29  and  C_44
   10  A    between atoms: N_35  and  C_39
                            x       y       z     vdW  Elec       q    Type
                         _______ _______ _______ _____ _____    ______ ____

>  <TORSDO>
F 10

$$$$
=
 OpenBabel11072413193D

 44 49  0  0  1  0  0  0  0  0999 V2000
  161.0550  208.7150  154.6900 C   0  0  1  0  0  3  0  0  0  0  0  0
  161.0620  210.8790  153.6510 C   0  0  1  0  0  3  0  0  0  0  0  0
  160.4380  208.7320  153.3090 C   0  0  1  0  0  3  0  0  0  0  0  0
  161.3110  210.1660  154.9680 C   0  0  1  0  0  0  0  0  0  0  0  0
  160.7470  209.9390  152.6540 O   0  0  0  0  0  0  0  0  0  0  0  0
  160.1580  209.4620  155.6620 C   0  0  0  0  0  2  0  0  0  0  0  0
  161.1210  206.0850  150.2570 C   0  0  1  0  0  3  0  0  0  0  0  0
  160.6360  205.7550  148.8720 C   0  0  2  0  0  3  0  0  0  0  0  0
  160.1460  207.5150  150.8340 S   0  0  0  0  0  0  0  0  0  0  0  0
  161.5990  201.6970  149.3420 O   0  0  0  0  0  0  0  0  0  0  0  0
  162.0190  207.4920  147.8270 O   0  0  0  0  0  1  0  0  0  0  0  0
  160.5390  206.2440  153.2120 C   0  0  0  0  0  2  0  0  0  0  0  0
  161.4820  202.9510  149.3670 C   0  0  0  0  0  0  0  0  0  0  0  0
  161.3200  203.7000  148.0570 C   0  0  1  0  0  3  0  0  0  0  0  0
  161.2740  205.0700  152.5870 C   0  0  1  0  0  3  0  0  0  0  0  0
  161.8610  205.0900  148.2640 C   0  0  1  0  0  3  0  0  0  0  0  0
  160.8990  207.5290  152.4910 C   0  0  2  0  0  3  0  0  0  0  0  0
  161.5560  203.6170  150.6480 N   0  0  0  0  0  2  0  0  0  0  0  0
  161.0200  203.9260  153.3480 O   0  0  0  0  0  1  0  0  0  0  0  0
  162.1030  203.0310  146.9400 C   0  0  0  0  0  1  0  0  0  0  0  0
  160.8600  204.8300  151.1300 C   0  0  2  0  0  3  0  0  0  0  0  0
  161.2690  206.3310  147.6310 C   0  0  1  0  0  0  0  0  0  0  0  0
  160.5350  206.1600  146.3080 C   0  0  0  0  0  2  0  0  0  0  0  0
  162.6810  206.0060  145.2860 O   0  0  0  0  0  1  0  0  0  0  0  0
  161.4660  205.6810  145.2460 C   0  0  0  0  0  0  0  0  0  0  0  0
  161.0010  204.8670  144.2210 O   0  0  0  0  0  0  0  0  0  0  0  0
  163.6680  210.6540  154.8530 F   0  0  0  0  0  0  0  0  0  0  0  0
  162.6200  210.4030  155.7240 C   0  0  0  0  0  0  0  0  0  0  0  0
  162.4770  211.4820  156.5770 F   0  0  0  0  0  0  0  0  0  0  0  0
  162.9220  209.2770  156.4690 F   0  0  0  0  0  0  0  0  0  0  0  0
  159.7320  212.0950  153.7930 S   0  0  1  0  0  0  0  0  0  0  0  0
  160.0550  212.8600  155.0680 O   0  0  0  0  0  0  0  0  0  0  0  0
  160.1040  213.2490  152.5250 N   0  0  0  0  0  2  0  0  0  0  0  0
  157.9320  213.5180  151.3850 C   0  0  0  0  0  3  0  0  0  0  0  0
  157.1920  213.6140  150.2040 C   0  0  0  0  0  3  0  0  0  0  0  0
  159.9660  213.3130  150.0920 C   0  0  0  0  0  3  0  0  0  0  0  0
  159.2320  213.4060  148.9020 C   0  0  0  0  0  0  0  0  0  0  0  0
  157.8400  213.5590  148.9660 C   0  0  0  0  0  3  0  0  0  0  0  0
  159.3250  213.3660  151.3330 C   0  0  0  0  0  0  0  0  0  0  0  0
  159.9190  213.3380  147.6030 C   0  0  0  0  0  0  0  0  0  0  0  0
  159.5100  214.0370  146.6360 O   0  0  0  0  0  0  0  0  0  0  0  0
  161.0160  212.4860  147.4470 O   0  0  0  0  0  0  0  0  0  0  0  0
  162.2650  212.9580  147.0520 C   0  0  0  0  0  3  0  0  0  0  0  0
  163.3300  212.5450  147.6530 N   0  0  0  0  0  2  0  0  0  0  0  0
  1  4  1  0  0  0  0
  1  6  1  1  0  0  0
  2 31  1  1  0  0  0
  2  4  1  0  0  0  0
  3  5  1  6  0  0  0
  3  1  1  0  0  0  0
  4  6  1  0  0  0  0
  4 28  1  1  0  0  0
  5  2  1  0  0  0  0
  7  9  1  1  0  0  0
  7 21  1  0  0  0  0
  8  7  1  0  0  0  0
  9 17  1  0  0  0  0
 10 13  2  0  0  0  0
 13 18  1  0  0  0  0
 14 16  1  0  0  0  0
 14 13  1  0  0  0  0
 15 12  1  0  0  0  0
 15 19  1  0  0  0  0
 16  8  1  0  0  0  0
 17 12  1  0  0  0  0
 17  3  1  0  0  0  0
 18 21  1  0  0  0  0
 20 14  1  0  0  0  0
 21 15  1  0  0  0  0
 22 11  1  0  0  0  0
 22 16  1  0  0  0  0
 22  8  1  0  0  0  0
 23 22  1  0  0  0  0
 25 24  1  0  0  0  0
 25 23  1  0  0  0  0
 26 25  2  0  0  0  0
 27 28  1  0  0  0  0
 28 30  1  0  0  0  0
 28 29  1  0  0  0  0
 31 32  2  0  0  0  0
 33 31  1  0  0  0  0
 35 34  2  0  0  0  0
 36 39  2  0  0  0  0
 37 38  2  0  0  0  0
 37 36  1  0  0  0  0
 38 35  1  0  0  0  0
 39 34  1  0  0  0  0
 39 33  1  0  0  0  0
 40 37  1  0  0  0  0
 41 40  2  0  0  0  0
 42 40  1  0  0  0  0
 43 42  1  0  0  0  0
 43 44  2  0  0  0  0
M  END
>  <MODEL>
3

>  <REMARK>
 VINA RESULT:      -5.5      3.337      5.053
  Name = 
  10 active torsions:
  status: ('A' for Active; 'I' for Inactive)
    1  A    between atoms: C_2  and  S_28
    2  A    between atoms: O_4  and  C_11
    3  A    between atoms: O_4  and  C_19
    4  A    between atoms: C_11  and  C_32
    5  A    between atoms: C_13  and  C_26
    6  A    between atoms: C_15  and  C_25
    7  A    between atoms: S_28  and  N_35
    8  A    between atoms: C_29  and  C_30
    9  A    between atoms: C_29  and  C_44
   10  A    between atoms: N_35  and  C_39
                            x       y       z     vdW  Elec       q    Type
                         _______ _______ _______ _____ _____    ______ ____

>  <TORSDO>
F 10

$$$$
=
 OpenBabel11072413193D

 44 49  0  0  1  0  0  0  0  0999 V2000
  160.6460  207.7780  151.2590 C   0  0  1  0  0  3  0  0  0  0  0  0
  162.3600  206.1380  151.6230 C   0  0  1  0  0  3  0  0  0  0  0  0
  160.7020  207.2570  152.6780 C   0  0  1  0  0  3  0  0  0  0  0  0
  161.6340  206.9110  150.5370 C   0  0  1  0  0  0  0  0  0  0  0  0
  161.8980  206.5440  152.8860 O   0  0  0  0  0  0  0  0  0  0  0  0
  160.1470  206.6850  150.3300 C   0  0  0  0  0  2  0  0  0  0  0  0
  159.5370  210.6940  154.5810 C   0  0  1  0  0  3  0  0  0  0  0  0
  158.8180  211.9870  154.3110 C   0  0  2  0  0  3  0  0  0  0  0  0
  159.5520  209.7590  153.0140 S   0  0  0  0  0  0  0  0  0  0  0  0
  161.0220  214.0010  157.2610 O   0  0  0  0  0  0  0  0  0  0  0  0
  156.6010  210.9620  154.5610 O   0  0  0  0  0  1  0  0  0  0  0  0
  161.9270  208.9280  154.0610 C   0  0  0  0  0  2  0  0  0  0  0  0
  160.4090  213.1990  156.5070 C   0  0  0  0  0  0  0  0  0  0  0  0
  159.0560  213.6020  155.9500 C   0  0  1  0  0  3  0  0  0  0  0  0
  161.8220  209.8190  155.2880 C   0  0  1  0  0  3  0  0  0  0  0  0
  158.2810  212.3370  155.6900 C   0  0  1  0  0  3  0  0  0  0  0  0
  160.5580  208.3970  153.6830 C   0  0  2  0  0  3  0  0  0  0  0  0
  161.0110  211.9100  156.2480 N   0  0  0  0  0  2  0  0  0  0  0  0
  163.1090  210.1900  155.6840 O   0  0  0  0  0  1  0  0  0  0  0  0
  158.2840  214.4530  156.9450 C   0  0  0  0  0  1  0  0  0  0  0  0
  160.9730  211.0710  155.0310 C   0  0  2  0  0  3  0  0  0  0  0  0
  157.3340  212.1500  154.5240 C   0  0  1  0  0  0  0  0  0  0  0  0
  156.6630  213.3950  153.9610 C   0  0  0  0  0  2  0  0  0  0  0  0
  154.9400  213.1400  155.5850 O   0  0  0  0  0  1  0  0  0  0  0  0
  155.2440  213.4810  154.4130 C   0  0  0  0  0  0  0  0  0  0  0  0
  154.2600  213.9470  153.5510 O   0  0  0  0  0  0  0  0  0  0  0  0
  162.3670  209.0470  149.6930 F   0  0  0  0  0  0  0  0  0  0  0  0
  162.4380  207.6790  149.4850 C   0  0  0  0  0  0  0  0  0  0  0  0
  163.7640  207.2850  149.5340 F   0  0  0  0  0  0  0  0  0  0  0  0
  161.9300  207.3940  148.2310 F   0  0  0  0  0  0  0  0  0  0  0  0
  162.1380  204.3540  151.4310 S   0  0  1  0  0  0  0  0  0  0  0  0
  161.2090  203.9640  152.5720 O   0  0  0  0  0  0  0  0  0  0  0  0
  161.1120  204.2260  150.0140 N   0  0  0  0  0  2  0  0  0  0  0  0
  161.0300  201.7670  149.8240 C   0  0  0  0  0  3  0  0  0  0  0  0
  160.9590  200.6190  149.0310 C   0  0  0  0  0  3  0  0  0  0  0  0
  160.9460  203.1430  147.8360 C   0  0  0  0  0  3  0  0  0  0  0  0
  160.8780  201.9970  147.0320 C   0  0  0  0  0  0  0  0  0  0  0  0
  160.8830  200.7330  147.6390 C   0  0  0  0  0  3  0  0  0  0  0  0
  161.0240  203.0360  149.2280 C   0  0  0  0  0  0  0  0  0  0  0  0
  160.8070  202.1250  145.5690 C   0  0  0  0  0  0  0  0  0  0  0  0
  160.2880  201.2040  144.8800 O   0  0  0  0  0  0  0  0  0  0  0  0
  161.3290  203.2640  144.9500 O   0  0  0  0  0  0  0  0  0  0  0  0
  160.5250  204.3450  144.6000 C   0  0  0  0  0  3  0  0  0  0  0  0
  160.8100  205.5280  145.0300 N   0  0  0  0  0  2  0  0  0  0  0  0
  1  6  1  6  0  0  0
  1  3  1  0  0  0  0
  2 31  1  6  0  0  0
  2  5  1  0  0  0  0
  3  5  1  1  0  0  0
  3 17  1  0  0  0  0
  4 28  1  6  0  0  0
  4  1  1  0  0  0  0
  4  2  1  0  0  0  0
  6  4  1  0  0  0  0
  7  9  1  6  0  0  0
  7 21  1  0  0  0  0
  8 22  1  0  0  0  0
  8  7  1  0  0  0  0
  8 16  1  0  0  0  0
  9 17  1  0  0  0  0
 12 15  1  0  0  0  0
 13 10  2  0  0  0  0
 14 13  1  0  0  0  0
 14 20  1  0  0  0  0
 15 19  1  0  0  0  0
 16 14  1  0  0  0  0
 17 12  1  0  0  0  0
 18 13  1  0  0  0  0
 21 15  1  0  0  0  0
 21 18  1  0  0  0  0
 22 11  1  0  0  0  0
 22 16  1  0  0  0  0
 23 25  1  0  0  0  0
 23 22  1  0  0  0  0
 25 24  1  0  0  0  0
 26 25  2  0  0  0  0
 28 29  1  0  0  0  0
 28 27  1  0  0  0  0
 30 28  1  0  0  0  0
 31 32  2  0  0  0  0
 33 31  1  0  0  0  0
 35 34  2  0  0  0  0
 36 39  2  0  0  0  0
 37 38  2  0  0  0  0
 37 36  1  0  0  0  0
 38 35  1  0  0  0  0
 39 34  1  0  0  0  0
 39 33  1  0  0  0  0
 40 37  1  0  0  0  0
 41 40  2  0  0  0  0
 42 40  1  0  0  0  0
 43 42  1  0  0  0  0
 43 44  2  0  0  0  0
M  END
>  <MODEL>
4

>  <REMARK>
 VINA RESULT:      -5.3      2.491     10.802
  Name = 
  10 active torsions:
  status: ('A' for Active; 'I' for Inactive)
    1  A    between atoms: C_2  and  S_28
    2  A    between atoms: O_4  and  C_11
    3  A    between atoms: O_4  and  C_19
    4  A    between atoms: C_11  and  C_32
    5  A    between atoms: C_13  and  C_26
    6  A    between atoms: C_15  and  C_25
    7  A    between atoms: S_28  and  N_35
    8  A    between atoms: C_29  and  C_30
    9  A    between atoms: C_29  and  C_44
   10  A    between atoms: N_35  and  C_39
                            x       y       z     vdW  Elec       q    Type
                         _______ _______ _______ _____ _____    ______ ____

>  <TORSDO>
F 10

$$$$
=
 OpenBabel11072413193D

 44 49  0  0  1  0  0  0  0  0999 V2000
  160.1200  207.4810  154.0930 C   0  0  1  0  0  3  0  0  0  0  0  0
  161.9940  208.8800  154.6350 C   0  0  1  0  0  3  0  0  0  0  0  0
  160.9820  207.8370  152.9020 C   0  0  1  0  0  3  0  0  0  0  0  0
  160.7040  208.3110  155.1970 C   0  0  1  0  0  0  0  0  0  0  0  0
  162.2030  208.3910  153.3340 O   0  0  0  0  0  0  0  0  0  0  0  0
  159.3790  208.7160  154.5770 C   0  0  0  0  0  2  0  0  0  0  0  0
  161.1880  205.2900  149.7000 C   0  0  1  0  0  3  0  0  0  0  0  0
  160.6680  205.1400  148.2960 C   0  0  2  0  0  3  0  0  0  0  0  0
  160.4980  206.8450  150.3580 S   0  0  0  0  0  0  0  0  0  0  0  0
  160.8270  200.9520  148.5250 O   0  0  0  0  0  0  0  0  0  0  0  0
  162.3730  206.6360  147.3600 O   0  0  0  0  0  1  0  0  0  0  0  0
  160.6060  205.3860  152.6570 C   0  0  0  0  0  2  0  0  0  0  0  0
  160.9530  202.2010  148.6250 C   0  0  0  0  0  0  0  0  0  0  0  0
  160.9560  203.0430  147.3620 C   0  0  1  0  0  3  0  0  0  0  0  0
  161.1100  204.1300  151.9650 C   0  0  1  0  0  3  0  0  0  0  0  0
  161.7510  204.2890  147.6520 C   0  0  1  0  0  3  0  0  0  0  0  0
  161.2160  206.6170  152.0150 C   0  0  2  0  0  3  0  0  0  0  0  0
  161.1360  202.7660  149.9440 N   0  0  0  0  0  2  0  0  0  0  0  0
  160.6300  203.0150  152.6560 O   0  0  0  0  0  1  0  0  0  0  0  0
  161.6120  202.3020  146.2090 C   0  0  0  0  0  1  0  0  0  0  0  0
  160.6780  204.0600  150.4950 C   0  0  2  0  0  3  0  0  0  0  0  0
  161.4170  205.6550  147.0930 C   0  0  1  0  0  0  0  0  0  0  0  0
  160.6820  205.7050  145.7600 C   0  0  0  0  0  2  0  0  0  0  0  0
  162.8530  205.3230  144.8570 O   0  0  0  0  0  1  0  0  0  0  0  0
  161.6380  205.5530  144.6250 C   0  0  0  0  0  0  0  0  0  0  0  0
  161.1900  205.6510  143.3140 O   0  0  0  0  0  0  0  0  0  0  0  0
  160.7280  206.2060  156.3710 F   0  0  0  0  0  0  0  0  0  0  0  0
  160.7190  207.5810  156.5420 C   0  0  0  0  0  0  0  0  0  0  0  0
  161.8420  207.9510  157.2610 F   0  0  0  0  0  0  0  0  0  0  0  0
  159.5900  207.9310  157.2600 F   0  0  0  0  0  0  0  0  0  0  0  0
  161.9710  210.6880  154.6160 S   0  0  1  0  0  0  0  0  0  0  0  0
  163.4100  211.0810  154.3170 O   0  0  0  0  0  0  0  0  0  0  0  0
  161.1300  211.0650  153.1230 N   0  0  0  0  0  2  0  0  0  0  0  0
  159.6420  212.6050  151.8980 C   0  0  0  0  0  3  0  0  0  0  0  0
  158.5320  213.4520  151.8800 C   0  0  0  0  0  3  0  0  0  0  0  0
  159.2180  212.1000  154.2250 C   0  0  0  0  0  3  0  0  0  0  0  0
  158.1040  212.9500  154.2180 C   0  0  0  0  0  0  0  0  0  0  0  0
  157.7640  213.6240  153.0360 C   0  0  0  0  0  3  0  0  0  0  0  0
  159.9900  211.9250  153.0730 C   0  0  0  0  0  0  0  0  0  0  0  0
  157.3070  213.1340  155.4390 C   0  0  0  0  0  0  0  0  0  0  0  0
  157.7480  213.8520  156.3780 O   0  0  0  0  0  0  0  0  0  0  0  0
  156.0660  212.5000  155.5560 O   0  0  0  0  0  0  0  0  0  0  0  0
  155.9560  211.1410  155.8390 C   0  0  0  0  0  3  0  0  0  0  0  0
  155.3720  210.3530  155.0010 N   0  0  0  0  0  2  0  0  0  0  0  0
  1  6  1  6  0  0  0
  1  4  1  0  0  0  0
  2 31  1  6  0  0  0
  2  4  1  0  0  0  0
  3  5  1  1  0  0  0
  3  1  1  0  0  0  0
  4 28  1  1  0  0  0
  5  2  1  0  0  0  0
  6  4  1  0  0  0  0
  7  9  1  1  0  0  0
  7 21  1  0  0  0  0
  8  7  1  0  0  0  0
  9 17  1  0  0  0  0
 10 13  2  0  0  0  0
 13 18  1  0  0  0  0
 14 16  1  0  0  0  0
 14 13  1  0  0  0  0
 15 19  1  0  0  0  0
 15 12  1  0  0  0  0
 16  8  1  0  0  0  0
 17 12  1  0  0  0  0
 17  3  1  0  0  0  0
 18 21  1  0  0  0  0
 20 14  1  0  0  0  0
 21 15  1  0  0  0  0
 22 11  1  0  0  0  0
 22 16  1  0  0  0  0
 22  8  1  0  0  0  0
 23 22  1  0  0  0  0
 25 24  1  0  0  0  0
 25 23  1  0  0  0  0
 26 25  2  0  0  0  0
 27 28  1  0  0  0  0
 28 30  1  0  0  0  0
 28 29  1  0  0  0  0
 32 31  2  0  0  0  0
 33 31  1  0  0  0  0
 34 39  1  0  0  0  0
 35 34  2  0  0  0  0
 35 38  1  0  0  0  0
 37 36  1  0  0  0  0
 37 40  1  0  0  0  0
 38 37  2  0  0  0  0
 39 33  1  0  0  0  0
 39 36  2  0  0  0  0
 40 42  1  0  0  0  0
 40 41  2  0  0  0  0
 42 43  1  0  0  0  0
 44 43  2  0  0  0  0
M  END
>  <MODEL>
5

>  <REMARK>
 VINA RESULT:      -5.1      3.101      3.742
  Name = 
  10 active torsions:
  status: ('A' for Active; 'I' for Inactive)
    1  A    between atoms: C_2  and  S_28
    2  A    between atoms: O_4  and  C_11
    3  A    between atoms: O_4  and  C_19
    4  A    between atoms: C_11  and  C_32
    5  A    between atoms: C_13  and  C_26
    6  A    between atoms: C_15  and  C_25
    7  A    between atoms: S_28  and  N_35
    8  A    between atoms: C_29  and  C_30
    9  A    between atoms: C_29  and  C_44
   10  A    between atoms: N_35  and  C_39
                            x       y       z     vdW  Elec       q    Type
                         _______ _______ _______ _____ _____    ______ ____

>  <TORSDO>
F 10

$$$$
=
 OpenBabel11072413193D

 44 49  0  0  1  0  0  0  0  0999 V2000
  160.3890  207.5150  154.2730 C   0  0  1  0  0  3  0  0  0  0  0  0
  161.9880  209.3050  154.2990 C   0  0  1  0  0  3  0  0  0  0  0  0
  160.8680  207.9270  152.8980 C   0  0  1  0  0  3  0  0  0  0  0  0
  161.0090  208.5410  155.1730 C   0  0  1  0  0  0  0  0  0  0  0  0
  162.0040  208.7510  153.0070 O   0  0  0  0  0  0  0  0  0  0  0  0
  159.5240  208.6150  154.8660 C   0  0  0  0  0  2  0  0  0  0  0  0
  161.1990  205.3390  149.7390 C   0  0  1  0  0  3  0  0  0  0  0  0
  160.6950  205.1460  148.3350 C   0  0  2  0  0  3  0  0  0  0  0  0
  160.4410  206.8750  150.3680 S   0  0  0  0  0  0  0  0  0  0  0  0
  161.0230  200.9720  148.6340 O   0  0  0  0  0  0  0  0  0  0  0  0
  162.3430  206.6960  147.3840 O   0  0  0  0  0  1  0  0  0  0  0  0
  160.5940  205.4590  152.6910 C   0  0  0  0  0  2  0  0  0  0  0  0
  161.0970  202.2270  148.7140 C   0  0  0  0  0  0  0  0  0  0  0  0
  161.0740  203.0480  147.4370 C   0  0  1  0  0  3  0  0  0  0  0  0
  161.1530  204.2140  152.0230 C   0  0  1  0  0  3  0  0  0  0  0  0
  161.8160  204.3290  147.7120 C   0  0  1  0  0  3  0  0  0  0  0  0
  161.1570  206.7040  152.0330 C   0  0  2  0  0  3  0  0  0  0  0  0
  161.2480  202.8200  150.0240 N   0  0  0  0  0  2  0  0  0  0  0  0
  160.7150  203.0910  152.7290 O   0  0  0  0  0  1  0  0  0  0  0  0
  161.7670  202.3150  146.3000 C   0  0  0  0  0  1  0  0  0  0  0  0
  160.7340  204.1020  150.5520 C   0  0  2  0  0  3  0  0  0  0  0  0
  161.4290  205.6720  147.1290 C   0  0  1  0  0  0  0  0  0  0  0  0
  160.7020  205.6700  145.7910 C   0  0  0  0  0  2  0  0  0  0  0  0
  161.3190  205.7750  143.4930 O   0  0  0  0  0  0  0  0  0  0  0  0
  161.6650  205.4840  144.6660 C   0  0  0  0  0  0  0  0  0  0  0  0
  162.9440  205.0030  144.9120 O   0  0  0  0  0  1  0  0  0  0  0  0
  162.2800  206.8400  156.3120 F   0  0  0  0  0  0  0  0  0  0  0  0
  161.4800  207.9530  156.5060 C   0  0  0  0  0  0  0  0  0  0  0  0
  162.1970  208.9060  157.2070 F   0  0  0  0  0  0  0  0  0  0  0  0
  160.3760  207.5830  157.2510 F   0  0  0  0  0  0  0  0  0  0  0  0
  161.5710  211.0620  154.2110 S   0  0  1  0  0  0  0  0  0  0  0  0
  160.7300  211.1870  152.9500 O   0  0  0  0  0  0  0  0  0  0  0  0
  160.4000  211.2630  155.5000 N   0  0  0  0  0  2  0  0  0  0  0  0
  159.5460  213.3260  156.5510 C   0  0  0  0  0  3  0  0  0  0  0  0
  158.6220  214.3730  156.5810 C   0  0  0  0  0  3  0  0  0  0  0  0
  158.4780  212.4410  154.5700 C   0  0  0  0  0  3  0  0  0  0  0  0
  157.5440  213.4850  154.5930 C   0  0  0  0  0  0  0  0  0  0  0  0
  157.6240  214.4530  155.6050 C   0  0  0  0  0  3  0  0  0  0  0  0
  159.4770  212.3540  155.5440 C   0  0  0  0  0  0  0  0  0  0  0  0
  156.4920  213.5580  153.5690 C   0  0  0  0  0  0  0  0  0  0  0  0
  155.3170  213.1870  153.8440 O   0  0  0  0  0  0  0  0  0  0  0  0
  156.8040  214.0290  152.2910 O   0  0  0  0  0  0  0  0  0  0  0  0
  155.8210  214.4420  151.3960 C   0  0  0  0  0  3  0  0  0  0  0  0
  155.6670  213.8210  150.2750 N   0  0  0  0  0  2  0  0  0  0  0  0
  1  6  1  6  0  0  0
  1  4  1  0  0  0  0
  2 31  1  6  0  0  0
  2  4  1  0  0  0  0
  3  5  1  1  0  0  0
  3  1  1  0  0  0  0
  4 28  1  1  0  0  0
  5  2  1  0  0  0  0
  6  4  1  0  0  0  0
  7  9  1  1  0  0  0
  7 21  1  0  0  0  0
  8  7  1  0  0  0  0
  9 17  1  0  0  0  0
 10 13  2  0  0  0  0
 13 18  1  0  0  0  0
 14 16  1  0  0  0  0
 14 13  1  0  0  0  0
 15 12  1  0  0  0  0
 15 19  1  0  0  0  0
 16  8  1  0  0  0  0
 17 12  1  0  0  0  0
 17  3  1  0  0  0  0
 18 21  1  0  0  0  0
 20 14  1  0  0  0  0
 21 15  1  0  0  0  0
 22 11  1  0  0  0  0
 22 16  1  0  0  0  0
 22  8  1  0  0  0  0
 23 22  1  0  0  0  0
 24 25  2  0  0  0  0
 25 26  1  0  0  0  0
 25 23  1  0  0  0  0
 27 28  1  0  0  0  0
 28 29  1  0  0  0  0
 28 30  1  0  0  0  0
 31 33  1  0  0  0  0
 32 31  2  0  0  0  0
 33 39  1  0  0  0  0
 34 35  1  0  0  0  0
 36 37  2  0  0  0  0
 36 39  1  0  0  0  0
 37 38  1  0  0  0  0
 38 35  2  0  0  0  0
 39 34  2  0  0  0  0
 40 41  2  0  0  0  0
 40 37  1  0  0  0  0
 42 40  1  0  0  0  0
 43 42  1  0  0  0  0
 44 43  2  0  0  0  0
M  END
>  <MODEL>
6

>  <REMARK>
 VINA RESULT:      -5.1      2.916      3.369
  Name = 
  10 active torsions:
  status: ('A' for Active; 'I' for Inactive)
    1  A    between atoms: C_2  and  S_28
    2  A    between atoms: O_4  and  C_11
    3  A    between atoms: O_4  and  C_19
    4  A    between atoms: C_11  and  C_32
    5  A    between atoms: C_13  and  C_26
    6  A    between atoms: C_15  and  C_25
    7  A    between atoms: S_28  and  N_35
    8  A    between atoms: C_29  and  C_30
    9  A    between atoms: C_29  and  C_44
   10  A    between atoms: N_35  and  C_39
                            x       y       z     vdW  Elec       q    Type
                         _______ _______ _______ _____ _____    ______ ____

>  <TORSDO>
F 10

$$$$
=
 OpenBabel11072413193D

 44 49  0  0  1  0  0  0  0  0999 V2000
  160.7770  208.6910  152.1900 C   0  0  1  0  0  3  0  0  0  0  0  0
  161.9470  210.2880  150.8330 C   0  0  1  0  0  3  0  0  0  0  0  0
  160.8310  208.3240  150.7240 C   0  0  1  0  0  3  0  0  0  0  0  0
  161.3720  210.0680  152.2210 C   0  0  1  0  0  0  0  0  0  0  0  0
  161.7730  209.1310  150.0560 O   0  0  0  0  0  0  0  0  0  0  0  0
  159.8720  209.8960  152.3850 C   0  0  0  0  0  2  0  0  0  0  0  0
  161.2680  204.5610  149.1650 C   0  0  1  0  0  3  0  0  0  0  0  0
  160.8090  203.7210  148.0040 C   0  0  2  0  0  3  0  0  0  0  0  0
  160.4870  206.1990  148.9760 S   0  0  0  0  0  0  0  0  0  0  0  0
  161.1360  200.1850  150.2410 O   0  0  0  0  0  0  0  0  0  0  0  0
  162.4840  204.6690  146.4810 O   0  0  0  0  0  1  0  0  0  0  0  0
  160.5680  206.0450  151.6950 C   0  0  0  0  0  2  0  0  0  0  0  0
  161.2050  201.3310  149.7230 C   0  0  0  0  0  0  0  0  0  0  0  0
  161.2210  201.4540  148.2100 C   0  0  1  0  0  3  0  0  0  0  0  0
  161.1510  204.6420  151.7070 C   0  0  1  0  0  3  0  0  0  0  0  0
  161.9510  202.7260  147.8690 C   0  0  1  0  0  3  0  0  0  0  0  0
  161.1500  206.8430  150.5440 C   0  0  2  0  0  3  0  0  0  0  0  0
  161.3130  202.4730  150.6040 N   0  0  0  0  0  2  0  0  0  0  0  0
  160.6930  203.9760  152.8470 O   0  0  0  0  0  1  0  0  0  0  0  0
  161.9520  200.2840  147.5710 C   0  0  0  0  0  1  0  0  0  0  0  0
  160.7800  203.8440  150.4510 C   0  0  2  0  0  3  0  0  0  0  0  0
  161.5810  203.6300  146.7130 C   0  0  1  0  0  0  0  0  0  0  0  0
  160.8970  202.9870  145.5140 C   0  0  0  0  0  2  0  0  0  0  0  0
  159.2160  203.9610  144.1370 O   0  0  0  0  0  0  0  0  0  0  0  0
  160.3940  204.0290  144.5720 C   0  0  0  0  0  0  0  0  0  0  0  0
  161.2160  205.0780  144.1840 O   0  0  0  0  0  1  0  0  0  0  0  0
  161.7300  211.3150  154.2520 F   0  0  0  0  0  0  0  0  0  0  0  0
  162.2470  210.3080  153.4530 C   0  0  0  0  0  0  0  0  0  0  0  0
  162.3340  209.1450  154.1970 F   0  0  0  0  0  0  0  0  0  0  0  0
  163.5150  210.6750  153.0420 F   0  0  0  0  0  0  0  0  0  0  0  0
  161.1780  211.7030  150.0110 S   0  0  1  0  0  0  0  0  0  0  0  0
  161.2150  212.8110  151.0530 O   0  0  0  0  0  0  0  0  0  0  0  0
  162.3910  212.2020  148.8470 N   0  0  0  0  0  2  0  0  0  0  0  0
  163.0500  213.0590  146.6290 C   0  0  0  0  0  3  0  0  0  0  0  0
  162.7070  213.4240  145.3250 C   0  0  0  0  0  3  0  0  0  0  0  0
  160.7500  212.4460  147.0610 C   0  0  0  0  0  3  0  0  0  0  0  0
  160.3960  212.8120  145.7550 C   0  0  0  0  0  0  0  0  0  0  0  0
  161.3840  213.3010  144.8890 C   0  0  0  0  0  3  0  0  0  0  0  0
  162.0710  212.5670  147.5030 C   0  0  0  0  0  0  0  0  0  0  0  0
  159.0010  212.6890  145.3070 C   0  0  0  0  0  0  0  0  0  0  0  0
  158.6830  213.0310  144.1340 O   0  0  0  0  0  0  0  0  0  0  0  0
  158.0320  212.2030  146.1900 O   0  0  0  0  0  0  0  0  0  0  0  0
  157.2200  213.0530  146.9340 C   0  0  0  0  0  3  0  0  0  0  0  0
  157.4410  213.2190  148.1940 N   0  0  0  0  0  2  0  0  0  0  0  0
  1  4  1  0  0  0  0
  1  6  1  6  0  0  0
  2 31  1  6  0  0  0
  2  4  1  0  0  0  0
  3  5  1  6  0  0  0
  3  1  1  0  0  0  0
  4  6  1  0  0  0  0
  4 28  1  1  0  0  0
  5  2  1  0  0  0  0
  7  9  1  6  0  0  0
  7 21  1  0  0  0  0
  8  7  1  0  0  0  0
  9 17  1  0  0  0  0
 11 22  1  0  0  0  0
 12 15  1  0  0  0  0
 13 10  2  0  0  0  0
 13 18  1  0  0  0  0
 14 13  1  0  0  0  0
 15 19  1  0  0  0  0
 16  8  1  0  0  0  0
 16 14  1  0  0  0  0
 17  3  1  0  0  0  0
 17 12  1  0  0  0  0
 20 14  1  0  0  0  0
 21 18  1  0  0  0  0
 21 15  1  0  0  0  0
 22 16  1  0  0  0  0
 22  8  1  0  0  0  0
 23 22  1  0  0  0  0
 24 25  2  0  0  0  0
 25 23  1  0  0  0  0
 26 25  1  0  0  0  0
 28 29  1  0  0  0  0
 28 27  1  0  0  0  0
 30 28  1  0  0  0  0
 31 32  2  0  0  0  0
 33 31  1  0  0  0  0
 34 39  1  0  0  0  0
 35 34  2  0  0  0  0
 36 39  2  0  0  0  0
 37 36  1  0  0  0  0
 38 35  1  0  0  0  0
 38 37  2  0  0  0  0
 39 33  1  0  0  0  0
 40 37  1  0  0  0  0
 40 42  1  0  0  0  0
 41 40  2  0  0  0  0
 42 43  1  0  0  0  0
 43 44  2  0  0  0  0
M  END
>  <MODEL>
7

>  <REMARK>
 VINA RESULT:      -5.1      3.448      5.574
  Name = 
  10 active torsions:
  status: ('A' for Active; 'I' for Inactive)
    1  A    between atoms: C_2  and  S_28
    2  A    between atoms: O_4  and  C_11
    3  A    between atoms: O_4  and  C_19
    4  A    between atoms: C_11  and  C_32
    5  A    between atoms: C_13  and  C_26
    6  A    between atoms: C_15  and  C_25
    7  A    between atoms: S_28  and  N_35
    8  A    between atoms: C_29  and  C_30
    9  A    between atoms: C_29  and  C_44
   10  A    between atoms: N_35  and  C_39
                            x       y       z     vdW  Elec       q    Type
                         _______ _______ _______ _____ _____    ______ ____

>  <TORSDO>
F 10

$$$$
=
 OpenBabel11072413193D

 44 49  0  0  1  0  0  0  0  0999 V2000
  160.4810  208.1590  152.9760 C   0  0  1  0  0  3  0  0  0  0  0  0
  162.2320  209.7500  152.5680 C   0  0  1  0  0  3  0  0  0  0  0  0
  161.0550  208.0910  151.5780 C   0  0  1  0  0  3  0  0  0  0  0  0
  161.1510  209.3650  153.5630 C   0  0  1  0  0  0  0  0  0  0  0  0
  162.2540  208.8260  151.5100 O   0  0  0  0  0  0  0  0  0  0  0  0
  159.6930  209.4460  153.1460 C   0  0  0  0  0  2  0  0  0  0  0  0
  161.3000  204.6420  149.3810 C   0  0  1  0  0  3  0  0  0  0  0  0
  160.8520  204.0640  148.0660 C   0  0  2  0  0  3  0  0  0  0  0  0
  160.6600  206.3480  149.4570 S   0  0  0  0  0  0  0  0  0  0  0  0
  160.7710  200.1720  149.6340 O   0  0  0  0  0  0  0  0  0  0  0  0
  162.6860  205.1210  146.8230 O   0  0  0  0  0  1  0  0  0  0  0  0
  160.5600  205.7070  152.1040 C   0  0  0  0  0  2  0  0  0  0  0  0
  160.9580  201.3820  149.3370 C   0  0  0  0  0  0  0  0  0  0  0  0
  161.0780  201.7700  147.8750 C   0  0  1  0  0  3  0  0  0  0  0  0
  161.0330  204.2790  151.8870 C   0  0  1  0  0  3  0  0  0  0  0  0
  161.9220  203.0150  147.8060 C   0  0  1  0  0  3  0  0  0  0  0  0
  161.2710  206.6440  151.1460 C   0  0  2  0  0  3  0  0  0  0  0  0
  161.0980  202.3350  150.4160 N   0  0  0  0  0  2  0  0  0  0  0  0
  160.4560  203.4630  152.8630 O   0  0  0  0  0  1  0  0  0  0  0  0
  161.7560  200.6750  147.0680 C   0  0  0  0  0  1  0  0  0  0  0  0
  160.6810  203.7520  150.4900 C   0  0  2  0  0  3  0  0  0  0  0  0
  161.6940  204.1380  146.8180 C   0  0  1  0  0  0  0  0  0  0  0  0
  161.0390  203.7800  145.4910 C   0  0  0  0  0  2  0  0  0  0  0  0
  159.9100  205.8180  144.9960 O   0  0  0  0  0  1  0  0  0  0  0  0
  160.8100  205.0040  144.6680 C   0  0  0  0  0  0  0  0  0  0  0  0
  161.5950  205.2520  143.5500 O   0  0  0  0  0  0  0  0  0  0  0  0
  161.8450  207.8700  155.3210 F   0  0  0  0  0  0  0  0  0  0  0  0
  161.5080  209.1840  155.0400 C   0  0  0  0  0  0  0  0  0  0  0  0
  162.5770  210.0010  155.3640 F   0  0  0  0  0  0  0  0  0  0  0  0
  160.4200  209.5390  155.8150 F   0  0  0  0  0  0  0  0  0  0  0  0
  161.9780  211.4190  151.9220 S   0  0  1  0  0  0  0  0  0  0  0  0
  161.5810  211.2060  150.4690 O   0  0  0  0  0  0  0  0  0  0  0  0
  160.4780  211.9210  152.6810 N   0  0  0  0  0  2  0  0  0  0  0  0
  158.3720  213.2070  152.6880 C   0  0  0  0  0  3  0  0  0  0  0  0
  157.4370  213.9960  152.0150 C   0  0  0  0  0  3  0  0  0  0  0  0
  159.7100  213.0800  150.6780 C   0  0  0  0  0  3  0  0  0  0  0  0
  158.7770  213.8690  149.9930 C   0  0  0  0  0  0  0  0  0  0  0  0
  157.6390  214.3270  150.6710 C   0  0  0  0  0  3  0  0  0  0  0  0
  159.5140  212.7440  152.0210 C   0  0  0  0  0  0  0  0  0  0  0  0
  158.9900  214.2050  148.5780 C   0  0  0  0  0  0  0  0  0  0  0  0
  158.0030  214.4530  147.8320 O   0  0  0  0  0  0  0  0  0  0  0  0
  160.2900  214.2350  148.0640 O   0  0  0  0  0  0  0  0  0  0  0  0
  160.6890  213.4100  147.0170 C   0  0  0  0  0  3  0  0  0  0  0  0
  160.6270  212.1270  147.1460 N   0  0  0  0  0  2  0  0  0  0  0  0
  1  6  1  6  0  0  0
  1  4  1  0  0  0  0
  2 31  1  6  0  0  0
  2  4  1  0  0  0  0
  3  5  1  1  0  0  0
  3  1  1  0  0  0  0
  4 28  1  1  0  0  0
  5  2  1  0  0  0  0
  6  4  1  0  0  0  0
  7  9  1  1  0  0  0
  7 21  1  0  0  0  0
  8  7  1  0  0  0  0
  9 17  1  0  0  0  0
 13 10  2  0  0  0  0
 13 18  1  0  0  0  0
 14 13  1  0  0  0  0
 15 12  1  0  0  0  0
 15 19  1  0  0  0  0
 16 14  1  0  0  0  0
 16  8  1  0  0  0  0
 17  3  1  0  0  0  0
 17 12  1  0  0  0  0
 18 21  1  0  0  0  0
 20 14  1  0  0  0  0
 21 15  1  0  0  0  0
 22 11  1  0  0  0  0
 22 16  1  0  0  0  0
 22  8  1  0  0  0  0
 23 22  1  0  0  0  0
 25 24  1  0  0  0  0
 25 23  1  0  0  0  0
 26 25  2  0  0  0  0
 28 27  1  0  0  0  0
 28 29  1  0  0  0  0
 28 30  1  0  0  0  0
 31 33  1  0  0  0  0
 32 31  2  0  0  0  0
 35 34  2  0  0  0  0
 36 39  2  0  0  0  0
 37 38  2  0  0  0  0
 37 36  1  0  0  0  0
 38 35  1  0  0  0  0
 39 33  1  0  0  0  0
 39 34  1  0  0  0  0
 40 37  1  0  0  0  0
 41 40  2  0  0  0  0
 42 40  1  0  0  0  0
 43 44  2  0  0  0  0
 43 42  1  0  0  0  0
M  END
>  <MODEL>
8

>  <REMARK>
 VINA RESULT:      -5.0      3.282      4.291
  Name = 
  10 active torsions:
  status: ('A' for Active; 'I' for Inactive)
    1  A    between atoms: C_2  and  S_28
    2  A    between atoms: O_4  and  C_11
    3  A    between atoms: O_4  and  C_19
    4  A    between atoms: C_11  and  C_32
    5  A    between atoms: C_13  and  C_26
    6  A    between atoms: C_15  and  C_25
    7  A    between atoms: S_28  and  N_35
    8  A    between atoms: C_29  and  C_30
    9  A    between atoms: C_29  and  C_44
   10  A    between atoms: N_35  and  C_39
                            x       y       z     vdW  Elec       q    Type
                         _______ _______ _______ _____ _____    ______ ____

>  <TORSDO>
F 10

$$$$
=
 OpenBabel11072413193D

 44 49  0  0  1  0  0  0  0  0999 V2000
  160.8990  212.6080  146.2370 C   0  0  1  0  0  3  0  0  0  0  0  0
  159.5320  214.3570  147.1510 C   0  0  1  0  0  3  0  0  0  0  0  0
  159.9860  213.2620  145.2240 C   0  0  1  0  0  3  0  0  0  0  0  0
  160.4700  213.2260  147.5340 C   0  0  1  0  0  0  0  0  0  0  0  0
  159.4500  214.4530  145.7510 O   0  0  0  0  0  0  0  0  0  0  0  0
  160.0760  211.7940  147.2210 C   0  0  0  0  0  2  0  0  0  0  0  0
  161.3210  213.0430  141.3570 C   0  0  1  0  0  3  0  0  0  0  0  0
  161.3390  212.1020  140.1830 C   0  0  2  0  0  3  0  0  0  0  0  0
  160.4390  212.1890  142.7070 S   0  0  0  0  0  0  0  0  0  0  0  0
  164.9460  213.7080  138.7610 O   0  0  0  0  0  0  0  0  0  0  0  0
  159.0680  212.7170  139.4840 O   0  0  0  0  0  1  0  0  0  0  0  0
  162.2110  213.6510  144.1740 C   0  0  0  0  0  2  0  0  0  0  0  0
  163.8350  213.4430  139.2910 C   0  0  0  0  0  0  0  0  0  0  0  0
  162.7990  212.6810  138.4850 C   0  0  1  0  0  3  0  0  0  0  0  0
  162.9080  214.2320  142.9550 C   0  0  1  0  0  3  0  0  0  0  0  0
  161.4430  213.0670  139.0130 C   0  0  1  0  0  3  0  0  0  0  0  0
  160.7230  213.5230  143.9140 C   0  0  2  0  0  3  0  0  0  0  0  0
  163.5860  213.9240  140.6320 N   0  0  0  0  0  2  0  0  0  0  0  0
  164.2510  214.4530  143.2690 O   0  0  0  0  0  1  0  0  0  0  0  0
  162.8720  213.0450  137.0110 C   0  0  0  0  0  1  0  0  0  0  0  0
  162.8020  213.3160  141.7290 C   0  0  2  0  0  3  0  0  0  0  0  0
  160.2720  212.1140  139.1180 C   0  0  1  0  0  0  0  0  0  0  0  0
  160.2280  210.9500  138.1370 C   0  0  0  0  0  2  0  0  0  0  0  0
  158.4850  209.5940  139.0300 O   0  0  0  0  0  0  0  0  0  0  0  0
  159.7160  209.7170  138.8030 C   0  0  0  0  0  0  0  0  0  0  0  0
  160.5900  208.7000  139.1630 O   0  0  0  0  0  1  0  0  0  0  0  0
  162.0330  212.3520  149.1470 F   0  0  0  0  0  0  0  0  0  0  0  0
  161.6440  213.5010  148.4770 C   0  0  0  0  0  0  0  0  0  0  0  0
  162.7200  213.9840  147.7530 F   0  0  0  0  0  0  0  0  0  0  0  0
  161.2650  214.4510  149.4070 F   0  0  0  0  0  0  0  0  0  0  0  0
  157.8810  214.1170  147.8480 S   0  0  1  0  0  0  0  0  0  0  0  0
  157.4510  212.7500  147.3380 O   0  0  0  0  0  0  0  0  0  0  0  0
  158.2000  213.8310  149.5490 N   0  0  0  0  0  2  0  0  0  0  0  0
  155.8820  214.3280  150.2350 C   0  0  0  0  0  3  0  0  0  0  0  0
  154.9160  214.4300  151.2380 C   0  0  0  0  0  3  0  0  0  0  0  0
  157.5130  213.6330  151.8800 C   0  0  0  0  0  3  0  0  0  0  0  0
  156.5510  213.7350  152.8940 C   0  0  0  0  0  0  0  0  0  0  0  0
  155.2490  214.1340  152.5640 C   0  0  0  0  0  3  0  0  0  0  0  0
  157.1870  213.9280  150.5530 C   0  0  0  0  0  0  0  0  0  0  0  0
  156.9110  213.4320  154.2870 C   0  0  0  0  0  0  0  0  0  0  0  0
  156.1840  212.6620  154.9730 O   0  0  0  0  0  0  0  0  0  0  0  0
  158.0540  214.0110  154.8460 O   0  0  0  0  0  0  0  0  0  0  0  0
  159.1610  213.2520  155.2120 C   0  0  0  0  0  3  0  0  0  0  0  0
  159.2650  212.0290  154.8130 N   0  0  0  0  0  2  0  0  0  0  0  0
  1  6  1  1  0  0  0
  1  4  1  0  0  0  0
  2  4  1  0  0  0  0
  2 31  1  1  0  0  0
  3  5  1  1  0  0  0
  3  1  1  0  0  0  0
  4 28  1  1  0  0  0
  5  2  1  0  0  0  0
  6  4  1  0  0  0  0
  7 21  1  0  0  0  0
  7  9  1  1  0  0  0
  8  7  1  0  0  0  0
  9 17  1  0  0  0  0
 10 13  2  0  0  0  0
 13 18  1  0  0  0  0
 14 16  1  0  0  0  0
 14 13  1  0  0  0  0
 15 19  1  0  0  0  0
 15 12  1  0  0  0  0
 16 22  1  0  0  0  0
 16  8  1  0  0  0  0
 17 12  1  0  0  0  0
 17  3  1  0  0  0  0
 18 21  1  0  0  0  0
 20 14  1  0  0  0  0
 21 15  1  0  0  0  0
 22 11  1  0  0  0  0
 22  8  1  0  0  0  0
 23 25  1  0  0  0  0
 23 22  1  0  0  0  0
 25 24  2  0  0  0  0
 25 26  1  0  0  0  0
 28 27  1  0  0  0  0
 28 30  1  0  0  0  0
 29 28  1  0  0  0  0
 31 33  1  0  0  0  0
 32 31  2  0  0  0  0
 33 39  1  0  0  0  0
 34 39  2  0  0  0  0
 34 35  1  0  0  0  0
 35 38  2  0  0  0  0
 36 37  2  0  0  0  0
 37 40  1  0  0  0  0
 38 37  1  0  0  0  0
 39 36  1  0  0  0  0
 40 42  1  0  0  0  0
 40 41  2  0  0  0  0
 42 43  1  0  0  0  0
 44 43  2  0  0  0  0
M  END
>  <MODEL>
9

>  <REMARK>
 VINA RESULT:      -5.0      6.572      9.218
  Name = 
  10 active torsions:
  status: ('A' for Active; 'I' for Inactive)
    1  A    between atoms: C_2  and  S_28
    2  A    between atoms: O_4  and  C_11
    3  A    between atoms: O_4  and  C_19
    4  A    between atoms: C_11  and  C_32
    5  A    between atoms: C_13  and  C_26
    6  A    between atoms: C_15  and  C_25
    7  A    between atoms: S_28  and  N_35
    8  A    between atoms: C_29  and  C_30
    9  A    between atoms: C_29  and  C_44
   10  A    between atoms: N_35  and  C_39
                            x       y       z     vdW  Elec       q    Type
                         _______ _______ _______ _____ _____    ______ ____

>  <TORSDO>
F 10

$$$$
