=
 OpenBabel11072412593D

 48 54  0  0  1  0  0  0  0  0999 V2000
  159.9860  208.8730  154.0990 C   0  0  0  0  0  2  0  0  0  0  0  0
  162.0040  210.0840  152.3800 C   0  0  0  0  0  2  0  0  0  0  0  0
  160.5190  208.1410  152.8680 C   0  0  0  0  0  2  0  0  0  0  0  0
  160.0830  210.3400  153.9670 N   0  0  0  0  0  0  0  0  0  0  0  0
  161.9550  208.5790  152.5890 C   0  0  1  0  0  3  0  0  0  0  0  0
  161.4280  210.8140  153.6000 C   0  0  1  0  0  3  0  0  0  0  0  0
  162.3720  210.7290  154.7900 C   0  0  0  0  0  1  0  0  0  0  0  0
  160.9140  204.5690  150.6510 C   0  0  0  0  0  0  0  0  0  0  0  0
  161.4030  205.4510  151.7690 C   0  0  0  0  0  2  0  0  0  0  0  0
  161.7880  206.6640  150.9960 C   0  0  0  0  0  0  0  0  0  0  0  0
  162.5870  207.8380  151.4060 C   0  0  1  0  0  3  0  0  0  0  0  0
  162.7370  208.8770  149.8990 S   0  0  0  0  0  0  0  0  0  0  0  0
  162.1350  207.5290  148.8140 C   0  0  0  0  0  2  0  0  0  0  0  0
  161.5720  206.5090  149.7270 C   0  0  0  0  0  0  0  0  0  0  0  0
  161.0020  205.1910  149.4680 C   0  0  0  0  0  0  0  0  0  0  0  0
  160.5740  205.2600  145.9780 C   0  0  2  0  0  3  0  0  0  0  0  0
  162.0570  204.1580  147.4450 C   0  0  0  0  0  2  0  0  0  0  0  0
  160.5140  206.4740  145.1790 N   0  0  0  0  0  1  0  0  0  0  0  0
  160.7540  204.5800  148.1020 C   0  0  2  0  0  0  0  0  0  0  0  0
  162.2520  203.8180  145.1040 O   0  0  0  0  0  1  0  0  0  0  0  0
  160.1220  205.5330  147.2770 O   0  0  0  0  0  0  0  0  0  0  0  0
  159.9370  203.4500  148.2150 O   0  0  0  0  0  1  0  0  0  0  0  0
  161.9980  204.7790  146.0810 C   0  0  1  0  0  3  0  0  0  0  0  0
  160.2200  202.9320  152.2180 O   0  0  0  0  0  1  0  0  0  0  0  0
  160.4240  203.1650  150.8570 C   0  0  2  0  0  3  0  0  0  0  0  0
  161.3450  202.1240  150.2870 C   0  0  0  0  0  0  0  0  0  0  0  0
  162.4390  201.8500  150.8550 O   0  0  0  0  0  0  0  0  0  0  0  0
  160.9200  201.3640  149.1600 N   0  0  0  0  0  2  0  0  0  0  0  0
  161.4300  200.1760  147.1090 C   0  0  0  0  0  1  0  0  0  0  0  0
  161.7620  200.3380  148.5710 C   0  0  0  0  0  2  0  0  0  0  0  0
  159.0730  210.9980  153.1190 C   0  0  1  0  0  3  0  0  0  0  0  0
  157.6290  210.8560  153.5890 C   0  0  0  0  0  1  0  0  0  0  0  0
  159.4170  212.4700  152.9930 C   0  0  0  0  0  2  0  0  0  0  0  0
  158.7940  213.0660  151.7350 C   0  0  2  0  0  3  0  0  0  0  0  0
  157.0460  212.8150  149.0510 C   0  0  0  0  0  1  0  0  0  0  0  0
  161.0200  212.9510  150.8780 O   0  0  0  0  0  0  0  0  0  0  0  0
  158.1000  214.4530  147.5020 C   0  0  0  0  0  2  0  0  0  0  0  0
  160.2050  213.5360  148.0980 C   0  0  0  0  0  0  0  0  0  0  0  0
  159.0950  212.7110  146.0550 C   0  0  0  0  0  1  0  0  0  0  0  0
  159.4020  213.9340  146.8910 C   0  0  1  0  0  3  0  0  0  0  0  0
  159.3820  213.5080  149.2930 N   0  0  0  0  0  0  0  0  0  0  0  0
  158.0390  213.9690  148.9590 C   0  0  2  0  0  3  0  0  0  0  0  0
  159.8050  213.1670  150.6270 C   0  0  0  0  0  0  0  0  0  0  0  0
  161.5790  212.8990  148.0620 C   0  0  0  0  0  2  0  0  0  0  0  0
  161.4350  214.4060  148.2630 C   0  0  0  0  0  2  0  0  0  0  0  0
  157.5580  214.4420  153.3960 C   0  0  0  0  0  2  0  0  0  0  0  0
  156.7110  214.3400  152.1520 C   0  0  0  0  0  2  0  0  0  0  0  0
  158.2200  214.4330  152.0340 C   0  0  0  0  0  3  0  0  0  0  0  0
  2  6  1  0  0  0  0
  3  1  1  0  0  0  0
  4  1  1  0  0  0  0
  5  2  1  6  0  0  0
  5  3  1  0  0  0  0
  6  4  1  0  0  0  0
  6  7  1  1  0  0  0
  8 25  1  0  0  0  0
  8  9  1  0  0  0  0
 10 11  1  0  0  0  0
 10  9  1  0  0  0  0
 11 12  1  6  0  0  0
 11  5  1  0  0  0  0
 13 14  1  0  0  0  0
 13 12  1  0  0  0  0
 14 10  2  0  0  0  0
 15 14  1  0  0  0  0
 15  8  2  0  0  0  0
 16 18  1  6  0  0  0
 16 23  1  0  0  0  0
 16 21  1  0  0  0  0
 17 19  1  0  0  0  0
 19 22  1  1  0  0  0
 19 15  1  0  0  0  0
 21 19  1  0  0  0  0
 23 20  1  6  0  0  0
 23 17  1  0  0  0  0
 25 24  1  1  0  0  0
 26 27  2  0  0  0  0
 26 25  1  0  0  0  0
 28 26  1  0  0  0  0
 29 30  1  0  0  0  0
 30 28  1  0  0  0  0
 31 32  1  1  0  0  0
 31  4  1  0  0  0  0
 33 31  1  0  0  0  0
 34 48  1  0  0  0  0
 34 33  1  1  0  0  0
 37 42  1  0  0  0  0
 38 45  1  0  0  0  0
 38 41  1  0  0  0  0
 40 39  1  6  0  0  0
 40 37  1  0  0  0  0
 40 38  1  0  0  0  0
 41 43  1  0  0  0  0
 42 35  1  6  0  0  0
 42 41  1  0  0  0  0
 43 36  2  0  0  0  0
 43 34  1  0  0  0  0
 44 38  1  0  0  0  0
 44 45  1  0  0  0  0
 47 46  1  0  0  0  0
 48 47  1  0  0  0  0
 48 46  1  0  0  0  0
M  END
>  <MODEL>
1

>  <REMARK>
 VINA RESULT:      -4.6      0.000      0.000
  Name = 
  10 active torsions:
  status: ('A' for Active; 'I' for Inactive)
    1  A    between atoms: C_3  and  C_29
    2  A    between atoms: C_3  and  N_31
    3  A    between atoms: C_5  and  C_25
    4  A    between atoms: C_9  and  C_33
    5  A    between atoms: C_17  and  C_25
    6  A    between atoms: C_18  and  C_29
    7  A    between atoms: C_18  and  C_38
    8  A    between atoms: C_18  and  C_47
    9  A    between atoms: N_21  and  C_30
   10  A    between atoms: C_32  and  C_42
                            x       y       z     vdW  Elec       q    Type
                         _______ _______ _______ _____ _____    ______ ____

>  <TORSDO>
F 10

$$$$
=
 OpenBabel11072412593D

 48 54  0  0  1  0  0  0  0  0999 V2000
  161.8090  214.4530  146.6040 C   0  0  0  0  0  2  0  0  0  0  0  0
  161.5680  211.9260  148.0350 C   0  0  0  0  0  2  0  0  0  0  0  0
  160.5180  214.0750  147.3300 C   0  0  0  0  0  2  0  0  0  0  0  0
  162.5840  213.2700  146.1820 N   0  0  0  0  0  0  0  0  0  0  0  0
  160.8410  213.1700  148.5170 C   0  0  1  0  0  3  0  0  0  0  0  0
  162.8400  212.3100  147.2690 C   0  0  1  0  0  3  0  0  0  0  0  0
  163.9130  212.8380  148.2100 C   0  0  0  0  0  1  0  0  0  0  0  0
  160.4370  211.2390  152.6440 C   0  0  0  0  0  0  0  0  0  0  0  0
  160.8080  211.2610  151.1840 C   0  0  0  0  0  3  0  0  0  0  0  0
  159.9520  212.3850  150.7130 C   0  0  0  0  0  0  0  0  0  0  0  0
  159.6020  212.8010  149.3400 C   0  0  1  0  0  3  0  0  0  0  0  0
  158.4240  214.1970  149.5370 S   0  0  0  0  0  0  0  0  0  0  0  0
  158.1770  213.8390  151.3170 C   0  0  0  0  0  2  0  0  0  0  0  0
  159.2500  212.8880  151.6810 C   0  0  0  0  0  0  0  0  0  0  0  0
  159.5420  212.1930  152.9320 C   0  0  1  0  0  3  0  0  0  0  0  0
  156.9580  213.3830  154.9980 C   0  0  2  0  0  3  0  0  0  0  0  0
  157.8420  211.2510  154.5110 C   0  0  0  0  0  2  0  0  0  0  0  0
  155.8840  214.2580  154.5550 N   0  0  0  0  0  1  0  0  0  0  0  0
  158.8160  212.3870  154.2480 C   0  0  2  0  0  0  0  0  0  0  0  0
  156.0290  211.4510  156.0300 O   0  0  0  0  0  1  0  0  0  0  0  0
  158.0940  213.5980  154.2050 O   0  0  0  0  0  0  0  0  0  0  0  0
  159.7300  212.4310  155.3070 O   0  0  0  0  0  1  0  0  0  0  0  0
  156.5500  211.9420  154.8350 C   0  0  1  0  0  3  0  0  0  0  0  0
  162.2850  210.6190  153.9930 O   0  0  0  0  0  1  0  0  0  0  0  0
  160.9910  210.2470  153.6250 C   0  0  2  0  0  3  0  0  0  0  0  0
  160.9870  208.8360  153.1090 C   0  0  0  0  0  0  0  0  0  0  0  0
  160.8150  207.8630  153.8940 O   0  0  0  0  0  0  0  0  0  0  0  0
  161.0630  208.6110  151.7040 N   0  0  0  0  0  2  0  0  0  0  0  0
  161.1350  207.3400  149.6420 C   0  0  0  0  0  1  0  0  0  0  0  0
  161.0540  207.2710  151.1460 C   0  0  0  0  0  2  0  0  0  0  0  0
  162.1030  212.5540  144.9870 C   0  0  1  0  0  3  0  0  0  0  0  0
  160.5950  212.3360  144.9150 C   0  0  0  0  0  1  0  0  0  0  0  0
  162.5620  213.2980  143.7460 C   0  0  0  0  0  2  0  0  0  0  0  0
  161.5200  213.1920  142.6370 C   0  0  2  0  0  3  0  0  0  0  0  0
  160.2410  210.4260  141.6220 C   0  0  0  0  0  1  0  0  0  0  0  0
  163.2460  213.5500  141.0250 O   0  0  0  0  0  0  0  0  0  0  0  0
  159.9070  210.7870  139.1820 C   0  0  0  0  0  2  0  0  0  0  0  0
  162.1260  211.6210  139.0860 C   0  0  0  0  0  0  0  0  0  0  0  0
  161.7320  209.2510  138.5270 C   0  0  0  0  0  1  0  0  0  0  0  0
  161.2050  210.6620  138.3840 C   0  0  1  0  0  3  0  0  0  0  0  0
  161.5720  212.0470  140.3590 N   0  0  0  0  0  0  0  0  0  0  0  0
  160.2400  211.4750  140.5140 C   0  0  2  0  0  3  0  0  0  0  0  0
  162.1730  212.9520  141.3040 C   0  0  0  0  0  0  0  0  0  0  0  0
  163.5800  211.8530  138.7330 C   0  0  0  0  0  2  0  0  0  0  0  0
  162.5000  212.7890  138.1970 C   0  0  0  0  0  2  0  0  0  0  0  0
  159.5640  214.3890  143.5950 C   0  0  0  0  0  2  0  0  0  0  0  0
  159.2770  214.1160  142.1390 C   0  0  0  0  0  2  0  0  0  0  0  0
  160.6880  214.4530  142.5820 C   0  0  0  0  0  3  0  0  0  0  0  0
  1  3  1  0  0  0  0
  2  5  1  0  0  0  0
  4  1  1  0  0  0  0
  4  6  1  0  0  0  0
  5  3  1  6  0  0  0
  5 11  1  0  0  0  0
  6  2  1  0  0  0  0
  6  7  1  1  0  0  0
  8 15  1  0  0  0  0
  8 25  1  0  0  0  0
  9  8  2  0  0  0  0
 10  9  1  0  0  0  0
 10 14  2  0  0  0  0
 11 12  1  1  0  0  0
 11 10  1  0  0  0  0
 12 13  1  0  0  0  0
 13 14  1  0  0  0  0
 15 14  1  6  0  0  0
 15 19  1  0  0  0  0
 16 18  1  6  0  0  0
 17 23  1  0  0  0  0
 19 17  1  0  0  0  0
 19 22  1  1  0  0  0
 21 19  1  0  0  0  0
 21 16  1  0  0  0  0
 23 16  1  0  0  0  0
 23 20  1  1  0  0  0
 25 24  1  6  0  0  0
 26 25  1  0  0  0  0
 26 27  2  0  0  0  0
 28 26  1  0  0  0  0
 29 30  1  0  0  0  0
 30 28  1  0  0  0  0
 31 32  1  1  0  0  0
 31  4  1  0  0  0  0
 33 31  1  0  0  0  0
 34 33  1  1  0  0  0
 36 43  2  0  0  0  0
 37 42  1  0  0  0  0
 38 41  1  0  0  0  0
 40 39  1  1  0  0  0
 40 38  1  0  0  0  0
 40 37  1  0  0  0  0
 41 42  1  0  0  0  0
 41 43  1  0  0  0  0
 42 35  1  1  0  0  0
 43 34  1  0  0  0  0
 44 38  1  0  0  0  0
 45 44  1  0  0  0  0
 45 38  1  0  0  0  0
 47 48  1  0  0  0  0
 47 46  1  0  0  0  0
 48 34  1  0  0  0  0
 48 46  1  0  0  0  0
M  END
>  <MODEL>
2

>  <REMARK>
 VINA RESULT:      -3.4      4.628      9.082
  Name = 
  10 active torsions:
  status: ('A' for Active; 'I' for Inactive)
    1  A    between atoms: C_3  and  C_29
    2  A    between atoms: C_3  and  N_31
    3  A    between atoms: C_5  and  C_25
    4  A    between atoms: C_9  and  C_33
    5  A    between atoms: C_17  and  C_25
    6  A    between atoms: C_18  and  C_29
    7  A    between atoms: C_18  and  C_38
    8  A    between atoms: C_18  and  C_47
    9  A    between atoms: N_21  and  C_30
   10  A    between atoms: C_32  and  C_42
                            x       y       z     vdW  Elec       q    Type
                         _______ _______ _______ _____ _____    ______ ____

>  <TORSDO>
F 10

$$$$
=
 OpenBabel11072412593D

 48 54  0  0  1  0  0  0  0  0999 V2000
  160.1260  206.9540  150.2620 C   0  0  0  0  0  2  0  0  0  0  0  0
  162.6650  207.8530  151.3740 C   0  0  0  0  0  2  0  0  0  0  0  0
  160.1840  207.7190  151.5840 C   0  0  0  0  0  2  0  0  0  0  0  0
  161.3750  206.2190  149.9820 N   0  0  0  0  0  0  0  0  0  0  0  0
  161.3910  208.6540  151.5860 C   0  0  1  0  0  3  0  0  0  0  0  0
  162.5850  207.0530  150.0680 C   0  0  1  0  0  3  0  0  0  0  0  0
  162.6980  207.9640  148.8550 C   0  0  0  0  0  1  0  0  0  0  0  0
  159.0630  212.3740  152.8780 C   0  0  0  0  0  0  0  0  0  0  0  0
  160.0260  211.6070  152.0100 C   0  0  0  0  0  3  0  0  0  0  0  0
  160.3860  210.4980  152.9360 C   0  0  0  0  0  0  0  0  0  0  0  0
  161.4810  209.5100  152.8540 C   0  0  1  0  0  3  0  0  0  0  0  0
  161.3670  208.5230  154.4000 S   0  0  0  0  0  0  0  0  0  0  0  0
  160.2190  209.7230  155.1730 C   0  0  0  0  0  2  0  0  0  0  0  0
  159.7720  210.6070  154.0730 C   0  0  0  0  0  0  0  0  0  0  0  0
  158.9070  211.7840  154.0700 C   0  0  1  0  0  3  0  0  0  0  0  0
  156.2300  213.4150  155.6630 C   0  0  2  0  0  3  0  0  0  0  0  0
  157.2230  211.2830  155.8550 C   0  0  0  0  0  2  0  0  0  0  0  0
  155.1250  214.0570  154.9690 N   0  0  0  0  0  1  0  0  0  0  0  0
  158.1470  212.3330  155.2620 C   0  0  2  0  0  0  0  0  0  0  0  0
  155.3740  211.8460  157.2330 O   0  0  0  0  0  1  0  0  0  0  0  0
  157.3700  213.4340  154.8470 O   0  0  0  0  0  0  0  0  0  0  0  0
  159.0380  212.7450  156.2590 O   0  0  0  0  0  1  0  0  0  0  0  0
  155.8940  211.9740  155.9470 C   0  0  1  0  0  3  0  0  0  0  0  0
  157.0100  213.5000  152.5080 O   0  0  0  0  0  1  0  0  0  0  0  0
  158.3970  213.6500  152.4500 C   0  0  2  0  0  3  0  0  0  0  0  0
  158.8100  214.1040  151.0790 C   0  0  0  0  0  0  0  0  0  0  0  0
  160.0010  214.4530  150.8470 O   0  0  0  0  0  0  0  0  0  0  0  0
  157.8710  214.0290  150.0110 N   0  0  0  0  0  2  0  0  0  0  0  0
  157.1480  213.9920  147.6970 C   0  0  0  0  0  1  0  0  0  0  0  0
  158.2140  214.4440  148.6630 C   0  0  0  0  0  2  0  0  0  0  0  0
  161.5830  204.9600  150.7200 C   0  0  1  0  0  3  0  0  0  0  0  0
  161.4420  205.0560  152.2360 C   0  0  0  0  0  1  0  0  0  0  0  0
  160.6190  203.9130  150.1930 C   0  0  0  0  0  2  0  0  0  0  0  0
  161.3760  202.7460  149.5700 C   0  0  2  0  0  3  0  0  0  0  0  0
  162.0960  205.1600  147.5760 C   0  0  0  0  0  1  0  0  0  0  0  0
  159.8540  201.4630  148.2510 O   0  0  0  0  0  0  0  0  0  0  0  0
  162.6280  204.0180  145.4300 C   0  0  0  0  0  2  0  0  0  0  0  0
  160.6430  202.7490  145.7090 C   0  0  0  0  0  0  0  0  0  0  0  0
  160.5580  204.7790  144.3090 C   0  0  0  0  0  1  0  0  0  0  0  0
  161.3770  203.5620  144.6790 C   0  0  1  0  0  3  0  0  0  0  0  0
  161.2060  202.9450  147.0330 N   0  0  0  0  0  0  0  0  0  0  0  0
  162.3770  203.8070  146.9310 C   0  0  2  0  0  3  0  0  0  0  0  0
  160.7600  202.3380  148.2610 C   0  0  0  0  0  0  0  0  0  0  0  0
  159.2910  202.0970  145.5070 C   0  0  0  0  0  2  0  0  0  0  0  0
  160.5720  201.2860  145.3210 C   0  0  0  0  0  2  0  0  0  0  0  0
  160.9380  201.9970  151.8990 C   0  0  0  0  0  2  0  0  0  0  0  0
  162.4090  201.8110  151.6180 C   0  0  0  0  0  2  0  0  0  0  0  0
  161.3920  201.5680  150.5190 C   0  0  0  0  0  3  0  0  0  0  0  0
  1  3  1  0  0  0  0
  3  5  1  0  0  0  0
  4  6  1  0  0  0  0
  4  1  1  0  0  0  0
  4 31  1  0  0  0  0
  5  2  1  1  0  0  0
  5 11  1  0  0  0  0
  6  7  1  6  0  0  0
  6  2  1  0  0  0  0
  9  8  2  0  0  0  0
  9 10  1  0  0  0  0
 10 14  2  0  0  0  0
 11 10  1  6  0  0  0
 11 12  1  0  0  0  0
 12 13  1  0  0  0  0
 14 13  1  0  0  0  0
 15  8  1  1  0  0  0
 15 14  1  0  0  0  0
 15 19  1  0  0  0  0
 16 18  1  6  0  0  0
 16 23  1  0  0  0  0
 17 23  1  0  0  0  0
 19 17  1  0  0  0  0
 19 22  1  1  0  0  0
 21 19  1  0  0  0  0
 21 16  1  0  0  0  0
 23 20  1  1  0  0  0
 25 24  1  6  0  0  0
 25  8  1  0  0  0  0
 26 25  1  0  0  0  0
 27 26  2  0  0  0  0
 28 26  1  0  0  0  0
 29 30  1  0  0  0  0
 30 28  1  0  0  0  0
 31 32  1  1  0  0  0
 33 31  1  0  0  0  0
 34 33  1  1  0  0  0
 34 48  1  0  0  0  0
 36 43  2  0  0  0  0
 37 42  1  0  0  0  0
 38 41  1  0  0  0  0
 40 39  1  1  0  0  0
 40 37  1  0  0  0  0
 40 38  1  0  0  0  0
 41 43  1  0  0  0  0
 42 41  1  0  0  0  0
 42 35  1  1  0  0  0
 43 34  1  0  0  0  0
 44 38  1  0  0  0  0
 45 44  1  0  0  0  0
 45 38  1  0  0  0  0
 47 46  1  0  0  0  0
 48 47  1  0  0  0  0
 48 46  1  0  0  0  0
M  END
>  <MODEL>
3

>  <REMARK>
 VINA RESULT:      -2.8      2.710     10.333
  Name = 
  10 active torsions:
  status: ('A' for Active; 'I' for Inactive)
    1  A    between atoms: C_3  and  C_29
    2  A    between atoms: C_3  and  N_31
    3  A    between atoms: C_5  and  C_25
    4  A    between atoms: C_9  and  C_33
    5  A    between atoms: C_17  and  C_25
    6  A    between atoms: C_18  and  C_29
    7  A    between atoms: C_18  and  C_38
    8  A    between atoms: C_18  and  C_47
    9  A    between atoms: N_21  and  C_30
   10  A    between atoms: C_32  and  C_42
                            x       y       z     vdW  Elec       q    Type
                         _______ _______ _______ _____ _____    ______ ____

>  <TORSDO>
F 10

$$$$
=
 OpenBabel11072412593D

 48 54  0  0  1  0  0  0  0  0999 V2000
  160.1000  208.5950  152.5110 C   0  0  0  0  0  2  0  0  0  0  0  0
  162.2470  206.7080  153.0780 C   0  0  0  0  0  2  0  0  0  0  0  0
  161.0270  208.0960  151.4030 C   0  0  0  0  0  2  0  0  0  0  0  0
  160.7400  208.5580  153.8400 N   0  0  0  0  0  0  0  0  0  0  0  0
  161.5240  206.6920  151.7410 C   0  0  1  0  0  3  0  0  0  0  0  0
  161.3270  207.2500  154.1780 C   0  0  1  0  0  3  0  0  0  0  0  0
  160.2390  206.2470  154.5320 C   0  0  0  0  0  1  0  0  0  0  0  0
  160.7020  203.3880  148.6860 C   0  0  0  0  0  0  0  0  0  0  0  0
  160.9090  203.9340  150.0740 C   0  0  0  0  0  2  0  0  0  0  0  0
  161.6540  205.1840  149.7560 C   0  0  0  0  0  0  0  0  0  0  0  0
  162.4090  206.0920  150.6430 C   0  0  1  0  0  3  0  0  0  0  0  0
  163.1430  207.3600  149.5340 S   0  0  0  0  0  0  0  0  0  0  0  0
  162.7660  206.3780  148.0340 C   0  0  0  0  0  2  0  0  0  0  0  0
  161.8330  205.3200  148.4780 C   0  0  0  0  0  0  0  0  0  0  0  0
  161.2280  204.2010  147.7610 C   0  0  0  0  0  0  0  0  0  0  0  0
  160.0210  203.7370  144.4910 C   0  0  2  0  0  3  0  0  0  0  0  0
  161.5730  205.2050  145.4920 C   0  0  0  0  0  2  0  0  0  0  0  0
  158.6130  203.7020  144.1290 N   0  0  0  0  0  1  0  0  0  0  0  0
  161.3570  203.9220  146.2760 C   0  0  2  0  0  0  0  0  0  0  0  0
  161.1400  205.3650  143.1640 O   0  0  0  0  0  1  0  0  0  0  0  0
  160.1740  203.3070  145.8160 O   0  0  0  0  0  0  0  0  0  0  0  0
  162.4440  203.0740  146.0330 O   0  0  0  0  0  1  0  0  0  0  0  0
  160.5420  205.1480  144.4040 C   0  0  1  0  0  3  0  0  0  0  0  0
  159.1490  201.7690  149.4500 O   0  0  0  0  0  1  0  0  0  0  0  0
  160.0170  202.0830  148.4030 C   0  0  2  0  0  3  0  0  0  0  0  0
  160.9730  200.9480  148.1670 C   0  0  0  0  0  0  0  0  0  0  0  0
  161.5940  200.4180  149.1290 O   0  0  0  0  0  0  0  0  0  0  0  0
  161.0860  200.3980  146.8580 N   0  0  0  0  0  2  0  0  0  0  0  0
  161.4260  198.4530  145.4520 C   0  0  0  0  0  1  0  0  0  0  0  0
  161.9860  199.2950  146.5700 C   0  0  0  0  0  2  0  0  0  0  0  0
  161.7040  209.6310  154.1420 C   0  0  1  0  0  3  0  0  0  0  0  0
  162.3000  210.3380  152.9290 C   0  0  0  0  0  1  0  0  0  0  0  0
  161.0380  210.6550  155.0420 C   0  0  0  0  0  2  0  0  0  0  0  0
  159.5260  210.6430  154.8470 C   0  0  2  0  0  3  0  0  0  0  0  0
  156.3980  211.0820  155.4360 C   0  0  0  0  0  1  0  0  0  0  0  0
  159.8150  211.8690  152.8180 O   0  0  0  0  0  0  0  0  0  0  0  0
  156.0800  213.5340  155.1540 C   0  0  0  0  0  2  0  0  0  0  0  0
  157.2890  213.3730  153.1190 C   0  0  0  0  0  0  0  0  0  0  0  0
  154.8240  213.3050  153.0350 C   0  0  0  0  0  1  0  0  0  0  0  0
  156.0240  213.9570  153.6860 C   0  0  1  0  0  3  0  0  0  0  0  0
  157.8930  212.4290  154.0420 N   0  0  0  0  0  0  0  0  0  0  0  0
  157.1240  212.4150  155.2810 C   0  0  2  0  0  3  0  0  0  0  0  0
  159.1020  211.6740  153.8390 C   0  0  0  0  0  0  0  0  0  0  0  0
  157.7110  213.4480  151.6670 C   0  0  0  0  0  2  0  0  0  0  0  0
  158.2550  214.4530  152.6790 C   0  0  0  0  0  2  0  0  0  0  0  0
  159.8140  211.4130  157.1930 C   0  0  0  0  0  2  0  0  0  0  0  0
  159.3850  209.9670  157.2260 C   0  0  0  0  0  2  0  0  0  0  0  0
  158.8280  210.8970  156.1650 C   0  0  0  0  0  3  0  0  0  0  0  0
  1  4  1  0  0  0  0
  2  6  1  0  0  0  0
  3  1  1  0  0  0  0
  4 31  1  0  0  0  0
  4  6  1  0  0  0  0
  5  3  1  6  0  0  0
  5  2  1  0  0  0  0
  6  7  1  6  0  0  0
  8  9  1  0  0  0  0
 10  9  1  0  0  0  0
 10 11  1  0  0  0  0
 11 12  1  6  0  0  0
 11  5  1  0  0  0  0
 13 14  1  0  0  0  0
 13 12  1  0  0  0  0
 14 10  2  0  0  0  0
 15 14  1  0  0  0  0
 15  8  2  0  0  0  0
 16 18  1  1  0  0  0
 16 21  1  0  0  0  0
 17 19  1  0  0  0  0
 19 22  1  6  0  0  0
 19 15  1  0  0  0  0
 21 19  1  0  0  0  0
 23 20  1  6  0  0  0
 23 16  1  0  0  0  0
 23 17  1  0  0  0  0
 25  8  1  0  0  0  0
 25 24  1  1  0  0  0
 26 25  1  0  0  0  0
 26 27  2  0  0  0  0
 28 26  1  0  0  0  0
 29 30  1  0  0  0  0
 30 28  1  0  0  0  0
 31 32  1  6  0  0  0
 31 33  1  0  0  0  0
 34 33  1  1  0  0  0
 34 48  1  0  0  0  0
 36 43  2  0  0  0  0
 37 42  1  0  0  0  0
 38 40  1  0  0  0  0
 38 41  1  0  0  0  0
 40 39  1  6  0  0  0
 40 37  1  0  0  0  0
 41 42  1  0  0  0  0
 42 35  1  6  0  0  0
 43 41  1  0  0  0  0
 43 34  1  0  0  0  0
 44 45  1  0  0  0  0
 44 38  1  0  0  0  0
 45 38  1  0  0  0  0
 46 47  1  0  0  0  0
 48 46  1  0  0  0  0
 48 47  1  0  0  0  0
M  END
>  <MODEL>
4

>  <REMARK>
 VINA RESULT:      -1.9      2.499      4.027
  Name = 
  10 active torsions:
  status: ('A' for Active; 'I' for Inactive)
    1  A    between atoms: C_3  and  C_29
    2  A    between atoms: C_3  and  N_31
    3  A    between atoms: C_5  and  C_25
    4  A    between atoms: C_9  and  C_33
    5  A    between atoms: C_17  and  C_25
    6  A    between atoms: C_18  and  C_29
    7  A    between atoms: C_18  and  C_38
    8  A    between atoms: C_18  and  C_47
    9  A    between atoms: N_21  and  C_30
   10  A    between atoms: C_32  and  C_42
                            x       y       z     vdW  Elec       q    Type
                         _______ _______ _______ _____ _____    ______ ____

>  <TORSDO>
F 10

$$$$
