=
 OpenBabel11072410453D

 38 42  0  0  1  0  0  0  0  0999 V2000
  160.7860  210.2210  152.7410 C   0  0  0  0  0  0  0  0  0  0  0  0
  161.0310  211.8770  155.7090 N   0  0  0  0  0  1  0  0  0  0  0  0
  160.0460  209.0140  156.0340 N   0  0  0  0  0  0  0  0  0  0  0  0
  160.2400  207.6920  155.9990 N   0  0  0  0  0  0  0  0  0  0  0  0
  160.4530  211.5470  153.3610 C   0  0  2  0  0  3  0  0  0  0  0  0
  160.6010  209.1730  153.7360 C   0  0  0  0  0  0  0  0  0  0  0  0
  161.6160  210.1230  151.7100 C   0  0  0  0  0  2  0  0  0  0  0  0
  160.6080  207.0530  154.8510 C   0  0  0  0  0  3  0  0  0  0  0  0
  160.0780  211.2350  154.8200 C   0  0  1  0  0  3  0  0  0  0  0  0
  160.2200  209.7560  154.9130 C   0  0  0  0  0  0  0  0  0  0  0  0
  160.7950  207.7810  153.6640 C   0  0  0  0  0  0  0  0  0  0  0  0
  161.2220  203.7680  148.6030 C   0  0  0  0  0  0  0  0  0  0  0  0
  160.9230  205.7490  152.3290 C   0  0  0  0  0  3  0  0  0  0  0  0
  161.3090  205.0670  148.6470 N   0  0  0  0  0  0  0  0  0  0  0  0
  161.4740  207.8950  151.1770 C   0  0  0  0  0  2  0  0  0  0  0  0
  161.0190  205.8370  149.8540 C   0  0  1  0  0  3  0  0  0  0  0  0
  160.9460  202.9670  149.8690 C   0  0  0  0  0  2  0  0  0  0  0  0
  161.2430  204.9790  151.0850 C   0  0  2  0  0  3  0  0  0  0  0  0
  161.9090  207.0620  149.9640 C   0  0  0  0  0  2  0  0  0  0  0  0
  161.1240  207.0760  152.4090 C   0  0  0  0  0  0  0  0  0  0  0  0
  160.4150  203.7870  150.9650 N   0  0  0  0  0  2  0  0  0  0  0  0
  161.4580  203.1260  147.3850 O   0  0  0  0  0  0  0  0  0  0  0  0
  161.4810  203.9490  145.8740 P   0  0  0  0  0  0  0  0  0  0  0  0
  160.7220  205.4520  146.0340 O   0  0  0  0  0  1  0  0  0  0  0  0
  163.0800  204.1730  145.3730 O   0  0  0  0  0  1  0  0  0  0  0  0
  160.7450  203.1230  144.8440 O   0  0  0  0  0  0  0  0  0  0  0  0
  157.1030  213.1180  151.4160 O   0  0  0  0  0  1  0  0  0  0  0  0
  158.3560  213.3660  150.9040 N   0  0  0  0  0  0  0  0  0  0  0  0
  159.4210  212.9030  151.4790 C   0  0  0  0  0  0  0  0  0  0  0  0
  159.3080  212.1310  152.6800 N   0  0  0  0  0  2  0  0  0  0  0  0
  160.7560  213.2190  150.8790 C   0  0  0  0  0  2  0  0  0  0  0  0
  160.7500  213.0900  149.3540 C   0  0  1  0  0  3  0  0  0  0  0  0
  162.0210  214.4470  147.4900 S   0  0  0  0  0  0  0  0  0  0  0  0
  160.5830  214.4530  146.4810 N   0  0  0  0  0  2  0  0  0  0  0  0
  160.7490  214.4130  148.7180 N   0  0  0  0  0  0  0  0  0  0  0  0
  159.7370  214.4250  147.6650 C   0  0  0  0  0  2  0  0  0  0  0  0
  162.0010  212.3170  148.9480 C   0  0  0  0  0  2  0  0  0  0  0  0
  161.6240  211.0170  148.2630 C   0  0  0  0  0  1  0  0  0  0  0  0
  1  5  1  0  0  0  0
  1  6  1  0  0  0  0
  4  3  1  0  0  0  0
  5 30  1  6  0  0  0
  5  9  1  0  0  0  0
  6 10  1  0  0  0  0
  7  1  2  0  0  0  0
  8  4  2  0  0  0  0
  9 10  1  0  0  0  0
  9  2  1  1  0  0  0
 10  3  2  0  0  0  0
 11  6  2  0  0  0  0
 11  8  1  0  0  0  0
 12 14  2  0  0  0  0
 12 17  1  0  0  0  0
 13 20  2  0  0  0  0
 14 16  1  0  0  0  0
 15 20  1  0  0  0  0
 16 19  1  1  0  0  0
 16 18  1  0  0  0  0
 17 21  1  0  0  0  0
 18 13  1  1  0  0  0
 19 15  1  0  0  0  0
 20 11  1  0  0  0  0
 21 18  1  0  0  0  0
 22 12  1  0  0  0  0
 23 24  1  0  0  0  0
 23 22  1  0  0  0  0
 25 23  1  0  0  0  0
 26 23  2  0  0  0  0
 28 27  1  0  0  0  0
 28 29  2  0  0  0  0
 29 30  1  0  0  0  0
 31 29  1  0  0  0  0
 32 37  1  6  0  0  0
 32 31  1  0  0  0  0
 33 35  1  0  0  0  0
 34 33  1  0  0  0  0
 34 36  1  0  0  0  0
 35 32  1  0  0  0  0
 36 35  1  0  0  0  0
 38 37  1  0  0  0  0
M  END
>  <MODEL>
1

>  <REMARK>
 VINA RESULT:      -8.0      0.000      0.000
  Name = 
  8 active torsions:
  status: ('A' for Active; 'I' for Inactive)
    1  A    between atoms: P_1  and  O_13
    2  A    between atoms: C_2  and  O_13
    3  A    between atoms: C_12  and  C_27
    4  A    between atoms: C_14  and  N_35
    5  A    between atoms: C_22  and  C_27
    6  A    between atoms: C_22  and  C_30
    7  A    between atoms: N_23  and  C_27
    8  A    between atoms: C_33  and  C_38
                            x       y       z     vdW  Elec       q    Type
                         _______ _______ _______ _____ _____    ______ ____

>  <TORSDO>
F 8

$$$$
=
 OpenBabel11072410453D

 38 42  0  0  1  0  0  0  0  0999 V2000
  160.8910  209.7620  152.5410 C   0  0  0  0  0  0  0  0  0  0  0  0
  161.8440  211.2450  155.4570 N   0  0  0  0  0  1  0  0  0  0  0  0
  160.7010  208.4540  155.8720 N   0  0  0  0  0  0  0  0  0  0  0  0
  160.7710  207.1240  155.7550 N   0  0  0  0  0  0  0  0  0  0  0  0
  160.7980  211.0770  153.2580 C   0  0  2  0  0  3  0  0  0  0  0  0
  160.8130  208.6830  153.5170 C   0  0  0  0  0  0  0  0  0  0  0  0
  161.4950  209.6530  151.3640 C   0  0  0  0  0  2  0  0  0  0  0  0
  160.8550  206.5170  154.5360 C   0  0  0  0  0  3  0  0  0  0  0  0
  160.6870  210.7230  154.7520 C   0  0  1  0  0  3  0  0  0  0  0  0
  160.7180  209.2340  154.7650 C   0  0  0  0  0  0  0  0  0  0  0  0
  160.8710  207.2860  153.3610 C   0  0  0  0  0  0  0  0  0  0  0  0
  161.9340  205.3800  147.2670 C   0  0  0  0  0  0  0  0  0  0  0  0
  161.2270  207.3330  150.9530 C   0  0  0  0  0  3  0  0  0  0  0  0
  161.7180  204.6690  148.3370 N   0  0  0  0  0  0  0  0  0  0  0  0
  160.7420  205.1090  151.9810 C   0  0  0  0  0  2  0  0  0  0  0  0
  161.6650  205.2540  149.6750 C   0  0  1  0  0  3  0  0  0  0  0  0
  162.0010  206.8990  147.3470 C   0  0  0  0  0  2  0  0  0  0  0  0
  161.2590  206.7140  149.5890 C   0  0  2  0  0  3  0  0  0  0  0  0
  160.6610  204.5370  150.5600 C   0  0  0  0  0  2  0  0  0  0  0  0
  160.8900  206.6210  152.0430 C   0  0  0  0  0  0  0  0  0  0  0  0
  162.2010  207.3960  148.7130 N   0  0  0  0  0  2  0  0  0  0  0  0
  162.0300  204.7200  146.0390 O   0  0  0  0  0  0  0  0  0  0  0  0
  160.8910  204.9270  144.7660 P   0  0  0  0  0  0  0  0  0  0  0  0
  159.6920  206.0180  145.2470 O   0  0  0  0  0  1  0  0  0  0  0  0
  161.6790  205.5200  143.3920 O   0  0  0  0  0  0  0  0  0  0  0  0
  160.2560  203.5950  144.4420 O   0  0  0  0  0  1  0  0  0  0  0  0
  157.2840  212.9920  152.0490 O   0  0  0  0  0  1  0  0  0  0  0  0
  158.4620  213.2730  151.3970 N   0  0  0  0  0  0  0  0  0  0  0  0
  159.5740  212.7060  151.7430 C   0  0  0  0  0  0  0  0  0  0  0  0
  159.5960  211.7810  152.8360 N   0  0  0  0  0  2  0  0  0  0  0  0
  160.8240  213.0650  151.0010 C   0  0  0  0  0  2  0  0  0  0  0  0
  160.6510  212.9490  149.4840 C   0  0  1  0  0  3  0  0  0  0  0  0
  161.5400  214.4510  147.5140 S   0  0  0  0  0  0  0  0  0  0  0  0
  160.0000  214.3100  146.6800 N   0  0  0  0  0  2  0  0  0  0  0  0
  160.4330  214.2690  148.8820 N   0  0  0  0  0  0  0  0  0  0  0  0
  159.3080  214.1800  147.9550 C   0  0  0  0  0  2  0  0  0  0  0  0
  161.9190  212.3190  148.9180 C   0  0  0  0  0  2  0  0  0  0  0  0
  161.6030  210.9940  148.2510 C   0  0  0  0  0  1  0  0  0  0  0  0
  1  5  1  0  0  0  0
  1  6  1  0  0  0  0
  4  3  1  0  0  0  0
  5 30  1  6  0  0  0
  5  9  1  0  0  0  0
  6 10  1  0  0  0  0
  7  1  2  0  0  0  0
  8  4  2  0  0  0  0
  9 10  1  0  0  0  0
  9  2  1  1  0  0  0
 10  3  2  0  0  0  0
 11  6  2  0  0  0  0
 11  8  1  0  0  0  0
 12 17  1  0  0  0  0
 12 14  2  0  0  0  0
 13 20  2  0  0  0  0
 14 16  1  0  0  0  0
 15 20  1  0  0  0  0
 16 19  1  1  0  0  0
 17 21  1  0  0  0  0
 18 16  1  0  0  0  0
 18 13  1  1  0  0  0
 19 15  1  0  0  0  0
 20 11  1  0  0  0  0
 21 18  1  0  0  0  0
 22 12  1  0  0  0  0
 23 24  1  0  0  0  0
 23 22  1  0  0  0  0
 25 23  2  0  0  0  0
 26 23  1  0  0  0  0
 28 29  2  0  0  0  0
 28 27  1  0  0  0  0
 29 30  1  0  0  0  0
 31 29  1  0  0  0  0
 32 37  1  6  0  0  0
 32 31  1  0  0  0  0
 33 35  1  0  0  0  0
 34 33  1  0  0  0  0
 34 36  1  0  0  0  0
 35 32  1  0  0  0  0
 36 35  1  0  0  0  0
 38 37  1  0  0  0  0
M  END
>  <MODEL>
2

>  <REMARK>
 VINA RESULT:      -7.9      1.087      1.649
  Name = 
  8 active torsions:
  status: ('A' for Active; 'I' for Inactive)
    1  A    between atoms: P_1  and  O_13
    2  A    between atoms: C_2  and  O_13
    3  A    between atoms: C_12  and  C_27
    4  A    between atoms: C_14  and  N_35
    5  A    between atoms: C_22  and  C_27
    6  A    between atoms: C_22  and  C_30
    7  A    between atoms: N_23  and  C_27
    8  A    between atoms: C_33  and  C_38
                            x       y       z     vdW  Elec       q    Type
                         _______ _______ _______ _____ _____    ______ ____

>  <TORSDO>
F 8

$$$$
=
 OpenBabel11072410453D

 38 42  0  0  1  0  0  0  0  0999 V2000
  159.6530  210.1450  154.0160 C   0  0  0  0  0  0  0  0  0  0  0  0
  160.7480  212.5920  156.1180 N   0  0  0  0  0  1  0  0  0  0  0  0
  161.3750  209.7930  157.1400 N   0  0  0  0  0  0  0  0  0  0  0  0
  162.0430  208.6370  157.0700 N   0  0  0  0  0  0  0  0  0  0  0  0
  159.1960  211.4340  154.6330 C   0  0  2  0  0  3  0  0  0  0  0  0
  160.4820  209.4280  154.9760 C   0  0  0  0  0  0  0  0  0  0  0  0
  159.7490  209.9980  152.7010 C   0  0  0  0  0  2  0  0  0  0  0  0
  161.9590  207.8280  155.9750 C   0  0  0  0  0  3  0  0  0  0  0  0
  159.8330  211.4680  156.0340 C   0  0  1  0  0  3  0  0  0  0  0  0
  160.5960  210.1910  156.1050 C   0  0  0  0  0  0  0  0  0  0  0  0
  161.1580  208.1980  154.8810 C   0  0  0  0  0  0  0  0  0  0  0  0
  161.1980  205.2570  149.1140 C   0  0  0  0  0  0  0  0  0  0  0  0
  160.9560  207.7990  152.4870 C   0  0  0  0  0  3  0  0  0  0  0  0
  161.3680  204.7580  150.3060 N   0  0  0  0  0  0  0  0  0  0  0  0
  161.1580  205.7890  153.9550 C   0  0  0  0  0  2  0  0  0  0  0  0
  161.5000  205.5920  151.4990 C   0  0  1  0  0  3  0  0  0  0  0  0
  160.9810  206.7520  148.9250 C   0  0  0  0  0  2  0  0  0  0  0  0
  160.8060  206.9240  151.2810 C   0  0  2  0  0  3  0  0  0  0  0  0
  160.8780  204.9300  152.7150 C   0  0  0  0  0  2  0  0  0  0  0  0
  161.0160  207.2850  153.7290 C   0  0  0  0  0  0  0  0  0  0  0  0
  161.3770  207.5450  150.0940 N   0  0  0  0  0  2  0  0  0  0  0  0
  161.1470  204.3800  148.0280 O   0  0  0  0  0  0  0  0  0  0  0  0
  161.7650  204.7710  146.4700 P   0  0  0  0  0  0  0  0  0  0  0  0
  163.4250  205.0760  146.5780 O   0  0  0  0  0  1  0  0  0  0  0  0
  161.4940  203.4800  145.4120 O   0  0  0  0  0  0  0  0  0  0  0  0
  161.0620  206.0030  145.9490 O   0  0  0  0  0  1  0  0  0  0  0  0
  155.0320  211.2990  154.9740 O   0  0  0  0  0  1  0  0  0  0  0  0
  155.6150  212.3110  154.2470 N   0  0  0  0  0  0  0  0  0  0  0  0
  156.9010  212.3930  154.1210 C   0  0  0  0  0  0  0  0  0  0  0  0
  157.7460  211.4300  154.7600 N   0  0  0  0  0  2  0  0  0  0  0  0
  157.4740  213.5260  153.3270 C   0  0  0  0  0  2  0  0  0  0  0  0
  157.3490  213.2980  151.8190 C   0  0  1  0  0  3  0  0  0  0  0  0
  156.3470  214.0180  149.4930 S   0  0  0  0  0  0  0  0  0  0  0  0
  154.7350  214.1010  150.1870 N   0  0  0  0  0  2  0  0  0  0  0  0
  156.7230  214.4530  151.1660 N   0  0  0  0  0  0  0  0  0  0  0  0
  155.2970  214.4530  151.4830 C   0  0  0  0  0  2  0  0  0  0  0  0
  158.7530  213.0810  151.2630 C   0  0  0  0  0  2  0  0  0  0  0  0
  159.6060  214.3170  151.4760 C   0  0  0  0  0  1  0  0  0  0  0  0
  1  5  1  0  0  0  0
  1  6  1  0  0  0  0
  4  3  1  0  0  0  0
  5 30  1  1  0  0  0
  5  9  1  0  0  0  0
  6 10  1  0  0  0  0
  7  1  2  0  0  0  0
  8  4  2  0  0  0  0
  9 10  1  0  0  0  0
  9  2  1  6  0  0  0
 10  3  2  0  0  0  0
 11  6  2  0  0  0  0
 11  8  1  0  0  0  0
 12 14  2  0  0  0  0
 13 20  2  0  0  0  0
 14 16  1  0  0  0  0
 16 19  1  1  0  0  0
 17 12  1  0  0  0  0
 17 21  1  0  0  0  0
 18 16  1  0  0  0  0
 18 13  1  1  0  0  0
 19 15  1  0  0  0  0
 20 15  1  0  0  0  0
 20 11  1  0  0  0  0
 21 18  1  0  0  0  0
 22 12  1  0  0  0  0
 23 24  1  0  0  0  0
 23 22  1  0  0  0  0
 25 23  2  0  0  0  0
 26 23  1  0  0  0  0
 28 27  1  0  0  0  0
 29 28  2  0  0  0  0
 29 30  1  0  0  0  0
 31 29  1  0  0  0  0
 32 37  1  6  0  0  0
 32 31  1  0  0  0  0
 33 34  1  0  0  0  0
 33 35  1  0  0  0  0
 34 36  1  0  0  0  0
 35 36  1  0  0  0  0
 35 32  1  0  0  0  0
 37 38  1  0  0  0  0
M  END
>  <MODEL>
3

>  <REMARK>
 VINA RESULT:      -7.9      2.497      3.274
  Name = 
  8 active torsions:
  status: ('A' for Active; 'I' for Inactive)
    1  A    between atoms: P_1  and  O_13
    2  A    between atoms: C_2  and  O_13
    3  A    between atoms: C_12  and  C_27
    4  A    between atoms: C_14  and  N_35
    5  A    between atoms: C_22  and  C_27
    6  A    between atoms: C_22  and  C_30
    7  A    between atoms: N_23  and  C_27
    8  A    between atoms: C_33  and  C_38
                            x       y       z     vdW  Elec       q    Type
                         _______ _______ _______ _____ _____    ______ ____

>  <TORSDO>
F 8

$$$$
=
 OpenBabel11072410453D

 38 42  0  0  1  0  0  0  0  0999 V2000
  160.5560  210.6440  152.7810 C   0  0  0  0  0  0  0  0  0  0  0  0
  160.6950  212.1860  155.8160 N   0  0  0  0  0  1  0  0  0  0  0  0
  160.0320  209.2220  156.0290 N   0  0  0  0  0  0  0  0  0  0  0  0
  160.3660  207.9310  155.9290 N   0  0  0  0  0  0  0  0  0  0  0  0
  160.0980  211.8980  153.4670 C   0  0  2  0  0  3  0  0  0  0  0  0
  160.5090  209.5400  153.7300 C   0  0  0  0  0  0  0  0  0  0  0  0
  161.3660  210.6820  151.7300 C   0  0  0  0  0  2  0  0  0  0  0  0
  160.7720  207.3870  154.7450 C   0  0  0  0  0  3  0  0  0  0  0  0
  159.7950  211.4840  154.9180 C   0  0  1  0  0  3  0  0  0  0  0  0
  160.0970  210.0260  154.9400 C   0  0  0  0  0  0  0  0  0  0  0  0
  160.8500  208.1820  153.5900 C   0  0  0  0  0  0  0  0  0  0  0  0
  161.3470  204.6580  148.1830 C   0  0  0  0  0  0  0  0  0  0  0  0
  160.9040  206.2870  152.0620 C   0  0  0  0  0  3  0  0  0  0  0  0
  161.5530  205.9300  148.3700 N   0  0  0  0  0  0  0  0  0  0  0  0
  161.7570  208.4660  151.1910 C   0  0  0  0  0  2  0  0  0  0  0  0
  161.2300  206.6060  149.6250 C   0  0  1  0  0  3  0  0  0  0  0  0
  160.8830  203.7710  149.3310 C   0  0  0  0  0  2  0  0  0  0  0  0
  161.2600  205.6130  150.7720 C   0  0  2  0  0  3  0  0  0  0  0  0
  162.2190  207.7150  149.9350 C   0  0  0  0  0  2  0  0  0  0  0  0
  161.2220  207.5720  152.2980 C   0  0  0  0  0  0  0  0  0  0  0  0
  160.3370  204.5300  150.4620 N   0  0  0  0  0  2  0  0  0  0  0  0
  161.6290  204.1170  146.9260 O   0  0  0  0  0  0  0  0  0  0  0  0
  161.2510  204.9140  145.4490 P   0  0  0  0  0  0  0  0  0  0  0  0
  160.5070  203.8260  144.3900 O   0  0  0  0  0  0  0  0  0  0  0  0
  160.2080  206.2100  145.7550 O   0  0  0  0  0  1  0  0  0  0  0  0
  162.5240  205.4330  144.8210 O   0  0  0  0  0  1  0  0  0  0  0  0
  156.5470  213.1830  151.6750 O   0  0  0  0  0  1  0  0  0  0  0  0
  157.7500  213.4860  151.0790 N   0  0  0  0  0  0  0  0  0  0  0  0
  158.8730  213.1120  151.6040 C   0  0  0  0  0  0  0  0  0  0  0  0
  158.8800  212.3840  152.8370 N   0  0  0  0  0  2  0  0  0  0  0  0
  160.1480  213.4860  150.9140 C   0  0  0  0  0  2  0  0  0  0  0  0
  160.1380  213.1000  149.4320 C   0  0  1  0  0  3  0  0  0  0  0  0
  160.3520  214.4500  147.1820 S   0  0  0  0  0  0  0  0  0  0  0  0
  158.9950  213.5680  146.4970 N   0  0  0  0  0  2  0  0  0  0  0  0
  159.4110  214.0970  148.6380 N   0  0  0  0  0  0  0  0  0  0  0  0
  158.4140  213.4080  147.8220 C   0  0  0  0  0  2  0  0  0  0  0  0
  161.5880  213.0150  148.9640 C   0  0  0  0  0  2  0  0  0  0  0  0
  161.8890  211.6350  148.4110 C   0  0  0  0  0  1  0  0  0  0  0  0
  1  5  1  0  0  0  0
  1  6  1  0  0  0  0
  4  3  1  0  0  0  0
  5 30  1  6  0  0  0
  5  9  1  0  0  0  0
  6 10  1  0  0  0  0
  7  1  2  0  0  0  0
  8  4  2  0  0  0  0
  9 10  1  0  0  0  0
  9  2  1  1  0  0  0
 10  3  2  0  0  0  0
 11  6  2  0  0  0  0
 11  8  1  0  0  0  0
 12 14  2  0  0  0  0
 12 17  1  0  0  0  0
 13 20  2  0  0  0  0
 14 16  1  0  0  0  0
 15 20  1  0  0  0  0
 16 19  1  1  0  0  0
 16 18  1  0  0  0  0
 17 21  1  0  0  0  0
 18 13  1  1  0  0  0
 19 15  1  0  0  0  0
 20 11  1  0  0  0  0
 21 18  1  0  0  0  0
 22 12  1  0  0  0  0
 23 25  1  0  0  0  0
 23 22  1  0  0  0  0
 24 23  2  0  0  0  0
 26 23  1  0  0  0  0
 28 29  2  0  0  0  0
 28 27  1  0  0  0  0
 29 30  1  0  0  0  0
 31 29  1  0  0  0  0
 32 37  1  6  0  0  0
 32 31  1  0  0  0  0
 33 35  1  0  0  0  0
 34 33  1  0  0  0  0
 34 36  1  0  0  0  0
 35 32  1  0  0  0  0
 36 35  1  0  0  0  0
 38 37  1  0  0  0  0
M  END
>  <MODEL>
4

>  <REMARK>
 VINA RESULT:      -7.7      0.866      1.163
  Name = 
  8 active torsions:
  status: ('A' for Active; 'I' for Inactive)
    1  A    between atoms: P_1  and  O_13
    2  A    between atoms: C_2  and  O_13
    3  A    between atoms: C_12  and  C_27
    4  A    between atoms: C_14  and  N_35
    5  A    between atoms: C_22  and  C_27
    6  A    between atoms: C_22  and  C_30
    7  A    between atoms: N_23  and  C_27
    8  A    between atoms: C_33  and  C_38
                            x       y       z     vdW  Elec       q    Type
                         _______ _______ _______ _____ _____    ______ ____

>  <TORSDO>
F 8

$$$$
=
 OpenBabel11072410453D

 38 42  0  0  1  0  0  0  0  0999 V2000
  161.3130  209.8020  153.0210 C   0  0  0  0  0  0  0  0  0  0  0  0
  161.7030  211.0190  156.1800 N   0  0  0  0  0  1  0  0  0  0  0  0
  160.2010  208.3710  156.1140 N   0  0  0  0  0  0  0  0  0  0  0  0
  160.1540  207.0500  155.9180 N   0  0  0  0  0  0  0  0  0  0  0  0
  161.1940  211.0840  153.7940 C   0  0  2  0  0  3  0  0  0  0  0  0
  160.8910  208.6960  153.8710 C   0  0  0  0  0  0  0  0  0  0  0  0
  162.1620  209.6760  152.0090 C   0  0  0  0  0  2  0  0  0  0  0  0
  160.4580  206.4950  154.7090 C   0  0  0  0  0  3  0  0  0  0  0  0
  160.6960  210.6750  155.1910 C   0  0  1  0  0  3  0  0  0  0  0  0
  160.5630  209.1950  155.1010 C   0  0  0  0  0  0  0  0  0  0  0  0
  160.8330  207.3120  153.6290 C   0  0  0  0  0  0  0  0  0  0  0  0
  161.1850  203.5900  148.3440 C   0  0  0  0  0  0  0  0  0  0  0  0
  161.0980  205.3730  152.1800 C   0  0  0  0  0  3  0  0  0  0  0  0
  161.0690  204.8830  148.4470 N   0  0  0  0  0  0  0  0  0  0  0  0
  161.1300  207.6160  151.0830 C   0  0  0  0  0  2  0  0  0  0  0  0
  160.8300  205.5550  149.7220 C   0  0  1  0  0  3  0  0  0  0  0  0
  161.2210  202.7150  149.5900 C   0  0  0  0  0  2  0  0  0  0  0  0
  161.3590  204.7070  150.8640 C   0  0  2  0  0  3  0  0  0  0  0  0
  161.5190  206.9070  149.7800 C   0  0  0  0  0  2  0  0  0  0  0  0
  161.0920  206.7120  152.3050 C   0  0  0  0  0  0  0  0  0  0  0  0
  160.7250  203.3980  150.7900 N   0  0  0  0  0  2  0  0  0  0  0  0
  161.3480  203.0360  147.0720 O   0  0  0  0  0  0  0  0  0  0  0  0
  161.3270  203.9700  145.6270 P   0  0  0  0  0  0  0  0  0  0  0  0
  160.2390  203.2890  144.5260 O   0  0  0  0  0  0  0  0  0  0  0  0
  160.8570  205.5540  145.9820 O   0  0  0  0  0  1  0  0  0  0  0  0
  162.7110  203.9830  145.0200 O   0  0  0  0  0  1  0  0  0  0  0  0
  158.4530  213.6080  151.9000 O   0  0  0  0  0  1  0  0  0  0  0  0
  158.4580  213.5300  153.2730 N   0  0  0  0  0  0  0  0  0  0  0  0
  159.2860  212.7560  153.9000 C   0  0  0  0  0  0  0  0  0  0  0  0
  160.2090  211.9470  153.1610 N   0  0  0  0  0  2  0  0  0  0  0  0
  159.2310  212.7050  155.3950 C   0  0  0  0  0  2  0  0  0  0  0  0
  158.1100  213.5800  155.9630 C   0  0  1  0  0  3  0  0  0  0  0  0
  155.5750  213.0100  155.5400 S   0  0  0  0  0  0  0  0  0  0  0  0
  155.9980  211.3670  155.0810 N   0  0  0  0  0  2  0  0  0  0  0  0
  157.0300  212.7530  156.5120 N   0  0  0  0  0  0  0  0  0  0  0  0
  157.1520  211.4030  155.9670 C   0  0  0  0  0  2  0  0  0  0  0  0
  158.7110  214.4510  157.0620 C   0  0  0  0  0  2  0  0  0  0  0  0
  160.2160  214.2730  157.1180 C   0  0  0  0  0  1  0  0  0  0  0  0
  1  5  1  0  0  0  0
  1  6  1  0  0  0  0
  4  3  1  0  0  0  0
  5 30  1  6  0  0  0
  5  9  1  0  0  0  0
  6 10  1  0  0  0  0
  7  1  2  0  0  0  0
  8  4  2  0  0  0  0
  9  2  1  1  0  0  0
 10  9  1  0  0  0  0
 10  3  2  0  0  0  0
 11  6  2  0  0  0  0
 11  8  1  0  0  0  0
 12 14  2  0  0  0  0
 12 17  1  0  0  0  0
 13 20  2  0  0  0  0
 14 16  1  0  0  0  0
 15 20  1  0  0  0  0
 16 19  1  6  0  0  0
 16 18  1  0  0  0  0
 17 21  1  0  0  0  0
 18 13  1  1  0  0  0
 19 15  1  0  0  0  0
 20 11  1  0  0  0  0
 21 18  1  0  0  0  0
 22 12  1  0  0  0  0
 23 25  1  0  0  0  0
 23 22  1  0  0  0  0
 24 23  2  0  0  0  0
 26 23  1  0  0  0  0
 27 28  1  0  0  0  0
 28 29  2  0  0  0  0
 29 31  1  0  0  0  0
 30 29  1  0  0  0  0
 32 31  1  1  0  0  0
 32 35  1  0  0  0  0
 32 37  1  0  0  0  0
 33 35  1  0  0  0  0
 34 33  1  0  0  0  0
 34 36  1  0  0  0  0
 36 35  1  0  0  0  0
 37 38  1  0  0  0  0
M  END
>  <MODEL>
5

>  <REMARK>
 VINA RESULT:      -7.4      2.885      4.179
  Name = 
  8 active torsions:
  status: ('A' for Active; 'I' for Inactive)
    1  A    between atoms: P_1  and  O_13
    2  A    between atoms: C_2  and  O_13
    3  A    between atoms: C_12  and  C_27
    4  A    between atoms: C_14  and  N_35
    5  A    between atoms: C_22  and  C_27
    6  A    between atoms: C_22  and  C_30
    7  A    between atoms: N_23  and  C_27
    8  A    between atoms: C_33  and  C_38
                            x       y       z     vdW  Elec       q    Type
                         _______ _______ _______ _____ _____    ______ ____

>  <TORSDO>
F 8

$$$$
=
 OpenBabel11072410453D

 38 42  0  0  1  0  0  0  0  0999 V2000
  161.4340  209.1860  152.4590 C   0  0  0  0  0  0  0  0  0  0  0  0
  162.4020  211.0440  155.1460 N   0  0  0  0  0  1  0  0  0  0  0  0
  160.6780  208.6570  155.9220 N   0  0  0  0  0  0  0  0  0  0  0  0
  160.4840  207.3430  156.0660 N   0  0  0  0  0  0  0  0  0  0  0  0
  161.5470  210.6160  152.9000 C   0  0  2  0  0  3  0  0  0  0  0  0
  161.0480  208.3670  153.6000 C   0  0  0  0  0  0  0  0  0  0  0  0
  162.1060  208.7250  151.4120 C   0  0  0  0  0  2  0  0  0  0  0  0
  160.5520  206.4900  155.0030 C   0  0  0  0  0  3  0  0  0  0  0  0
  161.2310  210.6070  154.4060 C   0  0  1  0  0  3  0  0  0  0  0  0
  160.9550  209.1740  154.7010 C   0  0  0  0  0  0  0  0  0  0  0  0
  160.8310  206.9820  153.7170 C   0  0  0  0  0  0  0  0  0  0  0  0
  161.4870  204.0600  147.9770 C   0  0  0  0  0  0  0  0  0  0  0  0
  160.8330  206.5750  151.3160 C   0  0  0  0  0  3  0  0  0  0  0  0
  161.6000  203.5720  149.1790 N   0  0  0  0  0  0  0  0  0  0  0  0
  161.0530  204.5790  152.8000 C   0  0  0  0  0  2  0  0  0  0  0  0
  161.5890  204.4090  150.3760 C   0  0  1  0  0  3  0  0  0  0  0  0
  161.1890  205.5390  147.7680 C   0  0  0  0  0  2  0  0  0  0  0  0
  160.8290  205.6950  150.1040 C   0  0  2  0  0  3  0  0  0  0  0  0
  160.9220  203.7070  151.5450 C   0  0  0  0  0  2  0  0  0  0  0  0
  160.8330  206.0640  152.5600 C   0  0  0  0  0  0  0  0  0  0  0  0
  161.4460  206.3540  148.9610 N   0  0  0  0  0  2  0  0  0  0  0  0
  161.5730  203.1840  146.8930 O   0  0  0  0  0  0  0  0  0  0  0  0
  160.7140  201.6950  146.8120 P   0  0  0  0  0  0  0  0  0  0  0  0
  160.0530  201.5040  145.2670 O   0  0  0  0  0  0  0  0  0  0  0  0
  161.7680  200.4140  147.1400 O   0  0  0  0  0  1  0  0  0  0  0  0
  159.6020  201.7030  147.8350 O   0  0  0  0  0  1  0  0  0  0  0  0
  158.7990  212.9820  150.8220 O   0  0  0  0  0  1  0  0  0  0  0  0
  158.7390  212.9300  152.1950 N   0  0  0  0  0  0  0  0  0  0  0  0
  159.5680  212.2060  152.8780 C   0  0  0  0  0  0  0  0  0  0  0  0
  160.5590  211.4240  152.2020 N   0  0  0  0  0  2  0  0  0  0  0  0
  159.4410  212.1820  154.3690 C   0  0  0  0  0  2  0  0  0  0  0  0
  158.4820  213.2570  154.8860 C   0  0  1  0  0  3  0  0  0  0  0  0
  155.8840  212.8420  154.7810 S   0  0  0  0  0  0  0  0  0  0  0  0
  156.1440  211.1100  154.6420 N   0  0  0  0  0  2  0  0  0  0  0  0
  157.4000  212.6570  155.6740 N   0  0  0  0  0  0  0  0  0  0  0  0
  157.3740  211.2190  155.4130 C   0  0  0  0  0  2  0  0  0  0  0  0
  159.2860  214.2210  155.7530 C   0  0  0  0  0  2  0  0  0  0  0  0
  160.0790  213.4610  156.7980 C   0  0  0  0  0  1  0  0  0  0  0  0
  1  5  1  0  0  0  0
  1  6  1  0  0  0  0
  3  4  1  0  0  0  0
  5 30  1  6  0  0  0
  5  9  1  0  0  0  0
  6 11  2  0  0  0  0
  6 10  1  0  0  0  0
  7  1  2  0  0  0  0
  8  4  2  0  0  0  0
  9 10  1  0  0  0  0
  9  2  1  1  0  0  0
 10  3  2  0  0  0  0
 11  8  1  0  0  0  0
 12 14  2  0  0  0  0
 13 20  2  0  0  0  0
 14 16  1  0  0  0  0
 16 19  1  1  0  0  0
 17 12  1  0  0  0  0
 17 21  1  0  0  0  0
 18 16  1  0  0  0  0
 18 13  1  1  0  0  0
 19 15  1  0  0  0  0
 20 15  1  0  0  0  0
 20 11  1  0  0  0  0
 21 18  1  0  0  0  0
 22 12  1  0  0  0  0
 23 22  1  0  0  0  0
 23 25  1  0  0  0  0
 23 26  1  0  0  0  0
 24 23  2  0  0  0  0
 27 28  1  0  0  0  0
 28 29  2  0  0  0  0
 29 31  1  0  0  0  0
 30 29  1  0  0  0  0
 32 31  1  1  0  0  0
 32 35  1  0  0  0  0
 32 37  1  0  0  0  0
 33 35  1  0  0  0  0
 34 33  1  0  0  0  0
 34 36  1  0  0  0  0
 36 35  1  0  0  0  0
 37 38  1  0  0  0  0
M  END
>  <MODEL>
6

>  <REMARK>
 VINA RESULT:      -7.0      2.792      4.166
  Name = 
  8 active torsions:
  status: ('A' for Active; 'I' for Inactive)
    1  A    between atoms: P_1  and  O_13
    2  A    between atoms: C_2  and  O_13
    3  A    between atoms: C_12  and  C_27
    4  A    between atoms: C_14  and  N_35
    5  A    between atoms: C_22  and  C_27
    6  A    between atoms: C_22  and  C_30
    7  A    between atoms: N_23  and  C_27
    8  A    between atoms: C_33  and  C_38
                            x       y       z     vdW  Elec       q    Type
                         _______ _______ _______ _____ _____    ______ ____

>  <TORSDO>
F 8

$$$$
=
 OpenBabel11072410453D

 38 42  0  0  1  0  0  0  0  0999 V2000
  161.0380  209.3890  152.6090 C   0  0  0  0  0  0  0  0  0  0  0  0
  162.0410  211.4260  155.1490 N   0  0  0  0  0  1  0  0  0  0  0  0
  160.7150  208.8700  156.1410 N   0  0  0  0  0  0  0  0  0  0  0  0
  160.7010  207.5470  156.3240 N   0  0  0  0  0  0  0  0  0  0  0  0
  161.0190  210.8340  153.0140 C   0  0  2  0  0  3  0  0  0  0  0  0
  160.8760  208.5620  153.7970 C   0  0  0  0  0  0  0  0  0  0  0  0
  161.6500  208.9840  151.5040 C   0  0  0  0  0  2  0  0  0  0  0  0
  160.7640  206.6780  155.2730 C   0  0  0  0  0  3  0  0  0  0  0  0
  160.8630  210.8290  154.5450 C   0  0  1  0  0  3  0  0  0  0  0  0
  160.7980  209.3820  154.8890 C   0  0  0  0  0  0  0  0  0  0  0  0
  160.8460  207.1640  153.9570 C   0  0  0  0  0  0  0  0  0  0  0  0
  161.4840  204.1120  148.2850 C   0  0  0  0  0  0  0  0  0  0  0  0
  160.8470  206.7050  151.5660 C   0  0  0  0  0  3  0  0  0  0  0  0
  161.5920  203.6480  149.4970 N   0  0  0  0  0  0  0  0  0  0  0  0
  161.0490  204.7410  153.0940 C   0  0  0  0  0  2  0  0  0  0  0  0
  161.5860  204.5130  150.6760 C   0  0  1  0  0  3  0  0  0  0  0  0
  161.2000  205.5880  148.0420 C   0  0  0  0  0  2  0  0  0  0  0  0
  160.8380  205.7980  150.3740 C   0  0  2  0  0  3  0  0  0  0  0  0
  160.9120  203.8420  151.8590 C   0  0  0  0  0  2  0  0  0  0  0  0
  160.8410  206.2220  152.8200 C   0  0  0  0  0  0  0  0  0  0  0  0
  161.4620  206.4270  149.2180 N   0  0  0  0  0  2  0  0  0  0  0  0
  161.5650  203.2110  147.2200 O   0  0  0  0  0  0  0  0  0  0  0  0
  160.8310  201.6550  147.2420 P   0  0  0  0  0  0  0  0  0  0  0  0
  159.4530  201.6910  148.2220 O   0  0  0  0  0  1  0  0  0  0  0  0
  160.3960  201.2090  145.6700 O   0  0  0  0  0  0  0  0  0  0  0  0
  161.8120  200.6480  147.7950 O   0  0  0  0  0  1  0  0  0  0  0  0
  157.6610  212.6290  151.2890 O   0  0  0  0  0  1  0  0  0  0  0  0
  158.9040  212.8770  150.7560 N   0  0  0  0  0  0  0  0  0  0  0  0
  159.9710  212.3450  151.2630 C   0  0  0  0  0  0  0  0  0  0  0  0
  159.8710  211.4960  152.4120 N   0  0  0  0  0  2  0  0  0  0  0  0
  161.2970  212.6660  150.6440 C   0  0  0  0  0  2  0  0  0  0  0  0
  161.2450  212.6310  149.1150 C   0  0  1  0  0  3  0  0  0  0  0  0
  162.1690  213.7800  146.9350 S   0  0  0  0  0  0  0  0  0  0  0  0
  160.5670  214.3910  146.5490 N   0  0  0  0  0  2  0  0  0  0  0  0
  161.4820  213.9650  148.5540 N   0  0  0  0  0  0  0  0  0  0  0  0
  160.2370  214.4530  147.9660 C   0  0  0  0  0  2  0  0  0  0  0  0
  162.3230  211.6630  148.6350 C   0  0  0  0  0  2  0  0  0  0  0  0
  161.7160  210.3130  148.3020 C   0  0  0  0  0  1  0  0  0  0  0  0
  1  5  1  0  0  0  0
  1  6  1  0  0  0  0
  3  4  1  0  0  0  0
  5 30  1  6  0  0  0
  5  9  1  0  0  0  0
  6 11  2  0  0  0  0
  6 10  1  0  0  0  0
  7  1  2  0  0  0  0
  8  4  2  0  0  0  0
  9 10  1  0  0  0  0
  9  2  1  1  0  0  0
 10  3  2  0  0  0  0
 11  8  1  0  0  0  0
 12 14  2  0  0  0  0
 13 20  2  0  0  0  0
 14 16  1  0  0  0  0
 16 19  1  1  0  0  0
 17 12  1  0  0  0  0
 17 21  1  0  0  0  0
 18 16  1  0  0  0  0
 18 13  1  1  0  0  0
 19 15  1  0  0  0  0
 20 15  1  0  0  0  0
 20 11  1  0  0  0  0
 21 18  1  0  0  0  0
 22 23  1  0  0  0  0
 22 12  1  0  0  0  0
 23 26  1  0  0  0  0
 23 24  1  0  0  0  0
 25 23  2  0  0  0  0
 28 29  2  0  0  0  0
 28 27  1  0  0  0  0
 29 30  1  0  0  0  0
 31 29  1  0  0  0  0
 32 37  1  6  0  0  0
 32 31  1  0  0  0  0
 33 35  1  0  0  0  0
 34 33  1  0  0  0  0
 34 36  1  0  0  0  0
 35 32  1  0  0  0  0
 36 35  1  0  0  0  0
 38 37  1  0  0  0  0
M  END
>  <MODEL>
7

>  <REMARK>
 VINA RESULT:      -6.8      1.217      1.883
  Name = 
  8 active torsions:
  status: ('A' for Active; 'I' for Inactive)
    1  A    between atoms: P_1  and  O_13
    2  A    between atoms: C_2  and  O_13
    3  A    between atoms: C_12  and  C_27
    4  A    between atoms: C_14  and  N_35
    5  A    between atoms: C_22  and  C_27
    6  A    between atoms: C_22  and  C_30
    7  A    between atoms: N_23  and  C_27
    8  A    between atoms: C_33  and  C_38
                            x       y       z     vdW  Elec       q    Type
                         _______ _______ _______ _____ _____    ______ ____

>  <TORSDO>
F 8

$$$$
=
 OpenBabel11072410453D

 38 42  0  0  1  0  0  0  0  0999 V2000
  160.3780  210.1850  153.3990 C   0  0  0  0  0  0  0  0  0  0  0  0
  161.6460  212.1430  155.8830 N   0  0  0  0  0  1  0  0  0  0  0  0
  161.2620  209.2480  156.7440 N   0  0  0  0  0  0  0  0  0  0  0  0
  161.5890  207.9530  156.6940 N   0  0  0  0  0  0  0  0  0  0  0  0
  160.1740  211.5290  154.0350 C   0  0  2  0  0  3  0  0  0  0  0  0
  160.7660  209.2280  154.4270 C   0  0  0  0  0  0  0  0  0  0  0  0
  160.6970  210.0630  152.1170 C   0  0  0  0  0  2  0  0  0  0  0  0
  161.5130  207.2400  155.5330 C   0  0  0  0  0  3  0  0  0  0  0  0
  160.4960  211.3300  155.5270 C   0  0  1  0  0  3  0  0  0  0  0  0
  160.8500  209.8870  155.6220 C   0  0  0  0  0  0  0  0  0  0  0  0
  161.0850  207.8610  154.3470 C   0  0  0  0  0  0  0  0  0  0  0  0
  161.2460  205.4300  148.3500 C   0  0  0  0  0  0  0  0  0  0  0  0
  161.0100  207.6880  151.9200 C   0  0  0  0  0  3  0  0  0  0  0  0
  161.2880  204.8180  149.4990 N   0  0  0  0  0  0  0  0  0  0  0  0
  160.9240  205.5510  153.2080 C   0  0  0  0  0  2  0  0  0  0  0  0
  161.4140  205.5300  150.7690 C   0  0  1  0  0  3  0  0  0  0  0  0
  161.1820  206.9500  148.2850 C   0  0  0  0  0  2  0  0  0  0  0  0
  160.8630  206.9370  150.6320 C   0  0  2  0  0  3  0  0  0  0  0  0
  160.6520  204.8320  151.8810 C   0  0  0  0  0  2  0  0  0  0  0  0
  160.9380  207.0680  153.1100 C   0  0  0  0  0  0  0  0  0  0  0  0
  161.5690  207.5980  149.5430 N   0  0  0  0  0  2  0  0  0  0  0  0
  161.1890  204.6580  147.1870 O   0  0  0  0  0  0  0  0  0  0  0  0
  161.3500  205.3190  145.6070 P   0  0  0  0  0  0  0  0  0  0  0  0
  161.1550  204.0950  144.4560 O   0  0  0  0  0  0  0  0  0  0  0  0
  160.1760  206.5130  145.3690 O   0  0  0  0  0  1  0  0  0  0  0  0
  162.7240  205.9310  145.4590 O   0  0  0  0  0  1  0  0  0  0  0  0
  156.1470  212.5820  153.6530 O   0  0  0  0  0  1  0  0  0  0  0  0
  157.0250  212.9040  152.6440 N   0  0  0  0  0  0  0  0  0  0  0  0
  158.2820  212.6020  152.7250 C   0  0  0  0  0  0  0  0  0  0  0  0
  158.7850  211.9350  153.8880 N   0  0  0  0  0  2  0  0  0  0  0  0
  159.1880  212.9920  151.5990 C   0  0  0  0  0  2  0  0  0  0  0  0
  158.5130  213.9570  150.6210 C   0  0  1  0  0  3  0  0  0  0  0  0
  161.0600  213.7570  149.9880 S   0  0  0  0  0  0  0  0  0  0  0  0
  160.6500  212.9040  148.5080 N   0  0  0  0  0  2  0  0  0  0  0  0
  159.4740  214.4520  149.6290 N   0  0  0  0  0  0  0  0  0  0  0  0
  159.3830  213.6170  148.4330 C   0  0  0  0  0  2  0  0  0  0  0  0
  157.3860  213.2000  149.9240 C   0  0  0  0  0  2  0  0  0  0  0  0
  156.1430  214.0640  149.8300 C   0  0  0  0  0  1  0  0  0  0  0  0
  1  5  1  0  0  0  0
  1  6  1  0  0  0  0
  4  3  1  0  0  0  0
  5 30  1  1  0  0  0
  5  9  1  0  0  0  0
  6 10  1  0  0  0  0
  7  1  2  0  0  0  0
  8  4  2  0  0  0  0
  9 10  1  0  0  0  0
  9  2  1  6  0  0  0
 10  3  2  0  0  0  0
 11  6  2  0  0  0  0
 11  8  1  0  0  0  0
 12 14  2  0  0  0  0
 13 20  2  0  0  0  0
 14 16  1  0  0  0  0
 16 19  1  1  0  0  0
 17 12  1  0  0  0  0
 17 21  1  0  0  0  0
 18 16  1  0  0  0  0
 18 13  1  1  0  0  0
 19 15  1  0  0  0  0
 20 15  1  0  0  0  0
 20 11  1  0  0  0  0
 21 18  1  0  0  0  0
 22 12  1  0  0  0  0
 23 22  1  0  0  0  0
 24 23  2  0  0  0  0
 25 23  1  0  0  0  0
 26 23  1  0  0  0  0
 28 29  2  0  0  0  0
 28 27  1  0  0  0  0
 29 30  1  0  0  0  0
 31 29  1  0  0  0  0
 32 37  1  6  0  0  0
 32 31  1  0  0  0  0
 34 33  1  0  0  0  0
 35 33  1  0  0  0  0
 35 32  1  0  0  0  0
 36 34  1  0  0  0  0
 36 35  1  0  0  0  0
 38 37  1  0  0  0  0
M  END
>  <MODEL>
8

>  <REMARK>
 VINA RESULT:      -6.2      1.609      2.433
  Name = 
  8 active torsions:
  status: ('A' for Active; 'I' for Inactive)
    1  A    between atoms: P_1  and  O_13
    2  A    between atoms: C_2  and  O_13
    3  A    between atoms: C_12  and  C_27
    4  A    between atoms: C_14  and  N_35
    5  A    between atoms: C_22  and  C_27
    6  A    between atoms: C_22  and  C_30
    7  A    between atoms: N_23  and  C_27
    8  A    between atoms: C_33  and  C_38
                            x       y       z     vdW  Elec       q    Type
                         _______ _______ _______ _____ _____    ______ ____

>  <TORSDO>
F 8

$$$$
=
 OpenBabel11072410453D

 38 42  0  0  1  0  0  0  0  0999 V2000
  161.2110  210.0830  152.9970 C   0  0  0  0  0  0  0  0  0  0  0  0
  161.4700  211.6190  156.0270 N   0  0  0  0  0  1  0  0  0  0  0  0
  160.0260  208.9420  156.1820 N   0  0  0  0  0  0  0  0  0  0  0  0
  160.0130  207.6070  156.1190 N   0  0  0  0  0  0  0  0  0  0  0  0
  161.0400  211.4320  153.6320 C   0  0  2  0  0  3  0  0  0  0  0  0
  160.7830  209.0570  153.9400 C   0  0  0  0  0  0  0  0  0  0  0  0
  162.0950  209.8760  152.0300 C   0  0  0  0  0  2  0  0  0  0  0  0
  160.3680  206.9410  154.9820 C   0  0  0  0  0  3  0  0  0  0  0  0
  160.5040  211.1540  155.0480 C   0  0  1  0  0  3  0  0  0  0  0  0
  160.4040  209.6690  155.1030 C   0  0  0  0  0  0  0  0  0  0  0  0
  160.7620  207.6550  153.8370 C   0  0  0  0  0  0  0  0  0  0  0  0
  161.2830  203.4740  148.9230 C   0  0  0  0  0  0  0  0  0  0  0  0
  161.0320  205.5880  152.5790 C   0  0  0  0  0  3  0  0  0  0  0  0
  161.2170  204.7740  148.9070 N   0  0  0  0  0  0  0  0  0  0  0  0
  161.2330  207.7230  151.3010 C   0  0  0  0  0  2  0  0  0  0  0  0
  160.9290  205.5640  150.1020 C   0  0  1  0  0  3  0  0  0  0  0  0
  161.2010  202.7100  150.2380 C   0  0  0  0  0  2  0  0  0  0  0  0
  161.3460  204.7990  151.3440 C   0  0  2  0  0  3  0  0  0  0  0  0
  161.6720  206.8880  150.0910 C   0  0  0  0  0  2  0  0  0  0  0  0
  161.0780  206.9310  152.5890 C   0  0  0  0  0  0  0  0  0  0  0  0
  160.6610  203.5150  151.3400 N   0  0  0  0  0  2  0  0  0  0  0  0
  161.5010  202.8040  147.7160 O   0  0  0  0  0  0  0  0  0  0  0  0
  160.7330  201.3200  147.3080 P   0  0  0  0  0  0  0  0  0  0  0  0
  159.3130  201.1480  148.2100 O   0  0  0  0  0  1  0  0  0  0  0  0
  160.3600  201.3090  145.6590 O   0  0  0  0  0  0  0  0  0  0  0  0
  161.6650  200.1720  147.6190 O   0  0  0  0  0  1  0  0  0  0  0  0
  158.3110  213.7320  151.4560 O   0  0  0  0  0  1  0  0  0  0  0  0
  157.9540  213.2610  152.6980 N   0  0  0  0  0  0  0  0  0  0  0  0
  158.7670  212.5400  153.4030 C   0  0  0  0  0  0  0  0  0  0  0  0
  160.0590  212.2040  152.8850 N   0  0  0  0  0  2  0  0  0  0  0  0
  158.3130  212.0470  154.7420 C   0  0  0  0  0  2  0  0  0  0  0  0
  157.4630  213.0830  155.4820 C   0  0  1  0  0  3  0  0  0  0  0  0
  155.1890  212.8820  156.7940 S   0  0  0  0  0  0  0  0  0  0  0  0
  154.6160  214.3790  156.0760 N   0  0  0  0  0  2  0  0  0  0  0  0
  156.0330  212.8540  155.2400 N   0  0  0  0  0  0  0  0  0  0  0  0
  155.4110  214.1270  154.8830 C   0  0  0  0  0  2  0  0  0  0  0  0
  157.7670  212.9550  156.9720 C   0  0  0  0  0  2  0  0  0  0  0  0
  158.4710  211.6430  157.2610 C   0  0  0  0  0  1  0  0  0  0  0  0
  1  5  1  0  0  0  0
  1  6  1  0  0  0  0
  4  3  1  0  0  0  0
  5 30  1  6  0  0  0
  5  9  1  0  0  0  0
  6 10  1  0  0  0  0
  7  1  2  0  0  0  0
  8  4  2  0  0  0  0
  9 10  1  0  0  0  0
  9  2  1  1  0  0  0
 10  3  2  0  0  0  0
 11  6  2  0  0  0  0
 11  8  1  0  0  0  0
 12 17  1  0  0  0  0
 13 20  2  0  0  0  0
 14 12  2  0  0  0  0
 14 16  1  0  0  0  0
 15 20  1  0  0  0  0
 16 19  1  6  0  0  0
 16 18  1  0  0  0  0
 17 21  1  0  0  0  0
 18 13  1  1  0  0  0
 19 15  1  0  0  0  0
 20 11  1  0  0  0  0
 21 18  1  0  0  0  0
 22 12  1  0  0  0  0
 23 26  1  0  0  0  0
 23 22  1  0  0  0  0
 23 24  1  0  0  0  0
 25 23  2  0  0  0  0
 27 28  1  0  0  0  0
 28 29  2  0  0  0  0
 29 31  1  0  0  0  0
 30 29  1  0  0  0  0
 32 31  1  6  0  0  0
 32 37  1  0  0  0  0
 34 33  1  0  0  0  0
 35 32  1  0  0  0  0
 35 33  1  0  0  0  0
 36 35  1  0  0  0  0
 36 34  1  0  0  0  0
 37 38  1  0  0  0  0
M  END
>  <MODEL>
9

>  <REMARK>
 VINA RESULT:      -6.1      3.040      4.376
  Name = 
  8 active torsions:
  status: ('A' for Active; 'I' for Inactive)
    1  A    between atoms: P_1  and  O_13
    2  A    between atoms: C_2  and  O_13
    3  A    between atoms: C_12  and  C_27
    4  A    between atoms: C_14  and  N_35
    5  A    between atoms: C_22  and  C_27
    6  A    between atoms: C_22  and  C_30
    7  A    between atoms: N_23  and  C_27
    8  A    between atoms: C_33  and  C_38
                            x       y       z     vdW  Elec       q    Type
                         _______ _______ _______ _____ _____    ______ ____

>  <TORSDO>
F 8

$$$$
