=
 OpenBabel11072411263D

 35 38  0  0  1  0  0  0  0  0999 V2000
  160.9180  211.0460  155.5820 C   0  0  2  0  0  3  0  0  0  0  0  0
  160.8310  208.1260  153.0420 C   0  0  0  0  0  3  0  0  0  0  0  0
  159.1840  211.4960  157.2340 O   0  0  0  0  0  0  0  0  0  0  0  0
  160.2590  210.6200  156.8890 C   0  0  2  0  0  0  0  0  0  0  0  0
  158.0940  211.6540  156.3640 C   0  0  0  0  0  0  0  0  0  0  0  0
  161.4210  209.8990  154.7140 C   0  0  1  0  0  3  0  0  0  0  0  0
  161.6620  211.1900  156.9040 C   0  0  0  0  0  2  0  0  0  0  0  0
  161.2920  209.4760  151.0870 C   0  0  0  0  0  0  0  0  0  0  0  0
  157.2620  212.8880  156.4600 C   0  0  0  0  0  1  0  0  0  0  0  0
  157.2680  213.1280  153.5120 O   0  0  0  0  0  1  0  0  0  0  0  0
  160.1480  209.1500  157.2610 C   0  0  0  0  0  1  0  0  0  0  0  0
  160.3340  209.3840  153.7330 C   0  0  1  0  0  3  0  0  0  0  0  0
  161.2850  208.2390  151.7920 C   0  0  0  0  0  0  0  0  0  0  0  0
  162.7010  210.3490  154.0160 C   0  0  0  0  0  1  0  0  0  0  0  0
  157.0560  210.8730  154.2660 C   0  0  0  0  0  2  0  0  0  0  0  0
  157.6960  211.8270  153.2320 C   0  0  2  0  0  3  0  0  0  0  0  0
  160.6660  210.5370  151.4910 N   0  0  0  0  0  0  0  0  0  0  0  0
  157.8970  210.7530  155.4460 N   0  0  0  0  0  0  0  0  0  0  0  0
  159.2510  211.7580  153.1980 C   0  0  1  0  0  3  0  0  0  0  0  0
  162.0070  207.2760  151.0440 N   0  0  0  0  0  0  0  0  0  0  0  0
  159.7930  210.4160  152.6720 C   0  0  2  0  0  3  0  0  0  0  0  0
  162.0530  209.3500  149.9510 O   0  0  0  0  0  0  0  0  0  0  0  0
  162.4730  207.9780  149.8240 C   0  0  0  0  0  3  0  0  0  0  0  0
  159.9460  212.9910  152.5840 C   0  0  2  0  0  3  0  0  0  0  0  0
  159.6770  214.1360  153.3410 O   0  0  0  0  0  1  0  0  0  0  0  0
  159.5900  213.2300  151.1240 C   0  0  0  0  0  2  0  0  0  0  0  0
  160.3880  214.2540  150.6090 O   0  0  0  0  0  0  0  0  0  0  0  0
  160.1890  214.2200  149.2230 C   0  0  1  0  0  3  0  0  0  0  0  0
  161.3780  213.5960  148.5510 C   0  0  0  0  0  0  0  0  0  0  0  0
  161.5150  212.2140  148.5220 O   0  0  0  0  0  1  0  0  0  0  0  0
  162.2780  214.3230  148.0470 O   0  0  0  0  0  0  0  0  0  0  0  0
  158.9450  213.4470  148.9240 C   0  0  0  0  0  3  0  0  0  0  0  0
  158.4500  213.4100  147.6880 C   0  0  0  0  0  3  0  0  0  0  0  0
  157.2080  212.6350  147.3940 C   0  0  0  0  0  2  0  0  0  0  0  0
  157.1880  212.2800  146.0410 O   0  0  0  0  0  1  0  0  0  0  0  0
  1  4  1  0  0  0  0
  1  7  1  1  0  0  0
  4  7  1  0  0  0  0
  4  3  1  0  0  0  0
  4 11  1  1  0  0  0
  5  9  1  0  0  0  0
  5  3  1  0  0  0  0
  6 14  1  6  0  0  0
  6  1  1  0  0  0  0
  8 17  2  0  0  0  0
  8 13  1  0  0  0  0
 12  2  1  6  0  0  0
 12  6  1  0  0  0  0
 13  2  2  0  0  0  0
 15 18  1  0  0  0  0
 16 10  1  1  0  0  0
 16 15  1  0  0  0  0
 18  5  2  0  0  0  0
 19 24  1  6  0  0  0
 19 16  1  0  0  0  0
 20 13  1  0  0  0  0
 21 17  1  6  0  0  0
 21 19  1  0  0  0  0
 21 12  1  0  0  0  0
 22  8  1  0  0  0  0
 23 22  1  0  0  0  0
 23 20  2  0  0  0  0
 24 25  1  1  0  0  0
 26 24  1  0  0  0  0
 27 26  1  0  0  0  0
 28 32  1  1  0  0  0
 28 27  1  0  0  0  0
 29 28  1  0  0  0  0
 30 29  1  0  0  0  0
 31 29  2  0  0  0  0
 33 32  2  0  0  0  0
 34 33  1  0  0  0  0
 35 34  1  0  0  0  0
M  END
>  <MODEL>
1

>  <REMARK>
 VINA RESULT:      -4.2      0.000      0.000
  Name = 
  7 active torsions:
  status: ('A' for Active; 'I' for Inactive)
    1  A    between atoms: C_5  and  C_29
    2  A    between atoms: C_5  and  C_30
    3  A    between atoms: C_7  and  C_9
    4  A    between atoms: O_8  and  C_9
    5  A    between atoms: O_8  and  C_30
    6  A    between atoms: C_9  and  C_15
    7  A    between atoms: C_11  and  C_17
                            x       y       z     vdW  Elec       q    Type
                         _______ _______ _______ _____ _____    ______ ____

>  <TORSDO>
F 7

$$$$
=
 OpenBabel11072411263D

 35 38  0  0  1  0  0  0  0  0999 V2000
  161.2860  211.0760  155.4190 C   0  0  2  0  0  3  0  0  0  0  0  0
  161.0720  208.0150  153.0590 C   0  0  0  0  0  3  0  0  0  0  0  0
  159.6880  211.5720  157.1920 O   0  0  0  0  0  0  0  0  0  0  0  0
  160.7570  210.7070  156.8010 C   0  0  2  0  0  0  0  0  0  0  0  0
  158.5220  211.6500  156.4150 C   0  0  0  0  0  0  0  0  0  0  0  0
  161.7480  209.8960  154.5730 C   0  0  1  0  0  3  0  0  0  0  0  0
  162.1370  211.3160  156.6600 C   0  0  0  0  0  2  0  0  0  0  0  0
  161.3170  209.2630  151.0010 C   0  0  0  0  0  0  0  0  0  0  0  0
  157.6620  212.8630  156.5170 C   0  0  0  0  0  1  0  0  0  0  0  0
  157.4030  212.9350  153.5720 O   0  0  0  0  0  1  0  0  0  0  0  0
  160.7270  209.2580  157.2600 C   0  0  0  0  0  1  0  0  0  0  0  0
  160.5960  209.2960  153.7220 C   0  0  1  0  0  3  0  0  0  0  0  0
  161.4110  208.0700  151.7690 C   0  0  0  0  0  0  0  0  0  0  0  0
  162.9470  210.3410  153.7410 C   0  0  0  0  0  1  0  0  0  0  0  0
  157.3310  210.7220  154.4630 C   0  0  0  0  0  2  0  0  0  0  0  0
  157.8470  211.6330  153.3260 C   0  0  2  0  0  3  0  0  0  0  0  0
  160.6940  210.3290  151.4010 N   0  0  0  0  0  0  0  0  0  0  0  0
  158.2760  210.6920  155.5680 N   0  0  0  0  0  0  0  0  0  0  0  0
  159.3950  211.6050  153.1570 C   0  0  1  0  0  3  0  0  0  0  0  0
  162.0960  207.0860  151.0140 N   0  0  0  0  0  0  0  0  0  0  0  0
  159.9320  210.2510  152.6600 C   0  0  2  0  0  3  0  0  0  0  0  0
  161.9800  209.0940  149.8100 O   0  0  0  0  0  0  0  0  0  0  0  0
  162.4310  207.7300  149.7210 C   0  0  0  0  0  3  0  0  0  0  0  0
  159.9930  212.8200  152.4180 C   0  0  2  0  0  3  0  0  0  0  0  0
  159.6190  214.0120  153.0470 O   0  0  0  0  0  1  0  0  0  0  0  0
  159.6380  212.8710  150.9400 C   0  0  0  0  0  2  0  0  0  0  0  0
  158.8080  213.9690  150.6950 O   0  0  0  0  0  0  0  0  0  0  0  0
  157.9770  213.5780  149.6380 C   0  0  1  0  0  3  0  0  0  0  0  0
  156.6020  214.1500  149.8290 C   0  0  0  0  0  0  0  0  0  0  0  0
  155.8150  214.4530  148.7260 O   0  0  0  0  0  0  0  0  0  0  0  0
  156.1720  214.3990  150.9890 O   0  0  0  0  0  1  0  0  0  0  0  0
  158.5700  214.0440  148.3470 C   0  0  0  0  0  3  0  0  0  0  0  0
  158.8700  213.1740  147.3850 C   0  0  0  0  0  3  0  0  0  0  0  0
  159.4590  213.6450  146.0970 C   0  0  0  0  0  2  0  0  0  0  0  0
  160.7060  213.0410  145.9050 O   0  0  0  0  0  1  0  0  0  0  0  0
  1  7  1  1  0  0  0
  1  4  1  0  0  0  0
  4  3  1  0  0  0  0
  4 11  1  1  0  0  0
  5  9  1  0  0  0  0
  5  3  1  0  0  0  0
  6 14  1  6  0  0  0
  6  1  1  0  0  0  0
  7  4  1  0  0  0  0
  8 17  2  0  0  0  0
  8 13  1  0  0  0  0
 12  2  1  6  0  0  0
 12  6  1  0  0  0  0
 13  2  2  0  0  0  0
 15 18  1  0  0  0  0
 16 10  1  1  0  0  0
 16 15  1  0  0  0  0
 18  5  2  0  0  0  0
 19 24  1  6  0  0  0
 19 16  1  0  0  0  0
 20 13  1  0  0  0  0
 21 17  1  6  0  0  0
 21 19  1  0  0  0  0
 21 12  1  0  0  0  0
 22  8  1  0  0  0  0
 23 22  1  0  0  0  0
 23 20  2  0  0  0  0
 24 25  1  1  0  0  0
 26 24  1  0  0  0  0
 27 26  1  0  0  0  0
 28 32  1  6  0  0  0
 28 29  1  0  0  0  0
 28 27  1  0  0  0  0
 29 31  1  0  0  0  0
 30 29  2  0  0  0  0
 33 32  2  0  0  0  0
 34 33  1  0  0  0  0
 35 34  1  0  0  0  0
M  END
>  <MODEL>
2

>  <REMARK>
 VINA RESULT:      -3.6      1.210      2.011
  Name = 
  7 active torsions:
  status: ('A' for Active; 'I' for Inactive)
    1  A    between atoms: C_5  and  C_29
    2  A    between atoms: C_5  and  C_30
    3  A    between atoms: C_7  and  C_9
    4  A    between atoms: O_8  and  C_9
    5  A    between atoms: O_8  and  C_30
    6  A    between atoms: C_9  and  C_15
    7  A    between atoms: C_11  and  C_17
                            x       y       z     vdW  Elec       q    Type
                         _______ _______ _______ _____ _____    ______ ____

>  <TORSDO>
F 7

$$$$
=
 OpenBabel11072411263D

 35 38  0  0  1  0  0  0  0  0999 V2000
  158.0410  211.3260  154.0560 C   0  0  2  0  0  3  0  0  0  0  0  0
  160.0210  213.8670  151.9080 C   0  0  0  0  0  3  0  0  0  0  0  0
  158.2660  211.0830  156.4710 O   0  0  0  0  0  0  0  0  0  0  0  0
  157.7530  211.9190  155.4310 C   0  0  2  0  0  0  0  0  0  0  0  0
  159.6380  210.7900  156.5300 C   0  0  0  0  0  0  0  0  0  0  0  0
  158.3260  212.3490  152.9640 C   0  0  1  0  0  3  0  0  0  0  0  0
  156.6150  211.3770  154.5910 C   0  0  0  0  0  2  0  0  0  0  0  0
  160.7810  212.2670  150.2590 C   0  0  0  0  0  0  0  0  0  0  0  0
  160.0880  209.5690  157.2580 C   0  0  0  0  0  1  0  0  0  0  0  0
  161.9400  208.9250  155.0440 O   0  0  0  0  0  1  0  0  0  0  0  0
  157.7480  213.4240  155.6440 C   0  0  0  0  0  1  0  0  0  0  0  0
  159.8340  212.7090  152.8730 C   0  0  1  0  0  3  0  0  0  0  0  0
  160.4610  213.5880  150.6790 C   0  0  0  0  0  0  0  0  0  0  0  0
  157.7480  211.8260  151.6520 C   0  0  0  0  0  1  0  0  0  0  0  0
  161.8470  211.2590  155.5370 C   0  0  0  0  0  2  0  0  0  0  0  0
  161.9220  210.1810  154.4310 C   0  0  2  0  0  3  0  0  0  0  0  0
  160.8950  211.2620  151.0710 N   0  0  0  0  0  0  0  0  0  0  0  0
  160.4640  211.5530  155.8750 N   0  0  0  0  0  0  0  0  0  0  0  0
  160.7630  210.2670  153.3950 C   0  0  1  0  0  3  0  0  0  0  0  0
  160.4830  214.4500  149.5540 N   0  0  0  0  0  0  0  0  0  0  0  0
  160.8200  211.5320  152.5180 C   0  0  2  0  0  3  0  0  0  0  0  0
  160.9370  212.2470  148.8950 O   0  0  0  0  0  0  0  0  0  0  0  0
  160.8350  213.5930  148.3960 C   0  0  0  0  0  3  0  0  0  0  0  0
  160.5010  208.9720  152.5990 C   0  0  2  0  0  3  0  0  0  0  0  0
  160.3730  207.8800  153.4640 O   0  0  0  0  0  1  0  0  0  0  0  0
  161.5530  208.6820  151.5380 C   0  0  0  0  0  2  0  0  0  0  0  0
  161.5650  207.3150  151.2520 O   0  0  0  0  0  0  0  0  0  0  0  0
  161.0060  207.1960  149.9750 C   0  0  1  0  0  3  0  0  0  0  0  0
  161.9410  207.7710  148.9510 C   0  0  0  0  0  0  0  0  0  0  0  0
  161.8830  209.1220  148.6360 O   0  0  0  0  0  1  0  0  0  0  0  0
  162.7530  207.0230  148.3400 O   0  0  0  0  0  0  0  0  0  0  0  0
  160.7290  205.7540  149.6890 C   0  0  0  0  0  3  0  0  0  0  0  0
  160.8680  204.8350  150.6420 C   0  0  0  0  0  3  0  0  0  0  0  0
  160.5880  203.3980  150.3520 C   0  0  0  0  0  2  0  0  0  0  0  0
  161.1600  202.6000  151.3480 O   0  0  0  0  0  1  0  0  0  0  0  0
  1  7  1  6  0  0  0
  1  4  1  0  0  0  0
  3  5  1  0  0  0  0
  4 11  1  1  0  0  0
  4  3  1  0  0  0  0
  5  9  1  0  0  0  0
  6 14  1  6  0  0  0
  6  1  1  0  0  0  0
  7  4  1  0  0  0  0
  8 13  1  0  0  0  0
  8 17  2  0  0  0  0
 12  2  1  6  0  0  0
 12  6  1  0  0  0  0
 13  2  2  0  0  0  0
 15 18  1  0  0  0  0
 16 10  1  1  0  0  0
 16 15  1  0  0  0  0
 18  5  2  0  0  0  0
 19 24  1  6  0  0  0
 19 16  1  0  0  0  0
 20 13  1  0  0  0  0
 21 17  1  6  0  0  0
 21 12  1  0  0  0  0
 21 19  1  0  0  0  0
 22  8  1  0  0  0  0
 23 22  1  0  0  0  0
 23 20  2  0  0  0  0
 24 25  1  1  0  0  0
 26 24  1  0  0  0  0
 27 26  1  0  0  0  0
 28 32  1  6  0  0  0
 28 27  1  0  0  0  0
 29 28  1  0  0  0  0
 30 29  1  0  0  0  0
 31 29  2  0  0  0  0
 32 33  2  0  0  0  0
 34 33  1  0  0  0  0
 34 35  1  0  0  0  0
M  END
>  <MODEL>
3

>  <REMARK>
 VINA RESULT:      -3.6      2.390      5.656
  Name = 
  7 active torsions:
  status: ('A' for Active; 'I' for Inactive)
    1  A    between atoms: C_5  and  C_29
    2  A    between atoms: C_5  and  C_30
    3  A    between atoms: C_7  and  C_9
    4  A    between atoms: O_8  and  C_9
    5  A    between atoms: O_8  and  C_30
    6  A    between atoms: C_9  and  C_15
    7  A    between atoms: C_11  and  C_17
                            x       y       z     vdW  Elec       q    Type
                         _______ _______ _______ _____ _____    ______ ____

>  <TORSDO>
F 7

$$$$
