=
 OpenBabel11072414093D

 28 29  0  0  0  0  0  0  0  0999 V2000
  161.3240  206.4250  152.6350 C   0  0  0  0  0  2  0  0  0  0  0  0
  161.5760  207.6290  150.5030 C   0  0  0  0  0  3  0  0  0  0  0  0
  161.6670  207.6900  149.1160 C   0  0  0  0  0  0  0  0  0  0  0  0
  160.9500  203.9290  150.9010 C   0  0  0  0  0  0  0  0  0  0  0  0
  161.3310  205.3470  148.9490 C   0  0  0  0  0  0  0  0  0  0  0  0
  160.9840  202.9640  148.6700 C   0  0  0  0  0  0  0  0  0  0  0  0
  161.2210  204.2270  148.1240 C   0  0  0  0  0  3  0  0  0  0  0  0
  160.8440  202.8260  150.0490 C   0  0  0  0  0  3  0  0  0  0  0  0
  161.2110  205.2220  150.3620 C   0  0  0  0  0  0  0  0  0  0  0  0
  161.3550  206.4060  151.1400 C   0  0  0  0  0  0  0  0  0  0  0  0
  161.8920  208.9390  148.4740 N   0  0  0  0  0  1  0  0  0  0  0  0
  160.7390  203.6590  152.3520 C   0  0  0  0  0  1  0  0  0  0  0  0
  161.5500  206.5600  148.3780 N   0  0  0  0  0  0  0  0  0  0  0  0
  160.8700  201.7800  147.8160 C   0  0  0  0  0  3  0  0  0  0  0  0
  161.2790  200.6530  148.2020 O   0  0  0  0  0  0  0  0  0  0  0  0
  160.7700  207.7510  153.1340 C   0  0  0  0  0  2  0  0  0  0  0  0
  160.9680  207.8850  154.6110 C   0  0  0  0  0  0  0  0  0  0  0  0
  161.4540  209.1190  155.1820 N   0  0  0  0  0  0  0  0  0  0  0  0
  160.6650  206.9150  155.3570 O   0  0  0  0  0  0  0  0  0  0  0  0
  160.2880  209.8440  157.2250 C   0  0  0  0  0  1  0  0  0  0  0  0
  161.5800  209.3150  156.6270 C   0  0  0  0  0  3  0  0  0  0  0  0
  162.7400  210.2360  156.9600 C   0  0  0  0  0  1  0  0  0  0  0  0
  161.7260  210.2800  154.3380 C   0  0  0  0  0  2  0  0  0  0  0  0
  160.4880  211.1540  154.1880 C   0  0  0  0  0  2  0  0  0  0  0  0
  160.0690  211.2500  152.7550 C   0  0  0  0  0  0  0  0  0  0  0  0
  160.9090  210.9960  151.8540 O   0  0  0  0  0  0  0  0  0  0  0  0
  158.7760  211.6360  152.3930 O   0  0  0  0  0  0  0  0  0  0  0  0
  158.5100  212.8420  151.6920 C   0  0  0  0  0  1  0  0  0  0  0  0
  1 16  1  0  0  0  0
  2 10  1  0  0  0  0
  3  2  2  0  0  0  0
  4 12  1  0  0  0  0
  5  9  1  0  0  0  0
  6  8  1  0  0  0  0
  7  6  2  0  0  0  0
  7  5  1  0  0  0  0
  8  4  2  0  0  0  0
  9  4  1  0  0  0  0
  9 10  2  0  0  0  0
 10  1  1  0  0  0  0
 11  3  1  0  0  0  0
 13  5  2  0  0  0  0
 13  3  1  0  0  0  0
 14 15  2  0  0  0  0
 14  6  1  0  0  0  0
 16 17  1  0  0  0  0
 17 18  1  0  0  0  0
 17 19  2  0  0  0  0
 18 21  1  0  0  0  0
 21 22  1  0  0  0  0
 21 20  1  0  0  0  0
 23 18  1  0  0  0  0
 24 23  1  0  0  0  0
 25 24  1  0  0  0  0
 26 25  2  0  0  0  0
 27 25  1  0  0  0  0
 28 27  1  0  0  0  0
M  END
>  <MODEL>
1

>  <REMARK>
 VINA RESULT:      -8.2      0.000      0.000
  Name = 
  9 active torsions:
  status: ('A' for Active; 'I' for Inactive)
    1  A    between atoms: C_1  and  C_15
    2  A    between atoms: C_1  and  O_19
    3  A    between atoms: C_5  and  C_14
    4  A    between atoms: C_6  and  C_14
    5  A    between atoms: C_6  and  C_16
    6  A    between atoms: C_9  and  C_12
    7  A    between atoms: C_15  and  C_27
    8  A    between atoms: N_20  and  C_22
    9  A    between atoms: N_20  and  C_27
                            x       y       z     vdW  Elec       q    Type
                         _______ _______ _______ _____ _____    ______ ____

>  <TORSDO>
F 9

$$$$
=
 OpenBabel11072414093D

 28 29  0  0  0  0  0  0  0  0999 V2000
  161.3020  206.3620  152.5220 C   0  0  0  0  0  2  0  0  0  0  0  0
  161.5460  207.6200  150.4200 C   0  0  0  0  0  3  0  0  0  0  0  0
  161.6370  207.7160  149.0350 C   0  0  0  0  0  0  0  0  0  0  0  0
  160.9470  203.9060  150.7270 C   0  0  0  0  0  0  0  0  0  0  0  0
  161.3190  205.3750  148.8100 C   0  0  0  0  0  0  0  0  0  0  0  0
  160.9900  202.9970  148.4730 C   0  0  0  0  0  0  0  0  0  0  0  0
  161.2180  204.2750  147.9590 C   0  0  0  0  0  3  0  0  0  0  0  0
  160.8500  202.8240  149.8480 C   0  0  0  0  0  3  0  0  0  0  0  0
  161.1990  205.2140  150.2200 C   0  0  0  0  0  0  0  0  0  0  0  0
  161.3330  206.3800  151.0270 C   0  0  0  0  0  0  0  0  0  0  0  0
  161.8540  208.9810  148.4240 N   0  0  0  0  0  1  0  0  0  0  0  0
  160.7370  203.6000  152.1710 C   0  0  0  0  0  1  0  0  0  0  0  0
  161.5300  206.6030  148.2700 N   0  0  0  0  0  0  0  0  0  0  0  0
  160.8850  201.8340  147.5900 C   0  0  0  0  0  3  0  0  0  0  0  0
  160.9170  201.9590  146.3370 O   0  0  0  0  0  0  0  0  0  0  0  0
  160.8470  207.7120  153.0550 C   0  0  0  0  0  2  0  0  0  0  0  0
  161.0050  207.7740  154.5410 C   0  0  0  0  0  0  0  0  0  0  0  0
  161.4190  208.9970  155.1900 N   0  0  0  0  0  0  0  0  0  0  0  0
  160.7330  206.7520  155.2280 O   0  0  0  0  0  0  0  0  0  0  0  0
  160.1650  209.5130  157.2440 C   0  0  0  0  0  1  0  0  0  0  0  0
  161.5040  209.1180  156.6460 C   0  0  0  0  0  3  0  0  0  0  0  0
  162.5840  210.1040  157.0550 C   0  0  0  0  0  1  0  0  0  0  0  0
  161.6550  210.2130  154.4160 C   0  0  0  0  0  2  0  0  0  0  0  0
  160.3730  210.6990  153.7520 C   0  0  0  0  0  2  0  0  0  0  0  0
  159.8700  211.9470  154.4050 C   0  0  0  0  0  0  0  0  0  0  0  0
  158.8880  212.5490  153.9000 O   0  0  0  0  0  0  0  0  0  0  0  0
  160.4760  212.4710  155.5490 O   0  0  0  0  0  0  0  0  0  0  0  0
  159.8300  213.4220  156.3840 C   0  0  0  0  0  1  0  0  0  0  0  0
  1 16  1  0  0  0  0
  2 10  1  0  0  0  0
  3  2  2  0  0  0  0
  4 12  1  0  0  0  0
  5  9  1  0  0  0  0
  6  8  1  0  0  0  0
  7  6  2  0  0  0  0
  7  5  1  0  0  0  0
  8  4  2  0  0  0  0
  9  4  1  0  0  0  0
  9 10  2  0  0  0  0
 10  1  1  0  0  0  0
 11  3  1  0  0  0  0
 13  5  2  0  0  0  0
 13  3  1  0  0  0  0
 14  6  1  0  0  0  0
 15 14  2  0  0  0  0
 16 17  1  0  0  0  0
 17 18  1  0  0  0  0
 17 19  2  0  0  0  0
 18 21  1  0  0  0  0
 21 22  1  0  0  0  0
 21 20  1  0  0  0  0
 23 18  1  0  0  0  0
 24 25  1  0  0  0  0
 24 23  1  0  0  0  0
 25 27  1  0  0  0  0
 26 25  2  0  0  0  0
 27 28  1  0  0  0  0
M  END
>  <MODEL>
2

>  <REMARK>
 VINA RESULT:      -7.9      1.110      1.439
  Name = 
  9 active torsions:
  status: ('A' for Active; 'I' for Inactive)
    1  A    between atoms: C_1  and  C_15
    2  A    between atoms: C_1  and  O_19
    3  A    between atoms: C_5  and  C_14
    4  A    between atoms: C_6  and  C_14
    5  A    between atoms: C_6  and  C_16
    6  A    between atoms: C_9  and  C_12
    7  A    between atoms: C_15  and  C_27
    8  A    between atoms: N_20  and  C_22
    9  A    between atoms: N_20  and  C_27
                            x       y       z     vdW  Elec       q    Type
                         _______ _______ _______ _____ _____    ______ ____

>  <TORSDO>
F 9

$$$$
=
 OpenBabel11072414093D

 28 29  0  0  0  0  0  0  0  0999 V2000
  161.6650  206.1080  150.0520 C   0  0  0  0  0  2  0  0  0  0  0  0
  161.8480  208.5630  150.0580 C   0  0  0  0  0  3  0  0  0  0  0  0
  161.7820  209.8100  150.6700 C   0  0  0  0  0  0  0  0  0  0  0  0
  161.1340  206.3840  153.0550 C   0  0  0  0  0  0  0  0  0  0  0  0
  161.2720  208.8050  152.7580 C   0  0  0  0  0  0  0  0  0  0  0  0
  160.7580  207.8760  154.9370 C   0  0  0  0  0  0  0  0  0  0  0  0
  160.9800  208.9790  154.1110 C   0  0  0  0  0  3  0  0  0  0  0  0
  160.8440  206.5910  154.4070 C   0  0  0  0  0  3  0  0  0  0  0  0
  161.3430  207.4990  152.1940 C   0  0  0  0  0  0  0  0  0  0  0  0
  161.6260  207.4010  150.8020 C   0  0  0  0  0  0  0  0  0  0  0  0
  162.0080  210.9890  149.9070 N   0  0  0  0  0  1  0  0  0  0  0  0
  161.2400  204.9630  152.6170 C   0  0  0  0  0  1  0  0  0  0  0  0
  161.4920  209.9030  151.9910 N   0  0  0  0  0  0  0  0  0  0  0  0
  160.4470  208.0460  156.3580 C   0  0  0  0  0  3  0  0  0  0  0  0
  159.7970  207.1740  156.9940 O   0  0  0  0  0  0  0  0  0  0  0  0
  160.5080  206.0360  149.0660 C   0  0  0  0  0  2  0  0  0  0  0  0
  161.0140  205.8450  147.6710 C   0  0  0  0  0  0  0  0  0  0  0  0
  161.3370  204.5280  147.1760 N   0  0  0  0  0  0  0  0  0  0  0  0
  161.1180  206.8500  146.9160 O   0  0  0  0  0  0  0  0  0  0  0  0
  163.1900  204.7330  145.5690 C   0  0  0  0  0  1  0  0  0  0  0  0
  161.7540  204.2930  145.7930 C   0  0  0  0  0  3  0  0  0  0  0  0
  160.8240  204.9850  144.8120 C   0  0  0  0  0  1  0  0  0  0  0  0
  161.1390  203.3450  148.0100 C   0  0  0  0  0  2  0  0  0  0  0  0
  160.9700  202.0930  147.1590 C   0  0  0  0  0  2  0  0  0  0  0  0
  161.2290  200.8590  147.9640 C   0  0  0  0  0  0  0  0  0  0  0  0
  161.1340  200.9140  149.2170 O   0  0  0  0  0  0  0  0  0  0  0  0
  161.5950  199.6540  147.3610 O   0  0  0  0  0  0  0  0  0  0  0  0
  161.3110  199.3670  145.9990 C   0  0  0  0  0  1  0  0  0  0  0  0
  1 10  1  0  0  0  0
  2  3  2  0  0  0  0
  2 10  1  0  0  0  0
  3 13  1  0  0  0  0
  4  8  2  0  0  0  0
  5  7  1  0  0  0  0
  6 14  1  0  0  0  0
  7  6  2  0  0  0  0
  8  6  1  0  0  0  0
  9  5  1  0  0  0  0
  9  4  1  0  0  0  0
 10  9  2  0  0  0  0
 11  3  1  0  0  0  0
 12  4  1  0  0  0  0
 13  5  2  0  0  0  0
 14 15  2  0  0  0  0
 16  1  1  0  0  0  0
 17 16  1  0  0  0  0
 18 17  1  0  0  0  0
 18 23  1  0  0  0  0
 19 17  2  0  0  0  0
 20 21  1  0  0  0  0
 21 18  1  0  0  0  0
 22 21  1  0  0  0  0
 24 25  1  0  0  0  0
 24 23  1  0  0  0  0
 25 26  2  0  0  0  0
 27 25  1  0  0  0  0
 28 27  1  0  0  0  0
M  END
>  <MODEL>
3

>  <REMARK>
 VINA RESULT:      -7.9      2.560      8.586
  Name = 
  9 active torsions:
  status: ('A' for Active; 'I' for Inactive)
    1  A    between atoms: C_1  and  C_15
    2  A    between atoms: C_1  and  O_19
    3  A    between atoms: C_5  and  C_14
    4  A    between atoms: C_6  and  C_14
    5  A    between atoms: C_6  and  C_16
    6  A    between atoms: C_9  and  C_12
    7  A    between atoms: C_15  and  C_27
    8  A    between atoms: N_20  and  C_22
    9  A    between atoms: N_20  and  C_27
                            x       y       z     vdW  Elec       q    Type
                         _______ _______ _______ _____ _____    ______ ____

>  <TORSDO>
F 9

$$$$
=
 OpenBabel11072414093D

 28 29  0  0  0  0  0  0  0  0999 V2000
  161.5040  207.5780  150.1590 C   0  0  0  0  0  2  0  0  0  0  0  0
  161.3310  205.3880  151.2710 C   0  0  0  0  0  3  0  0  0  0  0  0
  161.1960  204.5720  152.3890 C   0  0  0  0  0  0  0  0  0  0  0  0
  161.0280  208.7560  152.9460 C   0  0  0  0  0  0  0  0  0  0  0  0
  160.9970  206.4680  153.8010 C   0  0  0  0  0  0  0  0  0  0  0  0
  160.7720  208.3380  155.3270 C   0  0  0  0  0  0  0  0  0  0  0  0
  160.8330  206.9630  155.0950 C   0  0  0  0  0  3  0  0  0  0  0  0
  160.8630  209.2210  154.2540 C   0  0  0  0  0  3  0  0  0  0  0  0
  161.1120  207.3560  152.6940 C   0  0  0  0  0  0  0  0  0  0  0  0
  161.2970  206.7780  151.4060 C   0  0  0  0  0  0  0  0  0  0  0  0
  161.2320  203.1570  152.2440 N   0  0  0  0  0  1  0  0  0  0  0  0
  161.0690  209.7970  151.8790 C   0  0  0  0  0  1  0  0  0  0  0  0
  161.0400  205.1230  153.6170 N   0  0  0  0  0  0  0  0  0  0  0  0
  160.6040  208.8710  156.6810 C   0  0  0  0  0  3  0  0  0  0  0  0
  160.0920  210.0050  156.8780 O   0  0  0  0  0  0  0  0  0  0  0  0
  160.7840  206.9240  148.9890 C   0  0  0  0  0  2  0  0  0  0  0  0
  161.7080  206.7650  147.8230 C   0  0  0  0  0  0  0  0  0  0  0  0
  161.6450  205.5900  146.9860 N   0  0  0  0  0  0  0  0  0  0  0  0
  162.5200  207.6920  147.5560 O   0  0  0  0  0  0  0  0  0  0  0  0
  161.6330  205.0740  144.5790 C   0  0  0  0  0  1  0  0  0  0  0  0
  162.4750  205.4380  145.7890 C   0  0  0  0  0  3  0  0  0  0  0  0
  163.5720  204.4110  146.0060 C   0  0  0  0  0  1  0  0  0  0  0  0
  160.6520  204.5480  147.2310 C   0  0  0  0  0  2  0  0  0  0  0  0
  161.2080  203.4600  148.1410 C   0  0  0  0  0  2  0  0  0  0  0  0
  160.9540  202.1010  147.5690 C   0  0  0  0  0  0  0  0  0  0  0  0
  160.5670  201.1780  148.3320 O   0  0  0  0  0  0  0  0  0  0  0  0
  161.1580  201.8250  146.2150 O   0  0  0  0  0  0  0  0  0  0  0  0
  160.0830  201.5940  145.3150 C   0  0  0  0  0  1  0  0  0  0  0  0
  1 10  1  0  0  0  0
  2 10  2  0  0  0  0
  2  3  1  0  0  0  0
  3 13  2  0  0  0  0
  4  8  1  0  0  0  0
  5  7  2  0  0  0  0
  6 14  1  0  0  0  0
  7  6  1  0  0  0  0
  8  6  2  0  0  0  0
  9  4  2  0  0  0  0
  9  5  1  0  0  0  0
 10  9  1  0  0  0  0
 11  3  1  0  0  0  0
 12  4  1  0  0  0  0
 13  5  1  0  0  0  0
 14 15  2  0  0  0  0
 16  1  1  0  0  0  0
 17 16  1  0  0  0  0
 18 23  1  0  0  0  0
 18 17  1  0  0  0  0
 19 17  2  0  0  0  0
 20 21  1  0  0  0  0
 21 22  1  0  0  0  0
 21 18  1  0  0  0  0
 23 24  1  0  0  0  0
 25 24  1  0  0  0  0
 25 26  2  0  0  0  0
 27 25  1  0  0  0  0
 28 27  1  0  0  0  0
M  END
>  <MODEL>
4

>  <REMARK>
 VINA RESULT:      -7.8      2.370      8.633
  Name = 
  9 active torsions:
  status: ('A' for Active; 'I' for Inactive)
    1  A    between atoms: C_1  and  C_15
    2  A    between atoms: C_1  and  O_19
    3  A    between atoms: C_5  and  C_14
    4  A    between atoms: C_6  and  C_14
    5  A    between atoms: C_6  and  C_16
    6  A    between atoms: C_9  and  C_12
    7  A    between atoms: C_15  and  C_27
    8  A    between atoms: N_20  and  C_22
    9  A    between atoms: N_20  and  C_27
                            x       y       z     vdW  Elec       q    Type
                         _______ _______ _______ _____ _____    ______ ____

>  <TORSDO>
F 9

$$$$
=
 OpenBabel11072414093D

 28 29  0  0  0  0  0  0  0  0999 V2000
  161.0580  206.0570  152.0800 C   0  0  0  0  0  2  0  0  0  0  0  0
  161.6440  207.8750  150.5270 C   0  0  0  0  0  3  0  0  0  0  0  0
  161.8220  209.2140  150.1970 C   0  0  0  0  0  0  0  0  0  0  0  0
  160.7630  208.2710  154.1760 C   0  0  0  0  0  0  0  0  0  0  0  0
  161.2810  209.8770  152.4100 C   0  0  0  0  0  0  0  0  0  0  0  0
  160.7550  210.6560  154.6440 C   0  0  0  0  0  0  0  0  0  0  0  0
  161.1050  210.9210  153.3190 C   0  0  0  0  0  3  0  0  0  0  0  0
  160.5940  209.3380  155.0630 C   0  0  0  0  0  3  0  0  0  0  0  0
  161.1010  208.5240  152.8150 C   0  0  0  0  0  0  0  0  0  0  0  0
  161.2790  207.5140  151.8270 C   0  0  0  0  0  0  0  0  0  0  0  0
  162.1930  209.5750  148.8720 N   0  0  0  0  0  1  0  0  0  0  0  0
  160.6060  206.9050  154.7540 C   0  0  0  0  0  1  0  0  0  0  0  0
  161.6330  210.1760  151.1330 N   0  0  0  0  0  0  0  0  0  0  0  0
  160.5630  211.7430  155.6070 C   0  0  0  0  0  3  0  0  0  0  0  0
  160.6830  211.5470  156.8460 O   0  0  0  0  0  0  0  0  0  0  0  0
  161.8370  205.2230  151.0750 C   0  0  0  0  0  2  0  0  0  0  0  0
  161.1460  203.9210  150.8200 C   0  0  0  0  0  0  0  0  0  0  0  0
  160.9870  203.4200  149.4740 N   0  0  0  0  0  0  0  0  0  0  0  0
  160.7380  203.2440  151.8020 O   0  0  0  0  0  0  0  0  0  0  0  0
  161.0180  201.0280  150.0510 C   0  0  0  0  0  1  0  0  0  0  0  0
  160.3920  202.1130  149.1930 C   0  0  0  0  0  3  0  0  0  0  0  0
  160.5040  201.7610  147.7200 C   0  0  0  0  0  1  0  0  0  0  0  0
  161.5310  204.1520  148.3330 C   0  0  0  0  0  2  0  0  0  0  0  0
  160.7450  205.4300  148.0730 C   0  0  0  0  0  2  0  0  0  0  0  0
  161.2630  206.1400  146.8620 C   0  0  0  0  0  0  0  0  0  0  0  0
  162.3390  206.7870  146.9450 O   0  0  0  0  0  0  0  0  0  0  0  0
  160.5720  206.1210  145.6490 O   0  0  0  0  0  0  0  0  0  0  0  0
  160.9610  205.2910  144.5640 C   0  0  0  0  0  1  0  0  0  0  0  0
  2 10  1  0  0  0  0
  3  2  2  0  0  0  0
  3 13  1  0  0  0  0
  4 12  1  0  0  0  0
  4  8  2  0  0  0  0
  5  9  1  0  0  0  0
  5  7  1  0  0  0  0
  6  8  1  0  0  0  0
  6 14  1  0  0  0  0
  7  6  2  0  0  0  0
  9  4  1  0  0  0  0
 10  1  1  0  0  0  0
 10  9  2  0  0  0  0
 11  3  1  0  0  0  0
 13  5  2  0  0  0  0
 14 15  2  0  0  0  0
 16  1  1  0  0  0  0
 17 16  1  0  0  0  0
 17 19  2  0  0  0  0
 18 17  1  0  0  0  0
 21 18  1  0  0  0  0
 21 20  1  0  0  0  0
 22 21  1  0  0  0  0
 23 18  1  0  0  0  0
 24 23  1  0  0  0  0
 25 26  2  0  0  0  0
 25 24  1  0  0  0  0
 27 25  1  0  0  0  0
 28 27  1  0  0  0  0
M  END
>  <MODEL>
5

>  <REMARK>
 VINA RESULT:      -7.7      2.567      7.763
  Name = 
  9 active torsions:
  status: ('A' for Active; 'I' for Inactive)
    1  A    between atoms: C_1  and  C_15
    2  A    between atoms: C_1  and  O_19
    3  A    between atoms: C_5  and  C_14
    4  A    between atoms: C_6  and  C_14
    5  A    between atoms: C_6  and  C_16
    6  A    between atoms: C_9  and  C_12
    7  A    between atoms: C_15  and  C_27
    8  A    between atoms: N_20  and  C_22
    9  A    between atoms: N_20  and  C_27
                            x       y       z     vdW  Elec       q    Type
                         _______ _______ _______ _____ _____    ______ ____

>  <TORSDO>
F 9

$$$$
=
 OpenBabel11072414093D

 28 29  0  0  0  0  0  0  0  0999 V2000
  160.7030  206.3640  151.0540 C   0  0  0  0  0  2  0  0  0  0  0  0
  160.7160  203.9250  150.7150 C   0  0  0  0  0  3  0  0  0  0  0  0
  160.8380  202.7830  149.9320 C   0  0  0  0  0  0  0  0  0  0  0  0
  161.4890  206.5330  148.0990 C   0  0  0  0  0  0  0  0  0  0  0  0
  161.3330  204.0960  148.0180 C   0  0  0  0  0  0  0  0  0  0  0  0
  161.8590  205.3460  146.0090 C   0  0  0  0  0  0  0  0  0  0  0  0
  161.6360  204.1300  146.6570 C   0  0  0  0  0  3  0  0  0  0  0  0
  161.7910  206.5340  146.7340 C   0  0  0  0  0  3  0  0  0  0  0  0
  161.2390  205.3020  148.7710 C   0  0  0  0  0  0  0  0  0  0  0  0
  160.9070  205.1900  150.1510 C   0  0  0  0  0  0  0  0  0  0  0  0
  160.6420  201.4990  150.5130 N   0  0  0  0  0  1  0  0  0  0  0  0
  161.4870  207.8640  148.7710 C   0  0  0  0  0  1  0  0  0  0  0  0
  161.1350  202.8920  148.6140 N   0  0  0  0  0  0  0  0  0  0  0  0
  162.1740  205.3950  144.5800 C   0  0  0  0  0  3  0  0  0  0  0  0
  161.2800  205.2340  143.7070 O   0  0  0  0  0  0  0  0  0  0  0  0
  161.9090  206.5450  151.9630 C   0  0  0  0  0  2  0  0  0  0  0  0
  161.5180  206.3780  153.3980 C   0  0  0  0  0  0  0  0  0  0  0  0
  161.4430  207.5190  154.2800 N   0  0  0  0  0  0  0  0  0  0  0  0
  161.2160  205.2280  153.8190 O   0  0  0  0  0  0  0  0  0  0  0  0
  159.4670  207.4240  155.7460 C   0  0  0  0  0  1  0  0  0  0  0  0
  160.9840  207.4050  155.6660 C   0  0  0  0  0  3  0  0  0  0  0  0
  161.5790  208.4990  156.5350 C   0  0  0  0  0  1  0  0  0  0  0  0
  161.7060  208.8670  153.7860 C   0  0  0  0  0  2  0  0  0  0  0  0
  160.4720  209.4590  153.1170 C   0  0  0  0  0  2  0  0  0  0  0  0
  160.8510  210.5270  152.1410 C   0  0  0  0  0  0  0  0  0  0  0  0
  161.7230  210.2780  151.2690 O   0  0  0  0  0  0  0  0  0  0  0  0
  160.2780  211.8000  152.1860 O   0  0  0  0  0  0  0  0  0  0  0  0
  159.6960  212.3310  153.3680 C   0  0  0  0  0  1  0  0  0  0  0  0
  1 16  1  0  0  0  0
  3 11  1  0  0  0  0
  3  2  2  0  0  0  0
  4  9  1  0  0  0  0
  4 12  1  0  0  0  0
  5 13  2  0  0  0  0
  5  9  1  0  0  0  0
  6  7  2  0  0  0  0
  6  8  1  0  0  0  0
  7  5  1  0  0  0  0
  8  4  2  0  0  0  0
  9 10  2  0  0  0  0
 10  2  1  0  0  0  0
 10  1  1  0  0  0  0
 13  3  1  0  0  0  0
 14  6  1  0  0  0  0
 15 14  2  0  0  0  0
 16 17  1  0  0  0  0
 17 19  2  0  0  0  0
 17 18  1  0  0  0  0
 18 21  1  0  0  0  0
 21 20  1  0  0  0  0
 21 22  1  0  0  0  0
 23 18  1  0  0  0  0
 24 23  1  0  0  0  0
 25 27  1  0  0  0  0
 25 24  1  0  0  0  0
 26 25  2  0  0  0  0
 27 28  1  0  0  0  0
M  END
>  <MODEL>
6

>  <REMARK>
 VINA RESULT:      -7.7      2.283      3.436
  Name = 
  9 active torsions:
  status: ('A' for Active; 'I' for Inactive)
    1  A    between atoms: C_1  and  C_15
    2  A    between atoms: C_1  and  O_19
    3  A    between atoms: C_5  and  C_14
    4  A    between atoms: C_6  and  C_14
    5  A    between atoms: C_6  and  C_16
    6  A    between atoms: C_9  and  C_12
    7  A    between atoms: C_15  and  C_27
    8  A    between atoms: N_20  and  C_22
    9  A    between atoms: N_20  and  C_27
                            x       y       z     vdW  Elec       q    Type
                         _______ _______ _______ _____ _____    ______ ____

>  <TORSDO>
F 9

$$$$
=
 OpenBabel11072414093D

 28 29  0  0  0  0  0  0  0  0999 V2000
  161.9570  207.3820  151.9460 C   0  0  0  0  0  2  0  0  0  0  0  0
  161.4130  204.9800  151.9620 C   0  0  0  0  0  3  0  0  0  0  0  0
  161.0780  203.7800  151.3440 C   0  0  0  0  0  0  0  0  0  0  0  0
  161.8310  207.1400  148.8960 C   0  0  0  0  0  0  0  0  0  0  0  0
  161.2090  204.7980  149.2040 C   0  0  0  0  0  0  0  0  0  0  0  0
  161.3260  205.7390  146.9740 C   0  0  0  0  0  0  0  0  0  0  0  0
  161.0870  204.6570  147.8220 C   0  0  0  0  0  3  0  0  0  0  0  0
  161.7020  206.9660  147.5150 C   0  0  0  0  0  3  0  0  0  0  0  0
  161.5720  206.0500  149.7760 C   0  0  0  0  0  0  0  0  0  0  0  0
  161.6560  206.1230  151.1960 C   0  0  0  0  0  0  0  0  0  0  0  0
  160.8310  202.6210  152.1300 N   0  0  0  0  0  1  0  0  0  0  0  0
  162.2810  208.4870  149.3490 C   0  0  0  0  0  1  0  0  0  0  0  0
  160.9780  203.7170  149.9940 N   0  0  0  0  0  0  0  0  0  0  0  0
  161.1990  205.6050  145.5210 C   0  0  0  0  0  3  0  0  0  0  0  0
  160.2880  206.1990  144.8870 O   0  0  0  0  0  0  0  0  0  0  0  0
  160.7080  207.8820  152.6560 C   0  0  0  0  0  2  0  0  0  0  0  0
  160.9220  207.9190  154.1370 C   0  0  0  0  0  0  0  0  0  0  0  0
  161.4080  209.1160  154.7830 N   0  0  0  0  0  0  0  0  0  0  0  0
  160.6330  206.9000  154.8210 O   0  0  0  0  0  0  0  0  0  0  0  0
  160.2290  209.5810  156.8930 C   0  0  0  0  0  1  0  0  0  0  0  0
  161.5480  209.2160  156.2370 C   0  0  0  0  0  3  0  0  0  0  0  0
  162.6300  210.2110  156.6190 C   0  0  0  0  0  1  0  0  0  0  0  0
  161.6630  210.3310  154.0150 C   0  0  0  0  0  2  0  0  0  0  0  0
  160.4500  211.2510  154.0190 C   0  0  0  0  0  2  0  0  0  0  0  0
  159.9390  211.4720  152.6310 C   0  0  0  0  0  0  0  0  0  0  0  0
  160.7330  211.3560  151.6610 O   0  0  0  0  0  0  0  0  0  0  0  0
  158.6100  211.8240  152.3850 O   0  0  0  0  0  0  0  0  0  0  0  0
  158.2170  213.1580  152.0960 C   0  0  0  0  0  1  0  0  0  0  0  0
  1 16  1  0  0  0  0
  3  2  1  0  0  0  0
  3 11  1  0  0  0  0
  4 12  1  0  0  0  0
  4  9  1  0  0  0  0
  5  9  2  0  0  0  0
  5 13  1  0  0  0  0
  6  8  1  0  0  0  0
  6  7  2  0  0  0  0
  7  5  1  0  0  0  0
  8  4  2  0  0  0  0
  9 10  1  0  0  0  0
 10  1  1  0  0  0  0
 10  2  2  0  0  0  0
 13  3  2  0  0  0  0
 14  6  1  0  0  0  0
 15 14  2  0  0  0  0
 16 17  1  0  0  0  0
 17 18  1  0  0  0  0
 17 19  2  0  0  0  0
 18 21  1  0  0  0  0
 21 22  1  0  0  0  0
 21 20  1  0  0  0  0
 23 24  1  0  0  0  0
 23 18  1  0  0  0  0
 25 24  1  0  0  0  0
 26 25  2  0  0  0  0
 27 25  1  0  0  0  0
 28 27  1  0  0  0  0
M  END
>  <MODEL>
7

>  <REMARK>
 VINA RESULT:      -7.4      1.976      2.981
  Name = 
  9 active torsions:
  status: ('A' for Active; 'I' for Inactive)
    1  A    between atoms: C_1  and  C_15
    2  A    between atoms: C_1  and  O_19
    3  A    between atoms: C_5  and  C_14
    4  A    between atoms: C_6  and  C_14
    5  A    between atoms: C_6  and  C_16
    6  A    between atoms: C_9  and  C_12
    7  A    between atoms: C_15  and  C_27
    8  A    between atoms: N_20  and  C_22
    9  A    between atoms: N_20  and  C_27
                            x       y       z     vdW  Elec       q    Type
                         _______ _______ _______ _____ _____    ______ ____

>  <TORSDO>
F 9

$$$$
=
 OpenBabel11072414093D

 28 29  0  0  0  0  0  0  0  0999 V2000
  161.3870  207.3060  150.1890 C   0  0  0  0  0  2  0  0  0  0  0  0
  161.0700  205.1960  151.4170 C   0  0  0  0  0  3  0  0  0  0  0  0
  160.8860  203.8200  151.4900 C   0  0  0  0  0  0  0  0  0  0  0  0
  161.4630  205.5520  147.6810 C   0  0  0  0  0  0  0  0  0  0  0  0
  161.0450  203.6300  149.1300 C   0  0  0  0  0  0  0  0  0  0  0  0
  161.2040  203.3290  146.7300 C   0  0  0  0  0  0  0  0  0  0  0  0
  161.0180  202.8010  148.0090 C   0  0  0  0  0  3  0  0  0  0  0  0
  161.4320  204.6940  146.5770 C   0  0  0  0  0  3  0  0  0  0  0  0
  161.2550  205.0320  148.9910 C   0  0  0  0  0  0  0  0  0  0  0  0
  161.2500  205.8180  150.1780 C   0  0  0  0  0  0  0  0  0  0  0  0
  160.7020  203.1940  152.7540 N   0  0  0  0  0  1  0  0  0  0  0  0
  161.7570  206.9840  147.3910 C   0  0  0  0  0  1  0  0  0  0  0  0
  160.8710  203.0760  150.3580 N   0  0  0  0  0  0  0  0  0  0  0  0
  161.1750  202.4690  145.5450 C   0  0  0  0  0  3  0  0  0  0  0  0
  160.1490  202.3920  144.8190 O   0  0  0  0  0  0  0  0  0  0  0  0
  162.2300  207.7490  151.3760 C   0  0  0  0  0  2  0  0  0  0  0  0
  161.9070  209.1600  151.7560 C   0  0  0  0  0  0  0  0  0  0  0  0
  160.9730  209.4430  152.8210 N   0  0  0  0  0  0  0  0  0  0  0  0
  162.4940  210.1020  151.1580 O   0  0  0  0  0  0  0  0  0  0  0  0
  159.8510  210.8060  154.5360 C   0  0  0  0  0  1  0  0  0  0  0  0
  160.6980  210.8070  153.2750 C   0  0  0  0  0  3  0  0  0  0  0  0
  160.0320  211.6280  152.1840 C   0  0  0  0  0  1  0  0  0  0  0  0
  160.3520  208.3610  153.5800 C   0  0  0  0  0  2  0  0  0  0  0  0
  161.3440  207.7250  154.5450 C   0  0  0  0  0  2  0  0  0  0  0  0
  160.7730  207.6450  155.9250 C   0  0  0  0  0  0  0  0  0  0  0  0
  159.6760  207.0540  156.1000 O   0  0  0  0  0  0  0  0  0  0  0  0
  161.4150  208.2270  157.0200 O   0  0  0  0  0  0  0  0  0  0  0  0
  162.3560  209.2820  156.8770 C   0  0  0  0  0  1  0  0  0  0  0  0
  1 16  1  0  0  0  0
  2  3  1  0  0  0  0
  3 11  1  0  0  0  0
  4  9  1  0  0  0  0
  5 13  1  0  0  0  0
  6  7  2  0  0  0  0
  7  5  1  0  0  0  0
  8  6  1  0  0  0  0
  8  4  2  0  0  0  0
  9  5  2  0  0  0  0
  9 10  1  0  0  0  0
 10  1  1  0  0  0  0
 10  2  2  0  0  0  0
 12  4  1  0  0  0  0
 13  3  2  0  0  0  0
 14  6  1  0  0  0  0
 15 14  2  0  0  0  0
 16 17  1  0  0  0  0
 17 18  1  0  0  0  0
 18 21  1  0  0  0  0
 18 23  1  0  0  0  0
 19 17  2  0  0  0  0
 21 20  1  0  0  0  0
 22 21  1  0  0  0  0
 23 24  1  0  0  0  0
 24 25  1  0  0  0  0
 25 26  2  0  0  0  0
 25 27  1  0  0  0  0
 28 27  1  0  0  0  0
M  END
>  <MODEL>
8

>  <REMARK>
 VINA RESULT:      -7.3      1.982      4.154
  Name = 
  9 active torsions:
  status: ('A' for Active; 'I' for Inactive)
    1  A    between atoms: C_1  and  C_15
    2  A    between atoms: C_1  and  O_19
    3  A    between atoms: C_5  and  C_14
    4  A    between atoms: C_6  and  C_14
    5  A    between atoms: C_6  and  C_16
    6  A    between atoms: C_9  and  C_12
    7  A    between atoms: C_15  and  C_27
    8  A    between atoms: N_20  and  C_22
    9  A    between atoms: N_20  and  C_27
                            x       y       z     vdW  Elec       q    Type
                         _______ _______ _______ _____ _____    ______ ____

>  <TORSDO>
F 9

$$$$
=
 OpenBabel11072414093D

 28 29  0  0  0  0  0  0  0  0999 V2000
  161.3890  206.8960  149.4910 C   0  0  0  0  0  2  0  0  0  0  0  0
  161.0870  204.9990  151.0300 C   0  0  0  0  0  3  0  0  0  0  0  0
  160.8800  203.6530  151.3140 C   0  0  0  0  0  0  0  0  0  0  0  0
  161.3160  204.7900  147.2690 C   0  0  0  0  0  0  0  0  0  0  0  0
  160.9270  203.1150  149.0040 C   0  0  0  0  0  0  0  0  0  0  0  0
  160.9700  202.4590  146.6700 C   0  0  0  0  0  0  0  0  0  0  0  0
  160.8330  202.1300  148.0200 C   0  0  0  0  0  3  0  0  0  0  0  0
  161.2170  203.7810  146.3070 C   0  0  0  0  0  3  0  0  0  0  0  0
  161.1580  204.4740  148.6490 C   0  0  0  0  0  0  0  0  0  0  0  0
  161.2220  205.4260  149.7070 C   0  0  0  0  0  0  0  0  0  0  0  0
  160.7420  203.2250  152.6640 N   0  0  0  0  0  1  0  0  0  0  0  0
  161.6240  206.1560  146.7580 C   0  0  0  0  0  1  0  0  0  0  0  0
  160.7980  202.7510  150.3060 N   0  0  0  0  0  0  0  0  0  0  0  0
  160.8700  201.4360  145.6280 C   0  0  0  0  0  3  0  0  0  0  0  0
  159.8820  201.3920  144.8470 O   0  0  0  0  0  0  0  0  0  0  0  0
  162.2570  207.4950  150.5880 C   0  0  0  0  0  2  0  0  0  0  0  0
  161.4340  208.3320  151.5150 C   0  0  0  0  0  0  0  0  0  0  0  0
  161.5160  209.7730  151.4790 N   0  0  0  0  0  0  0  0  0  0  0  0
  160.6350  207.7610  152.3060 O   0  0  0  0  0  0  0  0  0  0  0  0
  160.3930  211.9580  151.6370 C   0  0  0  0  0  1  0  0  0  0  0  0
  160.6660  210.6250  152.3120 C   0  0  0  0  0  3  0  0  0  0  0  0
  161.2760  210.8370  153.6870 C   0  0  0  0  0  1  0  0  0  0  0  0
  162.3730  210.4500  150.5090 C   0  0  0  0  0  2  0  0  0  0  0  0
  161.8600  210.2540  149.0890 C   0  0  0  0  0  2  0  0  0  0  0  0
  161.9680  211.5200  148.2990 C   0  0  0  0  0  0  0  0  0  0  0  0
  163.0310  212.1910  148.3620 O   0  0  0  0  0  0  0  0  0  0  0  0
  160.9130  211.9870  147.5130 O   0  0  0  0  0  0  0  0  0  0  0  0
  161.1100  212.8870  146.4320 C   0  0  0  0  0  1  0  0  0  0  0  0
  1 10  1  0  0  0  0
  1 16  1  0  0  0  0
  2  3  1  0  0  0  0
  3 11  1  0  0  0  0
  4  9  1  0  0  0  0
  5 13  1  0  0  0  0
  6  7  2  0  0  0  0
  7  5  1  0  0  0  0
  8  6  1  0  0  0  0
  8  4  2  0  0  0  0
  9  5  2  0  0  0  0
  9 10  1  0  0  0  0
 10  2  2  0  0  0  0
 12  4  1  0  0  0  0
 13  3  2  0  0  0  0
 14  6  1  0  0  0  0
 15 14  2  0  0  0  0
 16 17  1  0  0  0  0
 17 19  2  0  0  0  0
 18 17  1  0  0  0  0
 18 21  1  0  0  0  0
 20 21  1  0  0  0  0
 21 22  1  0  0  0  0
 23 18  1  0  0  0  0
 24 23  1  0  0  0  0
 25 26  2  0  0  0  0
 25 24  1  0  0  0  0
 27 25  1  0  0  0  0
 28 27  1  0  0  0  0
M  END
>  <MODEL>
9

>  <REMARK>
 VINA RESULT:      -7.1      2.744      4.130
  Name = 
  9 active torsions:
  status: ('A' for Active; 'I' for Inactive)
    1  A    between atoms: C_1  and  C_15
    2  A    between atoms: C_1  and  O_19
    3  A    between atoms: C_5  and  C_14
    4  A    between atoms: C_6  and  C_14
    5  A    between atoms: C_6  and  C_16
    6  A    between atoms: C_9  and  C_12
    7  A    between atoms: C_15  and  C_27
    8  A    between atoms: N_20  and  C_22
    9  A    between atoms: N_20  and  C_27
                            x       y       z     vdW  Elec       q    Type
                         _______ _______ _______ _____ _____    ______ ____

>  <TORSDO>
F 9

$$$$
