=
 OpenBabel11072413253D

 41 44  0  0  1  0  0  0  0  0999 V2000
  161.1690  206.7890  153.4190 C   0  0  0  0  0  3  0  0  0  0  0  0
  161.4300  204.4930  150.5130 C   0  0  0  0  0  0  0  0  0  0  0  0
  161.4480  205.6750  151.2850 C   0  0  0  0  0  0  0  0  0  0  0  0
  160.7740  203.2380  152.4930 C   0  0  0  0  0  3  0  0  0  0  0  0
  161.0570  203.2810  151.1250 C   0  0  0  0  0  0  0  0  0  0  0  0
  162.0240  209.3200  150.7220 C   0  0  0  0  0  1  0  0  0  0  0  0
  160.9860  202.0820  150.3600 N   0  0  0  0  0  1  0  0  0  0  0  0
  161.4520  208.0130  152.8060 C   0  0  0  0  0  0  0  0  0  0  0  0
  161.1550  205.6170  152.6660 C   0  0  0  0  0  0  0  0  0  0  0  0
  161.7050  206.8840  150.7090 N   0  0  0  0  0  0  0  0  0  0  0  0
  160.8280  204.4010  153.2630 C   0  0  0  0  0  3  0  0  0  0  0  0
  161.7190  208.0400  151.4250 C   0  0  0  0  0  0  0  0  0  0  0  0
  159.4870  208.8610  154.9850 C   0  0  0  0  0  1  0  0  0  0  0  0
  160.2810  209.8530  154.1420 C   0  0  2  0  0  0  0  0  0  0  0  0
  162.7110  209.8210  154.0120 C   0  0  0  0  0  2  0  0  0  0  0  0
  162.3210  211.0180  154.8560 C   0  0  1  0  0  3  0  0  0  0  0  0
  161.4680  209.2120  153.5920 N   0  0  0  0  0  0  0  0  0  0  0  0
  160.8090  210.9640  155.0410 C   0  0  0  0  0  2  0  0  0  0  0  0
  163.5050  210.8800  157.1940 N   0  0  0  0  0  0  0  0  0  0  0  0
  162.9820  210.9410  156.1620 C   0  0  0  0  0  0  0  0  0  0  0  0
  159.4270  210.4320  153.0040 C   0  0  0  0  0  2  0  0  0  0  0  0
  157.6040  211.8140  153.7840 N   0  0  0  0  0  0  0  0  0  0  0  0
  158.7970  211.7560  153.3270 C   0  0  0  0  0  3  0  0  0  0  0  0
  157.0070  213.0840  154.0970 C   0  0  0  0  0  2  0  0  0  0  0  0
  155.7800  212.8820  154.9760 C   0  0  0  0  0  2  0  0  0  0  0  0
  155.3780  211.2110  156.6350 O   0  0  0  0  0  0  0  0  0  0  0  0
  157.3310  212.3840  156.8650 O   0  0  0  0  0  1  0  0  0  0  0  0
  156.1340  212.1250  156.2130 C   0  0  0  0  0  0  0  0  0  0  0  0
  160.0110  205.9690  148.4380 O   0  0  0  0  0  0  0  0  0  0  0  0
  160.8850  205.1220  148.1100 C   0  0  0  0  0  0  0  0  0  0  0  0
  161.7100  204.5060  149.1060 N   0  0  0  0  0  2  0  0  0  0  0  0
  161.0760  204.7970  146.6620 C   0  0  2  0  0  3  0  0  0  0  0  0
  160.3930  201.0630  145.4590 N   0  0  0  0  0  0  0  0  0  0  0  0
  160.1980  202.6480  145.0110 S   0  0  0  0  0  0  0  0  0  0  0  0
  160.8520  203.3420  146.3820 C   0  0  0  0  0  0  0  0  0  0  0  0
  161.2340  202.2780  147.1960 C   0  0  0  0  0  3  0  0  0  0  0  0
  160.9640  201.0470  146.6630 N   0  0  0  0  0  0  0  0  0  0  0  0
  163.4510  204.9420  146.7450 O   0  0  0  0  0  0  0  0  0  0  0  0
  162.3930  205.2800  146.1430 C   0  0  0  0  0  0  0  0  0  0  0  0
  161.7930  205.7600  143.8600 N   0  0  0  0  0  1  0  0  0  0  0  0
  162.4480  206.1040  145.0190 O   0  0  0  0  0  0  0  0  0  0  0  0
  2  5  2  0  0  0  0
  2  3  1  0  0  0  0
  3  9  1  0  0  0  0
  4 11  2  0  0  0  0
  5  4  1  0  0  0  0
  6 12  1  0  0  0  0
  7  5  1  0  0  0  0
  8  1  1  0  0  0  0
  8 17  1  0  0  0  0
  9 11  1  0  0  0  0
  9  1  2  0  0  0  0
 10  3  2  0  0  0  0
 10 12  1  0  0  0  0
 12  8  2  0  0  0  0
 14 13  1  1  0  0  0
 14 18  1  0  0  0  0
 15 16  1  0  0  0  0
 16 18  1  0  0  0  0
 16 20  1  1  0  0  0
 17 15  1  0  0  0  0
 17 14  1  0  0  0  0
 20 19  3  0  0  0  0
 21 23  1  0  0  0  0
 21 14  1  0  0  0  0
 22 24  1  0  0  0  0
 23 22  2  0  0  0  0
 24 25  1  0  0  0  0
 25 28  1  0  0  0  0
 28 26  2  0  0  0  0
 28 27  1  0  0  0  0
 30 29  2  0  0  0  0
 30 31  1  0  0  0  0
 31  2  1  0  0  0  0
 32 39  1  1  0  0  0
 32 30  1  0  0  0  0
 33 37  2  0  0  0  0
 34 33  1  0  0  0  0
 34 35  1  0  0  0  0
 35 32  1  0  0  0  0
 35 36  2  0  0  0  0
 37 36  1  0  0  0  0
 39 38  2  0  0  0  0
 40 41  1  0  0  0  0
 41 39  1  0  0  0  0
M  END
>  <MODEL>
1

>  <REMARK>
 VINA RESULT:      -5.7      0.000      0.000
  Name = 
  12 active torsions:
  status: ('A' for Active; 'I' for Inactive)
    1  A    between atoms: C_4  and  N_27
    2  A    between atoms: C_9  and  C_11
    3  A    between atoms: C_9  and  C_29
    4  A    between atoms: N_17  and  C_30
    5  A    between atoms: C_19  and  C_36
    6  A    between atoms: O_20  and  C_31
    7  A    between atoms: C_22  and  C_30
    8  A    between atoms: C_22  and  C_40
    9  A    between atoms: C_23  and  N_26
   10  A    between atoms: C_24  and  C_35
   11  A    between atoms: C_25  and  C_36
   12  A    between atoms: C_31  and  C_36
                            x       y       z     vdW  Elec       q    Type
                         _______ _______ _______ _____ _____    ______ ____

>  <TORSDO>
F 12

$$$$
=
 OpenBabel11072413253D

 41 44  0  0  1  0  0  0  0  0999 V2000
  161.1320  206.8520  153.6200 C   0  0  0  0  0  3  0  0  0  0  0  0
  161.4150  204.8030  150.5370 C   0  0  0  0  0  0  0  0  0  0  0  0
  161.4160  205.9190  151.4020 C   0  0  0  0  0  0  0  0  0  0  0  0
  160.7990  203.3800  152.4140 C   0  0  0  0  0  3  0  0  0  0  0  0
  161.0700  203.5390  151.0520 C   0  0  0  0  0  0  0  0  0  0  0  0
  161.9170  209.6080  151.1310 C   0  0  0  0  0  1  0  0  0  0  0  0
  161.0160  202.4040  150.1940 N   0  0  0  0  0  1  0  0  0  0  0  0
  161.3860  208.1270  153.1060 C   0  0  0  0  0  0  0  0  0  0  0  0
  161.1350  205.7440  152.7750 C   0  0  0  0  0  0  0  0  0  0  0  0
  161.6440  207.1750  150.9240 N   0  0  0  0  0  0  0  0  0  0  0  0
  160.8360  204.4780  153.2750 C   0  0  0  0  0  3  0  0  0  0  0  0
  161.6420  208.2700  151.7310 C   0  0  0  0  0  0  0  0  0  0  0  0
  159.8190  208.4900  155.7030 C   0  0  0  0  0  1  0  0  0  0  0  0
  160.2570  209.6540  154.8200 C   0  0  2  0  0  0  0  0  0  0  0  0
  162.5810  210.0410  154.2090 C   0  0  0  0  0  2  0  0  0  0  0  0
  162.2010  211.0990  155.2260 C   0  0  1  0  0  3  0  0  0  0  0  0
  161.3850  209.2590  153.9860 N   0  0  0  0  0  0  0  0  0  0  0  0
  160.7880  210.7780  155.7010 C   0  0  0  0  0  2  0  0  0  0  0  0
  163.8580  211.0140  157.2580 N   0  0  0  0  0  0  0  0  0  0  0  0
  163.1260  211.0520  156.3610 C   0  0  0  0  0  0  0  0  0  0  0  0
  159.1040  210.1520  153.9350 C   0  0  0  0  0  2  0  0  0  0  0  0
  158.2670  212.3600  153.4210 N   0  0  0  0  0  0  0  0  0  0  0  0
  159.2690  211.5650  153.4570 C   0  0  0  0  0  3  0  0  0  0  0  0
  158.4310  213.7150  152.9680 C   0  0  0  0  0  2  0  0  0  0  0  0
  157.6420  213.9340  151.6840 C   0  0  0  0  0  2  0  0  0  0  0  0
  159.7430  213.6170  150.5940 O   0  0  0  0  0  1  0  0  0  0  0  0
  157.8930  213.3680  149.2680 O   0  0  0  0  0  0  0  0  0  0  0  0
  158.4900  213.6540  150.4870 C   0  0  0  0  0  0  0  0  0  0  0  0
  159.7720  206.1450  148.5370 O   0  0  0  0  0  0  0  0  0  0  0  0
  160.7670  205.4650  148.1690 C   0  0  0  0  0  0  0  0  0  0  0  0
  161.6830  204.9350  149.1340 N   0  0  0  0  0  2  0  0  0  0  0  0
  161.0010  205.2520  146.7070 C   0  0  2  0  0  3  0  0  0  0  0  0
  160.2860  201.6380  145.1950 N   0  0  0  0  0  0  0  0  0  0  0  0
  160.1000  203.2560  144.8840 S   0  0  0  0  0  0  0  0  0  0  0  0
  160.7660  203.8280  146.3050 C   0  0  0  0  0  0  0  0  0  0  0  0
  161.1440  202.6950  147.0240 C   0  0  0  0  0  3  0  0  0  0  0  0
  160.8630  201.5160  146.3900 N   0  0  0  0  0  0  0  0  0  0  0  0
  162.7080  206.9100  146.6130 O   0  0  0  0  0  0  0  0  0  0  0  0
  162.3410  205.7510  146.2700 C   0  0  0  0  0  0  0  0  0  0  0  0
  164.2160  204.2550  146.0360 N   0  0  0  0  0  1  0  0  0  0  0  0
  163.1680  204.9510  145.4800 O   0  0  0  0  0  0  0  0  0  0  0  0
  2  5  2  0  0  0  0
  2  3  1  0  0  0  0
  3  9  1  0  0  0  0
  4 11  2  0  0  0  0
  5  4  1  0  0  0  0
  6 12  1  0  0  0  0
  7  5  1  0  0  0  0
  8  1  1  0  0  0  0
  8 17  1  0  0  0  0
  9 11  1  0  0  0  0
  9  1  2  0  0  0  0
 10  3  2  0  0  0  0
 10 12  1  0  0  0  0
 12  8  2  0  0  0  0
 14 18  1  0  0  0  0
 14 13  1  1  0  0  0
 15 16  1  0  0  0  0
 16 18  1  0  0  0  0
 16 20  1  1  0  0  0
 17 15  1  0  0  0  0
 17 14  1  0  0  0  0
 20 19  3  0  0  0  0
 21 14  1  0  0  0  0
 22 23  2  0  0  0  0
 23 21  1  0  0  0  0
 24 22  1  0  0  0  0
 25 24  1  0  0  0  0
 27 28  2  0  0  0  0
 28 26  1  0  0  0  0
 28 25  1  0  0  0  0
 30 29  2  0  0  0  0
 30 31  1  0  0  0  0
 31  2  1  0  0  0  0
 32 39  1  1  0  0  0
 32 30  1  0  0  0  0
 33 37  2  0  0  0  0
 34 33  1  0  0  0  0
 34 35  1  0  0  0  0
 35 32  1  0  0  0  0
 35 36  2  0  0  0  0
 37 36  1  0  0  0  0
 39 38  2  0  0  0  0
 41 40  1  0  0  0  0
 41 39  1  0  0  0  0
M  END
>  <MODEL>
2

>  <REMARK>
 VINA RESULT:      -5.6      2.012      2.251
  Name = 
  12 active torsions:
  status: ('A' for Active; 'I' for Inactive)
    1  A    between atoms: C_4  and  N_27
    2  A    between atoms: C_9  and  C_11
    3  A    between atoms: C_9  and  C_29
    4  A    between atoms: N_17  and  C_30
    5  A    between atoms: C_19  and  C_36
    6  A    between atoms: O_20  and  C_31
    7  A    between atoms: C_22  and  C_30
    8  A    between atoms: C_22  and  C_40
    9  A    between atoms: C_23  and  N_26
   10  A    between atoms: C_24  and  C_35
   11  A    between atoms: C_25  and  C_36
   12  A    between atoms: C_31  and  C_36
                            x       y       z     vdW  Elec       q    Type
                         _______ _______ _______ _____ _____    ______ ____

>  <TORSDO>
F 12

$$$$
=
 OpenBabel11072413253D

 41 44  0  0  1  0  0  0  0  0999 V2000
  160.9740  210.2730  152.8540 C   0  0  0  0  0  3  0  0  0  0  0  0
  161.9230  207.9460  150.1220 C   0  0  0  0  0  0  0  0  0  0  0  0
  161.5410  208.4230  151.3940 C   0  0  0  0  0  0  0  0  0  0  0  0
  161.9640  210.2370  149.2990 C   0  0  0  0  0  3  0  0  0  0  0  0
  162.1660  208.8700  149.0870 C   0  0  0  0  0  0  0  0  0  0  0  0
  160.8840  207.0040  154.7820 C   0  0  0  0  0  1  0  0  0  0  0  0
  162.5980  208.4190  147.8070 N   0  0  0  0  0  1  0  0  0  0  0  0
  160.8160  209.3740  153.9140 C   0  0  0  0  0  0  0  0  0  0  0  0
  161.3460  209.8080  151.5940 C   0  0  0  0  0  0  0  0  0  0  0  0
  161.3960  207.5710  152.4470 N   0  0  0  0  0  0  0  0  0  0  0  0
  161.5500  210.7050  150.5470 C   0  0  0  0  0  3  0  0  0  0  0  0
  161.0370  208.0040  153.6860 C   0  0  0  0  0  0  0  0  0  0  0  0
  161.6240  211.9970  155.2540 C   0  0  0  0  0  1  0  0  0  0  0  0
  161.2430  210.7420  156.0320 C   0  0  2  0  0  0  0  0  0  0  0  0
  159.1090  209.6090  155.7410 C   0  0  0  0  0  2  0  0  0  0  0  0
  159.0620  210.3200  157.0800 C   0  0  1  0  0  3  0  0  0  0  0  0
  160.4280  209.8620  155.2050 N   0  0  0  0  0  0  0  0  0  0  0  0
  160.3480  211.1310  157.2020 C   0  0  0  0  0  2  0  0  0  0  0  0
  156.9920  211.9300  157.1590 N   0  0  0  0  0  0  0  0  0  0  0  0
  157.9060  211.2190  157.1240 C   0  0  0  0  0  0  0  0  0  0  0  0
  162.4880  209.9880  156.5250 C   0  0  0  0  0  2  0  0  0  0  0  0
  164.5460  211.2540  156.5870 N   0  0  0  0  0  0  0  0  0  0  0  0
  163.4990  210.8620  157.2090 C   0  0  0  0  0  3  0  0  0  0  0  0
  165.5090  212.0950  157.2450 C   0  0  0  0  0  2  0  0  0  0  0  0
  166.2920  212.8980  156.2140 C   0  0  0  0  0  2  0  0  0  0  0  0
  168.3940  211.7730  156.0830 O   0  0  0  0  0  0  0  0  0  0  0  0
  168.4390  213.8450  157.0580 O   0  0  0  0  0  1  0  0  0  0  0  0
  167.7600  212.7910  156.4630 C   0  0  0  0  0  0  0  0  0  0  0  0
  160.0300  206.0180  149.0280 O   0  0  0  0  0  0  0  0  0  0  0  0
  161.1320  205.6150  149.4850 C   0  0  0  0  0  0  0  0  0  0  0  0
  162.1440  206.5500  149.8740 N   0  0  0  0  0  2  0  0  0  0  0  0
  161.3850  204.1430  149.5790 C   0  0  2  0  0  3  0  0  0  0  0  0
  161.0570  202.0320  146.2180 N   0  0  0  0  0  0  0  0  0  0  0  0
  160.8910  201.9210  147.8650 S   0  0  0  0  0  0  0  0  0  0  0  0
  161.3550  203.4830  148.2340 C   0  0  0  0  0  0  0  0  0  0  0  0
  161.6360  204.0900  147.0120 C   0  0  0  0  0  3  0  0  0  0  0  0
  161.4680  203.2660  145.9320 N   0  0  0  0  0  0  0  0  0  0  0  0
  159.7120  202.5510  150.1590 O   0  0  0  0  0  0  0  0  0  0  0  0
  160.4740  203.4750  150.5590 C   0  0  0  0  0  0  0  0  0  0  0  0
  161.6030  204.3260  152.5110 N   0  0  0  0  0  1  0  0  0  0  0  0
  160.4570  203.8790  151.8950 O   0  0  0  0  0  0  0  0  0  0  0  0
  1  8  1  0  0  0  0
  2  3  1  0  0  0  0
  3  9  1  0  0  0  0
  3 10  2  0  0  0  0
  4 11  2  0  0  0  0
  5  4  1  0  0  0  0
  5  2  2  0  0  0  0
  7  5  1  0  0  0  0
  8 17  1  0  0  0  0
  9  1  2  0  0  0  0
 10 12  1  0  0  0  0
 11  9  1  0  0  0  0
 12  8  2  0  0  0  0
 12  6  1  0  0  0  0
 14 13  1  6  0  0  0
 14 21  1  0  0  0  0
 14 18  1  0  0  0  0
 15 16  1  0  0  0  0
 16 20  1  6  0  0  0
 16 18  1  0  0  0  0
 17 15  1  0  0  0  0
 17 14  1  0  0  0  0
 20 19  3  0  0  0  0
 21 23  1  0  0  0  0
 22 23  2  0  0  0  0
 22 24  1  0  0  0  0
 25 28  1  0  0  0  0
 25 24  1  0  0  0  0
 26 28  2  0  0  0  0
 28 27  1  0  0  0  0
 29 30  2  0  0  0  0
 30 31  1  0  0  0  0
 31  2  1  0  0  0  0
 32 30  1  6  0  0  0
 32 39  1  0  0  0  0
 33 34  1  0  0  0  0
 34 35  1  0  0  0  0
 35 32  1  0  0  0  0
 36 35  2  0  0  0  0
 37 33  2  0  0  0  0
 37 36  1  0  0  0  0
 38 39  2  0  0  0  0
 39 41  1  0  0  0  0
 41 40  1  0  0  0  0
M  END
>  <MODEL>
3

>  <REMARK>
 VINA RESULT:      -5.3      3.267      5.815
  Name = 
  12 active torsions:
  status: ('A' for Active; 'I' for Inactive)
    1  A    between atoms: C_4  and  N_27
    2  A    between atoms: C_9  and  C_11
    3  A    between atoms: C_9  and  C_29
    4  A    between atoms: N_17  and  C_30
    5  A    between atoms: C_19  and  C_36
    6  A    between atoms: O_20  and  C_31
    7  A    between atoms: C_22  and  C_30
    8  A    between atoms: C_22  and  C_40
    9  A    between atoms: C_23  and  N_26
   10  A    between atoms: C_24  and  C_35
   11  A    between atoms: C_25  and  C_36
   12  A    between atoms: C_31  and  C_36
                            x       y       z     vdW  Elec       q    Type
                         _______ _______ _______ _____ _____    ______ ____

>  <TORSDO>
F 12

$$$$
=
 OpenBabel11072413253D

 41 44  0  0  1  0  0  0  0  0999 V2000
  161.5020  206.9600  148.0500 C   0  0  0  0  0  3  0  0  0  0  0  0
  161.8090  209.2800  150.9320 C   0  0  0  0  0  0  0  0  0  0  0  0
  161.6490  208.0910  150.1890 C   0  0  0  0  0  0  0  0  0  0  0  0
  161.9410  210.5360  148.8500 C   0  0  0  0  0  3  0  0  0  0  0  0
  161.9200  210.5060  150.2470 C   0  0  0  0  0  0  0  0  0  0  0  0
  161.0570  204.4720  150.8830 C   0  0  0  0  0  1  0  0  0  0  0  0
  162.0370  211.7260  150.9720 N   0  0  0  0  0  1  0  0  0  0  0  0
  161.3020  205.7470  148.7170 C   0  0  0  0  0  0  0  0  0  0  0  0
  161.6670  208.1380  148.7770 C   0  0  0  0  0  0  0  0  0  0  0  0
  161.4360  206.8980  150.8130 N   0  0  0  0  0  0  0  0  0  0  0  0
  161.8200  209.3550  148.1160 C   0  0  0  0  0  3  0  0  0  0  0  0
  161.2690  205.7380  150.1230 C   0  0  0  0  0  0  0  0  0  0  0  0
  163.1210  204.6380  146.5290 C   0  0  0  0  0  1  0  0  0  0  0  0
  161.6260  204.3490  146.6000 C   0  0  2  0  0  0  0  0  0  0  0  0
  160.5690  203.3500  148.5530 C   0  0  0  0  0  2  0  0  0  0  0  0
  160.6120  202.2880  147.4710 C   0  0  1  0  0  3  0  0  0  0  0  0
  161.1380  204.5400  147.9590 N   0  0  0  0  0  0  0  0  0  0  0  0
  161.3860  202.8750  146.2960 C   0  0  0  0  0  2  0  0  0  0  0  0
  161.8490  200.1560  148.3680 N   0  0  0  0  0  0  0  0  0  0  0  0
  161.3030  201.0970  147.9720 C   0  0  0  0  0  0  0  0  0  0  0  0
  160.8350  205.2420  145.6320 C   0  0  0  0  0  2  0  0  0  0  0  0
  161.4530  206.0430  143.4380 N   0  0  0  0  0  0  0  0  0  0  0  0
  161.1910  205.0410  144.1880 C   0  0  0  0  0  3  0  0  0  0  0  0
  161.7990  205.8460  142.0560 C   0  0  0  0  0  2  0  0  0  0  0  0
  161.8910  207.1890  141.3440 C   0  0  0  0  0  2  0  0  0  0  0  0
  162.4920  206.0350  139.3410 O   0  0  0  0  0  1  0  0  0  0  0  0
  161.1450  207.8660  139.0620 O   0  0  0  0  0  0  0  0  0  0  0  0
  161.8810  207.0040  139.8620 C   0  0  0  0  0  0  0  0  0  0  0  0
  159.5940  210.0390  152.6680 O   0  0  0  0  0  0  0  0  0  0  0  0
  160.7280  209.8150  153.1700 C   0  0  0  0  0  0  0  0  0  0  0  0
  161.7870  209.2830  152.3660 N   0  0  0  0  0  2  0  0  0  0  0  0
  160.9420  210.0770  154.6270 C   0  0  2  0  0  3  0  0  0  0  0  0
  160.8630  207.0040  157.1600 N   0  0  0  0  0  0  0  0  0  0  0  0
  161.4620  208.5390  156.9690 S   0  0  0  0  0  0  0  0  0  0  0  0
  160.8500  208.8210  155.4400 C   0  0  0  0  0  0  0  0  0  0  0  0
  160.1530  207.6650  155.0960 C   0  0  0  0  0  3  0  0  0  0  0  0
  160.1850  206.6910  156.0570 N   0  0  0  0  0  0  0  0  0  0  0  0
  160.3390  212.3620  154.9190 O   0  0  0  0  0  0  0  0  0  0  0  0
  160.0440  211.1550  155.1460 C   0  0  0  0  0  0  0  0  0  0  0  0
  157.6490  211.0970  155.3950 N   0  0  0  0  0  1  0  0  0  0  0  0
  158.9060  210.8300  155.8850 O   0  0  0  0  0  0  0  0  0  0  0  0
  1  8  2  0  0  0  0
  1  9  1  0  0  0  0
  2 31  1  0  0  0  0
  3 10  1  0  0  0  0
  3  2  2  0  0  0  0
  4  5  2  0  0  0  0
  5  2  1  0  0  0  0
  5  7  1  0  0  0  0
  8 12  1  0  0  0  0
  9  3  1  0  0  0  0
 11  9  2  0  0  0  0
 11  4  1  0  0  0  0
 12 10  2  0  0  0  0
 12  6  1  0  0  0  0
 14 13  1  6  0  0  0
 14 17  1  0  0  0  0
 16 20  1  1  0  0  0
 16 15  1  0  0  0  0
 17 15  1  0  0  0  0
 17  8  1  0  0  0  0
 18 14  1  0  0  0  0
 18 16  1  0  0  0  0
 20 19  3  0  0  0  0
 21 14  1  0  0  0  0
 22 23  2  0  0  0  0
 23 21  1  0  0  0  0
 24 22  1  0  0  0  0
 25 24  1  0  0  0  0
 26 28  1  0  0  0  0
 27 28  2  0  0  0  0
 28 25  1  0  0  0  0
 29 30  2  0  0  0  0
 31 30  1  0  0  0  0
 32 30  1  6  0  0  0
 32 39  1  0  0  0  0
 32 35  1  0  0  0  0
 34 33  1  0  0  0  0
 35 34  1  0  0  0  0
 36 35  2  0  0  0  0
 36 37  1  0  0  0  0
 37 33  2  0  0  0  0
 38 39  2  0  0  0  0
 39 41  1  0  0  0  0
 40 41  1  0  0  0  0
M  END
>  <MODEL>
4

>  <REMARK>
 VINA RESULT:      -5.3      3.459     10.746
  Name = 
  12 active torsions:
  status: ('A' for Active; 'I' for Inactive)
    1  A    between atoms: C_4  and  N_27
    2  A    between atoms: C_9  and  C_11
    3  A    between atoms: C_9  and  C_29
    4  A    between atoms: N_17  and  C_30
    5  A    between atoms: C_19  and  C_36
    6  A    between atoms: O_20  and  C_31
    7  A    between atoms: C_22  and  C_30
    8  A    between atoms: C_22  and  C_40
    9  A    between atoms: C_23  and  N_26
   10  A    between atoms: C_24  and  C_35
   11  A    between atoms: C_25  and  C_36
   12  A    between atoms: C_31  and  C_36
                            x       y       z     vdW  Elec       q    Type
                         _______ _______ _______ _____ _____    ______ ____

>  <TORSDO>
F 12

$$$$
=
 OpenBabel11072413253D

 41 44  0  0  1  0  0  0  0  0999 V2000
  161.6110  206.9790  148.2060 C   0  0  0  0  0  3  0  0  0  0  0  0
  161.6150  209.0400  151.2940 C   0  0  0  0  0  0  0  0  0  0  0  0
  161.5070  207.9250  150.4350 C   0  0  0  0  0  0  0  0  0  0  0  0
  162.0970  210.4480  149.3670 C   0  0  0  0  0  3  0  0  0  0  0  0
  161.8780  210.3090  150.7400 C   0  0  0  0  0  0  0  0  0  0  0  0
  160.6570  204.3030  150.7250 C   0  0  0  0  0  1  0  0  0  0  0  0
  161.9470  211.4580  151.5770 N   0  0  0  0  0  1  0  0  0  0  0  0
  161.2630  205.7300  148.7320 C   0  0  0  0  0  0  0  0  0  0  0  0
  161.7260  208.0830  149.0480 C   0  0  0  0  0  0  0  0  0  0  0  0
  161.1530  206.7010  150.9180 N   0  0  0  0  0  0  0  0  0  0  0  0
  162.0260  209.3380  148.5230 C   0  0  0  0  0  3  0  0  0  0  0  0
  161.0320  205.6110  150.1140 C   0  0  0  0  0  0  0  0  0  0  0  0
  163.2400  204.8040  146.5950 C   0  0  0  0  0  1  0  0  0  0  0  0
  161.7420  204.5260  146.5260 C   0  0  2  0  0  0  0  0  0  0  0  0
  160.5350  203.3660  148.2940 C   0  0  0  0  0  2  0  0  0  0  0  0
  160.6550  202.4070  147.1260 C   0  0  1  0  0  3  0  0  0  0  0  0
  161.1520  204.5990  147.8570 N   0  0  0  0  0  0  0  0  0  0  0  0
  161.5190  203.0890  146.0710 C   0  0  0  0  0  2  0  0  0  0  0  0
  161.8100  200.1870  147.9140 N   0  0  0  0  0  0  0  0  0  0  0  0
  161.3010  201.1670  147.5670 C   0  0  0  0  0  0  0  0  0  0  0  0
  161.0310  205.5120  145.5870 C   0  0  0  0  0  2  0  0  0  0  0  0
  161.4400  206.1310  143.2870 N   0  0  0  0  0  0  0  0  0  0  0  0
  161.2030  205.1980  144.1300 C   0  0  0  0  0  3  0  0  0  0  0  0
  161.6100  205.8240  141.8920 C   0  0  0  0  0  2  0  0  0  0  0  0
  162.3320  206.9670  141.1910 C   0  0  0  0  0  2  0  0  0  0  0  0
  162.4080  206.2000  138.9300 O   0  0  0  0  0  0  0  0  0  0  0  0
  161.0200  207.9770  139.3260 O   0  0  0  0  0  1  0  0  0  0  0  0
  161.9440  207.0340  139.7510 C   0  0  0  0  0  0  0  0  0  0  0  0
  159.4070  210.1640  152.8300 O   0  0  0  0  0  0  0  0  0  0  0  0
  160.3770  209.6330  153.4340 C   0  0  0  0  0  0  0  0  0  0  0  0
  161.3900  208.9300  152.7070 N   0  0  0  0  0  2  0  0  0  0  0  0
  160.4360  209.7150  154.9270 C   0  0  2  0  0  3  0  0  0  0  0  0
  158.4390  212.9100  156.2160 N   0  0  0  0  0  0  0  0  0  0  0  0
  159.9420  212.4030  155.7300 S   0  0  0  0  0  0  0  0  0  0  0  0
  159.5540  210.8000  155.4630 C   0  0  0  0  0  0  0  0  0  0  0  0
  158.1980  210.6880  155.7640 C   0  0  0  0  0  3  0  0  0  0  0  0
  157.6220  211.8590  156.1770 N   0  0  0  0  0  0  0  0  0  0  0  0
  162.5990  210.7100  154.9520 O   0  0  0  0  0  0  0  0  0  0  0  0
  161.8400  209.8230  155.4320 C   0  0  0  0  0  0  0  0  0  0  0  0
  161.4990  207.9470  156.9050 N   0  0  0  0  0  1  0  0  0  0  0  0
  162.3070  208.9440  156.4100 O   0  0  0  0  0  0  0  0  0  0  0  0
  1  8  2  0  0  0  0
  1  9  1  0  0  0  0
  2 31  1  0  0  0  0
  3 10  1  0  0  0  0
  3  2  2  0  0  0  0
  4  5  2  0  0  0  0
  5  2  1  0  0  0  0
  5  7  1  0  0  0  0
  8 12  1  0  0  0  0
  9  3  1  0  0  0  0
 11  9  2  0  0  0  0
 11  4  1  0  0  0  0
 12  6  1  0  0  0  0
 12 10  2  0  0  0  0
 14 13  1  1  0  0  0
 14 17  1  0  0  0  0
 16 20  1  1  0  0  0
 16 15  1  0  0  0  0
 17 15  1  0  0  0  0
 17  8  1  0  0  0  0
 18 14  1  0  0  0  0
 18 16  1  0  0  0  0
 20 19  3  0  0  0  0
 21 14  1  0  0  0  0
 22 23  2  0  0  0  0
 23 21  1  0  0  0  0
 24 22  1  0  0  0  0
 25 24  1  0  0  0  0
 26 28  2  0  0  0  0
 27 28  1  0  0  0  0
 28 25  1  0  0  0  0
 29 30  2  0  0  0  0
 31 30  1  0  0  0  0
 32 30  1  6  0  0  0
 32 39  1  0  0  0  0
 32 35  1  0  0  0  0
 34 33  1  0  0  0  0
 35 34  1  0  0  0  0
 35 36  2  0  0  0  0
 36 37  1  0  0  0  0
 37 33  2  0  0  0  0
 38 39  2  0  0  0  0
 39 41  1  0  0  0  0
 41 40  1  0  0  0  0
M  END
>  <MODEL>
5

>  <REMARK>
 VINA RESULT:      -5.2      3.700     11.042
  Name = 
  12 active torsions:
  status: ('A' for Active; 'I' for Inactive)
    1  A    between atoms: C_4  and  N_27
    2  A    between atoms: C_9  and  C_11
    3  A    between atoms: C_9  and  C_29
    4  A    between atoms: N_17  and  C_30
    5  A    between atoms: C_19  and  C_36
    6  A    between atoms: O_20  and  C_31
    7  A    between atoms: C_22  and  C_30
    8  A    between atoms: C_22  and  C_40
    9  A    between atoms: C_23  and  N_26
   10  A    between atoms: C_24  and  C_35
   11  A    between atoms: C_25  and  C_36
   12  A    between atoms: C_31  and  C_36
                            x       y       z     vdW  Elec       q    Type
                         _______ _______ _______ _____ _____    ______ ____

>  <TORSDO>
F 12

$$$$
=
 OpenBabel11072413253D

 41 44  0  0  1  0  0  0  0  0999 V2000
  161.2070  204.2930  150.0300 C   0  0  0  0  0  3  0  0  0  0  0  0
  160.8530  207.3920  152.0420 C   0  0  0  0  0  0  0  0  0  0  0  0
  160.8810  206.5170  150.9350 C   0  0  0  0  0  0  0  0  0  0  0  0
  161.4640  205.5360  153.4950 C   0  0  0  0  0  3  0  0  0  0  0  0
  161.1810  206.8940  153.3180 C   0  0  0  0  0  0  0  0  0  0  0  0
  160.4440  206.7460  147.2360 C   0  0  0  0  0  1  0  0  0  0  0  0
  161.2040  207.7630  154.4450 N   0  0  0  0  0  1  0  0  0  0  0  0
  160.9700  204.7920  148.7450 C   0  0  0  0  0  0  0  0  0  0  0  0
  161.1740  205.1490  151.1290 C   0  0  0  0  0  0  0  0  0  0  0  0
  160.6710  206.9800  149.6700 N   0  0  0  0  0  0  0  0  0  0  0  0
  161.4550  204.6640  152.4050 C   0  0  0  0  0  3  0  0  0  0  0  0
  160.7020  206.1630  148.5840 C   0  0  0  0  0  0  0  0  0  0  0  0
  163.2590  204.3230  146.7770 C   0  0  0  0  0  1  0  0  0  0  0  0
  161.7910  204.1200  146.4180 C   0  0  2  0  0  0  0  0  0  0  0  0
  160.3270  202.6210  147.6570 C   0  0  0  0  0  2  0  0  0  0  0  0
  160.6310  201.9570  146.3280 C   0  0  1  0  0  3  0  0  0  0  0  0
  161.0010  203.9010  147.6220 N   0  0  0  0  0  0  0  0  0  0  0  0
  161.6470  202.8370  145.6080 C   0  0  0  0  0  2  0  0  0  0  0  0
  161.6580  199.5770  146.7380 N   0  0  0  0  0  0  0  0  0  0  0  0
  161.2040  200.6280  146.5580 C   0  0  0  0  0  0  0  0  0  0  0  0
  161.2310  205.3210  145.6400 C   0  0  0  0  0  2  0  0  0  0  0  0
  161.6130  206.0380  143.3640 N   0  0  0  0  0  0  0  0  0  0  0  0
  161.1960  205.1220  144.1530 C   0  0  0  0  0  3  0  0  0  0  0  0
  161.5820  205.8400  141.9400 C   0  0  0  0  0  2  0  0  0  0  0  0
  162.3450  206.9580  141.2410 C   0  0  0  0  0  2  0  0  0  0  0  0
  161.1770  208.0620  139.4740 O   0  0  0  0  0  1  0  0  0  0  0  0
  162.3440  206.1870  138.8680 O   0  0  0  0  0  0  0  0  0  0  0  0
  161.9020  207.0940  139.8210 C   0  0  0  0  0  0  0  0  0  0  0  0
  162.7100  209.4990  151.2620 O   0  0  0  0  0  0  0  0  0  0  0  0
  161.5550  209.8060  151.6610 C   0  0  0  0  0  0  0  0  0  0  0  0
  160.5720  208.7910  151.8920 N   0  0  0  0  0  2  0  0  0  0  0  0
  161.2120  211.2500  151.8540 C   0  0  2  0  0  3  0  0  0  0  0  0
  158.5360  211.8060  154.7500 N   0  0  0  0  0  0  0  0  0  0  0  0
  160.1460  211.5110  154.4830 S   0  0  0  0  0  0  0  0  0  0  0  0
  160.0780  211.4310  152.8160 C   0  0  0  0  0  0  0  0  0  0  0  0
  158.7430  211.6540  152.4840 C   0  0  0  0  0  3  0  0  0  0  0  0
  157.9280  211.8500  153.5650 N   0  0  0  0  0  0  0  0  0  0  0  0
  160.2040  212.9540  150.5320 O   0  0  0  0  0  0  0  0  0  0  0  0
  160.9730  211.9530  150.5560 C   0  0  0  0  0  0  0  0  0  0  0  0
  161.4360  212.1850  148.2030 N   0  0  0  0  0  1  0  0  0  0  0  0
  161.5810  211.4970  149.3850 O   0  0  0  0  0  0  0  0  0  0  0  0
  1  9  1  0  0  0  0
  2  5  1  0  0  0  0
  3  9  1  0  0  0  0
  3  2  2  0  0  0  0
  5  4  2  0  0  0  0
  5  7  1  0  0  0  0
  6 12  1  0  0  0  0
  8  1  2  0  0  0  0
  9 11  2  0  0  0  0
 10  3  1  0  0  0  0
 11  4  1  0  0  0  0
 12  8  1  0  0  0  0
 12 10  2  0  0  0  0
 14 13  1  1  0  0  0
 14 17  1  0  0  0  0
 16 20  1  1  0  0  0
 16 15  1  0  0  0  0
 17 15  1  0  0  0  0
 17  8  1  0  0  0  0
 18 16  1  0  0  0  0
 18 14  1  0  0  0  0
 20 19  3  0  0  0  0
 21 14  1  0  0  0  0
 22 23  2  0  0  0  0
 23 21  1  0  0  0  0
 24 22  1  0  0  0  0
 25 24  1  0  0  0  0
 26 28  1  0  0  0  0
 27 28  2  0  0  0  0
 28 25  1  0  0  0  0
 29 30  2  0  0  0  0
 30 32  1  0  0  0  0
 30 31  1  0  0  0  0
 31  2  1  0  0  0  0
 32 39  1  6  0  0  0
 32 35  1  0  0  0  0
 34 33  1  0  0  0  0
 35 34  1  0  0  0  0
 36 35  2  0  0  0  0
 36 37  1  0  0  0  0
 37 33  2  0  0  0  0
 38 39  2  0  0  0  0
 40 41  1  0  0  0  0
 41 39  1  0  0  0  0
M  END
>  <MODEL>
6

>  <REMARK>
 VINA RESULT:      -5.1      3.685     10.361
  Name = 
  12 active torsions:
  status: ('A' for Active; 'I' for Inactive)
    1  A    between atoms: C_4  and  N_27
    2  A    between atoms: C_9  and  C_11
    3  A    between atoms: C_9  and  C_29
    4  A    between atoms: N_17  and  C_30
    5  A    between atoms: C_19  and  C_36
    6  A    between atoms: O_20  and  C_31
    7  A    between atoms: C_22  and  C_30
    8  A    between atoms: C_22  and  C_40
    9  A    between atoms: C_23  and  N_26
   10  A    between atoms: C_24  and  C_35
   11  A    between atoms: C_25  and  C_36
   12  A    between atoms: C_31  and  C_36
                            x       y       z     vdW  Elec       q    Type
                         _______ _______ _______ _____ _____    ______ ____

>  <TORSDO>
F 12

$$$$
=
 OpenBabel11072413253D

 41 44  0  0  1  0  0  0  0  0999 V2000
  161.1820  206.7510  153.4870 C   0  0  0  0  0  3  0  0  0  0  0  0
  161.4300  204.3700  150.6490 C   0  0  0  0  0  0  0  0  0  0  0  0
  161.4410  205.5760  151.3830 C   0  0  0  0  0  0  0  0  0  0  0  0
  160.8360  203.1660  152.6800 C   0  0  0  0  0  3  0  0  0  0  0  0
  161.0910  203.1710  151.3060 C   0  0  0  0  0  0  0  0  0  0  0  0
  161.9370  209.2100  150.6960 C   0  0  0  0  0  1  0  0  0  0  0  0
  161.0280  201.9470  150.5810 N   0  0  0  0  0  1  0  0  0  0  0  0
  161.4300  207.9600  152.8300 C   0  0  0  0  0  0  0  0  0  0  0  0
  161.1760  205.5550  152.7710 C   0  0  0  0  0  0  0  0  0  0  0  0
  161.6630  206.7700  150.7650 N   0  0  0  0  0  0  0  0  0  0  0  0
  160.8840  204.3530  153.4130 C   0  0  0  0  0  3  0  0  0  0  0  0
  161.6700  207.9480  151.4450 C   0  0  0  0  0  0  0  0  0  0  0  0
  159.3830  208.9270  154.8810 C   0  0  0  0  0  1  0  0  0  0  0  0
  160.2430  209.8710  154.0480 C   0  0  2  0  0  0  0  0  0  0  0  0
  162.6760  209.7750  154.0410 C   0  0  0  0  0  2  0  0  0  0  0  0
  162.2760  211.0080  154.8260 C   0  0  1  0  0  3  0  0  0  0  0  0
  161.4390  209.1840  153.5780 N   0  0  0  0  0  0  0  0  0  0  0  0
  160.7550  210.9970  154.9370 C   0  0  0  0  0  2  0  0  0  0  0  0
  163.3390  210.9170  157.2230 N   0  0  0  0  0  0  0  0  0  0  0  0
  162.8690  210.9570  156.1660 C   0  0  0  0  0  0  0  0  0  0  0  0
  159.4620  210.4340  152.8500 C   0  0  0  0  0  2  0  0  0  0  0  0
  158.2110  212.4430  152.3630 N   0  0  0  0  0  0  0  0  0  0  0  0
  159.2410  211.9170  152.9090 C   0  0  0  0  0  3  0  0  0  0  0  0
  158.0000  213.8640  152.4270 C   0  0  0  0  0  2  0  0  0  0  0  0
  157.2730  214.2270  153.7150 C   0  0  0  0  0  2  0  0  0  0  0  0
  155.7570  212.6870  154.7310 O   0  0  0  0  0  1  0  0  0  0  0  0
  154.9530  213.8050  152.9020 O   0  0  0  0  0  0  0  0  0  0  0  0
  155.9650  213.5120  153.8040 C   0  0  0  0  0  0  0  0  0  0  0  0
  159.8880  202.9840  148.6000 O   0  0  0  0  0  0  0  0  0  0  0  0
  160.9870  203.5190  148.2940 C   0  0  0  0  0  0  0  0  0  0  0  0
  161.6820  204.3430  149.2370 N   0  0  0  0  0  2  0  0  0  0  0  0
  161.5380  203.3130  146.9190 C   0  0  2  0  0  3  0  0  0  0  0  0
  160.5880  206.6160  144.9080 N   0  0  0  0  0  0  0  0  0  0  0  0
  160.4580  205.8970  146.3970 S   0  0  0  0  0  0  0  0  0  0  0  0
  161.2210  204.4620  146.0110 C   0  0  0  0  0  0  0  0  0  0  0  0
  161.5860  204.5790  144.6710 C   0  0  0  0  0  3  0  0  0  0  0  0
  161.2200  205.7670  144.0990 N   0  0  0  0  0  0  0  0  0  0  0  0
  160.4210  201.9840  145.2880 O   0  0  0  0  0  0  0  0  0  0  0  0
  161.1260  201.9980  146.3360 C   0  0  0  0  0  0  0  0  0  0  0  0
  161.2940  199.5950  146.3320 N   0  0  0  0  0  1  0  0  0  0  0  0
  161.5040  200.8040  146.9520 O   0  0  0  0  0  0  0  0  0  0  0  0
  2  5  2  0  0  0  0
  2  3  1  0  0  0  0
  3  9  1  0  0  0  0
  4 11  2  0  0  0  0
  5  4  1  0  0  0  0
  6 12  1  0  0  0  0
  7  5  1  0  0  0  0
  8  1  1  0  0  0  0
  8 17  1  0  0  0  0
  9 11  1  0  0  0  0
  9  1  2  0  0  0  0
 10  3  2  0  0  0  0
 10 12  1  0  0  0  0
 12  8  2  0  0  0  0
 14 13  1  1  0  0  0
 14 18  1  0  0  0  0
 15 16  1  0  0  0  0
 16 18  1  0  0  0  0
 16 20  1  1  0  0  0
 17 15  1  0  0  0  0
 17 14  1  0  0  0  0
 20 19  3  0  0  0  0
 21 23  1  0  0  0  0
 21 14  1  0  0  0  0
 22 24  1  0  0  0  0
 22 23  2  0  0  0  0
 24 25  1  0  0  0  0
 25 28  1  0  0  0  0
 27 28  2  0  0  0  0
 28 26  1  0  0  0  0
 30 29  2  0  0  0  0
 30 31  1  0  0  0  0
 31  2  1  0  0  0  0
 32 39  1  6  0  0  0
 32 30  1  0  0  0  0
 33 34  1  0  0  0  0
 35 34  1  0  0  0  0
 35 32  1  0  0  0  0
 36 35  2  0  0  0  0
 37 36  1  0  0  0  0
 37 33  2  0  0  0  0
 38 39  2  0  0  0  0
 39 41  1  0  0  0  0
 40 41  1  0  0  0  0
M  END
>  <MODEL>
7

>  <REMARK>
 VINA RESULT:      -4.8      1.670      2.520
  Name = 
  12 active torsions:
  status: ('A' for Active; 'I' for Inactive)
    1  A    between atoms: C_4  and  N_27
    2  A    between atoms: C_9  and  C_11
    3  A    between atoms: C_9  and  C_29
    4  A    between atoms: N_17  and  C_30
    5  A    between atoms: C_19  and  C_36
    6  A    between atoms: O_20  and  C_31
    7  A    between atoms: C_22  and  C_30
    8  A    between atoms: C_22  and  C_40
    9  A    between atoms: C_23  and  N_26
   10  A    between atoms: C_24  and  C_35
   11  A    between atoms: C_25  and  C_36
   12  A    between atoms: C_31  and  C_36
                            x       y       z     vdW  Elec       q    Type
                         _______ _______ _______ _____ _____    ______ ____

>  <TORSDO>
F 12

$$$$
=
 OpenBabel11072413253D

 41 44  0  0  1  0  0  0  0  0999 V2000
  161.1840  206.8210  153.5200 C   0  0  0  0  0  3  0  0  0  0  0  0
  161.4230  204.3980  150.7170 C   0  0  0  0  0  0  0  0  0  0  0  0
  161.4400  205.6140  151.4340 C   0  0  0  0  0  0  0  0  0  0  0  0
  160.8150  203.2270  152.7630 C   0  0  0  0  0  3  0  0  0  0  0  0
  161.0730  203.2110  151.3900 C   0  0  0  0  0  0  0  0  0  0  0  0
  161.9640  209.2350  150.6960 C   0  0  0  0  0  1  0  0  0  0  0  0
  161.0030  201.9780  150.6820 N   0  0  0  0  0  1  0  0  0  0  0  0
  161.4420  208.0190  152.8470 C   0  0  0  0  0  0  0  0  0  0  0  0
  161.1710  205.6150  152.8210 C   0  0  0  0  0  0  0  0  0  0  0  0
  161.6720  206.7980  150.8000 N   0  0  0  0  0  0  0  0  0  0  0  0
  160.8680  204.4250  153.4790 C   0  0  0  0  0  3  0  0  0  0  0  0
  161.6860  207.9850  151.4620 C   0  0  0  0  0  0  0  0  0  0  0  0
  159.3530  209.0680  154.8140 C   0  0  0  0  0  1  0  0  0  0  0  0
  160.2650  209.9770  153.9970 C   0  0  2  0  0  0  0  0  0  0  0  0
  162.6930  209.8190  154.0730 C   0  0  0  0  0  2  0  0  0  0  0  0
  162.3000  211.0740  154.8270 C   0  0  1  0  0  3  0  0  0  0  0  0
  161.4570  209.2530  153.5780 N   0  0  0  0  0  0  0  0  0  0  0  0
  160.7760  211.1030  154.8870 C   0  0  0  0  0  2  0  0  0  0  0  0
  163.2790  210.9920  157.2590 N   0  0  0  0  0  0  0  0  0  0  0  0
  162.8460  211.0280  156.1860 C   0  0  0  0  0  0  0  0  0  0  0  0
  159.5390  210.5410  152.7660 C   0  0  0  0  0  2  0  0  0  0  0  0
  159.1090  212.6320  151.6320 N   0  0  0  0  0  0  0  0  0  0  0  0
  159.7040  212.0220  152.5870 C   0  0  0  0  0  3  0  0  0  0  0  0
  159.2660  214.0520  151.4670 C   0  0  0  0  0  2  0  0  0  0  0  0
  160.4610  214.3440  150.5700 C   0  0  0  0  0  2  0  0  0  0  0  0
  159.6130  213.9350  148.3750 O   0  0  0  0  0  0  0  0  0  0  0  0
  161.1880  212.4490  149.1200 O   0  0  0  0  0  1  0  0  0  0  0  0
  160.3760  213.5590  149.3020 C   0  0  0  0  0  0  0  0  0  0  0  0
  159.9320  202.9180  148.6960 O   0  0  0  0  0  0  0  0  0  0  0  0
  161.0130  203.4830  148.3800 C   0  0  0  0  0  0  0  0  0  0  0  0
  161.6780  204.3500  149.3060 N   0  0  0  0  0  2  0  0  0  0  0  0
  161.5730  203.2650  147.0110 C   0  0  2  0  0  3  0  0  0  0  0  0
  160.6210  206.5350  144.9460 N   0  0  0  0  0  0  0  0  0  0  0  0
  160.5750  205.8780  146.4690 S   0  0  0  0  0  0  0  0  0  0  0  0
  161.2390  204.3940  146.0840 C   0  0  0  0  0  0  0  0  0  0  0  0
  161.5030  204.4450  144.7170 C   0  0  0  0  0  3  0  0  0  0  0  0
  161.1480  205.6270  144.1260 N   0  0  0  0  0  0  0  0  0  0  0  0
  161.5140  200.8850  147.0690 O   0  0  0  0  0  0  0  0  0  0  0  0
  161.1880  201.9350  146.4470 C   0  0  0  0  0  0  0  0  0  0  0  0
  159.9870  200.6560  144.7950 N   0  0  0  0  0  1  0  0  0  0  0  0
  160.4910  201.8550  145.2400 O   0  0  0  0  0  0  0  0  0  0  0  0
  2  5  2  0  0  0  0
  2  3  1  0  0  0  0
  3  9  1  0  0  0  0
  4 11  2  0  0  0  0
  5  4  1  0  0  0  0
  6 12  1  0  0  0  0
  7  5  1  0  0  0  0
  8  1  1  0  0  0  0
  8 17  1  0  0  0  0
  9 11  1  0  0  0  0
  9  1  2  0  0  0  0
 10  3  2  0  0  0  0
 10 12  1  0  0  0  0
 12  8  2  0  0  0  0
 14 13  1  1  0  0  0
 14 18  1  0  0  0  0
 15 16  1  0  0  0  0
 16 18  1  0  0  0  0
 16 20  1  1  0  0  0
 17 14  1  0  0  0  0
 17 15  1  0  0  0  0
 20 19  3  0  0  0  0
 21 14  1  0  0  0  0
 22 23  2  0  0  0  0
 23 21  1  0  0  0  0
 24 22  1  0  0  0  0
 25 24  1  0  0  0  0
 26 28  2  0  0  0  0
 27 28  1  0  0  0  0
 28 25  1  0  0  0  0
 30 29  2  0  0  0  0
 30 31  1  0  0  0  0
 31  2  1  0  0  0  0
 32 39  1  6  0  0  0
 32 30  1  0  0  0  0
 33 34  1  0  0  0  0
 35 34  1  0  0  0  0
 35 32  1  0  0  0  0
 36 35  2  0  0  0  0
 37 36  1  0  0  0  0
 37 33  2  0  0  0  0
 39 38  2  0  0  0  0
 40 41  1  0  0  0  0
 41 39  1  0  0  0  0
M  END
>  <MODEL>
8

>  <REMARK>
 VINA RESULT:      -4.8      2.740      3.440
  Name = 
  12 active torsions:
  status: ('A' for Active; 'I' for Inactive)
    1  A    between atoms: C_4  and  N_27
    2  A    between atoms: C_9  and  C_11
    3  A    between atoms: C_9  and  C_29
    4  A    between atoms: N_17  and  C_30
    5  A    between atoms: C_19  and  C_36
    6  A    between atoms: O_20  and  C_31
    7  A    between atoms: C_22  and  C_30
    8  A    between atoms: C_22  and  C_40
    9  A    between atoms: C_23  and  N_26
   10  A    between atoms: C_24  and  C_35
   11  A    between atoms: C_25  and  C_36
   12  A    between atoms: C_31  and  C_36
                            x       y       z     vdW  Elec       q    Type
                         _______ _______ _______ _____ _____    ______ ____

>  <TORSDO>
F 12

$$$$
=
 OpenBabel11072413253D

 41 44  0  0  1  0  0  0  0  0999 V2000
  160.7730  207.1660  153.1340 C   0  0  0  0  0  3  0  0  0  0  0  0
  161.5540  204.4130  150.7710 C   0  0  0  0  0  0  0  0  0  0  0  0
  161.3420  205.7110  151.2820 C   0  0  0  0  0  0  0  0  0  0  0  0
  160.9990  203.4870  152.9530 C   0  0  0  0  0  3  0  0  0  0  0  0
  161.3450  203.3020  151.6110 C   0  0  0  0  0  0  0  0  0  0  0  0
  161.3610  209.2130  149.9910 C   0  0  0  0  0  1  0  0  0  0  0  0
  161.5080  201.9800  151.1090 N   0  0  0  0  0  1  0  0  0  0  0  0
  160.8910  208.2730  152.2870 C   0  0  0  0  0  0  0  0  0  0  0  0
  160.9870  205.8820  152.6390 C   0  0  0  0  0  0  0  0  0  0  0  0
  161.4340  206.8050  150.4750 N   0  0  0  0  0  0  0  0  0  0  0  0
  160.8260  204.7730  153.4680 C   0  0  0  0  0  3  0  0  0  0  0  0
  161.2250  208.0670  150.9370 C   0  0  0  0  0  0  0  0  0  0  0  0
  162.9830  210.3370  153.1210 C   0  0  0  0  0  1  0  0  0  0  0  0
  161.5820  210.2780  153.7180 C   0  0  2  0  0  0  0  0  0  0  0  0
  159.5650  210.4050  152.3610 C   0  0  0  0  0  2  0  0  0  0  0  0
  159.7010  211.7280  153.0900 C   0  0  1  0  0  3  0  0  0  0  0  0
  160.6730  209.5910  152.8090 N   0  0  0  0  0  0  0  0  0  0  0  0
  161.0290  211.6920  153.8390 C   0  0  0  0  0  2  0  0  0  0  0  0
  159.7140  213.6990  151.3590 N   0  0  0  0  0  0  0  0  0  0  0  0
  159.7090  212.8290  152.1230 C   0  0  0  0  0  0  0  0  0  0  0  0
  161.5820  209.5740  155.0840 C   0  0  0  0  0  2  0  0  0  0  0  0
  159.5940  210.3620  156.2090 N   0  0  0  0  0  0  0  0  0  0  0  0
  160.8730  210.3370  156.1630 C   0  0  0  0  0  3  0  0  0  0  0  0
  158.9180  211.0910  157.2480 C   0  0  0  0  0  2  0  0  0  0  0  0
  158.2420  212.3250  156.6660 C   0  0  0  0  0  2  0  0  0  0  0  0
  156.6840  212.0920  154.8720 O   0  0  0  0  0  0  0  0  0  0  0  0
  155.9140  211.4740  156.9370 O   0  0  0  0  0  1  0  0  0  0  0  0
  156.9020  211.9800  156.1060 C   0  0  0  0  0  0  0  0  0  0  0  0
  159.9330  203.1330  148.7130 O   0  0  0  0  0  0  0  0  0  0  0  0
  161.1360  203.4160  148.4680 C   0  0  0  0  0  0  0  0  0  0  0  0
  161.9040  204.1900  149.3970 N   0  0  0  0  0  2  0  0  0  0  0  0
  161.7410  202.9650  147.1770 C   0  0  2  0  0  3  0  0  0  0  0  0
  161.2260  205.8240  144.4520 N   0  0  0  0  0  0  0  0  0  0  0  0
  160.4340  204.6000  145.2440 S   0  0  0  0  0  0  0  0  0  0  0  0
  161.7290  204.0520  146.1450 C   0  0  0  0  0  0  0  0  0  0  0  0
  162.8000  204.8750  145.8020 C   0  0  0  0  0  3  0  0  0  0  0  0
  162.4910  205.8290  144.8710 N   0  0  0  0  0  0  0  0  0  0  0  0
  161.2100  200.6520  147.3760 O   0  0  0  0  0  0  0  0  0  0  0  0
  161.1230  201.6990  146.6740 C   0  0  0  0  0  0  0  0  0  0  0  0
  160.0670  200.4840  144.8820 N   0  0  0  0  0  1  0  0  0  0  0  0
  160.4720  201.6730  145.4400 O   0  0  0  0  0  0  0  0  0  0  0  0
  2  3  2  0  0  0  0
  2  5  1  0  0  0  0
  3  9  1  0  0  0  0
  4 11  1  0  0  0  0
  5  4  2  0  0  0  0
  6 12  1  0  0  0  0
  7  5  1  0  0  0  0
  8 17  1  0  0  0  0
  8  1  2  0  0  0  0
  9  1  1  0  0  0  0
  9 11  2  0  0  0  0
 10 12  2  0  0  0  0
 10  3  1  0  0  0  0
 12  8  1  0  0  0  0
 14 13  1  6  0  0  0
 14 18  1  0  0  0  0
 14 21  1  0  0  0  0
 15 17  1  0  0  0  0
 15 16  1  0  0  0  0
 16 20  1  6  0  0  0
 16 18  1  0  0  0  0
 17 14  1  0  0  0  0
 19 20  3  0  0  0  0
 21 23  1  0  0  0  0
 22 24  1  0  0  0  0
 23 22  2  0  0  0  0
 25 24  1  0  0  0  0
 26 28  2  0  0  0  0
 28 25  1  0  0  0  0
 28 27  1  0  0  0  0
 30 29  2  0  0  0  0
 30 31  1  0  0  0  0
 31  2  1  0  0  0  0
 32 39  1  6  0  0  0
 32 30  1  0  0  0  0
 33 37  2  0  0  0  0
 33 34  1  0  0  0  0
 34 35  1  0  0  0  0
 35 32  1  0  0  0  0
 36 35  2  0  0  0  0
 37 36  1  0  0  0  0
 39 38  2  0  0  0  0
 40 41  1  0  0  0  0
 41 39  1  0  0  0  0
M  END
>  <MODEL>
9

>  <REMARK>
 VINA RESULT:      -4.6      1.802      3.080
  Name = 
  12 active torsions:
  status: ('A' for Active; 'I' for Inactive)
    1  A    between atoms: C_4  and  N_27
    2  A    between atoms: C_9  and  C_11
    3  A    between atoms: C_9  and  C_29
    4  A    between atoms: N_17  and  C_30
    5  A    between atoms: C_19  and  C_36
    6  A    between atoms: O_20  and  C_31
    7  A    between atoms: C_22  and  C_30
    8  A    between atoms: C_22  and  C_40
    9  A    between atoms: C_23  and  N_26
   10  A    between atoms: C_24  and  C_35
   11  A    between atoms: C_25  and  C_36
   12  A    between atoms: C_31  and  C_36
                            x       y       z     vdW  Elec       q    Type
                         _______ _______ _______ _____ _____    ______ ____

>  <TORSDO>
F 12

$$$$
