=
 OpenBabel11072410583D

 42 46  0  0  1  0  0  0  0  0999 V2000
  161.2640  208.1340  152.9620 C   0  0  0  0  0  0  0  0  0  0  0  0
  160.9620  205.5590  154.0190 N   0  0  0  0  0  0  0  0  0  0  0  0
  161.4450  205.6750  152.8230 C   0  0  0  0  0  0  0  0  0  0  0  0
  160.8490  207.9930  154.2300 C   0  0  0  0  0  3  0  0  0  0  0  0
  161.0330  206.6820  154.9510 C   0  0  0  0  0  2  0  0  0  0  0  0
  161.4470  205.2950  150.5400 N   0  0  0  0  0  2  0  0  0  0  0  0
  161.5400  206.7530  150.7690 C   0  0  2  0  0  0  0  0  0  0  0  0
  161.9030  206.9560  152.2580 C   0  0  1  0  0  3  0  0  0  0  0  0
  161.2060  204.7360  151.8080 N   0  0  0  0  0  2  0  0  0  0  0  0
  160.3030  207.3380  150.4740 O   0  0  0  0  0  1  0  0  0  0  0  0
  161.1940  209.4000  152.2950 N   0  0  0  0  0  2  0  0  0  0  0  0
  160.0880  210.3450  152.4310 C   0  0  0  0  0  2  0  0  0  0  0  0
  161.5970  211.0830  154.1450 O   0  0  0  0  0  1  0  0  0  0  0  0
  160.3820  211.3720  153.5180 C   0  0  2  0  0  3  0  0  0  0  0  0
  159.4620  212.3760  155.7250 C   0  0  0  0  0  2  0  0  0  0  0  0
  157.8630  213.4500  153.6280 C   0  0  2  0  0  3  0  0  0  0  0  0
  159.5200  213.7310  155.3510 O   0  0  0  0  0  0  0  0  0  0  0  0
  159.2110  211.4770  154.5000 C   0  0  1  0  0  3  0  0  0  0  0  0
  158.2210  214.1000  154.9650 C   0  0  0  0  0  2  0  0  0  0  0  0
  157.9420  211.9250  153.7750 C   0  0  0  0  0  2  0  0  0  0  0  0
  158.7790  213.9140  152.5980 N   0  0  0  0  0  2  0  0  0  0  0  0
  157.9920  214.2980  151.4360 C   0  0  2  0  0  3  0  0  0  0  0  0
  156.6430  214.2960  151.7810 O   0  0  0  0  0  1  0  0  0  0  0  0
  158.2150  213.3460  150.3580 N   0  0  0  0  0  2  0  0  0  0  0  0
  160.9670  212.7550  148.5100 C   0  0  0  0  0  0  0  0  0  0  0  0
  160.0650  212.7740  147.3810 C   0  0  0  0  0  0  0  0  0  0  0  0
  162.3100  212.1160  148.4910 C   0  0  0  0  0  1  0  0  0  0  0  0
  160.4930  213.3790  149.5690 C   0  0  0  0  0  3  0  0  0  0  0  0
  158.5440  213.6390  147.6950 S   0  0  0  0  0  0  0  0  0  0  0  0
  160.3280  212.2370  146.2700 O   0  0  0  0  0  0  0  0  0  0  0  0
  159.1240  213.9660  149.4060 C   0  0  1  0  0  3  0  0  0  0  0  0
  162.6370  207.3580  149.8930 C   0  0  0  0  0  2  0  0  0  0  0  0
  162.5640  206.1050  147.6980 N   0  0  0  0  0  2  0  0  0  0  0  0
  161.7270  208.2740  147.8900 O   0  0  0  0  0  0  0  0  0  0  0  0
  162.2960  207.2940  148.4390 C   0  0  0  0  0  0  0  0  0  0  0  0
  162.9500  204.8490  145.6550 C   0  0  0  0  0  2  0  0  0  0  0  0
  162.1360  205.9420  146.3120 C   0  0  1  0  0  3  0  0  0  0  0  0
  161.5160  204.5660  146.0470 C   0  0  2  0  0  3  0  0  0  0  0  0
  160.7450  201.8180  146.1230 O   0  0  0  0  0  0  0  0  0  0  0  0
  161.4910  203.7310  147.2440 N   0  0  0  0  0  2  0  0  0  0  0  0
  161.1190  202.3520  147.2020 C   0  0  0  0  0  0  0  0  0  0  0  0
  161.1580  201.5780  148.3950 N   0  0  0  0  0  1  0  0  0  0  0  0
  1  4  2  0  0  0  0
  2  5  1  0  0  0  0
  3  2  2  0  0  0  0
  4  5  1  0  0  0  0
  6  7  1  0  0  0  0
  6  9  1  0  0  0  0
  7 10  1  6  0  0  0
  7  8  1  0  0  0  0
  8  3  1  1  0  0  0
  8  1  1  0  0  0  0
  9  3  1  0  0  0  0
 11 12  1  0  0  0  0
 11  1  1  0  0  0  0
 12 14  1  0  0  0  0
 14 13  1  1  0  0  0
 16 21  1  6  0  0  0
 16 20  1  0  0  0  0
 16 19  1  0  0  0  0
 17 15  1  0  0  0  0
 18 14  1  6  0  0  0
 18 15  1  0  0  0  0
 19 17  1  0  0  0  0
 20 18  1  0  0  0  0
 22 23  1  1  0  0  0
 22 21  1  0  0  0  0
 24 22  1  0  0  0  0
 25 28  2  0  0  0  0
 26 29  1  0  0  0  0
 26 25  1  0  0  0  0
 27 25  1  0  0  0  0
 29 31  1  0  0  0  0
 30 26  2  0  0  0  0
 31 28  1  0  0  0  0
 31 24  1  1  0  0  0
 32  7  1  0  0  0  0
 33 35  1  0  0  0  0
 34 35  2  0  0  0  0
 35 32  1  0  0  0  0
 36 38  1  0  0  0  0
 36 37  1  0  0  0  0
 37 33  1  1  0  0  0
 38 37  1  0  0  0  0
 38 40  1  1  0  0  0
 39 41  2  0  0  0  0
 41 40  1  0  0  0  0
 41 42  1  0  0  0  0
M  END
>  <MODEL>
1

>  <REMARK>
 VINA RESULT:      -7.2      0.000      0.000
  Name = 
  12 active torsions:
  status: ('A' for Active; 'I' for Inactive)
    1  A    between atoms: N_1  and  C_33
    2  A    between atoms: C_3  and  N_4
    3  A    between atoms: N_4  and  C_9
    4  A    between atoms: C_9  and  C_29
    5  A    between atoms: C_11  and  N_25
    6  A    between atoms: C_13  and  N_25
    7  A    between atoms: C_13  and  N_39
    8  A    between atoms: C_15  and  C_29
    9  A    between atoms: N_16  and  C_42
   10  A    between atoms: C_24  and  C_32
   11  A    between atoms: C_32  and  C_36
   12  A    between atoms: N_39  and  C_40
                            x       y       z     vdW  Elec       q    Type
                         _______ _______ _______ _____ _____    ______ ____

>  <TORSDO>
F 12

$$$$
=
 OpenBabel11072410583D

 42 46  0  0  1  0  0  0  0  0999 V2000
  161.0060  212.2670  149.7900 C   0  0  0  0  0  0  0  0  0  0  0  0
  160.1750  213.5560  147.4470 N   0  0  0  0  0  0  0  0  0  0  0  0
  159.6820  213.9610  148.5750 C   0  0  0  0  0  0  0  0  0  0  0  0
  161.5680  211.9240  148.6210 C   0  0  0  0  0  3  0  0  0  0  0  0
  161.4400  212.8270  147.4200 C   0  0  0  0  0  2  0  0  0  0  0  0
  157.9480  214.4000  150.0440 N   0  0  0  0  0  2  0  0  0  0  0  0
  158.9340  213.5380  150.7310 C   0  0  2  0  0  0  0  0  0  0  0  0
  160.2260  213.5620  149.8840 C   0  0  1  0  0  3  0  0  0  0  0  0
  158.3740  214.4530  148.7040 N   0  0  0  0  0  2  0  0  0  0  0  0
  158.4180  212.2390  150.8160 O   0  0  0  0  0  1  0  0  0  0  0  0
  161.2040  211.4770  150.9690 N   0  0  0  0  0  2  0  0  0  0  0  0
  161.8660  210.1750  150.9880 C   0  0  0  0  0  2  0  0  0  0  0  0
  160.1610  209.8060  152.6380 O   0  0  0  0  0  1  0  0  0  0  0  0
  161.0370  209.1570  151.7620 C   0  0  2  0  0  3  0  0  0  0  0  0
  161.2310  207.2270  153.4830 C   0  0  0  0  0  2  0  0  0  0  0  0
  161.8550  206.1020  150.9420 C   0  0  2  0  0  3  0  0  0  0  0  0
  160.3820  206.3120  152.8330 O   0  0  0  0  0  0  0  0  0  0  0  0
  161.9400  208.1380  152.4640 C   0  0  1  0  0  3  0  0  0  0  0  0
  161.2080  205.4110  152.1430 C   0  0  0  0  0  2  0  0  0  0  0  0
  162.6900  207.2900  151.4370 C   0  0  0  0  0  2  0  0  0  0  0  0
  160.8230  206.5490  150.0210 N   0  0  0  0  0  2  0  0  0  0  0  0
  161.4260  206.6950  148.7050 C   0  0  2  0  0  3  0  0  0  0  0  0
  161.2700  208.0110  148.2770 O   0  0  0  0  0  1  0  0  0  0  0  0
  160.7670  205.8030  147.7630 N   0  0  0  0  0  2  0  0  0  0  0  0
  161.1160  202.4540  147.8150 C   0  0  0  0  0  0  0  0  0  0  0  0
  161.0160  202.5430  146.3750 C   0  0  0  0  0  0  0  0  0  0  0  0
  160.8590  201.2120  148.5920 C   0  0  0  0  0  1  0  0  0  0  0  0
  161.4790  203.5850  148.3850 C   0  0  0  0  0  3  0  0  0  0  0  0
  161.4130  204.1500  145.7290 S   0  0  0  0  0  0  0  0  0  0  0  0
  160.6860  201.5730  145.6390 O   0  0  0  0  0  0  0  0  0  0  0  0
  161.7000  204.7320  147.4460 C   0  0  1  0  0  3  0  0  0  0  0  0
  159.2320  214.0840  152.1270 C   0  0  0  0  0  2  0  0  0  0  0  0
  158.8700  212.8250  154.2900 N   0  0  0  0  0  2  0  0  0  0  0  0
  157.0780  213.6740  153.0610 O   0  0  0  0  0  0  0  0  0  0  0  0
  158.3210  213.5080  153.1640 C   0  0  0  0  0  0  0  0  0  0  0  0
  157.9810  210.8440  155.3810 C   0  0  0  0  0  2  0  0  0  0  0  0
  158.0360  212.3560  155.3930 C   0  0  1  0  0  3  0  0  0  0  0  0
  158.8290  211.5420  156.4220 C   0  0  2  0  0  3  0  0  0  0  0  0
  160.3760  209.1490  156.5920 O   0  0  0  0  0  0  0  0  0  0  0  0
  160.2400  211.4240  156.0660 N   0  0  0  0  0  2  0  0  0  0  0  0
  160.9440  210.1840  156.1500 C   0  0  0  0  0  0  0  0  0  0  0  0
  162.3070  210.1220  155.7460 N   0  0  0  0  0  1  0  0  0  0  0  0
  1  8  1  0  0  0  0
  1 11  1  0  0  0  0
  2  3  2  0  0  0  0
  3  9  1  0  0  0  0
  4  1  2  0  0  0  0
  5  2  1  0  0  0  0
  5  4  1  0  0  0  0
  6  7  1  0  0  0  0
  7 10  1  1  0  0  0
  7 32  1  0  0  0  0
  8  3  1  6  0  0  0
  8  7  1  0  0  0  0
  9  6  1  0  0  0  0
 11 12  1  0  0  0  0
 12 14  1  0  0  0  0
 14 13  1  1  0  0  0
 16 21  1  6  0  0  0
 16 20  1  0  0  0  0
 16 19  1  0  0  0  0
 17 15  1  0  0  0  0
 18 14  1  6  0  0  0
 18 15  1  0  0  0  0
 19 17  1  0  0  0  0
 20 18  1  0  0  0  0
 22 23  1  6  0  0  0
 22 21  1  0  0  0  0
 24 22  1  0  0  0  0
 25 28  2  0  0  0  0
 25 27  1  0  0  0  0
 26 25  1  0  0  0  0
 29 26  1  0  0  0  0
 29 31  1  0  0  0  0
 30 26  2  0  0  0  0
 31 24  1  1  0  0  0
 31 28  1  0  0  0  0
 32 35  1  0  0  0  0
 34 35  2  0  0  0  0
 35 33  1  0  0  0  0
 36 37  1  0  0  0  0
 36 38  1  0  0  0  0
 37 33  1  6  0  0  0
 37 38  1  0  0  0  0
 38 40  1  6  0  0  0
 40 41  1  0  0  0  0
 41 39  2  0  0  0  0
 42 41  1  0  0  0  0
M  END
>  <MODEL>
2

>  <REMARK>
 VINA RESULT:      -6.7      2.511      9.064
  Name = 
  12 active torsions:
  status: ('A' for Active; 'I' for Inactive)
    1  A    between atoms: N_1  and  C_33
    2  A    between atoms: C_3  and  N_4
    3  A    between atoms: N_4  and  C_9
    4  A    between atoms: C_9  and  C_29
    5  A    between atoms: C_11  and  N_25
    6  A    between atoms: C_13  and  N_25
    7  A    between atoms: C_13  and  N_39
    8  A    between atoms: C_15  and  C_29
    9  A    between atoms: N_16  and  C_42
   10  A    between atoms: C_24  and  C_32
   11  A    between atoms: C_32  and  C_36
   12  A    between atoms: N_39  and  C_40
                            x       y       z     vdW  Elec       q    Type
                         _______ _______ _______ _____ _____    ______ ____

>  <TORSDO>
F 12

$$$$
=
 OpenBabel11072410583D

 42 46  0  0  1  0  0  0  0  0999 V2000
  161.3630  210.1380  152.2510 C   0  0  0  0  0  0  0  0  0  0  0  0
  160.6020  208.9920  154.6900 N   0  0  0  0  0  0  0  0  0  0  0  0
  161.1560  208.2270  153.8020 C   0  0  0  0  0  0  0  0  0  0  0  0
  160.8680  210.9260  153.2170 C   0  0  0  0  0  2  0  0  0  0  0  0
  160.8060  210.4370  154.6420 C   0  0  0  0  0  2  0  0  0  0  0  0
  161.2090  206.4060  152.3740 N   0  0  0  0  0  2  0  0  0  0  0  0
  161.5220  207.6210  151.5920 C   0  0  2  0  0  0  0  0  0  0  0  0
  161.8390  208.7450  152.6040 C   0  0  1  0  0  3  0  0  0  0  0  0
  160.8200  206.8740  153.6430 N   0  0  0  0  0  2  0  0  0  0  0  0
  160.4100  207.9550  150.8100 O   0  0  0  0  0  1  0  0  0  0  0  0
  161.5280  210.6200  150.9120 N   0  0  0  0  0  0  0  0  0  0  0  0
  161.0110  211.8970  150.4250 C   0  0  0  0  0  2  0  0  0  0  0  0
  162.5710  211.3650  148.6790 O   0  0  0  0  0  1  0  0  0  0  0  0
  161.4560  212.1490  148.9890 C   0  0  2  0  0  3  0  0  0  0  0  0
  162.9280  213.9840  147.8970 C   0  0  0  0  0  2  0  0  0  0  0  0
  160.3920  214.1160  146.6070 C   0  0  2  0  0  3  0  0  0  0  0  0
  162.7420  213.5980  146.5570 O   0  0  0  0  0  0  0  0  0  0  0  0
  161.6880  213.6440  148.7440 C   0  0  1  0  0  3  0  0  0  0  0  0
  161.7640  214.4520  146.0210 C   0  0  0  0  0  2  0  0  0  0  0  0
  160.4440  214.2850  148.1310 C   0  0  0  0  0  2  0  0  0  0  0  0
  160.0300  212.7530  146.2540 N   0  0  0  0  0  2  0  0  0  0  0  0
  159.2960  212.7930  144.9990 C   0  0  2  0  0  3  0  0  0  0  0  0
  157.9840  212.3840  145.2270 O   0  0  0  0  0  1  0  0  0  0  0  0
  159.9200  211.8960  144.0380 N   0  0  0  0  0  2  0  0  0  0  0  0
  161.5600  211.7120  141.1030 C   0  0  0  0  0  0  0  0  0  0  0  0
  160.3050  212.1240  140.5150 C   0  0  0  0  0  0  0  0  0  0  0  0
  162.6460  211.0260  140.3520 C   0  0  0  0  0  1  0  0  0  0  0  0
  161.6660  212.0200  142.3800 C   0  0  0  0  0  3  0  0  0  0  0  0
  159.2180  212.9490  141.6540 S   0  0  0  0  0  0  0  0  0  0  0  0
  160.0050  211.9270  139.3050 O   0  0  0  0  0  0  0  0  0  0  0  0
  160.4760  212.7140  142.9700 C   0  0  1  0  0  3  0  0  0  0  0  0
  162.7430  207.3790  150.7040 C   0  0  0  0  0  2  0  0  0  0  0  0
  161.9490  206.0640  148.6950 N   0  0  0  0  0  2  0  0  0  0  0  0
  162.4090  208.3470  148.5510 O   0  0  0  0  0  0  0  0  0  0  0  0
  162.3800  207.3030  149.2550 C   0  0  0  0  0  0  0  0  0  0  0  0
  162.4950  205.2570  146.4700 C   0  0  0  0  0  2  0  0  0  0  0  0
  161.4620  205.9610  147.3230 C   0  0  1  0  0  3  0  0  0  0  0  0
  161.2460  204.5090  146.8850 C   0  0  2  0  0  3  0  0  0  0  0  0
  160.4270  201.7750  146.9530 O   0  0  0  0  0  0  0  0  0  0  0  0
  161.5730  203.5570  147.9430 N   0  0  0  0  0  2  0  0  0  0  0  0
  161.1510  202.1930  147.8960 C   0  0  0  0  0  0  0  0  0  0  0  0
  161.5390  201.3020  148.9350 N   0  0  0  0  0  1  0  0  0  0  0  0
  1  4  1  0  0  0  0
  3  2  2  0  0  0  0
  4  5  1  0  0  0  0
  5  2  1  0  0  0  0
  6  9  1  0  0  0  0
  7 10  1  6  0  0  0
  7  6  1  0  0  0  0
  7  8  1  0  0  0  0
  8  1  1  6  0  0  0
  8  3  1  0  0  0  0
  9  3  1  0  0  0  0
 11  1  2  0  0  0  0
 12 11  1  0  0  0  0
 14 13  1  1  0  0  0
 14 12  1  0  0  0  0
 15 18  1  0  0  0  0
 16 21  1  1  0  0  0
 16 20  1  0  0  0  0
 17 15  1  0  0  0  0
 18 14  1  6  0  0  0
 19 17  1  0  0  0  0
 19 16  1  0  0  0  0
 20 18  1  0  0  0  0
 22 23  1  1  0  0  0
 22 21  1  0  0  0  0
 24 22  1  0  0  0  0
 25 28  2  0  0  0  0
 26 25  1  0  0  0  0
 26 29  1  0  0  0  0
 27 25  1  0  0  0  0
 28 31  1  0  0  0  0
 29 31  1  0  0  0  0
 30 26  2  0  0  0  0
 31 24  1  1  0  0  0
 32  7  1  0  0  0  0
 33 35  1  0  0  0  0
 34 35  2  0  0  0  0
 35 32  1  0  0  0  0
 36 38  1  0  0  0  0
 36 37  1  0  0  0  0
 37 33  1  1  0  0  0
 38 37  1  0  0  0  0
 38 40  1  1  0  0  0
 39 41  2  0  0  0  0
 41 40  1  0  0  0  0
 41 42  1  0  0  0  0
M  END
>  <MODEL>
3

>  <REMARK>
 VINA RESULT:      -6.5      3.213      5.068
  Name = 
  12 active torsions:
  status: ('A' for Active; 'I' for Inactive)
    1  A    between atoms: N_1  and  C_33
    2  A    between atoms: C_3  and  N_4
    3  A    between atoms: N_4  and  C_9
    4  A    between atoms: C_9  and  C_29
    5  A    between atoms: C_11  and  N_25
    6  A    between atoms: C_13  and  N_25
    7  A    between atoms: C_13  and  N_39
    8  A    between atoms: C_15  and  C_29
    9  A    between atoms: N_16  and  C_42
   10  A    between atoms: C_24  and  C_32
   11  A    between atoms: C_32  and  C_36
   12  A    between atoms: N_39  and  C_40
                            x       y       z     vdW  Elec       q    Type
                         _______ _______ _______ _____ _____    ______ ____

>  <TORSDO>
F 12

$$$$
=
 OpenBabel11072410583D

 42 46  0  0  1  0  0  0  0  0999 V2000
  160.6020  207.8130  154.5240 C   0  0  0  0  0  0  0  0  0  0  0  0
  160.8340  208.8860  157.1000 N   0  0  0  0  0  0  0  0  0  0  0  0
  160.5030  209.6840  156.1340 C   0  0  0  0  0  0  0  0  0  0  0  0
  160.8570  206.9920  155.5530 C   0  0  0  0  0  3  0  0  0  0  0  0
  160.6160  207.4480  156.9700 C   0  0  0  0  0  2  0  0  0  0  0  0
  160.8010  211.5360  154.7780 N   0  0  0  0  0  2  0  0  0  0  0  0
  160.6420  210.3470  153.9130 C   0  0  2  0  0  0  0  0  0  0  0  0
  160.0880  209.2100  154.8020 C   0  0  1  0  0  3  0  0  0  0  0  0
  160.8940  211.0310  156.0880 N   0  0  0  0  0  2  0  0  0  0  0  0
  161.8910  210.0020  153.3850 O   0  0  0  0  0  1  0  0  0  0  0  0
  160.7240  207.3650  153.1690 N   0  0  0  0  0  2  0  0  0  0  0  0
  161.6860  206.3630  152.7130 C   0  0  0  0  0  2  0  0  0  0  0  0
  163.3220  206.9510  151.0580 O   0  0  0  0  0  1  0  0  0  0  0  0
  161.9960  206.5430  151.2320 C   0  0  2  0  0  3  0  0  0  0  0  0
  161.5180  208.9000  150.2620 C   0  0  0  0  0  2  0  0  0  0  0  0
  161.3010  207.0770  148.0850 C   0  0  2  0  0  3  0  0  0  0  0  0
  162.4550  208.8630  149.2130 O   0  0  0  0  0  0  0  0  0  0  0  0
  160.9860  207.4890  150.5750 C   0  0  1  0  0  3  0  0  0  0  0  0
  161.7430  208.5400  148.0460 C   0  0  0  0  0  2  0  0  0  0  0  0
  160.4040  206.8580  149.3110 C   0  0  0  0  0  2  0  0  0  0  0  0
  162.4690  206.2140  148.1430 N   0  0  0  0  0  2  0  0  0  0  0  0
  162.4330  205.3290  146.9880 C   0  0  2  0  0  3  0  0  0  0  0  0
  162.3020  206.0960  145.8330 O   0  0  0  0  0  1  0  0  0  0  0  0
  161.2960  204.4280  147.0980 N   0  0  0  0  0  2  0  0  0  0  0  0
  160.7470  202.8370  150.0150 C   0  0  0  0  0  0  0  0  0  0  0  0
  160.1280  201.8150  149.2010 C   0  0  0  0  0  0  0  0  0  0  0  0
  160.4930  203.0090  151.4700 C   0  0  0  0  0  1  0  0  0  0  0  0
  161.5840  203.6030  149.3460 C   0  0  0  0  0  3  0  0  0  0  0  0
  160.6520  201.8380  147.5020 S   0  0  0  0  0  0  0  0  0  0  0  0
  159.2980  200.9760  149.6480 O   0  0  0  0  0  0  0  0  0  0  0  0
  161.7190  203.2810  147.8880 C   0  0  1  0  0  3  0  0  0  0  0  0
  159.6510  210.6400  152.7880 C   0  0  0  0  0  2  0  0  0  0  0  0
  158.1310  212.5110  153.5530 N   0  0  0  0  0  2  0  0  0  0  0  0
  159.8960  212.9020  152.0780 O   0  0  0  0  0  0  0  0  0  0  0  0
  159.2360  212.0760  152.7610 C   0  0  0  0  0  0  0  0  0  0  0  0
  156.4350  214.1520  152.9790 C   0  0  0  0  0  2  0  0  0  0  0  0
  157.7640  213.9190  153.6640 C   0  0  1  0  0  3  0  0  0  0  0  0
  156.4920  214.1300  154.4910 C   0  0  2  0  0  3  0  0  0  0  0  0
  156.4390  213.3120  157.2260 O   0  0  0  0  0  0  0  0  0  0  0  0
  155.9380  212.8720  154.9850 N   0  0  0  0  0  2  0  0  0  0  0  0
  155.9210  212.5420  156.3740 C   0  0  0  0  0  0  0  0  0  0  0  0
  155.3250  211.3210  156.7980 N   0  0  0  0  0  1  0  0  0  0  0  0
  1  4  2  0  0  0  0
  3  2  2  0  0  0  0
  4  5  1  0  0  0  0
  5  2  1  0  0  0  0
  6  9  1  0  0  0  0
  7 10  1  6  0  0  0
  7  6  1  0  0  0  0
  7  8  1  0  0  0  0
  8  1  1  6  0  0  0
  8  3  1  0  0  0  0
  9  3  1  0  0  0  0
 11  1  1  0  0  0  0
 12 11  1  0  0  0  0
 14 13  1  1  0  0  0
 14 12  1  0  0  0  0
 15 18  1  0  0  0  0
 16 21  1  1  0  0  0
 16 20  1  0  0  0  0
 17 15  1  0  0  0  0
 18 14  1  6  0  0  0
 19 16  1  0  0  0  0
 19 17  1  0  0  0  0
 20 18  1  0  0  0  0
 22 23  1  6  0  0  0
 22 24  1  0  0  0  0
 22 21  1  0  0  0  0
 25 27  1  0  0  0  0
 26 30  2  0  0  0  0
 26 25  1  0  0  0  0
 28 25  2  0  0  0  0
 29 31  1  0  0  0  0
 29 26  1  0  0  0  0
 31 24  1  6  0  0  0
 31 28  1  0  0  0  0
 32  7  1  0  0  0  0
 34 35  2  0  0  0  0
 35 32  1  0  0  0  0
 35 33  1  0  0  0  0
 36 37  1  0  0  0  0
 36 38  1  0  0  0  0
 37 33  1  6  0  0  0
 37 38  1  0  0  0  0
 38 40  1  6  0  0  0
 40 41  1  0  0  0  0
 41 42  1  0  0  0  0
 41 39  2  0  0  0  0
M  END
>  <MODEL>
4

>  <REMARK>
 VINA RESULT:      -6.4      3.059      9.191
  Name = 
  12 active torsions:
  status: ('A' for Active; 'I' for Inactive)
    1  A    between atoms: N_1  and  C_33
    2  A    between atoms: C_3  and  N_4
    3  A    between atoms: N_4  and  C_9
    4  A    between atoms: C_9  and  C_29
    5  A    between atoms: C_11  and  N_25
    6  A    between atoms: C_13  and  N_25
    7  A    between atoms: C_13  and  N_39
    8  A    between atoms: C_15  and  C_29
    9  A    between atoms: N_16  and  C_42
   10  A    between atoms: C_24  and  C_32
   11  A    between atoms: C_32  and  C_36
   12  A    between atoms: N_39  and  C_40
                            x       y       z     vdW  Elec       q    Type
                         _______ _______ _______ _____ _____    ______ ____

>  <TORSDO>
F 12

$$$$
=
 OpenBabel11072410583D

 42 46  0  0  1  0  0  0  0  0999 V2000
  161.9150  207.7340  148.9400 C   0  0  0  0  0  0  0  0  0  0  0  0
  161.2190  205.0550  148.5220 N   0  0  0  0  0  0  0  0  0  0  0  0
  160.8970  205.6000  149.6520 C   0  0  0  0  0  0  0  0  0  0  0  0
  162.1600  207.1750  147.7460 C   0  0  0  0  0  3  0  0  0  0  0  0
  161.4760  205.8900  147.3510 C   0  0  0  0  0  2  0  0  0  0  0  0
  160.9310  205.7660  151.9600 N   0  0  0  0  0  2  0  0  0  0  0  0
  161.3360  207.0700  151.3930 C   0  0  2  0  0  0  0  0  0  0  0  0
  160.9580  207.0510  149.8950 C   0  0  1  0  0  3  0  0  0  0  0  0
  160.8670  204.8890  150.8610 N   0  0  0  0  0  2  0  0  0  0  0  0
  162.7180  207.2250  151.5560 O   0  0  0  0  0  1  0  0  0  0  0  0
  162.4720  209.0070  149.2920 N   0  0  0  0  0  2  0  0  0  0  0  0
  161.7100  210.2510  149.3620 C   0  0  0  0  0  2  0  0  0  0  0  0
  163.4720  210.9600  147.8930 O   0  0  0  0  0  1  0  0  0  0  0  0
  162.1510  211.2190  148.2710 C   0  0  2  0  0  3  0  0  0  0  0  0
  162.7330  213.7220  147.9210 C   0  0  0  0  0  2  0  0  0  0  0  0
  159.9760  213.4400  147.2660 C   0  0  2  0  0  3  0  0  0  0  0  0
  162.2540  213.8420  146.6030 O   0  0  0  0  0  0  0  0  0  0  0  0
  161.9260  212.6710  148.7060 C   0  0  1  0  0  3  0  0  0  0  0  0
  160.9830  214.4330  146.6860 C   0  0  0  0  0  2  0  0  0  0  0  0
  160.4380  213.0170  148.6670 C   0  0  0  0  0  2  0  0  0  0  0  0
  159.8690  212.2840  146.3910 N   0  0  0  0  0  2  0  0  0  0  0  0
  159.2240  212.7110  145.1580 C   0  0  2  0  0  3  0  0  0  0  0  0
  157.8480  212.5380  145.2830 O   0  0  0  0  0  1  0  0  0  0  0  0
  159.7110  211.9070  144.0470 N   0  0  0  0  0  2  0  0  0  0  0  0
  161.4850  211.9860  141.1860 C   0  0  0  0  0  0  0  0  0  0  0  0
  160.2420  212.3930  140.5700 C   0  0  0  0  0  0  0  0  0  0  0  0
  162.6280  211.3920  140.4420 C   0  0  0  0  0  1  0  0  0  0  0  0
  161.5220  212.2080  142.4840 C   0  0  0  0  0  3  0  0  0  0  0  0
  159.0750  213.0980  141.7100 S   0  0  0  0  0  0  0  0  0  0  0  0
  160.0040  212.2710  139.3360 O   0  0  0  0  0  0  0  0  0  0  0  0
  160.2820  212.8160  143.0650 C   0  0  1  0  0  3  0  0  0  0  0  0
  160.5880  208.2060  152.0910 C   0  0  0  0  0  2  0  0  0  0  0  0
  161.4700  209.3830  154.1480 N   0  0  0  0  0  2  0  0  0  0  0  0
  160.4860  207.2710  154.2810 O   0  0  0  0  0  0  0  0  0  0  0  0
  160.8540  208.2370  153.5620 C   0  0  0  0  0  0  0  0  0  0  0  0
  162.5960  210.6510  155.8870 C   0  0  0  0  0  2  0  0  0  0  0  0
  161.6370  209.5190  155.5920 C   0  0  1  0  0  3  0  0  0  0  0  0
  161.1150  210.8600  156.1180 C   0  0  2  0  0  3  0  0  0  0  0  0
  158.3370  211.3410  155.6690 O   0  0  0  0  0  0  0  0  0  0  0  0
  160.5650  211.6960  155.0550 N   0  0  0  0  0  2  0  0  0  0  0  0
  159.1620  211.9140  154.9070 C   0  0  0  0  0  0  0  0  0  0  0  0
  158.6900  212.7760  153.8780 N   0  0  0  0  0  1  0  0  0  0  0  0
  1 11  1  0  0  0  0
  2  3  2  0  0  0  0
  3  8  1  0  0  0  0
  3  9  1  0  0  0  0
  4  1  2  0  0  0  0
  5  4  1  0  0  0  0
  5  2  1  0  0  0  0
  7 10  1  1  0  0  0
  7  6  1  0  0  0  0
  7 32  1  0  0  0  0
  8  1  1  6  0  0  0
  8  7  1  0  0  0  0
  9  6  1  0  0  0  0
 11 12  1  0  0  0  0
 14 13  1  1  0  0  0
 14 12  1  0  0  0  0
 15 18  1  0  0  0  0
 16 21  1  6  0  0  0
 16 20  1  0  0  0  0
 17 19  1  0  0  0  0
 17 15  1  0  0  0  0
 18 14  1  6  0  0  0
 19 16  1  0  0  0  0
 20 18  1  0  0  0  0
 22 23  1  1  0  0  0
 22 21  1  0  0  0  0
 24 22  1  0  0  0  0
 25 28  2  0  0  0  0
 26 25  1  0  0  0  0
 26 29  1  0  0  0  0
 27 25  1  0  0  0  0
 28 31  1  0  0  0  0
 29 31  1  0  0  0  0
 30 26  2  0  0  0  0
 31 24  1  1  0  0  0
 32 35  1  0  0  0  0
 35 33  1  0  0  0  0
 35 34  2  0  0  0  0
 36 38  1  0  0  0  0
 37 33  1  6  0  0  0
 37 36  1  0  0  0  0
 37 38  1  0  0  0  0
 38 40  1  6  0  0  0
 41 40  1  0  0  0  0
 41 39  2  0  0  0  0
 42 41  1  0  0  0  0
M  END
>  <MODEL>
5

>  <REMARK>
 VINA RESULT:      -6.4      3.367      7.394
  Name = 
  12 active torsions:
  status: ('A' for Active; 'I' for Inactive)
    1  A    between atoms: N_1  and  C_33
    2  A    between atoms: C_3  and  N_4
    3  A    between atoms: N_4  and  C_9
    4  A    between atoms: C_9  and  C_29
    5  A    between atoms: C_11  and  N_25
    6  A    between atoms: C_13  and  N_25
    7  A    between atoms: C_13  and  N_39
    8  A    between atoms: C_15  and  C_29
    9  A    between atoms: N_16  and  C_42
   10  A    between atoms: C_24  and  C_32
   11  A    between atoms: C_32  and  C_36
   12  A    between atoms: N_39  and  C_40
                            x       y       z     vdW  Elec       q    Type
                         _______ _______ _______ _____ _____    ______ ____

>  <TORSDO>
F 12

$$$$
=
 OpenBabel11072410583D

 42 46  0  0  1  0  0  0  0  0999 V2000
  161.5430  208.6000  151.5110 C   0  0  0  0  0  0  0  0  0  0  0  0
  160.8840  206.8920  153.6300 N   0  0  0  0  0  0  0  0  0  0  0  0
  161.3130  206.3620  152.5290 C   0  0  0  0  0  0  0  0  0  0  0  0
  161.1810  209.1300  152.6890 C   0  0  0  0  0  2  0  0  0  0  0  0
  161.1890  208.2870  153.9390 C   0  0  0  0  0  2  0  0  0  0  0  0
  161.1260  204.9810  150.6810 N   0  0  0  0  0  2  0  0  0  0  0  0
  161.4680  206.3410  150.2130 C   0  0  2  0  0  0  0  0  0  0  0  0
  161.9410  207.1400  151.4480 C   0  0  1  0  0  3  0  0  0  0  0  0
  160.8670  205.1170  152.0570 N   0  0  0  0  0  2  0  0  0  0  0  0
  160.3280  206.9250  149.6480 O   0  0  0  0  0  1  0  0  0  0  0  0
  161.6430  209.4090  150.3330 N   0  0  0  0  0  0  0  0  0  0  0  0
  161.4030  210.8500  150.2970 C   0  0  0  0  0  2  0  0  0  0  0  0
  162.4390  210.5550  148.1520 O   0  0  0  0  0  1  0  0  0  0  0  0
  161.6030  211.3980  148.8900 C   0  0  2  0  0  3  0  0  0  0  0  0
  163.3770  213.1250  148.1200 C   0  0  0  0  0  2  0  0  0  0  0  0
  160.9020  213.9580  146.9850 C   0  0  2  0  0  3  0  0  0  0  0  0
  163.1190  213.0550  146.7380 O   0  0  0  0  0  0  0  0  0  0  0  0
  162.1000  212.8460  148.9340 C   0  0  1  0  0  3  0  0  0  0  0  0
  162.3090  214.1580  146.4210 C   0  0  0  0  0  2  0  0  0  0  0  0
  160.9900  213.8070  148.5100 C   0  0  0  0  0  2  0  0  0  0  0  0
  160.2970  212.7800  146.3870 N   0  0  0  0  0  2  0  0  0  0  0  0
  159.2470  213.2220  145.4830 C   0  0  2  0  0  3  0  0  0  0  0  0
  158.2990  212.2100  145.3570 O   0  0  0  0  0  1  0  0  0  0  0  0
  159.8160  213.5120  144.1750 N   0  0  0  0  0  2  0  0  0  0  0  0
  160.5070  211.6920  141.4280 C   0  0  0  0  0  0  0  0  0  0  0  0
  161.8540  212.1930  141.5820 C   0  0  0  0  0  0  0  0  0  0  0  0
  159.9620  211.1500  140.1540 C   0  0  0  0  0  1  0  0  0  0  0  0
  159.7980  211.7420  142.5370 C   0  0  0  0  0  3  0  0  0  0  0  0
  162.2260  212.7460  143.2300 S   0  0  0  0  0  0  0  0  0  0  0  0
  162.6960  212.2300  140.6430 O   0  0  0  0  0  0  0  0  0  0  0  0
  160.5110  212.3150  143.7250 C   0  0  1  0  0  3  0  0  0  0  0  0
  162.5980  206.2790  149.1860 C   0  0  0  0  0  2  0  0  0  0  0  0
  161.6060  205.3760  147.0420 N   0  0  0  0  0  2  0  0  0  0  0  0
  162.0810  207.6460  147.3030 O   0  0  0  0  0  0  0  0  0  0  0  0
  162.1030  206.4850  147.7900 C   0  0  0  0  0  0  0  0  0  0  0  0
  161.9630  205.0880  144.6560 C   0  0  0  0  0  2  0  0  0  0  0  0
  160.9950  205.5410  145.7270 C   0  0  1  0  0  3  0  0  0  0  0  0
  160.7850  204.2050  145.0060 C   0  0  2  0  0  3  0  0  0  0  0  0
  159.6720  201.5770  144.9200 O   0  0  0  0  0  0  0  0  0  0  0  0
  161.2420  203.0690  145.8020 N   0  0  0  0  0  2  0  0  0  0  0  0
  160.6540  201.7730  145.6860 C   0  0  0  0  0  0  0  0  0  0  0  0
  161.1740  200.6950  146.4550 N   0  0  0  0  0  1  0  0  0  0  0  0
  1  4  1  0  0  0  0
  2  5  1  0  0  0  0
  3  2  2  0  0  0  0
  4  5  1  0  0  0  0
  6  9  1  0  0  0  0
  7 10  1  6  0  0  0
  7  6  1  0  0  0  0
  7  8  1  0  0  0  0
  8  1  1  6  0  0  0
  8  3  1  0  0  0  0
  9  3  1  0  0  0  0
 11  1  2  0  0  0  0
 12 11  1  0  0  0  0
 14 13  1  1  0  0  0
 14 12  1  0  0  0  0
 15 18  1  0  0  0  0
 16 21  1  6  0  0  0
 16 20  1  0  0  0  0
 17 15  1  0  0  0  0
 18 14  1  6  0  0  0
 19 17  1  0  0  0  0
 19 16  1  0  0  0  0
 20 18  1  0  0  0  0
 22 23  1  6  0  0  0
 22 21  1  0  0  0  0
 24 22  1  0  0  0  0
 25 26  1  0  0  0  0
 25 28  2  0  0  0  0
 26 29  1  0  0  0  0
 27 25  1  0  0  0  0
 28 31  1  0  0  0  0
 29 31  1  0  0  0  0
 30 26  2  0  0  0  0
 31 24  1  6  0  0  0
 32  7  1  0  0  0  0
 33 35  1  0  0  0  0
 34 35  2  0  0  0  0
 35 32  1  0  0  0  0
 36 38  1  0  0  0  0
 36 37  1  0  0  0  0
 37 33  1  1  0  0  0
 38 37  1  0  0  0  0
 38 40  1  1  0  0  0
 39 41  2  0  0  0  0
 41 40  1  0  0  0  0
 41 42  1  0  0  0  0
M  END
>  <MODEL>
6

>  <REMARK>
 VINA RESULT:      -6.1      3.263      4.857
  Name = 
  12 active torsions:
  status: ('A' for Active; 'I' for Inactive)
    1  A    between atoms: N_1  and  C_33
    2  A    between atoms: C_3  and  N_4
    3  A    between atoms: N_4  and  C_9
    4  A    between atoms: C_9  and  C_29
    5  A    between atoms: C_11  and  N_25
    6  A    between atoms: C_13  and  N_25
    7  A    between atoms: C_13  and  N_39
    8  A    between atoms: C_15  and  C_29
    9  A    between atoms: N_16  and  C_42
   10  A    between atoms: C_24  and  C_32
   11  A    between atoms: C_32  and  C_36
   12  A    between atoms: N_39  and  C_40
                            x       y       z     vdW  Elec       q    Type
                         _______ _______ _______ _____ _____    ______ ____

>  <TORSDO>
F 12

$$$$
=
 OpenBabel11072410583D

 42 46  0  0  1  0  0  0  0  0999 V2000
  161.3000  208.3560  151.8900 C   0  0  0  0  0  0  0  0  0  0  0  0
  160.9440  206.5990  154.0410 N   0  0  0  0  0  0  0  0  0  0  0  0
  161.3220  206.1050  152.9050 C   0  0  0  0  0  0  0  0  0  0  0  0
  160.9950  208.8550  153.0970 C   0  0  0  0  0  3  0  0  0  0  0  0
  161.1670  208.0120  154.3360 C   0  0  0  0  0  2  0  0  0  0  0  0
  161.0930  204.7170  151.0670 N   0  0  0  0  0  2  0  0  0  0  0  0
  161.2930  206.1000  150.5840 C   0  0  2  0  0  0  0  0  0  0  0  0
  161.8010  206.9310  151.7840 C   0  0  1  0  0  3  0  0  0  0  0  0
  160.9360  204.8310  152.4610 N   0  0  0  0  0  2  0  0  0  0  0  0
  160.0710  206.5970  150.1170 O   0  0  0  0  0  1  0  0  0  0  0  0
  161.2440  209.1720  150.7140 N   0  0  0  0  0  2  0  0  0  0  0  0
  161.9880  210.4170  150.5360 C   0  0  0  0  0  2  0  0  0  0  0  0
  162.3080  210.0100  148.1920 O   0  0  0  0  0  1  0  0  0  0  0  0
  161.8300  210.9450  149.1150 C   0  0  2  0  0  3  0  0  0  0  0  0
  163.0980  212.6110  147.5860 C   0  0  0  0  0  2  0  0  0  0  0  0
  160.5860  213.8160  148.1770 C   0  0  2  0  0  3  0  0  0  0  0  0
  162.0930  212.7750  146.6150 O   0  0  0  0  0  0  0  0  0  0  0  0
  162.4850  212.3220  148.9690 C   0  0  1  0  0  3  0  0  0  0  0  0
  161.4330  213.9790  146.9140 C   0  0  0  0  0  2  0  0  0  0  0  0
  161.5000  213.4270  149.3460 C   0  0  0  0  0  2  0  0  0  0  0  0
  159.5710  212.7990  147.9580 N   0  0  0  0  0  2  0  0  0  0  0  0
  158.2720  213.3910  148.2410 C   0  0  2  0  0  3  0  0  0  0  0  0
  157.9440  214.2750  147.2160 O   0  0  0  0  0  1  0  0  0  0  0  0
  158.3290  214.1150  149.5020 N   0  0  0  0  0  2  0  0  0  0  0  0
  158.5250  212.9100  152.6400 C   0  0  0  0  0  0  0  0  0  0  0  0
  157.5230  213.9030  152.9540 C   0  0  0  0  0  0  0  0  0  0  0  0
  159.4140  212.2760  153.6510 C   0  0  0  0  0  1  0  0  0  0  0  0
  158.5710  212.5980  151.3610 C   0  0  0  0  0  3  0  0  0  0  0  0
  156.5940  214.4530  151.5420 S   0  0  0  0  0  0  0  0  0  0  0  0
  157.3140  214.3380  154.1200 O   0  0  0  0  0  0  0  0  0  0  0  0
  157.5980  213.3330  150.4890 C   0  0  1  0  0  3  0  0  0  0  0  0
  162.3390  206.1260  149.4690 C   0  0  0  0  0  2  0  0  0  0  0  0
  161.8470  205.4270  147.0900 N   0  0  0  0  0  2  0  0  0  0  0  0
  161.0720  207.4530  147.9480 O   0  0  0  0  0  0  0  0  0  0  0  0
  161.7290  206.3950  148.1310 C   0  0  0  0  0  0  0  0  0  0  0  0
  162.0630  205.0880  144.6940 C   0  0  0  0  0  2  0  0  0  0  0  0
  161.1650  205.5800  145.8080 C   0  0  1  0  0  3  0  0  0  0  0  0
  160.8900  204.2360  145.1260 C   0  0  2  0  0  3  0  0  0  0  0  0
  159.6320  201.6770  145.2740 O   0  0  0  0  0  0  0  0  0  0  0  0
  161.3690  203.1050  145.9170 N   0  0  0  0  0  2  0  0  0  0  0  0
  160.7020  201.8430  145.9210 C   0  0  0  0  0  0  0  0  0  0  0  0
  161.2430  200.7650  146.6760 N   0  0  0  0  0  1  0  0  0  0  0  0
  1  4  2  0  0  0  0
  2  5  1  0  0  0  0
  3  2  2  0  0  0  0
  4  5  1  0  0  0  0
  6  9  1  0  0  0  0
  7 10  1  6  0  0  0
  7  6  1  0  0  0  0
  7  8  1  0  0  0  0
  8  1  1  1  0  0  0
  8  3  1  0  0  0  0
  9  3  1  0  0  0  0
 11  1  1  0  0  0  0
 12 11  1  0  0  0  0
 14 13  1  6  0  0  0
 14 12  1  0  0  0  0
 15 18  1  0  0  0  0
 16 21  1  6  0  0  0
 16 20  1  0  0  0  0
 17 19  1  0  0  0  0
 17 15  1  0  0  0  0
 18 14  1  6  0  0  0
 18 20  1  0  0  0  0
 19 16  1  0  0  0  0
 21 22  1  0  0  0  0
 22 23  1  6  0  0  0
 22 24  1  0  0  0  0
 25 26  1  0  0  0  0
 25 27  1  0  0  0  0
 26 30  2  0  0  0  0
 28 25  2  0  0  0  0
 29 26  1  0  0  0  0
 31 24  1  6  0  0  0
 31 28  1  0  0  0  0
 31 29  1  0  0  0  0
 32  7  1  0  0  0  0
 33 35  1  0  0  0  0
 34 35  2  0  0  0  0
 35 32  1  0  0  0  0
 36 38  1  0  0  0  0
 36 37  1  0  0  0  0
 37 33  1  1  0  0  0
 38 37  1  0  0  0  0
 38 40  1  1  0  0  0
 39 41  2  0  0  0  0
 40 41  1  0  0  0  0
 41 42  1  0  0  0  0
M  END
>  <MODEL>
7

>  <REMARK>
 VINA RESULT:      -6.0      1.776      4.115
  Name = 
  12 active torsions:
  status: ('A' for Active; 'I' for Inactive)
    1  A    between atoms: N_1  and  C_33
    2  A    between atoms: C_3  and  N_4
    3  A    between atoms: N_4  and  C_9
    4  A    between atoms: C_9  and  C_29
    5  A    between atoms: C_11  and  N_25
    6  A    between atoms: C_13  and  N_25
    7  A    between atoms: C_13  and  N_39
    8  A    between atoms: C_15  and  C_29
    9  A    between atoms: N_16  and  C_42
   10  A    between atoms: C_24  and  C_32
   11  A    between atoms: C_32  and  C_36
   12  A    between atoms: N_39  and  C_40
                            x       y       z     vdW  Elec       q    Type
                         _______ _______ _______ _____ _____    ______ ____

>  <TORSDO>
F 12

$$$$
=
 OpenBabel11072410583D

 42 46  0  0  1  0  0  0  0  0999 V2000
  160.8820  208.2340  154.3760 C   0  0  0  0  0  0  0  0  0  0  0  0
  160.1380  208.8210  157.0110 N   0  0  0  0  0  0  0  0  0  0  0  0
  159.8210  209.6680  156.0840 C   0  0  0  0  0  0  0  0  0  0  0  0
  161.1220  207.3320  155.3390 C   0  0  0  0  0  3  0  0  0  0  0  0
  160.4160  207.4280  156.6680 C   0  0  0  0  0  2  0  0  0  0  0  0
  159.8480  211.7550  155.0830 N   0  0  0  0  0  2  0  0  0  0  0  0
  160.2800  210.7540  154.0840 C   0  0  2  0  0  0  0  0  0  0  0  0
  159.9090  209.3630  154.6460 C   0  0  1  0  0  3  0  0  0  0  0  0
  159.7730  211.0540  156.3010 N   0  0  0  0  0  2  0  0  0  0  0  0
  161.6640  210.8640  153.9030 O   0  0  0  0  0  1  0  0  0  0  0  0
  161.4620  208.1010  153.0730 N   0  0  0  0  0  2  0  0  0  0  0  0
  160.7250  207.6930  151.8790 C   0  0  0  0  0  2  0  0  0  0  0  0
  162.9120  208.0000  150.9380 O   0  0  0  0  0  1  0  0  0  0  0  0
  161.6800  207.3700  150.7360 C   0  0  2  0  0  3  0  0  0  0  0  0
  162.0430  208.0850  148.2700 C   0  0  0  0  0  2  0  0  0  0  0  0
  160.9210  205.4690  148.1900 C   0  0  2  0  0  3  0  0  0  0  0  0
  162.7800  206.9600  147.8570 O   0  0  0  0  0  0  0  0  0  0  0  0
  161.0470  207.7110  149.3840 C   0  0  1  0  0  3  0  0  0  0  0  0
  161.8830  206.1100  147.1900 C   0  0  0  0  0  2  0  0  0  0  0  0
  160.1410  206.5740  148.9140 C   0  0  0  0  0  2  0  0  0  0  0  0
  161.6700  204.6620  149.1400 N   0  0  0  0  0  2  0  0  0  0  0  0
  160.8420  203.5270  149.5190 C   0  0  2  0  0  3  0  0  0  0  0  0
  160.5380  203.6200  150.8750 O   0  0  0  0  0  1  0  0  0  0  0  0
  161.5660  202.2890  149.2710 N   0  0  0  0  0  2  0  0  0  0  0  0
  160.4710  201.2700  146.2550 C   0  0  0  0  0  0  0  0  0  0  0  0
  161.2060  200.0560  146.5330 C   0  0  0  0  0  0  0  0  0  0  0  0
  160.0720  201.7060  144.8900 C   0  0  0  0  0  1  0  0  0  0  0  0
  160.1660  201.9570  147.3360 C   0  0  0  0  0  3  0  0  0  0  0  0
  161.5100  199.7860  148.2640 S   0  0  0  0  0  0  0  0  0  0  0  0
  161.5910  199.2540  145.6390 O   0  0  0  0  0  0  0  0  0  0  0  0
  160.6450  201.3640  148.6270 C   0  0  1  0  0  3  0  0  0  0  0  0
  159.5510  210.9770  152.7600 C   0  0  0  0  0  2  0  0  0  0  0  0
  157.7260  212.7050  153.0410 N   0  0  0  0  0  2  0  0  0  0  0  0
  159.8190  213.2740  152.1830 O   0  0  0  0  0  0  0  0  0  0  0  0
  159.0500  212.3790  152.6220 C   0  0  0  0  0  0  0  0  0  0  0  0
  155.7730  214.0940  152.6440 C   0  0  0  0  0  2  0  0  0  0  0  0
  157.2310  214.0780  153.0480 C   0  0  1  0  0  3  0  0  0  0  0  0
  156.1370  214.3020  154.0980 C   0  0  2  0  0  3  0  0  0  0  0  0
  157.2570  213.6330  156.6380 O   0  0  0  0  0  0  0  0  0  0  0  0
  155.8420  213.0900  154.8570 N   0  0  0  0  0  2  0  0  0  0  0  0
  156.4200  212.8340  156.1380 C   0  0  0  0  0  0  0  0  0  0  0  0
  156.0580  211.6560  156.8490 N   0  0  0  0  0  1  0  0  0  0  0  0
  1  4  2  0  0  0  0
  3  9  1  0  0  0  0
  3  2  2  0  0  0  0
  4  5  1  0  0  0  0
  5  2  1  0  0  0  0
  6  9  1  0  0  0  0
  7 10  1  6  0  0  0
  7  8  1  0  0  0  0
  7  6  1  0  0  0  0
  8  1  1  1  0  0  0
  8  3  1  0  0  0  0
 11  1  1  0  0  0  0
 12 11  1  0  0  0  0
 14 13  1  1  0  0  0
 14 12  1  0  0  0  0
 15 18  1  0  0  0  0
 16 20  1  0  0  0  0
 16 21  1  1  0  0  0
 17 15  1  0  0  0  0
 18 14  1  1  0  0  0
 19 17  1  0  0  0  0
 19 16  1  0  0  0  0
 20 18  1  0  0  0  0
 21 22  1  0  0  0  0
 22 23  1  1  0  0  0
 24 22  1  0  0  0  0
 25 26  1  0  0  0  0
 25 28  2  0  0  0  0
 26 29  1  0  0  0  0
 27 25  1  0  0  0  0
 28 31  1  0  0  0  0
 29 31  1  0  0  0  0
 30 26  2  0  0  0  0
 31 24  1  6  0  0  0
 32  7  1  0  0  0  0
 34 35  2  0  0  0  0
 35 32  1  0  0  0  0
 35 33  1  0  0  0  0
 36 37  1  0  0  0  0
 36 38  1  0  0  0  0
 37 33  1  1  0  0  0
 37 38  1  0  0  0  0
 38 40  1  1  0  0  0
 40 41  1  0  0  0  0
 41 39  2  0  0  0  0
 41 42  1  0  0  0  0
M  END
>  <MODEL>
8

>  <REMARK>
 VINA RESULT:      -5.8      3.267      9.794
  Name = 
  12 active torsions:
  status: ('A' for Active; 'I' for Inactive)
    1  A    between atoms: N_1  and  C_33
    2  A    between atoms: C_3  and  N_4
    3  A    between atoms: N_4  and  C_9
    4  A    between atoms: C_9  and  C_29
    5  A    between atoms: C_11  and  N_25
    6  A    between atoms: C_13  and  N_25
    7  A    between atoms: C_13  and  N_39
    8  A    between atoms: C_15  and  C_29
    9  A    between atoms: N_16  and  C_42
   10  A    between atoms: C_24  and  C_32
   11  A    between atoms: C_32  and  C_36
   12  A    between atoms: N_39  and  C_40
                            x       y       z     vdW  Elec       q    Type
                         _______ _______ _______ _____ _____    ______ ____

>  <TORSDO>
F 12

$$$$
=
 OpenBabel11072410583D

 42 46  0  0  1  0  0  0  0  0999 V2000
  161.0800  206.7380  151.7310 C   0  0  0  0  0  0  0  0  0  0  0  0
  161.0520  203.9950  152.2940 N   0  0  0  0  0  0  0  0  0  0  0  0
  161.3300  204.3680  151.0850 C   0  0  0  0  0  0  0  0  0  0  0  0
  160.8810  206.3320  152.9940 C   0  0  0  0  0  3  0  0  0  0  0  0
  161.2310  204.9240  153.4060 C   0  0  0  0  0  2  0  0  0  0  0  0
  160.9760  204.4260  148.7980 N   0  0  0  0  0  2  0  0  0  0  0  0
  161.0490  205.8170  149.2930 C   0  0  2  0  0  0  0  0  0  0  0  0
  161.6410  205.7600  150.7200 C   0  0  1  0  0  3  0  0  0  0  0  0
  160.9650  203.6220  149.9530 N   0  0  0  0  0  2  0  0  0  0  0  0
  159.7590  206.3600  149.3100 O   0  0  0  0  0  1  0  0  0  0  0  0
  160.8540  208.0990  151.3450 N   0  0  0  0  0  2  0  0  0  0  0  0
  161.5180  209.2510  151.9510 C   0  0  0  0  0  2  0  0  0  0  0  0
  160.8060  211.4230  152.6830 O   0  0  0  0  0  1  0  0  0  0  0  0
  160.5420  210.0550  152.8000 C   0  0  2  0  0  3  0  0  0  0  0  0
  161.7480  210.0360  155.0950 C   0  0  0  0  0  2  0  0  0  0  0  0
  159.2630  211.3660  155.5060 C   0  0  2  0  0  3  0  0  0  0  0  0
  161.6650  211.4150  155.3610 O   0  0  0  0  0  0  0  0  0  0  0  0
  160.5490  209.5650  154.2510 C   0  0  1  0  0  3  0  0  0  0  0  0
  160.5840  211.5950  156.2400 C   0  0  0  0  0  2  0  0  0  0  0  0
  159.2410  209.9360  154.9490 C   0  0  0  0  0  2  0  0  0  0  0  0
  159.1250  212.3370  154.4330 N   0  0  0  0  0  2  0  0  0  0  0  0
  157.9240  213.1190  154.6860 C   0  0  2  0  0  3  0  0  0  0  0  0
  157.3790  212.7320  155.9070 O   0  0  0  0  0  1  0  0  0  0  0  0
  156.9530  212.8810  153.6280 N   0  0  0  0  0  2  0  0  0  0  0  0
  156.8380  214.0390  150.4690 C   0  0  0  0  0  0  0  0  0  0  0  0
  155.4460  214.3140  150.7490 C   0  0  0  0  0  0  0  0  0  0  0  0
  157.3990  213.9040  149.0980 C   0  0  0  0  0  1  0  0  0  0  0  0
  157.5800  213.9350  151.5520 C   0  0  0  0  0  3  0  0  0  0  0  0
  155.0800  214.4520  152.4830 S   0  0  0  0  0  0  0  0  0  0  0  0
  154.5690  214.4530  149.8530 O   0  0  0  0  0  0  0  0  0  0  0  0
  156.8460  214.1050  152.8480 C   0  0  1  0  0  3  0  0  0  0  0  0
  161.9650  206.6500  148.3970 C   0  0  0  0  0  2  0  0  0  0  0  0
  160.6040  206.0460  146.3540 N   0  0  0  0  0  2  0  0  0  0  0  0
  162.9350  206.1060  146.2890 O   0  0  0  0  0  0  0  0  0  0  0  0
  161.8800  206.2360  146.9630 C   0  0  0  0  0  0  0  0  0  0  0  0
  161.7580  205.2090  144.3870 C   0  0  0  0  0  2  0  0  0  0  0  0
  160.4600  205.7670  144.9280 C   0  0  1  0  0  3  0  0  0  0  0  0
  160.5880  204.2740  144.6070 C   0  0  2  0  0  3  0  0  0  0  0  0
  160.0290  201.4850  144.8510 O   0  0  0  0  0  0  0  0  0  0  0  0
  160.8220  203.4690  145.8030 N   0  0  0  0  0  2  0  0  0  0  0  0
  160.5430  202.0690  145.8430 C   0  0  0  0  0  0  0  0  0  0  0  0
  160.8350  201.3290  147.0230 N   0  0  0  0  0  1  0  0  0  0  0  0
  1  4  2  0  0  0  0
  2  5  1  0  0  0  0
  3  2  2  0  0  0  0
  4  5  1  0  0  0  0
  6  7  1  0  0  0  0
  6  9  1  0  0  0  0
  7 10  1  1  0  0  0
  7  8  1  0  0  0  0
  8  3  1  1  0  0  0
  8  1  1  0  0  0  0
  9  3  1  0  0  0  0
 11  1  1  0  0  0  0
 11 12  1  0  0  0  0
 12 14  1  0  0  0  0
 14 13  1  1  0  0  0
 15 17  1  0  0  0  0
 16 21  1  6  0  0  0
 16 19  1  0  0  0  0
 17 19  1  0  0  0  0
 18 14  1  6  0  0  0
 18 20  1  0  0  0  0
 18 15  1  0  0  0  0
 20 16  1  0  0  0  0
 21 22  1  0  0  0  0
 22 23  1  1  0  0  0
 24 22  1  0  0  0  0
 25 26  1  0  0  0  0
 25 28  2  0  0  0  0
 26 29  1  0  0  0  0
 27 25  1  0  0  0  0
 28 31  1  0  0  0  0
 29 31  1  0  0  0  0
 30 26  2  0  0  0  0
 31 24  1  1  0  0  0
 32  7  1  0  0  0  0
 33 35  1  0  0  0  0
 34 35  2  0  0  0  0
 35 32  1  0  0  0  0
 36 38  1  0  0  0  0
 36 37  1  0  0  0  0
 37 33  1  1  0  0  0
 38 37  1  0  0  0  0
 38 40  1  1  0  0  0
 39 41  2  0  0  0  0
 40 41  1  0  0  0  0
 41 42  1  0  0  0  0
M  END
>  <MODEL>
9

>  <REMARK>
 VINA RESULT:      -5.7      2.396      3.099
  Name = 
  12 active torsions:
  status: ('A' for Active; 'I' for Inactive)
    1  A    between atoms: N_1  and  C_33
    2  A    between atoms: C_3  and  N_4
    3  A    between atoms: N_4  and  C_9
    4  A    between atoms: C_9  and  C_29
    5  A    between atoms: C_11  and  N_25
    6  A    between atoms: C_13  and  N_25
    7  A    between atoms: C_13  and  N_39
    8  A    between atoms: C_15  and  C_29
    9  A    between atoms: N_16  and  C_42
   10  A    between atoms: C_24  and  C_32
   11  A    between atoms: C_32  and  C_36
   12  A    between atoms: N_39  and  C_40
                            x       y       z     vdW  Elec       q    Type
                         _______ _______ _______ _____ _____    ______ ____

>  <TORSDO>
F 12

$$$$
