=
 OpenBabel11072412153D

 38 42  0  0  1  0  0  0  0  0999 V2000
  161.4720  208.0780  152.5240 N   0  0  0  0  0  2  0  0  0  0  0  0
  161.9960  209.8990  151.0080 C   0  0  0  0  0  3  0  0  0  0  0  0
  161.5210  207.7420  150.0420 C   0  0  0  0  0  0  0  0  0  0  0  0
  162.1690  210.3970  149.7570 N   0  0  0  0  0  0  0  0  0  0  0  0
  161.6570  208.5590  151.1840 C   0  0  0  0  0  0  0  0  0  0  0  0
  162.0250  209.6280  148.6770 N   0  0  0  0  0  0  0  0  0  0  0  0
  161.7090  208.3130  148.7830 C   0  0  0  0  0  3  0  0  0  0  0  0
  161.2320  206.2770  150.1170 C   0  0  0  0  0  2  0  0  0  0  0  0
  161.0860  205.6730  148.7240 C   0  0  0  0  0  2  0  0  0  0  0  0
  161.3980  203.4310  147.5270 C   0  0  2  0  0  3  0  0  0  0  0  0
  160.4620  202.1290  150.1940 C   0  0  0  0  0  2  0  0  0  0  0  0
  161.5830  201.3070  149.5790 C   0  0  0  0  0  2  0  0  0  0  0  0
  160.6440  203.6010  149.9440 C   0  0  0  0  0  3  0  0  0  0  0  0
  161.2710  200.9490  148.1260 C   0  0  0  0  0  2  0  0  0  0  0  0
  160.6580  202.1070  147.3280 C   0  0  2  0  0  3  0  0  0  0  0  0
  162.7710  203.2660  147.4660 F   0  0  0  0  0  0  0  0  0  0  0  0
  161.0050  204.1800  148.7790 C   0  0  0  0  0  0  0  0  0  0  0  0
  160.5850  201.7540  145.8800 C   0  0  0  0  0  0  0  0  0  0  0  0
  160.5980  202.7470  144.9080 O   0  0  0  0  0  0  0  0  0  0  0  0
  160.5210  200.5460  145.5370 O   0  0  0  0  0  1  0  0  0  0  0  0
  160.4780  208.5010  153.3420 O   0  0  0  0  0  0  0  0  0  0  0  0
  161.1270  208.9480  154.4970 C   0  0  0  0  0  2  0  0  0  0  0  0
  158.9700  209.7980  155.0630 O   0  0  0  0  0  0  0  0  0  0  0  0
  160.1160  209.1930  155.6160 C   0  0  2  0  0  3  0  0  0  0  0  0
  160.1260  211.4300  156.3920 C   0  0  0  0  0  2  0  0  0  0  0  0
  158.9000  211.1190  155.5620 C   0  0  1  0  0  3  0  0  0  0  0  0
  160.6180  210.0710  156.7560 C   0  0  2  0  0  3  0  0  0  0  0  0
  158.7540  212.1140  154.4180 C   0  0  2  0  0  0  0  0  0  0  0  0
  157.5730  213.0580  154.5880 C   0  0  1  0  0  3  0  0  0  0  0  0
  159.0640  211.6530  152.9830 C   0  0  0  0  0  2  0  0  0  0  0  0
  157.9500  213.8130  152.1280 C   0  0  2  0  0  3  0  0  0  0  0  0
  159.0040  213.5630  154.7950 C   0  0  0  0  0  2  0  0  0  0  0  0
  159.0730  212.7850  151.9500 C   0  0  0  0  0  2  0  0  0  0  0  0
  156.9500  213.4670  153.2380 C   0  0  0  0  0  2  0  0  0  0  0  0
  157.2730  213.9870  150.9220 O   0  0  0  0  0  1  0  0  0  0  0  0
  162.6620  208.9490  157.2610 O   0  0  0  0  0  1  0  0  0  0  0  0
  162.8440  211.2150  156.9880 O   0  0  0  0  0  0  0  0  0  0  0  0
  162.0930  210.0450  157.0230 C   0  0  0  0  0  0  0  0  0  0  0  0
  1 21  1  0  0  0  0
  2  5  1  0  0  0  0
  3  8  1  0  0  0  0
  3  5  2  0  0  0  0
  4  2  2  0  0  0  0
  5  1  1  0  0  0  0
  6  7  2  0  0  0  0
  6  4  1  0  0  0  0
  7  3  1  0  0  0  0
  9 17  1  0  0  0  0
  9  8  1  0  0  0  0
 10 16  1  1  0  0  0
 10 17  1  0  0  0  0
 12 11  1  0  0  0  0
 13 11  1  0  0  0  0
 14 12  1  0  0  0  0
 15 18  1  6  0  0  0
 15 10  1  0  0  0  0
 15 14  1  0  0  0  0
 17 13  2  0  0  0  0
 19 18  2  0  0  0  0
 20 18  1  0  0  0  0
 21 22  1  0  0  0  0
 23 26  1  0  0  0  0
 23 24  1  0  0  0  0
 24 22  1  6  0  0  0
 24 27  1  0  0  0  0
 25 27  1  0  0  0  0
 26 25  1  6  0  0  0
 27 38  1  6  0  0  0
 28 30  1  6  0  0  0
 28 29  1  0  0  0  0
 28 32  1  0  0  0  0
 28 26  1  0  0  0  0
 29 34  1  6  0  0  0
 29 32  1  0  0  0  0
 31 35  1  6  0  0  0
 31 34  1  0  0  0  0
 33 31  1  0  0  0  0
 33 30  1  0  0  0  0
 37 38  2  0  0  0  0
 38 36  1  0  0  0  0
M  END
>  <MODEL>
1

>  <REMARK>
 VINA RESULT:      -8.2      0.000      0.000
  Name = 
  10 active torsions:
  status: ('A' for Active; 'I' for Inactive)
    1  A    between atoms: C_2  and  C_28
    2  A    between atoms: C_3  and  C_21
    3  A    between atoms: C_5  and  C_33
    4  A    between atoms: C_9  and  C_19
    5  A    between atoms: C_10  and  C_27
    6  A    between atoms: C_10  and  C_28
    7  A    between atoms: O_15  and  N_17
    8  A    between atoms: O_15  and  C_19
    9  A    between atoms: N_17  and  C_29
   10  A    between atoms: C_34  and  C_35
                            x       y       z     vdW  Elec       q    Type
                         _______ _______ _______ _____ _____    ______ ____

>  <TORSDO>
F 10

$$$$
=
 OpenBabel11072412153D

 38 42  0  0  1  0  0  0  0  0999 V2000
  160.0970  212.2500  151.2180 N   0  0  0  0  0  2  0  0  0  0  0  0
  160.7640  213.8970  149.5650 C   0  0  0  0  0  3  0  0  0  0  0  0
  161.6830  211.6780  149.3670 C   0  0  0  0  0  0  0  0  0  0  0  0
  161.4530  214.2590  148.4530 N   0  0  0  0  0  0  0  0  0  0  0  0
  160.8520  212.5920  150.0470 C   0  0  0  0  0  0  0  0  0  0  0  0
  162.2270  213.3900  147.8010 N   0  0  0  0  0  0  0  0  0  0  0  0
  162.3650  212.1090  148.2270 C   0  0  0  0  0  3  0  0  0  0  0  0
  161.9090  210.2760  149.8360 C   0  0  0  0  0  2  0  0  0  0  0  0
  162.3380  209.3720  148.6840 C   0  0  0  0  0  2  0  0  0  0  0  0
  161.9820  207.0490  147.6680 C   0  0  2  0  0  3  0  0  0  0  0  0
  160.5080  206.3590  150.3220 C   0  0  0  0  0  2  0  0  0  0  0  0
  161.3390  205.1710  149.8640 C   0  0  0  0  0  2  0  0  0  0  0  0
  161.1730  207.6680  149.9930 C   0  0  0  0  0  3  0  0  0  0  0  0
  161.0190  204.8010  148.4150 C   0  0  0  0  0  2  0  0  0  0  0  0
  160.8650  206.0170  147.4920 C   0  0  2  0  0  3  0  0  0  0  0  0
  163.2280  206.4510  147.7410 F   0  0  0  0  0  0  0  0  0  0  0  0
  161.7750  207.9940  148.8300 C   0  0  0  0  0  0  0  0  0  0  0  0
  160.7730  205.5760  146.0690 C   0  0  0  0  0  0  0  0  0  0  0  0
  161.4160  204.4200  145.6440 O   0  0  0  0  0  1  0  0  0  0  0  0
  160.0990  206.2520  145.2510 O   0  0  0  0  0  0  0  0  0  0  0  0
  159.4630  213.1630  151.9930 O   0  0  0  0  0  0  0  0  0  0  0  0
  158.6440  212.4110  152.8400 C   0  0  0  0  0  2  0  0  0  0  0  0
  160.0480  212.2580  154.7640 O   0  0  0  0  0  0  0  0  0  0  0  0
  158.8500  212.8310  154.2950 C   0  0  2  0  0  3  0  0  0  0  0  0
  158.2050  211.1560  155.8380 C   0  0  0  0  0  2  0  0  0  0  0  0
  159.7090  211.2980  155.7450 C   0  0  1  0  0  3  0  0  0  0  0  0
  157.7260  212.4360  155.2450 C   0  0  2  0  0  3  0  0  0  0  0  0
  160.3610  209.9600  155.4290 C   0  0  2  0  0  0  0  0  0  0  0  0
  160.9880  209.9060  154.0430 C   0  0  1  0  0  3  0  0  0  0  0  0
  159.6960  208.6660  155.9320 C   0  0  0  0  0  2  0  0  0  0  0  0
  161.2630  207.3410  154.3740 C   0  0  2  0  0  3  0  0  0  0  0  0
  161.8730  210.0010  155.2900 C   0  0  0  0  0  2  0  0  0  0  0  0
  160.5410  207.4050  155.7260 C   0  0  0  0  0  2  0  0  0  0  0  0
  160.9220  208.4950  153.4240 C   0  0  0  0  0  2  0  0  0  0  0  0
  160.9940  206.1230  153.7520 O   0  0  0  0  0  1  0  0  0  0  0  0
  155.7920  211.1920  154.6060 O   0  0  0  0  0  1  0  0  0  0  0  0
  155.6890  213.4370  154.1660 O   0  0  0  0  0  0  0  0  0  0  0  0
  156.3550  212.3160  154.6500 C   0  0  0  0  0  0  0  0  0  0  0  0
  1 21  1  0  0  0  0
  2  5  1  0  0  0  0
  3  8  1  0  0  0  0
  3  5  2  0  0  0  0
  4  2  2  0  0  0  0
  5  1  1  0  0  0  0
  6  7  2  0  0  0  0
  6  4  1  0  0  0  0
  7  3  1  0  0  0  0
  9 17  1  0  0  0  0
  9  8  1  0  0  0  0
 10 16  1  1  0  0  0
 10 17  1  0  0  0  0
 12 11  1  0  0  0  0
 13 11  1  0  0  0  0
 14 12  1  0  0  0  0
 15 18  1  6  0  0  0
 15 10  1  0  0  0  0
 15 14  1  0  0  0  0
 17 13  2  0  0  0  0
 19 18  1  0  0  0  0
 20 18  2  0  0  0  0
 21 22  1  0  0  0  0
 23 26  1  0  0  0  0
 24 22  1  6  0  0  0
 24 23  1  0  0  0  0
 24 27  1  0  0  0  0
 26 25  1  6  0  0  0
 27 38  1  6  0  0  0
 27 25  1  0  0  0  0
 28 32  1  1  0  0  0
 28 26  1  0  0  0  0
 28 30  1  0  0  0  0
 29 34  1  1  0  0  0
 29 32  1  0  0  0  0
 29 28  1  0  0  0  0
 31 35  1  6  0  0  0
 31 33  1  0  0  0  0
 33 30  1  0  0  0  0
 34 31  1  0  0  0  0
 36 38  1  0  0  0  0
 37 38  2  0  0  0  0
M  END
>  <MODEL>
2

>  <REMARK>
 VINA RESULT:      -7.8      2.437      4.809
  Name = 
  10 active torsions:
  status: ('A' for Active; 'I' for Inactive)
    1  A    between atoms: C_2  and  C_28
    2  A    between atoms: C_3  and  C_21
    3  A    between atoms: C_5  and  C_33
    4  A    between atoms: C_9  and  C_19
    5  A    between atoms: C_10  and  C_27
    6  A    between atoms: C_10  and  C_28
    7  A    between atoms: O_15  and  N_17
    8  A    between atoms: O_15  and  C_19
    9  A    between atoms: N_17  and  C_29
   10  A    between atoms: C_34  and  C_35
                            x       y       z     vdW  Elec       q    Type
                         _______ _______ _______ _____ _____    ______ ____

>  <TORSDO>
F 10

$$$$
=
 OpenBabel11072412153D

 38 42  0  0  1  0  0  0  0  0999 V2000
  161.8330  209.4190  148.9640 N   0  0  0  0  0  2  0  0  0  0  0  0
  162.0230  209.0550  151.3560 C   0  0  0  0  0  3  0  0  0  0  0  0
  161.2030  207.2320  150.0090 C   0  0  0  0  0  0  0  0  0  0  0  0
  161.9070  208.2670  152.4550 N   0  0  0  0  0  0  0  0  0  0  0  0
  161.6840  208.5550  150.1000 C   0  0  0  0  0  0  0  0  0  0  0  0
  161.4680  207.0110  152.3670 N   0  0  0  0  0  0  0  0  0  0  0  0
  161.1080  206.4700  151.1750 C   0  0  0  0  0  3  0  0  0  0  0  0
  160.7410  206.6180  148.7260 C   0  0  0  0  0  2  0  0  0  0  0  0
  161.8280  205.7400  148.1140 C   0  0  0  0  0  2  0  0  0  0  0  0
  161.5000  203.5890  146.7640 C   0  0  2  0  0  3  0  0  0  0  0  0
  160.5980  202.3040  149.4510 C   0  0  0  0  0  2  0  0  0  0  0  0
  161.4330  201.3140  148.6560 C   0  0  0  0  0  2  0  0  0  0  0  0
  161.0740  203.7190  149.2620 C   0  0  0  0  0  3  0  0  0  0  0  0
  160.8900  201.1510  147.2350 C   0  0  0  0  0  2  0  0  0  0  0  0
  160.4660  202.4750  146.5860 C   0  0  2  0  0  3  0  0  0  0  0  0
  162.7870  203.1390  146.5230 F   0  0  0  0  0  0  0  0  0  0  0  0
  161.4240  204.3000  148.0960 C   0  0  0  0  0  0  0  0  0  0  0  0
  160.1570  202.2650  145.1420 C   0  0  0  0  0  0  0  0  0  0  0  0
  160.0530  200.9810  144.6200 O   0  0  0  0  0  1  0  0  0  0  0  0
  159.9810  203.2600  144.3930 O   0  0  0  0  0  0  0  0  0  0  0  0
  162.0550  210.7520  149.0610 O   0  0  0  0  0  0  0  0  0  0  0  0
  161.5050  211.2950  147.8970 C   0  0  0  0  0  2  0  0  0  0  0  0
  161.4850  213.2610  149.2510 O   0  0  0  0  0  0  0  0  0  0  0  0
  161.6080  212.8200  147.9190 C   0  0  2  0  0  3  0  0  0  0  0  0
  159.4960  213.8820  148.0570 C   0  0  0  0  0  2  0  0  0  0  0  0
  160.2640  213.9660  149.3590 C   0  0  1  0  0  3  0  0  0  0  0  0
  160.5660  213.5480  147.0760 C   0  0  2  0  0  3  0  0  0  0  0  0
  159.4340  213.4220  150.5130 C   0  0  2  0  0  0  0  0  0  0  0  0
  158.4920  214.4530  151.1170 C   0  0  1  0  0  3  0  0  0  0  0  0
  160.0790  212.4250  151.4930 C   0  0  0  0  0  2  0  0  0  0  0  0
  158.0690  212.7830  153.0640 C   0  0  2  0  0  3  0  0  0  0  0  0
  157.9450  213.3230  150.2400 C   0  0  0  0  0  2  0  0  0  0  0  0
  159.0970  211.8010  152.4890 C   0  0  0  0  0  2  0  0  0  0  0  0
  158.2760  214.2380  152.6280 C   0  0  0  0  0  2  0  0  0  0  0  0
  158.0670  212.7040  154.4560 O   0  0  0  0  0  1  0  0  0  0  0  0
  158.8510  212.4040  145.8750 O   0  0  0  0  0  1  0  0  0  0  0  0
  160.8440  212.6010  144.7640 O   0  0  0  0  0  0  0  0  0  0  0  0
  160.0400  212.8140  145.8790 C   0  0  0  0  0  0  0  0  0  0  0  0
  1 21  1  0  0  0  0
  1  5  1  0  0  0  0
  2  4  1  0  0  0  0
  3  5  1  0  0  0  0
  3  7  2  0  0  0  0
  5  2  2  0  0  0  0
  6  4  2  0  0  0  0
  7  6  1  0  0  0  0
  8  3  1  0  0  0  0
  9  8  1  0  0  0  0
 10 16  1  1  0  0  0
 10 17  1  0  0  0  0
 12 11  1  0  0  0  0
 13 11  1  0  0  0  0
 14 12  1  0  0  0  0
 15 18  1  6  0  0  0
 15 10  1  0  0  0  0
 15 14  1  0  0  0  0
 17  9  1  0  0  0  0
 17 13  2  0  0  0  0
 19 18  1  0  0  0  0
 20 18  2  0  0  0  0
 22 21  1  0  0  0  0
 23 26  1  0  0  0  0
 24 22  1  1  0  0  0
 24 23  1  0  0  0  0
 26 25  1  6  0  0  0
 26 28  1  0  0  0  0
 27 38  1  6  0  0  0
 27 24  1  0  0  0  0
 27 25  1  0  0  0  0
 28 32  1  6  0  0  0
 28 29  1  0  0  0  0
 28 30  1  0  0  0  0
 29 32  1  6  0  0  0
 29 34  1  0  0  0  0
 30 33  1  0  0  0  0
 31 35  1  1  0  0  0
 33 31  1  0  0  0  0
 34 31  1  0  0  0  0
 36 38  1  0  0  0  0
 37 38  2  0  0  0  0
M  END
>  <MODEL>
3

>  <REMARK>
 VINA RESULT:      -7.8      2.706      5.231
  Name = 
  10 active torsions:
  status: ('A' for Active; 'I' for Inactive)
    1  A    between atoms: C_2  and  C_28
    2  A    between atoms: C_3  and  C_21
    3  A    between atoms: C_5  and  C_33
    4  A    between atoms: C_9  and  C_19
    5  A    between atoms: C_10  and  C_27
    6  A    between atoms: C_10  and  C_28
    7  A    between atoms: O_15  and  N_17
    8  A    between atoms: O_15  and  C_19
    9  A    between atoms: N_17  and  C_29
   10  A    between atoms: C_34  and  C_35
                            x       y       z     vdW  Elec       q    Type
                         _______ _______ _______ _____ _____    ______ ____

>  <TORSDO>
F 10

$$$$
=
 OpenBabel11072412153D

 38 42  0  0  1  0  0  0  0  0999 V2000
  161.1670  209.9910  152.2470 N   0  0  0  0  0  2  0  0  0  0  0  0
  160.7150  208.5530  154.1490 C   0  0  0  0  0  3  0  0  0  0  0  0
  161.7170  207.5490  152.2000 C   0  0  0  0  0  0  0  0  0  0  0  0
  160.7470  207.3420  154.7620 N   0  0  0  0  0  0  0  0  0  0  0  0
  161.2100  208.6910  152.8530 C   0  0  0  0  0  0  0  0  0  0  0  0
  161.2410  206.2650  154.1500 N   0  0  0  0  0  0  0  0  0  0  0  0
  161.7250  206.3320  152.8840 C   0  0  0  0  0  3  0  0  0  0  0  0
  162.2050  207.5660  150.7860 C   0  0  0  0  0  2  0  0  0  0  0  0
  161.0460  207.4440  149.8020 C   0  0  0  0  0  2  0  0  0  0  0  0
  161.5340  206.2010  147.6180 C   0  0  2  0  0  3  0  0  0  0  0  0
  160.7330  203.6220  149.1650 C   0  0  0  0  0  2  0  0  0  0  0  0
  161.9140  203.3350  148.2520 C   0  0  0  0  0  2  0  0  0  0  0  0
  160.7890  205.0140  149.7340 C   0  0  0  0  0  3  0  0  0  0  0  0
  161.6200  203.7740  146.8170 C   0  0  0  0  0  2  0  0  0  0  0  0
  160.9050  205.1280  146.7250 C   0  0  2  0  0  3  0  0  0  0  0  0
  162.9160  206.1960  147.5300 F   0  0  0  0  0  0  0  0  0  0  0  0
  161.0910  206.1450  149.0620 C   0  0  0  0  0  0  0  0  0  0  0  0
  160.8500  205.5870  145.3060 C   0  0  0  0  0  0  0  0  0  0  0  0
  161.5640  204.9190  144.3180 O   0  0  0  0  0  0  0  0  0  0  0  0
  160.1430  206.5810  145.0020 O   0  0  0  0  0  1  0  0  0  0  0  0
  160.8820  211.1270  152.9300 O   0  0  0  0  0  0  0  0  0  0  0  0
  159.8970  211.7660  152.1730 C   0  0  0  0  0  2  0  0  0  0  0  0
  159.4900  213.2270  154.0160 O   0  0  0  0  0  0  0  0  0  0  0  0
  159.7290  213.2150  152.6280 C   0  0  2  0  0  3  0  0  0  0  0  0
  157.4610  213.8410  152.8900 C   0  0  0  0  0  2  0  0  0  0  0  0
  158.1620  213.6660  154.2200 C   0  0  1  0  0  3  0  0  0  0  0  0
  158.6020  213.9790  151.9420 C   0  0  2  0  0  3  0  0  0  0  0  0
  157.4060  212.6870  155.1070 C   0  0  2  0  0  0  0  0  0  0  0  0
  157.0310  211.3950  154.3960 C   0  0  1  0  0  3  0  0  0  0  0  0
  156.3870  213.2320  156.1230 C   0  0  0  0  0  2  0  0  0  0  0  0
  155.5230  210.8260  156.4360 C   0  0  2  0  0  3  0  0  0  0  0  0
  158.1570  211.4090  155.4340 C   0  0  0  0  0  2  0  0  0  0  0  0
  155.8390  212.1770  157.0890 C   0  0  0  0  0  2  0  0  0  0  0  0
  155.7040  210.8040  154.9140 C   0  0  0  0  0  2  0  0  0  0  0  0
  154.2240  210.4360  156.7610 O   0  0  0  0  0  1  0  0  0  0  0  0
  157.1560  212.9640  150.3390 O   0  0  0  0  0  1  0  0  0  0  0  0
  159.1060  213.8070  149.4860 O   0  0  0  0  0  0  0  0  0  0  0  0
  158.2490  213.5480  150.5500 C   0  0  0  0  0  0  0  0  0  0  0  0
  1  5  1  0  0  0  0
  1 21  1  0  0  0  0
  2  4  1  0  0  0  0
  3  5  1  0  0  0  0
  3  7  2  0  0  0  0
  5  2  2  0  0  0  0
  6  4  2  0  0  0  0
  7  6  1  0  0  0  0
  8  3  1  0  0  0  0
  9  8  1  0  0  0  0
 10 16  1  1  0  0  0
 10 17  1  0  0  0  0
 11 13  1  0  0  0  0
 12 11  1  0  0  0  0
 14 12  1  0  0  0  0
 15 18  1  6  0  0  0
 15 14  1  0  0  0  0
 15 10  1  0  0  0  0
 17 13  2  0  0  0  0
 17  9  1  0  0  0  0
 19 18  2  0  0  0  0
 20 18  1  0  0  0  0
 22 21  1  0  0  0  0
 23 26  1  0  0  0  0
 24 22  1  6  0  0  0
 24 23  1  0  0  0  0
 26 25  1  6  0  0  0
 26 28  1  0  0  0  0
 27 38  1  6  0  0  0
 27 24  1  0  0  0  0
 27 25  1  0  0  0  0
 28 32  1  1  0  0  0
 28 30  1  0  0  0  0
 29 34  1  1  0  0  0
 29 28  1  0  0  0  0
 29 32  1  0  0  0  0
 30 33  1  0  0  0  0
 31 35  1  6  0  0  0
 31 33  1  0  0  0  0
 34 31  1  0  0  0  0
 36 38  1  0  0  0  0
 37 38  2  0  0  0  0
M  END
>  <MODEL>
4

>  <REMARK>
 VINA RESULT:      -7.6      2.306      4.550
  Name = 
  10 active torsions:
  status: ('A' for Active; 'I' for Inactive)
    1  A    between atoms: C_2  and  C_28
    2  A    between atoms: C_3  and  C_21
    3  A    between atoms: C_5  and  C_33
    4  A    between atoms: C_9  and  C_19
    5  A    between atoms: C_10  and  C_27
    6  A    between atoms: C_10  and  C_28
    7  A    between atoms: O_15  and  N_17
    8  A    between atoms: O_15  and  C_19
    9  A    between atoms: N_17  and  C_29
   10  A    between atoms: C_34  and  C_35
                            x       y       z     vdW  Elec       q    Type
                         _______ _______ _______ _____ _____    ______ ____

>  <TORSDO>
F 10

$$$$
=
 OpenBabel11072412153D

 38 42  0  0  1  0  0  0  0  0999 V2000
  161.4290  207.3210  152.8300 N   0  0  0  0  0  2  0  0  0  0  0  0
  160.5920  206.6760  155.0150 C   0  0  0  0  0  3  0  0  0  0  0  0
  160.8410  209.0310  154.5630 C   0  0  0  0  0  0  0  0  0  0  0  0
  160.1270  206.9840  156.2520 N   0  0  0  0  0  0  0  0  0  0  0  0
  160.9530  207.6920  154.1320 C   0  0  0  0  0  0  0  0  0  0  0  0
  160.0070  208.2500  156.6540 N   0  0  0  0  0  0  0  0  0  0  0  0
  160.3540  209.2840  155.8470 C   0  0  0  0  0  3  0  0  0  0  0  0
  161.2680  210.1960  153.7280 C   0  0  0  0  0  2  0  0  0  0  0  0
  160.9190  211.5160  154.4060 C   0  0  0  0  0  2  0  0  0  0  0  0
  158.5010  212.2720  154.7810 C   0  0  2  0  0  3  0  0  0  0  0  0
  158.5260  213.0910  151.7780 C   0  0  0  0  0  2  0  0  0  0  0  0
  157.7640  214.1230  152.5930 C   0  0  0  0  0  2  0  0  0  0  0  0
  159.6830  212.5130  152.5470 C   0  0  0  0  0  3  0  0  0  0  0  0
  156.6770  213.4620  153.4420 C   0  0  0  0  0  2  0  0  0  0  0  0
  157.1300  212.1570  154.1100 C   0  0  2  0  0  3  0  0  0  0  0  0
  158.6200  213.4420  155.5110 F   0  0  0  0  0  0  0  0  0  0  0  0
  159.6700  212.1120  153.8360 C   0  0  0  0  0  0  0  0  0  0  0  0
  156.1010  211.6920  155.0840 C   0  0  0  0  0  0  0  0  0  0  0  0
  155.3860  210.5230  154.8530 O   0  0  0  0  0  0  0  0  0  0  0  0
  155.8870  212.3590  156.1290 O   0  0  0  0  0  1  0  0  0  0  0  0
  162.4370  206.4400  152.6240 O   0  0  0  0  0  0  0  0  0  0  0  0
  162.4010  206.1630  151.2540 C   0  0  0  0  0  2  0  0  0  0  0  0
  160.4180  205.0870  150.4740 O   0  0  0  0  0  0  0  0  0  0  0  0
  160.9870  206.3550  150.7080 C   0  0  2  0  0  3  0  0  0  0  0  0
  160.8700  206.1210  148.3550 C   0  0  0  0  0  2  0  0  0  0  0  0
  160.2640  204.9370  149.0770 C   0  0  1  0  0  3  0  0  0  0  0  0
  160.8990  207.1640  149.4190 C   0  0  2  0  0  3  0  0  0  0  0  0
  160.8970  203.6350  148.6080 C   0  0  2  0  0  0  0  0  0  0  0  0
  161.0290  203.5390  147.0950 C   0  0  1  0  0  3  0  0  0  0  0  0
  160.5610  202.3290  149.3510 C   0  0  0  0  0  2  0  0  0  0  0  0
  161.6370  201.0300  147.4050 C   0  0  2  0  0  3  0  0  0  0  0  0
  162.2650  203.7820  147.9660 C   0  0  0  0  0  2  0  0  0  0  0  0
  161.4030  201.1260  148.9170 C   0  0  0  0  0  2  0  0  0  0  0  0
  160.8930  202.0900  146.5840 C   0  0  0  0  0  2  0  0  0  0  0  0
  161.2920  199.7570  146.9530 O   0  0  0  0  0  1  0  0  0  0  0  0
  162.8050  208.0180  148.2660 O   0  0  0  0  0  0  0  0  0  0  0  0
  162.0450  209.3280  149.9840 O   0  0  0  0  0  1  0  0  0  0  0  0
  161.9730  208.1860  149.1940 C   0  0  0  0  0  0  0  0  0  0  0  0
  1  5  1  0  0  0  0
  2  4  1  0  0  0  0
  3  7  2  0  0  0  0
  4  6  2  0  0  0  0
  5  3  1  0  0  0  0
  5  2  2  0  0  0  0
  7  6  1  0  0  0  0
  8  9  1  0  0  0  0
  8  3  1  0  0  0  0
 10 16  1  6  0  0  0
 11 13  1  0  0  0  0
 11 12  1  0  0  0  0
 12 14  1  0  0  0  0
 13 17  2  0  0  0  0
 14 15  1  0  0  0  0
 15 10  1  0  0  0  0
 15 18  1  1  0  0  0
 17  9  1  0  0  0  0
 17 10  1  0  0  0  0
 18 20  1  0  0  0  0
 19 18  2  0  0  0  0
 21  1  1  0  0  0  0
 22 21  1  0  0  0  0
 23 24  1  0  0  0  0
 24 22  1  6  0  0  0
 25 27  1  0  0  0  0
 26 25  1  6  0  0  0
 26 23  1  0  0  0  0
 27 38  1  6  0  0  0
 27 24  1  0  0  0  0
 28 32  1  1  0  0  0
 28 26  1  0  0  0  0
 28 30  1  0  0  0  0
 29 34  1  1  0  0  0
 29 32  1  0  0  0  0
 29 28  1  0  0  0  0
 31 35  1  6  0  0  0
 31 33  1  0  0  0  0
 33 30  1  0  0  0  0
 34 31  1  0  0  0  0
 36 38  2  0  0  0  0
 38 37  1  0  0  0  0
M  END
>  <MODEL>
5

>  <REMARK>
 VINA RESULT:      -7.6      3.267     10.291
  Name = 
  10 active torsions:
  status: ('A' for Active; 'I' for Inactive)
    1  A    between atoms: C_2  and  C_28
    2  A    between atoms: C_3  and  C_21
    3  A    between atoms: C_5  and  C_33
    4  A    between atoms: C_9  and  C_19
    5  A    between atoms: C_10  and  C_27
    6  A    between atoms: C_10  and  C_28
    7  A    between atoms: O_15  and  N_17
    8  A    between atoms: O_15  and  C_19
    9  A    between atoms: N_17  and  C_29
   10  A    between atoms: C_34  and  C_35
                            x       y       z     vdW  Elec       q    Type
                         _______ _______ _______ _____ _____    ______ ____

>  <TORSDO>
F 10

$$$$
=
 OpenBabel11072412153D

 38 42  0  0  1  0  0  0  0  0999 V2000
  161.2420  207.1030  152.9770 N   0  0  0  0  0  2  0  0  0  0  0  0
  160.5610  206.5960  155.2510 C   0  0  0  0  0  3  0  0  0  0  0  0
  160.6680  208.9160  154.6060 C   0  0  0  0  0  0  0  0  0  0  0  0
  160.1500  206.9800  156.4860 N   0  0  0  0  0  0  0  0  0  0  0  0
  160.8210  207.5550  154.2730 C   0  0  0  0  0  0  0  0  0  0  0  0
  159.9900  208.2670  156.7970 N   0  0  0  0  0  0  0  0  0  0  0  0
  160.2410  209.2480  155.8930 C   0  0  0  0  0  3  0  0  0  0  0  0
  160.9900  210.0300  153.6610 C   0  0  0  0  0  2  0  0  0  0  0  0
  161.0390  211.3710  154.3850 C   0  0  0  0  0  2  0  0  0  0  0  0
  159.4700  212.1760  152.5300 C   0  0  2  0  0  3  0  0  0  0  0  0
  158.2020  214.0090  154.7030 C   0  0  0  0  0  2  0  0  0  0  0  0
  157.1170  213.4470  153.7980 C   0  0  0  0  0  2  0  0  0  0  0  0
  159.3180  213.0240  154.9170 C   0  0  0  0  0  3  0  0  0  0  0  0
  157.4350  213.7120  152.3260 C   0  0  0  0  0  2  0  0  0  0  0  0
  158.9100  213.4850  151.9680 C   0  0  2  0  0  3  0  0  0  0  0  0
  158.5940  211.1210  152.3420 F   0  0  0  0  0  0  0  0  0  0  0  0
  159.9060  212.2580  153.9740 C   0  0  0  0  0  0  0  0  0  0  0  0
  159.0970  213.5490  150.4890 C   0  0  0  0  0  0  0  0  0  0  0  0
  160.3680  213.4690  149.9330 O   0  0  0  0  0  1  0  0  0  0  0  0
  158.0940  213.6670  149.7400 O   0  0  0  0  0  0  0  0  0  0  0  0
  162.3000  206.2800  152.7770 O   0  0  0  0  0  0  0  0  0  0  0  0
  162.3360  206.0680  151.3960 C   0  0  0  0  0  2  0  0  0  0  0  0
  160.3730  205.0680  150.4780 O   0  0  0  0  0  0  0  0  0  0  0  0
  160.9590  206.3130  150.7810 C   0  0  2  0  0  3  0  0  0  0  0  0
  160.9640  206.1540  148.4190 C   0  0  0  0  0  2  0  0  0  0  0  0
  160.2920  204.9650  149.0700 C   0  0  1  0  0  3  0  0  0  0  0  0
  160.9610  207.1630  149.5150 C   0  0  2  0  0  3  0  0  0  0  0  0
  160.9170  203.6610  148.5950 C   0  0  2  0  0  0  0  0  0  0  0  0
  161.0800  203.5860  147.0830 C   0  0  1  0  0  3  0  0  0  0  0  0
  160.5490  202.3490  149.3110 C   0  0  0  0  0  2  0  0  0  0  0  0
  161.6490  201.0650  147.3680 C   0  0  2  0  0  3  0  0  0  0  0  0
  162.3000  203.8000  147.9840 C   0  0  0  0  0  2  0  0  0  0  0  0
  161.3840  201.1410  148.8760 C   0  0  0  0  0  2  0  0  0  0  0  0
  160.9360  202.1470  146.5480 C   0  0  0  0  0  2  0  0  0  0  0  0
  161.2970  199.8040  146.8900 O   0  0  0  0  0  1  0  0  0  0  0  0
  162.8220  208.1240  148.3740 O   0  0  0  0  0  0  0  0  0  0  0  0
  162.2610  209.1480  150.3430 O   0  0  0  0  0  1  0  0  0  0  0  0
  162.0690  208.1630  149.3800 C   0  0  0  0  0  0  0  0  0  0  0  0
  1  5  1  0  0  0  0
  2  4  1  0  0  0  0
  3  7  2  0  0  0  0
  4  6  2  0  0  0  0
  5  3  1  0  0  0  0
  5  2  2  0  0  0  0
  7  6  1  0  0  0  0
  8  9  1  0  0  0  0
  8  3  1  0  0  0  0
 10 16  1  1  0  0  0
 10 17  1  0  0  0  0
 11 13  1  0  0  0  0
 12 11  1  0  0  0  0
 14 12  1  0  0  0  0
 15 18  1  6  0  0  0
 15 14  1  0  0  0  0
 15 10  1  0  0  0  0
 17  9  1  0  0  0  0
 17 13  2  0  0  0  0
 19 18  1  0  0  0  0
 20 18  2  0  0  0  0
 21  1  1  0  0  0  0
 22 21  1  0  0  0  0
 23 24  1  0  0  0  0
 24 22  1  6  0  0  0
 25 27  1  0  0  0  0
 26 25  1  6  0  0  0
 26 23  1  0  0  0  0
 27 38  1  1  0  0  0
 27 24  1  0  0  0  0
 28 32  1  1  0  0  0
 28 26  1  0  0  0  0
 28 30  1  0  0  0  0
 29 34  1  1  0  0  0
 29 32  1  0  0  0  0
 29 28  1  0  0  0  0
 31 35  1  6  0  0  0
 31 33  1  0  0  0  0
 33 30  1  0  0  0  0
 34 31  1  0  0  0  0
 36 38  2  0  0  0  0
 38 37  1  0  0  0  0
M  END
>  <MODEL>
6

>  <REMARK>
 VINA RESULT:      -7.5      2.881      9.982
  Name = 
  10 active torsions:
  status: ('A' for Active; 'I' for Inactive)
    1  A    between atoms: C_2  and  C_28
    2  A    between atoms: C_3  and  C_21
    3  A    between atoms: C_5  and  C_33
    4  A    between atoms: C_9  and  C_19
    5  A    between atoms: C_10  and  C_27
    6  A    between atoms: C_10  and  C_28
    7  A    between atoms: O_15  and  N_17
    8  A    between atoms: O_15  and  C_19
    9  A    between atoms: N_17  and  C_29
   10  A    between atoms: C_34  and  C_35
                            x       y       z     vdW  Elec       q    Type
                         _______ _______ _______ _____ _____    ______ ____

>  <TORSDO>
F 10

$$$$
=
 OpenBabel11072412153D

 38 42  0  0  1  0  0  0  0  0999 V2000
  161.2200  209.8840  152.7060 N   0  0  0  0  0  2  0  0  0  0  0  0
  160.7120  207.9410  154.0700 C   0  0  0  0  0  3  0  0  0  0  0  0
  161.9600  207.5870  152.0380 C   0  0  0  0  0  0  0  0  0  0  0  0
  160.7820  206.6090  154.3200 N   0  0  0  0  0  0  0  0  0  0  0  0
  161.3090  208.4680  152.9250 C   0  0  0  0  0  0  0  0  0  0  0  0
  161.4120  205.7780  153.4890 N   0  0  0  0  0  0  0  0  0  0  0  0
  162.0000  206.2270  152.3520 C   0  0  0  0  0  3  0  0  0  0  0  0
  162.5700  208.0310  150.7460 C   0  0  0  0  0  2  0  0  0  0  0  0
  161.5320  208.0630  149.6300 C   0  0  0  0  0  2  0  0  0  0  0  0
  160.7600  205.6740  149.1270 C   0  0  2  0  0  3  0  0  0  0  0  0
  162.7070  205.7930  146.7010 C   0  0  0  0  0  2  0  0  0  0  0  0
  161.4330  205.0610  146.3110 C   0  0  0  0  0  2  0  0  0  0  0  0
  162.4370  206.9080  147.6750 C   0  0  0  0  0  3  0  0  0  0  0  0
  161.1240  203.9300  147.2930 C   0  0  0  0  0  2  0  0  0  0  0  0
  161.3560  204.3130  148.7610 C   0  0  2  0  0  3  0  0  0  0  0  0
  159.4820  205.8300  148.6170 F   0  0  0  0  0  0  0  0  0  0  0  0
  161.6300  206.8530  148.7560 C   0  0  0  0  0  0  0  0  0  0  0  0
  160.8300  203.2460  149.6610 C   0  0  0  0  0  0  0  0  0  0  0  0
  160.4690  202.0050  149.1510 O   0  0  0  0  0  0  0  0  0  0  0  0
  160.7240  203.4700  150.8940 O   0  0  0  0  0  1  0  0  0  0  0  0
  160.3670  210.6940  153.3790 O   0  0  0  0  0  0  0  0  0  0  0  0
  159.7930  211.5080  152.3980 C   0  0  0  0  0  2  0  0  0  0  0  0
  159.4420  212.9450  154.2720 O   0  0  0  0  0  0  0  0  0  0  0  0
  159.7050  212.9530  152.8880 C   0  0  2  0  0  3  0  0  0  0  0  0
  157.4740  213.7090  153.1280 C   0  0  0  0  0  2  0  0  0  0  0  0
  158.1400  213.4590  154.4640 C   0  0  1  0  0  3  0  0  0  0  0  0
  158.6390  213.8010  152.2030 C   0  0  2  0  0  3  0  0  0  0  0  0
  157.3100  212.5060  155.3120 C   0  0  2  0  0  0  0  0  0  0  0  0
  156.9370  211.2200  154.5870 C   0  0  1  0  0  3  0  0  0  0  0  0
  156.2520  213.0840  156.2700 C   0  0  0  0  0  2  0  0  0  0  0  0
  155.3060  210.7040  156.5450 C   0  0  2  0  0  3  0  0  0  0  0  0
  158.0060  211.2090  155.6850 C   0  0  0  0  0  2  0  0  0  0  0  0
  155.6230  212.0490  157.2080 C   0  0  0  0  0  2  0  0  0  0  0  0
  155.5690  210.6690  155.0340 C   0  0  0  0  0  2  0  0  0  0  0  0
  153.9810  210.3520  156.8000 O   0  0  0  0  0  1  0  0  0  0  0  0
  157.1490  212.9530  150.5440 O   0  0  0  0  0  1  0  0  0  0  0  0
  159.1940  213.6200  149.7590 O   0  0  0  0  0  0  0  0  0  0  0  0
  158.2870  213.4270  150.7950 C   0  0  0  0  0  0  0  0  0  0  0  0
  1  5  1  0  0  0  0
  1 21  1  0  0  0  0
  2  4  1  0  0  0  0
  3  7  2  0  0  0  0
  3  5  1  0  0  0  0
  5  2  2  0  0  0  0
  6  4  2  0  0  0  0
  7  6  1  0  0  0  0
  8  3  1  0  0  0  0
  9  8  1  0  0  0  0
 10 16  1  6  0  0  0
 11 13  1  0  0  0  0
 12 11  1  0  0  0  0
 12 14  1  0  0  0  0
 13 17  2  0  0  0  0
 14 15  1  0  0  0  0
 15 10  1  0  0  0  0
 15 18  1  1  0  0  0
 17 10  1  0  0  0  0
 17  9  1  0  0  0  0
 18 20  1  0  0  0  0
 19 18  2  0  0  0  0
 22 21  1  0  0  0  0
 23 26  1  0  0  0  0
 24 22  1  6  0  0  0
 24 23  1  0  0  0  0
 26 25  1  6  0  0  0
 26 28  1  0  0  0  0
 27 38  1  6  0  0  0
 27 24  1  0  0  0  0
 27 25  1  0  0  0  0
 28 32  1  1  0  0  0
 28 30  1  0  0  0  0
 29 34  1  1  0  0  0
 29 28  1  0  0  0  0
 29 32  1  0  0  0  0
 30 33  1  0  0  0  0
 31 35  1  6  0  0  0
 31 33  1  0  0  0  0
 34 31  1  0  0  0  0
 36 38  1  0  0  0  0
 37 38  2  0  0  0  0
M  END
>  <MODEL>
7

>  <REMARK>
 VINA RESULT:      -7.3      2.367      4.751
  Name = 
  10 active torsions:
  status: ('A' for Active; 'I' for Inactive)
    1  A    between atoms: C_2  and  C_28
    2  A    between atoms: C_3  and  C_21
    3  A    between atoms: C_5  and  C_33
    4  A    between atoms: C_9  and  C_19
    5  A    between atoms: C_10  and  C_27
    6  A    between atoms: C_10  and  C_28
    7  A    between atoms: O_15  and  N_17
    8  A    between atoms: O_15  and  C_19
    9  A    between atoms: N_17  and  C_29
   10  A    between atoms: C_34  and  C_35
                            x       y       z     vdW  Elec       q    Type
                         _______ _______ _______ _____ _____    ______ ____

>  <TORSDO>
F 10

$$$$
=
 OpenBabel11072412153D

 38 42  0  0  1  0  0  0  0  0999 V2000
  160.4610  211.5560  151.8050 N   0  0  0  0  0  2  0  0  0  0  0  0
  160.6990  212.8550  149.7680 C   0  0  0  0  0  3  0  0  0  0  0  0
  161.8560  210.7440  149.8910 C   0  0  0  0  0  0  0  0  0  0  0  0
  161.1900  213.0270  148.5140 N   0  0  0  0  0  0  0  0  0  0  0  0
  161.0110  211.7020  150.4880 C   0  0  0  0  0  0  0  0  0  0  0  0
  161.9760  212.1130  147.9440 N   0  0  0  0  0  0  0  0  0  0  0  0
  162.3280  210.9770  148.5980 C   0  0  0  0  0  3  0  0  0  0  0  0
  162.3150  209.5080  150.5970 C   0  0  0  0  0  2  0  0  0  0  0  0
  161.2030  208.4650  150.6600 C   0  0  0  0  0  2  0  0  0  0  0  0
  160.6400  206.0880  149.8930 C   0  0  2  0  0  3  0  0  0  0  0  0
  162.6970  206.5760  147.6080 C   0  0  0  0  0  2  0  0  0  0  0  0
  161.5040  205.7980  147.0770 C   0  0  0  0  0  2  0  0  0  0  0  0
  162.2940  207.5700  148.6630 C   0  0  0  0  0  3  0  0  0  0  0  0
  161.2300  204.5590  147.9300 C   0  0  0  0  0  2  0  0  0  0  0  0
  161.3550  204.8140  149.4380 C   0  0  2  0  0  3  0  0  0  0  0  0
  159.3830  206.2030  149.3240 F   0  0  0  0  0  0  0  0  0  0  0  0
  161.4380  207.3550  149.6850 C   0  0  0  0  0  0  0  0  0  0  0  0
  160.8650  203.6310  150.2040 C   0  0  0  0  0  0  0  0  0  0  0  0
  160.5050  202.4610  149.5440 O   0  0  0  0  0  0  0  0  0  0  0  0
  160.7860  203.6900  151.4570 O   0  0  0  0  0  1  0  0  0  0  0  0
  160.0840  212.6020  152.5790 O   0  0  0  0  0  0  0  0  0  0  0  0
  158.9050  212.1840  153.2030 C   0  0  0  0  0  2  0  0  0  0  0  0
  160.0510  211.8720  155.2730 O   0  0  0  0  0  0  0  0  0  0  0  0
  158.9420  212.5180  154.6930 C   0  0  2  0  0  3  0  0  0  0  0  0
  158.0520  210.7900  156.0460 C   0  0  0  0  0  2  0  0  0  0  0  0
  159.5600  210.8760  156.1470 C   0  0  1  0  0  3  0  0  0  0  0  0
  157.6940  212.1180  155.4740 C   0  0  2  0  0  3  0  0  0  0  0  0
  160.2020  209.5310  155.8370 C   0  0  2  0  0  0  0  0  0  0  0  0
  161.1770  209.5820  154.6690 C   0  0  1  0  0  3  0  0  0  0  0  0
  159.3570  208.2500  155.9690 C   0  0  0  0  0  2  0  0  0  0  0  0
  161.2150  206.9830  154.7140 C   0  0  2  0  0  3  0  0  0  0  0  0
  161.6940  209.4560  156.1050 C   0  0  0  0  0  2  0  0  0  0  0  0
  160.1580  206.9530  155.8240 C   0  0  0  0  0  2  0  0  0  0  0  0
  161.2070  208.2640  153.8710 C   0  0  0  0  0  2  0  0  0  0  0  0
  161.0610  205.8730  153.8850 O   0  0  0  0  0  1  0  0  0  0  0  0
  155.7520  211.0140  154.6360 O   0  0  0  0  0  1  0  0  0  0  0  0
  155.9120  213.2330  154.0960 O   0  0  0  0  0  0  0  0  0  0  0  0
  156.4060  212.0860  154.7080 C   0  0  0  0  0  0  0  0  0  0  0  0
  1 21  1  0  0  0  0
  2  5  1  0  0  0  0
  3  5  2  0  0  0  0
  3  8  1  0  0  0  0
  4  2  2  0  0  0  0
  5  1  1  0  0  0  0
  6  4  1  0  0  0  0
  6  7  2  0  0  0  0
  7  3  1  0  0  0  0
  8  9  1  0  0  0  0
 10 16  1  6  0  0  0
 11 13  1  0  0  0  0
 12 11  1  0  0  0  0
 12 14  1  0  0  0  0
 13 17  2  0  0  0  0
 14 15  1  0  0  0  0
 15 10  1  0  0  0  0
 15 18  1  1  0  0  0
 17 10  1  0  0  0  0
 17  9  1  0  0  0  0
 18 20  1  0  0  0  0
 19 18  2  0  0  0  0
 21 22  1  0  0  0  0
 23 26  1  0  0  0  0
 24 22  1  6  0  0  0
 24 23  1  0  0  0  0
 24 27  1  0  0  0  0
 26 25  1  6  0  0  0
 27 38  1  6  0  0  0
 27 25  1  0  0  0  0
 28 30  1  1  0  0  0
 28 32  1  0  0  0  0
 28 26  1  0  0  0  0
 29 34  1  6  0  0  0
 29 28  1  0  0  0  0
 29 32  1  0  0  0  0
 31 35  1  6  0  0  0
 31 33  1  0  0  0  0
 33 30  1  0  0  0  0
 34 31  1  0  0  0  0
 36 38  1  0  0  0  0
 37 38  2  0  0  0  0
M  END
>  <MODEL>
8

>  <REMARK>
 VINA RESULT:      -6.9      2.366      4.862
  Name = 
  10 active torsions:
  status: ('A' for Active; 'I' for Inactive)
    1  A    between atoms: C_2  and  C_28
    2  A    between atoms: C_3  and  C_21
    3  A    between atoms: C_5  and  C_33
    4  A    between atoms: C_9  and  C_19
    5  A    between atoms: C_10  and  C_27
    6  A    between atoms: C_10  and  C_28
    7  A    between atoms: O_15  and  N_17
    8  A    between atoms: O_15  and  C_19
    9  A    between atoms: N_17  and  C_29
   10  A    between atoms: C_34  and  C_35
                            x       y       z     vdW  Elec       q    Type
                         _______ _______ _______ _____ _____    ______ ____

>  <TORSDO>
F 10

$$$$
=
 OpenBabel11072412153D

 38 42  0  0  1  0  0  0  0  0999 V2000
  161.3340  208.3880  152.3860 N   0  0  0  0  0  2  0  0  0  0  0  0
  162.0580  210.2200  150.9680 C   0  0  0  0  0  3  0  0  0  0  0  0
  161.4500  208.1480  149.8960 C   0  0  0  0  0  0  0  0  0  0  0  0
  162.3170  210.7520  149.7460 N   0  0  0  0  0  0  0  0  0  0  0  0
  161.6070  208.9060  151.0750 C   0  0  0  0  0  0  0  0  0  0  0  0
  162.1540  210.0400  148.6300 N   0  0  0  0  0  0  0  0  0  0  0  0
  161.7310  208.7520  148.6690 C   0  0  0  0  0  3  0  0  0  0  0  0
  161.0430  206.7090  149.8970 C   0  0  0  0  0  2  0  0  0  0  0  0
  161.3760  206.0410  148.5670 C   0  0  0  0  0  2  0  0  0  0  0  0
  160.9080  203.9770  150.0080 C   0  0  2  0  0  3  0  0  0  0  0  0
  161.2560  202.3410  147.3820 C   0  0  0  0  0  2  0  0  0  0  0  0
  160.1230  201.7580  148.2120 C   0  0  0  0  0  2  0  0  0  0  0  0
  161.3310  203.8380  147.5090 C   0  0  0  0  0  3  0  0  0  0  0  0
  160.5810  201.4670  149.6420 C   0  0  0  0  0  2  0  0  0  0  0  0
  161.4650  202.5700  150.2390 C   0  0  2  0  0  3  0  0  0  0  0  0
  159.5480  204.0380  150.2580 F   0  0  0  0  0  0  0  0  0  0  0  0
  161.2270  204.5550  148.6480 C   0  0  0  0  0  0  0  0  0  0  0  0
  161.6880  202.3220  151.6930 C   0  0  0  0  0  0  0  0  0  0  0  0
  160.8090  202.8340  152.6410 O   0  0  0  0  0  1  0  0  0  0  0  0
  162.6750  201.6360  152.0630 O   0  0  0  0  0  0  0  0  0  0  0  0
  160.4250  208.9320  153.2310 O   0  0  0  0  0  0  0  0  0  0  0  0
  161.1300  209.1690  154.4150 C   0  0  0  0  0  2  0  0  0  0  0  0
  159.0650  210.2070  155.0130 O   0  0  0  0  0  0  0  0  0  0  0  0
  160.1660  209.5120  155.5500 C   0  0  2  0  0  3  0  0  0  0  0  0
  160.3830  211.7480  156.2980 C   0  0  0  0  0  2  0  0  0  0  0  0
  159.1180  211.5340  155.4960 C   0  0  1  0  0  3  0  0  0  0  0  0
  160.7650  210.3560  156.6700 C   0  0  2  0  0  3  0  0  0  0  0  0
  159.0330  212.5250  154.3430 C   0  0  2  0  0  0  0  0  0  0  0  0
  157.7180  213.2890  154.2990 C   0  0  1  0  0  3  0  0  0  0  0  0
  159.6530  212.1470  152.9850 C   0  0  0  0  0  2  0  0  0  0  0  0
  158.4080  214.1470  151.9440 C   0  0  2  0  0  3  0  0  0  0  0  0
  159.0050  213.9850  154.7550 C   0  0  0  0  0  2  0  0  0  0  0  0
  159.6800  213.2920  151.9680 C   0  0  0  0  0  2  0  0  0  0  0  0
  157.2890  213.6380  152.8600 C   0  0  0  0  0  2  0  0  0  0  0  0
  157.9350  214.2530  150.6370 O   0  0  0  0  0  1  0  0  0  0  0  0
  162.7020  209.0900  157.2480 O   0  0  0  0  0  1  0  0  0  0  0  0
  163.0990  211.2850  156.7340 O   0  0  0  0  0  0  0  0  0  0  0  0
  162.2370  210.2080  156.9080 C   0  0  0  0  0  0  0  0  0  0  0  0
  1 21  1  0  0  0  0
  2  5  1  0  0  0  0
  3  8  1  0  0  0  0
  3  5  2  0  0  0  0
  4  2  2  0  0  0  0
  5  1  1  0  0  0  0
  6  7  2  0  0  0  0
  6  4  1  0  0  0  0
  7  3  1  0  0  0  0
  9 17  1  0  0  0  0
  9  8  1  0  0  0  0
 10 15  1  0  0  0  0
 10 16  1  6  0  0  0
 11 13  1  0  0  0  0
 11 12  1  0  0  0  0
 12 14  1  0  0  0  0
 13 17  2  0  0  0  0
 14 15  1  0  0  0  0
 15 18  1  1  0  0  0
 17 10  1  0  0  0  0
 18 20  2  0  0  0  0
 18 19  1  0  0  0  0
 21 22  1  0  0  0  0
 23 26  1  0  0  0  0
 23 24  1  0  0  0  0
 24 22  1  6  0  0  0
 24 27  1  0  0  0  0
 25 27  1  0  0  0  0
 26 25  1  6  0  0  0
 27 38  1  6  0  0  0
 28 30  1  6  0  0  0
 28 32  1  0  0  0  0
 28 26  1  0  0  0  0
 29 34  1  6  0  0  0
 29 28  1  0  0  0  0
 29 32  1  0  0  0  0
 31 35  1  6  0  0  0
 31 33  1  0  0  0  0
 31 34  1  0  0  0  0
 33 30  1  0  0  0  0
 37 38  2  0  0  0  0
 38 36  1  0  0  0  0
M  END
>  <MODEL>
9

>  <REMARK>
 VINA RESULT:      -6.8      1.904      2.333
  Name = 
  10 active torsions:
  status: ('A' for Active; 'I' for Inactive)
    1  A    between atoms: C_2  and  C_28
    2  A    between atoms: C_3  and  C_21
    3  A    between atoms: C_5  and  C_33
    4  A    between atoms: C_9  and  C_19
    5  A    between atoms: C_10  and  C_27
    6  A    between atoms: C_10  and  C_28
    7  A    between atoms: O_15  and  N_17
    8  A    between atoms: O_15  and  C_19
    9  A    between atoms: N_17  and  C_29
   10  A    between atoms: C_34  and  C_35
                            x       y       z     vdW  Elec       q    Type
                         _______ _______ _______ _____ _____    ______ ____

>  <TORSDO>
F 10

$$$$
