=
 OpenBabel11072411573D

 60 65  0  0  1  0  0  0  0  0999 V2000
  160.1670  209.8690  154.0470 C   0  0  2  0  0  3  0  0  0  0  0  0
  161.9720  207.1060  153.6680 C   0  0  2  0  0  3  0  0  0  0  0  0
  160.5960  211.8480  147.0960 O   0  0  0  0  0  0  0  0  0  0  0  0
  159.8080  214.2310  149.3000 O   0  0  0  0  0  0  0  0  0  0  0  0
  163.4790  210.0440  149.2760 C   0  0  0  0  0  2  0  0  0  0  0  0
  158.5150  212.5010  148.1920 C   0  0  0  0  0  2  0  0  0  0  0  0
  162.1740  208.4710  153.0050 C   0  0  2  0  0  3  0  0  0  0  0  0
  161.6870  209.6400  153.8900 C   0  0  1  0  0  3  0  0  0  0  0  0
  159.5190  210.7690  152.9860 C   0  0  1  0  0  3  0  0  0  0  0  0
  159.6290  212.5370  154.7100 C   0  0  0  0  0  3  0  0  0  0  0  0
  160.2330  211.5290  155.6440 C   0  0  2  0  0  3  0  0  0  0  0  0
  160.6720  206.5510  153.1100 C   0  0  1  0  0  3  0  0  0  0  0  0
  158.2680  210.2670  152.6750 F   0  0  0  0  0  0  0  0  0  0  0  0
  161.9240  207.1800  155.0620 O   0  0  0  0  0  1  0  0  0  0  0  0
  162.0510  208.6000  150.5930 C   0  0  0  0  0  0  0  0  0  0  0  0
  159.3630  212.2000  153.4510 C   0  0  0  0  0  0  0  0  0  0  0  0
  157.8660  213.4900  150.4110 C   0  0  1  0  0  3  0  0  0  0  0  0
  159.0790  207.6040  151.5220 C   0  0  0  0  0  1  0  0  0  0  0  0
  160.1570  213.8230  150.6050 C   0  0  0  0  0  2  0  0  0  0  0  0
  159.0400  212.9820  151.1630 C   0  0  1  0  0  3  0  0  0  0  0  0
  158.4950  213.7750  149.0600 C   0  0  1  0  0  3  0  0  0  0  0  0
  159.3850  212.5510  146.9310 C   0  0  1  0  0  3  0  0  0  0  0  0
  159.7800  210.2210  155.3640 O   0  0  0  0  0  0  0  0  0  0  0  0
  161.4330  208.3450  151.7140 C   0  0  0  0  0  0  0  0  0  0  0  0
  162.6580  208.8090  149.4570 C   0  0  0  0  0  0  0  0  0  0  0  0
  163.0930  210.7810  148.0030 C   0  0  0  0  0  2  0  0  0  0  0  0
  158.9140  213.1780  152.5630 O   0  0  0  0  0  0  0  0  0  0  0  0
  163.3770  212.9480  148.9610 O   0  0  0  0  0  0  0  0  0  0  0  0
  156.8710  212.5340  150.3440 F   0  0  0  0  0  0  0  0  0  0  0  0
  162.6310  212.1690  148.3050 C   0  0  0  0  0  0  0  0  0  0  0  0
  160.5140  207.1740  151.7340 C   0  0  1  0  0  3  0  0  0  0  0  0
  161.3990  212.6270  147.8410 O   0  0  0  0  0  0  0  0  0  0  0  0
  161.9050  204.9460  152.3820 O   0  0  0  0  0  1  0  0  0  0  0  0
  160.7570  205.1630  152.9950 O   0  0  0  0  0  0  0  0  0  0  0  0
  159.9220  211.9000  157.0850 C   0  0  0  0  0  2  0  0  0  0  0  0
  158.6250  212.6880  157.1770 C   0  0  0  0  0  3  0  0  0  0  0  0
  158.7380  213.9840  156.3930 C   0  0  0  0  0  1  0  0  0  0  0  0
  157.4970  211.8560  156.6060 C   0  0  0  0  0  1  0  0  0  0  0  0
  162.4980  210.8150  153.8290 O   0  0  0  0  0  0  0  0  0  0  0  0
  163.6420  211.1900  156.0030 C   0  0  0  0  0  1  0  0  0  0  0  0
  163.6900  211.0100  154.5310 C   0  0  0  0  0  0  0  0  0  0  0  0
  164.8000  211.0420  153.9440 O   0  0  0  0  0  0  0  0  0  0  0  0
  162.7750  207.6840  148.4860 C   0  0  0  0  0  2  0  0  0  0  0  0
  161.4120  207.0570  148.2350 C   0  0  0  0  0  2  0  0  0  0  0  0
  161.3350  206.3240  146.9260 C   0  0  0  0  0  0  0  0  0  0  0  0
  161.5380  206.9490  145.8950 O   0  0  0  0  0  0  0  0  0  0  0  0
  160.9940  204.8580  146.8620 C   0  0  1  0  0  3  0  0  0  0  0  0
  161.9860  203.5060  145.1820 O   0  0  0  0  0  0  0  0  0  0  0  0
  160.9210  204.3470  145.4280 C   0  0  0  0  0  3  0  0  0  0  0  0
  160.7780  202.9750  145.4320 O   0  0  0  0  0  0  0  0  0  0  0  0
  161.8940  203.9920  147.7540 C   0  0  0  0  0  2  0  0  0  0  0  0
  161.4800  203.9730  149.2200 C   0  0  0  0  0  2  0  0  0  0  0  0
  160.4880  202.8580  149.4800 C   0  0  0  0  0  1  0  0  0  0  0  0
  159.5890  213.8570  146.4460 O   0  0  0  0  0  0  0  0  0  0  0  0
  159.7670  213.7550  145.0560 C   0  0  1  0  0  0  0  0  0  0  0  0
  160.8410  212.3360  143.4440 F   0  0  0  0  0  0  0  0  0  0  0  0
  160.9860  214.4530  144.4900 C   0  0  0  0  0  2  0  0  0  0  0  0
  160.9930  212.9390  144.6790 C   0  0  1  0  0  3  0  0  0  0  0  0
  158.5580  213.6130  144.1770 C   0  0  0  0  0  3  0  0  0  0  0  0
  157.6390  214.4030  144.2780 O   0  0  0  0  0  0  0  0  0  0  0  0
  1 23  1  1  0  0  0
  2 14  1  1  0  0  0
  3 32  1  0  0  0  0
  4 19  1  0  0  0  0
  5 25  1  0  0  0  0
  7 24  1  6  0  0  0
  7  2  1  0  0  0  0
  7  8  1  0  0  0  0
  8 39  1  6  0  0  0
  8  1  1  0  0  0  0
  9 13  1  1  0  0  0
  9 16  1  0  0  0  0
  9  1  1  0  0  0  0
 10 11  1  0  0  0  0
 11 35  1  1  0  0  0
 12 34  1  6  0  0  0
 12  2  1  0  0  0  0
 15 24  2  0  0  0  0
 16 10  2  0  0  0  0
 17 29  1  6  0  0  0
 17 20  1  0  0  0  0
 20 19  1  6  0  0  0
 20 27  1  0  0  0  0
 21  6  1  6  0  0  0
 21  4  1  0  0  0  0
 21 17  1  0  0  0  0
 22 54  1  1  0  0  0
 22  3  1  0  0  0  0
 22  6  1  0  0  0  0
 23 11  1  0  0  0  0
 24 31  1  0  0  0  0
 25 15  2  0  0  0  0
 26 30  1  0  0  0  0
 26  5  1  0  0  0  0
 27 16  1  0  0  0  0
 30 28  2  0  0  0  0
 31 18  1  1  0  0  0
 31 12  1  0  0  0  0
 32 30  1  0  0  0  0
 33 34  1  0  0  0  0
 35 36  1  0  0  0  0
 37 36  1  0  0  0  0
 38 36  1  0  0  0  0
 39 41  1  0  0  0  0
 41 40  1  0  0  0  0
 42 41  2  0  0  0  0
 43 25  1  0  0  0  0
 44 43  1  0  0  0  0
 45 44  1  0  0  0  0
 46 45  2  0  0  0  0
 47 45  1  0  0  0  0
 47 51  1  1  0  0  0
 48 49  1  0  0  0  0
 48 50  1  0  0  0  0
 49 50  1  0  0  0  0
 49 47  1  0  0  0  0
 51 52  1  0  0  0  0
 52 53  1  0  0  0  0
 55 59  1  6  0  0  0
 55 54  1  0  0  0  0
 57 58  1  0  0  0  0
 57 55  1  0  0  0  0
 58 56  1  6  0  0  0
 58 55  1  0  0  0  0
 59 60  2  0  0  0  0
M  END
>  <MODEL>
1

>  <REMARK>
 VINA RESULT:       4.6      0.000      0.000
  Name = 
  15 active torsions:
  status: ('A' for Active; 'I' for Inactive)
    1  A    between atoms: C_2  and  C_18
    2  A    between atoms: C_2  and  C_29
    3  A    between atoms: C_4  and  C_7
    4  A    between atoms: C_4  and  C_25
    5  A    between atoms: C_4  and  C_43
    6  A    between atoms: O_6  and  C_11
    7  A    between atoms: O_6  and  C_15
    8  A    between atoms: C_7  and  C_27
    9  A    between atoms: C_10  and  O_36
   10  A    between atoms: C_10  and  C_50
   11  A    between atoms: C_19  and  O_42
   12  A    between atoms: C_27  and  C_34
   13  A    between atoms: C_34  and  C_49
   14  A    between atoms: O_36  and  C_46
   15  A    between atoms: C_43  and  C_44
                            x       y       z     vdW  Elec       q    Type
                         _______ _______ _______ _____ _____    ______ ____

>  <TORSDO>
F 15

$$$$
