=
 OpenBabel11072412003D

 45 49  0  0  1  0  0  0  0  0999 V2000
  162.5380  209.0780  151.8600 C   0  0  0  0  0  2  0  0  0  0  0  0
  162.7130  209.7610  154.4920 O   0  0  0  0  0  1  0  0  0  0  0  0
  161.7880  210.6510  150.1340 C   0  0  0  0  0  3  0  0  0  0  0  0
  160.7960  210.8340  153.7740 O   0  0  0  0  0  0  0  0  0  0  0  0
  161.7440  210.2850  151.4820 C   0  0  0  0  0  0  0  0  0  0  0  0
  161.1210  212.1250  148.3120 N   0  0  0  0  0  1  0  0  0  0  0  0
  160.6920  208.4390  154.1400 C   0  0  1  0  0  3  0  0  0  0  0  0
  161.3170  209.7820  154.5920 C   0  0  1  0  0  0  0  0  0  0  0  0
  161.6690  207.2610  154.1180 C   0  0  0  0  0  2  0  0  0  0  0  0
  161.0720  211.7560  149.6840 C   0  0  0  0  0  0  0  0  0  0  0  0
  160.2570  212.1550  151.8730 C   0  0  0  0  0  3  0  0  0  0  0  0
  161.9680  206.7660  152.6920 C   0  0  2  0  0  3  0  0  0  0  0  0
  161.7330  207.8150  151.5970 C   0  0  0  0  0  2  0  0  0  0  0  0
  160.9520  211.0550  152.3880 C   0  0  0  0  0  0  0  0  0  0  0  0
  160.3270  212.4810  150.5560 N   0  0  0  0  0  0  0  0  0  0  0  0
  159.2700  207.1430  155.6800 C   0  0  0  0  0  2  0  0  0  0  0  0
  159.3650  208.0930  154.7530 C   0  0  0  0  0  3  0  0  0  0  0  0
  160.9620  210.0720  156.0580 C   0  0  0  0  0  2  0  0  0  0  0  0
  159.7300  210.9060  156.2060 C   0  0  0  0  0  0  0  0  0  0  0  0
  157.3470  211.1630  156.0860 C   0  0  0  0  0  0  0  0  0  0  0  0
  157.4450  212.4520  156.5170 C   0  0  0  0  0  0  0  0  0  0  0  0
  155.1890  212.0390  156.0910 C   0  0  0  0  0  2  0  0  0  0  0  0
  159.8340  212.2400  156.6570 C   0  0  0  0  0  3  0  0  0  0  0  0
  155.9890  210.8380  155.8360 N   0  0  0  0  0  0  0  0  0  0  0  0
  158.6830  213.0300  156.8140 C   0  0  0  0  0  0  0  0  0  0  0  0
  156.1500  213.0380  156.5700 N   0  0  0  0  0  0  0  0  0  0  0  0
  155.5130  209.6570  155.1410 C   0  0  0  0  0  1  0  0  0  0  0  0
  155.8550  214.4530  156.7100 C   0  0  0  0  0  1  0  0  0  0  0  0
  158.4690  210.3530  155.9120 C   0  0  0  0  0  3  0  0  0  0  0  0
  158.7860  214.3430  157.2540 O   0  0  0  0  0  1  0  0  0  0  0  0
  161.1430  205.5160  152.4140 C   0  0  0  0  0  2  0  0  0  0  0  0
  161.8500  204.5930  151.4300 C   0  0  0  0  0  2  0  0  0  0  0  0
  160.7320  202.5210  150.5630 C   0  0  0  0  0  1  0  0  0  0  0  0
  160.8700  204.0280  150.4090 C   0  0  2  0  0  3  0  0  0  0  0  0
  161.9630  205.0280  146.3120 C   0  0  1  0  0  3  0  0  0  0  0  0
  161.5480  206.1660  147.2490 C   0  0  0  0  0  2  0  0  0  0  0  0
  160.1580  206.4310  149.1620 O   0  0  0  0  0  0  0  0  0  0  0  0
  161.8530  203.3450  148.1810 C   0  0  0  0  0  2  0  0  0  0  0  0
  160.9280  205.6670  148.5210 C   0  0  0  0  0  0  0  0  0  0  0  0
  161.2780  204.3760  149.0500 N   0  0  0  0  0  0  0  0  0  0  0  0
  162.7310  203.9580  147.0920 C   0  0  0  0  0  2  0  0  0  0  0  0
  160.7650  204.4460  145.5480 C   0  0  2  0  0  3  0  0  0  0  0  0
  161.0140  203.1200  145.1840 O   0  0  0  0  0  1  0  0  0  0  0  0
  161.6050  205.6650  143.6550 O   0  0  0  0  0  1  0  0  0  0  0  0
  160.4360  205.2640  144.3040 C   0  0  0  0  0  2  0  0  0  0  0  0
  3  5  1  0  0  0  0
  4  8  1  0  0  0  0
  5  1  1  0  0  0  0
  5 14  2  0  0  0  0
  6 10  1  0  0  0  0
  7  8  1  0  0  0  0
  7 17  1  1  0  0  0
  8  2  1  6  0  0  0
  8 18  1  0  0  0  0
  9  7  1  0  0  0  0
 10  3  2  0  0  0  0
 10 15  1  0  0  0  0
 11 14  1  0  0  0  0
 12 31  1  6  0  0  0
 12  9  1  0  0  0  0
 13  1  1  0  0  0  0
 13 12  1  0  0  0  0
 14  4  1  0  0  0  0
 15 11  2  0  0  0  0
 17 16  2  0  0  0  0
 18 19  1  0  0  0  0
 19 23  1  0  0  0  0
 20 21  2  0  0  0  0
 21 26  1  0  0  0  0
 21 25  1  0  0  0  0
 22 26  1  0  0  0  0
 23 25  2  0  0  0  0
 24 20  1  0  0  0  0
 24 22  1  0  0  0  0
 25 30  1  0  0  0  0
 26 28  1  0  0  0  0
 27 24  1  0  0  0  0
 29 20  1  0  0  0  0
 29 19  2  0  0  0  0
 32 31  1  0  0  0  0
 34 33  1  6  0  0  0
 34 32  1  0  0  0  0
 35 42  1  1  0  0  0
 35 41  1  0  0  0  0
 35 36  1  0  0  0  0
 36 39  1  0  0  0  0
 38 40  1  0  0  0  0
 39 40  1  0  0  0  0
 39 37  2  0  0  0  0
 40 34  1  0  0  0  0
 41 38  1  0  0  0  0
 42 43  1  6  0  0  0
 44 45  1  0  0  0  0
 45 42  1  0  0  0  0
M  END
>  <MODEL>
1

>  <REMARK>
 VINA RESULT:      -5.4      0.000      0.000
  Name = 
  9 active torsions:
  status: ('A' for Active; 'I' for Inactive)
    1  A    between atoms: C_1  and  C_13
    2  A    between atoms: C_2  and  C_3
    3  A    between atoms: C_2  and  C_29
    4  A    between atoms: C_11  and  C_21
    5  A    between atoms: C_11  and  C_35
    6  A    between atoms: C_13  and  C_36
    7  A    between atoms: C_21  and  C_37
    8  A    between atoms: C_23  and  C_44
    9  A    between atoms: N_32  and  C_35
                            x       y       z     vdW  Elec       q    Type
                         _______ _______ _______ _____ _____    ______ ____

>  <TORSDO>
F 9

$$$$
=
 OpenBabel11072412003D

 45 49  0  0  1  0  0  0  0  0999 V2000
  161.4200  211.6500  151.4100 C   0  0  0  0  0  2  0  0  0  0  0  0
  161.9700  213.7520  149.7670 O   0  0  0  0  0  1  0  0  0  0  0  0
  161.8640  209.3230  150.7730 C   0  0  0  0  0  3  0  0  0  0  0  0
  161.1880  212.1210  148.3270 O   0  0  0  0  0  0  0  0  0  0  0  0
  161.5840  210.6220  150.3390 C   0  0  0  0  0  0  0  0  0  0  0  0
  162.3080  206.9750  150.2950 N   0  0  0  0  0  1  0  0  0  0  0  0
  159.5740  213.2920  149.7060 C   0  0  1  0  0  3  0  0  0  0  0  0
  160.9100  213.3900  148.9280 C   0  0  1  0  0  0  0  0  0  0  0  0
  159.5720  214.0180  151.0540 C   0  0  0  0  0  2  0  0  0  0  0  0
  162.0230  208.2950  149.8480 C   0  0  0  0  0  0  0  0  0  0  0  0
  161.6340  209.8010  148.0620 C   0  0  0  0  0  3  0  0  0  0  0  0
  159.4960  213.0500  152.2470 C   0  0  2  0  0  3  0  0  0  0  0  0
  159.9960  211.6320  151.9420 C   0  0  0  0  0  2  0  0  0  0  0  0
  161.4610  210.8780  148.9390 C   0  0  0  0  0  0  0  0  0  0  0  0
  161.9070  208.5530  148.5220 N   0  0  0  0  0  0  0  0  0  0  0  0
  157.4160  212.5800  148.7520 C   0  0  0  0  0  2  0  0  0  0  0  0
  158.3280  213.5370  148.9040 C   0  0  0  0  0  3  0  0  0  0  0  0
  160.8100  214.4510  147.8220 C   0  0  0  0  0  2  0  0  0  0  0  0
  160.9020  213.8710  146.4470 C   0  0  0  0  0  0  0  0  0  0  0  0
  162.1130  213.4870  144.4110 C   0  0  0  0  0  0  0  0  0  0  0  0
  161.0770  212.7590  143.9090 C   0  0  0  0  0  0  0  0  0  0  0  0
  162.7120  212.8640  142.2490 C   0  0  0  0  0  2  0  0  0  0  0  0
  159.8280  213.1130  145.9310 C   0  0  0  0  0  3  0  0  0  0  0  0
  163.1590  213.5640  143.4560 N   0  0  0  0  0  0  0  0  0  0  0  0
  159.9070  212.5500  144.6460 C   0  0  0  0  0  0  0  0  0  0  0  0
  161.3930  212.3220  142.5930 N   0  0  0  0  0  0  0  0  0  0  0  0
  164.3090  214.4470  143.5250 C   0  0  0  0  0  1  0  0  0  0  0  0
  160.4630  211.7660  141.6280 C   0  0  0  0  0  1  0  0  0  0  0  0
  162.0650  214.0670  145.6790 C   0  0  0  0  0  3  0  0  0  0  0  0
  158.8490  211.8080  144.1370 O   0  0  0  0  0  1  0  0  0  0  0  0
  158.0650  213.0080  152.7670 C   0  0  0  0  0  2  0  0  0  0  0  0
  157.8810  213.9380  153.9590 C   0  0  0  0  0  2  0  0  0  0  0  0
  156.6760  214.1110  156.1520 C   0  0  0  0  0  1  0  0  0  0  0  0
  157.3700  213.1760  155.1750 C   0  0  2  0  0  3  0  0  0  0  0  0
  160.6830  211.0220  157.0100 C   0  0  1  0  0  3  0  0  0  0  0  0
  160.5860  212.5330  157.2390 C   0  0  0  0  0  2  0  0  0  0  0  0
  159.7070  214.4190  156.0850 O   0  0  0  0  0  0  0  0  0  0  0  0
  158.4830  210.9880  155.7870 C   0  0  0  0  0  2  0  0  0  0  0  0
  159.5860  213.1900  156.3330 C   0  0  0  0  0  0  0  0  0  0  0  0
  158.4580  212.4530  155.8300 N   0  0  0  0  0  0  0  0  0  0  0  0
  159.2810  210.4090  156.9520 C   0  0  0  0  0  2  0  0  0  0  0  0
  161.5210  210.6810  155.7710 C   0  0  2  0  0  3  0  0  0  0  0  0
  161.2420  209.3840  155.3330 O   0  0  0  0  0  1  0  0  0  0  0  0
  163.3810  210.0690  157.1640 O   0  0  0  0  0  1  0  0  0  0  0  0
  163.0150  210.8170  156.0430 C   0  0  0  0  0  2  0  0  0  0  0  0
  1 13  1  0  0  0  0
  4  8  1  0  0  0  0
  4 14  1  0  0  0  0
  5  3  1  0  0  0  0
  5  1  1  0  0  0  0
  7 17  1  6  0  0  0
  7  9  1  0  0  0  0
  8  7  1  0  0  0  0
  8  2  1  1  0  0  0
  9 12  1  0  0  0  0
 10  6  1  0  0  0  0
 10  3  2  0  0  0  0
 11 15  2  0  0  0  0
 11 14  1  0  0  0  0
 12 31  1  6  0  0  0
 13 12  1  0  0  0  0
 14  5  2  0  0  0  0
 15 10  1  0  0  0  0
 16 17  2  0  0  0  0
 18  8  1  0  0  0  0
 19 18  1  0  0  0  0
 20 29  1  0  0  0  0
 21 20  2  0  0  0  0
 21 25  1  0  0  0  0
 22 26  1  0  0  0  0
 22 24  1  0  0  0  0
 23 19  1  0  0  0  0
 24 27  1  0  0  0  0
 24 20  1  0  0  0  0
 25 23  2  0  0  0  0
 26 21  1  0  0  0  0
 28 26  1  0  0  0  0
 29 19  2  0  0  0  0
 30 25  1  0  0  0  0
 31 32  1  0  0  0  0
 32 34  1  0  0  0  0
 34 40  1  0  0  0  0
 34 33  1  1  0  0  0
 35 42  1  6  0  0  0
 35 36  1  0  0  0  0
 37 39  2  0  0  0  0
 38 40  1  0  0  0  0
 38 41  1  0  0  0  0
 39 36  1  0  0  0  0
 40 39  1  0  0  0  0
 41 35  1  0  0  0  0
 42 43  1  1  0  0  0
 42 45  1  0  0  0  0
 45 44  1  0  0  0  0
M  END
>  <MODEL>
2

>  <REMARK>
 VINA RESULT:      -4.1      3.693     10.420
  Name = 
  9 active torsions:
  status: ('A' for Active; 'I' for Inactive)
    1  A    between atoms: C_1  and  C_13
    2  A    between atoms: C_2  and  C_3
    3  A    between atoms: C_2  and  C_29
    4  A    between atoms: C_11  and  C_21
    5  A    between atoms: C_11  and  C_35
    6  A    between atoms: C_13  and  C_36
    7  A    between atoms: C_21  and  C_37
    8  A    between atoms: C_23  and  C_44
    9  A    between atoms: N_32  and  C_35
                            x       y       z     vdW  Elec       q    Type
                         _______ _______ _______ _____ _____    ______ ____

>  <TORSDO>
F 9

$$$$
=
 OpenBabel11072412003D

 45 49  0  0  1  0  0  0  0  0999 V2000
  160.4260  208.8250  151.6550 C   0  0  0  0  0  2  0  0  0  0  0  0
  159.8240  206.1930  151.2910 O   0  0  0  0  0  1  0  0  0  0  0  0
  161.5180  210.1820  149.9280 C   0  0  0  0  0  3  0  0  0  0  0  0
  161.8750  206.4350  150.2500 O   0  0  0  0  0  0  0  0  0  0  0  0
  161.3160  208.9040  150.4580 C   0  0  0  0  0  0  0  0  0  0  0  0
  162.5420  211.6590  148.2820 N   0  0  0  0  0  1  0  0  0  0  0  0
  161.8270  206.3740  152.6740 C   0  0  1  0  0  3  0  0  0  0  0  0
  161.1820  205.8600  151.3630 C   0  0  1  0  0  0  0  0  0  0  0  0
  160.8270  206.7120  153.7820 C   0  0  0  0  0  2  0  0  0  0  0  0
  162.3400  210.3580  148.8190 C   0  0  0  0  0  0  0  0  0  0  0  0
  162.7800  208.0310  148.7390 C   0  0  0  0  0  3  0  0  0  0  0  0
  160.7610  208.2200  154.0810 C   0  0  2  0  0  3  0  0  0  0  0  0
  161.2180  209.1130  152.9200 C   0  0  0  0  0  2  0  0  0  0  0  0
  161.9680  207.7870  149.8520 C   0  0  0  0  0  0  0  0  0  0  0  0
  162.9490  209.2870  148.2510 N   0  0  0  0  0  0  0  0  0  0  0  0
  164.0060  205.2680  152.3450 C   0  0  0  0  0  2  0  0  0  0  0  0
  163.0150  205.5990  153.1690 C   0  0  0  0  0  3  0  0  0  0  0  0
  161.2900  204.3300  151.2760 C   0  0  0  0  0  2  0  0  0  0  0  0
  161.1860  203.8160  149.8760 C   0  0  0  0  0  0  0  0  0  0  0  0
  161.2050  204.1810  147.5040 C   0  0  0  0  0  0  0  0  0  0  0  0
  161.0300  202.8480  147.2780 C   0  0  0  0  0  0  0  0  0  0  0  0
  161.0480  203.9020  145.1970 C   0  0  0  0  0  2  0  0  0  0  0  0
  161.0100  202.4350  149.6450 C   0  0  0  0  0  3  0  0  0  0  0  0
  161.2540  204.8790  146.2700 N   0  0  0  0  0  0  0  0  0  0  0  0
  160.9260  201.9370  148.3330 C   0  0  0  0  0  0  0  0  0  0  0  0
  160.9540  202.6070  145.8790 N   0  0  0  0  0  0  0  0  0  0  0  0
  161.1820  206.3190  146.1050 C   0  0  0  0  0  1  0  0  0  0  0  0
  160.5040  201.3820  145.2440 C   0  0  0  0  0  1  0  0  0  0  0  0
  161.2840  204.7100  148.7930 C   0  0  0  0  0  3  0  0  0  0  0  0
  160.7490  200.5780  148.1070 O   0  0  0  0  0  1  0  0  0  0  0  0
  161.5750  208.5170  155.3330 C   0  0  0  0  0  2  0  0  0  0  0  0
  160.7970  209.3930  156.3050 C   0  0  0  0  0  2  0  0  0  0  0  0
  161.2930  211.7790  156.9000 C   0  0  0  0  0  1  0  0  0  0  0  0
  160.7590  210.8400  155.8300 C   0  0  2  0  0  3  0  0  0  0  0  0
  156.7480  212.1030  154.6900 C   0  0  1  0  0  3  0  0  0  0  0  0
  157.8190  212.0220  153.5990 C   0  0  0  0  0  2  0  0  0  0  0  0
  160.1870  212.2170  153.4600 O   0  0  0  0  0  0  0  0  0  0  0  0
  158.3140  211.1360  156.4080 C   0  0  0  0  0  2  0  0  0  0  0  0
  159.2010  211.8590  154.1590 C   0  0  0  0  0  0  0  0  0  0  0  0
  159.4060  211.2210  155.4320 N   0  0  0  0  0  0  0  0  0  0  0  0
  156.9600  210.9890  155.7180 C   0  0  0  0  0  2  0  0  0  0  0  0
  156.6930  213.4930  155.3390 C   0  0  2  0  0  3  0  0  0  0  0  0
  156.5620  213.3810  156.7260 O   0  0  0  0  0  1  0  0  0  0  0  0
  154.5250  214.4530  155.7300 O   0  0  0  0  0  1  0  0  0  0  0  0
  155.5460  214.3310  154.7850 C   0  0  0  0  0  2  0  0  0  0  0  0
  1 13  1  0  0  0  0
  3  5  1  0  0  0  0
  4  8  1  0  0  0  0
  5  1  1  0  0  0  0
  6 10  1  0  0  0  0
  7 17  1  1  0  0  0
  7  9  1  0  0  0  0
  8  2  1  6  0  0  0
  8  7  1  0  0  0  0
  9 12  1  0  0  0  0
 10  3  2  0  0  0  0
 11 14  1  0  0  0  0
 12 31  1  1  0  0  0
 13 12  1  0  0  0  0
 14  4  1  0  0  0  0
 14  5  2  0  0  0  0
 15 11  2  0  0  0  0
 15 10  1  0  0  0  0
 16 17  2  0  0  0  0
 18  8  1  0  0  0  0
 19 18  1  0  0  0  0
 20 29  1  0  0  0  0
 21 20  2  0  0  0  0
 21 25  1  0  0  0  0
 22 26  1  0  0  0  0
 22 24  1  0  0  0  0
 23 19  1  0  0  0  0
 24 20  1  0  0  0  0
 25 23  2  0  0  0  0
 26 21  1  0  0  0  0
 27 24  1  0  0  0  0
 28 26  1  0  0  0  0
 29 19  2  0  0  0  0
 30 25  1  0  0  0  0
 31 32  1  0  0  0  0
 34 32  1  0  0  0  0
 34 33  1  1  0  0  0
 35 42  1  1  0  0  0
 35 41  1  0  0  0  0
 36 39  1  0  0  0  0
 36 35  1  0  0  0  0
 37 39  2  0  0  0  0
 39 40  1  0  0  0  0
 40 34  1  0  0  0  0
 40 38  1  0  0  0  0
 41 38  1  0  0  0  0
 42 43  1  1  0  0  0
 45 42  1  0  0  0  0
 45 44  1  0  0  0  0
M  END
>  <MODEL>
3

>  <REMARK>
 VINA RESULT:      -3.7      2.142      9.972
  Name = 
  9 active torsions:
  status: ('A' for Active; 'I' for Inactive)
    1  A    between atoms: C_1  and  C_13
    2  A    between atoms: C_2  and  C_3
    3  A    between atoms: C_2  and  C_29
    4  A    between atoms: C_11  and  C_21
    5  A    between atoms: C_11  and  C_35
    6  A    between atoms: C_13  and  C_36
    7  A    between atoms: C_21  and  C_37
    8  A    between atoms: C_23  and  C_44
    9  A    between atoms: N_32  and  C_35
                            x       y       z     vdW  Elec       q    Type
                         _______ _______ _______ _____ _____    ______ ____

>  <TORSDO>
F 9

$$$$
=
 OpenBabel11072412003D

 45 49  0  0  1  0  0  0  0  0999 V2000
  162.6790  208.1720  150.8330 C   0  0  0  0  0  2  0  0  0  0  0  0
  163.3760  210.6820  150.0360 O   0  0  0  0  0  1  0  0  0  0  0  0
  161.9460  206.4400  149.2580 C   0  0  0  0  0  3  0  0  0  0  0  0
  161.5790  210.1560  148.6810 O   0  0  0  0  0  0  0  0  0  0  0  0
  162.0510  207.8080  149.5280 C   0  0  0  0  0  0  0  0  0  0  0  0
  161.2620  204.6120  147.8000 N   0  0  0  0  0  1  0  0  0  0  0  0
  161.1310  210.7390  150.9910 C   0  0  1  0  0  3  0  0  0  0  0  0
  162.0370  210.9790  149.7580 C   0  0  1  0  0  0  0  0  0  0  0  0
  161.8790  210.6790  152.3250 C   0  0  0  0  0  2  0  0  0  0  0  0
  161.3660  206.0040  148.0710 C   0  0  0  0  0  0  0  0  0  0  0  0
  160.9820  208.2440  147.4010 C   0  0  0  0  0  3  0  0  0  0  0  0
  161.8630  209.2740  152.9510 C   0  0  2  0  0  3  0  0  0  0  0  0
  161.6410  208.1370  151.9440 C   0  0  0  0  0  2  0  0  0  0  0  0
  161.5520  208.7470  148.5750 C   0  0  0  0  0  0  0  0  0  0  0  0
  160.8990  206.9070  147.1730 N   0  0  0  0  0  0  0  0  0  0  0  0
  159.7660  212.5690  151.9190 C   0  0  0  0  0  2  0  0  0  0  0  0
  159.8770  211.5630  151.0560 C   0  0  0  0  0  3  0  0  0  0  0  0
  161.9690  212.4500  149.3220 C   0  0  0  0  0  2  0  0  0  0  0  0
  161.5870  212.6150  147.8850 C   0  0  0  0  0  0  0  0  0  0  0  0
  159.9220  212.7680  146.1640 C   0  0  0  0  0  0  0  0  0  0  0  0
  160.8870  212.9580  145.2210 C   0  0  0  0  0  0  0  0  0  0  0  0
  158.8370  212.9090  144.1080 C   0  0  0  0  0  2  0  0  0  0  0  0
  162.5890  212.8160  146.9110 C   0  0  0  0  0  3  0  0  0  0  0  0
  158.6420  212.7580  145.5520 N   0  0  0  0  0  0  0  0  0  0  0  0
  162.2430  212.9870  145.5590 C   0  0  0  0  0  0  0  0  0  0  0  0
  160.2840  213.0810  143.9380 N   0  0  0  0  0  0  0  0  0  0  0  0
  157.4030  212.3410  146.1830 C   0  0  0  0  0  1  0  0  0  0  0  0
  160.9680  213.0170  142.6600 C   0  0  0  0  0  1  0  0  0  0  0  0
  160.2300  212.5880  147.5120 C   0  0  0  0  0  3  0  0  0  0  0  0
  163.2290  213.1820  144.6000 O   0  0  0  0  0  1  0  0  0  0  0  0
  160.8060  209.2270  154.0460 C   0  0  0  0  0  2  0  0  0  0  0  0
  161.3920  208.7270  155.3610 C   0  0  0  0  0  2  0  0  0  0  0  0
  159.8200  208.2550  157.2570 C   0  0  0  0  0  1  0  0  0  0  0  0
  160.6480  209.3170  156.5520 C   0  0  2  0  0  3  0  0  0  0  0  0
  158.0980  212.6710  155.4400 C   0  0  1  0  0  3  0  0  0  0  0  0
  159.5730  212.9510  155.7410 C   0  0  0  0  0  2  0  0  0  0  0  0
  161.2950  211.9900  157.0730 O   0  0  0  0  0  0  0  0  0  0  0  0
  158.4440  210.1870  155.6660 C   0  0  0  0  0  2  0  0  0  0  0  0
  160.2630  211.7820  156.3820 C   0  0  0  0  0  0  0  0  0  0  0  0
  159.8100  210.4390  156.1360 N   0  0  0  0  0  0  0  0  0  0  0  0
  157.9520  211.3090  154.7560 C   0  0  0  0  0  2  0  0  0  0  0  0
  157.2230  212.7900  156.6960 C   0  0  2  0  0  3  0  0  0  0  0  0
  156.1990  211.8390  156.6710 O   0  0  0  0  0  1  0  0  0  0  0  0
  155.2320  214.1360  156.6960 O   0  0  0  0  0  1  0  0  0  0  0  0
  156.6210  214.1840  156.8350 C   0  0  0  0  0  2  0  0  0  0  0  0
  1 13  1  0  0  0  0
  3  5  1  0  0  0  0
  4  8  1  0  0  0  0
  5  1  1  0  0  0  0
  6 10  1  0  0  0  0
  7 17  1  1  0  0  0
  7  9  1  0  0  0  0
  8  2  1  1  0  0  0
  8  7  1  0  0  0  0
  9 12  1  0  0  0  0
 10  3  2  0  0  0  0
 11 14  1  0  0  0  0
 12 31  1  1  0  0  0
 13 12  1  0  0  0  0
 14  4  1  0  0  0  0
 14  5  2  0  0  0  0
 15 11  2  0  0  0  0
 15 10  1  0  0  0  0
 17 16  2  0  0  0  0
 18  8  1  0  0  0  0
 19 18  1  0  0  0  0
 20 29  2  0  0  0  0
 21 25  2  0  0  0  0
 21 20  1  0  0  0  0
 22 24  1  0  0  0  0
 23 19  2  0  0  0  0
 24 20  1  0  0  0  0
 24 27  1  0  0  0  0
 25 23  1  0  0  0  0
 26 22  1  0  0  0  0
 26 21  1  0  0  0  0
 28 26  1  0  0  0  0
 29 19  1  0  0  0  0
 30 25  1  0  0  0  0
 31 32  1  0  0  0  0
 32 34  1  0  0  0  0
 34 33  1  6  0  0  0
 35 36  1  0  0  0  0
 35 42  1  1  0  0  0
 36 39  1  0  0  0  0
 38 40  1  0  0  0  0
 39 37  2  0  0  0  0
 40 39  1  0  0  0  0
 40 34  1  0  0  0  0
 41 35  1  0  0  0  0
 41 38  1  0  0  0  0
 42 43  1  6  0  0  0
 42 45  1  0  0  0  0
 44 45  1  0  0  0  0
M  END
>  <MODEL>
4

>  <REMARK>
 VINA RESULT:      -3.6      3.086      9.456
  Name = 
  9 active torsions:
  status: ('A' for Active; 'I' for Inactive)
    1  A    between atoms: C_1  and  C_13
    2  A    between atoms: C_2  and  C_3
    3  A    between atoms: C_2  and  C_29
    4  A    between atoms: C_11  and  C_21
    5  A    between atoms: C_11  and  C_35
    6  A    between atoms: C_13  and  C_36
    7  A    between atoms: C_21  and  C_37
    8  A    between atoms: C_23  and  C_44
    9  A    between atoms: N_32  and  C_35
                            x       y       z     vdW  Elec       q    Type
                         _______ _______ _______ _____ _____    ______ ____

>  <TORSDO>
F 9

$$$$
=
 OpenBabel11072412003D

 45 49  0  0  1  0  0  0  0  0999 V2000
  161.5590  212.1460  150.8730 C   0  0  0  0  0  2  0  0  0  0  0  0
  161.5080  214.0770  148.9520 O   0  0  0  0  0  1  0  0  0  0  0  0
  162.0850  209.8020  150.3780 C   0  0  0  0  0  3  0  0  0  0  0  0
  160.5940  212.2320  147.9000 O   0  0  0  0  0  0  0  0  0  0  0  0
  161.5840  211.0150  149.8980 C   0  0  0  0  0  0  0  0  0  0  0  0
  162.6500  207.4560  150.0380 N   0  0  0  0  0  1  0  0  0  0  0  0
  159.2190  213.4280  149.4990 C   0  0  1  0  0  3  0  0  0  0  0  0
  160.3290  213.5370  148.4240 C   0  0  1  0  0  0  0  0  0  0  0  0
  159.4450  214.3050  150.7340 C   0  0  0  0  0  2  0  0  0  0  0  0
  162.1380  208.6880  149.5450 C   0  0  0  0  0  0  0  0  0  0  0  0
  161.2050  209.9390  147.7630 C   0  0  0  0  0  3  0  0  0  0  0  0
  159.7390  213.4810  151.9990 C   0  0  2  0  0  3  0  0  0  0  0  0
  160.3000  212.0800  151.7240 C   0  0  0  0  0  2  0  0  0  0  0  0
  161.1240  211.0940  148.5480 C   0  0  0  0  0  0  0  0  0  0  0  0
  161.7010  208.7790  148.2650 N   0  0  0  0  0  0  0  0  0  0  0  0
  156.9060  214.2770  149.5600 C   0  0  0  0  0  2  0  0  0  0  0  0
  157.8060  213.4790  148.9920 C   0  0  0  0  0  3  0  0  0  0  0  0
  159.8750  214.4500  147.2760 C   0  0  0  0  0  2  0  0  0  0  0  0
  160.4490  214.0530  145.9530 C   0  0  0  0  0  0  0  0  0  0  0  0
  160.2190  213.6960  143.5910 C   0  0  0  0  0  0  0  0  0  0  0  0
  161.5330  213.3480  143.4960 C   0  0  0  0  0  0  0  0  0  0  0  0
  160.6040  213.1130  141.3690 C   0  0  0  0  0  2  0  0  0  0  0  0
  161.8120  213.6970  145.8570 C   0  0  0  0  0  3  0  0  0  0  0  0
  159.6000  213.6030  142.3180 N   0  0  0  0  0  0  0  0  0  0  0  0
  162.3670  213.3350  144.6180 C   0  0  0  0  0  0  0  0  0  0  0  0
  161.8410  213.0060  142.1510 N   0  0  0  0  0  0  0  0  0  0  0  0
  158.1720  213.6540  142.0630 C   0  0  0  0  0  1  0  0  0  0  0  0
  163.0390  212.3270  141.6910 C   0  0  0  0  0  1  0  0  0  0  0  0
  159.6330  214.0530  144.8060 C   0  0  0  0  0  3  0  0  0  0  0  0
  163.7070  212.9810  144.5240 O   0  0  0  0  0  1  0  0  0  0  0  0
  158.4730  213.3900  152.8410 C   0  0  0  0  0  2  0  0  0  0  0  0
  158.7020  213.9300  154.2470 C   0  0  0  0  0  2  0  0  0  0  0  0
  158.2820  213.5180  156.6850 C   0  0  0  0  0  1  0  0  0  0  0  0
  158.3280  212.8940  155.3000 C   0  0  2  0  0  3  0  0  0  0  0  0
  161.0750  209.5120  155.3430 C   0  0  1  0  0  3  0  0  0  0  0  0
  159.6250  209.2630  154.9190 C   0  0  0  0  0  2  0  0  0  0  0  0
  157.4910  210.2230  155.3500 O   0  0  0  0  0  0  0  0  0  0  0  0
  160.6850  211.9950  155.4910 C   0  0  0  0  0  2  0  0  0  0  0  0
  158.7280  210.4270  155.2200 C   0  0  0  0  0  0  0  0  0  0  0  0
  159.2540  211.7650  155.2690 N   0  0  0  0  0  0  0  0  0  0  0  0
  161.5320  210.8920  154.8620 C   0  0  0  0  0  2  0  0  0  0  0  0
  161.2720  209.3270  156.8540 C   0  0  2  0  0  3  0  0  0  0  0  0
  162.4900  209.8780  157.2610 O   0  0  0  0  0  1  0  0  0  0  0  0
  160.0420  207.2630  156.7950 O   0  0  0  0  0  1  0  0  0  0  0  0
  161.2190  207.8560  157.2550 C   0  0  0  0  0  2  0  0  0  0  0  0
  1 13  1  0  0  0  0
  4  8  1  0  0  0  0
  4 14  1  0  0  0  0
  5  3  1  0  0  0  0
  5  1  1  0  0  0  0
  7 17  1  6  0  0  0
  7  9  1  0  0  0  0
  8  2  1  1  0  0  0
  8  7  1  0  0  0  0
  9 12  1  0  0  0  0
 10  6  1  0  0  0  0
 10  3  2  0  0  0  0
 11 15  2  0  0  0  0
 11 14  1  0  0  0  0
 12 31  1  6  0  0  0
 13 12  1  0  0  0  0
 14  5  2  0  0  0  0
 15 10  1  0  0  0  0
 17 16  2  0  0  0  0
 18  8  1  0  0  0  0
 19 18  1  0  0  0  0
 20 29  1  0  0  0  0
 21 20  2  0  0  0  0
 21 25  1  0  0  0  0
 22 26  1  0  0  0  0
 22 24  1  0  0  0  0
 23 19  1  0  0  0  0
 24 20  1  0  0  0  0
 25 23  2  0  0  0  0
 26 21  1  0  0  0  0
 27 24  1  0  0  0  0
 28 26  1  0  0  0  0
 29 19  2  0  0  0  0
 30 25  1  0  0  0  0
 31 32  1  0  0  0  0
 32 34  1  0  0  0  0
 34 33  1  1  0  0  0
 35 42  1  1  0  0  0
 36 39  1  0  0  0  0
 36 35  1  0  0  0  0
 39 40  1  0  0  0  0
 39 37  2  0  0  0  0
 40 34  1  0  0  0  0
 40 38  1  0  0  0  0
 41 35  1  0  0  0  0
 41 38  1  0  0  0  0
 42 45  1  0  0  0  0
 42 43  1  6  0  0  0
 44 45  1  0  0  0  0
M  END
>  <MODEL>
5

>  <REMARK>
 VINA RESULT:      -3.4      4.177     10.257
  Name = 
  9 active torsions:
  status: ('A' for Active; 'I' for Inactive)
    1  A    between atoms: C_1  and  C_13
    2  A    between atoms: C_2  and  C_3
    3  A    between atoms: C_2  and  C_29
    4  A    between atoms: C_11  and  C_21
    5  A    between atoms: C_11  and  C_35
    6  A    between atoms: C_13  and  C_36
    7  A    between atoms: C_21  and  C_37
    8  A    between atoms: C_23  and  C_44
    9  A    between atoms: N_32  and  C_35
                            x       y       z     vdW  Elec       q    Type
                         _______ _______ _______ _____ _____    ______ ____

>  <TORSDO>
F 9

$$$$
=
 OpenBabel11072412003D

 45 49  0  0  1  0  0  0  0  0999 V2000
  160.4370  208.2400  150.8280 C   0  0  0  0  0  2  0  0  0  0  0  0
  159.3400  209.5700  152.9380 O   0  0  0  0  0  1  0  0  0  0  0  0
  161.0310  205.8620  150.9290 C   0  0  0  0  0  3  0  0  0  0  0  0
  160.8880  208.1620  153.9220 O   0  0  0  0  0  0  0  0  0  0  0  0
  160.8360  207.0510  151.6390 C   0  0  0  0  0  0  0  0  0  0  0  0
  161.6100  203.4960  150.8700 N   0  0  0  0  0  1  0  0  0  0  0  0
  161.7090  210.1360  152.7770 C   0  0  1  0  0  3  0  0  0  0  0  0
  160.5620  209.5220  153.6190 C   0  0  1  0  0  0  0  0  0  0  0  0
  161.2420  211.0420  151.6350 C   0  0  0  0  0  2  0  0  0  0  0  0
  161.4140  204.7030  151.5960 C   0  0  0  0  0  0  0  0  0  0  0  0
  161.4250  205.8610  153.6630 C   0  0  0  0  0  3  0  0  0  0  0  0
  161.5250  210.4410  150.2480 C   0  0  2  0  0  3  0  0  0  0  0  0
  161.6670  208.9130  150.2400 C   0  0  0  0  0  2  0  0  0  0  0  0
  161.0410  207.0600  153.0520 C   0  0  0  0  0  0  0  0  0  0  0  0
  161.6020  204.7260  152.9390 N   0  0  0  0  0  0  0  0  0  0  0  0
  162.9050  210.6100  154.8790 C   0  0  0  0  0  2  0  0  0  0  0  0
  162.8580  210.7120  153.5540 C   0  0  0  0  0  3  0  0  0  0  0  0
  160.3900  210.2970  154.9340 C   0  0  0  0  0  2  0  0  0  0  0  0
  159.1720  211.1650  154.9450 C   0  0  0  0  0  0  0  0  0  0  0  0
  157.8020  212.8640  153.9470 C   0  0  0  0  0  0  0  0  0  0  0  0
  156.8900  212.7460  154.9530 C   0  0  0  0  0  0  0  0  0  0  0  0
  156.1450  214.4500  153.5460 C   0  0  0  0  0  2  0  0  0  0  0  0
  158.2270  211.0370  155.9850 C   0  0  0  0  0  3  0  0  0  0  0  0
  157.3900  213.8700  153.0360 N   0  0  0  0  0  0  0  0  0  0  0  0
  157.0710  211.8360  155.9990 C   0  0  0  0  0  0  0  0  0  0  0  0
  155.8320  213.6740  154.7500 N   0  0  0  0  0  0  0  0  0  0  0  0
  158.2070  214.4500  151.9860 C   0  0  0  0  0  1  0  0  0  0  0  0
  154.8230  214.0510  155.7240 C   0  0  0  0  0  1  0  0  0  0  0  0
  158.9640  212.0920  153.9070 C   0  0  0  0  0  3  0  0  0  0  0  0
  156.1430  211.7130  157.0250 O   0  0  0  0  0  1  0  0  0  0  0  0
  162.7720  211.0930  149.6660 C   0  0  0  0  0  2  0  0  0  0  0  0
  162.5800  211.4410  148.1950 C   0  0  0  0  0  2  0  0  0  0  0  0
  161.3340  213.4480  149.0370 C   0  0  0  0  0  1  0  0  0  0  0  0
  162.3330  212.9330  148.0130 C   0  0  2  0  0  3  0  0  0  0  0  0
  160.9960  213.6610  143.9300 C   0  0  1  0  0  3  0  0  0  0  0  0
  159.9370  213.5480  145.0300 C   0  0  0  0  0  2  0  0  0  0  0  0
  159.7170  212.4600  147.1350 O   0  0  0  0  0  0  0  0  0  0  0  0
  162.8660  213.5160  145.6100 C   0  0  0  0  0  2  0  0  0  0  0  0
  160.4960  213.0170  146.3170 C   0  0  0  0  0  0  0  0  0  0  0  0
  161.8800  213.2210  146.6540 N   0  0  0  0  0  0  0  0  0  0  0  0
  162.2530  214.3400  144.4800 C   0  0  0  0  0  2  0  0  0  0  0  0
  161.3030  212.3020  143.2850 C   0  0  2  0  0  3  0  0  0  0  0  0
  162.5200  212.3480  142.6000 O   0  0  0  0  0  1  0  0  0  0  0  0
  160.7260  211.1410  141.2610 O   0  0  0  0  0  1  0  0  0  0  0  0
  160.1970  211.8670  142.3300 C   0  0  0  0  0  2  0  0  0  0  0  0
  1  5  1  0  0  0  0
  3 10  2  0  0  0  0
  3  5  1  0  0  0  0
  5 14  2  0  0  0  0
  6 10  1  0  0  0  0
  7 17  1  1  0  0  0
  7  8  1  0  0  0  0
  8  2  1  6  0  0  0
  8  4  1  0  0  0  0
  8 18  1  0  0  0  0
  9  7  1  0  0  0  0
 10 15  1  0  0  0  0
 12 31  1  1  0  0  0
 12  9  1  0  0  0  0
 13 12  1  0  0  0  0
 13  1  1  0  0  0  0
 14 11  1  0  0  0  0
 14  4  1  0  0  0  0
 15 11  2  0  0  0  0
 17 16  2  0  0  0  0
 18 19  1  0  0  0  0
 19 23  1  0  0  0  0
 20 21  2  0  0  0  0
 21 25  1  0  0  0  0
 22 26  1  0  0  0  0
 23 25  2  0  0  0  0
 24 22  1  0  0  0  0
 24 20  1  0  0  0  0
 25 30  1  0  0  0  0
 26 21  1  0  0  0  0
 26 28  1  0  0  0  0
 27 24  1  0  0  0  0
 29 20  1  0  0  0  0
 29 19  2  0  0  0  0
 32 31  1  0  0  0  0
 34 32  1  0  0  0  0
 34 33  1  1  0  0  0
 35 42  1  1  0  0  0
 35 41  1  0  0  0  0
 35 36  1  0  0  0  0
 36 39  1  0  0  0  0
 38 40  1  0  0  0  0
 39 40  1  0  0  0  0
 39 37  2  0  0  0  0
 40 34  1  0  0  0  0
 41 38  1  0  0  0  0
 42 43  1  6  0  0  0
 44 45  1  0  0  0  0
 45 42  1  0  0  0  0
M  END
>  <MODEL>
6

>  <REMARK>
 VINA RESULT:      -3.3      3.315      6.060
  Name = 
  9 active torsions:
  status: ('A' for Active; 'I' for Inactive)
    1  A    between atoms: C_1  and  C_13
    2  A    between atoms: C_2  and  C_3
    3  A    between atoms: C_2  and  C_29
    4  A    between atoms: C_11  and  C_21
    5  A    between atoms: C_11  and  C_35
    6  A    between atoms: C_13  and  C_36
    7  A    between atoms: C_21  and  C_37
    8  A    between atoms: C_23  and  C_44
    9  A    between atoms: N_32  and  C_35
                            x       y       z     vdW  Elec       q    Type
                         _______ _______ _______ _____ _____    ______ ____

>  <TORSDO>
F 9

$$$$
=
 OpenBabel11072412003D

 45 49  0  0  1  0  0  0  0  0999 V2000
  161.6280  212.3140  147.4060 C   0  0  0  0  0  2  0  0  0  0  0  0
  161.8400  214.0960  149.4570 O   0  0  0  0  0  1  0  0  0  0  0  0
  160.0550  212.6160  145.5490 C   0  0  0  0  0  3  0  0  0  0  0  0
  159.5710  214.0300  149.0190 O   0  0  0  0  0  0  0  0  0  0  0  0
  160.3500  212.8870  146.8890 C   0  0  0  0  0  0  0  0  0  0  0  0
  158.5840  212.8220  143.6170 N   0  0  0  0  0  1  0  0  0  0  0  0
  160.5560  212.1590  150.2050 C   0  0  1  0  0  3  0  0  0  0  0  0
  160.5970  213.6880  149.9550 C   0  0  1  0  0  0  0  0  0  0  0  0
  161.9320  211.4960  150.3030 C   0  0  0  0  0  2  0  0  0  0  0  0
  158.8800  213.0990  144.9800 C   0  0  0  0  0  0  0  0  0  0  0  0
  158.2700  214.1170  147.0310 C   0  0  0  0  0  3  0  0  0  0  0  0
  162.2240  210.5590  149.1180 C   0  0  2  0  0  3  0  0  0  0  0  0
  161.4180  210.8750  147.8510 C   0  0  0  0  0  2  0  0  0  0  0  0
  159.4320  213.6590  147.6630 C   0  0  0  0  0  0  0  0  0  0  0  0
  158.0190  213.8340  145.7260 N   0  0  0  0  0  0  0  0  0  0  0  0
  159.9860  210.8180  152.1930 C   0  0  0  0  0  2  0  0  0  0  0  0
  159.6020  211.6930  151.2670 C   0  0  0  0  0  3  0  0  0  0  0  0
  160.3490  214.4520  151.2640 C   0  0  0  0  0  2  0  0  0  0  0  0
  158.9230  214.3950  151.7120 C   0  0  0  0  0  0  0  0  0  0  0  0
  156.5780  214.2610  151.2220 C   0  0  0  0  0  0  0  0  0  0  0  0
  156.2810  214.2530  152.5520 C   0  0  0  0  0  0  0  0  0  0  0  0
  154.2560  214.2240  151.3960 C   0  0  0  0  0  2  0  0  0  0  0  0
  158.6190  214.3820  153.0900 C   0  0  0  0  0  3  0  0  0  0  0  0
  155.3830  214.2140  150.4590 N   0  0  0  0  0  0  0  0  0  0  0  0
  157.2840  214.3150  153.5240 C   0  0  0  0  0  0  0  0  0  0  0  0
  154.8710  214.2020  152.7270 N   0  0  0  0  0  0  0  0  0  0  0  0
  155.2770  214.4520  149.0310 C   0  0  0  0  0  1  0  0  0  0  0  0
  154.1500  214.4530  153.9620 C   0  0  0  0  0  1  0  0  0  0  0  0
  157.8910  214.3350  150.7570 C   0  0  0  0  0  3  0  0  0  0  0  0
  156.9850  214.3060  154.8800 O   0  0  0  0  0  1  0  0  0  0  0  0
  161.9880  209.1180  149.5510 C   0  0  0  0  0  2  0  0  0  0  0  0
  162.3160  208.1420  148.4290 C   0  0  0  0  0  2  0  0  0  0  0  0
  160.2550  206.9410  149.2080 C   0  0  0  0  0  1  0  0  0  0  0  0
  161.0780  207.3640  148.0010 C   0  0  2  0  0  3  0  0  0  0  0  0
  162.0770  203.8360  145.6480 C   0  0  1  0  0  3  0  0  0  0  0  0
  161.2570  204.9420  144.9810 C   0  0  0  0  0  2  0  0  0  0  0  0
  159.7240  206.6310  145.6630 O   0  0  0  0  0  0  0  0  0  0  0  0
  162.3810  205.2120  147.7340 C   0  0  0  0  0  2  0  0  0  0  0  0
  160.7410  205.9510  145.9650 C   0  0  0  0  0  0  0  0  0  0  0  0
  161.4470  206.2040  147.1920 N   0  0  0  0  0  0  0  0  0  0  0  0
  163.0900  204.4470  146.6200 C   0  0  0  0  0  2  0  0  0  0  0  0
  161.1850  202.7840  146.3210 C   0  0  2  0  0  3  0  0  0  0  0  0
  161.9570  201.8920  147.0690 O   0  0  0  0  0  1  0  0  0  0  0  0
  160.3400  200.6480  145.6120 O   0  0  0  0  0  1  0  0  0  0  0  0
  160.3570  202.0090  145.3010 C   0  0  0  0  0  2  0  0  0  0  0  0
  1 13  1  0  0  0  0
  3  5  1  0  0  0  0
  4  8  1  0  0  0  0
  5  1  1  0  0  0  0
  5 14  2  0  0  0  0
  6 10  1  0  0  0  0
  7  9  1  0  0  0  0
  7 17  1  1  0  0  0
  8  2  1  6  0  0  0
  8  7  1  0  0  0  0
  8 18  1  0  0  0  0
 10  3  2  0  0  0  0
 10 15  1  0  0  0  0
 11 14  1  0  0  0  0
 12 31  1  1  0  0  0
 12  9  1  0  0  0  0
 13 12  1  0  0  0  0
 14  4  1  0  0  0  0
 15 11  2  0  0  0  0
 17 16  2  0  0  0  0
 18 19  1  0  0  0  0
 19 23  1  0  0  0  0
 20 21  2  0  0  0  0
 21 26  1  0  0  0  0
 21 25  1  0  0  0  0
 22 26  1  0  0  0  0
 23 25  2  0  0  0  0
 24 20  1  0  0  0  0
 24 22  1  0  0  0  0
 25 30  1  0  0  0  0
 26 28  1  0  0  0  0
 27 24  1  0  0  0  0
 29 20  1  0  0  0  0
 29 19  2  0  0  0  0
 32 31  1  0  0  0  0
 34 32  1  0  0  0  0
 34 33  1  1  0  0  0
 35 42  1  1  0  0  0
 35 41  1  0  0  0  0
 36 35  1  0  0  0  0
 36 39  1  0  0  0  0
 37 39  2  0  0  0  0
 39 40  1  0  0  0  0
 40 38  1  0  0  0  0
 40 34  1  0  0  0  0
 41 38  1  0  0  0  0
 42 43  1  6  0  0  0
 45 44  1  0  0  0  0
 45 42  1  0  0  0  0
M  END
>  <MODEL>
7

>  <REMARK>
 VINA RESULT:      -3.2      3.463      4.864
  Name = 
  9 active torsions:
  status: ('A' for Active; 'I' for Inactive)
    1  A    between atoms: C_1  and  C_13
    2  A    between atoms: C_2  and  C_3
    3  A    between atoms: C_2  and  C_29
    4  A    between atoms: C_11  and  C_21
    5  A    between atoms: C_11  and  C_35
    6  A    between atoms: C_13  and  C_36
    7  A    between atoms: C_21  and  C_37
    8  A    between atoms: C_23  and  C_44
    9  A    between atoms: N_32  and  C_35
                            x       y       z     vdW  Elec       q    Type
                         _______ _______ _______ _____ _____    ______ ____

>  <TORSDO>
F 9

$$$$
=
 OpenBabel11072412003D

 45 49  0  0  1  0  0  0  0  0999 V2000
  162.6970  206.8090  150.8960 C   0  0  0  0  0  2  0  0  0  0  0  0
  163.3430  209.4560  150.8810 O   0  0  0  0  0  1  0  0  0  0  0  0
  161.9950  205.6080  148.8760 C   0  0  0  0  0  3  0  0  0  0  0  0
  161.5540  209.3200  149.4230 O   0  0  0  0  0  0  0  0  0  0  0  0
  162.0740  206.8360  149.5390 C   0  0  0  0  0  0  0  0  0  0  0  0
  161.3440  204.2800  146.9390 N   0  0  0  0  0  1  0  0  0  0  0  0
  161.0980  209.1830  151.8000 C   0  0  1  0  0  3  0  0  0  0  0  0
  161.9970  209.7950  150.6970 C   0  0  1  0  0  0  0  0  0  0  0  0
  161.8500  208.7460  153.0600 C   0  0  0  0  0  2  0  0  0  0  0  0
  161.4210  205.5320  147.6100 C   0  0  0  0  0  0  0  0  0  0  0  0
  160.9920  207.8610  147.6310 C   0  0  0  0  0  3  0  0  0  0  0  0
  161.8630  207.2180  153.2420 C   0  0  2  0  0  3  0  0  0  0  0  0
  161.6620  206.4270  151.9420 C   0  0  0  0  0  2  0  0  0  0  0  0
  161.5550  208.0050  148.9050 C   0  0  0  0  0  0  0  0  0  0  0  0
  160.9360  206.6510  147.0180 N   0  0  0  0  0  0  0  0  0  0  0  0
  159.8540  211.0820  152.7620 C   0  0  0  0  0  2  0  0  0  0  0  0
  159.8280  209.9270  152.1010 C   0  0  0  0  0  3  0  0  0  0  0  0
  161.9000  211.3290  150.7160 C   0  0  0  0  0  2  0  0  0  0  0  0
  161.6210  211.9110  149.3670 C   0  0  0  0  0  0  0  0  0  0  0  0
  160.1190  212.9160  147.7880 C   0  0  0  0  0  0  0  0  0  0  0  0
  161.1230  213.0250  146.8730 C   0  0  0  0  0  0  0  0  0  0  0  0
  159.1780  213.8170  145.8580 C   0  0  0  0  0  2  0  0  0  0  0  0
  162.6640  212.0270  148.4230 C   0  0  0  0  0  3  0  0  0  0  0  0
  158.9080  213.4110  147.2400 N   0  0  0  0  0  0  0  0  0  0  0  0
  162.4190  212.5860  147.1570 C   0  0  0  0  0  0  0  0  0  0  0  0
  160.6160  213.5980  145.6740 N   0  0  0  0  0  0  0  0  0  0  0  0
  157.5850  213.2390  147.8110 C   0  0  0  0  0  1  0  0  0  0  0  0
  161.2870  213.6260  144.3870 C   0  0  0  0  0  1  0  0  0  0  0  0
  160.3250  212.3590  149.0510 C   0  0  0  0  0  3  0  0  0  0  0  0
  163.4450  212.6970  146.2270 O   0  0  0  0  0  1  0  0  0  0  0  0
  160.8090  206.8280  154.2690 C   0  0  0  0  0  2  0  0  0  0  0  0
  160.1270  208.0570  154.8580 C   0  0  0  0  0  2  0  0  0  0  0  0
  161.1190  207.7970  157.1470 C   0  0  0  0  0  1  0  0  0  0  0  0
  160.9930  208.7020  155.9320 C   0  0  2  0  0  3  0  0  0  0  0  0
  159.3720  212.6210  156.9300 C   0  0  1  0  0  3  0  0  0  0  0  0
  158.5260  211.3850  157.2480 C   0  0  0  0  0  2  0  0  0  0  0  0
  158.2740  209.1780  156.3950 O   0  0  0  0  0  0  0  0  0  0  0  0
  161.3130  211.1980  156.1910 C   0  0  0  0  0  2  0  0  0  0  0  0
  159.0600  210.1400  156.6030 C   0  0  0  0  0  0  0  0  0  0  0  0
  160.4630  210.0100  156.3100 N   0  0  0  0  0  0  0  0  0  0  0  0
  160.8570  212.3080  157.1350 C   0  0  0  0  0  2  0  0  0  0  0  0
  159.0810  213.1730  155.5280 C   0  0  2  0  0  3  0  0  0  0  0  0
  159.6210  214.4530  155.3830 O   0  0  0  0  0  1  0  0  0  0  0  0
  157.3510  213.2410  153.8600 O   0  0  0  0  0  1  0  0  0  0  0  0
  157.5840  213.2150  155.2360 C   0  0  0  0  0  2  0  0  0  0  0  0
  1 13  1  0  0  0  0
  3  5  1  0  0  0  0
  4  8  1  0  0  0  0
  5  1  1  0  0  0  0
  6 10  1  0  0  0  0
  7 17  1  1  0  0  0
  7  9  1  0  0  0  0
  8 18  1  0  0  0  0
  8  2  1  1  0  0  0
  8  7  1  0  0  0  0
  9 12  1  0  0  0  0
 10  3  2  0  0  0  0
 11 14  1  0  0  0  0
 12 31  1  1  0  0  0
 13 12  1  0  0  0  0
 14  4  1  0  0  0  0
 14  5  2  0  0  0  0
 15 10  1  0  0  0  0
 15 11  2  0  0  0  0
 17 16  2  0  0  0  0
 19 18  1  0  0  0  0
 20 29  2  0  0  0  0
 21 25  2  0  0  0  0
 21 20  1  0  0  0  0
 22 24  1  0  0  0  0
 23 19  2  0  0  0  0
 24 20  1  0  0  0  0
 24 27  1  0  0  0  0
 25 23  1  0  0  0  0
 26 22  1  0  0  0  0
 26 21  1  0  0  0  0
 28 26  1  0  0  0  0
 29 19  1  0  0  0  0
 30 25  1  0  0  0  0
 31 32  1  0  0  0  0
 32 34  1  0  0  0  0
 34 40  1  0  0  0  0
 34 33  1  1  0  0  0
 35 42  1  6  0  0  0
 35 41  1  0  0  0  0
 35 36  1  0  0  0  0
 37 39  2  0  0  0  0
 38 40  1  0  0  0  0
 38 41  1  0  0  0  0
 39 36  1  0  0  0  0
 40 39  1  0  0  0  0
 42 43  1  1  0  0  0
 44 45  1  0  0  0  0
 45 42  1  0  0  0  0
M  END
>  <MODEL>
8

>  <REMARK>
 VINA RESULT:      -3.0      2.731      8.701
  Name = 
  9 active torsions:
  status: ('A' for Active; 'I' for Inactive)
    1  A    between atoms: C_1  and  C_13
    2  A    between atoms: C_2  and  C_3
    3  A    between atoms: C_2  and  C_29
    4  A    between atoms: C_11  and  C_21
    5  A    between atoms: C_11  and  C_35
    6  A    between atoms: C_13  and  C_36
    7  A    between atoms: C_21  and  C_37
    8  A    between atoms: C_23  and  C_44
    9  A    between atoms: N_32  and  C_35
                            x       y       z     vdW  Elec       q    Type
                         _______ _______ _______ _____ _____    ______ ____

>  <TORSDO>
F 9

$$$$
=
 OpenBabel11072412003D

 45 49  0  0  1  0  0  0  0  0999 V2000
  160.3160  208.7050  152.6260 C   0  0  0  0  0  2  0  0  0  0  0  0
  159.3060  211.0400  151.6530 O   0  0  0  0  0  1  0  0  0  0  0  0
  161.0350  208.4450  154.9570 C   0  0  0  0  0  3  0  0  0  0  0  0
  160.9880  211.7250  153.0830 O   0  0  0  0  0  0  0  0  0  0  0  0
  160.8310  209.3200  153.8850 C   0  0  0  0  0  0  0  0  0  0  0  0
  161.7270  208.0300  157.2560 N   0  0  0  0  0  1  0  0  0  0  0  0
  161.6250  210.8080  150.9310 C   0  0  1  0  0  3  0  0  0  0  0  0
  160.5740  211.6300  151.7170 C   0  0  1  0  0  0  0  0  0  0  0  0
  161.0330  209.8310  149.9120 C   0  0  0  0  0  2  0  0  0  0  0  0
  161.5230  208.9240  156.1690 C   0  0  0  0  0  0  0  0  0  0  0  0
  161.6220  211.1230  155.2940 C   0  0  0  0  0  3  0  0  0  0  0  0
  161.2470  208.3600  150.3070 C   0  0  2  0  0  3  0  0  0  0  0  0
  161.4650  208.1360  151.8100 C   0  0  0  0  0  2  0  0  0  0  0  0
  161.1350  210.7050  154.0500 C   0  0  0  0  0  0  0  0  0  0  0  0
  161.8040  210.2430  156.3120 N   0  0  0  0  0  0  0  0  0  0  0  0
  163.0540  211.6090  149.0890 C   0  0  0  0  0  2  0  0  0  0  0  0
  162.7960  211.5800  150.3940 C   0  0  0  0  0  3  0  0  0  0  0  0
  160.4560  213.0460  151.1340 C   0  0  0  0  0  2  0  0  0  0  0  0
  159.5580  213.1130  149.9400 C   0  0  0  0  0  0  0  0  0  0  0  0
  159.2100  212.9790  147.5700 C   0  0  0  0  0  0  0  0  0  0  0  0
  157.8750  213.2020  147.7340 C   0  0  0  0  0  0  0  0  0  0  0  0
  158.2700  213.0510  145.4400 C   0  0  0  0  0  2  0  0  0  0  0  0
  158.1750  213.3390  150.1140 C   0  0  0  0  0  3  0  0  0  0  0  0
  159.5130  212.8480  146.1900 N   0  0  0  0  0  0  0  0  0  0  0  0
  157.3170  213.3890  149.0020 C   0  0  0  0  0  0  0  0  0  0  0  0
  157.2360  213.2290  146.4640 N   0  0  0  0  0  0  0  0  0  0  0  0
  160.8430  212.8500  145.6090 C   0  0  0  0  0  1  0  0  0  0  0  0
  155.8920  213.7060  146.1910 C   0  0  0  0  0  1  0  0  0  0  0  0
  160.0900  212.9310  148.6510 C   0  0  0  0  0  3  0  0  0  0  0  0
  155.9570  213.6150  149.1730 O   0  0  0  0  0  1  0  0  0  0  0  0
  162.4160  207.7930  149.5110 C   0  0  0  0  0  2  0  0  0  0  0  0
  161.9910  207.4130  148.0990 C   0  0  0  0  0  2  0  0  0  0  0  0
  160.6380  205.8570  149.5280 C   0  0  0  0  0  1  0  0  0  0  0  0
  160.8590  206.3930  148.1220 C   0  0  2  0  0  3  0  0  0  0  0  0
  161.5250  203.0870  145.3640 C   0  0  1  0  0  3  0  0  0  0  0  0
  161.0160  204.4140  144.7940 C   0  0  0  0  0  2  0  0  0  0  0  0
  159.7320  206.2640  145.5630 O   0  0  0  0  0  0  0  0  0  0  0  0
  161.7790  204.0820  147.6620 C   0  0  0  0  0  2  0  0  0  0  0  0
  160.5590  205.3620  145.8630 C   0  0  0  0  0  0  0  0  0  0  0  0
  161.1230  205.3030  147.1860 N   0  0  0  0  0  0  0  0  0  0  0  0
  162.4870  203.3490  146.5260 C   0  0  0  0  0  2  0  0  0  0  0  0
  160.3740  202.1520  145.7590 C   0  0  2  0  0  3  0  0  0  0  0  0
  160.8320  201.1470  146.6160 O   0  0  0  0  0  1  0  0  0  0  0  0
  159.9430  200.1420  144.5130 O   0  0  0  0  0  1  0  0  0  0  0  0
  159.7140  201.5190  144.5380 C   0  0  0  0  0  2  0  0  0  0  0  0
  1  5  1  0  0  0  0
  3 10  1  0  0  0  0
  4 14  1  0  0  0  0
  5 14  1  0  0  0  0
  5  3  2  0  0  0  0
  7 17  1  6  0  0  0
  7  8  1  0  0  0  0
  8  2  1  6  0  0  0
  8  4  1  0  0  0  0
  9 12  1  0  0  0  0
  9  7  1  0  0  0  0
 10 15  2  0  0  0  0
 10  6  1  0  0  0  0
 11 15  1  0  0  0  0
 12 31  1  6  0  0  0
 12 13  1  0  0  0  0
 13  1  1  0  0  0  0
 14 11  2  0  0  0  0
 16 17  2  0  0  0  0
 18  8  1  0  0  0  0
 19 23  1  0  0  0  0
 19 18  1  0  0  0  0
 20 21  2  0  0  0  0
 20 29  1  0  0  0  0
 21 25  1  0  0  0  0
 22 24  1  0  0  0  0
 22 26  1  0  0  0  0
 24 20  1  0  0  0  0
 25 30  1  0  0  0  0
 25 23  2  0  0  0  0
 26 21  1  0  0  0  0
 27 24  1  0  0  0  0
 28 26  1  0  0  0  0
 29 19  2  0  0  0  0
 32 34  1  0  0  0  0
 32 31  1  0  0  0  0
 34 33  1  1  0  0  0
 35 42  1  1  0  0  0
 35 41  1  0  0  0  0
 36 35  1  0  0  0  0
 36 39  1  0  0  0  0
 37 39  2  0  0  0  0
 39 40  1  0  0  0  0
 40 38  1  0  0  0  0
 40 34  1  0  0  0  0
 41 38  1  0  0  0  0
 42 43  1  1  0  0  0
 44 45  1  0  0  0  0
 45 42  1  0  0  0  0
M  END
>  <MODEL>
9

>  <REMARK>
 VINA RESULT:      -3.0      3.083      6.090
  Name = 
  9 active torsions:
  status: ('A' for Active; 'I' for Inactive)
    1  A    between atoms: C_1  and  C_13
    2  A    between atoms: C_2  and  C_3
    3  A    between atoms: C_2  and  C_29
    4  A    between atoms: C_11  and  C_21
    5  A    between atoms: C_11  and  C_35
    6  A    between atoms: C_13  and  C_36
    7  A    between atoms: C_21  and  C_37
    8  A    between atoms: C_23  and  C_44
    9  A    between atoms: N_32  and  C_35
                            x       y       z     vdW  Elec       q    Type
                         _______ _______ _______ _____ _____    ______ ____

>  <TORSDO>
F 9

$$$$
