=
 OpenBabel11072414553D

 57 61  0  0  1  0  0  0  0  0999 V2000
  161.8850  209.7750  151.6350 C   0  0  0  0  0  3  0  0  0  0  0  0
  161.1850  210.7510  152.2220 C   0  0  0  0  0  0  0  0  0  0  0  0
  160.2530  213.4030  149.5580 C   0  0  0  0  0  0  0  0  0  0  0  0
  160.3490  211.7050  151.4530 C   0  0  0  0  0  0  0  0  0  0  0  0
  160.9120  212.3950  150.3300 N   0  0  0  0  0  2  0  0  0  0  0  0
  159.1500  211.9100  151.7890 O   0  0  0  0  0  0  0  0  0  0  0  0
  159.0920  213.7950  149.8630 O   0  0  0  0  0  0  0  0  0  0  0  0
  160.9580  213.9870  148.4160 C   0  0  0  0  0  3  0  0  0  0  0  0
  161.6320  213.2420  147.5490 C   0  0  0  0  0  3  0  0  0  0  0  0
  162.3460  213.8600  146.3930 C   0  0  0  0  0  2  0  0  0  0  0  0
  160.5990  212.8190  144.9230 C   0  0  0  0  0  3  0  0  0  0  0  0
  162.8430  213.1100  144.0560 C   0  0  0  0  0  3  0  0  0  0  0  0
  162.4460  212.5430  142.8410 C   0  0  0  0  0  3  0  0  0  0  0  0
  160.2030  212.2520  143.7080 C   0  0  0  0  0  3  0  0  0  0  0  0
  161.9210  213.2460  145.1000 C   0  0  0  0  0  0  0  0  0  0  0  0
  161.1270  212.1130  142.6680 C   0  0  0  0  0  3  0  0  0  0  0  0
  161.2970  210.8420  153.6860 C   0  0  0  0  0  3  0  0  0  0  0  0
  160.4680  211.5600  154.4340 C   0  0  0  0  0  3  0  0  0  0  0  0
  160.6440  211.6300  155.9150 C   0  0  2  0  0  3  0  0  0  0  0  0
  161.1190  210.2870  156.4530 C   0  0  0  0  0  2  0  0  0  0  0  0
  160.1020  209.2630  156.2560 N   0  0  0  0  0  2  0  0  0  0  0  0
  162.0470  208.1510  156.8590 O   0  0  0  0  0  1  0  0  0  0  0  0
  160.6680  208.0090  156.7180 C   0  0  2  0  0  3  0  0  0  0  0  0
  160.7630  207.3510  154.3180 C   0  0  0  0  0  1  0  0  0  0  0  0
  160.3600  206.9160  155.7130 C   0  0  0  0  0  2  0  0  0  0  0  0
  159.4430  211.9970  156.5340 O   0  0  0  0  0  0  0  0  0  0  0  0
  158.2380  213.9210  155.7340 C   0  0  0  0  0  2  0  0  0  0  0  0
  158.6090  212.4480  155.5050 C   0  0  0  0  0  3  0  0  0  0  0  0
  157.3930  211.5180  155.3970 C   0  0  0  0  0  2  0  0  0  0  0  0
  155.7730  213.4660  155.4520 C   0  0  0  0  0  2  0  0  0  0  0  0
  156.8550  214.0690  156.3600 C   0  0  0  0  0  2  0  0  0  0  0  0
  156.2330  212.2130  154.6900 C   0  0  0  0  0  2  0  0  0  0  0  0
  161.9890  209.5640  150.1550 C   0  0  0  0  0  2  0  0  0  0  0  0
  160.4900  207.5750  150.2510 C   0  0  0  0  0  3  0  0  0  0  0  0
  162.2430  206.1160  148.4200 C   0  0  1  0  0  3  0  0  0  0  0  0
  161.7290  208.1660  149.8360 N   0  0  0  0  0  0  0  0  0  0  0  0
  162.6700  207.4080  149.0580 C   0  0  0  0  0  0  0  0  0  0  0  0
  160.2190  206.2920  150.0100 C   0  0  0  0  0  3  0  0  0  0  0  0
  163.8420  207.8330  148.8810 O   0  0  0  0  0  0  0  0  0  0  0  0
  161.2090  205.3980  149.3100 C   0  0  2  0  0  3  0  0  0  0  0  0
  161.8530  205.8560  144.5820 C   0  0  0  0  0  2  0  0  0  0  0  0
  162.4920  205.6510  145.9510 C   0  0  0  0  0  2  0  0  0  0  0  0
  159.7430  206.2960  145.7110 N   0  0  0  0  0  2  0  0  0  0  0  0
  161.6660  206.3680  147.0200 C   0  0  1  0  0  3  0  0  0  0  0  0
  160.2860  205.8850  146.9440 N   0  0  0  0  0  2  0  0  0  0  0  0
  160.3720  205.5100  144.6530 C   0  0  0  0  0  2  0  0  0  0  0  0
  161.7260  204.2140  150.1500 C   0  0  1  0  0  3  0  0  0  0  0  0
  161.2570  204.2940  151.4860 O   0  0  0  0  0  0  0  0  0  0  0  0
  159.3460  203.5190  150.4390 O   0  0  0  0  0  1  0  0  0  0  0  0
  160.7000  203.2820  150.6900 C   0  0  1  0  0  0  0  0  0  0  0  0
  162.2340  201.9930  151.9860 O   0  0  0  0  0  1  0  0  0  0  0  0
  161.1330  201.8950  151.1370 C   0  0  2  0  0  3  0  0  0  0  0  0
  161.4810  201.0290  149.9340 C   0  0  0  0  0  2  0  0  0  0  0  0
  160.4260  201.1520  148.8890 C   0  0  0  0  0  0  0  0  0  0  0  0
  159.2130  201.0020  149.1970 O   0  0  0  0  0  0  0  0  0  0  0  0
  161.2270  202.6240  147.2110 O   0  0  0  0  0  0  0  0  0  0  0  0
  160.8080  201.4750  147.5140 C   0  0  0  0  0  3  0  0  0  0  0  0
  1  2  2  0  0  0  0
  2 17  1  0  0  0  0
  3  7  2  0  0  0  0
  3  5  1  0  0  0  0
  4  6  2  0  0  0  0
  4  2  1  0  0  0  0
  5  4  1  0  0  0  0
  8  3  1  0  0  0  0
  9  8  2  0  0  0  0
 10  9  1  0  0  0  0
 11 15  1  0  0  0  0
 12 15  2  0  0  0  0
 13 12  1  0  0  0  0
 14 11  2  0  0  0  0
 15 10  1  0  0  0  0
 16 13  2  0  0  0  0
 16 14  1  0  0  0  0
 17 18  2  0  0  0  0
 19 18  1  6  0  0  0
 19 20  1  0  0  0  0
 19 26  1  0  0  0  0
 21 20  1  0  0  0  0
 21 23  1  0  0  0  0
 23 22  1  6  0  0  0
 24 25  1  0  0  0  0
 25 23  1  0  0  0  0
 27 31  1  0  0  0  0
 28 27  1  0  0  0  0
 28 26  1  0  0  0  0
 29 28  1  0  0  0  0
 30 31  1  0  0  0  0
 32 29  1  0  0  0  0
 32 30  1  0  0  0  0
 33  1  1  0  0  0  0
 35 37  1  1  0  0  0
 35 40  1  0  0  0  0
 36 33  1  0  0  0  0
 36 34  1  0  0  0  0
 37 36  1  0  0  0  0
 38 34  2  0  0  0  0
 39 37  2  0  0  0  0
 40 38  1  1  0  0  0
 40 47  1  0  0  0  0
 41 46  1  0  0  0  0
 41 42  1  0  0  0  0
 43 45  1  0  0  0  0
 44 42  1  6  0  0  0
 44 35  1  0  0  0  0
 45 44  1  0  0  0  0
 46 43  1  0  0  0  0
 47 50  1  0  0  0  0
 47 48  1  1  0  0  0
 50 49  1  6  0  0  0
 50 52  1  0  0  0  0
 50 48  1  0  0  0  0
 52 51  1  1  0  0  0
 53 52  1  0  0  0  0
 54 55  2  0  0  0  0
 54 53  1  0  0  0  0
 56 57  2  0  0  0  0
 57 54  1  0  0  0  0
M  END
>  <MODEL>
1

>  <REMARK>
 VINA RESULT:      -5.0      0.000      0.000
  Name = 
  20 active torsions:
  status: ('A' for Active; 'I' for Inactive)
    1  A    between atoms: C_6  and  C_46
    2  A    between atoms: C_7  and  O_10
    3  A    between atoms: C_9  and  C_23
    4  A    between atoms: C_9  and  C_47
    5  A    between atoms: O_10  and  C_38
    6  A    between atoms: C_16  and  C_21
    7  A    between atoms: C_17  and  C_38
    8  A    between atoms: C_17  and  N_49
    9  A    between atoms: C_19  and  C_50
   10  A    between atoms: N_22  and  C_29
   11  A    between atoms: C_23  and  C_42
   12  A    between atoms: C_24  and  C_31
   13  A    between atoms: C_25  and  C_44
   14  A    between atoms: C_29  and  C_40
   15  A    between atoms: C_31  and  C_54
   16  A    between atoms: C_34  and  C_46
   17  A    between atoms: C_38  and  C_52
   18  A    between atoms: C_42  and  C_56
   19  A    between atoms: N_49  and  C_53
   20  A    between atoms: C_51  and  C_53
                            x       y       z     vdW  Elec       q    Type
                         _______ _______ _______ _____ _____    ______ ____

>  <TORSDO>
F 20

$$$$
=
 OpenBabel11072414553D

 57 61  0  0  1  0  0  0  0  0999 V2000
  161.8750  208.6150  149.6450 C   0  0  0  0  0  3  0  0  0  0  0  0
  161.8770  209.8470  150.1610 C   0  0  0  0  0  0  0  0  0  0  0  0
  161.2280  212.2950  147.2310 C   0  0  0  0  0  0  0  0  0  0  0  0
  162.0020  211.0630  149.3200 C   0  0  0  0  0  0  0  0  0  0  0  0
  161.1550  211.2230  148.1760 N   0  0  0  0  0  2  0  0  0  0  0  0
  162.8530  211.9490  149.6100 O   0  0  0  0  0  0  0  0  0  0  0  0
  162.1170  213.1850  147.3310 O   0  0  0  0  0  0  0  0  0  0  0  0
  160.2620  212.3300  146.1310 C   0  0  0  0  0  3  0  0  0  0  0  0
  160.5610  212.8530  144.9490 C   0  0  0  0  0  3  0  0  0  0  0  0
  159.5580  212.8820  143.8430 C   0  0  0  0  0  2  0  0  0  0  0  0
  161.5250  212.1240  142.4810 C   0  0  0  0  0  3  0  0  0  0  0  0
  159.3840  212.4240  141.3870 C   0  0  0  0  0  3  0  0  0  0  0  0
  159.9510  212.0330  140.1710 C   0  0  0  0  0  3  0  0  0  0  0  0
  162.0920  211.7330  141.2640 C   0  0  0  0  0  3  0  0  0  0  0  0
  160.1700  212.4730  142.5440 C   0  0  0  0  0  0  0  0  0  0  0  0
  161.3060  211.6900  140.1100 C   0  0  0  0  0  3  0  0  0  0  0  0
  161.7610  209.9400  151.6250 C   0  0  0  0  0  3  0  0  0  0  0  0
  160.6630  210.3630  152.2410 C   0  0  0  0  0  3  0  0  0  0  0  0
  160.6130  210.4550  153.7300 C   0  0  2  0  0  3  0  0  0  0  0  0
  160.0450  211.8030  154.1550 C   0  0  0  0  0  2  0  0  0  0  0  0
  158.7630  212.0500  153.5100 N   0  0  0  0  0  2  0  0  0  0  0  0
  158.5760  212.8370  155.6850 O   0  0  0  0  0  1  0  0  0  0  0  0
  157.9760  212.8540  154.4270 C   0  0  2  0  0  3  0  0  0  0  0  0
  156.5670  211.0140  155.3390 C   0  0  0  0  0  1  0  0  0  0  0  0
  156.5710  212.2870  154.5160 C   0  0  0  0  0  2  0  0  0  0  0  0
  161.8910  210.2810  154.2750 O   0  0  0  0  0  0  0  0  0  0  0  0
  161.7220  207.9360  154.7950 C   0  0  0  0  0  2  0  0  0  0  0  0
  161.7310  209.3760  155.3310 C   0  0  0  0  0  3  0  0  0  0  0  0
  160.4690  209.7440  156.1230 C   0  0  0  0  0  2  0  0  0  0  0  0
  159.5870  207.3710  156.0150 C   0  0  0  0  0  2  0  0  0  0  0  0
  160.3040  207.3890  154.6570 C   0  0  0  0  0  2  0  0  0  0  0  0
  159.9590  208.5510  156.9260 C   0  0  0  0  0  2  0  0  0  0  0  0
  162.0770  208.2900  148.1960 C   0  0  0  0  0  2  0  0  0  0  0  0
  163.1520  206.1640  147.4640 C   0  0  0  0  0  3  0  0  0  0  0  0
  160.9180  204.6160  148.5420 C   0  0  1  0  0  3  0  0  0  0  0  0
  162.0110  206.8480  147.9980 N   0  0  0  0  0  0  0  0  0  0  0  0
  160.8440  206.1100  148.3960 C   0  0  0  0  0  0  0  0  0  0  0  0
  163.1290  204.8510  147.2350 C   0  0  0  0  0  3  0  0  0  0  0  0
  159.7660  206.7070  148.6520 O   0  0  0  0  0  0  0  0  0  0  0  0
  161.8980  204.0270  147.5080 C   0  0  2  0  0  3  0  0  0  0  0  0
  161.4010  204.9220  152.3660 C   0  0  0  0  0  2  0  0  0  0  0  0
  161.0400  205.3610  150.9510 C   0  0  0  0  0  2  0  0  0  0  0  0
  161.1740  202.6130  151.6310 N   0  0  0  0  0  2  0  0  0  0  0  0
  161.3410  204.2310  149.9660 C   0  0  1  0  0  3  0  0  0  0  0  0
  160.6270  203.0290  150.4020 N   0  0  0  0  0  2  0  0  0  0  0  0
  160.7660  203.5690  152.6570 C   0  0  0  0  0  2  0  0  0  0  0  0
  161.2740  203.3580  146.2680 C   0  0  1  0  0  3  0  0  0  0  0  0
  162.0130  202.2120  145.8810 O   0  0  0  0  0  0  0  0  0  0  0  0
  160.8630  201.3490  147.6920 O   0  0  0  0  0  1  0  0  0  0  0  0
  160.7520  201.9760  146.4480 C   0  0  1  0  0  0  0  0  0  0  0  0
  159.9960  200.0730  145.2240 O   0  0  0  0  0  1  0  0  0  0  0  0
  159.7580  201.4300  145.4360 C   0  0  2  0  0  3  0  0  0  0  0  0
  159.8650  202.1880  144.1200 C   0  0  0  0  0  2  0  0  0  0  0  0
  159.2700  203.5470  144.2580 C   0  0  0  0  0  0  0  0  0  0  0  0
  158.0220  203.6810  144.3730 O   0  0  0  0  0  0  0  0  0  0  0  0
  159.8310  205.7500  144.9370 O   0  0  0  0  0  0  0  0  0  0  0  0
  160.1480  204.7180  144.2880 C   0  0  0  0  0  3  0  0  0  0  0  0
  1  2  2  0  0  0  0
  2 17  1  0  0  0  0
  3  7  2  0  0  0  0
  3  5  1  0  0  0  0
  4  6  2  0  0  0  0
  4  2  1  0  0  0  0
  5  4  1  0  0  0  0
  8  3  1  0  0  0  0
  9  8  2  0  0  0  0
 10  9  1  0  0  0  0
 11 15  1  0  0  0  0
 12 15  2  0  0  0  0
 13 12  1  0  0  0  0
 14 11  2  0  0  0  0
 15 10  1  0  0  0  0
 16 13  2  0  0  0  0
 16 14  1  0  0  0  0
 17 18  2  0  0  0  0
 19 18  1  6  0  0  0
 19 20  1  0  0  0  0
 19 26  1  0  0  0  0
 21 20  1  0  0  0  0
 21 23  1  0  0  0  0
 23 25  1  0  0  0  0
 23 22  1  1  0  0  0
 25 24  1  0  0  0  0
 26 28  1  0  0  0  0
 27 28  1  0  0  0  0
 28 29  1  0  0  0  0
 29 32  1  0  0  0  0
 30 32  1  0  0  0  0
 31 27  1  0  0  0  0
 31 30  1  0  0  0  0
 33  1  1  0  0  0  0
 34 36  1  0  0  0  0
 35 37  1  1  0  0  0
 35 44  1  0  0  0  0
 36 33  1  0  0  0  0
 36 37  1  0  0  0  0
 37 39  2  0  0  0  0
 38 34  2  0  0  0  0
 40 38  1  6  0  0  0
 40 35  1  0  0  0  0
 41 46  1  0  0  0  0
 42 41  1  0  0  0  0
 43 46  1  0  0  0  0
 44 45  1  0  0  0  0
 44 42  1  1  0  0  0
 45 43  1  0  0  0  0
 47 48  1  6  0  0  0
 47 50  1  0  0  0  0
 47 40  1  0  0  0  0
 48 50  1  0  0  0  0
 50 49  1  1  0  0  0
 52 51  1  6  0  0  0
 52 50  1  0  0  0  0
 53 54  1  0  0  0  0
 53 52  1  0  0  0  0
 54 57  1  0  0  0  0
 54 55  2  0  0  0  0
 57 56  2  0  0  0  0
M  END
>  <MODEL>
2

>  <REMARK>
 VINA RESULT:      -4.2      2.262      4.641
  Name = 
  20 active torsions:
  status: ('A' for Active; 'I' for Inactive)
    1  A    between atoms: C_6  and  C_46
    2  A    between atoms: C_7  and  O_10
    3  A    between atoms: C_9  and  C_23
    4  A    between atoms: C_9  and  C_47
    5  A    between atoms: O_10  and  C_38
    6  A    between atoms: C_16  and  C_21
    7  A    between atoms: C_17  and  C_38
    8  A    between atoms: C_17  and  N_49
    9  A    between atoms: C_19  and  C_50
   10  A    between atoms: N_22  and  C_29
   11  A    between atoms: C_23  and  C_42
   12  A    between atoms: C_24  and  C_31
   13  A    between atoms: C_25  and  C_44
   14  A    between atoms: C_29  and  C_40
   15  A    between atoms: C_31  and  C_54
   16  A    between atoms: C_34  and  C_46
   17  A    between atoms: C_38  and  C_52
   18  A    between atoms: C_42  and  C_56
   19  A    between atoms: N_49  and  C_53
   20  A    between atoms: C_51  and  C_53
                            x       y       z     vdW  Elec       q    Type
                         _______ _______ _______ _____ _____    ______ ____

>  <TORSDO>
F 20

$$$$
=
 OpenBabel11072414553D

 57 61  0  0  1  0  0  0  0  0999 V2000
  161.4730  211.1160  153.1270 C   0  0  0  0  0  3  0  0  0  0  0  0
  160.4960  210.9190  154.0180 C   0  0  0  0  0  0  0  0  0  0  0  0
  160.6270  207.1020  154.6550 C   0  0  0  0  0  0  0  0  0  0  0  0
  160.3080  209.6260  154.7210 C   0  0  0  0  0  0  0  0  0  0  0  0
  160.8150  208.4210  154.1350 N   0  0  0  0  0  2  0  0  0  0  0  0
  159.7030  209.5900  155.8280 O   0  0  0  0  0  0  0  0  0  0  0  0
  159.9340  206.9070  155.6920 O   0  0  0  0  0  0  0  0  0  0  0  0
  161.2420  205.9740  153.9520 C   0  0  0  0  0  3  0  0  0  0  0  0
  162.2570  206.1380  153.1130 C   0  0  0  0  0  3  0  0  0  0  0  0
  162.8660  204.9740  152.4030 C   0  0  0  0  0  2  0  0  0  0  0  0
  161.7790  202.8290  151.6850 C   0  0  0  0  0  3  0  0  0  0  0  0
  160.9460  204.9230  150.7960 C   0  0  0  0  0  3  0  0  0  0  0  0
  159.9850  204.2270  150.0570 C   0  0  0  0  0  3  0  0  0  0  0  0
  160.8170  202.1330  150.9460 C   0  0  0  0  0  3  0  0  0  0  0  0
  161.8470  204.2260  151.6090 C   0  0  0  0  0  0  0  0  0  0  0  0
  159.9220  202.8320  150.1320 C   0  0  0  0  0  3  0  0  0  0  0  0
  159.5960  212.0580  154.2590 C   0  0  0  0  0  3  0  0  0  0  0  0
  158.3410  212.0950  153.8270 C   0  0  0  0  0  3  0  0  0  0  0  0
  157.4810  213.2880  154.0850 C   0  0  2  0  0  3  0  0  0  0  0  0
  157.0810  213.3400  155.5530 C   0  0  0  0  0  2  0  0  0  0  0  0
  155.7130  212.8750  155.7330 N   0  0  0  0  0  2  0  0  0  0  0  0
  157.0370  211.7360  157.2610 O   0  0  0  0  0  1  0  0  0  0  0  0
  155.7510  211.8220  156.7310 C   0  0  2  0  0  3  0  0  0  0  0  0
  154.1430  209.9210  156.7680 C   0  0  0  0  0  1  0  0  0  0  0  0
  155.3670  210.5030  156.0890 C   0  0  0  0  0  2  0  0  0  0  0  0
  156.3370  213.2510  153.2780 O   0  0  0  0  0  0  0  0  0  0  0  0
  155.3150  214.4520  151.4590 C   0  0  0  0  0  2  0  0  0  0  0  0
  156.6170  214.0810  152.1870 C   0  0  0  0  0  3  0  0  0  0  0  0
  157.6520  213.3960  151.2840 C   0  0  0  0  0  2  0  0  0  0  0  0
  156.2390  213.7680  149.2130 C   0  0  0  0  0  2  0  0  0  0  0  0
  155.0920  213.5910  150.2190 C   0  0  0  0  0  2  0  0  0  0  0  0
  157.6120  213.9720  149.8720 C   0  0  0  0  0  2  0  0  0  0  0  0
  162.4370  210.0670  152.6640 C   0  0  0  0  0  2  0  0  0  0  0  0
  161.1020  208.6670  151.0920 C   0  0  0  0  0  3  0  0  0  0  0  0
  162.1520  210.1610  148.8070 C   0  0  1  0  0  3  0  0  0  0  0  0
  162.1110  209.6630  151.3010 N   0  0  0  0  0  0  0  0  0  0  0  0
  162.7440  210.3020  150.1810 C   0  0  0  0  0  0  0  0  0  0  0  0
  160.7920  208.2420  149.8670 C   0  0  0  0  0  3  0  0  0  0  0  0
  163.7760  211.0050  150.3440 O   0  0  0  0  0  0  0  0  0  0  0  0
  161.5000  208.7720  148.6480 C   0  0  2  0  0  3  0  0  0  0  0  0
  160.5410  213.6740  148.8900 C   0  0  0  0  0  2  0  0  0  0  0  0
  161.5370  212.5720  149.2320 C   0  0  0  0  0  2  0  0  0  0  0  0
  159.9330  212.4110  146.9010 N   0  0  0  0  0  2  0  0  0  0  0  0
  161.1250  211.2710  148.5430 C   0  0  1  0  0  3  0  0  0  0  0  0
  161.0060  211.5220  147.1050 N   0  0  0  0  0  2  0  0  0  0  0  0
  160.3380  213.7290  147.3820 C   0  0  0  0  0  2  0  0  0  0  0  0
  162.2980  207.7230  147.8490 C   0  0  1  0  0  3  0  0  0  0  0  0
  162.2970  206.4700  148.5110 O   0  0  0  0  0  0  0  0  0  0  0  0
  160.1670  206.4440  147.6090 O   0  0  0  0  0  1  0  0  0  0  0  0
  161.5340  206.5540  147.3370 C   0  0  1  0  0  0  0  0  0  0  0  0
  161.4480  205.9990  145.0180 O   0  0  0  0  0  1  0  0  0  0  0  0
  162.1270  205.7300  146.2060 C   0  0  2  0  0  3  0  0  0  0  0  0
  162.0440  204.2440  146.5250 C   0  0  0  0  0  2  0  0  0  0  0  0
  161.1820  203.5490  145.5270 C   0  0  0  0  0  0  0  0  0  0  0  0
  160.7120  204.1880  144.5480 O   0  0  0  0  0  0  0  0  0  0  0  0
  160.0740  201.5340  144.9430 O   0  0  0  0  0  0  0  0  0  0  0  0
  160.9140  202.1180  145.6790 C   0  0  0  0  0  3  0  0  0  0  0  0
  1  2  2  0  0  0  0
  2 17  1  0  0  0  0
  2  4  1  0  0  0  0
  3  7  2  0  0  0  0
  4  6  2  0  0  0  0
  5  3  1  0  0  0  0
  5  4  1  0  0  0  0
  8  3  1  0  0  0  0
  9  8  2  0  0  0  0
 10  9  1  0  0  0  0
 12 15  2  0  0  0  0
 13 16  2  0  0  0  0
 13 12  1  0  0  0  0
 14 11  2  0  0  0  0
 15 11  1  0  0  0  0
 15 10  1  0  0  0  0
 16 14  1  0  0  0  0
 18 17  2  0  0  0  0
 19 18  1  1  0  0  0
 19 20  1  0  0  0  0
 20 21  1  0  0  0  0
 21 23  1  0  0  0  0
 23 22  1  6  0  0  0
 25 23  1  0  0  0  0
 25 24  1  0  0  0  0
 26 19  1  0  0  0  0
 27 28  1  0  0  0  0
 28 26  1  0  0  0  0
 29 28  1  0  0  0  0
 30 32  1  0  0  0  0
 30 31  1  0  0  0  0
 31 27  1  0  0  0  0
 32 29  1  0  0  0  0
 33  1  1  0  0  0  0
 34 36  1  0  0  0  0
 35 37  1  1  0  0  0
 36 33  1  0  0  0  0
 37 39  2  0  0  0  0
 37 36  1  0  0  0  0
 38 34  2  0  0  0  0
 40 35  1  0  0  0  0
 40 38  1  1  0  0  0
 41 42  1  0  0  0  0
 43 45  1  0  0  0  0
 43 46  1  0  0  0  0
 44 35  1  0  0  0  0
 44 42  1  1  0  0  0
 45 44  1  0  0  0  0
 46 41  1  0  0  0  0
 47 48  1  1  0  0  0
 47 40  1  0  0  0  0
 50 49  1  1  0  0  0
 50 47  1  0  0  0  0
 50 48  1  0  0  0  0
 52 51  1  6  0  0  0
 52 53  1  0  0  0  0
 52 50  1  0  0  0  0
 54 57  1  0  0  0  0
 54 53  1  0  0  0  0
 55 54  2  0  0  0  0
 56 57  2  0  0  0  0
M  END
>  <MODEL>
3

>  <REMARK>
 VINA RESULT:      -4.0      2.653      6.522
  Name = 
  20 active torsions:
  status: ('A' for Active; 'I' for Inactive)
    1  A    between atoms: C_6  and  C_46
    2  A    between atoms: C_7  and  O_10
    3  A    between atoms: C_9  and  C_23
    4  A    between atoms: C_9  and  C_47
    5  A    between atoms: O_10  and  C_38
    6  A    between atoms: C_16  and  C_21
    7  A    between atoms: C_17  and  C_38
    8  A    between atoms: C_17  and  N_49
    9  A    between atoms: C_19  and  C_50
   10  A    between atoms: N_22  and  C_29
   11  A    between atoms: C_23  and  C_42
   12  A    between atoms: C_24  and  C_31
   13  A    between atoms: C_25  and  C_44
   14  A    between atoms: C_29  and  C_40
   15  A    between atoms: C_31  and  C_54
   16  A    between atoms: C_34  and  C_46
   17  A    between atoms: C_38  and  C_52
   18  A    between atoms: C_42  and  C_56
   19  A    between atoms: N_49  and  C_53
   20  A    between atoms: C_51  and  C_53
                            x       y       z     vdW  Elec       q    Type
                         _______ _______ _______ _____ _____    ______ ____

>  <TORSDO>
F 20

$$$$
=
 OpenBabel11072414553D

 57 61  0  0  1  0  0  0  0  0999 V2000
  162.0160  209.0740  149.4360 C   0  0  0  0  0  3  0  0  0  0  0  0
  161.7890  210.3680  149.6810 C   0  0  0  0  0  0  0  0  0  0  0  0
  161.4790  212.7830  146.6700 C   0  0  0  0  0  0  0  0  0  0  0  0
  162.1590  211.4370  148.7210 C   0  0  0  0  0  0  0  0  0  0  0  0
  161.2240  211.8350  147.7110 N   0  0  0  0  0  2  0  0  0  0  0  0
  163.2920  211.9880  148.7920 O   0  0  0  0  0  0  0  0  0  0  0  0
  162.6150  213.3190  146.5480 O   0  0  0  0  0  0  0  0  0  0  0  0
  160.4010  213.1080  145.7340 C   0  0  0  0  0  3  0  0  0  0  0  0
  160.2460  212.4590  144.5870 C   0  0  0  0  0  3  0  0  0  0  0  0
  159.1410  212.8090  143.6460 C   0  0  0  0  0  2  0  0  0  0  0  0
  158.8770  213.1680  141.1770 C   0  0  0  0  0  3  0  0  0  0  0  0
  160.5080  211.5580  141.9620 C   0  0  0  0  0  3  0  0  0  0  0  0
  160.8640  211.2740  140.6400 C   0  0  0  0  0  3  0  0  0  0  0  0
  159.2330  212.8840  139.8550 C   0  0  0  0  0  3  0  0  0  0  0  0
  159.5120  212.5020  142.2330 C   0  0  0  0  0  0  0  0  0  0  0  0
  160.2250  211.9360  139.5870 C   0  0  0  0  0  3  0  0  0  0  0  0
  161.1580  210.6850  150.9720 C   0  0  0  0  0  3  0  0  0  0  0  0
  161.6900  210.3510  152.1410 C   0  0  0  0  0  3  0  0  0  0  0  0
  160.9930  210.6830  153.4190 C   0  0  2  0  0  3  0  0  0  0  0  0
  161.7140  210.0370  154.5950 C   0  0  0  0  0  2  0  0  0  0  0  0
  160.9070  208.9730  155.1740 N   0  0  0  0  0  2  0  0  0  0  0  0
  162.4820  208.9800  156.8790 O   0  0  0  0  0  1  0  0  0  0  0  0
  161.1150  209.0170  156.6100 C   0  0  2  0  0  3  0  0  0  0  0  0
  159.6480  207.0430  156.2220 C   0  0  0  0  0  1  0  0  0  0  0  0
  160.4280  207.8290  157.2570 C   0  0  0  0  0  2  0  0  0  0  0  0
  159.6620  210.2490  153.3770 O   0  0  0  0  0  0  0  0  0  0  0  0
  159.7210  212.5890  153.9400 C   0  0  0  0  0  2  0  0  0  0  0  0
  158.8840  211.4120  153.4150 C   0  0  0  0  0  3  0  0  0  0  0  0
  157.6170  211.1430  154.2390 C   0  0  0  0  0  2  0  0  0  0  0  0
  157.9830  213.2110  155.6590 C   0  0  0  0  0  2  0  0  0  0  0  0
  159.4590  212.8600  155.4180 C   0  0  0  0  0  2  0  0  0  0  0  0
  157.0090  212.4470  154.7480 C   0  0  0  0  0  2  0  0  0  0  0  0
  162.7300  208.5390  148.2330 C   0  0  0  0  0  2  0  0  0  0  0  0
  163.3630  206.2620  147.4420 C   0  0  0  0  0  3  0  0  0  0  0  0
  160.9560  205.1280  148.6550 C   0  0  1  0  0  3  0  0  0  0  0  0
  162.3960  207.1340  148.0430 N   0  0  0  0  0  0  0  0  0  0  0  0
  161.1420  206.6120  148.5110 C   0  0  0  0  0  0  0  0  0  0  0  0
  163.0930  204.9760  147.2180 C   0  0  0  0  0  3  0  0  0  0  0  0
  160.2050  207.3910  148.8310 O   0  0  0  0  0  0  0  0  0  0  0  0
  161.7530  204.3820  147.5660 C   0  0  2  0  0  3  0  0  0  0  0  0
  161.3570  205.1540  152.5010 C   0  0  0  0  0  2  0  0  0  0  0  0
  160.9830  205.6790  151.1190 C   0  0  0  0  0  2  0  0  0  0  0  0
  161.3270  202.9040  151.5770 N   0  0  0  0  0  2  0  0  0  0  0  0
  161.3890  204.6610  150.0520 C   0  0  1  0  0  3  0  0  0  0  0  0
  160.7660  203.3750  150.3740 N   0  0  0  0  0  2  0  0  0  0  0  0
  160.8290  203.7370  152.6680 C   0  0  0  0  0  2  0  0  0  0  0  0
  160.9460  203.8460  146.3670 C   0  0  1  0  0  3  0  0  0  0  0  0
  161.7150  202.9340  145.6020 O   0  0  0  0  0  0  0  0  0  0  0  0
  161.1480  201.5760  147.3850 O   0  0  0  0  0  1  0  0  0  0  0  0
  160.6660  202.3850  146.3530 C   0  0  1  0  0  0  0  0  0  0  0  0
  158.6010  201.1940  146.2560 O   0  0  0  0  0  1  0  0  0  0  0  0
  159.5410  201.8630  145.4740 C   0  0  2  0  0  3  0  0  0  0  0  0
  160.0870  200.9280  144.4040 C   0  0  0  0  0  2  0  0  0  0  0  0
  160.0560  199.5180  144.8880 C   0  0  0  0  0  0  0  0  0  0  0  0
  159.0170  198.8220  144.7350 O   0  0  0  0  0  0  0  0  0  0  0  0
  161.5740  197.7440  145.3100 O   0  0  0  0  0  0  0  0  0  0  0  0
  161.2500  198.9450  145.5120 C   0  0  0  0  0  3  0  0  0  0  0  0
  1  2  2  0  0  0  0
  2 17  1  0  0  0  0
  3  5  1  0  0  0  0
  4  6  2  0  0  0  0
  4  2  1  0  0  0  0
  5  4  1  0  0  0  0
  7  3  2  0  0  0  0
  8  3  1  0  0  0  0
  9  8  2  0  0  0  0
 10  9  1  0  0  0  0
 11 15  1  0  0  0  0
 12 15  2  0  0  0  0
 13 12  1  0  0  0  0
 14 11  2  0  0  0  0
 15 10  1  0  0  0  0
 16 14  1  0  0  0  0
 16 13  2  0  0  0  0
 17 18  2  0  0  0  0
 19 18  1  6  0  0  0
 19 20  1  0  0  0  0
 20 21  1  0  0  0  0
 21 23  1  0  0  0  0
 23 22  1  6  0  0  0
 23 25  1  0  0  0  0
 24 25  1  0  0  0  0
 26 28  1  0  0  0  0
 26 19  1  0  0  0  0
 27 31  1  0  0  0  0
 28 27  1  0  0  0  0
 28 29  1  0  0  0  0
 29 32  1  0  0  0  0
 31 30  1  0  0  0  0
 32 30  1  0  0  0  0
 33  1  1  0  0  0  0
 34 36  1  0  0  0  0
 35 37  1  1  0  0  0
 35 44  1  0  0  0  0
 36 33  1  0  0  0  0
 36 37  1  0  0  0  0
 37 39  2  0  0  0  0
 38 34  2  0  0  0  0
 40 38  1  6  0  0  0
 40 35  1  0  0  0  0
 41 46  1  0  0  0  0
 42 41  1  0  0  0  0
 43 46  1  0  0  0  0
 44 45  1  0  0  0  0
 44 42  1  1  0  0  0
 45 43  1  0  0  0  0
 47 48  1  6  0  0  0
 47 40  1  0  0  0  0
 48 50  1  0  0  0  0
 50 47  1  0  0  0  0
 50 49  1  1  0  0  0
 52 51  1  1  0  0  0
 52 50  1  0  0  0  0
 53 54  1  0  0  0  0
 53 52  1  0  0  0  0
 54 57  1  0  0  0  0
 55 54  2  0  0  0  0
 56 57  2  0  0  0  0
M  END
>  <MODEL>
4

>  <REMARK>
 VINA RESULT:      -3.5      2.394      3.931
  Name = 
  20 active torsions:
  status: ('A' for Active; 'I' for Inactive)
    1  A    between atoms: C_6  and  C_46
    2  A    between atoms: C_7  and  O_10
    3  A    between atoms: C_9  and  C_23
    4  A    between atoms: C_9  and  C_47
    5  A    between atoms: O_10  and  C_38
    6  A    between atoms: C_16  and  C_21
    7  A    between atoms: C_17  and  C_38
    8  A    between atoms: C_17  and  N_49
    9  A    between atoms: C_19  and  C_50
   10  A    between atoms: N_22  and  C_29
   11  A    between atoms: C_23  and  C_42
   12  A    between atoms: C_24  and  C_31
   13  A    between atoms: C_25  and  C_44
   14  A    between atoms: C_29  and  C_40
   15  A    between atoms: C_31  and  C_54
   16  A    between atoms: C_34  and  C_46
   17  A    between atoms: C_38  and  C_52
   18  A    between atoms: C_42  and  C_56
   19  A    between atoms: N_49  and  C_53
   20  A    between atoms: C_51  and  C_53
                            x       y       z     vdW  Elec       q    Type
                         _______ _______ _______ _____ _____    ______ ____

>  <TORSDO>
F 20

$$$$
=
 OpenBabel11072414553D

 57 61  0  0  1  0  0  0  0  0999 V2000
  161.9930  209.3480  150.7650 C   0  0  0  0  0  3  0  0  0  0  0  0
  161.6110  210.4630  151.3960 C   0  0  0  0  0  0  0  0  0  0  0  0
  161.5870  213.2680  148.7260 C   0  0  0  0  0  0  0  0  0  0  0  0
  161.1660  211.6770  150.6680 C   0  0  0  0  0  0  0  0  0  0  0  0
  161.8490  212.0770  149.4740 N   0  0  0  0  0  2  0  0  0  0  0  0
  160.1940  212.3540  151.1020 O   0  0  0  0  0  0  0  0  0  0  0  0
  160.7220  214.1000  149.1170 O   0  0  0  0  0  0  0  0  0  0  0  0
  162.3540  213.5140  147.5030 C   0  0  0  0  0  3  0  0  0  0  0  0
  161.8330  213.3280  146.2970 C   0  0  0  0  0  3  0  0  0  0  0  0
  162.6350  213.5820  145.0630 C   0  0  0  0  0  2  0  0  0  0  0  0
  162.7320  212.8160  142.6750 C   0  0  0  0  0  3  0  0  0  0  0  0
  160.6900  212.4790  143.9350 C   0  0  0  0  0  3  0  0  0  0  0  0
  160.1000  211.8810  142.8180 C   0  0  0  0  0  3  0  0  0  0  0  0
  162.1410  212.2180  141.5580 C   0  0  0  0  0  3  0  0  0  0  0  0
  162.0050  212.9510  143.8660 C   0  0  0  0  0  0  0  0  0  0  0  0
  160.8260  211.7520  141.6300 C   0  0  0  0  0  3  0  0  0  0  0  0
  161.6680  210.4310  152.8660 C   0  0  0  0  0  3  0  0  0  0  0  0
  160.6790  210.8620  153.6400 C   0  0  0  0  0  3  0  0  0  0  0  0
  160.8030  210.8240  155.1270 C   0  0  2  0  0  3  0  0  0  0  0  0
  160.9280  209.3840  155.6080 C   0  0  0  0  0  2  0  0  0  0  0  0
  159.6740  208.6680  155.4230 N   0  0  0  0  0  2  0  0  0  0  0  0
  160.2970  206.6540  156.3930 O   0  0  0  0  0  1  0  0  0  0  0  0
  160.0120  207.2770  155.1790 C   0  0  2  0  0  3  0  0  0  0  0  0
  161.3420  205.8180  153.6630 C   0  0  0  0  0  1  0  0  0  0  0  0
  161.2180  207.2040  154.2640 C   0  0  0  0  0  2  0  0  0  0  0  0
  159.6950  211.4350  155.7260 O   0  0  0  0  0  0  0  0  0  0  0  0
  159.3370  213.6200  154.7810 C   0  0  0  0  0  2  0  0  0  0  0  0
  159.0350  212.1150  154.6970 C   0  0  0  0  0  3  0  0  0  0  0  0
  157.5370  211.7850  154.7530 C   0  0  0  0  0  2  0  0  0  0  0  0
  156.8920  214.2350  154.6750 C   0  0  0  0  0  2  0  0  0  0  0  0
  158.2060  214.3900  155.4560 C   0  0  0  0  0  2  0  0  0  0  0  0
  156.7150  212.8500  154.0330 C   0  0  0  0  0  2  0  0  0  0  0  0
  162.1020  209.1970  149.2790 C   0  0  0  0  0  2  0  0  0  0  0  0
  160.3420  207.4580  148.9770 C   0  0  0  0  0  3  0  0  0  0  0  0
  162.2510  205.7040  147.6240 C   0  0  1  0  0  3  0  0  0  0  0  0
  161.7200  207.8450  148.8900 N   0  0  0  0  0  0  0  0  0  0  0  0
  162.6970  206.9340  148.3620 C   0  0  0  0  0  0  0  0  0  0  0  0
  159.9480  206.2240  148.6630 C   0  0  0  0  0  3  0  0  0  0  0  0
  163.9270  207.1730  148.4860 O   0  0  0  0  0  0  0  0  0  0  0  0
  160.9320  205.1730  148.2210 C   0  0  2  0  0  3  0  0  0  0  0  0
  162.7010  205.3290  143.8020 C   0  0  0  0  0  2  0  0  0  0  0  0
  162.9460  205.0620  145.2830 C   0  0  0  0  0  2  0  0  0  0  0  0
  160.5460  206.2860  144.4030 N   0  0  0  0  0  2  0  0  0  0  0  0
  162.0830  206.0010  146.1270 C   0  0  1  0  0  3  0  0  0  0  0  0
  160.6840  205.8330  145.7290 N   0  0  0  0  0  2  0  0  0  0  0  0
  161.2050  205.3240  143.5230 C   0  0  0  0  0  2  0  0  0  0  0  0
  161.0400  203.9490  149.1500 C   0  0  1  0  0  3  0  0  0  0  0  0
  159.9140  203.0990  149.0070 O   0  0  0  0  0  0  0  0  0  0  0  0
  161.0880  202.5290  147.0970 O   0  0  0  0  0  1  0  0  0  0  0  0
  161.1260  202.6170  148.4920 C   0  0  1  0  0  0  0  0  0  0  0  0
  161.6400  200.2880  148.5030 O   0  0  0  0  0  1  0  0  0  0  0  0
  161.6630  201.4390  149.2880 C   0  0  2  0  0  3  0  0  0  0  0  0
  160.8350  201.2240  150.5480 C   0  0  0  0  0  2  0  0  0  0  0  0
  161.2780  202.1580  151.6210 C   0  0  0  0  0  0  0  0  0  0  0  0
  160.4260  202.7050  152.3710 O   0  0  0  0  0  0  0  0  0  0  0  0
  163.4820  201.4880  152.1870 O   0  0  0  0  0  0  0  0  0  0  0  0
  162.7070  202.4090  151.8140 C   0  0  0  0  0  3  0  0  0  0  0  0
  1  2  2  0  0  0  0
  2 17  1  0  0  0  0
  3  7  2  0  0  0  0
  3  5  1  0  0  0  0
  4  6  2  0  0  0  0
  4  2  1  0  0  0  0
  5  4  1  0  0  0  0
  8  3  1  0  0  0  0
  9  8  2  0  0  0  0
 10  9  1  0  0  0  0
 11 15  1  0  0  0  0
 13 12  1  0  0  0  0
 14 16  1  0  0  0  0
 14 11  2  0  0  0  0
 15 12  2  0  0  0  0
 15 10  1  0  0  0  0
 16 13  2  0  0  0  0
 17 18  2  0  0  0  0
 19 18  1  6  0  0  0
 19 20  1  0  0  0  0
 19 26  1  0  0  0  0
 21 20  1  0  0  0  0
 23 21  1  0  0  0  0
 23 22  1  1  0  0  0
 24 25  1  0  0  0  0
 25 23  1  0  0  0  0
 27 31  1  0  0  0  0
 28 29  1  0  0  0  0
 28 27  1  0  0  0  0
 28 26  1  0  0  0  0
 30 31  1  0  0  0  0
 32 30  1  0  0  0  0
 32 29  1  0  0  0  0
 33  1  1  0  0  0  0
 35 40  1  0  0  0  0
 35 37  1  1  0  0  0
 36 34  1  0  0  0  0
 36 33  1  0  0  0  0
 37 39  2  0  0  0  0
 37 36  1  0  0  0  0
 38 34  2  0  0  0  0
 40 38  1  1  0  0  0
 40 47  1  0  0  0  0
 41 42  1  0  0  0  0
 43 45  1  0  0  0  0
 44 42  1  6  0  0  0
 44 35  1  0  0  0  0
 45 44  1  0  0  0  0
 46 41  1  0  0  0  0
 46 43  1  0  0  0  0
 47 48  1  1  0  0  0
 50 49  1  6  0  0  0
 50 48  1  0  0  0  0
 50 47  1  0  0  0  0
 50 52  1  0  0  0  0
 52 51  1  6  0  0  0
 52 53  1  0  0  0  0
 53 54  1  0  0  0  0
 54 57  1  0  0  0  0
 54 55  2  0  0  0  0
 57 56  2  0  0  0  0
M  END
>  <MODEL>
5

>  <REMARK>
 VINA RESULT:      -3.5      1.195      2.013
  Name = 
  20 active torsions:
  status: ('A' for Active; 'I' for Inactive)
    1  A    between atoms: C_6  and  C_46
    2  A    between atoms: C_7  and  O_10
    3  A    between atoms: C_9  and  C_23
    4  A    between atoms: C_9  and  C_47
    5  A    between atoms: O_10  and  C_38
    6  A    between atoms: C_16  and  C_21
    7  A    between atoms: C_17  and  C_38
    8  A    between atoms: C_17  and  N_49
    9  A    between atoms: C_19  and  C_50
   10  A    between atoms: N_22  and  C_29
   11  A    between atoms: C_23  and  C_42
   12  A    between atoms: C_24  and  C_31
   13  A    between atoms: C_25  and  C_44
   14  A    between atoms: C_29  and  C_40
   15  A    between atoms: C_31  and  C_54
   16  A    between atoms: C_34  and  C_46
   17  A    between atoms: C_38  and  C_52
   18  A    between atoms: C_42  and  C_56
   19  A    between atoms: N_49  and  C_53
   20  A    between atoms: C_51  and  C_53
                            x       y       z     vdW  Elec       q    Type
                         _______ _______ _______ _____ _____    ______ ____

>  <TORSDO>
F 20

$$$$
=
 OpenBabel11072414553D

 57 61  0  0  1  0  0  0  0  0999 V2000
  161.7840  208.6440  149.6220 C   0  0  0  0  0  3  0  0  0  0  0  0
  161.7260  209.8670  150.1580 C   0  0  0  0  0  0  0  0  0  0  0  0
  161.6230  212.6480  147.4640 C   0  0  0  0  0  0  0  0  0  0  0  0
  162.1260  211.0850  149.4100 C   0  0  0  0  0  0  0  0  0  0  0  0
  161.3120  211.5480  148.3250 N   0  0  0  0  0  2  0  0  0  0  0  0
  163.1790  211.7050  149.7260 O   0  0  0  0  0  0  0  0  0  0  0  0
  162.7080  213.2810  147.5900 O   0  0  0  0  0  0  0  0  0  0  0  0
  160.6650  213.0170  146.4200 C   0  0  0  0  0  3  0  0  0  0  0  0
  160.4570  212.2530  145.3560 C   0  0  0  0  0  3  0  0  0  0  0  0
  159.4770  212.6510  144.3010 C   0  0  0  0  0  2  0  0  0  0  0  0
  159.3170  212.8880  141.8080 C   0  0  0  0  0  3  0  0  0  0  0  0
  161.4210  212.1950  142.7900 C   0  0  0  0  0  3  0  0  0  0  0  0
  161.9930  212.1280  141.5160 C   0  0  0  0  0  3  0  0  0  0  0  0
  159.8900  212.8210  140.5340 C   0  0  0  0  0  3  0  0  0  0  0  0
  160.0820  212.5720  142.9380 C   0  0  0  0  0  0  0  0  0  0  0  0
  161.2270  212.4400  140.3890 C   0  0  0  0  0  3  0  0  0  0  0  0
  161.2540  209.9470  151.5490 C   0  0  0  0  0  3  0  0  0  0  0  0
  160.3700  210.8460  151.9650 C   0  0  0  0  0  3  0  0  0  0  0  0
  159.9440  210.8900  153.3950 C   0  0  2  0  0  3  0  0  0  0  0  0
  159.7150  212.3320  153.8310 C   0  0  0  0  0  2  0  0  0  0  0  0
  158.6450  212.4100  154.8150 N   0  0  0  0  0  2  0  0  0  0  0  0
  157.2400  213.3600  153.2310 O   0  0  0  0  0  1  0  0  0  0  0  0
  157.3930  212.2750  154.0920 C   0  0  2  0  0  3  0  0  0  0  0  0
  156.4420  211.1050  156.0740 C   0  0  0  0  0  1  0  0  0  0  0  0
  156.2420  212.2310  155.0790 C   0  0  0  0  0  2  0  0  0  0  0  0
  160.9100  210.2910  154.2130 O   0  0  0  0  0  0  0  0  0  0  0  0
  160.3720  209.7360  156.4930 C   0  0  0  0  0  2  0  0  0  0  0  0
  160.2150  209.3730  155.0080 C   0  0  0  0  0  3  0  0  0  0  0  0
  160.6900  207.9530  154.6700 C   0  0  0  0  0  2  0  0  0  0  0  0
  161.0890  207.3980  157.1100 C   0  0  0  0  0  2  0  0  0  0  0  0
  161.4440  208.8910  157.1750 C   0  0  0  0  0  2  0  0  0  0  0  0
  160.3810  206.9870  155.8100 C   0  0  0  0  0  2  0  0  0  0  0  0
  162.3230  208.3280  148.2600 C   0  0  0  0  0  2  0  0  0  0  0  0
  163.1700  206.1720  147.3390 C   0  0  0  0  0  3  0  0  0  0  0  0
  160.8290  204.7620  148.3800 C   0  0  1  0  0  3  0  0  0  0  0  0
  162.1140  206.9170  147.9610 N   0  0  0  0  0  0  0  0  0  0  0  0
  160.8930  206.2630  148.3450 C   0  0  0  0  0  0  0  0  0  0  0  0
  163.0150  204.8880  147.0170 C   0  0  0  0  0  3  0  0  0  0  0  0
  159.8850  206.9370  148.6820 O   0  0  0  0  0  0  0  0  0  0  0  0
  161.7200  204.1640  147.2720 C   0  0  2  0  0  3  0  0  0  0  0  0
  161.2610  204.6460  152.2200 C   0  0  0  0  0  2  0  0  0  0  0  0
  160.8970  205.2300  150.8600 C   0  0  0  0  0  2  0  0  0  0  0  0
  161.1360  202.4300  151.2230 N   0  0  0  0  0  2  0  0  0  0  0  0
  161.2540  204.2330  149.7570 C   0  0  1  0  0  3  0  0  0  0  0  0
  160.5840  202.9620  150.0420 N   0  0  0  0  0  2  0  0  0  0  0  0
  160.6790  203.2450  152.3460 C   0  0  0  0  0  2  0  0  0  0  0  0
  161.0000  203.6510  146.0100 C   0  0  1  0  0  3  0  0  0  0  0  0
  161.8480  202.8120  145.2450 O   0  0  0  0  0  0  0  0  0  0  0  0
  161.2560  201.3450  146.9320 O   0  0  0  0  0  1  0  0  0  0  0  0
  160.7890  202.1810  145.9140 C   0  0  1  0  0  0  0  0  0  0  0  0
  158.5960  201.2740  145.6640 O   0  0  0  0  0  1  0  0  0  0  0  0
  159.7350  201.6530  144.9540 C   0  0  2  0  0  3  0  0  0  0  0  0
  160.2740  200.4670  144.1670 C   0  0  0  0  0  2  0  0  0  0  0  0
  159.9900  199.1960  144.8920 C   0  0  0  0  0  0  0  0  0  0  0  0
  158.8030  198.8850  145.1780 O   0  0  0  0  0  0  0  0  0  0  0  0
  162.1400  198.2580  144.5340 O   0  0  0  0  0  0  0  0  0  0  0  0
  161.0970  198.3030  145.2400 C   0  0  0  0  0  3  0  0  0  0  0  0
  1  2  2  0  0  0  0
  2 17  1  0  0  0  0
  3  7  2  0  0  0  0
  3  5  1  0  0  0  0
  4  6  2  0  0  0  0
  4  2  1  0  0  0  0
  5  4  1  0  0  0  0
  8  3  1  0  0  0  0
  9  8  2  0  0  0  0
 10  9  1  0  0  0  0
 11 15  1  0  0  0  0
 12 15  2  0  0  0  0
 13 12  1  0  0  0  0
 14 11  2  0  0  0  0
 15 10  1  0  0  0  0
 16 14  1  0  0  0  0
 16 13  2  0  0  0  0
 17 18  2  0  0  0  0
 19 18  1  6  0  0  0
 19 20  1  0  0  0  0
 19 26  1  0  0  0  0
 20 21  1  0  0  0  0
 23 22  1  6  0  0  0
 23 21  1  0  0  0  0
 23 25  1  0  0  0  0
 25 24  1  0  0  0  0
 26 28  1  0  0  0  0
 27 31  1  0  0  0  0
 28 27  1  0  0  0  0
 29 28  1  0  0  0  0
 29 32  1  0  0  0  0
 30 31  1  0  0  0  0
 32 30  1  0  0  0  0
 33  1  1  0  0  0  0
 34 36  1  0  0  0  0
 35 37  1  1  0  0  0
 35 44  1  0  0  0  0
 36 33  1  0  0  0  0
 36 37  1  0  0  0  0
 37 39  2  0  0  0  0
 38 34  2  0  0  0  0
 40 38  1  6  0  0  0
 40 35  1  0  0  0  0
 41 46  1  0  0  0  0
 42 41  1  0  0  0  0
 43 46  1  0  0  0  0
 44 45  1  0  0  0  0
 44 42  1  1  0  0  0
 45 43  1  0  0  0  0
 47 48  1  6  0  0  0
 47 40  1  0  0  0  0
 48 50  1  0  0  0  0
 50 47  1  0  0  0  0
 50 49  1  1  0  0  0
 52 51  1  1  0  0  0
 52 50  1  0  0  0  0
 53 54  1  0  0  0  0
 53 52  1  0  0  0  0
 54 55  2  0  0  0  0
 54 57  1  0  0  0  0
 56 57  2  0  0  0  0
M  END
>  <MODEL>
6

>  <REMARK>
 VINA RESULT:      -3.2      2.405      4.626
  Name = 
  20 active torsions:
  status: ('A' for Active; 'I' for Inactive)
    1  A    between atoms: C_6  and  C_46
    2  A    between atoms: C_7  and  O_10
    3  A    between atoms: C_9  and  C_23
    4  A    between atoms: C_9  and  C_47
    5  A    between atoms: O_10  and  C_38
    6  A    between atoms: C_16  and  C_21
    7  A    between atoms: C_17  and  C_38
    8  A    between atoms: C_17  and  N_49
    9  A    between atoms: C_19  and  C_50
   10  A    between atoms: N_22  and  C_29
   11  A    between atoms: C_23  and  C_42
   12  A    between atoms: C_24  and  C_31
   13  A    between atoms: C_25  and  C_44
   14  A    between atoms: C_29  and  C_40
   15  A    between atoms: C_31  and  C_54
   16  A    between atoms: C_34  and  C_46
   17  A    between atoms: C_38  and  C_52
   18  A    between atoms: C_42  and  C_56
   19  A    between atoms: N_49  and  C_53
   20  A    between atoms: C_51  and  C_53
                            x       y       z     vdW  Elec       q    Type
                         _______ _______ _______ _____ _____    ______ ____

>  <TORSDO>
F 20

$$$$
=
 OpenBabel11072414553D

 57 61  0  0  1  0  0  0  0  0999 V2000
  162.1110  210.1190  148.8400 C   0  0  0  0  0  3  0  0  0  0  0  0
  162.0870  209.2220  149.8310 C   0  0  0  0  0  0  0  0  0  0  0  0
  161.1580  210.0060  153.5090 C   0  0  0  0  0  0  0  0  0  0  0  0
  162.2690  209.6030  151.2540 C   0  0  0  0  0  0  0  0  0  0  0  0
  161.1450  209.5800  152.1430 N   0  0  0  0  0  2  0  0  0  0  0  0
  163.4070  209.9490  151.6760 O   0  0  0  0  0  0  0  0  0  0  0  0
  162.2020  210.4920  154.0250 O   0  0  0  0  0  0  0  0  0  0  0  0
  159.9280  209.8850  154.2940 C   0  0  0  0  0  3  0  0  0  0  0  0
  159.0970  210.9050  154.4630 C   0  0  0  0  0  3  0  0  0  0  0  0
  157.8500  210.7600  155.2710 C   0  0  0  0  0  2  0  0  0  0  0  0
  156.1450  212.3610  156.1790 C   0  0  0  0  0  3  0  0  0  0  0  0
  158.4950  212.9160  156.3700 C   0  0  0  0  0  3  0  0  0  0  0  0
  158.1610  214.1120  157.0120 C   0  0  0  0  0  3  0  0  0  0  0  0
  155.8100  213.5570  156.8210 C   0  0  0  0  0  3  0  0  0  0  0  0
  157.4890  212.0400  155.9490 C   0  0  0  0  0  0  0  0  0  0  0  0
  156.8180  214.4320  157.2360 C   0  0  0  0  0  3  0  0  0  0  0  0
  161.8810  207.8200  149.4370 C   0  0  0  0  0  3  0  0  0  0  0  0
  161.6260  206.8510  150.3080 C   0  0  0  0  0  3  0  0  0  0  0  0
  161.4470  205.4420  149.8490 C   0  0  2  0  0  3  0  0  0  0  0  0
  162.0390  205.2620  148.4580 C   0  0  0  0  0  2  0  0  0  0  0  0
  161.3260  204.2280  147.7220 N   0  0  0  0  0  2  0  0  0  0  0  0
  162.6000  205.3290  146.1260 O   0  0  0  0  0  1  0  0  0  0  0  0
  161.9490  204.1320  146.4140 C   0  0  2  0  0  3  0  0  0  0  0  0
  160.6630  202.3630  145.2230 C   0  0  0  0  0  1  0  0  0  0  0  0
  160.8860  203.8560  145.3680 C   0  0  0  0  0  2  0  0  0  0  0  0
  160.0900  205.0990  149.8400 O   0  0  0  0  0  0  0  0  0  0  0  0
  160.7220  204.2460  152.0000 C   0  0  0  0  0  2  0  0  0  0  0  0
  159.9740  203.9890  150.6830 C   0  0  0  0  0  3  0  0  0  0  0  0
  160.4570  202.7370  149.9370 C   0  0  0  0  0  2  0  0  0  0  0  0
  161.9870  202.0690  151.8450 C   0  0  0  0  0  2  0  0  0  0  0  0
  162.1000  203.5920  152.0100 C   0  0  0  0  0  2  0  0  0  0  0  0
  160.8440  201.6320  150.9160 C   0  0  0  0  0  2  0  0  0  0  0  0
  162.4010  211.5790  149.0090 C   0  0  0  0  0  2  0  0  0  0  0  0
  161.0960  213.7000  148.9190 C   0  0  0  0  0  3  0  0  0  0  0  0
  159.6750  212.7720  146.5380 C   0  0  1  0  0  3  0  0  0  0  0  0
  161.3170  212.3680  148.4380 N   0  0  0  0  0  0  0  0  0  0  0  0
  160.5210  211.8440  147.3630 C   0  0  0  0  0  0  0  0  0  0  0  0
  160.0970  214.4500  148.4510 C   0  0  0  0  0  3  0  0  0  0  0  0
  160.5510  210.6160  147.0840 O   0  0  0  0  0  0  0  0  0  0  0  0
  159.1420  213.9250  147.4110 C   0  0  2  0  0  3  0  0  0  0  0  0
  162.7450  213.7010  144.3790 C   0  0  0  0  0  2  0  0  0  0  0  0
  161.9780  213.2180  145.6060 C   0  0  0  0  0  2  0  0  0  0  0  0
  160.7700  213.2220  143.0420 N   0  0  0  0  0  2  0  0  0  0  0  0
  160.4740  213.3220  145.3490 C   0  0  1  0  0  3  0  0  0  0  0  0
  160.1560  212.5730  144.1310 N   0  0  0  0  0  2  0  0  0  0  0  0
  162.2110  213.0040  143.1360 C   0  0  0  0  0  2  0  0  0  0  0  0
  157.6740  213.8230  147.8680 C   0  0  1  0  0  3  0  0  0  0  0  0
  157.2720  212.4700  147.9940 O   0  0  0  0  0  0  0  0  0  0  0  0
  158.5080  212.7000  149.9350 O   0  0  0  0  0  1  0  0  0  0  0  0
  157.4300  213.1860  149.1900 C   0  0  1  0  0  0  0  0  0  0  0  0
  155.1760  213.9380  148.9810 O   0  0  0  0  0  1  0  0  0  0  0  0
  156.1050  213.4350  149.8910 C   0  0  2  0  0  3  0  0  0  0  0  0
  156.2840  214.4140  151.0430 C   0  0  0  0  0  2  0  0  0  0  0  0
  156.7820  213.7000  152.2530 C   0  0  0  0  0  0  0  0  0  0  0  0
  156.1560  212.7000  152.6960 O   0  0  0  0  0  0  0  0  0  0  0  0
  159.0380  213.4170  152.9280 O   0  0  0  0  0  0  0  0  0  0  0  0
  158.0150  214.1510  152.8990 C   0  0  0  0  0  3  0  0  0  0  0  0
  1 33  1  0  0  0  0
  1  2  2  0  0  0  0
  2  4  1  0  0  0  0
  3  7  2  0  0  0  0
  3  8  1  0  0  0  0
  4  6  2  0  0  0  0
  4  5  1  0  0  0  0
  5  3  1  0  0  0  0
  8  9  2  0  0  0  0
  9 10  1  0  0  0  0
 10 15  1  0  0  0  0
 11 14  1  0  0  0  0
 12 13  2  0  0  0  0
 13 16  1  0  0  0  0
 14 16  2  0  0  0  0
 15 11  2  0  0  0  0
 15 12  1  0  0  0  0
 17  2  1  0  0  0  0
 17 18  2  0  0  0  0
 19 20  1  6  0  0  0
 19 18  1  0  0  0  0
 21 20  1  0  0  0  0
 23 22  1  6  0  0  0
 23 21  1  0  0  0  0
 24 25  1  0  0  0  0
 25 23  1  0  0  0  0
 26 19  1  0  0  0  0
 26 28  1  0  0  0  0
 27 31  1  0  0  0  0
 28 27  1  0  0  0  0
 29 28  1  0  0  0  0
 29 32  1  0  0  0  0
 30 31  1  0  0  0  0
 32 30  1  0  0  0  0
 35 37  1  1  0  0  0
 35 40  1  0  0  0  0
 36 34  1  0  0  0  0
 36 33  1  0  0  0  0
 37 36  1  0  0  0  0
 38 34  2  0  0  0  0
 39 37  2  0  0  0  0
 40 47  1  0  0  0  0
 40 38  1  1  0  0  0
 41 42  1  0  0  0  0
 43 46  1  0  0  0  0
 43 45  1  0  0  0  0
 44 42  1  1  0  0  0
 44 35  1  0  0  0  0
 45 44  1  0  0  0  0
 46 41  1  0  0  0  0
 47 48  1  6  0  0  0
 47 50  1  0  0  0  0
 48 50  1  0  0  0  0
 50 52  1  0  0  0  0
 50 49  1  1  0  0  0
 52 51  1  6  0  0  0
 52 53  1  0  0  0  0
 53 54  1  0  0  0  0
 54 55  2  0  0  0  0
 54 57  1  0  0  0  0
 57 56  2  0  0  0  0
M  END
>  <MODEL>
7

>  <REMARK>
 VINA RESULT:      -3.1      2.447      9.812
  Name = 
  20 active torsions:
  status: ('A' for Active; 'I' for Inactive)
    1  A    between atoms: C_6  and  C_46
    2  A    between atoms: C_7  and  O_10
    3  A    between atoms: C_9  and  C_23
    4  A    between atoms: C_9  and  C_47
    5  A    between atoms: O_10  and  C_38
    6  A    between atoms: C_16  and  C_21
    7  A    between atoms: C_17  and  C_38
    8  A    between atoms: C_17  and  N_49
    9  A    between atoms: C_19  and  C_50
   10  A    between atoms: N_22  and  C_29
   11  A    between atoms: C_23  and  C_42
   12  A    between atoms: C_24  and  C_31
   13  A    between atoms: C_25  and  C_44
   14  A    between atoms: C_29  and  C_40
   15  A    between atoms: C_31  and  C_54
   16  A    between atoms: C_34  and  C_46
   17  A    between atoms: C_38  and  C_52
   18  A    between atoms: C_42  and  C_56
   19  A    between atoms: N_49  and  C_53
   20  A    between atoms: C_51  and  C_53
                            x       y       z     vdW  Elec       q    Type
                         _______ _______ _______ _____ _____    ______ ____

>  <TORSDO>
F 20

$$$$
=
 OpenBabel11072414553D

 57 61  0  0  1  0  0  0  0  0999 V2000
  161.6040  209.8620  151.2110 C   0  0  0  0  0  3  0  0  0  0  0  0
  160.9330  210.8950  151.7300 C   0  0  0  0  0  0  0  0  0  0  0  0
  160.2130  213.0510  148.5950 C   0  0  0  0  0  0  0  0  0  0  0  0
  160.5460  212.0790  150.9240 C   0  0  0  0  0  0  0  0  0  0  0  0
  160.4830  211.9730  149.4970 N   0  0  0  0  0  2  0  0  0  0  0  0
  160.2770  213.1720  151.4930 O   0  0  0  0  0  0  0  0  0  0  0  0
  160.0490  214.2270  149.0230 O   0  0  0  0  0  0  0  0  0  0  0  0
  160.1490  212.7680  147.1590 C   0  0  0  0  0  3  0  0  0  0  0  0
  159.3300  213.4240  146.3490 C   0  0  0  0  0  3  0  0  0  0  0  0
  159.2790  213.1170  144.8890 C   0  0  0  0  0  2  0  0  0  0  0  0
  161.5300  214.2160  144.7440 C   0  0  0  0  0  3  0  0  0  0  0  0
  160.9790  212.4570  143.1730 C   0  0  0  0  0  3  0  0  0  0  0  0
  162.2380  212.5920  142.5800 C   0  0  0  0  0  3  0  0  0  0  0  0
  162.7890  214.3510  144.1520 C   0  0  0  0  0  3  0  0  0  0  0  0
  160.6210  213.2700  144.2530 C   0  0  0  0  0  0  0  0  0  0  0  0
  163.1420  213.5400  143.0690 C   0  0  0  0  0  3  0  0  0  0  0  0
  160.6060  210.8050  153.1620 C   0  0  0  0  0  3  0  0  0  0  0  0
  160.6780  211.8420  153.9890 C   0  0  0  0  0  3  0  0  0  0  0  0
  160.3530  211.6850  155.4370 C   0  0  2  0  0  3  0  0  0  0  0  0
  161.4780  210.9480  156.1520 C   0  0  0  0  0  2  0  0  0  0  0  0
  161.5890  209.5790  155.6670 N   0  0  0  0  0  2  0  0  0  0  0  0
  162.3170  207.5970  156.6270 O   0  0  0  0  0  1  0  0  0  0  0  0
  161.5040  208.7110  156.8270 C   0  0  2  0  0  3  0  0  0  0  0  0
  159.6450  207.3220  155.9220 C   0  0  0  0  0  1  0  0  0  0  0  0
  160.0660  208.2720  157.0260 C   0  0  0  0  0  2  0  0  0  0  0  0
  159.1480  210.9890  155.5960 O   0  0  0  0  0  0  0  0  0  0  0  0
  156.8520  211.2910  156.2550 C   0  0  0  0  0  2  0  0  0  0  0  0
  158.1850  211.9620  155.8890 C   0  0  0  0  0  3  0  0  0  0  0  0
  158.0790  212.9370  154.7080 C   0  0  0  0  0  2  0  0  0  0  0  0
  155.5570  212.7040  154.6140 C   0  0  0  0  0  2  0  0  0  0  0  0
  155.8810  211.2760  155.0780 C   0  0  0  0  0  2  0  0  0  0  0  0
  156.7430  213.6740  154.7270 C   0  0  0  0  0  2  0  0  0  0  0  0
  162.1180  209.7900  149.8060 C   0  0  0  0  0  2  0  0  0  0  0  0
  163.1370  207.8670  148.5920 C   0  0  0  0  0  3  0  0  0  0  0  0
  160.9490  206.1210  149.4390 C   0  0  1  0  0  3  0  0  0  0  0  0
  162.0300  208.4200  149.3160 N   0  0  0  0  0  0  0  0  0  0  0  0
  160.8790  207.6130  149.6110 C   0  0  0  0  0  0  0  0  0  0  0  0
  163.0920  206.6300  148.0960 C   0  0  0  0  0  3  0  0  0  0  0  0
  159.8210  208.1410  150.0430 O   0  0  0  0  0  0  0  0  0  0  0  0
  161.8700  205.7630  148.2560 C   0  0  2  0  0  3  0  0  0  0  0  0
  161.6390  205.6290  153.2110 C   0  0  0  0  0  2  0  0  0  0  0  0
  161.2090  206.3520  151.9400 C   0  0  0  0  0  2  0  0  0  0  0  0
  161.3420  203.5230  152.0300 N   0  0  0  0  0  2  0  0  0  0  0  0
  161.4420  205.4490  150.7280 C   0  0  1  0  0  3  0  0  0  0  0  0
  160.7350  204.1850  150.9450 N   0  0  0  0  0  2  0  0  0  0  0  0
  161.0020  204.2470  153.2520 C   0  0  0  0  0  2  0  0  0  0  0  0
  161.1770  205.3660  146.9380 C   0  0  1  0  0  3  0  0  0  0  0  0
  161.9120  205.8250  145.8160 O   0  0  0  0  0  0  0  0  0  0  0  0
  163.1990  203.9990  146.4130 O   0  0  0  0  0  1  0  0  0  0  0  0
  161.9260  204.4420  146.0440 C   0  0  1  0  0  0  0  0  0  0  0  0
  160.5530  204.5690  144.0970 O   0  0  0  0  0  1  0  0  0  0  0  0
  161.1610  203.6750  144.9760 C   0  0  2  0  0  3  0  0  0  0  0  0
  160.1100  202.7760  145.6120 C   0  0  0  0  0  2  0  0  0  0  0  0
  160.7630  201.6300  146.3060 C   0  0  0  0  0  0  0  0  0  0  0  0
  161.1180  200.6150  145.6490 O   0  0  0  0  0  0  0  0  0  0  0  0
  160.0640  201.6990  148.5720 O   0  0  0  0  0  0  0  0  0  0  0  0
  161.0150  201.7080  147.7460 C   0  0  0  0  0  3  0  0  0  0  0  0
  1  2  2  0  0  0  0
  2 17  1  0  0  0  0
  3  7  2  0  0  0  0
  3  5  1  0  0  0  0
  4  6  2  0  0  0  0
  4  2  1  0  0  0  0
  5  4  1  0  0  0  0
  8  3  1  0  0  0  0
  9  8  2  0  0  0  0
 10  9  1  0  0  0  0
 12 15  2  0  0  0  0
 13 16  2  0  0  0  0
 13 12  1  0  0  0  0
 14 11  2  0  0  0  0
 15 11  1  0  0  0  0
 15 10  1  0  0  0  0
 16 14  1  0  0  0  0
 17 18  2  0  0  0  0
 19 18  1  6  0  0  0
 19 26  1  0  0  0  0
 19 20  1  0  0  0  0
 21 20  1  0  0  0  0
 21 23  1  0  0  0  0
 23 22  1  6  0  0  0
 23 25  1  0  0  0  0
 24 25  1  0  0  0  0
 26 28  1  0  0  0  0
 28 27  1  0  0  0  0
 29 32  1  0  0  0  0
 29 28  1  0  0  0  0
 30 32  1  0  0  0  0
 30 31  1  0  0  0  0
 31 27  1  0  0  0  0
 33  1  1  0  0  0  0
 34 36  1  0  0  0  0
 35 37  1  1  0  0  0
 35 44  1  0  0  0  0
 36 37  1  0  0  0  0
 36 33  1  0  0  0  0
 37 39  2  0  0  0  0
 38 34  2  0  0  0  0
 40 38  1  6  0  0  0
 40 35  1  0  0  0  0
 41 46  1  0  0  0  0
 42 41  1  0  0  0  0
 43 46  1  0  0  0  0
 44 45  1  0  0  0  0
 44 42  1  1  0  0  0
 45 43  1  0  0  0  0
 47 48  1  6  0  0  0
 47 40  1  0  0  0  0
 48 50  1  0  0  0  0
 50 49  1  1  0  0  0
 50 47  1  0  0  0  0
 52 51  1  6  0  0  0
 52 53  1  0  0  0  0
 52 50  1  0  0  0  0
 53 54  1  0  0  0  0
 54 57  1  0  0  0  0
 55 54  2  0  0  0  0
 57 56  2  0  0  0  0
M  END
>  <MODEL>
8

>  <REMARK>
 VINA RESULT:      -2.7      1.785      3.474
  Name = 
  20 active torsions:
  status: ('A' for Active; 'I' for Inactive)
    1  A    between atoms: C_6  and  C_46
    2  A    between atoms: C_7  and  O_10
    3  A    between atoms: C_9  and  C_23
    4  A    between atoms: C_9  and  C_47
    5  A    between atoms: O_10  and  C_38
    6  A    between atoms: C_16  and  C_21
    7  A    between atoms: C_17  and  C_38
    8  A    between atoms: C_17  and  N_49
    9  A    between atoms: C_19  and  C_50
   10  A    between atoms: N_22  and  C_29
   11  A    between atoms: C_23  and  C_42
   12  A    between atoms: C_24  and  C_31
   13  A    between atoms: C_25  and  C_44
   14  A    between atoms: C_29  and  C_40
   15  A    between atoms: C_31  and  C_54
   16  A    between atoms: C_34  and  C_46
   17  A    between atoms: C_38  and  C_52
   18  A    between atoms: C_42  and  C_56
   19  A    between atoms: N_49  and  C_53
   20  A    between atoms: C_51  and  C_53
                            x       y       z     vdW  Elec       q    Type
                         _______ _______ _______ _____ _____    ______ ____

>  <TORSDO>
F 20

$$$$
=
 OpenBabel11072414553D

 57 61  0  0  1  0  0  0  0  0999 V2000
  161.2870  213.9410  146.6030 C   0  0  0  0  0  3  0  0  0  0  0  0
  160.1460  213.7490  145.9340 C   0  0  0  0  0  0  0  0  0  0  0  0
  157.4940  213.8160  148.7550 C   0  0  0  0  0  0  0  0  0  0  0  0
  158.8490  213.5280  146.6190 C   0  0  0  0  0  0  0  0  0  0  0  0
  158.6540  214.0320  147.9460 N   0  0  0  0  0  2  0  0  0  0  0  0
  157.9250  212.8960  146.0360 O   0  0  0  0  0  0  0  0  0  0  0  0
  156.5430  213.0950  148.3420 O   0  0  0  0  0  0  0  0  0  0  0  0
  157.4360  214.4320  150.0820 C   0  0  0  0  0  3  0  0  0  0  0  0
  156.9420  213.7930  151.1340 C   0  0  0  0  0  3  0  0  0  0  0  0
  156.8900  214.4420  152.4770 C   0  0  0  0  0  2  0  0  0  0  0  0
  157.6980  212.3610  153.6230 C   0  0  0  0  0  3  0  0  0  0  0  0
  155.8010  213.5520  154.5480 C   0  0  0  0  0  3  0  0  0  0  0  0
  155.7110  212.6080  155.5760 C   0  0  0  0  0  3  0  0  0  0  0  0
  157.6070  211.4180  154.6510 C   0  0  0  0  0  3  0  0  0  0  0  0
  156.7920  213.4280  153.5680 C   0  0  0  0  0  0  0  0  0  0  0  0
  156.6130  211.5410  155.6260 C   0  0  0  0  0  3  0  0  0  0  0  0
  160.2440  213.7560  144.4660 C   0  0  0  0  0  3  0  0  0  0  0  0
  160.3750  212.6500  143.7420 C   0  0  0  0  0  3  0  0  0  0  0  0
  160.4900  212.7220  142.2560 C   0  0  2  0  0  3  0  0  0  0  0  0
  159.1380  212.4490  141.6100 C   0  0  0  0  0  2  0  0  0  0  0  0
  158.6020  213.6580  141.0020 N   0  0  0  0  0  2  0  0  0  0  0  0
  156.3240  213.6270  140.5630 O   0  0  0  0  0  1  0  0  0  0  0  0
  157.5690  213.2430  140.0710 C   0  0  2  0  0  3  0  0  0  0  0  0
  156.5190  211.2740  138.9650 C   0  0  0  0  0  1  0  0  0  0  0  0
  157.6160  211.7360  139.9030 C   0  0  0  0  0  2  0  0  0  0  0  0
  161.4360  211.7990  141.7930 O   0  0  0  0  0  0  0  0  0  0  0  0
  160.8440  210.3010  140.0040 C   0  0  0  0  0  2  0  0  0  0  0  0
  161.2480  211.7270  140.4080 C   0  0  0  0  0  3  0  0  0  0  0  0
  162.5140  212.2310  139.7000 C   0  0  0  0  0  2  0  0  0  0  0  0
  162.6250  210.1740  138.2220 C   0  0  0  0  0  2  0  0  0  0  0  0
  162.0290  209.5030  139.4690 C   0  0  0  0  0  2  0  0  0  0  0  0
  162.5830  211.7100  138.2680 C   0  0  0  0  0  2  0  0  0  0  0  0
  161.4310  213.8770  148.0930 C   0  0  0  0  0  2  0  0  0  0  0  0
  163.0560  211.9930  148.2380 C   0  0  0  0  0  3  0  0  0  0  0  0
  161.2250  210.4920  149.9550 C   0  0  1  0  0  3  0  0  0  0  0  0
  161.7470  212.5140  148.5020 N   0  0  0  0  0  0  0  0  0  0  0  0
  160.7830  211.7250  149.2180 C   0  0  0  0  0  0  0  0  0  0  0  0
  163.3830  210.7420  148.5640 C   0  0  0  0  0  3  0  0  0  0  0  0
  159.5740  212.0750  149.2600 O   0  0  0  0  0  0  0  0  0  0  0  0
  162.3870  209.8110  149.2050 C   0  0  2  0  0  3  0  0  0  0  0  0
  160.8580  211.3120  153.7160 C   0  0  0  0  0  2  0  0  0  0  0  0
  160.4150  211.0450  152.2820 C   0  0  0  0  0  2  0  0  0  0  0  0
  162.9590  210.1990  153.1990 N   0  0  0  0  0  2  0  0  0  0  0  0
  161.6410  210.8390  151.3920 C   0  0  1  0  0  3  0  0  0  0  0  0
  162.4550  209.7620  151.9590 N   0  0  0  0  0  2  0  0  0  0  0  0
  161.8520  210.2440  154.1500 C   0  0  0  0  0  2  0  0  0  0  0  0
  162.0340  208.5620  148.3750 C   0  0  1  0  0  3  0  0  0  0  0  0
  163.0670  207.5940  148.4450 O   0  0  0  0  0  0  0  0  0  0  0  0
  162.0740  207.2650  150.5070 O   0  0  0  0  0  1  0  0  0  0  0  0
  161.8790  207.2860  149.1240 C   0  0  1  0  0  0  0  0  0  0  0  0
  159.9340  205.9040  149.1580 O   0  0  0  0  0  1  0  0  0  0  0  0
  161.1240  206.1400  148.4710 C   0  0  2  0  0  3  0  0  0  0  0  0
  161.9740  204.8770  148.4570 C   0  0  0  0  0  2  0  0  0  0  0  0
  161.5190  203.9610  147.3740 C   0  0  0  0  0  0  0  0  0  0  0  0
  161.3480  202.7360  147.6150 O   0  0  0  0  0  0  0  0  0  0  0  0
  161.3630  203.7820  145.0140 O   0  0  0  0  0  0  0  0  0  0  0  0
  161.2440  204.5010  146.0420 C   0  0  0  0  0  3  0  0  0  0  0  0
  1 33  1  0  0  0  0
  2  1  2  0  0  0  0
  2  4  1  0  0  0  0
  3  8  1  0  0  0  0
  4  5  1  0  0  0  0
  5  3  1  0  0  0  0
  6  4  2  0  0  0  0
  7  3  2  0  0  0  0
  8  9  2  0  0  0  0
  9 10  1  0  0  0  0
 10 15  1  0  0  0  0
 11 14  1  0  0  0  0
 12 13  2  0  0  0  0
 13 16  1  0  0  0  0
 14 16  2  0  0  0  0
 15 11  2  0  0  0  0
 15 12  1  0  0  0  0
 17  2  1  0  0  0  0
 18 17  2  0  0  0  0
 19 20  1  6  0  0  0
 19 18  1  0  0  0  0
 21 20  1  0  0  0  0
 23 22  1  1  0  0  0
 23 21  1  0  0  0  0
 24 25  1  0  0  0  0
 25 23  1  0  0  0  0
 26 19  1  0  0  0  0
 27 28  1  0  0  0  0
 28 26  1  0  0  0  0
 29 28  1  0  0  0  0
 30 32  1  0  0  0  0
 30 31  1  0  0  0  0
 31 27  1  0  0  0  0
 32 29  1  0  0  0  0
 33 36  1  0  0  0  0
 34 36  1  0  0  0  0
 34 38  2  0  0  0  0
 35 37  1  6  0  0  0
 35 44  1  0  0  0  0
 36 37  1  0  0  0  0
 37 39  2  0  0  0  0
 40 38  1  6  0  0  0
 40 35  1  0  0  0  0
 41 46  1  0  0  0  0
 42 41  1  0  0  0  0
 43 46  1  0  0  0  0
 44 45  1  0  0  0  0
 44 42  1  1  0  0  0
 45 43  1  0  0  0  0
 47 48  1  6  0  0  0
 47 50  1  0  0  0  0
 47 40  1  0  0  0  0
 48 50  1  0  0  0  0
 50 49  1  1  0  0  0
 52 50  1  0  0  0  0
 52 51  1  1  0  0  0
 53 52  1  0  0  0  0
 54 55  2  0  0  0  0
 54 53  1  0  0  0  0
 56 57  2  0  0  0  0
 57 54  1  0  0  0  0
M  END
>  <MODEL>
9

>  <REMARK>
 VINA RESULT:      -2.6      3.258     10.356
  Name = 
  20 active torsions:
  status: ('A' for Active; 'I' for Inactive)
    1  A    between atoms: C_6  and  C_46
    2  A    between atoms: C_7  and  O_10
    3  A    between atoms: C_9  and  C_23
    4  A    between atoms: C_9  and  C_47
    5  A    between atoms: O_10  and  C_38
    6  A    between atoms: C_16  and  C_21
    7  A    between atoms: C_17  and  C_38
    8  A    between atoms: C_17  and  N_49
    9  A    between atoms: C_19  and  C_50
   10  A    between atoms: N_22  and  C_29
   11  A    between atoms: C_23  and  C_42
   12  A    between atoms: C_24  and  C_31
   13  A    between atoms: C_25  and  C_44
   14  A    between atoms: C_29  and  C_40
   15  A    between atoms: C_31  and  C_54
   16  A    between atoms: C_34  and  C_46
   17  A    between atoms: C_38  and  C_52
   18  A    between atoms: C_42  and  C_56
   19  A    between atoms: N_49  and  C_53
   20  A    between atoms: C_51  and  C_53
                            x       y       z     vdW  Elec       q    Type
                         _______ _______ _______ _____ _____    ______ ____

>  <TORSDO>
F 20

$$$$
