=
 OpenBabel11072409513D

 64 71  0  0  1  0  0  0  0  0999 V2000
  160.6490  208.0340  148.2710 C   0  0  0  0  0  1  0  0  0  0  0  0
  160.0000  210.4090  152.8710 C   0  0  1  0  0  0  0  0  0  0  0  0
  160.0850  208.8850  152.6390 C   0  0  1  0  0  3  0  0  0  0  0  0
  162.0230  209.4010  151.0060 C   0  0  0  0  0  0  0  0  0  0  0  0
  160.8730  208.5450  151.3940 C   0  0  0  0  0  0  0  0  0  0  0  0
  160.8090  211.3370  151.9540 C   0  0  2  0  0  3  0  0  0  0  0  0
  163.5630  206.6090  150.3800 C   0  0  0  0  0  1  0  0  0  0  0  0
  158.6550  210.8160  152.9070 O   0  0  0  0  0  0  0  0  0  0  0  0
  162.7800  207.5880  149.5090 C   0  0  1  0  0  3  0  0  0  0  0  0
  160.5480  207.4790  150.6540 C   0  0  0  0  0  3  0  0  0  0  0  0
  161.2860  207.1770  149.3640 C   0  0  1  0  0  0  0  0  0  0  0  0
  159.3680  210.9120  154.1140 C   0  0  0  0  0  2  0  0  0  0  0  0
  162.1840  210.7480  151.6400 C   0  0  0  0  0  2  0  0  0  0  0  0
  162.9090  208.9690  150.1050 C   0  0  0  0  0  3  0  0  0  0  0  0
  161.9260  200.8910  148.1790 O   0  0  0  0  0  0  0  0  0  0  0  0
  160.6530  203.4260  149.4990 N   0  0  0  0  0  0  0  0  0  0  0  0
  161.1470  205.7150  148.9630 C   0  0  0  0  0  0  0  0  0  0  0  0
  161.3950  205.3220  147.6380 C   0  0  0  0  0  3  0  0  0  0  0  0
  161.4860  203.5510  145.8710 C   0  0  0  0  0  0  0  0  0  0  0  0
  161.2550  203.9840  147.2570 C   0  0  0  0  0  0  0  0  0  0  0  0
  161.1750  202.2070  145.5030 N   0  0  0  0  0  2  0  0  0  0  0  0
  160.8570  203.0390  148.2120 C   0  0  0  0  0  0  0  0  0  0  0  0
  160.7820  204.7220  149.8860 C   0  0  0  0  0  3  0  0  0  0  0  0
  160.9320  199.9280  146.2240 C   0  0  0  0  0  2  0  0  0  0  0  0
  161.9660  199.7710  147.3260 C   0  0  0  0  0  2  0  0  0  0  0  0
  161.9960  204.3260  145.0220 O   0  0  0  0  0  0  0  0  0  0  0  0
  160.4260  201.3220  146.3930 C   0  0  1  0  0  3  0  0  0  0  0  0
  160.7460  201.5800  147.8600 C   0  0  1  0  0  3  0  0  0  0  0  0
  160.4910  208.1620  153.7850 O   0  0  0  0  0  0  0  0  0  0  0  0
  159.5590  208.3300  154.8290 C   0  0  0  0  0  2  0  0  0  0  0  0
  161.9520  209.7580  156.6820 C   0  0  0  0  0  0  0  0  0  0  0  0
  159.7140  209.0310  157.2180 C   0  0  0  0  0  2  0  0  0  0  0  0
  162.0020  208.0850  156.0680 S   0  0  0  0  0  0  0  0  0  0  0  0
  160.6420  210.2320  157.1940 C   0  0  0  0  0  2  0  0  0  0  0  0
  160.1850  208.0200  156.1790 C   0  0  2  0  0  3  0  0  0  0  0  0
  162.8990  210.6270  156.3420 C   0  0  0  0  0  2  0  0  0  0  0  0
  160.8970  212.7930  152.3900 C   0  0  0  0  0  2  0  0  0  0  0  0
  160.0500  213.6060  151.4270 C   0  0  2  0  0  3  0  0  0  0  0  0
  158.6600  213.1390  151.3650 N   0  0  0  0  0  2  0  0  0  0  0  0
  157.7080  214.0480  152.0250 C   0  0  2  0  0  3  0  0  0  0  0  0
  156.1210  212.8130  153.5260 C   0  0  0  0  0  3  0  0  0  0  0  0
  156.4840  212.6540  155.9160 C   0  0  0  0  0  0  0  0  0  0  0  0
  158.0380  213.9040  154.5410 C   0  0  0  0  0  3  0  0  0  0  0  0
  155.7250  212.3400  154.7830 C   0  0  0  0  0  3  0  0  0  0  0  0
  157.2790  213.6010  153.3990 C   0  0  0  0  0  0  0  0  0  0  0  0
  157.6370  213.4380  155.7980 C   0  0  0  0  0  3  0  0  0  0  0  0
  156.0740  212.1380  157.2480 C   0  0  0  0  0  1  0  0  0  0  0  0
  156.5460  214.4530  151.1170 C   0  0  2  0  0  3  0  0  0  0  0  0
  155.3470  214.2010  151.7550 F   0  0  0  0  0  0  0  0  0  0  0  0
  156.5960  213.7300  149.9220 O   0  0  0  0  0  0  0  0  0  0  0  0
  155.5400  214.2260  149.1510 C   0  0  0  0  0  2  0  0  0  0  0  0
  155.8670  214.1120  147.7370 N   0  0  0  0  0  2  0  0  0  0  0  0
  157.1420  213.4180  147.6420 C   0  0  0  0  0  2  0  0  0  0  0  0
  157.9540  212.4300  145.6870 C   0  0  0  0  0  1  0  0  0  0  0  0
  157.7710  213.6990  146.3650 N   0  0  0  0  0  2  0  0  0  0  0  0
  160.7170  213.6690  150.0450 C   0  0  0  0  0  2  0  0  0  0  0  0
  160.2200  212.6170  149.0570 C   0  0  0  0  0  2  0  0  0  0  0  0
  161.3220  212.1980  148.1000 C   0  0  0  0  0  2  0  0  0  0  0  0
  162.2070  213.4010  147.8050 C   0  0  2  0  0  3  0  0  0  0  0  0
  160.5720  214.4530  146.4380 O   0  0  0  0  0  1  0  0  0  0  0  0
  162.6270  214.1630  145.4580 O   0  0  0  0  0  0  0  0  0  0  0  0
  161.7610  214.0550  146.5420 C   0  0  0  0  0  0  0  0  0  0  0  0
  163.6820  211.6090  148.1090 C   0  0  0  0  0  1  0  0  0  0  0  0
  163.5980  213.0020  147.6960 N   0  0  0  0  0  2  0  0  0  0  0  0
  2  8  1  0  0  0  0
  2 12  1  1  0  0  0
  3  2  1  0  0  0  0
  3 29  1  1  0  0  0
  4  5  1  0  0  0  0
  4 13  1  0  0  0  0
  5  3  1  0  0  0  0
  6 37  1  1  0  0  0
  6  2  1  0  0  0  0
  8 12  1  0  0  0  0
  9 14  1  0  0  0  0
  9  7  1  1  0  0  0
 10  5  2  0  0  0  0
 11  1  1  6  0  0  0
 11  9  1  0  0  0  0
 11 10  1  0  0  0  0
 13  6  1  0  0  0  0
 14  4  2  0  0  0  0
 16 23  1  0  0  0  0
 17 11  1  0  0  0  0
 17 23  2  0  0  0  0
 18 17  1  0  0  0  0
 19 20  1  0  0  0  0
 20 18  2  0  0  0  0
 20 22  1  0  0  0  0
 21 19  1  0  0  0  0
 21 27  1  0  0  0  0
 22 16  2  0  0  0  0
 24 25  1  0  0  0  0
 25 15  1  0  0  0  0
 26 19  2  0  0  0  0
 27 24  1  6  0  0  0
 27 28  1  0  0  0  0
 28 15  1  6  0  0  0
 28 22  1  0  0  0  0
 29 30  1  0  0  0  0
 31 34  1  0  0  0  0
 33 35  1  0  0  0  0
 33 31  1  0  0  0  0
 34 32  1  0  0  0  0
 35 30  1  6  0  0  0
 35 32  1  0  0  0  0
 36 31  2  0  0  0  0
 38 56  1  6  0  0  0
 38 37  1  0  0  0  0
 39 38  1  0  0  0  0
 40 39  1  6  0  0  0
 40 45  1  0  0  0  0
 41 44  1  0  0  0  0
 42 47  1  0  0  0  0
 43 46  2  0  0  0  0
 44 42  2  0  0  0  0
 45 41  2  0  0  0  0
 45 43  1  0  0  0  0
 46 42  1  0  0  0  0
 48 49  1  1  0  0  0
 48 40  1  0  0  0  0
 50 48  1  0  0  0  0
 51 50  1  0  0  0  0
 52 51  1  0  0  0  0
 53 52  1  0  0  0  0
 54 55  1  0  0  0  0
 55 53  1  0  0  0  0
 57 56  1  0  0  0  0
 58 57  1  0  0  0  0
 59 58  1  6  0  0  0
 60 62  1  0  0  0  0
 61 62  2  0  0  0  0
 62 59  1  0  0  0  0
 64 59  1  0  0  0  0
 64 63  1  0  0  0  0
M  END
>  <MODEL>
1

>  <REMARK>
 VINA RESULT:      -1.4      0.000      0.000
  Name = 
  21 active torsions:
  status: ('A' for Active; 'I' for Inactive)
    1  A    between atoms: N_4  and  C_13
    2  A    between atoms: N_4  and  C_62
    3  A    between atoms: C_7  and  C_44
    4  A    between atoms: O_9  and  C_10
    5  A    between atoms: O_9  and  C_63
    6  A    between atoms: C_12  and  C_13
    7  A    between atoms: C_12  and  O_20
    8  A    between atoms: C_13  and  C_46
    9  A    between atoms: CA_19  and  C_37
   10  A    between atoms: CA_19  and  N_52
   11  A    between atoms: CA_19  and  C_58
   12  A    between atoms: O_20  and  C_57
   13  A    between atoms: C_21  and  C_51
   14  A    between atoms: C_35  and  C_49
   15  A    between atoms: C_35  and  C_58
   16  A    between atoms: C_43  and  N_48
   17  A    between atoms: C_43  and  N_59
   18  A    between atoms: C_49  and  C_62
   19  A    between atoms: C_51  and  C_62
   20  A    between atoms: C_55  and  C_63
   21  A    between atoms: C_57  and  N_59
                            x       y       z     vdW  Elec       q    Type
                         _______ _______ _______ _____ _____    ______ ____

>  <TORSDO>
F 21

$$$$
=
 OpenBabel11072409513D

 64 71  0  0  1  0  0  0  0  0999 V2000
  159.9380  207.7080  147.7580 C   0  0  0  0  0  1  0  0  0  0  0  0
  160.8370  209.0700  152.7150 C   0  0  1  0  0  0  0  0  0  0  0  0
  161.1360  207.6930  152.0810 C   0  0  1  0  0  3  0  0  0  0  0  0
  162.0260  209.0050  150.0380 C   0  0  0  0  0  0  0  0  0  0  0  0
  161.3670  207.7950  150.5900 C   0  0  0  0  0  0  0  0  0  0  0  0
  160.9550  210.3230  151.8370 C   0  0  2  0  0  3  0  0  0  0  0  0
  163.7040  206.9320  148.1820 C   0  0  0  0  0  1  0  0  0  0  0  0
  159.5840  209.0420  153.3540 O   0  0  0  0  0  0  0  0  0  0  0  0
  162.4360  207.7470  147.9520 C   0  0  1  0  0  3  0  0  0  0  0  0
  160.9910  206.8020  149.7760 C   0  0  0  0  0  3  0  0  0  0  0  0
  161.1500  206.9320  148.2730 C   0  0  1  0  0  0  0  0  0  0  0  0
  160.7070  209.1680  154.1880 C   0  0  0  0  0  2  0  0  0  0  0  0
  162.1520  210.2290  150.8920 C   0  0  0  0  0  2  0  0  0  0  0  0
  162.5090  208.9990  148.7930 C   0  0  0  0  0  3  0  0  0  0  0  0
  160.0150  201.5460  144.9500 O   0  0  0  0  0  0  0  0  0  0  0  0
  161.5200  204.2000  145.6470 N   0  0  0  0  0  0  0  0  0  0  0  0
  161.1670  205.5710  147.5880 C   0  0  0  0  0  0  0  0  0  0  0  0
  160.8380  204.4140  148.3120 C   0  0  0  0  0  3  0  0  0  0  0  0
  160.5470  201.9320  148.4370 C   0  0  0  0  0  0  0  0  0  0  0  0
  160.8660  203.1600  147.6960 C   0  0  0  0  0  0  0  0  0  0  0  0
  160.7460  200.6680  147.8050 N   0  0  0  0  0  2  0  0  0  0  0  0
  161.2350  203.0690  146.3470 C   0  0  0  0  0  0  0  0  0  0  0  0
  161.4990  205.4260  146.2310 C   0  0  0  0  0  3  0  0  0  0  0  0
  160.8560  199.4460  145.7390 C   0  0  0  0  0  2  0  0  0  0  0  0
  159.8600  200.1510  144.8330 C   0  0  0  0  0  2  0  0  0  0  0  0
  160.0590  201.9770  149.5960 O   0  0  0  0  0  0  0  0  0  0  0  0
  161.4670  200.5490  146.5390 C   0  0  1  0  0  3  0  0  0  0  0  0
  161.2270  201.7460  145.6280 C   0  0  1  0  0  3  0  0  0  0  0  0
  162.1390  206.9650  152.7640 O   0  0  0  0  0  0  0  0  0  0  0  0
  161.6770  205.6730  153.0840 C   0  0  0  0  0  2  0  0  0  0  0  0
  161.7950  202.5360  151.9270 C   0  0  0  0  0  0  0  0  0  0  0  0
  159.9580  204.0660  152.2570 C   0  0  0  0  0  2  0  0  0  0  0  0
  162.4080  203.9650  151.0570 S   0  0  0  0  0  0  0  0  0  0  0  0
  160.5060  202.7040  152.6440 C   0  0  0  0  0  2  0  0  0  0  0  0
  161.1180  204.9700  151.8580 C   0  0  2  0  0  3  0  0  0  0  0  0
  162.6140  201.5350  152.2370 C   0  0  0  0  0  2  0  0  0  0  0  0
  160.9090  211.6560  152.5700 C   0  0  0  0  0  2  0  0  0  0  0  0
  159.6640  212.3880  152.1000 C   0  0  2  0  0  3  0  0  0  0  0  0
  159.9670  213.7020  151.5190 N   0  0  0  0  0  2  0  0  0  0  0  0
  159.5820  213.8180  150.1030 C   0  0  2  0  0  3  0  0  0  0  0  0
  157.2690  214.2860  150.9530 C   0  0  0  0  0  3  0  0  0  0  0  0
  155.3400  214.2610  149.4880 C   0  0  0  0  0  0  0  0  0  0  0  0
  157.5350  213.7530  148.5990 C   0  0  0  0  0  3  0  0  0  0  0  0
  155.8920  214.4510  150.7600 C   0  0  0  0  0  3  0  0  0  0  0  0
  158.0970  213.9330  149.8730 C   0  0  0  0  0  0  0  0  0  0  0  0
  156.1570  213.9090  148.4080 C   0  0  0  0  0  3  0  0  0  0  0  0
  153.8800  214.4520  149.2790 C   0  0  0  0  0  1  0  0  0  0  0  0
  160.2660  212.7770  149.2150 C   0  0  2  0  0  3  0  0  0  0  0  0
  161.6250  213.0250  149.1700 F   0  0  0  0  0  0  0  0  0  0  0  0
  159.7410  212.8300  147.9210 O   0  0  0  0  0  0  0  0  0  0  0  0
  160.8240  212.5630  147.0770 C   0  0  0  0  0  2  0  0  0  0  0  0
  161.1550  213.7540  146.3090 N   0  0  0  0  0  2  0  0  0  0  0  0
  161.7580  213.3120  145.0610 C   0  0  0  0  0  2  0  0  0  0  0  0
  160.3090  212.2010  143.6030 C   0  0  0  0  0  1  0  0  0  0  0  0
  160.8320  213.5060  143.9610 N   0  0  0  0  0  2  0  0  0  0  0  0
  158.6260  212.4640  153.2300 C   0  0  0  0  0  2  0  0  0  0  0  0
  158.5270  213.8300  153.9040 C   0  0  0  0  0  2  0  0  0  0  0  0
  157.6890  213.7600  155.1680 C   0  0  0  0  0  2  0  0  0  0  0  0
  157.5190  212.3020  155.5700 C   0  0  2  0  0  3  0  0  0  0  0  0
  155.5960  211.1430  156.3500 O   0  0  0  0  0  1  0  0  0  0  0  0
  155.2900  212.3660  154.4320 O   0  0  0  0  0  0  0  0  0  0  0  0
  156.0790  211.9220  155.4890 C   0  0  0  0  0  0  0  0  0  0  0  0
  158.9430  210.9540  156.8490 C   0  0  0  0  0  1  0  0  0  0  0  0
  158.0190  212.0770  156.9140 N   0  0  0  0  0  2  0  0  0  0  0  0
  2  8  1  0  0  0  0
  2 12  1  1  0  0  0
  3  2  1  0  0  0  0
  3 29  1  1  0  0  0
  4  5  1  0  0  0  0
  4 13  1  0  0  0  0
  5  3  1  0  0  0  0
  6 37  1  1  0  0  0
  6  2  1  0  0  0  0
  8 12  1  0  0  0  0
  9  7  1  1  0  0  0
  9 11  1  0  0  0  0
  9 14  1  0  0  0  0
 10  5  2  0  0  0  0
 11  1  1  6  0  0  0
 11 10  1  0  0  0  0
 13  6  1  0  0  0  0
 14  4  2  0  0  0  0
 16 23  2  0  0  0  0
 16 22  1  0  0  0  0
 17 11  1  0  0  0  0
 17 18  2  0  0  0  0
 19 26  2  0  0  0  0
 20 18  1  0  0  0  0
 20 19  1  0  0  0  0
 21 19  1  0  0  0  0
 22 20  2  0  0  0  0
 23 17  1  0  0  0  0
 25 15  1  0  0  0  0
 25 24  1  0  0  0  0
 27 24  1  6  0  0  0
 27 21  1  0  0  0  0
 28 15  1  1  0  0  0
 28 22  1  0  0  0  0
 28 27  1  0  0  0  0
 29 30  1  0  0  0  0
 31 36  2  0  0  0  0
 31 34  1  0  0  0  0
 32 34  1  0  0  0  0
 33 35  1  0  0  0  0
 33 31  1  0  0  0  0
 35 32  1  0  0  0  0
 35 30  1  1  0  0  0
 38 37  1  1  0  0  0
 38 56  1  0  0  0  0
 39 38  1  0  0  0  0
 40 39  1  1  0  0  0
 42 44  2  0  0  0  0
 43 45  1  0  0  0  0
 44 41  1  0  0  0  0
 45 40  1  0  0  0  0
 45 41  2  0  0  0  0
 46 43  2  0  0  0  0
 46 42  1  0  0  0  0
 47 42  1  0  0  0  0
 48 49  1  6  0  0  0
 48 40  1  0  0  0  0
 50 48  1  0  0  0  0
 51 50  1  0  0  0  0
 52 51  1  0  0  0  0
 53 52  1  0  0  0  0
 54 55  1  0  0  0  0
 55 53  1  0  0  0  0
 56 57  1  0  0  0  0
 57 58  1  0  0  0  0
 59 58  1  1  0  0  0
 59 64  1  0  0  0  0
 61 62  2  0  0  0  0
 62 59  1  0  0  0  0
 62 60  1  0  0  0  0
 63 64  1  0  0  0  0
M  END
>  <MODEL>
2

>  <REMARK>
 VINA RESULT:      -1.1      2.360      5.318
  Name = 
  21 active torsions:
  status: ('A' for Active; 'I' for Inactive)
    1  A    between atoms: N_4  and  C_13
    2  A    between atoms: N_4  and  C_62
    3  A    between atoms: C_7  and  C_44
    4  A    between atoms: O_9  and  C_10
    5  A    between atoms: O_9  and  C_63
    6  A    between atoms: C_12  and  C_13
    7  A    between atoms: C_12  and  O_20
    8  A    between atoms: C_13  and  C_46
    9  A    between atoms: CA_19  and  C_37
   10  A    between atoms: CA_19  and  N_52
   11  A    between atoms: CA_19  and  C_58
   12  A    between atoms: O_20  and  C_57
   13  A    between atoms: C_21  and  C_51
   14  A    between atoms: C_35  and  C_49
   15  A    between atoms: C_35  and  C_58
   16  A    between atoms: C_43  and  N_48
   17  A    between atoms: C_43  and  N_59
   18  A    between atoms: C_49  and  C_62
   19  A    between atoms: C_51  and  C_62
   20  A    between atoms: C_55  and  C_63
   21  A    between atoms: C_57  and  N_59
                            x       y       z     vdW  Elec       q    Type
                         _______ _______ _______ _____ _____    ______ ____

>  <TORSDO>
F 21

$$$$
=
 OpenBabel11072409513D

 64 71  0  0  1  0  0  0  0  0999 V2000
  162.3820  203.8700  151.6040 C   0  0  0  0  0  1  0  0  0  0  0  0
  161.9180  208.9550  150.5280 C   0  0  1  0  0  0  0  0  0  0  0  0
  161.6230  207.7890  149.5580 C   0  0  1  0  0  3  0  0  0  0  0  0
  160.4730  206.6250  151.5600 C   0  0  0  0  0  0  0  0  0  0  0  0
  161.2400  206.5240  150.2930 C   0  0  0  0  0  0  0  0  0  0  0  0
  161.6540  208.7480  152.0250 C   0  0  2  0  0  3  0  0  0  0  0  0
  158.7180  204.1510  150.3950 C   0  0  0  0  0  1  0  0  0  0  0  0
  163.2280  209.4260  150.3270 O   0  0  0  0  0  0  0  0  0  0  0  0
  159.9180  204.2280  151.3340 C   0  0  1  0  0  3  0  0  0  0  0  0
  161.5800  205.3260  149.8050 C   0  0  0  0  0  3  0  0  0  0  0  0
  161.2660  204.0580  150.5770 C   0  0  1  0  0  0  0  0  0  0  0  0
  162.1890  210.3010  149.9700 C   0  0  0  0  0  2  0  0  0  0  0  0
  160.3740  207.9460  152.2590 C   0  0  0  0  0  2  0  0  0  0  0  0
  159.8690  205.5470  152.0680 C   0  0  0  0  0  3  0  0  0  0  0  0
  162.5040  198.9980  146.8090 O   0  0  0  0  0  0  0  0  0  0  0  0
  161.3850  200.4600  149.3390 N   0  0  0  0  0  0  0  0  0  0  0  0
  161.2450  202.8350  149.6690 C   0  0  0  0  0  0  0  0  0  0  0  0
  161.0530  202.9890  148.2870 C   0  0  0  0  0  3  0  0  0  0  0  0
  160.7960  202.0030  146.0010 C   0  0  0  0  0  0  0  0  0  0  0  0
  161.0180  201.8710  147.4480 C   0  0  0  0  0  0  0  0  0  0  0  0
  160.6090  200.8250  145.2170 N   0  0  0  0  0  2  0  0  0  0  0  0
  161.1670  200.5930  148.0040 C   0  0  0  0  0  0  0  0  0  0  0  0
  161.4210  201.5350  150.1690 C   0  0  0  0  0  3  0  0  0  0  0  0
  161.0440  198.4730  144.9820 C   0  0  0  0  0  2  0  0  0  0  0  0
  162.4210  198.2840  145.5980 C   0  0  0  0  0  2  0  0  0  0  0  0
  160.8170  203.1280  145.4370 O   0  0  0  0  0  0  0  0  0  0  0  0
  160.4030  199.5160  145.8360 C   0  0  1  0  0  3  0  0  0  0  0  0
  161.1890  199.3660  147.1320 C   0  0  1  0  0  3  0  0  0  0  0  0
  160.7280  208.1350  148.5180 O   0  0  0  0  0  0  0  0  0  0  0  0
  161.2520  207.7440  147.2690 C   0  0  0  0  0  2  0  0  0  0  0  0
  161.4240  205.6930  144.6310 C   0  0  0  0  0  0  0  0  0  0  0  0
  162.5450  205.6710  146.7670 C   0  0  0  0  0  2  0  0  0  0  0  0
  160.0250  205.8240  145.7290 S   0  0  0  0  0  0  0  0  0  0  0  0
  162.7650  205.7240  145.2660 C   0  0  0  0  0  2  0  0  0  0  0  0
  161.1670  206.2370  147.0860 C   0  0  2  0  0  3  0  0  0  0  0  0
  161.2850  205.9480  143.3330 C   0  0  0  0  0  2  0  0  0  0  0  0
  161.7090  209.9990  152.8900 C   0  0  0  0  0  2  0  0  0  0  0  0
  160.3430  210.6600  152.8170 C   0  0  2  0  0  3  0  0  0  0  0  0
  160.4280  212.1190  152.6780 N   0  0  0  0  0  2  0  0  0  0  0  0
  159.1820  212.7340  152.1910 C   0  0  2  0  0  3  0  0  0  0  0  0
  160.4160  213.0200  150.0250 C   0  0  0  0  0  3  0  0  0  0  0  0
  159.2770  213.6280  147.9760 C   0  0  0  0  0  0  0  0  0  0  0  0
  158.0210  213.4160  150.0360 C   0  0  0  0  0  3  0  0  0  0  0  0
  160.4550  213.2900  148.6520 C   0  0  0  0  0  3  0  0  0  0  0  0
  159.1990  213.0850  150.7250 C   0  0  0  0  0  0  0  0  0  0  0  0
  158.0610  213.6950  148.6650 C   0  0  0  0  0  3  0  0  0  0  0  0
  159.3140  213.8980  146.5150 C   0  0  0  0  0  1  0  0  0  0  0  0
  158.6870  213.8660  153.0920 C   0  0  2  0  0  3  0  0  0  0  0  0
  158.9870  213.5770  154.4090 F   0  0  0  0  0  0  0  0  0  0  0  0
  157.3060  214.0210  152.9530 O   0  0  0  0  0  0  0  0  0  0  0  0
  156.7450  213.1490  153.8930 C   0  0  0  0  0  2  0  0  0  0  0  0
  155.4510  213.6560  154.3240 N   0  0  0  0  0  2  0  0  0  0  0  0
  155.3520  213.4280  155.7570 C   0  0  0  0  0  2  0  0  0  0  0  0
  157.0870  213.8840  157.2530 C   0  0  0  0  0  1  0  0  0  0  0  0
  156.6120  212.9260  156.2720 N   0  0  0  0  0  2  0  0  0  0  0  0
  159.4720  210.2280  154.0060 C   0  0  0  0  0  2  0  0  0  0  0  0
  159.9630  210.7280  155.3620 C   0  0  0  0  0  2  0  0  0  0  0  0
  159.8000  209.6640  156.4330 C   0  0  0  0  0  2  0  0  0  0  0  0
  161.0750  209.5950  157.2610 C   0  0  2  0  0  3  0  0  0  0  0  0
  162.0780  211.7500  157.2380 O   0  0  0  0  0  1  0  0  0  0  0  0
  162.9080  210.2690  155.6930 O   0  0  0  0  0  0  0  0  0  0  0  0
  162.0610  210.5910  156.7490 C   0  0  0  0  0  0  0  0  0  0  0  0
  160.5390  207.3200  157.1400 C   0  0  0  0  0  1  0  0  0  0  0  0
  161.6460  208.2610  157.2170 N   0  0  0  0  0  2  0  0  0  0  0  0
  2 12  1  6  0  0  0
  2  6  1  0  0  0  0
  3 29  1  6  0  0  0
  3  5  1  0  0  0  0
  3  2  1  0  0  0  0
  4 14  2  0  0  0  0
  4 13  1  0  0  0  0
  5  4  1  0  0  0  0
  6 13  1  0  0  0  0
  6 37  1  1  0  0  0
  8  2  1  0  0  0  0
  9  7  1  6  0  0  0
  9 14  1  0  0  0  0
 10  5  2  0  0  0  0
 10 11  1  0  0  0  0
 11  9  1  0  0  0  0
 11  1  1  1  0  0  0
 12  8  1  0  0  0  0
 16 23  1  0  0  0  0
 17 23  2  0  0  0  0
 17 11  1  0  0  0  0
 18 17  1  0  0  0  0
 19 20  1  0  0  0  0
 20 22  1  0  0  0  0
 20 18  2  0  0  0  0
 21 27  1  0  0  0  0
 21 19  1  0  0  0  0
 22 16  2  0  0  0  0
 24 25  1  0  0  0  0
 25 15  1  0  0  0  0
 26 19  2  0  0  0  0
 27 24  1  6  0  0  0
 27 28  1  0  0  0  0
 28 15  1  6  0  0  0
 28 22  1  0  0  0  0
 30 29  1  0  0  0  0
 31 34  1  0  0  0  0
 31 33  1  0  0  0  0
 32 35  1  0  0  0  0
 33 35  1  0  0  0  0
 34 32  1  0  0  0  0
 35 30  1  6  0  0  0
 36 31  2  0  0  0  0
 38 37  1  1  0  0  0
 38 56  1  0  0  0  0
 39 38  1  0  0  0  0
 40 39  1  1  0  0  0
 40 48  1  0  0  0  0
 41 45  1  0  0  0  0
 42 44  1  0  0  0  0
 42 46  2  0  0  0  0
 43 45  2  0  0  0  0
 44 41  2  0  0  0  0
 45 40  1  0  0  0  0
 46 43  1  0  0  0  0
 47 42  1  0  0  0  0
 48 49  1  1  0  0  0
 50 48  1  0  0  0  0
 50 51  1  0  0  0  0
 51 52  1  0  0  0  0
 52 53  1  0  0  0  0
 53 55  1  0  0  0  0
 55 54  1  0  0  0  0
 56 57  1  0  0  0  0
 57 58  1  0  0  0  0
 59 58  1  6  0  0  0
 61 62  2  0  0  0  0
 62 60  1  0  0  0  0
 62 59  1  0  0  0  0
 63 64  1  0  0  0  0
 64 59  1  0  0  0  0
M  END
>  <MODEL>
3

>  <REMARK>
 VINA RESULT:       0.7      2.841      6.759
  Name = 
  21 active torsions:
  status: ('A' for Active; 'I' for Inactive)
    1  A    between atoms: N_4  and  C_13
    2  A    between atoms: N_4  and  C_62
    3  A    between atoms: C_7  and  C_44
    4  A    between atoms: O_9  and  C_10
    5  A    between atoms: O_9  and  C_63
    6  A    between atoms: C_12  and  C_13
    7  A    between atoms: C_12  and  O_20
    8  A    between atoms: C_13  and  C_46
    9  A    between atoms: CA_19  and  C_37
   10  A    between atoms: CA_19  and  N_52
   11  A    between atoms: CA_19  and  C_58
   12  A    between atoms: O_20  and  C_57
   13  A    between atoms: C_21  and  C_51
   14  A    between atoms: C_35  and  C_49
   15  A    between atoms: C_35  and  C_58
   16  A    between atoms: C_43  and  N_48
   17  A    between atoms: C_43  and  N_59
   18  A    between atoms: C_49  and  C_62
   19  A    between atoms: C_51  and  C_62
   20  A    between atoms: C_55  and  C_63
   21  A    between atoms: C_57  and  N_59
                            x       y       z     vdW  Elec       q    Type
                         _______ _______ _______ _____ _____    ______ ____

>  <TORSDO>
F 21

$$$$
=
 OpenBabel11072409513D

 64 71  0  0  1  0  0  0  0  0999 V2000
  160.0910  207.0440  147.2240 C   0  0  0  0  0  1  0  0  0  0  0  0
  160.9700  208.4370  152.1750 C   0  0  1  0  0  0  0  0  0  0  0  0
  161.1760  207.0290  151.5770 C   0  0  1  0  0  3  0  0  0  0  0  0
  162.2170  208.2230  149.5330 C   0  0  0  0  0  0  0  0  0  0  0  0
  161.4510  207.0800  150.0900 C   0  0  0  0  0  0  0  0  0  0  0  0
  161.2080  209.6580  151.2760 C   0  0  2  0  0  3  0  0  0  0  0  0
  163.7730  205.9860  147.7630 C   0  0  0  0  0  1  0  0  0  0  0  0
  159.7030  208.5210  152.7810 O   0  0  0  0  0  0  0  0  0  0  0  0
  162.5780  206.8920  147.4830 C   0  0  1  0  0  3  0  0  0  0  0  0
  161.0190  206.1020  149.2860 C   0  0  0  0  0  3  0  0  0  0  0  0
  161.2250  206.1870  147.7850 C   0  0  1  0  0  0  0  0  0  0  0  0
  160.8120  208.5780  153.6420 C   0  0  0  0  0  2  0  0  0  0  0  0
  162.4170  209.4510  150.3650 C   0  0  0  0  0  2  0  0  0  0  0  0
  162.7290  208.1520  148.3010 C   0  0  0  0  0  3  0  0  0  0  0  0
  159.6040  200.6000  145.0460 O   0  0  0  0  0  0  0  0  0  0  0  0
  160.9410  203.4260  145.1790 N   0  0  0  0  0  0  0  0  0  0  0  0
  161.1530  204.8140  147.1280 C   0  0  0  0  0  0  0  0  0  0  0  0
  161.2410  203.6530  147.9120 C   0  0  0  0  0  3  0  0  0  0  0  0
  161.3040  201.1590  148.1110 C   0  0  0  0  0  0  0  0  0  0  0  0
  161.1910  202.3890  147.3160 C   0  0  0  0  0  0  0  0  0  0  0  0
  161.4070  199.9040  147.4380 N   0  0  0  0  0  2  0  0  0  0  0  0
  161.0590  202.2950  145.9240 C   0  0  0  0  0  0  0  0  0  0  0  0
  160.9900  204.6610  145.7420 C   0  0  0  0  0  3  0  0  0  0  0  0
  160.9090  198.6340  145.4600 C   0  0  0  0  0  2  0  0  0  0  0  0
  159.5800  199.1940  144.9800 C   0  0  0  0  0  2  0  0  0  0  0  0
  161.2620  201.1880  149.3680 O   0  0  0  0  0  0  0  0  0  0  0  0
  161.6340  199.8240  145.9960 C   0  0  1  0  0  3  0  0  0  0  0  0
  160.9470  200.9560  145.2440 C   0  0  1  0  0  3  0  0  0  0  0  0
  162.1010  206.2400  152.3000 O   0  0  0  0  0  0  0  0  0  0  0  0
  161.4520  205.5570  153.3480 C   0  0  0  0  0  2  0  0  0  0  0  0
  160.3010  203.2710  151.1910 C   0  0  0  0  0  0  0  0  0  0  0  0
  162.5190  203.7340  152.0210 C   0  0  0  0  0  2  0  0  0  0  0  0
  159.9960  203.2580  152.9470 S   0  0  0  0  0  0  0  0  0  0  0  0
  161.6730  203.6440  150.7640 C   0  0  0  0  0  2  0  0  0  0  0  0
  161.6150  204.0520  153.2050 C   0  0  2  0  0  3  0  0  0  0  0  0
  159.2870  203.3330  150.3340 C   0  0  0  0  0  2  0  0  0  0  0  0
  161.2480  211.0070  151.9810 C   0  0  0  0  0  2  0  0  0  0  0  0
  160.4050  211.9700  151.1650 C   0  0  2  0  0  3  0  0  0  0  0  0
  161.2060  212.7710  150.2310 N   0  0  0  0  0  2  0  0  0  0  0  0
  160.4500  213.2270  149.0530 C   0  0  2  0  0  3  0  0  0  0  0  0
  162.4150  212.5360  147.6560 C   0  0  0  0  0  3  0  0  0  0  0  0
  162.7950  213.4490  145.4440 C   0  0  0  0  0  0  0  0  0  0  0  0
  160.8980  214.2010  146.7490 C   0  0  0  0  0  3  0  0  0  0  0  0
  163.1740  212.5870  146.4800 C   0  0  0  0  0  3  0  0  0  0  0  0
  161.2750  213.3460  147.7980 C   0  0  0  0  0  0  0  0  0  0  0  0
  161.6610  214.2580  145.5780 C   0  0  0  0  0  3  0  0  0  0  0  0
  163.5890  213.4910  144.1880 C   0  0  0  0  0  1  0  0  0  0  0  0
  159.5830  214.4530  149.3420 C   0  0  2  0  0  3  0  0  0  0  0  0
  159.1790  214.4360  150.6630 F   0  0  0  0  0  0  0  0  0  0  0  0
  158.4590  214.4520  148.5130 O   0  0  0  0  0  0  0  0  0  0  0  0
  157.8200  213.2330  148.7650 C   0  0  0  0  0  2  0  0  0  0  0  0
  157.0270  212.8450  147.6080 N   0  0  0  0  0  2  0  0  0  0  0  0
  157.8640  213.0170  146.4320 C   0  0  0  0  0  2  0  0  0  0  0  0
  155.8200  214.0190  145.9060 C   0  0  0  0  0  1  0  0  0  0  0  0
  157.1870  213.8470  145.4520 N   0  0  0  0  0  2  0  0  0  0  0  0
  159.5300  212.8330  152.0860 C   0  0  0  0  0  2  0  0  0  0  0  0
  158.9840  212.0980  153.3070 C   0  0  0  0  0  2  0  0  0  0  0  0
  157.5180  212.4230  153.5350 C   0  0  0  0  0  2  0  0  0  0  0  0
  157.1910  212.2290  155.0090 C   0  0  2  0  0  3  0  0  0  0  0  0
  155.9240  213.4600  156.6000 O   0  0  0  0  0  1  0  0  0  0  0  0
  155.1240  213.5260  154.4500 O   0  0  0  0  0  0  0  0  0  0  0  0
  156.0620  213.1230  155.3960 C   0  0  0  0  0  0  0  0  0  0  0  0
  158.8380  211.2310  156.3400 C   0  0  0  0  0  1  0  0  0  0  0  0
  158.3520  212.5070  155.8350 N   0  0  0  0  0  2  0  0  0  0  0  0
  2  8  1  0  0  0  0
  2 12  1  1  0  0  0
  3  2  1  0  0  0  0
  3 29  1  1  0  0  0
  4  5  1  0  0  0  0
  4 13  1  0  0  0  0
  5  3  1  0  0  0  0
  6 37  1  1  0  0  0
  6  2  1  0  0  0  0
  8 12  1  0  0  0  0
  9  7  1  1  0  0  0
  9 11  1  0  0  0  0
  9 14  1  0  0  0  0
 10  5  2  0  0  0  0
 11  1  1  6  0  0  0
 11 10  1  0  0  0  0
 13  6  1  0  0  0  0
 14  4  2  0  0  0  0
 16 23  2  0  0  0  0
 16 22  1  0  0  0  0
 17 11  1  0  0  0  0
 17 18  2  0  0  0  0
 19 26  2  0  0  0  0
 20 18  1  0  0  0  0
 20 19  1  0  0  0  0
 21 19  1  0  0  0  0
 22 20  2  0  0  0  0
 23 17  1  0  0  0  0
 25 15  1  0  0  0  0
 25 24  1  0  0  0  0
 27 24  1  6  0  0  0
 27 21  1  0  0  0  0
 28 15  1  1  0  0  0
 28 22  1  0  0  0  0
 28 27  1  0  0  0  0
 29 30  1  0  0  0  0
 31 33  1  0  0  0  0
 32 35  1  0  0  0  0
 33 35  1  0  0  0  0
 34 31  1  0  0  0  0
 34 32  1  0  0  0  0
 35 30  1  6  0  0  0
 36 31  2  0  0  0  0
 38 37  1  1  0  0  0
 38 56  1  0  0  0  0
 39 38  1  0  0  0  0
 40 48  1  0  0  0  0
 40 39  1  1  0  0  0
 41 45  1  0  0  0  0
 42 46  2  0  0  0  0
 42 44  1  0  0  0  0
 43 45  2  0  0  0  0
 44 41  2  0  0  0  0
 45 40  1  0  0  0  0
 46 43  1  0  0  0  0
 47 42  1  0  0  0  0
 48 49  1  1  0  0  0
 50 51  1  0  0  0  0
 50 48  1  0  0  0  0
 52 51  1  0  0  0  0
 53 52  1  0  0  0  0
 55 54  1  0  0  0  0
 55 53  1  0  0  0  0
 56 57  1  0  0  0  0
 57 58  1  0  0  0  0
 59 58  1  6  0  0  0
 59 62  1  0  0  0  0
 59 64  1  0  0  0  0
 61 62  2  0  0  0  0
 62 60  1  0  0  0  0
 64 63  1  0  0  0  0
M  END
>  <MODEL>
4

>  <REMARK>
 VINA RESULT:       1.2      2.173      5.900
  Name = 
  21 active torsions:
  status: ('A' for Active; 'I' for Inactive)
    1  A    between atoms: N_4  and  C_13
    2  A    between atoms: N_4  and  C_62
    3  A    between atoms: C_7  and  C_44
    4  A    between atoms: O_9  and  C_10
    5  A    between atoms: O_9  and  C_63
    6  A    between atoms: C_12  and  C_13
    7  A    between atoms: C_12  and  O_20
    8  A    between atoms: C_13  and  C_46
    9  A    between atoms: CA_19  and  C_37
   10  A    between atoms: CA_19  and  N_52
   11  A    between atoms: CA_19  and  C_58
   12  A    between atoms: O_20  and  C_57
   13  A    between atoms: C_21  and  C_51
   14  A    between atoms: C_35  and  C_49
   15  A    between atoms: C_35  and  C_58
   16  A    between atoms: C_43  and  N_48
   17  A    between atoms: C_43  and  N_59
   18  A    between atoms: C_49  and  C_62
   19  A    between atoms: C_51  and  C_62
   20  A    between atoms: C_55  and  C_63
   21  A    between atoms: C_57  and  N_59
                            x       y       z     vdW  Elec       q    Type
                         _______ _______ _______ _____ _____    ______ ____

>  <TORSDO>
F 21

$$$$
=
 OpenBabel11072409513D

 64 71  0  0  1  0  0  0  0  0999 V2000
  160.6720  207.2710  146.6990 C   0  0  0  0  0  1  0  0  0  0  0  0
  160.5810  209.0480  151.6040 C   0  0  1  0  0  0  0  0  0  0  0  0
  160.6780  207.5680  151.1750 C   0  0  1  0  0  3  0  0  0  0  0  0
  162.3620  208.3630  149.3810 C   0  0  0  0  0  0  0  0  0  0  0  0
  161.3010  207.4150  149.8060 C   0  0  0  0  0  0  0  0  0  0  0  0
  161.2310  210.1150  150.7120 C   0  0  2  0  0  3  0  0  0  0  0  0
  163.8850  205.7400  148.2170 C   0  0  0  0  0  1  0  0  0  0  0  0
  159.2410  209.3860  151.8660 O   0  0  0  0  0  0  0  0  0  0  0  0
  162.9640  206.7780  147.5840 C   0  0  1  0  0  3  0  0  0  0  0  0
  160.9100  206.4320  148.9880 C   0  0  0  0  0  3  0  0  0  0  0  0
  161.4770  206.3200  147.5850 C   0  0  1  0  0  0  0  0  0  0  0  0
  160.1070  209.3700  152.9710 C   0  0  0  0  0  2  0  0  0  0  0  0
  162.5680  209.6310  150.1500 C   0  0  0  0  0  2  0  0  0  0  0  0
  163.1300  208.0830  148.3250 C   0  0  0  0  0  3  0  0  0  0  0  0
  159.5530  200.6800  145.1710 O   0  0  0  0  0  0  0  0  0  0  0  0
  161.1060  203.3960  145.1750 N   0  0  0  0  0  0  0  0  0  0  0  0
  161.3280  204.9110  147.0260 C   0  0  0  0  0  0  0  0  0  0  0  0
  161.2800  203.8100  147.8970 C   0  0  0  0  0  3  0  0  0  0  0  0
  161.1290  201.3420  148.2810 C   0  0  0  0  0  0  0  0  0  0  0  0
  161.1590  202.5120  147.3930 C   0  0  0  0  0  0  0  0  0  0  0  0
  161.1660  200.0350  147.7090 N   0  0  0  0  0  2  0  0  0  0  0  0
  161.0930  202.3200  146.0060 C   0  0  0  0  0  0  0  0  0  0  0  0
  161.2260  204.6640  145.6480 C   0  0  0  0  0  3  0  0  0  0  0  0
  160.6700  198.6570  145.8030 C   0  0  0  0  0  2  0  0  0  0  0  0
  159.4180  199.2790  145.2080 C   0  0  0  0  0  2  0  0  0  0  0  0
  161.0240  201.4720  149.5280 O   0  0  0  0  0  0  0  0  0  0  0  0
  161.4600  199.8260  146.2920 C   0  0  1  0  0  3  0  0  0  0  0  0
  160.9080  200.9460  145.4210 C   0  0  1  0  0  3  0  0  0  0  0  0
  161.2560  206.7330  152.1600 O   0  0  0  0  0  0  0  0  0  0  0  0
  161.9770  207.5020  153.0960 C   0  0  0  0  0  2  0  0  0  0  0  0
  160.3600  207.8840  156.0000 C   0  0  0  0  0  0  0  0  0  0  0  0
  160.8020  205.9380  154.6430 C   0  0  0  0  0  2  0  0  0  0  0  0
  162.1240  208.0330  155.7900 S   0  0  0  0  0  0  0  0  0  0  0  0
  159.7000  206.7810  155.2580 C   0  0  0  0  0  2  0  0  0  0  0  0
  162.0390  206.8070  154.4460 C   0  0  2  0  0  3  0  0  0  0  0  0
  159.6490  208.9090  156.4600 C   0  0  0  0  0  2  0  0  0  0  0  0
  161.3340  211.5110  151.3110 C   0  0  0  0  0  2  0  0  0  0  0  0
  160.3130  212.3840  150.6030 C   0  0  2  0  0  3  0  0  0  0  0  0
  160.8850  213.1100  149.4630 N   0  0  0  0  0  2  0  0  0  0  0  0
  159.9830  213.1790  148.3010 C   0  0  2  0  0  3  0  0  0  0  0  0
  160.0890  212.3360  145.9410 C   0  0  0  0  0  3  0  0  0  0  0  0
  161.8840  212.9600  144.4390 C   0  0  0  0  0  0  0  0  0  0  0  0
  161.8790  213.7800  146.7180 C   0  0  0  0  0  3  0  0  0  0  0  0
  160.6880  212.2730  144.6770 C   0  0  0  0  0  3  0  0  0  0  0  0
  160.6830  213.0870  146.9690 C   0  0  0  0  0  0  0  0  0  0  0  0
  162.4820  213.7110  145.4580 C   0  0  0  0  0  3  0  0  0  0  0  0
  162.5130  212.9080  143.0930 C   0  0  0  0  0  1  0  0  0  0  0  0
  158.9810  214.3310  148.3940 C   0  0  2  0  0  3  0  0  0  0  0  0
  158.5290  214.4500  149.6940 F   0  0  0  0  0  0  0  0  0  0  0  0
  157.8970  214.0940  147.5460 O   0  0  0  0  0  0  0  0  0  0  0  0
  157.2390  212.9880  148.0950 C   0  0  0  0  0  2  0  0  0  0  0  0
  156.5280  213.3870  149.3000 N   0  0  0  0  0  2  0  0  0  0  0  0
  155.5750  214.4180  148.9200 C   0  0  0  0  0  2  0  0  0  0  0  0
  154.9960  214.4310  151.1830 C   0  0  0  0  0  1  0  0  0  0  0  0
  154.4520  214.4250  149.8390 N   0  0  0  0  0  2  0  0  0  0  0  0
  159.6100  213.3110  151.6050 C   0  0  0  0  0  2  0  0  0  0  0  0
  159.0210  212.5960  152.8180 C   0  0  0  0  0  2  0  0  0  0  0  0
  159.7530  212.9800  154.0920 C   0  0  0  0  0  2  0  0  0  0  0  0
  158.7500  213.5420  155.0900 C   0  0  2  0  0  3  0  0  0  0  0  0
  158.2800  212.0410  156.8720 O   0  0  0  0  0  0  0  0  0  0  0  0
  160.0090  213.5020  157.2540 O   0  0  0  0  0  1  0  0  0  0  0  0
  159.0120  212.9700  156.4420 C   0  0  0  0  0  0  0  0  0  0  0  0
  156.6050  214.4530  154.8790 C   0  0  0  0  0  1  0  0  0  0  0  0
  157.3910  213.2450  154.6770 N   0  0  0  0  0  2  0  0  0  0  0  0
  2  8  1  0  0  0  0
  2 12  1  1  0  0  0
  3  2  1  0  0  0  0
  3 29  1  1  0  0  0
  4  5  1  0  0  0  0
  4 13  1  0  0  0  0
  5  3  1  0  0  0  0
  6 37  1  1  0  0  0
  6  2  1  0  0  0  0
  8 12  1  0  0  0  0
  9 11  1  0  0  0  0
  9  7  1  1  0  0  0
  9 14  1  0  0  0  0
 10  5  2  0  0  0  0
 11  1  1  6  0  0  0
 11 10  1  0  0  0  0
 13  6  1  0  0  0  0
 14  4  2  0  0  0  0
 15 25  1  0  0  0  0
 16 23  2  0  0  0  0
 16 22  1  0  0  0  0
 17 11  1  0  0  0  0
 17 18  2  0  0  0  0
 19 26  2  0  0  0  0
 20 18  1  0  0  0  0
 20 19  1  0  0  0  0
 21 19  1  0  0  0  0
 22 20  2  0  0  0  0
 23 17  1  0  0  0  0
 25 24  1  0  0  0  0
 27 24  1  6  0  0  0
 27 21  1  0  0  0  0
 28 15  1  1  0  0  0
 28 22  1  0  0  0  0
 28 27  1  0  0  0  0
 29 30  1  0  0  0  0
 31 36  2  0  0  0  0
 32 34  1  0  0  0  0
 33 31  1  0  0  0  0
 34 31  1  0  0  0  0
 35 30  1  6  0  0  0
 35 32  1  0  0  0  0
 35 33  1  0  0  0  0
 38 37  1  1  0  0  0
 38 56  1  0  0  0  0
 39 38  1  0  0  0  0
 40 48  1  0  0  0  0
 40 39  1  1  0  0  0
 41 45  1  0  0  0  0
 42 44  1  0  0  0  0
 42 46  2  0  0  0  0
 43 45  2  0  0  0  0
 44 41  2  0  0  0  0
 45 40  1  0  0  0  0
 46 43  1  0  0  0  0
 47 42  1  0  0  0  0
 48 49  1  1  0  0  0
 50 51  1  0  0  0  0
 50 48  1  0  0  0  0
 51 52  1  0  0  0  0
 53 52  1  0  0  0  0
 53 55  1  0  0  0  0
 55 54  1  0  0  0  0
 56 57  1  0  0  0  0
 57 58  1  0  0  0  0
 59 58  1  6  0  0  0
 59 62  1  0  0  0  0
 62 60  2  0  0  0  0
 62 61  1  0  0  0  0
 64 63  1  0  0  0  0
 64 59  1  0  0  0  0
M  END
>  <MODEL>
5

>  <REMARK>
 VINA RESULT:       1.3      1.997      5.550
  Name = 
  21 active torsions:
  status: ('A' for Active; 'I' for Inactive)
    1  A    between atoms: N_4  and  C_13
    2  A    between atoms: N_4  and  C_62
    3  A    between atoms: C_7  and  C_44
    4  A    between atoms: O_9  and  C_10
    5  A    between atoms: O_9  and  C_63
    6  A    between atoms: C_12  and  C_13
    7  A    between atoms: C_12  and  O_20
    8  A    between atoms: C_13  and  C_46
    9  A    between atoms: CA_19  and  C_37
   10  A    between atoms: CA_19  and  N_52
   11  A    between atoms: CA_19  and  C_58
   12  A    between atoms: O_20  and  C_57
   13  A    between atoms: C_21  and  C_51
   14  A    between atoms: C_35  and  C_49
   15  A    between atoms: C_35  and  C_58
   16  A    between atoms: C_43  and  N_48
   17  A    between atoms: C_43  and  N_59
   18  A    between atoms: C_49  and  C_62
   19  A    between atoms: C_51  and  C_62
   20  A    between atoms: C_55  and  C_63
   21  A    between atoms: C_57  and  N_59
                            x       y       z     vdW  Elec       q    Type
                         _______ _______ _______ _____ _____    ______ ____

>  <TORSDO>
F 21

$$$$
