=
 OpenBabel11072410123D

 43 49  0  0  1  0  0  0  0  0999 V2000
  162.9730  208.8610  148.1340 N   0  0  0  0  0  0  0  0  0  0  0  0
  162.3740  207.4970  149.8260 C   0  0  0  0  0  0  0  0  0  0  0  0
  160.5860  210.4200  156.6250 O   0  0  0  0  0  0  0  0  0  0  0  0
  160.6960  211.5900  152.8700 C   0  0  0  0  0  2  0  0  0  0  0  0
  161.3700  205.6330  152.7820 C   0  0  2  0  0  0  0  0  0  0  0  0
  159.9690  208.3260  155.8130 N   0  0  0  0  0  2  0  0  0  0  0  0
  159.1390  214.0420  155.4170 C   0  0  1  0  0  3  0  0  0  0  0  0
  161.2300  204.1510  152.5210 C   0  0  0  0  0  2  0  0  0  0  0  0
  157.8130  211.2790  156.4120 C   0  0  0  0  0  2  0  0  0  0  0  0
  162.2750  206.2000  150.5800 C   0  0  1  0  0  3  0  0  0  0  0  0
  163.0630  207.6440  148.5580 C   0  0  0  0  0  3  0  0  0  0  0  0
  158.3520  213.7030  156.6990 C   0  0  2  0  0  3  0  0  0  0  0  0
  159.6590  209.6070  156.3610 C   0  0  0  0  0  0  0  0  0  0  0  0
  162.2210  209.6670  149.0870 C   0  0  1  0  0  3  0  0  0  0  0  0
  160.3570  205.1530  151.7650 C   0  0  2  0  0  3  0  0  0  0  0  0
  159.0360  212.5170  150.8870 S   0  0  0  0  0  0  0  0  0  0  0  0
  161.8290  208.6710  150.1290 C   0  0  0  0  0  0  0  0  0  0  0  0
  162.4970  206.3760  152.0720 C   0  0  0  0  0  2  0  0  0  0  0  0
  159.6660  214.4530  156.7790 C   0  0  0  0  0  2  0  0  0  0  0  0
  160.0520  212.8750  153.3420 C   0  0  2  0  0  3  0  0  0  0  0  0
  161.6550  206.8500  154.9330 C   0  0  0  0  0  3  0  0  0  0  0  0
  161.0710  208.9680  151.3850 C   0  0  0  0  0  2  0  0  0  0  0  0
  160.6750  206.2290  153.9950 C   0  0  0  0  0  2  0  0  0  0  0  0
  161.3080  207.8360  155.7560 C   0  0  0  0  0  3  0  0  0  0  0  0
  160.9110  205.5500  150.3970 C   0  0  2  0  0  3  0  0  0  0  0  0
  160.3710  211.3810  151.3940 C   0  0  2  0  0  3  0  0  0  0  0  0
  163.0990  210.6690  149.6650 N   0  0  0  0  0  1  0  0  0  0  0  0
  158.3200  209.9540  156.5760 O   0  0  0  0  0  0  0  0  0  0  0  0
  158.5560  212.2980  157.2600 C   0  0  0  0  0  2  0  0  0  0  0  0
  159.9680  212.8820  154.8700 C   0  0  0  0  0  2  0  0  0  0  0  0
  159.9290  209.9460  151.1590 C   0  0  0  0  0  2  0  0  0  0  0  0
  158.7260  213.0290  152.5980 C   0  0  2  0  0  3  0  0  0  0  0  0
  161.2950  204.6410  148.1010 C   0  0  0  0  0  3  0  0  0  0  0  0
  160.9310  204.4020  149.4290 C   0  0  0  0  0  0  0  0  0  0  0  0
  160.5100  202.0730  148.8830 C   0  0  0  0  0  3  0  0  0  0  0  0
  161.2760  203.6010  147.1660 C   0  0  0  0  0  3  0  0  0  0  0  0
  160.5270  203.1130  149.8150 C   0  0  0  0  0  3  0  0  0  0  0  0
  160.8890  202.3140  147.5580 C   0  0  0  0  0  0  0  0  0  0  0  0
  160.2710  201.6940  145.3160 N   0  0  0  0  0  1  0  0  0  0  0  0
  160.8510  201.2120  146.5570 C   0  0  0  0  0  2  0  0  0  0  0  0
  157.5980  212.2220  153.1800 C   0  0  0  0  0  0  0  0  0  0  0  0
  157.6470  210.9620  153.2080 O   0  0  0  0  0  0  0  0  0  0  0  0
  156.4910  212.8730  153.7040 O   0  0  0  0  0  1  0  0  0  0  0  0
  1 11  2  0  0  0  0
  1 14  1  0  0  0  0
  2 17  2  0  0  0  0
  2 10  1  0  0  0  0
  5 18  1  6  0  0  0
  5 23  1  0  0  0  0
  6 13  1  0  0  0  0
  7 30  1  1  0  0  0
  7 12  1  0  0  0  0
  7 19  1  0  0  0  0
  8  5  1  0  0  0  0
  9 28  1  0  0  0  0
  9 29  1  0  0  0  0
 10 18  1  1  0  0  0
 11  2  1  0  0  0  0
 12 19  1  1  0  0  0
 12 29  1  0  0  0  0
 13 28  1  0  0  0  0
 13  3  2  0  0  0  0
 14 27  1  1  0  0  0
 14 17  1  0  0  0  0
 15  8  1  6  0  0  0
 15  5  1  0  0  0  0
 16 26  1  0  0  0  0
 16 32  1  0  0  0  0
 17 22  1  0  0  0  0
 20  4  1  6  0  0  0
 20 30  1  0  0  0  0
 21 24  2  0  0  0  0
 23 21  1  0  0  0  0
 24  6  1  0  0  0  0
 25 34  1  6  0  0  0
 25 10  1  0  0  0  0
 25 15  1  0  0  0  0
 26 31  1  1  0  0  0
 26  4  1  0  0  0  0
 31 22  1  0  0  0  0
 32 41  1  1  0  0  0
 32 20  1  0  0  0  0
 33 34  1  0  0  0  0
 34 37  2  0  0  0  0
 35 37  1  0  0  0  0
 36 38  1  0  0  0  0
 36 33  2  0  0  0  0
 38 35  2  0  0  0  0
 39 40  1  0  0  0  0
 40 38  1  0  0  0  0
 41 42  2  0  0  0  0
 41 43  1  0  0  0  0
M  END
>  <MODEL>
1

>  <REMARK>
 VINA RESULT:      -3.4      0.000      0.000
  Name = 
  3 active torsions:
  status: ('A' for Active; 'I' for Inactive)
    1  A    between atoms: C_7  and  C_42
    2  A    between atoms: C_19  and  C_33
    3  A    between atoms: C_34  and  C_39
                            x       y       z     vdW  Elec       q    Type
                         _______ _______ _______ _____ _____    ______ ____

>  <TORSDO>
F 3

$$$$
