=
 OpenBabel11072410463D

 38 44  0  0  1  0  0  0  0  0999 V2000
  160.8590  207.3160  149.5410 C   0  0  0  0  0  2  0  0  0  0  0  0
  161.7740  210.8960  150.8610 C   0  0  0  0  0  2  0  0  0  0  0  0
  160.3920  207.5010  150.9950 C   0  0  1  0  0  3  0  0  0  0  0  0
  161.7250  211.0970  149.3590 C   0  0  0  0  0  2  0  0  0  0  0  0
  160.9560  206.5490  152.0730 C   0  0  2  0  0  3  0  0  0  0  0  0
  161.6050  207.7550  152.7700 C   0  0  1  0  0  3  0  0  0  0  0  0
  162.2810  207.6000  149.4090 N   0  0  0  0  0  0  0  0  0  0  0  0
  162.5200  209.0320  149.6170 C   0  0  1  0  0  3  0  0  0  0  0  0
  161.7860  209.8400  148.7220 O   0  0  0  0  0  0  0  0  0  0  0  0
  162.1830  209.4600  151.0390 C   0  0  2  0  0  3  0  0  0  0  0  0
  161.0260  208.7000  151.7250 C   0  0  1  0  0  3  0  0  0  0  0  0
  161.0560  208.0910  154.1400 C   0  0  0  0  0  0  0  0  0  0  0  0
  159.8940  207.2700  156.1000 C   0  0  0  0  0  3  0  0  0  0  0  0
  160.8290  209.4550  156.1330 C   0  0  0  0  0  3  0  0  0  0  0  0
  160.3520  207.0750  154.7940 C   0  0  0  0  0  3  0  0  0  0  0  0
  160.1350  208.4460  156.7370 N   0  0  0  0  0  0  0  0  0  0  0  0
  161.3120  209.3020  154.8290 C   0  0  0  0  0  0  0  0  0  0  0  0
  162.0390  210.3420  154.2560 O   0  0  0  0  0  1  0  0  0  0  0  0
  163.2970  205.8120  151.4470 O   0  0  0  0  0  1  0  0  0  0  0  0
  161.9530  205.4620  151.5990 C   0  0  1  0  0  0  0  0  0  0  0  0
  161.7810  204.1860  152.1780 O   0  0  0  0  0  0  0  0  0  0  0  0
  161.5250  204.2950  150.7910 C   0  0  2  0  0  0  0  0  0  0  0  0
  162.4810  203.6250  150.0550 F   0  0  0  0  0  0  0  0  0  0  0  0
  160.0600  204.0850  150.4510 C   0  0  0  0  0  2  0  0  0  0  0  0
  159.8090  202.6940  150.3060 O   0  0  0  0  0  0  0  0  0  0  0  0
  161.3690  200.3990  147.1410 C   0  0  0  0  0  3  0  0  0  0  0  0
  161.7250  200.1190  148.4640 C   0  0  0  0  0  3  0  0  0  0  0  0
  160.4850  201.4460  146.8640 C   0  0  0  0  0  3  0  0  0  0  0  0
  161.2040  200.8890  149.5120 C   0  0  0  0  0  3  0  0  0  0  0  0
  160.3170  201.9380  149.2430 C   0  0  0  0  0  0  0  0  0  0  0  0
  159.9590  202.2100  147.9100 C   0  0  0  0  0  3  0  0  0  0  0  0
  162.6860  207.2430  148.0580 C   0  0  0  0  0  2  0  0  0  0  0  0
  161.9620  206.0560  147.6320 N   0  0  0  0  0  0  0  0  0  0  0  0
  160.7690  206.5190  146.8970 C   0  0  0  0  0  2  0  0  0  0  0  0
  160.9830  204.6470  145.2430 C   0  0  0  0  0  2  0  0  0  0  0  0
  162.1540  204.1310  146.0980 C   0  0  0  0  0  2  0  0  0  0  0  0
  160.7610  206.1500  145.4070 C   0  0  0  0  0  2  0  0  0  0  0  0
  162.8890  205.2690  146.8090 C   0  0  0  0  0  2  0  0  0  0  0  0
  3  1  1  6  0  0  0
  3 11  1  0  0  0  0
  3  5  1  0  0  0  0
  4  2  1  0  0  0  0
  5 20  1  6  0  0  0
  5  6  1  0  0  0  0
  6 12  1  1  0  0  0
  7  1  1  0  0  0  0
  7  8  1  0  0  0  0
  8  9  1  6  0  0  0
  8 10  1  0  0  0  0
  9  4  1  0  0  0  0
 10  2  1  6  0  0  0
 10 11  1  0  0  0  0
 11  6  1  0  0  0  0
 12 15  2  0  0  0  0
 12 17  1  0  0  0  0
 13 16  2  0  0  0  0
 14 16  1  0  0  0  0
 15 13  1  0  0  0  0
 17 14  2  0  0  0  0
 18 17  1  0  0  0  0
 19 20  1  0  0  0  0
 20 21  1  0  0  0  0
 22 20  1  0  0  0  0
 22 21  1  0  0  0  0
 23 22  1  0  0  0  0
 24 22  1  0  0  0  0
 25 24  1  0  0  0  0
 26 27  1  0  0  0  0
 27 29  2  0  0  0  0
 28 26  2  0  0  0  0
 28 31  1  0  0  0  0
 30 29  1  0  0  0  0
 30 25  1  0  0  0  0
 31 30  2  0  0  0  0
 32  7  1  0  0  0  0
 33 32  1  0  0  0  0
 34 33  1  0  0  0  0
 35 37  1  0  0  0  0
 35 36  1  0  0  0  0
 36 38  1  0  0  0  0
 37 34  1  0  0  0  0
 38 33  1  0  0  0  0
M  END
>  <MODEL>
1

>  <REMARK>
 VINA RESULT:      -7.0      0.000      0.000
  Name = 
  7 active torsions:
  status: ('A' for Active; 'I' for Inactive)
    1  A    between atoms: C_3  and  C_25
    2  A    between atoms: N_8  and  C_37
    3  A    between atoms: C_16  and  O_17
    4  A    between atoms: C_16  and  C_21
    5  A    between atoms: O_17  and  C_31
    6  A    between atoms: C_19  and  C_23
    7  A    between atoms: N_29  and  C_37
                            x       y       z     vdW  Elec       q    Type
                         _______ _______ _______ _____ _____    ______ ____

>  <TORSDO>
F 7

$$$$
=
 OpenBabel11072410463D

 38 44  0  0  1  0  0  0  0  0999 V2000
  160.4810  206.7840  151.3890 C   0  0  0  0  0  2  0  0  0  0  0  0
  160.8910  202.9410  150.7140 C   0  0  0  0  0  2  0  0  0  0  0  0
  160.2360  206.4590  149.9070 C   0  0  1  0  0  3  0  0  0  0  0  0
  160.5530  202.9850  152.1920 C   0  0  0  0  0  2  0  0  0  0  0  0
  161.1460  207.1230  148.8490 C   0  0  2  0  0  3  0  0  0  0  0  0
  161.6540  205.7320  148.4420 C   0  0  1  0  0  3  0  0  0  0  0  0
  161.7790  206.2880  151.8260 N   0  0  0  0  0  0  0  0  0  0  0  0
  161.7660  204.8210  151.8430 C   0  0  1  0  0  3  0  0  0  0  0  0
  160.7500  204.2980  152.6710 O   0  0  0  0  0  0  0  0  0  0  0  0
  161.5940  204.2420  150.4460 C   0  0  2  0  0  3  0  0  0  0  0  0
  160.7380  205.0710  149.4630 C   0  0  1  0  0  3  0  0  0  0  0  0
  161.2860  205.2860  147.0430 C   0  0  0  0  0  0  0  0  0  0  0  0
  160.5580  205.9720  144.8370 C   0  0  0  0  0  3  0  0  0  0  0  0
  161.1990  203.7120  145.1990 C   0  0  0  0  0  3  0  0  0  0  0  0
  160.8290  206.2810  146.1730 C   0  0  0  0  0  3  0  0  0  0  0  0
  160.7430  204.7050  144.3810 N   0  0  0  0  0  0  0  0  0  0  0  0
  161.4890  203.9770  146.5420 C   0  0  0  0  0  0  0  0  0  0  0  0
  161.9790  202.9450  147.3390 O   0  0  0  0  0  1  0  0  0  0  0  0
  162.9540  207.7260  150.5170 O   0  0  0  0  0  1  0  0  0  0  0  0
  162.2420  208.0860  149.3700 C   0  0  1  0  0  0  0  0  0  0  0  0
  163.0580  208.6700  148.3780 O   0  0  0  0  0  0  0  0  0  0  0  0
  162.2090  209.5430  149.0980 C   0  0  2  0  0  0  0  0  0  0  0  0
  162.9350  210.3780  149.9220 F   0  0  0  0  0  0  0  0  0  0  0  0
  161.1190  210.1430  148.2270 C   0  0  0  0  0  2  0  0  0  0  0  0
  161.2690  211.5550  148.1970 O   0  0  0  0  0  0  0  0  0  0  0  0
  161.1150  213.8210  144.6540 C   0  0  0  0  0  3  0  0  0  0  0  0
  162.2670  213.8200  145.4460 C   0  0  0  0  0  3  0  0  0  0  0  0
  160.0050  213.0620  145.0360 C   0  0  0  0  0  3  0  0  0  0  0  0
  162.3100  213.0660  146.6260 C   0  0  0  0  0  3  0  0  0  0  0  0
  161.2030  212.3020  147.0150 C   0  0  0  0  0  0  0  0  0  0  0  0
  160.0490  212.3030  146.2090 C   0  0  0  0  0  3  0  0  0  0  0  0
  162.0150  206.7760  153.1760 C   0  0  0  0  0  2  0  0  0  0  0  0
  160.8720  207.5620  153.6150 N   0  0  0  0  0  0  0  0  0  0  0  0
  160.4420  207.0080  154.9140 C   0  0  0  0  0  2  0  0  0  0  0  0
  159.9290  209.3000  155.7920 C   0  0  0  0  0  2  0  0  0  0  0  0
  160.2780  209.8290  154.3890 C   0  0  0  0  0  2  0  0  0  0  0  0
  160.6140  207.9700  156.0980 C   0  0  0  0  0  2  0  0  0  0  0  0
  161.3240  208.9560  153.6920 C   0  0  0  0  0  2  0  0  0  0  0  0
  1  7  1  0  0  0  0
  2  4  1  0  0  0  0
  3  1  1  1  0  0  0
  4  9  1  0  0  0  0
  5 20  1  1  0  0  0
  5  3  1  0  0  0  0
  6 12  1  6  0  0  0
  6  5  1  0  0  0  0
  6 11  1  0  0  0  0
  7  8  1  0  0  0  0
  7 32  1  0  0  0  0
  8  9  1  1  0  0  0
 10  2  1  1  0  0  0
 10  8  1  0  0  0  0
 11  3  1  0  0  0  0
 11 10  1  0  0  0  0
 13 15  1  0  0  0  0
 14 17  2  0  0  0  0
 15 12  2  0  0  0  0
 16 13  2  0  0  0  0
 16 14  1  0  0  0  0
 17 12  1  0  0  0  0
 17 18  1  0  0  0  0
 20 19  1  0  0  0  0
 21 22  1  0  0  0  0
 21 20  1  0  0  0  0
 22 20  1  0  0  0  0
 22 23  1  0  0  0  0
 24 22  1  0  0  0  0
 25 24  1  0  0  0  0
 26 28  2  0  0  0  0
 26 27  1  0  0  0  0
 27 29  2  0  0  0  0
 28 31  1  0  0  0  0
 29 30  1  0  0  0  0
 30 25  1  0  0  0  0
 31 30  2  0  0  0  0
 32 33  1  0  0  0  0
 33 38  1  0  0  0  0
 33 34  1  0  0  0  0
 34 37  1  0  0  0  0
 35 37  1  0  0  0  0
 36 35  1  0  0  0  0
 38 36  1  0  0  0  0
M  END
>  <MODEL>
2

>  <REMARK>
 VINA RESULT:      -6.9      2.546      8.571
  Name = 
  7 active torsions:
  status: ('A' for Active; 'I' for Inactive)
    1  A    between atoms: C_3  and  C_25
    2  A    between atoms: N_8  and  C_37
    3  A    between atoms: C_16  and  O_17
    4  A    between atoms: C_16  and  C_21
    5  A    between atoms: O_17  and  C_31
    6  A    between atoms: C_19  and  C_23
    7  A    between atoms: N_29  and  C_37
                            x       y       z     vdW  Elec       q    Type
                         _______ _______ _______ _____ _____    ______ ____

>  <TORSDO>
F 7

$$$$
=
 OpenBabel11072410463D

 38 44  0  0  1  0  0  0  0  0999 V2000
  160.4560  206.4650  151.7960 C   0  0  0  0  0  2  0  0  0  0  0  0
  160.8300  202.7300  150.6550 C   0  0  0  0  0  2  0  0  0  0  0  0
  160.2180  206.3280  150.2830 C   0  0  1  0  0  3  0  0  0  0  0  0
  160.4830  202.5960  152.1250 C   0  0  0  0  0  2  0  0  0  0  0  0
  161.1420  207.1070  149.3210 C   0  0  2  0  0  3  0  0  0  0  0  0
  161.6390  205.7700  148.7480 C   0  0  1  0  0  3  0  0  0  0  0  0
  161.7450  205.9050  152.1750 N   0  0  0  0  0  0  0  0  0  0  0  0
  161.7170  204.4470  152.0120 C   0  0  1  0  0  3  0  0  0  0  0  0
  160.6900  203.8370  152.7630 O   0  0  0  0  0  0  0  0  0  0  0  0
  161.5490  204.0460  150.5530 C   0  0  2  0  0  3  0  0  0  0  0  0
  160.7080  205.0000  149.6750 C   0  0  1  0  0  3  0  0  0  0  0  0
  161.2770  205.5050  147.3030 C   0  0  0  0  0  0  0  0  0  0  0  0
  160.4560  206.4450  145.2270 C   0  0  0  0  0  3  0  0  0  0  0  0
  161.2670  204.2100  145.2510 C   0  0  0  0  0  3  0  0  0  0  0  0
  160.7310  206.5770  146.5910 C   0  0  0  0  0  3  0  0  0  0  0  0
  160.7240  205.2740  144.5900 N   0  0  0  0  0  0  0  0  0  0  0  0
  161.5640  204.3000  146.6160 C   0  0  0  0  0  0  0  0  0  0  0  0
  162.1440  203.2040  147.2490 O   0  0  0  0  0  1  0  0  0  0  0  0
  163.4770  207.3980  150.2600 O   0  0  0  0  0  1  0  0  0  0  0  0
  162.2450  207.9860  149.9630 C   0  0  1  0  0  0  0  0  0  0  0  0
  162.3720  209.2860  149.4290 O   0  0  0  0  0  0  0  0  0  0  0  0
  161.9270  209.1890  150.7690 C   0  0  2  0  0  0  0  0  0  0  0  0
  162.8830  209.6590  151.6460 F   0  0  0  0  0  0  0  0  0  0  0  0
  160.4900  209.6490  150.9390 C   0  0  0  0  0  2  0  0  0  0  0  0
  160.3460  210.2730  152.2070 O   0  0  0  0  0  0  0  0  0  0  0  0
  158.1390  213.8150  152.7520 C   0  0  0  0  0  3  0  0  0  0  0  0
  159.1750  213.7620  151.8140 C   0  0  0  0  0  3  0  0  0  0  0  0
  157.8280  212.6850  153.5130 C   0  0  0  0  0  3  0  0  0  0  0  0
  159.9070  212.5800  151.6400 C   0  0  0  0  0  3  0  0  0  0  0  0
  159.6010  211.4430  152.3980 C   0  0  0  0  0  0  0  0  0  0  0  0
  158.5530  211.5030  153.3350 C   0  0  0  0  0  3  0  0  0  0  0  0
  161.9770  206.2200  153.5770 C   0  0  0  0  0  2  0  0  0  0  0  0
  161.0170  207.2210  154.0140 N   0  0  0  0  0  0  0  0  0  0  0  0
  160.1540  206.5780  155.0250 C   0  0  0  0  0  2  0  0  0  0  0  0
  160.0810  208.6810  156.3900 C   0  0  0  0  0  2  0  0  0  0  0  0
  160.8860  209.3480  155.2610 C   0  0  0  0  0  2  0  0  0  0  0  0
  160.2880  207.1680  156.4370 C   0  0  0  0  0  2  0  0  0  0  0  0
  161.7950  208.3500  154.5390 C   0  0  0  0  0  2  0  0  0  0  0  0
  1  7  1  0  0  0  0
  2  4  1  0  0  0  0
  3  1  1  1  0  0  0
  4  9  1  0  0  0  0
  5 20  1  1  0  0  0
  5  3  1  0  0  0  0
  6 12  1  6  0  0  0
  6  5  1  0  0  0  0
  6 11  1  0  0  0  0
  7 32  1  0  0  0  0
  8  7  1  0  0  0  0
  8  9  1  1  0  0  0
 10  2  1  1  0  0  0
 10  8  1  0  0  0  0
 11  3  1  0  0  0  0
 11 10  1  0  0  0  0
 13 15  1  0  0  0  0
 14 17  2  0  0  0  0
 15 12  2  0  0  0  0
 16 13  2  0  0  0  0
 16 14  1  0  0  0  0
 17 18  1  0  0  0  0
 17 12  1  0  0  0  0
 20 19  1  0  0  0  0
 20 22  1  0  0  0  0
 21 20  1  0  0  0  0
 21 22  1  0  0  0  0
 22 24  1  0  0  0  0
 22 23  1  0  0  0  0
 24 25  1  0  0  0  0
 25 30  1  0  0  0  0
 26 28  1  0  0  0  0
 27 26  2  0  0  0  0
 29 27  1  0  0  0  0
 29 30  2  0  0  0  0
 30 31  1  0  0  0  0
 31 28  2  0  0  0  0
 32 33  1  0  0  0  0
 33 38  1  0  0  0  0
 33 34  1  0  0  0  0
 34 37  1  0  0  0  0
 35 37  1  0  0  0  0
 36 35  1  0  0  0  0
 38 36  1  0  0  0  0
M  END
>  <MODEL>
3

>  <REMARK>
 VINA RESULT:      -6.4      2.431      8.612
  Name = 
  7 active torsions:
  status: ('A' for Active; 'I' for Inactive)
    1  A    between atoms: C_3  and  C_25
    2  A    between atoms: N_8  and  C_37
    3  A    between atoms: C_16  and  O_17
    4  A    between atoms: C_16  and  C_21
    5  A    between atoms: O_17  and  C_31
    6  A    between atoms: C_19  and  C_23
    7  A    between atoms: N_29  and  C_37
                            x       y       z     vdW  Elec       q    Type
                         _______ _______ _______ _____ _____    ______ ____

>  <TORSDO>
F 7

$$$$
=
 OpenBabel11072410463D

 38 44  0  0  1  0  0  0  0  0999 V2000
  162.8830  207.1220  151.3130 C   0  0  0  0  0  2  0  0  0  0  0  0
  161.9180  209.8260  148.6390 C   0  0  0  0  0  2  0  0  0  0  0  0
  162.7750  206.4950  149.9140 C   0  0  1  0  0  3  0  0  0  0  0  0
  162.5600  210.6560  149.7340 C   0  0  0  0  0  2  0  0  0  0  0  0
  161.7430  205.3660  149.6930 C   0  0  2  0  0  3  0  0  0  0  0  0
  161.0100  206.2620  148.6830 C   0  0  1  0  0  3  0  0  0  0  0  0
  161.6590  207.8270  151.6660 N   0  0  0  0  0  0  0  0  0  0  0  0
  161.5120  209.0160  150.8200 C   0  0  1  0  0  3  0  0  0  0  0  0
  162.6140  209.8920  150.9200 O   0  0  0  0  0  0  0  0  0  0  0  0
  161.3230  208.6460  149.3550 C   0  0  2  0  0  3  0  0  0  0  0  0
  162.0410  207.3650  148.8760 C   0  0  1  0  0  3  0  0  0  0  0  0
  161.0250  205.7760  147.2490 C   0  0  0  0  0  0  0  0  0  0  0  0
  160.1930  206.1140  144.9990 C   0  0  0  0  0  3  0  0  0  0  0  0
  161.9020  204.5050  145.3780 C   0  0  0  0  0  3  0  0  0  0  0  0
  160.1720  206.4360  146.3590 C   0  0  0  0  0  3  0  0  0  0  0  0
  161.0460  205.1610  144.5390 N   0  0  0  0  0  0  0  0  0  0  0  0
  161.9190  204.8000  146.7450 C   0  0  0  0  0  0  0  0  0  0  0  0
  162.8250  204.1300  147.5640 O   0  0  0  0  0  1  0  0  0  0  0  0
  160.4940  205.9250  151.8240 O   0  0  0  0  0  1  0  0  0  0  0  0
  160.8940  204.9410  150.9170 C   0  0  1  0  0  0  0  0  0  0  0  0
  159.8820  203.9940  150.6540 O   0  0  0  0  0  0  0  0  0  0  0  0
  160.9490  203.5700  151.4800 C   0  0  2  0  0  0  0  0  0  0  0  0
  160.5280  203.3810  152.7800 F   0  0  0  0  0  0  0  0  0  0  0  0
  161.8020  202.4990  150.8250 C   0  0  0  0  0  2  0  0  0  0  0  0
  160.9550  201.5120  150.2520 O   0  0  0  0  0  0  0  0  0  0  0  0
  160.8660  200.7020  146.1230 C   0  0  0  0  0  3  0  0  0  0  0  0
  161.6550  199.9290  146.9810 C   0  0  0  0  0  3  0  0  0  0  0  0
  160.0960  201.7490  146.6370 C   0  0  0  0  0  3  0  0  0  0  0  0
  161.6820  200.2070  148.3540 C   0  0  0  0  0  3  0  0  0  0  0  0
  160.9120  201.2530  148.8770 C   0  0  0  0  0  0  0  0  0  0  0  0
  160.1160  202.0220  148.0080 C   0  0  0  0  0  3  0  0  0  0  0  0
  161.7660  208.2450  153.0560 C   0  0  0  0  0  2  0  0  0  0  0  0
  160.4780  208.7400  153.5150 N   0  0  0  0  0  0  0  0  0  0  0  0
  160.1400  207.9890  154.7400 C   0  0  0  0  0  2  0  0  0  0  0  0
  159.1510  210.0370  155.7960 C   0  0  0  0  0  2  0  0  0  0  0  0
  159.4160  210.7570  154.4620 C   0  0  0  0  0  2  0  0  0  0  0  0
  160.0860  208.8480  156.0120 C   0  0  0  0  0  2  0  0  0  0  0  0
  160.6340  210.1830  153.7350 C   0  0  0  0  0  2  0  0  0  0  0  0
  1  7  1  0  0  0  0
  2  4  1  0  0  0  0
  3  1  1  1  0  0  0
  4  9  1  0  0  0  0
  5  3  1  0  0  0  0
  5 20  1  1  0  0  0
  6 12  1  6  0  0  0
  6 11  1  0  0  0  0
  6  5  1  0  0  0  0
  7 32  1  0  0  0  0
  8  9  1  6  0  0  0
  8  7  1  0  0  0  0
 10  2  1  6  0  0  0
 10  8  1  0  0  0  0
 11 10  1  0  0  0  0
 11  3  1  0  0  0  0
 13 15  1  0  0  0  0
 14 17  2  0  0  0  0
 15 12  2  0  0  0  0
 16 13  2  0  0  0  0
 16 14  1  0  0  0  0
 17 12  1  0  0  0  0
 17 18  1  0  0  0  0
 20 22  1  0  0  0  0
 20 19  1  0  0  0  0
 21 20  1  0  0  0  0
 21 22  1  0  0  0  0
 22 23  1  0  0  0  0
 24 22  1  0  0  0  0
 25 24  1  0  0  0  0
 26 28  2  0  0  0  0
 26 27  1  0  0  0  0
 27 29  2  0  0  0  0
 28 31  1  0  0  0  0
 29 30  1  0  0  0  0
 30 25  1  0  0  0  0
 31 30  2  0  0  0  0
 32 33  1  0  0  0  0
 33 38  1  0  0  0  0
 33 34  1  0  0  0  0
 34 37  1  0  0  0  0
 35 37  1  0  0  0  0
 36 35  1  0  0  0  0
 38 36  1  0  0  0  0
M  END
>  <MODEL>
4

>  <REMARK>
 VINA RESULT:      -5.5      1.742      6.156
  Name = 
  7 active torsions:
  status: ('A' for Active; 'I' for Inactive)
    1  A    between atoms: C_3  and  C_25
    2  A    between atoms: N_8  and  C_37
    3  A    between atoms: C_16  and  O_17
    4  A    between atoms: C_16  and  C_21
    5  A    between atoms: O_17  and  C_31
    6  A    between atoms: C_19  and  C_23
    7  A    between atoms: N_29  and  C_37
                            x       y       z     vdW  Elec       q    Type
                         _______ _______ _______ _____ _____    ______ ____

>  <TORSDO>
F 7

$$$$
=
 OpenBabel11072410463D

 38 44  0  0  1  0  0  0  0  0999 V2000
  162.4920  206.5510  151.3800 C   0  0  0  0  0  2  0  0  0  0  0  0
  161.3440  209.3670  153.8590 C   0  0  0  0  0  2  0  0  0  0  0  0
  162.7040  207.9440  150.7640 C   0  0  1  0  0  3  0  0  0  0  0  0
  161.6470  208.2080  154.7890 C   0  0  0  0  0  2  0  0  0  0  0  0
  161.9710  208.2830  149.4470 C   0  0  2  0  0  3  0  0  0  0  0  0
  161.2060  209.3940  150.1830 C   0  0  1  0  0  3  0  0  0  0  0  0
  161.1110  206.3730  151.8070 N   0  0  0  0  0  0  0  0  0  0  0  0
  160.8320  207.2480  152.9510 C   0  0  1  0  0  3  0  0  0  0  0  0
  161.7020  207.0150  154.0370 O   0  0  0  0  0  0  0  0  0  0  0  0
  160.9200  208.7200  152.5700 C   0  0  2  0  0  3  0  0  0  0  0  0
  161.9480  209.0820  151.4750 C   0  0  1  0  0  3  0  0  0  0  0  0
  161.5130  210.8060  149.7320 C   0  0  0  0  0  0  0  0  0  0  0  0
  162.5860  212.2010  148.0670 C   0  0  0  0  0  3  0  0  0  0  0  0
  161.2220  213.2150  149.7280 C   0  0  0  0  0  3  0  0  0  0  0  0
  162.3310  210.9360  148.6050 C   0  0  0  0  0  3  0  0  0  0  0  0
  162.0350  213.3060  148.6350 N   0  0  0  0  0  0  0  0  0  0  0  0
  160.9340  211.9690  150.2970 C   0  0  0  0  0  0  0  0  0  0  0  0
  160.0780  211.9140  151.3940 O   0  0  0  0  0  1  0  0  0  0  0  0
  159.9040  206.8220  149.5080 O   0  0  0  0  0  1  0  0  0  0  0  0
  161.0750  207.1760  148.8350 C   0  0  1  0  0  0  0  0  0  0  0  0
  160.9090  207.2350  147.4350 O   0  0  0  0  0  0  0  0  0  0  0  0
  161.6180  206.1220  147.9450 C   0  0  2  0  0  0  0  0  0  0  0  0
  160.8930  204.9580  147.7940 F   0  0  0  0  0  0  0  0  0  0  0  0
  163.0820  206.1300  147.5390 C   0  0  0  0  0  2  0  0  0  0  0  0
  163.2850  205.1770  146.5060 O   0  0  0  0  0  0  0  0  0  0  0  0
  160.1000  203.2830  144.5100 C   0  0  0  0  0  3  0  0  0  0  0  0
  160.4550  204.5970  144.1920 C   0  0  0  0  0  3  0  0  0  0  0  0
  160.8080  202.5880  145.4950 C   0  0  0  0  0  3  0  0  0  0  0  0
  161.5150  205.2220  144.8620 C   0  0  0  0  0  3  0  0  0  0  0  0
  162.2300  204.5320  145.8490 C   0  0  0  0  0  0  0  0  0  0  0  0
  161.8700  203.2080  146.1600 C   0  0  0  0  0  3  0  0  0  0  0  0
  160.9440  204.9880  152.2180 C   0  0  0  0  0  2  0  0  0  0  0  0
  161.3370  204.1070  151.1300 N   0  0  0  0  0  0  0  0  0  0  0  0
  162.1400  203.0200  151.7250 C   0  0  0  0  0  2  0  0  0  0  0  0
  161.1220  201.3340  150.1720 C   0  0  0  0  0  2  0  0  0  0  0  0
  160.3870  202.5100  149.5050 C   0  0  0  0  0  2  0  0  0  0  0  0
  161.4950  201.6300  151.6240 C   0  0  0  0  0  2  0  0  0  0  0  0
  160.0990  203.6410  150.4950 C   0  0  0  0  0  2  0  0  0  0  0  0
  1  7  1  0  0  0  0
  2  4  1  0  0  0  0
  3  1  1  1  0  0  0
  3 11  1  0  0  0  0
  5 20  1  1  0  0  0
  5  6  1  0  0  0  0
  5  3  1  0  0  0  0
  6 12  1  6  0  0  0
  6 11  1  0  0  0  0
  7 32  1  0  0  0  0
  7  8  1  0  0  0  0
  8  9  1  1  0  0  0
  9  4  1  0  0  0  0
 10  8  1  0  0  0  0
 10  2  1  1  0  0  0
 11 10  1  0  0  0  0
 12 17  1  0  0  0  0
 13 15  1  0  0  0  0
 13 16  2  0  0  0  0
 14 17  2  0  0  0  0
 15 12  2  0  0  0  0
 16 14  1  0  0  0  0
 17 18  1  0  0  0  0
 20 19  1  0  0  0  0
 21 22  1  0  0  0  0
 21 20  1  0  0  0  0
 22 20  1  0  0  0  0
 23 22  1  0  0  0  0
 24 22  1  0  0  0  0
 25 24  1  0  0  0  0
 26 28  1  0  0  0  0
 27 26  2  0  0  0  0
 27 29  1  0  0  0  0
 28 31  2  0  0  0  0
 29 30  2  0  0  0  0
 30 31  1  0  0  0  0
 30 25  1  0  0  0  0
 33 34  1  0  0  0  0
 33 32  1  0  0  0  0
 35 37  1  0  0  0  0
 36 35  1  0  0  0  0
 36 38  1  0  0  0  0
 37 34  1  0  0  0  0
 38 33  1  0  0  0  0
M  END
>  <MODEL>
5

>  <REMARK>
 VINA RESULT:      -5.2      2.215      5.134
  Name = 
  7 active torsions:
  status: ('A' for Active; 'I' for Inactive)
    1  A    between atoms: C_3  and  C_25
    2  A    between atoms: N_8  and  C_37
    3  A    between atoms: C_16  and  O_17
    4  A    between atoms: C_16  and  C_21
    5  A    between atoms: O_17  and  C_31
    6  A    between atoms: C_19  and  C_23
    7  A    between atoms: N_29  and  C_37
                            x       y       z     vdW  Elec       q    Type
                         _______ _______ _______ _____ _____    ______ ____

>  <TORSDO>
F 7

$$$$
=
 OpenBabel11072410463D

 38 44  0  0  1  0  0  0  0  0999 V2000
  162.7240  207.6910  150.2420 C   0  0  0  0  0  2  0  0  0  0  0  0
  160.7070  204.7090  151.8020 C   0  0  0  0  0  2  0  0  0  0  0  0
  162.6420  207.8260  151.7710 C   0  0  1  0  0  3  0  0  0  0  0  0
  161.2010  204.1270  150.4920 C   0  0  0  0  0  2  0  0  0  0  0  0
  161.9660  209.0840  152.3620 C   0  0  2  0  0  3  0  0  0  0  0  0
  160.8910  208.1850  152.9920 C   0  0  1  0  0  3  0  0  0  0  0  0
  161.3970  207.5640  149.6560 N   0  0  0  0  0  0  0  0  0  0  0  0
  160.8120  206.2730  150.0350 C   0  0  1  0  0  3  0  0  0  0  0  0
  161.6140  205.1790  149.6460 O   0  0  0  0  0  0  0  0  0  0  0  0
  160.5690  206.1830  151.5350 C   0  0  2  0  0  3  0  0  0  0  0  0
  161.5700  206.9410  152.4360 C   0  0  1  0  0  3  0  0  0  0  0  0
  160.8800  208.1440  154.5050 C   0  0  0  0  0  0  0  0  0  0  0  0
  160.1530  206.9470  156.4820 C   0  0  0  0  0  3  0  0  0  0  0  0
  161.6340  208.7910  156.7180 C   0  0  0  0  0  3  0  0  0  0  0  0
  160.1390  207.1140  155.0940 C   0  0  0  0  0  3  0  0  0  0  0  0
  160.8900  207.7820  157.2600 N   0  0  0  0  0  0  0  0  0  0  0  0
  161.6550  208.9910  155.3340 C   0  0  0  0  0  0  0  0  0  0  0  0
  162.4480  210.0120  154.8160 O   0  0  0  0  0  1  0  0  0  0  0  0
  162.0840  210.2770  150.1310 O   0  0  0  0  0  1  0  0  0  0  0  0
  161.4270  210.1300  151.3550 C   0  0  1  0  0  0  0  0  0  0  0  0
  160.0220  210.1870  151.2330 O   0  0  0  0  0  0  0  0  0  0  0  0
  160.6590  211.3220  151.7890 C   0  0  2  0  0  0  0  0  0  0  0  0
  160.5890  212.4010  150.9320 F   0  0  0  0  0  0  0  0  0  0  0  0
  160.3090  211.5270  153.2520 C   0  0  0  0  0  2  0  0  0  0  0  0
  158.9520  211.1630  153.4640 O   0  0  0  0  0  0  0  0  0  0  0  0
  156.8130  212.1730  156.9450 C   0  0  0  0  0  3  0  0  0  0  0  0
  156.2740  212.4330  155.6810 C   0  0  0  0  0  3  0  0  0  0  0  0
  158.0680  211.5690  157.0580 C   0  0  0  0  0  3  0  0  0  0  0  0
  156.9940  212.0960  154.5260 C   0  0  0  0  0  3  0  0  0  0  0  0
  158.2510  211.4900  154.6310 C   0  0  0  0  0  0  0  0  0  0  0  0
  158.7840  211.2260  155.9060 C   0  0  0  0  0  3  0  0  0  0  0  0
  161.5390  207.6130  148.2090 C   0  0  0  0  0  2  0  0  0  0  0  0
  161.3470  206.2810  147.6570 N   0  0  0  0  0  0  0  0  0  0  0  0
  160.1460  206.3380  146.8010 C   0  0  0  0  0  2  0  0  0  0  0  0
  161.1960  204.8010  145.1190 C   0  0  0  0  0  2  0  0  0  0  0  0
  162.3830  204.6780  146.0910 C   0  0  0  0  0  2  0  0  0  0  0  0
  160.4230  206.1050  145.3080 C   0  0  0  0  0  2  0  0  0  0  0  0
  162.5750  205.9470  146.9250 C   0  0  0  0  0  2  0  0  0  0  0  0
  3  1  1  6  0  0  0
  3  5  1  0  0  0  0
  3 11  1  0  0  0  0
  4  2  1  0  0  0  0
  5 20  1  6  0  0  0
  5  6  1  0  0  0  0
  6 12  1  1  0  0  0
  7  8  1  0  0  0  0
  7  1  1  0  0  0  0
  8  9  1  1  0  0  0
  8 10  1  0  0  0  0
  9  4  1  0  0  0  0
 10  2  1  1  0  0  0
 10 11  1  0  0  0  0
 11  6  1  0  0  0  0
 12 15  2  0  0  0  0
 12 17  1  0  0  0  0
 13 16  2  0  0  0  0
 14 16  1  0  0  0  0
 15 13  1  0  0  0  0
 17 14  2  0  0  0  0
 18 17  1  0  0  0  0
 19 20  1  0  0  0  0
 20 22  1  0  0  0  0
 21 20  1  0  0  0  0
 21 22  1  0  0  0  0
 22 24  1  0  0  0  0
 23 22  1  0  0  0  0
 24 25  1  0  0  0  0
 25 30  1  0  0  0  0
 26 28  1  0  0  0  0
 27 26  2  0  0  0  0
 29 30  2  0  0  0  0
 29 27  1  0  0  0  0
 30 31  1  0  0  0  0
 31 28  2  0  0  0  0
 32  7  1  0  0  0  0
 33 32  1  0  0  0  0
 34 33  1  0  0  0  0
 35 37  1  0  0  0  0
 35 36  1  0  0  0  0
 36 38  1  0  0  0  0
 37 34  1  0  0  0  0
 38 33  1  0  0  0  0
M  END
>  <MODEL>
6

>  <REMARK>
 VINA RESULT:      -5.2      2.583      6.634
  Name = 
  7 active torsions:
  status: ('A' for Active; 'I' for Inactive)
    1  A    between atoms: C_3  and  C_25
    2  A    between atoms: N_8  and  C_37
    3  A    between atoms: C_16  and  O_17
    4  A    between atoms: C_16  and  C_21
    5  A    between atoms: O_17  and  C_31
    6  A    between atoms: C_19  and  C_23
    7  A    between atoms: N_29  and  C_37
                            x       y       z     vdW  Elec       q    Type
                         _______ _______ _______ _____ _____    ______ ____

>  <TORSDO>
F 7

$$$$
=
 OpenBabel11072410463D

 38 44  0  0  1  0  0  0  0  0999 V2000
  160.5360  206.5820  151.0970 C   0  0  0  0  0  2  0  0  0  0  0  0
  160.8570  202.6740  151.2070 C   0  0  0  0  0  2  0  0  0  0  0  0
  160.3750  205.9790  149.6910 C   0  0  1  0  0  3  0  0  0  0  0  0
  160.4270  203.0120  152.6210 C   0  0  0  0  0  2  0  0  0  0  0  0
  161.3730  206.4060  148.5910 C   0  0  2  0  0  3  0  0  0  0  0  0
  161.8590  204.9510  148.4970 C   0  0  1  0  0  3  0  0  0  0  0  0
  161.7850  206.1540  151.7100 N   0  0  0  0  0  0  0  0  0  0  0  0
  161.7220  204.7190  152.0090 C   0  0  1  0  0  3  0  0  0  0  0  0
  160.6380  204.3880  152.8500 O   0  0  0  0  0  0  0  0  0  0  0  0
  161.6200  203.8830  150.7410 C   0  0  2  0  0  3  0  0  0  0  0  0
  160.8570  204.5220  149.5600 C   0  0  1  0  0  3  0  0  0  0  0  0
  161.5670  204.2490  147.1880 C   0  0  0  0  0  0  0  0  0  0  0  0
  160.8330  202.2020  146.1210 C   0  0  0  0  0  3  0  0  0  0  0  0
  161.1400  204.1560  144.8020 C   0  0  0  0  0  3  0  0  0  0  0  0
  161.2100  202.9000  147.2730 C   0  0  0  0  0  3  0  0  0  0  0  0
  160.8080  202.8360  144.9190 N   0  0  0  0  0  0  0  0  0  0  0  0
  161.5180  204.8940  145.9290 C   0  0  0  0  0  0  0  0  0  0  0  0
  161.8210  206.2450  145.7740 O   0  0  0  0  0  1  0  0  0  0  0  0
  163.4500  207.0300  149.8990 O   0  0  0  0  0  1  0  0  0  0  0  0
  162.4660  207.4290  148.9920 C   0  0  1  0  0  0  0  0  0  0  0  0
  162.9770  208.2150  147.9370 O   0  0  0  0  0  0  0  0  0  0  0  0
  162.2370  208.8930  148.9340 C   0  0  2  0  0  0  0  0  0  0  0  0
  163.0520  209.7110  149.6890 F   0  0  0  0  0  0  0  0  0  0  0  0
  160.9270  209.4510  148.4080 C   0  0  0  0  0  2  0  0  0  0  0  0
  161.2010  210.5000  147.4890 O   0  0  0  0  0  0  0  0  0  0  0  0
  161.9480  214.4510  148.7330 C   0  0  0  0  0  3  0  0  0  0  0  0
  160.9450  213.6920  149.3440 C   0  0  0  0  0  3  0  0  0  0  0  0
  162.7130  213.8950  147.7040 C   0  0  0  0  0  3  0  0  0  0  0  0
  160.7000  212.3780  148.9230 C   0  0  0  0  0  3  0  0  0  0  0  0
  161.4640  211.8140  147.8940 C   0  0  0  0  0  0  0  0  0  0  0  0
  162.4750  212.5820  147.2870 C   0  0  0  0  0  3  0  0  0  0  0  0
  161.9500  206.8910  152.9540 C   0  0  0  0  0  2  0  0  0  0  0  0
  160.8610  207.8420  153.1030 N   0  0  0  0  0  0  0  0  0  0  0  0
  160.4920  207.8540  154.5320 C   0  0  0  0  0  2  0  0  0  0  0  0
  160.1020  210.3310  154.4740 C   0  0  0  0  0  2  0  0  0  0  0  0
  160.3820  210.2600  152.9630 C   0  0  0  0  0  2  0  0  0  0  0  0
  160.7640  209.1880  155.2430 C   0  0  0  0  0  2  0  0  0  0  0  0
  161.3580  209.1340  152.6140 C   0  0  0  0  0  2  0  0  0  0  0  0
  1  7  1  0  0  0  0
  2  4  1  0  0  0  0
  3  1  1  1  0  0  0
  4  9  1  0  0  0  0
  5 20  1  1  0  0  0
  5  3  1  0  0  0  0
  6 12  1  6  0  0  0
  6  5  1  0  0  0  0
  6 11  1  0  0  0  0
  7  8  1  0  0  0  0
  7 32  1  0  0  0  0
  8  9  1  1  0  0  0
 10  2  1  1  0  0  0
 10  8  1  0  0  0  0
 11  3  1  0  0  0  0
 11 10  1  0  0  0  0
 12 15  1  0  0  0  0
 13 15  2  0  0  0  0
 14 16  2  0  0  0  0
 14 17  1  0  0  0  0
 16 13  1  0  0  0  0
 17 12  2  0  0  0  0
 18 17  1  0  0  0  0
 20 19  1  0  0  0  0
 21 22  1  0  0  0  0
 21 20  1  0  0  0  0
 22 20  1  0  0  0  0
 22 23  1  0  0  0  0
 24 22  1  0  0  0  0
 25 30  1  0  0  0  0
 25 24  1  0  0  0  0
 26 27  1  0  0  0  0
 28 26  2  0  0  0  0
 29 27  2  0  0  0  0
 30 29  1  0  0  0  0
 31 28  1  0  0  0  0
 31 30  2  0  0  0  0
 32 33  1  0  0  0  0
 33 34  1  0  0  0  0
 34 37  1  0  0  0  0
 35 37  1  0  0  0  0
 36 35  1  0  0  0  0
 38 36  1  0  0  0  0
 38 33  1  0  0  0  0
M  END
>  <MODEL>
7

>  <REMARK>
 VINA RESULT:      -5.1      2.287      8.429
  Name = 
  7 active torsions:
  status: ('A' for Active; 'I' for Inactive)
    1  A    between atoms: C_3  and  C_25
    2  A    between atoms: N_8  and  C_37
    3  A    between atoms: C_16  and  O_17
    4  A    between atoms: C_16  and  C_21
    5  A    between atoms: O_17  and  C_31
    6  A    between atoms: C_19  and  C_23
    7  A    between atoms: N_29  and  C_37
                            x       y       z     vdW  Elec       q    Type
                         _______ _______ _______ _____ _____    ______ ____

>  <TORSDO>
F 7

$$$$
=
 OpenBabel11072410463D

 38 44  0  0  1  0  0  0  0  0999 V2000
  160.1290  209.1420  152.5820 C   0  0  0  0  0  2  0  0  0  0  0  0
  160.8660  206.4230  155.3120 C   0  0  0  0  0  2  0  0  0  0  0  0
  160.0600  207.7290  151.9800 C   0  0  1  0  0  3  0  0  0  0  0  0
  160.3770  207.5970  156.1360 C   0  0  0  0  0  2  0  0  0  0  0  0
  161.0260  207.3740  150.8280 C   0  0  2  0  0  3  0  0  0  0  0  0
  161.6670  206.3020  151.7230 C   0  0  1  0  0  3  0  0  0  0  0  0
  161.4060  209.3670  153.2450 N   0  0  0  0  0  0  0  0  0  0  0  0
  161.4910  208.5290  154.4470 C   0  0  1  0  0  3  0  0  0  0  0  0
  160.4340  208.7680  155.3510 O   0  0  0  0  0  0  0  0  0  0  0  0
  161.5030  207.0460  154.1010 C   0  0  2  0  0  3  0  0  0  0  0  0
  160.6980  206.6300  152.8510 C   0  0  1  0  0  3  0  0  0  0  0  0
  161.4760  204.8720  151.2680 C   0  0  0  0  0  0  0  0  0  0  0  0
  161.7130  202.5290  151.8350 C   0  0  0  0  0  3  0  0  0  0  0  0
  160.5740  203.1320  149.8380 C   0  0  0  0  0  3  0  0  0  0  0  0
  161.9350  203.8760  152.1350 C   0  0  0  0  0  3  0  0  0  0  0  0
  161.0460  202.1850  150.7010 N   0  0  0  0  0  0  0  0  0  0  0  0
  160.7680  204.4920  150.1010 C   0  0  0  0  0  0  0  0  0  0  0  0
  160.2470  205.4280  149.2110 O   0  0  0  0  0  1  0  0  0  0  0  0
  162.3040  209.5210  151.2410 O   0  0  0  0  0  1  0  0  0  0  0  0
  161.9950  208.4870  150.3550 C   0  0  1  0  0  0  0  0  0  0  0  0
  163.1130  208.0440  149.6170 O   0  0  0  0  0  0  0  0  0  0  0  0
  162.1650  208.8310  148.9230 C   0  0  2  0  0  0  0  0  0  0  0  0
  162.6820  210.0700  148.6060 F   0  0  0  0  0  0  0  0  0  0  0  0
  161.4340  208.0460  147.8470 C   0  0  0  0  0  2  0  0  0  0  0  0
  162.3240  207.0960  147.2760 O   0  0  0  0  0  0  0  0  0  0  0  0
  160.9670  203.8580  144.9560 C   0  0  0  0  0  3  0  0  0  0  0  0
  160.4030  205.1280  144.8010 C   0  0  0  0  0  3  0  0  0  0  0  0
  161.9930  203.6590  145.8840 C   0  0  0  0  0  3  0  0  0  0  0  0
  160.8580  206.2010  145.5790 C   0  0  0  0  0  3  0  0  0  0  0  0
  161.8860  206.0100  146.5100 C   0  0  0  0  0  0  0  0  0  0  0  0
  162.4530  204.7310  146.6560 C   0  0  0  0  0  3  0  0  0  0  0  0
  161.4680  210.7660  153.6380 C   0  0  0  0  0  2  0  0  0  0  0  0
  160.1310  211.3370  153.6130 N   0  0  0  0  0  0  0  0  0  0  0  0
  159.8330  211.7950  154.9840 C   0  0  0  0  0  2  0  0  0  0  0  0
  158.6420  213.8230  154.1140 C   0  0  0  0  0  2  0  0  0  0  0  0
  158.8740  213.2570  152.7020 C   0  0  0  0  0  2  0  0  0  0  0  0
  159.6720  213.3160  155.1210 C   0  0  0  0  0  2  0  0  0  0  0  0
  160.1540  212.4220  152.6240 C   0  0  0  0  0  2  0  0  0  0  0  0
  1  7  1  0  0  0  0
  2  4  1  0  0  0  0
  3  1  1  1  0  0  0
  3 11  1  0  0  0  0
  5 20  1  1  0  0  0
  5  6  1  0  0  0  0
  5  3  1  0  0  0  0
  6 12  1  6  0  0  0
  6 11  1  0  0  0  0
  7 32  1  0  0  0  0
  7  8  1  0  0  0  0
  8  9  1  1  0  0  0
  9  4  1  0  0  0  0
 10  8  1  0  0  0  0
 10  2  1  1  0  0  0
 11 10  1  0  0  0  0
 12 15  1  0  0  0  0
 13 15  2  0  0  0  0
 14 17  1  0  0  0  0
 14 16  2  0  0  0  0
 16 13  1  0  0  0  0
 17 12  2  0  0  0  0
 18 17  1  0  0  0  0
 20 19  1  0  0  0  0
 21 20  1  0  0  0  0
 22 21  1  0  0  0  0
 22 20  1  0  0  0  0
 23 22  1  0  0  0  0
 24 22  1  0  0  0  0
 25 24  1  0  0  0  0
 26 28  1  0  0  0  0
 27 26  2  0  0  0  0
 27 29  1  0  0  0  0
 28 31  2  0  0  0  0
 29 30  2  0  0  0  0
 30 31  1  0  0  0  0
 30 25  1  0  0  0  0
 33 32  1  0  0  0  0
 33 34  1  0  0  0  0
 34 37  1  0  0  0  0
 35 37  1  0  0  0  0
 36 35  1  0  0  0  0
 38 36  1  0  0  0  0
 38 33  1  0  0  0  0
M  END
>  <MODEL>
8

>  <REMARK>
 VINA RESULT:      -5.1      2.546      6.583
  Name = 
  7 active torsions:
  status: ('A' for Active; 'I' for Inactive)
    1  A    between atoms: C_3  and  C_25
    2  A    between atoms: N_8  and  C_37
    3  A    between atoms: C_16  and  O_17
    4  A    between atoms: C_16  and  C_21
    5  A    between atoms: O_17  and  C_31
    6  A    between atoms: C_19  and  C_23
    7  A    between atoms: N_29  and  C_37
                            x       y       z     vdW  Elec       q    Type
                         _______ _______ _______ _____ _____    ______ ____

>  <TORSDO>
F 7

$$$$
=
 OpenBabel11072410463D

 38 44  0  0  1  0  0  0  0  0999 V2000
  162.9280  207.9170  151.2960 C   0  0  0  0  0  2  0  0  0  0  0  0
  161.9580  210.0990  148.1830 C   0  0  0  0  0  2  0  0  0  0  0  0
  163.0790  207.1130  149.9950 C   0  0  1  0  0  3  0  0  0  0  0  0
  162.3440  211.1420  149.2130 C   0  0  0  0  0  2  0  0  0  0  0  0
  162.2400  205.8260  149.8260 C   0  0  2  0  0  3  0  0  0  0  0  0
  161.5280  206.4720  148.6280 C   0  0  1  0  0  3  0  0  0  0  0  0
  161.5870  208.4730  151.4150 N   0  0  0  0  0  0  0  0  0  0  0  0
  161.3930  209.5140  150.3990 C   0  0  1  0  0  3  0  0  0  0  0  0
  162.3490  210.5480  150.4920 O   0  0  0  0  0  0  0  0  0  0  0  0
  161.4380  208.9420  148.9890 C   0  0  2  0  0  3  0  0  0  0  0  0
  162.3730  207.7300  148.7730 C   0  0  1  0  0  3  0  0  0  0  0  0
  161.7860  205.8210  147.2860 C   0  0  0  0  0  0  0  0  0  0  0  0
  163.2060  204.3290  146.0110 C   0  0  0  0  0  3  0  0  0  0  0  0
  161.1920  205.1320  145.0370 C   0  0  0  0  0  3  0  0  0  0  0  0
  162.9420  205.0410  147.1850 C   0  0  0  0  0  3  0  0  0  0  0  0
  162.3360  204.3900  144.9680 N   0  0  0  0  0  0  0  0  0  0  0  0
  160.8840  205.8560  146.1940 C   0  0  0  0  0  0  0  0  0  0  0  0
  159.6940  206.5780  146.2370 O   0  0  0  0  0  1  0  0  0  0  0  0
  161.2310  206.2910  152.1020 O   0  0  0  0  0  1  0  0  0  0  0  0
  161.3080  205.4360  151.0000 C   0  0  1  0  0  0  0  0  0  0  0  0
  160.0540  204.9060  150.6280 O   0  0  0  0  0  0  0  0  0  0  0  0
  160.9460  204.0270  151.2870 C   0  0  2  0  0  0  0  0  0  0  0  0
  160.4930  203.7140  152.5520 F   0  0  0  0  0  0  0  0  0  0  0  0
  161.4280  202.9050  150.3850 C   0  0  0  0  0  2  0  0  0  0  0  0
  160.4450  202.6480  149.3920 O   0  0  0  0  0  0  0  0  0  0  0  0
  161.1420  200.2440  146.0080 C   0  0  0  0  0  3  0  0  0  0  0  0
  160.4850  201.4720  145.8830 C   0  0  0  0  0  3  0  0  0  0  0  0
  161.5770  199.8100  147.2640 C   0  0  0  0  0  3  0  0  0  0  0  0
  160.2540  202.2660  147.0140 C   0  0  0  0  0  3  0  0  0  0  0  0
  160.6870  201.8380  148.2750 C   0  0  0  0  0  0  0  0  0  0  0  0
  161.3530  200.6050  148.3920 C   0  0  0  0  0  3  0  0  0  0  0  0
  161.4640  209.0710  152.7360 C   0  0  0  0  0  2  0  0  0  0  0  0
  160.0800  209.4500  152.9700 N   0  0  0  0  0  0  0  0  0  0  0  0
  159.7550  209.0600  154.3560 C   0  0  0  0  0  2  0  0  0  0  0  0
  158.3740  211.1280  154.6800 C   0  0  0  0  0  2  0  0  0  0  0  0
  158.6420  211.4440  153.1980 C   0  0  0  0  0  2  0  0  0  0  0  0
  159.4580  210.2410  155.2910 C   0  0  0  0  0  2  0  0  0  0  0  0
  159.9930  210.8960  152.7310 C   0  0  0  0  0  2  0  0  0  0  0  0
  1  7  1  0  0  0  0
  2  4  1  0  0  0  0
  3  1  1  1  0  0  0
  4  9  1  0  0  0  0
  5  3  1  0  0  0  0
  5 20  1  1  0  0  0
  6 12  1  6  0  0  0
  6 11  1  0  0  0  0
  6  5  1  0  0  0  0
  7 32  1  0  0  0  0
  8  9  1  6  0  0  0
  8  7  1  0  0  0  0
 10  2  1  6  0  0  0
 10  8  1  0  0  0  0
 11 10  1  0  0  0  0
 11  3  1  0  0  0  0
 13 15  2  0  0  0  0
 14 17  1  0  0  0  0
 15 12  1  0  0  0  0
 16 14  2  0  0  0  0
 16 13  1  0  0  0  0
 17 18  1  0  0  0  0
 17 12  2  0  0  0  0
 20 22  1  0  0  0  0
 20 19  1  0  0  0  0
 21 20  1  0  0  0  0
 21 22  1  0  0  0  0
 22 23  1  0  0  0  0
 24 22  1  0  0  0  0
 25 24  1  0  0  0  0
 26 28  1  0  0  0  0
 27 26  2  0  0  0  0
 27 29  1  0  0  0  0
 28 31  2  0  0  0  0
 29 30  2  0  0  0  0
 30 31  1  0  0  0  0
 30 25  1  0  0  0  0
 32 33  1  0  0  0  0
 33 34  1  0  0  0  0
 34 37  1  0  0  0  0
 35 37  1  0  0  0  0
 36 35  1  0  0  0  0
 38 33  1  0  0  0  0
 38 36  1  0  0  0  0
M  END
>  <MODEL>
9

>  <REMARK>
 VINA RESULT:      -4.7      1.966      6.133
  Name = 
  7 active torsions:
  status: ('A' for Active; 'I' for Inactive)
    1  A    between atoms: C_3  and  C_25
    2  A    between atoms: N_8  and  C_37
    3  A    between atoms: C_16  and  O_17
    4  A    between atoms: C_16  and  C_21
    5  A    between atoms: O_17  and  C_31
    6  A    between atoms: C_19  and  C_23
    7  A    between atoms: N_29  and  C_37
                            x       y       z     vdW  Elec       q    Type
                         _______ _______ _______ _____ _____    ______ ____

>  <TORSDO>
F 7

$$$$
