=
 OpenBabel11072411533D

 32 37  0  0  1  0  0  0  0  0999 V2000
  162.3590  209.8630  149.0240 C   0  0  1  0  0  3  0  0  0  0  0  0
  161.5990  208.4900  150.9130 C   0  0  0  0  0  0  0  0  0  0  0  0
  161.7520  207.3200  150.1150 C   0  0  0  0  0  0  0  0  0  0  0  0
  161.4110  206.2420  150.7400 N   0  0  0  0  0  0  0  0  0  0  0  0
  162.1620  207.3940  148.7530 N   0  0  0  0  0  0  0  0  0  0  0  0
  161.0040  206.6610  152.0540 C   0  0  0  0  0  3  0  0  0  0  0  0
  161.8420  209.7070  150.4440 C   0  0  0  0  0  3  0  0  0  0  0  0
  161.1050  207.9890  152.1820 C   0  0  0  0  0  0  0  0  0  0  0  0
  162.4360  208.5580  148.2300 C   0  0  0  0  0  3  0  0  0  0  0  0
  159.5970  212.2940  154.2070 C   0  0  0  0  0  2  0  0  0  0  0  0
  160.0560  212.7960  155.5350 C   0  0  0  0  0  0  0  0  0  0  0  0
  160.7670  211.7690  156.3570 C   0  0  0  0  0  2  0  0  0  0  0  0
  161.1800  208.2730  154.6840 C   0  0  0  0  0  2  0  0  0  0  0  0
  159.8640  213.9380  155.9170 O   0  0  0  0  0  0  0  0  0  0  0  0
  160.3440  210.9820  154.1500 C   0  0  2  0  0  3  0  0  0  0  0  0
  161.5740  209.4400  155.6110 C   0  0  0  0  0  2  0  0  0  0  0  0
  159.2720  209.9520  156.0420 O   0  0  0  0  0  1  0  0  0  0  0  0
  160.7640  208.7470  153.3520 N   0  0  0  0  0  0  0  0  0  0  0  0
  159.8340  209.8790  153.2430 C   0  0  0  0  0  2  0  0  0  0  0  0
  160.4780  210.4980  155.5800 C   0  0  1  0  0  0  0  0  0  0  0  0
  161.5720  210.7880  148.3350 O   0  0  0  0  0  0  0  0  0  0  0  0
  160.7620  213.0120  148.8280 C   0  0  0  0  0  2  0  0  0  0  0  0
  163.1480  212.5870  148.0650 C   0  0  0  0  0  2  0  0  0  0  0  0
  162.7950  213.6730  147.2520 O   0  0  0  0  0  0  0  0  0  0  0  0
  160.0890  214.3810  146.8930 C   0  0  0  0  0  2  0  0  0  0  0  0
  161.9450  212.0390  148.8390 C   0  0  2  0  0  3  0  0  0  0  0  0
  162.1820  213.1090  146.1260 C   0  0  1  0  0  3  0  0  0  0  0  0
  160.6410  213.1720  146.1670 C   0  0  1  0  0  3  0  0  0  0  0  0
  159.9410  213.0060  147.5300 C   0  0  1  0  0  3  0  0  0  0  0  0
  162.6850  213.7840  144.8610 C   0  0  0  0  0  2  0  0  0  0  0  0
  162.3940  212.9560  143.6880 C   0  0  0  0  0  0  0  0  0  0  0  0
  162.1650  212.3020  142.7610 N   0  0  0  0  0  0  0  0  0  0  0  0
  1 21  1  6  0  0  0
  1  7  1  0  0  0  0
  2  8  1  0  0  0  0
  3  4  2  0  0  0  0
  3  2  1  0  0  0  0
  4  6  1  0  0  0  0
  5  3  1  0  0  0  0
  6  8  2  0  0  0  0
  7  2  2  0  0  0  0
  8 18  1  0  0  0  0
  9  5  2  0  0  0  0
  9  1  1  0  0  0  0
 10 11  1  0  0  0  0
 11 14  2  0  0  0  0
 11 12  1  0  0  0  0
 13 16  1  0  0  0  0
 15 19  1  6  0  0  0
 15 10  1  0  0  0  0
 15 20  1  0  0  0  0
 18 13  1  0  0  0  0
 19 18  1  0  0  0  0
 20 16  1  0  0  0  0
 20 17  1  1  0  0  0
 20 12  1  0  0  0  0
 22 26  1  0  0  0  0
 23 26  1  0  0  0  0
 24 23  1  0  0  0  0
 26 21  1  6  0  0  0
 27 30  1  6  0  0  0
 27 28  1  0  0  0  0
 27 24  1  0  0  0  0
 28 25  1  1  0  0  0
 28 29  1  0  0  0  0
 29 25  1  1  0  0  0
 29 22  1  0  0  0  0
 31 30  1  0  0  0  0
 32 31  3  0  0  0  0
M  END
>  <MODEL>
1

>  <REMARK>
 VINA RESULT:      -6.9      0.000      0.000
  Name = 
  5 active torsions:
  status: ('A' for Active; 'I' for Inactive)
    1  A    between atoms: C_3  and  O_26
    2  A    between atoms: C_11  and  C_14
    3  A    between atoms: C_14  and  C_19
    4  A    between atoms: C_17  and  O_26
    5  A    between atoms: N_27  and  C_28
                            x       y       z     vdW  Elec       q    Type
                         _______ _______ _______ _____ _____    ______ ____

>  <TORSDO>
F 5

$$$$
=
 OpenBabel11072411533D

 32 37  0  0  1  0  0  0  0  0999 V2000
  161.4850  209.2480  152.6420 C   0  0  1  0  0  3  0  0  0  0  0  0
  160.5060  211.4000  151.9810 C   0  0  0  0  0  0  0  0  0  0  0  0
  159.9820  211.5590  153.2960 C   0  0  0  0  0  0  0  0  0  0  0  0
  159.2980  212.6460  153.4320 N   0  0  0  0  0  0  0  0  0  0  0  0
  160.1530  210.5560  154.2930 N   0  0  0  0  0  0  0  0  0  0  0  0
  159.3450  213.3040  152.1550 C   0  0  0  0  0  3  0  0  0  0  0  0
  161.1930  210.3260  151.6130 C   0  0  0  0  0  3  0  0  0  0  0  0
  160.0530  212.5850  151.2760 C   0  0  0  0  0  0  0  0  0  0  0  0
  160.8340  209.4800  154.0070 C   0  0  0  0  0  3  0  0  0  0  0  0
  158.2430  214.0390  146.8580 C   0  0  0  0  0  2  0  0  0  0  0  0
  158.7950  213.5980  145.5460 C   0  0  0  0  0  0  0  0  0  0  0  0
  160.1280  212.9260  145.6440 C   0  0  0  0  0  2  0  0  0  0  0  0
  161.5540  212.5540  149.2530 C   0  0  0  0  0  2  0  0  0  0  0  0
  158.2150  213.7720  144.4860 O   0  0  0  0  0  0  0  0  0  0  0  0
  159.1850  213.3200  147.7950 C   0  0  2  0  0  3  0  0  0  0  0  0
  161.3450  212.1550  147.7780 C   0  0  0  0  0  2  0  0  0  0  0  0
  161.1960  214.4530  147.1140 O   0  0  0  0  0  1  0  0  0  0  0  0
  160.2870  212.9330  149.9030 N   0  0  0  0  0  0  0  0  0  0  0  0
  159.3570  213.8360  149.2110 C   0  0  0  0  0  2  0  0  0  0  0  0
  160.5180  213.2270  147.0790 C   0  0  1  0  0  0  0  0  0  0  0  0
  161.1000  208.0020  152.1420 O   0  0  0  0  0  0  0  0  0  0  0  0
  162.4450  207.5330  150.1890 C   0  0  0  0  0  2  0  0  0  0  0  0
  162.3340  205.9350  152.1620 C   0  0  0  0  0  2  0  0  0  0  0  0
  162.1750  205.0480  151.0880 O   0  0  0  0  0  0  0  0  0  0  0  0
  161.4610  205.9990  148.5310 C   0  0  0  0  0  2  0  0  0  0  0  0
  162.2840  207.3970  151.7070 C   0  0  2  0  0  3  0  0  0  0  0  0
  160.8010  205.0370  150.8160 C   0  0  1  0  0  3  0  0  0  0  0  0
  160.4040  205.9140  149.6120 C   0  0  1  0  0  3  0  0  0  0  0  0
  161.1740  207.2290  149.3810 C   0  0  1  0  0  3  0  0  0  0  0  0
  160.3240  203.6130  150.5880 C   0  0  0  0  0  2  0  0  0  0  0  0
  160.7950  203.1160  149.2930 C   0  0  0  0  0  0  0  0  0  0  0  0
  161.1690  202.7240  148.2700 N   0  0  0  0  0  0  0  0  0  0  0  0
  1 21  1  6  0  0  0
  1  9  1  0  0  0  0
  2  3  1  0  0  0  0
  3  4  2  0  0  0  0
  3  5  1  0  0  0  0
  6  4  1  0  0  0  0
  7  2  2  0  0  0  0
  7  1  1  0  0  0  0
  8  2  1  0  0  0  0
  8  6  2  0  0  0  0
  9  5  2  0  0  0  0
 11 12  1  0  0  0  0
 11 10  1  0  0  0  0
 12 20  1  0  0  0  0
 13 18  1  0  0  0  0
 14 11  2  0  0  0  0
 15 10  1  6  0  0  0
 15 19  1  0  0  0  0
 16 13  1  0  0  0  0
 18  8  1  0  0  0  0
 19 18  1  0  0  0  0
 20 17  1  1  0  0  0
 20 16  1  0  0  0  0
 20 15  1  0  0  0  0
 22 26  1  0  0  0  0
 24 23  1  0  0  0  0
 26 21  1  6  0  0  0
 26 23  1  0  0  0  0
 27 30  1  6  0  0  0
 27 24  1  0  0  0  0
 28 25  1  6  0  0  0
 28 27  1  0  0  0  0
 29 25  1  6  0  0  0
 29 28  1  0  0  0  0
 29 22  1  0  0  0  0
 31 30  1  0  0  0  0
 32 31  3  0  0  0  0
M  END
>  <MODEL>
2

>  <REMARK>
 VINA RESULT:      -6.8      2.912      7.873
  Name = 
  5 active torsions:
  status: ('A' for Active; 'I' for Inactive)
    1  A    between atoms: C_3  and  O_26
    2  A    between atoms: C_11  and  C_14
    3  A    between atoms: C_14  and  C_19
    4  A    between atoms: C_17  and  O_26
    5  A    between atoms: N_27  and  C_28
                            x       y       z     vdW  Elec       q    Type
                         _______ _______ _______ _____ _____    ______ ____

>  <TORSDO>
F 5

$$$$
=
 OpenBabel11072411533D

 32 37  0  0  1  0  0  0  0  0999 V2000
  161.6320  210.8300  149.1610 C   0  0  1  0  0  3  0  0  0  0  0  0
  161.8390  208.4430  149.6990 C   0  0  0  0  0  0  0  0  0  0  0  0
  162.1670  208.7820  151.0430 C   0  0  0  0  0  0  0  0  0  0  0  0
  162.4110  207.7440  151.7730 N   0  0  0  0  0  0  0  0  0  0  0  0
  162.2800  210.1380  151.4650 N   0  0  0  0  0  0  0  0  0  0  0  0
  162.2370  206.6060  150.9120 C   0  0  0  0  0  3  0  0  0  0  0  0
  161.6060  209.3620  148.7710 C   0  0  0  0  0  3  0  0  0  0  0  0
  161.9000  206.9930  149.6760 C   0  0  0  0  0  0  0  0  0  0  0  0
  162.0470  211.0950  150.6090 C   0  0  0  0  0  3  0  0  0  0  0  0
  160.5810  202.5010  147.9480 C   0  0  0  0  0  2  0  0  0  0  0  0
  161.1610  201.8760  146.7240 C   0  0  0  0  0  0  0  0  0  0  0  0
  161.9480  202.8230  145.8750 C   0  0  0  0  0  2  0  0  0  0  0  0
  162.2100  206.4680  147.2310 C   0  0  0  0  0  2  0  0  0  0  0  0
  161.0040  200.7000  146.4390 O   0  0  0  0  0  0  0  0  0  0  0  0
  161.3220  203.8180  147.9460 C   0  0  2  0  0  3  0  0  0  0  0  0
  162.6860  205.2190  146.4630 C   0  0  0  0  0  2  0  0  0  0  0  0
  160.4340  204.6510  145.8710 O   0  0  0  0  0  1  0  0  0  0  0  0
  161.6690  206.1230  148.5580 N   0  0  0  0  0  0  0  0  0  0  0  0
  160.7310  205.0000  148.6900 C   0  0  0  0  0  2  0  0  0  0  0  0
  161.5900  204.1610  146.4950 C   0  0  1  0  0  0  0  0  0  0  0  0
  162.4700  211.5340  148.2940 O   0  0  0  0  0  0  0  0  0  0  0  0
  160.6700  213.1300  148.0600 C   0  0  0  0  0  2  0  0  0  0  0  0
  163.0990  213.7770  147.6880 C   0  0  0  0  0  2  0  0  0  0  0  0
  162.4890  214.3670  146.5720 O   0  0  0  0  0  0  0  0  0  0  0  0
  159.9050  213.5820  145.7610 C   0  0  0  0  0  2  0  0  0  0  0  0
  162.1270  212.8800  148.4610 C   0  0  2  0  0  3  0  0  0  0  0  0
  162.4560  213.3640  145.5940 C   0  0  1  0  0  3  0  0  0  0  0  0
  161.0820  212.6770  145.4630 C   0  0  1  0  0  3  0  0  0  0  0  0
  160.2460  212.4670  146.7410 C   0  0  1  0  0  3  0  0  0  0  0  0
  162.8720  213.9320  144.2480 C   0  0  0  0  0  2  0  0  0  0  0  0
  162.5660  212.9810  143.1750 C   0  0  0  0  0  0  0  0  0  0  0  0
  162.3260  212.2310  142.3270 N   0  0  0  0  0  0  0  0  0  0  0  0
  1 21  1  6  0  0  0
  1  9  1  0  0  0  0
  2  3  1  0  0  0  0
  3  5  1  0  0  0  0
  3  4  2  0  0  0  0
  6  4  1  0  0  0  0
  7  1  1  0  0  0  0
  7  2  2  0  0  0  0
  8  2  1  0  0  0  0
  8  6  2  0  0  0  0
  9  5  2  0  0  0  0
 11 10  1  0  0  0  0
 12 20  1  0  0  0  0
 12 11  1  0  0  0  0
 13 18  1  0  0  0  0
 14 11  2  0  0  0  0
 15 10  1  6  0  0  0
 15 19  1  0  0  0  0
 16 20  1  0  0  0  0
 16 13  1  0  0  0  0
 18 19  1  0  0  0  0
 18  8  1  0  0  0  0
 20 17  1  6  0  0  0
 20 15  1  0  0  0  0
 22 26  1  0  0  0  0
 23 26  1  0  0  0  0
 24 23  1  0  0  0  0
 26 21  1  6  0  0  0
 27 30  1  6  0  0  0
 27 24  1  0  0  0  0
 28 27  1  0  0  0  0
 28 25  1  6  0  0  0
 28 29  1  0  0  0  0
 29 25  1  6  0  0  0
 29 22  1  0  0  0  0
 31 30  1  0  0  0  0
 32 31  3  0  0  0  0
M  END
>  <MODEL>
3

>  <REMARK>
 VINA RESULT:      -6.6      3.353      6.709
  Name = 
  5 active torsions:
  status: ('A' for Active; 'I' for Inactive)
    1  A    between atoms: C_3  and  O_26
    2  A    between atoms: C_11  and  C_14
    3  A    between atoms: C_14  and  C_19
    4  A    between atoms: C_17  and  O_26
    5  A    between atoms: N_27  and  C_28
                            x       y       z     vdW  Elec       q    Type
                         _______ _______ _______ _____ _____    ______ ____

>  <TORSDO>
F 5

$$$$
=
 OpenBabel11072411533D

 32 37  0  0  1  0  0  0  0  0999 V2000
  160.0010  209.8790  153.5860 C   0  0  1  0  0  3  0  0  0  0  0  0
  160.9440  207.8110  152.6580 C   0  0  0  0  0  0  0  0  0  0  0  0
  161.2580  207.3710  153.9760 C   0  0  0  0  0  0  0  0  0  0  0  0
  161.8510  206.2240  153.9900 N   0  0  0  0  0  0  0  0  0  0  0  0
  160.9970  208.1840  155.1160 N   0  0  0  0  0  0  0  0  0  0  0  0
  161.9570  205.8180  152.6140 C   0  0  0  0  0  3  0  0  0  0  0  0
  160.3800  208.9880  152.4160 C   0  0  0  0  0  3  0  0  0  0  0  0
  161.4280  206.7420  151.8040 C   0  0  0  0  0  0  0  0  0  0  0  0
  160.4280  209.3470  154.9550 C   0  0  0  0  0  3  0  0  0  0  0  0
  161.2110  203.9770  147.6550 C   0  0  0  0  0  2  0  0  0  0  0  0
  161.8830  204.3430  146.3750 C   0  0  0  0  0  0  0  0  0  0  0  0
  162.3750  205.7540  146.3310 C   0  0  0  0  0  2  0  0  0  0  0  0
  161.7670  207.8440  149.5640 C   0  0  0  0  0  2  0  0  0  0  0  0
  162.0140  203.5620  145.4460 O   0  0  0  0  0  0  0  0  0  0  0  0
  161.5980  205.1660  148.5030 C   0  0  2  0  0  3  0  0  0  0  0  0
  162.5110  207.4330  148.2780 C   0  0  0  0  0  2  0  0  0  0  0  0
  160.4520  206.8370  147.2050 O   0  0  0  0  0  1  0  0  0  0  0  0
  161.3800  206.6730  150.3710 N   0  0  0  0  0  0  0  0  0  0  0  0
  160.7580  205.5130  149.7170 C   0  0  0  0  0  2  0  0  0  0  0  0
  161.7170  206.3480  147.5620 C   0  0  1  0  0  0  0  0  0  0  0  0
  160.5260  211.1590  153.3940 O   0  0  0  0  0  0  0  0  0  0  0  0
  159.5540  213.3560  153.1240 C   0  0  0  0  0  2  0  0  0  0  0  0
  158.1520  211.2410  153.0030 C   0  0  0  0  0  2  0  0  0  0  0  0
  157.3610  212.0410  153.8400 O   0  0  0  0  0  0  0  0  0  0  0  0
  158.4500  214.3100  155.1100 C   0  0  0  0  0  2  0  0  0  0  0  0
  159.5200  211.8750  152.7350 C   0  0  2  0  0  3  0  0  0  0  0  0
  157.8470  211.8160  155.1340 C   0  0  1  0  0  3  0  0  0  0  0  0
  158.7810  212.9330  155.6430 C   0  0  1  0  0  3  0  0  0  0  0  0
  159.7180  213.6180  154.6290 C   0  0  1  0  0  3  0  0  0  0  0  0
  156.6910  211.6390  156.1040 C   0  0  0  0  0  2  0  0  0  0  0  0
  155.7250  210.6700  155.5780 C   0  0  0  0  0  0  0  0  0  0  0  0
  154.9630  209.9050  155.1630 N   0  0  0  0  0  0  0  0  0  0  0  0
  1 21  1  6  0  0  0
  1  9  1  0  0  0  0
  2  3  1  0  0  0  0
  3  4  2  0  0  0  0
  3  5  1  0  0  0  0
  6  4  1  0  0  0  0
  7  2  2  0  0  0  0
  7  1  1  0  0  0  0
  8  6  2  0  0  0  0
  8  2  1  0  0  0  0
  9  5  2  0  0  0  0
 11 10  1  0  0  0  0
 12 11  1  0  0  0  0
 12 20  1  0  0  0  0
 13 18  1  0  0  0  0
 14 11  2  0  0  0  0
 15 10  1  6  0  0  0
 15 19  1  0  0  0  0
 16 13  1  0  0  0  0
 18  8  1  0  0  0  0
 19 18  1  0  0  0  0
 20 17  1  6  0  0  0
 20 16  1  0  0  0  0
 20 15  1  0  0  0  0
 23 24  1  0  0  0  0
 24 27  1  0  0  0  0
 26 23  1  0  0  0  0
 26 22  1  0  0  0  0
 26 21  1  1  0  0  0
 27 28  1  0  0  0  0
 27 30  1  1  0  0  0
 28 25  1  6  0  0  0
 29 22  1  6  0  0  0
 29 25  1  0  0  0  0
 29 28  1  0  0  0  0
 31 30  1  0  0  0  0
 32 31  3  0  0  0  0
M  END
>  <MODEL>
4

>  <REMARK>
 VINA RESULT:      -6.6      4.077      8.375
  Name = 
  5 active torsions:
  status: ('A' for Active; 'I' for Inactive)
    1  A    between atoms: C_3  and  O_26
    2  A    between atoms: C_11  and  C_14
    3  A    between atoms: C_14  and  C_19
    4  A    between atoms: C_17  and  O_26
    5  A    between atoms: N_27  and  C_28
                            x       y       z     vdW  Elec       q    Type
                         _______ _______ _______ _____ _____    ______ ____

>  <TORSDO>
F 5

$$$$
=
 OpenBabel11072411533D

 32 37  0  0  1  0  0  0  0  0999 V2000
  162.5110  205.9450  152.3080 C   0  0  1  0  0  3  0  0  0  0  0  0
  161.5280  208.1940  152.2280 C   0  0  0  0  0  0  0  0  0  0  0  0
  160.8330  207.9260  153.4420 C   0  0  0  0  0  0  0  0  0  0  0  0
  160.0880  208.9120  153.8180 N   0  0  0  0  0  0  0  0  0  0  0  0
  160.9210  206.6590  154.0880 N   0  0  0  0  0  0  0  0  0  0  0  0
  160.2690  209.9410  152.8300 C   0  0  0  0  0  3  0  0  0  0  0  0
  162.3050  207.2930  151.6390 C   0  0  0  0  0  3  0  0  0  0  0  0
  161.1160  209.5400  151.8750 C   0  0  0  0  0  0  0  0  0  0  0  0
  161.6810  205.7310  153.5750 C   0  0  0  0  0  3  0  0  0  0  0  0
  160.4590  213.5440  148.9700 C   0  0  0  0  0  2  0  0  0  0  0  0
  160.6640  213.5440  147.4930 C   0  0  0  0  0  0  0  0  0  0  0  0
  161.3780  212.3340  146.9800 C   0  0  0  0  0  2  0  0  0  0  0  0
  162.3360  209.6860  149.6760 C   0  0  0  0  0  2  0  0  0  0  0  0
  160.2870  214.4510  146.7680 O   0  0  0  0  0  0  0  0  0  0  0  0
  160.8240  212.1130  149.2850 C   0  0  2  0  0  3  0  0  0  0  0  0
  161.9380  210.1770  148.2690 C   0  0  0  0  0  2  0  0  0  0  0  0
  163.1230  212.2360  148.5860 O   0  0  0  0  0  1  0  0  0  0  0  0
  161.5080  210.3050  150.7260 N   0  0  0  0  0  0  0  0  0  0  0  0
  161.2570  211.7530  150.6940 C   0  0  0  0  0  2  0  0  0  0  0  0
  161.8680  211.6980  148.2680 C   0  0  1  0  0  0  0  0  0  0  0  0
  162.2510  204.9210  151.3950 O   0  0  0  0  0  0  0  0  0  0  0  0
  160.0960  203.8790  151.0560 C   0  0  0  0  0  2  0  0  0  0  0  0
  160.9630  205.7080  149.5200 C   0  0  0  0  0  2  0  0  0  0  0  0
  160.4940  204.7730  148.5860 O   0  0  0  0  0  0  0  0  0  0  0  0
  160.0000  202.1040  149.3500 C   0  0  0  0  0  2  0  0  0  0  0  0
  160.9450  205.1490  150.9460 C   0  0  2  0  0  3  0  0  0  0  0  0
  161.5630  203.8920  148.3770 C   0  0  1  0  0  3  0  0  0  0  0  0
  161.4290  202.5660  149.1530 C   0  0  1  0  0  3  0  0  0  0  0  0
  160.7870  202.6020  150.5540 C   0  0  1  0  0  3  0  0  0  0  0  0
  161.7190  203.6000  146.8940 C   0  0  0  0  0  2  0  0  0  0  0  0
  161.9360  204.8420  146.1480 C   0  0  0  0  0  0  0  0  0  0  0  0
  162.1080  205.8240  145.5590 N   0  0  0  0  0  0  0  0  0  0  0  0
  1 21  1  6  0  0  0
  1  9  1  0  0  0  0
  2  3  1  0  0  0  0
  3  4  2  0  0  0  0
  3  5  1  0  0  0  0
  6  4  1  0  0  0  0
  7  2  2  0  0  0  0
  7  1  1  0  0  0  0
  8  2  1  0  0  0  0
  8  6  2  0  0  0  0
  9  5  2  0  0  0  0
 11 10  1  0  0  0  0
 12 11  1  0  0  0  0
 12 20  1  0  0  0  0
 13 18  1  0  0  0  0
 14 11  2  0  0  0  0
 15 10  1  1  0  0  0
 15 19  1  0  0  0  0
 16 13  1  0  0  0  0
 18  8  1  0  0  0  0
 19 18  1  0  0  0  0
 20 16  1  0  0  0  0
 20 17  1  1  0  0  0
 20 15  1  0  0  0  0
 23 26  1  0  0  0  0
 24 23  1  0  0  0  0
 26 22  1  0  0  0  0
 26 21  1  6  0  0  0
 27 30  1  6  0  0  0
 27 24  1  0  0  0  0
 27 28  1  0  0  0  0
 28 25  1  6  0  0  0
 28 29  1  0  0  0  0
 29 25  1  6  0  0  0
 29 22  1  0  0  0  0
 31 30  1  0  0  0  0
 32 31  3  0  0  0  0
M  END
>  <MODEL>
5

>  <REMARK>
 VINA RESULT:      -6.1      3.099      7.338
  Name = 
  5 active torsions:
  status: ('A' for Active; 'I' for Inactive)
    1  A    between atoms: C_3  and  O_26
    2  A    between atoms: C_11  and  C_14
    3  A    between atoms: C_14  and  C_19
    4  A    between atoms: C_17  and  O_26
    5  A    between atoms: N_27  and  C_28
                            x       y       z     vdW  Elec       q    Type
                         _______ _______ _______ _____ _____    ______ ____

>  <TORSDO>
F 5

$$$$
=
 OpenBabel11072411533D

 32 37  0  0  1  0  0  0  0  0999 V2000
  161.4480  207.3640  152.8720 C   0  0  1  0  0  3  0  0  0  0  0  0
  160.3870  208.9390  154.4280 C   0  0  0  0  0  0  0  0  0  0  0  0
  160.6050  208.0210  155.4950 C   0  0  0  0  0  0  0  0  0  0  0  0
  160.1420  208.4490  156.6230 N   0  0  0  0  0  0  0  0  0  0  0  0
  161.2010  206.7460  155.2740 N   0  0  0  0  0  0  0  0  0  0  0  0
  159.5750  209.7420  156.3510 C   0  0  0  0  0  3  0  0  0  0  0  0
  160.7370  208.6710  153.1760 C   0  0  0  0  0  3  0  0  0  0  0  0
  159.7060  210.0560  155.0570 C   0  0  0  0  0  0  0  0  0  0  0  0
  161.5870  206.4220  154.0690 C   0  0  0  0  0  3  0  0  0  0  0  0
  155.9090  213.0910  153.9240 C   0  0  0  0  0  2  0  0  0  0  0  0
  155.8220  213.8800  152.6620 C   0  0  0  0  0  0  0  0  0  0  0  0
  157.1030  213.9330  151.8910 C   0  0  0  0  0  2  0  0  0  0  0  0
  160.0800  211.9580  153.4490 C   0  0  0  0  0  2  0  0  0  0  0  0
  154.8000  214.4350  152.2940 O   0  0  0  0  0  0  0  0  0  0  0  0
  157.2440  212.4130  153.7180 C   0  0  2  0  0  3  0  0  0  0  0  0
  159.2430  212.5640  152.3040 C   0  0  0  0  0  2  0  0  0  0  0  0
  158.5850  214.4110  153.6830 O   0  0  0  0  0  1  0  0  0  0  0  0
  159.2360  211.2610  154.4340 N   0  0  0  0  0  0  0  0  0  0  0  0
  158.0090  211.9040  154.9250 C   0  0  0  0  0  2  0  0  0  0  0  0
  158.0880  213.3640  152.8940 C   0  0  1  0  0  0  0  0  0  0  0  0
  160.7980  206.7050  151.8260 O   0  0  0  0  0  0  0  0  0  0  0  0
  162.8650  206.7850  150.5770 C   0  0  0  0  0  2  0  0  0  0  0  0
  161.1430  204.9530  150.2130 C   0  0  0  0  0  2  0  0  0  0  0  0
  161.4420  205.3080  148.8900 O   0  0  0  0  0  0  0  0  0  0  0  0
  162.7330  207.7470  148.3120 C   0  0  0  0  0  2  0  0  0  0  0  0
  161.7800  205.9160  151.2190 C   0  0  2  0  0  3  0  0  0  0  0  0
  160.5830  206.3730  148.5890 C   0  0  1  0  0  3  0  0  0  0  0  0
  161.2630  207.7550  148.6750 C   0  0  1  0  0  3  0  0  0  0  0  0
  162.3320  207.9750  149.7630 C   0  0  1  0  0  3  0  0  0  0  0  0
  159.9820  206.1880  147.2060 C   0  0  0  0  0  2  0  0  0  0  0  0
  161.0200  205.8070  146.2440 C   0  0  0  0  0  0  0  0  0  0  0  0
  161.8400  205.5060  145.4850 N   0  0  0  0  0  0  0  0  0  0  0  0
  1 21  1  6  0  0  0
  1  7  1  0  0  0  0
  1  9  1  0  0  0  0
  2  8  1  0  0  0  0
  2  3  1  0  0  0  0
  3  4  2  0  0  0  0
  5  3  1  0  0  0  0
  6  4  1  0  0  0  0
  7  2  2  0  0  0  0
  8  6  2  0  0  0  0
  9  5  2  0  0  0  0
 11 10  1  0  0  0  0
 12 11  1  0  0  0  0
 12 20  1  0  0  0  0
 13 18  1  0  0  0  0
 14 11  2  0  0  0  0
 15 10  1  1  0  0  0
 15 19  1  0  0  0  0
 16 20  1  0  0  0  0
 16 13  1  0  0  0  0
 18 19  1  0  0  0  0
 18  8  1  0  0  0  0
 20 17  1  1  0  0  0
 20 15  1  0  0  0  0
 22 26  1  0  0  0  0
 23 26  1  0  0  0  0
 24 23  1  0  0  0  0
 26 21  1  6  0  0  0
 27 30  1  6  0  0  0
 27 28  1  0  0  0  0
 27 24  1  0  0  0  0
 28 25  1  6  0  0  0
 28 29  1  0  0  0  0
 29 25  1  6  0  0  0
 29 22  1  0  0  0  0
 31 30  1  0  0  0  0
 32 31  3  0  0  0  0
M  END
>  <MODEL>
6

>  <REMARK>
 VINA RESULT:      -6.1      4.079      5.886
  Name = 
  5 active torsions:
  status: ('A' for Active; 'I' for Inactive)
    1  A    between atoms: C_3  and  O_26
    2  A    between atoms: C_11  and  C_14
    3  A    between atoms: C_14  and  C_19
    4  A    between atoms: C_17  and  O_26
    5  A    between atoms: N_27  and  C_28
                            x       y       z     vdW  Elec       q    Type
                         _______ _______ _______ _____ _____    ______ ____

>  <TORSDO>
F 5

$$$$
=
 OpenBabel11072411533D

 32 37  0  0  1  0  0  0  0  0999 V2000
  162.6490  207.4890  151.3790 C   0  0  1  0  0  3  0  0  0  0  0  0
  161.4980  209.6580  151.3520 C   0  0  0  0  0  0  0  0  0  0  0  0
  160.8080  209.2980  152.5450 C   0  0  0  0  0  0  0  0  0  0  0  0
  159.9840  210.2120  152.9390 N   0  0  0  0  0  0  0  0  0  0  0  0
  160.9820  208.0210  153.1520 N   0  0  0  0  0  0  0  0  0  0  0  0
  160.1000  211.2840  151.9870 C   0  0  0  0  0  3  0  0  0  0  0  0
  162.3510  208.8390  150.7490 C   0  0  0  0  0  3  0  0  0  0  0  0
  160.9900  210.9800  151.0350 C   0  0  0  0  0  0  0  0  0  0  0  0
  161.8190  207.1710  152.6230 C   0  0  0  0  0  3  0  0  0  0  0  0
  159.5480  213.8470  147.2130 C   0  0  0  0  0  2  0  0  0  0  0  0
  160.2780  213.9340  145.9160 C   0  0  0  0  0  0  0  0  0  0  0  0
  161.6480  213.3340  145.9500 C   0  0  0  0  0  2  0  0  0  0  0  0
  162.6990  211.7500  149.3520 C   0  0  0  0  0  2  0  0  0  0  0  0
  159.8030  214.4530  144.9190 O   0  0  0  0  0  0  0  0  0  0  0  0
  160.4440  212.8820  147.9540 C   0  0  2  0  0  3  0  0  0  0  0  0
  162.6890  211.9010  147.8180 C   0  0  0  0  0  2  0  0  0  0  0  0
  162.4060  214.2740  147.9930 O   0  0  0  0  0  1  0  0  0  0  0  0
  161.3400  211.8100  149.9180 N   0  0  0  0  0  0  0  0  0  0  0  0
  160.4130  212.8590  149.4700 C   0  0  0  0  0  2  0  0  0  0  0  0
  161.8490  213.1140  147.4370 C   0  0  1  0  0  0  0  0  0  0  0  0
  162.4820  206.4790  150.4290 O   0  0  0  0  0  0  0  0  0  0  0  0
  160.4370  205.2060  150.6250 C   0  0  0  0  0  2  0  0  0  0  0  0
  160.9100  206.6910  148.6190 C   0  0  0  0  0  2  0  0  0  0  0  0
  160.4500  205.5260  147.9890 O   0  0  0  0  0  0  0  0  0  0  0  0
  160.3540  203.0780  149.3850 C   0  0  0  0  0  2  0  0  0  0  0  0
  161.1170  206.4830  150.1220 C   0  0  2  0  0  3  0  0  0  0  0  0
  161.5820  204.7150  147.8380 C   0  0  1  0  0  3  0  0  0  0  0  0
  161.6890  203.6010  148.8990 C   0  0  1  0  0  3  0  0  0  0  0  0
  161.2080  203.9110  150.3310 C   0  0  1  0  0  3  0  0  0  0  0  0
  161.6030  204.0980  146.4490 C   0  0  0  0  0  2  0  0  0  0  0  0
  161.1700  205.0760  145.4470 C   0  0  0  0  0  0  0  0  0  0  0  0
  160.8290  205.8480  144.6560 N   0  0  0  0  0  0  0  0  0  0  0  0
  1 21  1  6  0  0  0
  1  9  1  0  0  0  0
  2  3  1  0  0  0  0
  3  4  2  0  0  0  0
  3  5  1  0  0  0  0
  6  4  1  0  0  0  0
  7  2  2  0  0  0  0
  7  1  1  0  0  0  0
  8  2  1  0  0  0  0
  8  6  2  0  0  0  0
  9  5  2  0  0  0  0
 11 12  1  0  0  0  0
 11 10  1  0  0  0  0
 12 20  1  0  0  0  0
 13 18  1  0  0  0  0
 14 11  2  0  0  0  0
 15 10  1  1  0  0  0
 15 19  1  0  0  0  0
 16 13  1  0  0  0  0
 18  8  1  0  0  0  0
 19 18  1  0  0  0  0
 20 16  1  0  0  0  0
 20 15  1  0  0  0  0
 20 17  1  1  0  0  0
 23 26  1  0  0  0  0
 24 23  1  0  0  0  0
 26 21  1  6  0  0  0
 26 22  1  0  0  0  0
 27 30  1  6  0  0  0
 27 24  1  0  0  0  0
 27 28  1  0  0  0  0
 28 25  1  6  0  0  0
 28 29  1  0  0  0  0
 29 25  1  6  0  0  0
 29 22  1  0  0  0  0
 31 30  1  0  0  0  0
 32 31  3  0  0  0  0
M  END
>  <MODEL>
7

>  <REMARK>
 VINA RESULT:      -5.9      3.147      7.314
  Name = 
  5 active torsions:
  status: ('A' for Active; 'I' for Inactive)
    1  A    between atoms: C_3  and  O_26
    2  A    between atoms: C_11  and  C_14
    3  A    between atoms: C_14  and  C_19
    4  A    between atoms: C_17  and  O_26
    5  A    between atoms: N_27  and  C_28
                            x       y       z     vdW  Elec       q    Type
                         _______ _______ _______ _____ _____    ______ ____

>  <TORSDO>
F 5

$$$$
=
 OpenBabel11072411533D

 32 37  0  0  1  0  0  0  0  0999 V2000
  161.2660  208.0420  153.4870 C   0  0  1  0  0  3  0  0  0  0  0  0
  160.1840  210.2440  153.3970 C   0  0  0  0  0  0  0  0  0  0  0  0
  159.7230  210.0650  154.7330 C   0  0  0  0  0  0  0  0  0  0  0  0
  159.0120  211.0580  155.1520 N   0  0  0  0  0  0  0  0  0  0  0  0
  159.9790  208.8640  155.4560 N   0  0  0  0  0  0  0  0  0  0  0  0
  158.9710  212.0000  154.0660 C   0  0  0  0  0  3  0  0  0  0  0  0
  160.8860  209.3180  152.7560 C   0  0  0  0  0  3  0  0  0  0  0  0
  159.6560  211.5400  153.0130 C   0  0  0  0  0  0  0  0  0  0  0  0
  160.6800  207.9170  154.8940 C   0  0  0  0  0  3  0  0  0  0  0  0
  162.0830  212.0160  148.6780 C   0  0  0  0  0  2  0  0  0  0  0  0
  162.3080  213.3190  147.9880 C   0  0  0  0  0  0  0  0  0  0  0  0
  161.4880  214.4440  148.5350 C   0  0  0  0  0  2  0  0  0  0  0  0
  159.1810  213.5280  151.5400 C   0  0  0  0  0  2  0  0  0  0  0  0
  163.0880  213.4550  147.0590 O   0  0  0  0  0  0  0  0  0  0  0  0
  161.2980  212.4880  149.8800 C   0  0  2  0  0  3  0  0  0  0  0  0
  160.0670  214.4530  150.6820 C   0  0  0  0  0  2  0  0  0  0  0  0
  159.3950  213.3320  148.6730 O   0  0  0  0  0  1  0  0  0  0  0  0
  159.8070  212.2120  151.7530 N   0  0  0  0  0  0  0  0  0  0  0  0
  160.4110  211.5020  150.6160 C   0  0  0  0  0  2  0  0  0  0  0  0
  160.5130  213.7050  149.4320 C   0  0  1  0  0  0  0  0  0  0  0  0
  160.8970  206.9330  152.7220 O   0  0  0  0  0  0  0  0  0  0  0  0
  162.5150  207.0070  150.9270 C   0  0  0  0  0  2  0  0  0  0  0  0
  161.9900  204.8580  152.1790 C   0  0  0  0  0  2  0  0  0  0  0  0
  161.9590  204.4100  150.8510 O   0  0  0  0  0  0  0  0  0  0  0  0
  161.7290  206.2430  148.7200 C   0  0  0  0  0  2  0  0  0  0  0  0
  162.1000  206.3840  152.2640 C   0  0  2  0  0  3  0  0  0  0  0  0
  160.6500  204.6440  150.4120 C   0  0  1  0  0  3  0  0  0  0  0  0
  160.5060  205.9150  149.5510 C   0  0  1  0  0  3  0  0  0  0  0  0
  161.3780  207.1360  149.9020 C   0  0  1  0  0  3  0  0  0  0  0  0
  160.1350  203.4430  149.6370 C   0  0  0  0  0  2  0  0  0  0  0  0
  160.7550  202.2100  150.1310 C   0  0  0  0  0  0  0  0  0  0  0  0
  161.2440  201.2370  150.5210 N   0  0  0  0  0  0  0  0  0  0  0  0
  1 21  1  6  0  0  0
  1  9  1  0  0  0  0
  2  3  1  0  0  0  0
  3  4  2  0  0  0  0
  3  5  1  0  0  0  0
  6  4  1  0  0  0  0
  7  2  2  0  0  0  0
  7  1  1  0  0  0  0
  8  2  1  0  0  0  0
  8  6  2  0  0  0  0
  9  5  2  0  0  0  0
 11 12  1  0  0  0  0
 11 10  1  0  0  0  0
 12 20  1  0  0  0  0
 13 18  1  0  0  0  0
 14 11  2  0  0  0  0
 15 10  1  6  0  0  0
 15 19  1  0  0  0  0
 16 13  1  0  0  0  0
 18  8  1  0  0  0  0
 19 18  1  0  0  0  0
 20 17  1  6  0  0  0
 20 15  1  0  0  0  0
 20 16  1  0  0  0  0
 22 26  1  0  0  0  0
 23 26  1  0  0  0  0
 24 23  1  0  0  0  0
 26 21  1  6  0  0  0
 27 30  1  6  0  0  0
 27 24  1  0  0  0  0
 28 25  1  6  0  0  0
 28 29  1  0  0  0  0
 28 27  1  0  0  0  0
 29 25  1  6  0  0  0
 29 22  1  0  0  0  0
 30 31  1  0  0  0  0
 31 32  3  0  0  0  0
M  END
>  <MODEL>
8

>  <REMARK>
 VINA RESULT:      -5.9      3.218      7.574
  Name = 
  5 active torsions:
  status: ('A' for Active; 'I' for Inactive)
    1  A    between atoms: C_3  and  O_26
    2  A    between atoms: C_11  and  C_14
    3  A    between atoms: C_14  and  C_19
    4  A    between atoms: C_17  and  O_26
    5  A    between atoms: N_27  and  C_28
                            x       y       z     vdW  Elec       q    Type
                         _______ _______ _______ _____ _____    ______ ____

>  <TORSDO>
F 5

$$$$
=
 OpenBabel11072411533D

 32 37  0  0  1  0  0  0  0  0999 V2000
  161.9300  209.5460  152.2900 C   0  0  1  0  0  3  0  0  0  0  0  0
  161.8110  208.1870  150.2480 C   0  0  0  0  0  0  0  0  0  0  0  0
  161.9420  209.3680  149.4630 C   0  0  0  0  0  0  0  0  0  0  0  0
  161.9020  209.1300  148.1940 N   0  0  0  0  0  0  0  0  0  0  0  0
  162.0220  210.6580  150.0620 N   0  0  0  0  0  0  0  0  0  0  0  0
  161.7470  207.7060  148.0650 C   0  0  0  0  0  3  0  0  0  0  0  0
  161.7720  208.2160  151.5740 C   0  0  0  0  0  3  0  0  0  0  0  0
  161.6880  207.1240  149.2680 C   0  0  0  0  0  0  0  0  0  0  0  0
  162.0080  210.7610  151.3630 C   0  0  0  0  0  3  0  0  0  0  0  0
  161.5190  202.4590  147.5040 C   0  0  0  0  0  2  0  0  0  0  0  0
  160.6230  201.3960  148.0430 C   0  0  0  0  0  0  0  0  0  0  0  0
  159.9940  201.7430  149.3550 C   0  0  0  0  0  2  0  0  0  0  0  0
  160.8950  205.2620  150.7680 C   0  0  0  0  0  2  0  0  0  0  0  0
  160.4240  200.3380  147.4680 O   0  0  0  0  0  0  0  0  0  0  0  0
  161.1560  203.6010  148.4240 C   0  0  2  0  0  3  0  0  0  0  0  0
  160.0020  204.0240  150.5470 C   0  0  0  0  0  2  0  0  0  0  0  0
  161.9150  202.5830  150.4680 O   0  0  0  0  0  1  0  0  0  0  0  0
  161.5170  205.7200  149.5130 N   0  0  0  0  0  0  0  0  0  0  0  0
  162.1380  204.7410  148.6110 C   0  0  0  0  0  2  0  0  0  0  0  0
  160.7760  202.9800  149.7530 C   0  0  1  0  0  0  0  0  0  0  0  0
  160.8880  209.7170  153.2040 O   0  0  0  0  0  0  0  0  0  0  0  0
  161.6750  210.5340  155.3380 C   0  0  0  0  0  2  0  0  0  0  0  0
  160.0260  211.8470  153.9200 C   0  0  0  0  0  2  0  0  0  0  0  0
  159.4270  211.9390  155.1840 O   0  0  0  0  0  0  0  0  0  0  0  0
  160.1740  210.1830  157.2600 C   0  0  0  0  0  2  0  0  0  0  0  0
  161.2100  210.8750  153.9190 C   0  0  2  0  0  3  0  0  0  0  0  0
  158.6320  210.7910  155.3010 C   0  0  1  0  0  3  0  0  0  0  0  0
  159.2810  209.6770  156.1480 C   0  0  1  0  0  3  0  0  0  0  0  0
  160.8090  209.4920  156.0620 C   0  0  1  0  0  3  0  0  0  0  0  0
  157.2760  211.1490  155.8850 C   0  0  0  0  0  2  0  0  0  0  0  0
  156.5640  212.0710  154.9960 C   0  0  0  0  0  0  0  0  0  0  0  0
  156.0010  212.8000  154.2950 N   0  0  0  0  0  0  0  0  0  0  0  0
  1 21  1  1  0  0  0
  2  7  2  0  0  0  0
  3  5  1  0  0  0  0
  3  2  1  0  0  0  0
  4  3  2  0  0  0  0
  5  9  2  0  0  0  0
  6  4  1  0  0  0  0
  6  8  2  0  0  0  0
  7  1  1  0  0  0  0
  8 18  1  0  0  0  0
  8  2  1  0  0  0  0
  9  1  1  0  0  0  0
 10 11  1  0  0  0  0
 11 12  1  0  0  0  0
 12 20  1  0  0  0  0
 14 11  2  0  0  0  0
 15 10  1  6  0  0  0
 15 19  1  0  0  0  0
 15 20  1  0  0  0  0
 16 13  1  0  0  0  0
 18 13  1  0  0  0  0
 19 18  1  0  0  0  0
 20 17  1  1  0  0  0
 20 16  1  0  0  0  0
 23 24  1  0  0  0  0
 24 27  1  0  0  0  0
 26 21  1  1  0  0  0
 26 23  1  0  0  0  0
 26 22  1  0  0  0  0
 27 30  1  1  0  0  0
 27 28  1  0  0  0  0
 28 25  1  1  0  0  0
 29 22  1  6  0  0  0
 29 28  1  0  0  0  0
 29 25  1  0  0  0  0
 31 30  1  0  0  0  0
 32 31  3  0  0  0  0
M  END
>  <MODEL>
9

>  <REMARK>
 VINA RESULT:      -5.7      3.789      8.662
  Name = 
  5 active torsions:
  status: ('A' for Active; 'I' for Inactive)
    1  A    between atoms: C_3  and  O_26
    2  A    between atoms: C_11  and  C_14
    3  A    between atoms: C_14  and  C_19
    4  A    between atoms: C_17  and  O_26
    5  A    between atoms: N_27  and  C_28
                            x       y       z     vdW  Elec       q    Type
                         _______ _______ _______ _____ _____    ______ ____

>  <TORSDO>
F 5

$$$$
