=
 OpenBabel11072414323D

 36 38  0  0  1  0  0  0  0  0999 V2000
  161.9210  208.1720  151.4430 C   0  0  0  0  0  2  0  0  0  0  0  0
  160.8460  208.3170  152.3240 O   0  0  0  0  0  0  0  0  0  0  0  0
  159.7760  211.5370  154.4950 C   0  0  2  0  0  3  0  0  0  0  0  0
  159.7500  212.9170  152.2920 C   0  0  0  0  0  2  0  0  0  0  0  0
  160.5680  210.5670  155.1580 O   0  0  0  0  0  0  0  0  0  0  0  0
  156.8650  213.0320  155.4890 O   0  0  0  0  0  0  0  0  0  0  0  0
  160.7580  210.6870  152.3940 C   0  0  0  0  0  3  0  0  0  0  0  0
  157.5220  212.5840  154.5110 C   0  0  0  0  0  0  0  0  0  0  0  0
  157.9930  210.6960  155.8640 F   0  0  0  0  0  0  0  0  0  0  0  0
  158.2430  212.9300  152.0810 C   0  0  0  0  0  2  0  0  0  0  0  0
  157.5440  213.3380  153.2940 N   0  0  0  0  0  2  0  0  0  0  0  0
  161.1690  209.4260  153.1130 C   0  0  1  0  0  3  0  0  0  0  0  0
  160.4620  209.3330  154.4800 C   0  0  1  0  0  3  0  0  0  0  0  0
  158.2690  211.2900  154.6440 C   0  0  2  0  0  3  0  0  0  0  0  0
  160.1630  211.6950  153.0430 C   0  0  0  0  0  0  0  0  0  0  0  0
  159.9710  207.3710  155.9810 C   0  0  0  0  0  1  0  0  0  0  0  0
  161.8880  208.7810  156.3990 N   0  0  0  0  0  1  0  0  0  0  0  0
  161.0620  208.2160  155.3440 C   0  0  2  0  0  3  0  0  0  0  0  0
  161.5350  207.2600  150.2700 C   0  0  0  0  0  2  0  0  0  0  0  0
  161.9580  209.3140  149.1220 C   0  0  0  0  0  1  0  0  0  0  0  0
  161.5800  207.9120  148.9520 N   0  0  0  0  0  0  0  0  0  0  0  0
  162.5470  207.2320  148.0890 C   0  0  0  0  0  2  0  0  0  0  0  0
  161.8440  206.3980  147.0360 C   0  0  0  0  0  2  0  0  0  0  0  0
  162.6570  205.1420  146.7700 C   0  0  0  0  0  2  0  0  0  0  0  0
  161.2440  203.3420  147.8090 C   0  0  0  0  0  0  0  0  0  0  0  0
  161.0970  204.0350  148.8530 O   0  0  0  0  0  0  0  0  0  0  0  0
  160.2220  201.4210  145.4270 C   0  0  0  0  0  2  0  0  0  0  0  0
  161.5840  203.5110  145.2570 C   0  0  0  0  0  2  0  0  0  0  0  0
  161.7880  203.9800  146.6290 N   0  0  0  0  0  0  0  0  0  0  0  0
  160.1950  202.9120  145.0900 C   0  0  0  0  0  2  0  0  0  0  0  0
  161.1600  201.0990  146.5910 C   0  0  0  0  0  2  0  0  0  0  0  0
  160.8370  201.8770  147.8740 C   0  0  2  0  0  0  0  0  0  0  0  0
  159.4650  201.8020  148.1390 O   0  0  0  0  0  1  0  0  0  0  0  0
  161.6120  201.2350  149.0320 C   0  0  0  0  0  2  0  0  0  0  0  0
  161.2590  202.1000  151.2400 O   0  0  0  0  0  1  0  0  0  0  0  0
  160.8140  201.1430  150.3290 C   0  0  0  0  0  2  0  0  0  0  0  0
  1  2  1  0  0  0  0
  3 15  1  6  0  0  0
  3 14  1  0  0  0  0
  3  5  1  0  0  0  0
  4 15  1  0  0  0  0
  7 15  2  0  0  0  0
  7 12  1  0  0  0  0
  8 14  1  0  0  0  0
  8  6  2  0  0  0  0
 10  4  1  0  0  0  0
 10 11  1  0  0  0  0
 11  8  1  0  0  0  0
 12  2  1  6  0  0  0
 12 13  1  0  0  0  0
 13  5  1  0  0  0  0
 13 18  1  1  0  0  0
 14  9  1  1  0  0  0
 18 16  1  1  0  0  0
 18 17  1  0  0  0  0
 19  1  1  0  0  0  0
 21 20  1  0  0  0  0
 21 19  1  0  0  0  0
 22 21  1  0  0  0  0
 23 22  1  0  0  0  0
 24 23  1  0  0  0  0
 25 32  1  0  0  0  0
 25 26  2  0  0  0  0
 27 31  1  0  0  0  0
 28 29  1  0  0  0  0
 29 24  1  0  0  0  0
 29 25  1  0  0  0  0
 30 28  1  0  0  0  0
 30 27  1  0  0  0  0
 31 32  1  0  0  0  0
 32 33  1  1  0  0  0
 32 34  1  0  0  0  0
 34 36  1  0  0  0  0
 36 35  1  0  0  0  0
M  END
>  <MODEL>
1

>  <REMARK>
 VINA RESULT:      -7.5      0.000      0.000
  Name = 
  11 active torsions:
  status: ('A' for Active; 'I' for Inactive)
    1  A    between atoms: N_10  and  C_22
    2  A    between atoms: C_14  and  O_18
    3  A    between atoms: C_14  and  C_19
    4  A    between atoms: C_17  and  C_32
    5  A    between atoms: O_18  and  C_30
    6  A    between atoms: C_19  and  N_26
    7  A    between atoms: C_22  and  C_31
    8  A    between atoms: C_25  and  C_32
    9  A    between atoms: N_26  and  C_29
   10  A    between atoms: C_27  and  C_34
   11  A    between atoms: C_29  and  C_31
                            x       y       z     vdW  Elec       q    Type
                         _______ _______ _______ _____ _____    ______ ____

>  <TORSDO>
F 11

$$$$
=
 OpenBabel11072414323D

 36 38  0  0  1  0  0  0  0  0999 V2000
  162.2810  208.8710  150.9450 C   0  0  0  0  0  2  0  0  0  0  0  0
  162.6080  207.5240  150.7700 O   0  0  0  0  0  0  0  0  0  0  0  0
  160.5720  204.8250  148.5800 C   0  0  2  0  0  3  0  0  0  0  0  0
  160.4550  206.5800  146.6670 C   0  0  0  0  0  2  0  0  0  0  0  0
  160.4150  204.7410  149.9870 O   0  0  0  0  0  0  0  0  0  0  0  0
  161.3070  202.3720  146.3130 O   0  0  0  0  0  0  0  0  0  0  0  0
  161.1380  207.2030  148.9350 C   0  0  0  0  0  3  0  0  0  0  0  0
  161.4650  203.5840  146.6210 C   0  0  0  0  0  0  0  0  0  0  0  0
  161.8830  202.8290  148.8280 F   0  0  0  0  0  0  0  0  0  0  0  0
  161.5640  206.0040  145.7980 C   0  0  0  0  0  2  0  0  0  0  0  0
  161.3800  204.5730  145.5890 N   0  0  0  0  0  2  0  0  0  0  0  0
  161.4130  206.9060  150.3880 C   0  0  1  0  0  3  0  0  0  0  0  0
  161.5030  205.3840  150.6170 C   0  0  1  0  0  3  0  0  0  0  0  0
  161.7250  203.9630  148.0490 C   0  0  2  0  0  3  0  0  0  0  0  0
  160.6920  206.2530  148.1030 C   0  0  0  0  0  0  0  0  0  0  0  0
  160.9160  203.6650  152.3610 C   0  0  0  0  0  1  0  0  0  0  0  0
  160.7270  206.0220  152.8570 N   0  0  0  0  0  1  0  0  0  0  0  0
  161.5050  205.0440  152.1140 C   0  0  2  0  0  3  0  0  0  0  0  0
  161.0090  209.0110  151.7910 C   0  0  0  0  0  2  0  0  0  0  0  0
  161.5370  210.6160  153.4830 C   0  0  0  0  0  1  0  0  0  0  0  0
  160.7470  210.3750  152.2760 N   0  0  0  0  0  0  0  0  0  0  0  0
  161.0990  211.3500  151.2420 C   0  0  0  0  0  2  0  0  0  0  0  0
  160.0130  212.3970  151.0900 C   0  0  0  0  0  2  0  0  0  0  0  0
  160.4840  213.4670  150.1190 C   0  0  0  0  0  2  0  0  0  0  0  0
  160.5000  212.8580  147.6800 C   0  0  0  0  0  0  0  0  0  0  0  0
  161.4870  212.0920  147.8610 O   0  0  0  0  0  0  0  0  0  0  0  0
  157.6190  213.6530  146.4670 C   0  0  0  0  0  2  0  0  0  0  0  0
  158.4030  213.8200  148.8360 C   0  0  0  0  0  2  0  0  0  0  0  0
  159.7910  213.3520  148.8420 N   0  0  0  0  0  0  0  0  0  0  0  0
  157.5640  213.0130  147.8550 C   0  0  0  0  0  2  0  0  0  0  0  0
  158.9950  214.2320  146.1420 C   0  0  0  0  0  2  0  0  0  0  0  0
  160.1340  213.2080  146.2460 C   0  0  2  0  0  0  0  0  0  0  0  0
  159.7770  212.0350  145.5730 O   0  0  0  0  0  1  0  0  0  0  0  0
  161.3820  213.8100  145.5860 C   0  0  0  0  0  2  0  0  0  0  0  0
  163.2620  213.1850  144.2370 O   0  0  0  0  0  1  0  0  0  0  0  0
  161.8860  213.0160  144.3860 C   0  0  0  0  0  2  0  0  0  0  0  0
  1 19  1  0  0  0  0
  2  1  1  0  0  0  0
  3 15  1  1  0  0  0
  3  5  1  0  0  0  0
  4 15  1  0  0  0  0
  5 13  1  0  0  0  0
  6  8  2  0  0  0  0
  7 12  1  0  0  0  0
  8 14  1  0  0  0  0
 10  4  1  0  0  0  0
 11 10  1  0  0  0  0
 11  8  1  0  0  0  0
 12 13  1  0  0  0  0
 12  2  1  6  0  0  0
 13 18  1  1  0  0  0
 14  3  1  0  0  0  0
 14  9  1  1  0  0  0
 15  7  2  0  0  0  0
 18 16  1  6  0  0  0
 18 17  1  0  0  0  0
 19 21  1  0  0  0  0
 21 20  1  0  0  0  0
 22 21  1  0  0  0  0
 23 22  1  0  0  0  0
 24 23  1  0  0  0  0
 25 26  2  0  0  0  0
 25 29  1  0  0  0  0
 27 30  1  0  0  0  0
 28 29  1  0  0  0  0
 29 24  1  0  0  0  0
 30 28  1  0  0  0  0
 31 32  1  0  0  0  0
 31 27  1  0  0  0  0
 32 33  1  6  0  0  0
 32 25  1  0  0  0  0
 34 32  1  0  0  0  0
 35 36  1  0  0  0  0
 36 34  1  0  0  0  0
M  END
>  <MODEL>
2

>  <REMARK>
 VINA RESULT:      -6.9      4.275      9.267
  Name = 
  11 active torsions:
  status: ('A' for Active; 'I' for Inactive)
    1  A    between atoms: N_10  and  C_22
    2  A    between atoms: C_14  and  O_18
    3  A    between atoms: C_14  and  C_19
    4  A    between atoms: C_17  and  C_32
    5  A    between atoms: O_18  and  C_30
    6  A    between atoms: C_19  and  N_26
    7  A    between atoms: C_22  and  C_31
    8  A    between atoms: C_25  and  C_32
    9  A    between atoms: N_26  and  C_29
   10  A    between atoms: C_27  and  C_34
   11  A    between atoms: C_29  and  C_31
                            x       y       z     vdW  Elec       q    Type
                         _______ _______ _______ _____ _____    ______ ____

>  <TORSDO>
F 11

$$$$
=
 OpenBabel11072414323D

 36 38  0  0  1  0  0  0  0  0999 V2000
  161.5380  209.8940  151.5830 C   0  0  0  0  0  2  0  0  0  0  0  0
  160.8860  209.3510  152.6930 O   0  0  0  0  0  0  0  0  0  0  0  0
  158.9670  211.9830  155.0630 C   0  0  2  0  0  3  0  0  0  0  0  0
  158.9580  213.6530  153.0700 C   0  0  0  0  0  2  0  0  0  0  0  0
  159.8370  211.0720  155.7110 O   0  0  0  0  0  0  0  0  0  0  0  0
  155.7250  212.8000  155.7870 O   0  0  0  0  0  0  0  0  0  0  0  0
  160.3460  211.6350  153.0440 C   0  0  0  0  0  3  0  0  0  0  0  0
  156.5720  212.6210  154.8710 C   0  0  0  0  0  0  0  0  0  0  0  0
  157.2150  210.6590  156.0330 F   0  0  0  0  0  0  0  0  0  0  0  0
  157.5140  213.4430  152.6390 C   0  0  0  0  0  2  0  0  0  0  0  0
  156.6050  213.5420  153.7750 N   0  0  0  0  0  2  0  0  0  0  0  0
  160.8930  210.3690  153.6530 C   0  0  1  0  0  3  0  0  0  0  0  0
  160.0500  209.9530  154.8760 C   0  0  1  0  0  3  0  0  0  0  0  0
  157.5260  211.4660  154.9520 C   0  0  2  0  0  3  0  0  0  0  0  0
  159.4960  212.4200  153.7160 C   0  0  0  0  0  0  0  0  0  0  0  0
  159.7470  207.7470  156.0510 C   0  0  0  0  0  1  0  0  0  0  0  0
  161.3230  209.3730  156.8920 N   0  0  0  0  0  1  0  0  0  0  0  0
  160.7360  208.8370  155.6750 C   0  0  2  0  0  3  0  0  0  0  0  0
  162.3070  208.8030  150.8240 C   0  0  0  0  0  2  0  0  0  0  0  0
  161.9090  209.8060  148.6900 C   0  0  0  0  0  1  0  0  0  0  0  0
  161.8270  208.5610  149.4550 N   0  0  0  0  0  0  0  0  0  0  0  0
  162.6390  207.5250  148.8150 C   0  0  0  0  0  2  0  0  0  0  0  0
  161.8620  206.8260  147.7170 C   0  0  0  0  0  2  0  0  0  0  0  0
  160.5820  206.2510  148.3000 C   0  0  0  0  0  2  0  0  0  0  0  0
  161.1970  203.8140  148.3210 C   0  0  0  0  0  0  0  0  0  0  0  0
  161.7370  203.9240  147.1850 O   0  0  0  0  0  0  0  0  0  0  0  0
  161.0380  202.8040  151.3800 C   0  0  0  0  0  2  0  0  0  0  0  0
  160.6870  205.1150  150.4910 C   0  0  0  0  0  2  0  0  0  0  0  0
  160.8520  205.0240  149.0380 N   0  0  0  0  0  0  0  0  0  0  0  0
  161.6610  204.1890  151.2060 C   0  0  0  0  0  2  0  0  0  0  0  0
  160.1850  202.3880  150.1820 C   0  0  0  0  0  2  0  0  0  0  0  0
  160.9460  202.4100  148.8490 C   0  0  2  0  0  0  0  0  0  0  0  0
  162.1740  201.7570  148.9960 O   0  0  0  0  0  1  0  0  0  0  0  0
  160.1010  201.6690  147.8030 C   0  0  0  0  0  2  0  0  0  0  0  0
  160.3610  201.3640  145.4400 O   0  0  0  0  0  1  0  0  0  0  0  0
  160.9230  201.0500  146.6770 C   0  0  0  0  0  2  0  0  0  0  0  0
  1  2  1  0  0  0  0
  3 15  1  6  0  0  0
  3  5  1  0  0  0  0
  4 15  1  0  0  0  0
  7 12  1  0  0  0  0
  7 15  2  0  0  0  0
  8 14  1  0  0  0  0
  8  6  2  0  0  0  0
 10  4  1  0  0  0  0
 10 11  1  0  0  0  0
 11  8  1  0  0  0  0
 12  2  1  6  0  0  0
 12 13  1  0  0  0  0
 13 18  1  1  0  0  0
 13  5  1  0  0  0  0
 14  3  1  0  0  0  0
 14  9  1  1  0  0  0
 18 16  1  1  0  0  0
 18 17  1  0  0  0  0
 19  1  1  0  0  0  0
 20 21  1  0  0  0  0
 21 19  1  0  0  0  0
 22 21  1  0  0  0  0
 23 24  1  0  0  0  0
 23 22  1  0  0  0  0
 24 29  1  0  0  0  0
 25 32  1  0  0  0  0
 25 29  1  0  0  0  0
 26 25  2  0  0  0  0
 28 30  1  0  0  0  0
 29 28  1  0  0  0  0
 30 27  1  0  0  0  0
 31 27  1  0  0  0  0
 32 33  1  1  0  0  0
 32 31  1  0  0  0  0
 34 32  1  0  0  0  0
 35 36  1  0  0  0  0
 36 34  1  0  0  0  0
M  END
>  <MODEL>
3

>  <REMARK>
 VINA RESULT:      -6.7      1.441      2.545
  Name = 
  11 active torsions:
  status: ('A' for Active; 'I' for Inactive)
    1  A    between atoms: N_10  and  C_22
    2  A    between atoms: C_14  and  O_18
    3  A    between atoms: C_14  and  C_19
    4  A    between atoms: C_17  and  C_32
    5  A    between atoms: O_18  and  C_30
    6  A    between atoms: C_19  and  N_26
    7  A    between atoms: C_22  and  C_31
    8  A    between atoms: C_25  and  C_32
    9  A    between atoms: N_26  and  C_29
   10  A    between atoms: C_27  and  C_34
   11  A    between atoms: C_29  and  C_31
                            x       y       z     vdW  Elec       q    Type
                         _______ _______ _______ _____ _____    ______ ____

>  <TORSDO>
F 11

$$$$
=
 OpenBabel11072414323D

 36 38  0  0  1  0  0  0  0  0999 V2000
  162.1730  206.4910  152.7060 C   0  0  0  0  0  2  0  0  0  0  0  0
  162.4970  205.3800  151.9240 O   0  0  0  0  0  0  0  0  0  0  0  0
  160.7330  204.4680  148.4190 C   0  0  2  0  0  3  0  0  0  0  0  0
  160.7650  207.0010  147.8330 C   0  0  0  0  0  2  0  0  0  0  0  0
  160.4440  203.6110  149.5100 O   0  0  0  0  0  0  0  0  0  0  0  0
  161.7300  203.6990  145.2390 O   0  0  0  0  0  0  0  0  0  0  0  0
  161.2160  206.2070  150.1060 C   0  0  0  0  0  3  0  0  0  0  0  0
  161.8340  204.5180  146.1910 C   0  0  0  0  0  0  0  0  0  0  0  0
  162.0530  202.6340  147.6110 F   0  0  0  0  0  0  0  0  0  0  0  0
  161.9630  206.9740  146.8950 C   0  0  0  0  0  2  0  0  0  0  0  0
  161.8290  205.9190  145.8970 N   0  0  0  0  0  2  0  0  0  0  0  0
  161.3560  205.1310  151.1530 C   0  0  1  0  0  3  0  0  0  0  0  0
  161.4540  203.7430  150.4890 C   0  0  1  0  0  3  0  0  0  0  0  0
  161.9480  204.0140  147.6000 C   0  0  2  0  0  3  0  0  0  0  0  0
  160.8700  205.9110  148.8470 C   0  0  0  0  0  0  0  0  0  0  0  0
  160.9620  201.3000  150.8540 C   0  0  0  0  0  1  0  0  0  0  0  0
  160.2840  202.9410  152.4930 N   0  0  0  0  0  1  0  0  0  0  0  0
  161.3190  202.6180  151.5230 C   0  0  2  0  0  3  0  0  0  0  0  0
  161.2490  206.0850  153.8620 C   0  0  0  0  0  2  0  0  0  0  0  0
  160.3520  207.1310  155.8170 C   0  0  0  0  0  1  0  0  0  0  0  0
  160.3790  207.1640  154.3550 N   0  0  0  0  0  0  0  0  0  0  0  0
  160.8770  208.4600  153.8910 C   0  0  0  0  0  2  0  0  0  0  0  0
  161.3900  209.2920  155.0500 C   0  0  0  0  0  2  0  0  0  0  0  0
  161.8290  210.6510  154.5330 C   0  0  0  0  0  2  0  0  0  0  0  0
  159.9120  212.1350  155.1980 C   0  0  0  0  0  0  0  0  0  0  0  0
  160.4920  212.4280  156.2800 O   0  0  0  0  0  0  0  0  0  0  0  0
  158.2340  212.8020  152.5250 C   0  0  0  0  0  2  0  0  0  0  0  0
  160.3490  211.4850  152.7390 C   0  0  0  0  0  2  0  0  0  0  0  0
  160.6770  211.4650  154.1660 N   0  0  0  0  0  0  0  0  0  0  0  0
  159.7510  212.8260  152.3390 C   0  0  0  0  0  2  0  0  0  0  0  0
  157.8060  212.0080  153.7590 C   0  0  0  0  0  2  0  0  0  0  0  0
  158.4430  212.5080  155.0630 C   0  0  2  0  0  0  0  0  0  0  0  0
  158.3230  213.9000  155.1440 O   0  0  0  0  0  1  0  0  0  0  0  0
  157.6950  211.8660  156.2390 C   0  0  0  0  0  2  0  0  0  0  0  0
  155.4410  212.4410  156.8170 O   0  0  0  0  0  1  0  0  0  0  0  0
  156.2110  211.6410  155.9740 C   0  0  0  0  0  2  0  0  0  0  0  0
  1 19  1  0  0  0  0
  2  1  1  0  0  0  0
  3 15  1  1  0  0  0
  3  5  1  0  0  0  0
  4 15  1  0  0  0  0
  5 13  1  0  0  0  0
  6  8  2  0  0  0  0
  7 12  1  0  0  0  0
  8 14  1  0  0  0  0
 10  4  1  0  0  0  0
 11  8  1  0  0  0  0
 11 10  1  0  0  0  0
 12  2  1  6  0  0  0
 13 12  1  0  0  0  0
 13 18  1  1  0  0  0
 14  9  1  6  0  0  0
 14  3  1  0  0  0  0
 15  7  2  0  0  0  0
 18 16  1  6  0  0  0
 18 17  1  0  0  0  0
 19 21  1  0  0  0  0
 21 20  1  0  0  0  0
 22 21  1  0  0  0  0
 22 23  1  0  0  0  0
 24 23  1  0  0  0  0
 25 26  2  0  0  0  0
 27 31  1  0  0  0  0
 28 29  1  0  0  0  0
 29 24  1  0  0  0  0
 29 25  1  0  0  0  0
 30 27  1  0  0  0  0
 30 28  1  0  0  0  0
 31 32  1  0  0  0  0
 32 33  1  1  0  0  0
 32 25  1  0  0  0  0
 32 34  1  0  0  0  0
 36 34  1  0  0  0  0
 36 35  1  0  0  0  0
M  END
>  <MODEL>
4

>  <REMARK>
 VINA RESULT:      -6.7      2.936      9.975
  Name = 
  11 active torsions:
  status: ('A' for Active; 'I' for Inactive)
    1  A    between atoms: N_10  and  C_22
    2  A    between atoms: C_14  and  O_18
    3  A    between atoms: C_14  and  C_19
    4  A    between atoms: C_17  and  C_32
    5  A    between atoms: O_18  and  C_30
    6  A    between atoms: C_19  and  N_26
    7  A    between atoms: C_22  and  C_31
    8  A    between atoms: C_25  and  C_32
    9  A    between atoms: N_26  and  C_29
   10  A    between atoms: C_27  and  C_34
   11  A    between atoms: C_29  and  C_31
                            x       y       z     vdW  Elec       q    Type
                         _______ _______ _______ _____ _____    ______ ____

>  <TORSDO>
F 11

$$$$
=
 OpenBabel11072414323D

 36 38  0  0  1  0  0  0  0  0999 V2000
  161.8150  207.2170  151.9090 C   0  0  0  0  0  2  0  0  0  0  0  0
  160.7060  207.7830  152.5430 O   0  0  0  0  0  0  0  0  0  0  0  0
  160.1070  211.3120  154.3890 C   0  0  2  0  0  3  0  0  0  0  0  0
  159.9650  212.4270  152.0450 C   0  0  0  0  0  2  0  0  0  0  0  0
  160.8850  210.3590  155.0920 O   0  0  0  0  0  0  0  0  0  0  0  0
  157.4320  213.1600  155.4520 O   0  0  0  0  0  0  0  0  0  0  0  0
  160.8060  210.1440  152.3280 C   0  0  0  0  0  3  0  0  0  0  0  0
  157.9520  212.5470  154.4810 C   0  0  0  0  0  0  0  0  0  0  0  0
  158.4110  210.7940  156.0070 F   0  0  0  0  0  0  0  0  0  0  0  0
  158.4500  212.5470  151.9720 C   0  0  0  0  0  2  0  0  0  0  0  0
  157.9100  213.1520  153.1830 N   0  0  0  0  0  2  0  0  0  0  0  0
  161.1890  208.9430  153.1560 C   0  0  1  0  0  3  0  0  0  0  0  0
  160.6180  209.0690  154.5830 C   0  0  1  0  0  3  0  0  0  0  0  0
  158.6080  211.2160  154.7040 C   0  0  2  0  0  3  0  0  0  0  0  0
  160.3570  211.2680  152.9000 C   0  0  0  0  0  0  0  0  0  0  0  0
  160.1240  207.1680  156.1590 C   0  0  0  0  0  1  0  0  0  0  0  0
  161.9890  208.6460  156.5740 N   0  0  0  0  0  1  0  0  0  0  0  0
  161.2150  208.0110  155.5200 C   0  0  2  0  0  3  0  0  0  0  0  0
  162.2030  205.8930  152.5820 C   0  0  0  0  0  2  0  0  0  0  0  0
  160.7540  203.9910  152.5460 C   0  0  0  0  0  1  0  0  0  0  0  0
  161.8180  204.6910  151.8260 N   0  0  0  0  0  0  0  0  0  0  0  0
  161.3560  205.0660  150.4890 C   0  0  0  0  0  2  0  0  0  0  0  0
  160.5150  203.9640  149.8750 C   0  0  0  0  0  2  0  0  0  0  0  0
  161.4330  202.9250  149.2520 C   0  0  0  0  0  2  0  0  0  0  0  0
  161.9130  203.8850  146.9800 C   0  0  0  0  0  0  0  0  0  0  0  0
  162.9610  204.4370  147.4160 O   0  0  0  0  0  0  0  0  0  0  0  0
  160.1890  202.2010  144.8360 C   0  0  0  0  0  2  0  0  0  0  0  0
  160.3800  201.8340  147.3020 C   0  0  0  0  0  2  0  0  0  0  0  0
  161.2670  202.8860  147.8050 N   0  0  0  0  0  0  0  0  0  0  0  0
  160.8340  201.3520  145.9320 C   0  0  0  0  0  2  0  0  0  0  0  0
  160.0670  203.6730  145.2280 C   0  0  0  0  0  2  0  0  0  0  0  0
  161.4040  204.3200  145.6130 C   0  0  2  0  0  0  0  0  0  0  0  0
  162.3730  204.0090  144.6530 O   0  0  0  0  0  1  0  0  0  0  0  0
  161.2060  205.8410  145.6580 C   0  0  0  0  0  2  0  0  0  0  0  0
  161.3340  207.3150  147.5440 O   0  0  0  0  0  1  0  0  0  0  0  0
  160.5460  206.3360  146.9400 C   0  0  0  0  0  2  0  0  0  0  0  0
  1  2  1  0  0  0  0
  1 19  1  0  0  0  0
  3 15  1  6  0  0  0
  3 14  1  0  0  0  0
  3  5  1  0  0  0  0
  4 15  1  0  0  0  0
  7 15  2  0  0  0  0
  7 12  1  0  0  0  0
  8 14  1  0  0  0  0
  8  6  2  0  0  0  0
 10  4  1  0  0  0  0
 10 11  1  0  0  0  0
 11  8  1  0  0  0  0
 12  2  1  6  0  0  0
 12 13  1  0  0  0  0
 13  5  1  0  0  0  0
 13 18  1  1  0  0  0
 14  9  1  1  0  0  0
 18 16  1  1  0  0  0
 18 17  1  0  0  0  0
 21 20  1  0  0  0  0
 21 19  1  0  0  0  0
 22 21  1  0  0  0  0
 23 22  1  0  0  0  0
 24 23  1  0  0  0  0
 25 26  2  0  0  0  0
 25 29  1  0  0  0  0
 27 31  1  0  0  0  0
 27 30  1  0  0  0  0
 28 29  1  0  0  0  0
 29 24  1  0  0  0  0
 30 28  1  0  0  0  0
 31 32  1  0  0  0  0
 32 33  1  6  0  0  0
 32 34  1  0  0  0  0
 32 25  1  0  0  0  0
 34 36  1  0  0  0  0
 36 35  1  0  0  0  0
M  END
>  <MODEL>
5

>  <REMARK>
 VINA RESULT:      -6.7      1.761      2.859
  Name = 
  11 active torsions:
  status: ('A' for Active; 'I' for Inactive)
    1  A    between atoms: N_10  and  C_22
    2  A    between atoms: C_14  and  O_18
    3  A    between atoms: C_14  and  C_19
    4  A    between atoms: C_17  and  C_32
    5  A    between atoms: O_18  and  C_30
    6  A    between atoms: C_19  and  N_26
    7  A    between atoms: C_22  and  C_31
    8  A    between atoms: C_25  and  C_32
    9  A    between atoms: N_26  and  C_29
   10  A    between atoms: C_27  and  C_34
   11  A    between atoms: C_29  and  C_31
                            x       y       z     vdW  Elec       q    Type
                         _______ _______ _______ _____ _____    ______ ____

>  <TORSDO>
F 11

$$$$
=
 OpenBabel11072414323D

 36 38  0  0  1  0  0  0  0  0999 V2000
  162.0940  209.2270  150.4750 C   0  0  0  0  0  2  0  0  0  0  0  0
  162.4410  207.8790  150.3580 O   0  0  0  0  0  0  0  0  0  0  0  0
  160.5150  204.9570  148.3630 C   0  0  2  0  0  3  0  0  0  0  0  0
  160.5710  206.4690  146.2500 C   0  0  0  0  0  2  0  0  0  0  0  0
  160.2560  205.0450  149.7540 O   0  0  0  0  0  0  0  0  0  0  0  0
  161.3640  202.2410  146.4660 O   0  0  0  0  0  0  0  0  0  0  0  0
  161.1020  207.3540  148.4710 C   0  0  0  0  0  3  0  0  0  0  0  0
  161.5230  203.4790  146.6380 C   0  0  0  0  0  0  0  0  0  0  0  0
  161.7660  202.9920  148.9440 F   0  0  0  0  0  0  0  0  0  0  0  0
  161.7290  205.7810  145.5410 C   0  0  0  0  0  2  0  0  0  0  0  0
  161.5320  204.3370  145.4910 N   0  0  0  0  0  2  0  0  0  0  0  0
  161.2650  207.2320  149.9660 C   0  0  1  0  0  3  0  0  0  0  0  0
  161.3080  205.7480  150.3820 C   0  0  1  0  0  3  0  0  0  0  0  0
  161.6870  204.0250  148.0260 C   0  0  2  0  0  3  0  0  0  0  0  0
  160.6980  206.3160  147.7290 C   0  0  0  0  0  0  0  0  0  0  0  0
  162.5120  205.9250  152.5870 C   0  0  0  0  0  1  0  0  0  0  0  0
  160.8260  204.2280  152.2480 N   0  0  0  0  0  1  0  0  0  0  0  0
  161.1950  205.5920  151.9040 C   0  0  2  0  0  3  0  0  0  0  0  0
  162.5810  209.7950  151.8150 C   0  0  0  0  0  2  0  0  0  0  0  0
  160.5600  211.0700  151.9060 C   0  0  0  0  0  1  0  0  0  0  0  0
  161.5080  210.2840  152.6950 N   0  0  0  0  0  0  0  0  0  0  0  0
  160.8220  209.1540  153.3230 C   0  0  0  0  0  2  0  0  0  0  0  0
  161.0350  209.1550  154.8240 C   0  0  0  0  0  2  0  0  0  0  0  0
  159.6980  209.3590  155.5180 C   0  0  0  0  0  2  0  0  0  0  0  0
  158.1590  211.3460  155.4720 C   0  0  0  0  0  0  0  0  0  0  0  0
  157.1510  210.5870  155.4830 O   0  0  0  0  0  0  0  0  0  0  0  0
  159.8730  213.9170  156.3980 C   0  0  0  0  0  2  0  0  0  0  0  0
  160.6060  211.5290  156.2710 C   0  0  0  0  0  2  0  0  0  0  0  0
  159.4550  210.7740  155.7720 N   0  0  0  0  0  0  0  0  0  0  0  0
  160.1570  212.6470  157.2010 C   0  0  0  0  0  2  0  0  0  0  0  0
  159.2320  213.6220  155.0420 C   0  0  0  0  0  2  0  0  0  0  0  0
  157.9320  212.8130  155.1390 C   0  0  2  0  0  0  0  0  0  0  0  0
  157.0990  213.3720  156.1140 O   0  0  0  0  0  1  0  0  0  0  0  0
  157.2270  212.8720  153.7770 C   0  0  0  0  0  2  0  0  0  0  0  0
  155.6680  214.0820  152.4160 O   0  0  0  0  0  1  0  0  0  0  0  0
  156.0520  213.8430  153.7350 C   0  0  0  0  0  2  0  0  0  0  0  0
  1 19  1  0  0  0  0
  2  1  1  0  0  0  0
  3 15  1  1  0  0  0
  3  5  1  0  0  0  0
  4 15  1  0  0  0  0
  5 13  1  0  0  0  0
  6  8  2  0  0  0  0
  7 12  1  0  0  0  0
  8 14  1  0  0  0  0
 10  4  1  0  0  0  0
 11 10  1  0  0  0  0
 11  8  1  0  0  0  0
 12  2  1  6  0  0  0
 12 13  1  0  0  0  0
 13 18  1  1  0  0  0
 14  3  1  0  0  0  0
 14  9  1  1  0  0  0
 15  7  2  0  0  0  0
 18 17  1  0  0  0  0
 18 16  1  1  0  0  0
 19 21  1  0  0  0  0
 20 21  1  0  0  0  0
 21 22  1  0  0  0  0
 22 23  1  0  0  0  0
 23 24  1  0  0  0  0
 24 29  1  0  0  0  0
 25 26  2  0  0  0  0
 25 29  1  0  0  0  0
 27 30  1  0  0  0  0
 28 30  1  0  0  0  0
 29 28  1  0  0  0  0
 31 32  1  0  0  0  0
 31 27  1  0  0  0  0
 32 25  1  0  0  0  0
 32 33  1  1  0  0  0
 34 32  1  0  0  0  0
 35 36  1  0  0  0  0
 36 34  1  0  0  0  0
M  END
>  <MODEL>
6

>  <REMARK>
 VINA RESULT:      -6.7      2.836     10.269
  Name = 
  11 active torsions:
  status: ('A' for Active; 'I' for Inactive)
    1  A    between atoms: N_10  and  C_22
    2  A    between atoms: C_14  and  O_18
    3  A    between atoms: C_14  and  C_19
    4  A    between atoms: C_17  and  C_32
    5  A    between atoms: O_18  and  C_30
    6  A    between atoms: C_19  and  N_26
    7  A    between atoms: C_22  and  C_31
    8  A    between atoms: C_25  and  C_32
    9  A    between atoms: N_26  and  C_29
   10  A    between atoms: C_27  and  C_34
   11  A    between atoms: C_29  and  C_31
                            x       y       z     vdW  Elec       q    Type
                         _______ _______ _______ _____ _____    ______ ____

>  <TORSDO>
F 11

$$$$
=
 OpenBabel11072414323D

 36 38  0  0  1  0  0  0  0  0999 V2000
  162.3280  209.3470  149.0510 C   0  0  0  0  0  2  0  0  0  0  0  0
  162.5870  208.0700  149.5550 O   0  0  0  0  0  0  0  0  0  0  0  0
  160.5650  204.9140  148.0770 C   0  0  2  0  0  3  0  0  0  0  0  0
  160.3240  206.2150  145.8390 C   0  0  0  0  0  2  0  0  0  0  0  0
  160.4610  205.1300  149.4740 O   0  0  0  0  0  0  0  0  0  0  0  0
  161.3010  202.0520  146.3560 O   0  0  0  0  0  0  0  0  0  0  0  0
  161.0650  207.3260  147.8920 C   0  0  0  0  0  3  0  0  0  0  0  0
  161.4300  203.3040  146.3920 C   0  0  0  0  0  0  0  0  0  0  0  0
  161.9490  203.0510  148.6900 F   0  0  0  0  0  0  0  0  0  0  0  0
  161.4200  205.4940  145.0690 C   0  0  0  0  0  2  0  0  0  0  0  0
  161.2760  204.0470  145.1770 N   0  0  0  0  0  2  0  0  0  0  0  0
  161.4000  207.3550  149.3630 C   0  0  1  0  0  3  0  0  0  0  0  0
  161.5480  205.9200  149.9080 C   0  0  1  0  0  3  0  0  0  0  0  0
  161.7270  203.9870  147.6950 C   0  0  2  0  0  3  0  0  0  0  0  0
  160.6220  206.2100  147.3020 C   0  0  0  0  0  0  0  0  0  0  0  0
  161.0780  204.6010  152.0010 C   0  0  0  0  0  1  0  0  0  0  0  0
  160.8300  207.0040  151.9900 N   0  0  0  0  0  1  0  0  0  0  0  0
  161.6130  205.9090  151.4410 C   0  0  2  0  0  3  0  0  0  0  0  0
  161.9960  210.3190  150.1920 C   0  0  0  0  0  2  0  0  0  0  0  0
  161.9320  211.7950  148.3120 C   0  0  0  0  0  1  0  0  0  0  0  0
  161.8070  211.7140  149.7680 N   0  0  0  0  0  0  0  0  0  0  0  0
  160.4870  212.1900  150.1850 C   0  0  0  0  0  2  0  0  0  0  0  0
  160.4590  212.4790  151.6730 C   0  0  0  0  0  2  0  0  0  0  0  0
  159.8370  211.2980  152.3990 C   0  0  0  0  0  2  0  0  0  0  0  0
  161.2540  210.5930  154.3510 C   0  0  0  0  0  0  0  0  0  0  0  0
  162.2160  210.3280  153.5790 O   0  0  0  0  0  0  0  0  0  0  0  0
  159.9180  211.8330  157.0120 C   0  0  0  0  0  2  0  0  0  0  0  0
  159.2080  212.1400  154.6340 C   0  0  0  0  0  2  0  0  0  0  0  0
  160.1360  211.3480  153.8240 N   0  0  0  0  0  0  0  0  0  0  0  0
  159.9290  212.7810  155.8120 C   0  0  0  0  0  2  0  0  0  0  0  0
  160.0760  210.3680  156.6050 C   0  0  0  0  0  2  0  0  0  0  0  0
  161.3430  210.0910  155.7850 C   0  0  2  0  0  0  0  0  0  0  0  0
  162.4460  210.6900  156.4030 O   0  0  0  0  0  1  0  0  0  0  0  0
  161.5560  208.5730  155.7290 C   0  0  0  0  0  2  0  0  0  0  0  0
  159.9730  206.9890  156.5840 O   0  0  0  0  0  1  0  0  0  0  0  0
  160.2760  207.7820  155.4780 C   0  0  0  0  0  2  0  0  0  0  0  0
  1  2  1  0  0  0  0
  1 19  1  0  0  0  0
  3 15  1  6  0  0  0
  3  5  1  0  0  0  0
  4 15  1  0  0  0  0
  5 13  1  0  0  0  0
  6  8  2  0  0  0  0
  7 12  1  0  0  0  0
  8 14  1  0  0  0  0
 10 11  1  0  0  0  0
 10  4  1  0  0  0  0
 11  8  1  0  0  0  0
 12  2  1  6  0  0  0
 12 13  1  0  0  0  0
 13 18  1  1  0  0  0
 14  3  1  0  0  0  0
 14  9  1  1  0  0  0
 15  7  2  0  0  0  0
 18 17  1  0  0  0  0
 18 16  1  1  0  0  0
 20 21  1  0  0  0  0
 21 22  1  0  0  0  0
 21 19  1  0  0  0  0
 22 23  1  0  0  0  0
 23 24  1  0  0  0  0
 24 29  1  0  0  0  0
 25 32  1  0  0  0  0
 26 25  2  0  0  0  0
 28 30  1  0  0  0  0
 29 25  1  0  0  0  0
 29 28  1  0  0  0  0
 30 27  1  0  0  0  0
 31 27  1  0  0  0  0
 32 33  1  1  0  0  0
 32 31  1  0  0  0  0
 34 32  1  0  0  0  0
 36 34  1  0  0  0  0
 36 35  1  0  0  0  0
M  END
>  <MODEL>
7

>  <REMARK>
 VINA RESULT:      -6.5      2.960      9.384
  Name = 
  11 active torsions:
  status: ('A' for Active; 'I' for Inactive)
    1  A    between atoms: N_10  and  C_22
    2  A    between atoms: C_14  and  O_18
    3  A    between atoms: C_14  and  C_19
    4  A    between atoms: C_17  and  C_32
    5  A    between atoms: O_18  and  C_30
    6  A    between atoms: C_19  and  N_26
    7  A    between atoms: C_22  and  C_31
    8  A    between atoms: C_25  and  C_32
    9  A    between atoms: N_26  and  C_29
   10  A    between atoms: C_27  and  C_34
   11  A    between atoms: C_29  and  C_31
                            x       y       z     vdW  Elec       q    Type
                         _______ _______ _______ _____ _____    ______ ____

>  <TORSDO>
F 11

$$$$
=
 OpenBabel11072414323D

 36 38  0  0  1  0  0  0  0  0999 V2000
  160.9700  209.4460  152.1420 C   0  0  0  0  0  2  0  0  0  0  0  0
  160.8660  208.9290  153.4360 O   0  0  0  0  0  0  0  0  0  0  0  0
  158.8260  211.9480  155.1530 C   0  0  2  0  0  3  0  0  0  0  0  0
  159.2910  213.3690  153.0270 C   0  0  0  0  0  2  0  0  0  0  0  0
  159.4950  211.0610  156.0330 O   0  0  0  0  0  0  0  0  0  0  0  0
  155.5950  213.0690  155.2190 O   0  0  0  0  0  0  0  0  0  0  0  0
  160.4810  211.2700  153.4500 C   0  0  0  0  0  3  0  0  0  0  0  0
  156.5610  212.7250  154.4860 C   0  0  0  0  0  0  0  0  0  0  0  0
  156.8290  210.8720  155.9390 F   0  0  0  0  0  0  0  0  0  0  0  0
  157.9240  213.2120  152.3770 C   0  0  0  0  0  2  0  0  0  0  0  0
  156.8540  213.5070  153.3230 N   0  0  0  0  0  2  0  0  0  0  0  0
  160.8060  210.0490  154.2720 C   0  0  1  0  0  3  0  0  0  0  0  0
  159.7410  209.8400  155.3680 C   0  0  1  0  0  3  0  0  0  0  0  0
  157.3830  211.5230  154.8500 C   0  0  2  0  0  3  0  0  0  0  0  0
  159.6050  212.1860  153.8810 C   0  0  0  0  0  0  0  0  0  0  0  0
  161.6970  208.7850  156.5530 C   0  0  0  0  0  1  0  0  0  0  0  0
  159.7710  207.4560  155.9510 N   0  0  0  0  0  1  0  0  0  0  0  0
  160.1860  208.7800  156.3840 C   0  0  2  0  0  3  0  0  0  0  0  0
  161.8830  208.5620  151.2820 C   0  0  0  0  0  2  0  0  0  0  0  0
  161.6430  207.9970  148.9700 C   0  0  0  0  0  1  0  0  0  0  0  0
  161.1710  207.7030  150.3230 N   0  0  0  0  0  0  0  0  0  0  0  0
  161.4070  206.2930  150.6410 C   0  0  0  0  0  2  0  0  0  0  0  0
  160.5660  205.3890  149.7620 C   0  0  0  0  0  2  0  0  0  0  0  0
  161.0940  203.9680  149.8580 C   0  0  0  0  0  2  0  0  0  0  0  0
  161.7330  204.0830  147.4300 C   0  0  0  0  0  0  0  0  0  0  0  0
  162.5820  204.9840  147.6780 O   0  0  0  0  0  0  0  0  0  0  0  0
  160.7030  201.3660  146.0290 C   0  0  0  0  0  2  0  0  0  0  0  0
  160.5750  202.0120  148.4420 C   0  0  0  0  0  2  0  0  0  0  0  0
  161.1640  203.3490  148.5400 N   0  0  0  0  0  0  0  0  0  0  0  0
  161.3170  201.1670  147.4150 C   0  0  0  0  0  2  0  0  0  0  0  0
  160.2510  202.8070  145.7880 C   0  0  0  0  0  2  0  0  0  0  0  0
  161.3710  203.8410  145.9720 C   0  0  2  0  0  0  0  0  0  0  0  0
  162.5170  203.4230  145.2870 O   0  0  0  0  0  1  0  0  0  0  0  0
  160.8900  205.1760  145.3890 C   0  0  0  0  0  2  0  0  0  0  0  0
  161.3600  205.6820  143.0930 O   0  0  0  0  0  1  0  0  0  0  0  0
  161.8610  205.7950  144.3890 C   0  0  0  0  0  2  0  0  0  0  0  0
  1  2  1  0  0  0  0
  3 15  1  6  0  0  0
  3  5  1  0  0  0  0
  4 15  1  0  0  0  0
  7 15  2  0  0  0  0
  7 12  1  0  0  0  0
  8 14  1  0  0  0  0
  8  6  2  0  0  0  0
 10  4  1  0  0  0  0
 10 11  1  0  0  0  0
 11  8  1  0  0  0  0
 12  2  1  6  0  0  0
 12 13  1  0  0  0  0
 13  5  1  0  0  0  0
 13 18  1  1  0  0  0
 14  3  1  0  0  0  0
 14  9  1  1  0  0  0
 17 18  1  0  0  0  0
 18 16  1  6  0  0  0
 19  1  1  0  0  0  0
 20 21  1  0  0  0  0
 21 22  1  0  0  0  0
 21 19  1  0  0  0  0
 23 24  1  0  0  0  0
 23 22  1  0  0  0  0
 25 26  2  0  0  0  0
 25 29  1  0  0  0  0
 27 30  1  0  0  0  0
 28 29  1  0  0  0  0
 29 24  1  0  0  0  0
 30 28  1  0  0  0  0
 31 32  1  0  0  0  0
 31 27  1  0  0  0  0
 32 33  1  6  0  0  0
 32 25  1  0  0  0  0
 34 32  1  0  0  0  0
 35 36  1  0  0  0  0
 36 34  1  0  0  0  0
M  END
>  <MODEL>
8

>  <REMARK>
 VINA RESULT:      -6.4      1.782      2.917
  Name = 
  11 active torsions:
  status: ('A' for Active; 'I' for Inactive)
    1  A    between atoms: N_10  and  C_22
    2  A    between atoms: C_14  and  O_18
    3  A    between atoms: C_14  and  C_19
    4  A    between atoms: C_17  and  C_32
    5  A    between atoms: O_18  and  C_30
    6  A    between atoms: C_19  and  N_26
    7  A    between atoms: C_22  and  C_31
    8  A    between atoms: C_25  and  C_32
    9  A    between atoms: N_26  and  C_29
   10  A    between atoms: C_27  and  C_34
   11  A    between atoms: C_29  and  C_31
                            x       y       z     vdW  Elec       q    Type
                         _______ _______ _______ _____ _____    ______ ____

>  <TORSDO>
F 11

$$$$
=
 OpenBabel11072414323D

 36 38  0  0  1  0  0  0  0  0999 V2000
  162.1730  206.5140  153.0480 C   0  0  0  0  0  2  0  0  0  0  0  0
  162.6070  206.0350  151.8090 O   0  0  0  0  0  0  0  0  0  0  0  0
  160.7190  204.5640  148.5690 C   0  0  2  0  0  3  0  0  0  0  0  0
  160.7350  206.9620  147.5670 C   0  0  0  0  0  2  0  0  0  0  0  0
  160.4680  203.9030  149.7970 O   0  0  0  0  0  0  0  0  0  0  0  0
  161.6030  203.2670  145.5300 O   0  0  0  0  0  0  0  0  0  0  0  0
  161.2640  206.5560  149.9230 C   0  0  0  0  0  3  0  0  0  0  0  0
  161.7410  204.2320  146.3270 C   0  0  0  0  0  0  0  0  0  0  0  0
  162.0080  202.6100  148.0340 F   0  0  0  0  0  0  0  0  0  0  0  0
  161.8990  206.7710  146.6060 C   0  0  0  0  0  2  0  0  0  0  0  0
  161.7280  205.5650  145.8040 N   0  0  0  0  0  2  0  0  0  0  0  0
  161.4390  205.6700  151.1310 C   0  0  1  0  0  3  0  0  0  0  0  0
  161.5110  204.1890  150.7050 C   0  0  1  0  0  3  0  0  0  0  0  0
  161.9050  203.9700  147.7960 C   0  0  2  0  0  3  0  0  0  0  0  0
  160.8740  206.0560  148.7450 C   0  0  0  0  0  0  0  0  0  0  0  0
  161.2160  201.8110  151.4790 C   0  0  0  0  0  1  0  0  0  0  0  0
  160.2930  203.6370  152.7630 N   0  0  0  0  0  1  0  0  0  0  0  0
  161.4110  203.2540  151.9170 C   0  0  2  0  0  3  0  0  0  0  0  0
  160.8770  207.3210  152.8900 C   0  0  0  0  0  2  0  0  0  0  0  0
  160.3490  207.0320  155.2040 C   0  0  0  0  0  1  0  0  0  0  0  0
  160.4320  208.0040  154.1140 N   0  0  0  0  0  0  0  0  0  0  0  0
  161.3730  209.0700  154.4630 C   0  0  0  0  0  2  0  0  0  0  0  0
  160.7510  210.0440  155.4440 C   0  0  0  0  0  2  0  0  0  0  0  0
  160.9940  211.4640  154.9600 C   0  0  0  0  0  2  0  0  0  0  0  0
  159.8060  212.1910  152.8680 C   0  0  0  0  0  0  0  0  0  0  0  0
  160.5660  211.4690  152.1650 O   0  0  0  0  0  0  0  0  0  0  0  0
  156.9540  213.4110  153.7520 C   0  0  0  0  0  2  0  0  0  0  0  0
  158.7060  212.3640  155.1960 C   0  0  0  0  0  2  0  0  0  0  0  0
  159.8090  211.9990  154.3040 N   0  0  0  0  0  0  0  0  0  0  0  0
  157.3630  212.1500  154.5130 C   0  0  0  0  0  2  0  0  0  0  0  0
  158.1440  214.1150  153.1000 C   0  0  0  0  0  2  0  0  0  0  0  0
  158.9440  213.2160  152.1470 C   0  0  2  0  0  0  0  0  0  0  0  0
  158.0690  212.5430  151.2870 O   0  0  0  0  0  1  0  0  0  0  0  0
  159.8810  214.1070  151.3210 C   0  0  0  0  0  2  0  0  0  0  0  0
  160.8820  213.5180  149.2240 O   0  0  0  0  0  1  0  0  0  0  0  0
  159.6980  213.9590  149.8140 C   0  0  0  0  0  2  0  0  0  0  0  0
  2  1  1  0  0  0  0
  3 15  1  1  0  0  0
  3  5  1  0  0  0  0
  4 15  1  0  0  0  0
  5 13  1  0  0  0  0
  6  8  2  0  0  0  0
  7 12  1  0  0  0  0
  8 14  1  0  0  0  0
 10  4  1  0  0  0  0
 11  8  1  0  0  0  0
 11 10  1  0  0  0  0
 12  2  1  6  0  0  0
 13 12  1  0  0  0  0
 13 18  1  1  0  0  0
 14  9  1  6  0  0  0
 14  3  1  0  0  0  0
 15  7  2  0  0  0  0
 18 16  1  6  0  0  0
 18 17  1  0  0  0  0
 19  1  1  0  0  0  0
 19 21  1  0  0  0  0
 21 22  1  0  0  0  0
 21 20  1  0  0  0  0
 22 23  1  0  0  0  0
 24 23  1  0  0  0  0
 25 29  1  0  0  0  0
 26 25  2  0  0  0  0
 27 30  1  0  0  0  0
 29 24  1  0  0  0  0
 29 28  1  0  0  0  0
 30 28  1  0  0  0  0
 31 27  1  0  0  0  0
 32 33  1  6  0  0  0
 32 25  1  0  0  0  0
 32 31  1  0  0  0  0
 34 32  1  0  0  0  0
 35 36  1  0  0  0  0
 36 34  1  0  0  0  0
M  END
>  <MODEL>
9

>  <REMARK>
 VINA RESULT:      -6.1      3.109      9.893
  Name = 
  11 active torsions:
  status: ('A' for Active; 'I' for Inactive)
    1  A    between atoms: N_10  and  C_22
    2  A    between atoms: C_14  and  O_18
    3  A    between atoms: C_14  and  C_19
    4  A    between atoms: C_17  and  C_32
    5  A    between atoms: O_18  and  C_30
    6  A    between atoms: C_19  and  N_26
    7  A    between atoms: C_22  and  C_31
    8  A    between atoms: C_25  and  C_32
    9  A    between atoms: N_26  and  C_29
   10  A    between atoms: C_27  and  C_34
   11  A    between atoms: C_29  and  C_31
                            x       y       z     vdW  Elec       q    Type
                         _______ _______ _______ _____ _____    ______ ____

>  <TORSDO>
F 11

$$$$
