=
 OpenBabel11072411023D

 30 31  0  0  1  0  0  0  0  0999 V2000
  161.5270  207.4030  150.7290 C   0  0  2  0  0  3  0  0  0  0  0  0
  161.6970  203.9010  147.5720 C   0  0  0  0  0  0  0  0  0  0  0  0
  160.6630  204.2650  149.8120 C   0  0  0  0  0  0  0  0  0  0  0  0
  161.2290  206.1730  148.5320 C   0  0  0  0  0  2  0  0  0  0  0  0
  160.5850  206.5360  149.8810 C   0  0  1  0  0  3  0  0  0  0  0  0
  161.2340  204.6870  148.5500 C   0  0  0  0  0  0  0  0  0  0  0  0
  160.3120  205.2620  150.5470 N   0  0  0  0  0  0  0  0  0  0  0  0
  161.5330  204.7130  145.1400 C   0  0  0  0  0  1  0  0  0  0  0  0
  162.2410  204.5190  146.3940 N   0  0  0  0  0  2  0  0  0  0  0  0
  160.5040  202.9350  150.2060 O   0  0  0  0  0  0  0  0  0  0  0  0
  161.1310  202.4170  151.3690 C   0  0  0  0  0  1  0  0  0  0  0  0
  161.6290  202.5080  147.7320 O   0  0  0  0  0  0  0  0  0  0  0  0
  160.8140  201.6490  146.9490 C   0  0  0  0  0  1  0  0  0  0  0  0
  162.1850  210.4440  148.6180 N   0  0  0  0  0  0  0  0  0  0  0  0
  162.1680  210.9240  149.7950 N   0  0  0  0  0  2  0  0  0  0  0  0
  161.9450  209.0040  148.6300 C   0  0  0  0  0  3  0  0  0  0  0  0
  161.9150  209.8850  150.7220 C   0  0  0  0  0  0  0  0  0  0  0  0
  161.7620  208.7380  150.0870 C   0  0  0  0  0  0  0  0  0  0  0  0
  161.8520  210.0890  152.2000 C   0  0  0  0  0  2  0  0  0  0  0  0
  160.3300  211.8790  152.8440 N   0  0  0  0  0  1  0  0  0  0  0  0
  160.4370  210.4450  152.6300 C   0  0  2  0  0  3  0  0  0  0  0  0
  160.0050  209.6840  153.8830 C   0  0  0  0  0  2  0  0  0  0  0  0
  161.1650  208.9230  154.5320 C   0  0  2  0  0  3  0  0  0  0  0  0
  160.8920  207.5510  154.5230 O   0  0  0  0  0  1  0  0  0  0  0  0
  161.9680  208.3110  156.7580 N   0  0  0  0  0  1  0  0  0  0  0  0
  162.5120  210.5240  155.9430 C   0  0  0  0  0  1  0  0  0  0  0  0
  160.2040  209.9440  156.5950 C   0  0  0  0  0  1  0  0  0  0  0  0
  161.4730  209.4150  155.9530 C   0  0  0  0  0  0  0  0  0  0  0  0
  162.8930  206.0930  152.1930 O   0  0  0  0  0  1  0  0  0  0  0  0
  162.8680  206.7150  150.9450 C   0  0  0  0  0  2  0  0  0  0  0  0
  1 30  1  6  0  0  0
  2 12  1  0  0  0  0
  2  6  2  0  0  0  0
  3 10  1  0  0  0  0
  3  7  2  0  0  0  0
  4  6  1  0  0  0  0
  4  5  1  0  0  0  0
  5  7  1  0  0  0  0
  5  1  1  1  0  0  0
  6  3  1  0  0  0  0
  8  9  1  0  0  0  0
  9  2  1  0  0  0  0
 10 11  1  0  0  0  0
 13 12  1  0  0  0  0
 14 16  2  0  0  0  0
 14 15  1  0  0  0  0
 15 17  1  0  0  0  0
 16 18  1  0  0  0  0
 17 19  1  0  0  0  0
 18 17  2  0  0  0  0
 18  1  1  0  0  0  0
 19 21  1  0  0  0  0
 21 20  1  1  0  0  0
 21 22  1  0  0  0  0
 22 23  1  0  0  0  0
 23 24  1  1  0  0  0
 23 28  1  0  0  0  0
 26 28  1  0  0  0  0
 28 27  1  0  0  0  0
 28 25  1  0  0  0  0
 30 29  1  0  0  0  0
M  END
>  <MODEL>
1

>  <REMARK>
 VINA RESULT:      -6.6      0.000      0.000
  Name = 
  11 active torsions:
  status: ('A' for Active; 'I' for Inactive)
    1  A    between atoms: C_1  and  C_8
    2  A    between atoms: C_1  and  C_27
    3  A    between atoms: C_3  and  N_7
    4  A    between atoms: C_3  and  O_18
    5  A    between atoms: C_6  and  C_14
    6  A    between atoms: C_6  and  C_26
    7  A    between atoms: C_6  and  C_30
    8  A    between atoms: C_8  and  C_24
    9  A    between atoms: C_10  and  O_17
   10  A    between atoms: C_27  and  C_29
   11  A    between atoms: C_28  and  C_29
                            x       y       z     vdW  Elec       q    Type
                         _______ _______ _______ _____ _____    ______ ____

>  <TORSDO>
F 11

$$$$
=
 OpenBabel11072411023D

 30 31  0  0  1  0  0  0  0  0999 V2000
  161.0960  206.6820  151.3960 C   0  0  2  0  0  3  0  0  0  0  0  0
  161.4180  204.7470  147.1060 C   0  0  0  0  0  0  0  0  0  0  0  0
  160.9340  203.9440  149.4170 C   0  0  0  0  0  0  0  0  0  0  0  0
  160.5990  206.2410  148.9490 C   0  0  0  0  0  2  0  0  0  0  0  0
  160.2480  205.8750  150.4020 C   0  0  1  0  0  3  0  0  0  0  0  0
  161.0220  204.9390  148.3680 C   0  0  0  0  0  0  0  0  0  0  0  0
  160.5210  204.4430  150.5290 N   0  0  0  0  0  0  0  0  0  0  0  0
  160.4130  206.2170  145.2540 C   0  0  0  0  0  1  0  0  0  0  0  0
  161.4480  205.8740  146.2150 N   0  0  0  0  0  2  0  0  0  0  0  0
  161.2580  202.5960  149.2600 O   0  0  0  0  0  0  0  0  0  0  0  0
  160.2690  201.5780  149.2860 C   0  0  0  0  0  1  0  0  0  0  0  0
  161.7840  203.4530  146.7000 O   0  0  0  0  0  0  0  0  0  0  0  0
  161.0990  202.6980  145.7120 C   0  0  0  0  0  1  0  0  0  0  0  0
  162.2230  209.7690  149.5700 N   0  0  0  0  0  0  0  0  0  0  0  0
  161.7730  210.2430  150.6600 N   0  0  0  0  0  2  0  0  0  0  0  0
  162.0930  208.3150  149.5300 C   0  0  0  0  0  3  0  0  0  0  0  0
  161.2910  209.1850  151.4680 C   0  0  0  0  0  0  0  0  0  0  0  0
  161.4430  208.0320  150.8440 C   0  0  0  0  0  0  0  0  0  0  0  0
  160.7150  209.3800  152.8320 C   0  0  0  0  0  2  0  0  0  0  0  0
  161.7970  210.1860  154.8600 N   0  0  0  0  0  1  0  0  0  0  0  0
  161.3700  210.5660  153.5240 C   0  0  2  0  0  3  0  0  0  0  0  0
  160.4450  211.7820  153.5830 C   0  0  0  0  0  2  0  0  0  0  0  0
  158.9660  211.3940  153.5000 C   0  0  2  0  0  3  0  0  0  0  0  0
  158.4040  211.9210  152.3330 O   0  0  0  0  0  1  0  0  0  0  0  0
  156.7580  211.9170  154.4110 N   0  0  0  0  0  1  0  0  0  0  0  0
  158.3520  210.8510  155.8880 C   0  0  0  0  0  1  0  0  0  0  0  0
  158.6430  213.2000  155.1910 C   0  0  0  0  0  1  0  0  0  0  0  0
  158.1710  211.8300  154.7400 C   0  0  0  0  0  0  0  0  0  0  0  0
  162.5040  205.8350  153.1360 O   0  0  0  0  0  1  0  0  0  0  0  0
  162.3820  205.9470  151.7510 C   0  0  0  0  0  2  0  0  0  0  0  0
  1 30  1  6  0  0  0
  2  6  2  0  0  0  0
  3  7  2  0  0  0  0
  4  5  1  0  0  0  0
  5  7  1  0  0  0  0
  5  1  1  1  0  0  0
  6  4  1  0  0  0  0
  6  3  1  0  0  0  0
  8  9  1  0  0  0  0
  9  2  1  0  0  0  0
 10 11  1  0  0  0  0
 10  3  1  0  0  0  0
 12  2  1  0  0  0  0
 13 12  1  0  0  0  0
 14 15  1  0  0  0  0
 15 17  1  0  0  0  0
 16 14  2  0  0  0  0
 16 18  1  0  0  0  0
 17 19  1  0  0  0  0
 18  1  1  0  0  0  0
 18 17  2  0  0  0  0
 19 21  1  0  0  0  0
 21 22  1  0  0  0  0
 21 20  1  1  0  0  0
 23 24  1  6  0  0  0
 23 22  1  0  0  0  0
 23 28  1  0  0  0  0
 25 28  1  0  0  0  0
 28 27  1  0  0  0  0
 28 26  1  0  0  0  0
 30 29  1  0  0  0  0
M  END
>  <MODEL>
2

>  <REMARK>
 VINA RESULT:      -6.3      2.008      2.504
  Name = 
  11 active torsions:
  status: ('A' for Active; 'I' for Inactive)
    1  A    between atoms: C_1  and  C_8
    2  A    between atoms: C_1  and  C_27
    3  A    between atoms: C_3  and  N_7
    4  A    between atoms: C_3  and  O_18
    5  A    between atoms: C_6  and  C_14
    6  A    between atoms: C_6  and  C_26
    7  A    between atoms: C_6  and  C_30
    8  A    between atoms: C_8  and  C_24
    9  A    between atoms: C_10  and  O_17
   10  A    between atoms: C_27  and  C_29
   11  A    between atoms: C_28  and  C_29
                            x       y       z     vdW  Elec       q    Type
                         _______ _______ _______ _____ _____    ______ ____

>  <TORSDO>
F 11

$$$$
=
 OpenBabel11072411023D

 30 31  0  0  1  0  0  0  0  0999 V2000
  160.8960  208.9150  151.9690 C   0  0  2  0  0  3  0  0  0  0  0  0
  160.8810  211.5390  155.8890 C   0  0  0  0  0  0  0  0  0  0  0  0
  159.5780  211.4600  153.7640 C   0  0  0  0  0  0  0  0  0  0  0  0
  160.7310  209.5020  154.4300 C   0  0  0  0  0  2  0  0  0  0  0  0
  159.9540  209.3140  153.1140 C   0  0  1  0  0  3  0  0  0  0  0  0
  160.4290  210.9100  154.7990 C   0  0  0  0  0  0  0  0  0  0  0  0
  159.3190  210.6030  152.8400 N   0  0  0  0  0  0  0  0  0  0  0  0
  163.1850  210.8190  156.7700 C   0  0  0  0  0  1  0  0  0  0  0  0
  161.7320  210.8180  156.7960 N   0  0  0  0  0  2  0  0  0  0  0  0
  159.0870  212.7670  153.7520 O   0  0  0  0  0  0  0  0  0  0  0  0
  157.6960  213.0460  153.7840 C   0  0  0  0  0  1  0  0  0  0  0  0
  160.5050  212.8750  156.1070 O   0  0  0  0  0  0  0  0  0  0  0  0
  159.6220  213.3020  157.1330 C   0  0  0  0  0  1  0  0  0  0  0  0
  161.6530  205.2650  152.4530 N   0  0  0  0  0  0  0  0  0  0  0  0
  161.3640  205.3240  151.2170 N   0  0  0  0  0  0  0  0  0  0  0  0
  161.5550  206.5770  153.0840 C   0  0  0  0  0  2  0  0  0  0  0  0
  161.0380  206.6590  150.8750 C   0  0  0  0  0  0  0  0  0  0  0  0
  161.1210  207.4330  151.9400 C   0  0  0  0  0  0  0  0  0  0  0  0
  160.6730  207.0960  149.4940 C   0  0  0  0  0  2  0  0  0  0  0  0
  162.6940  207.9380  148.4260 N   0  0  0  0  0  1  0  0  0  0  0  0
  161.8040  206.7930  148.5230 C   0  0  2  0  0  3  0  0  0  0  0  0
  161.2860  206.4010  147.1380 C   0  0  0  0  0  2  0  0  0  0  0  0
  161.1530  204.8840  146.9740 C   0  0  2  0  0  3  0  0  0  0  0  0
  161.7870  204.2360  148.0390 O   0  0  0  0  0  1  0  0  0  0  0  0
  161.2660  203.0160  145.4010 N   0  0  0  0  0  1  0  0  0  0  0  0
  161.2030  205.2530  144.4770 C   0  0  0  0  0  1  0  0  0  0  0  0
  163.2110  204.4180  145.6430 C   0  0  0  0  0  1  0  0  0  0  0  0
  161.6940  204.3870  145.6260 C   0  0  0  0  0  0  0  0  0  0  0  0
  162.5220  210.3230  150.9190 O   0  0  0  0  0  1  0  0  0  0  0  0
  162.2420  209.6170  152.0890 C   0  0  0  0  0  2  0  0  0  0  0  0
  1 30  1  1  0  0  0
  2 12  1  0  0  0  0
  2  9  1  0  0  0  0
  3  6  1  0  0  0  0
  4  6  1  0  0  0  0
  5  1  1  6  0  0  0
  5  4  1  0  0  0  0
  6  2  2  0  0  0  0
  7  5  1  0  0  0  0
  7  3  2  0  0  0  0
  8  9  1  0  0  0  0
 10  3  1  0  0  0  0
 10 11  1  0  0  0  0
 12 13  1  0  0  0  0
 14 16  1  0  0  0  0
 15 14  2  0  0  0  0
 17 15  1  0  0  0  0
 17 18  2  0  0  0  0
 18  1  1  0  0  0  0
 18 16  1  0  0  0  0
 19 17  1  0  0  0  0
 21 20  1  6  0  0  0
 21 19  1  0  0  0  0
 22 21  1  0  0  0  0
 23 22  1  0  0  0  0
 23 24  1  1  0  0  0
 25 28  1  0  0  0  0
 26 28  1  0  0  0  0
 28 27  1  0  0  0  0
 28 23  1  0  0  0  0
 29 30  1  0  0  0  0
M  END
>  <MODEL>
3

>  <REMARK>
 VINA RESULT:      -6.3      2.389      8.940
  Name = 
  11 active torsions:
  status: ('A' for Active; 'I' for Inactive)
    1  A    between atoms: C_1  and  C_8
    2  A    between atoms: C_1  and  C_27
    3  A    between atoms: C_3  and  N_7
    4  A    between atoms: C_3  and  O_18
    5  A    between atoms: C_6  and  C_14
    6  A    between atoms: C_6  and  C_26
    7  A    between atoms: C_6  and  C_30
    8  A    between atoms: C_8  and  C_24
    9  A    between atoms: C_10  and  O_17
   10  A    between atoms: C_27  and  C_29
   11  A    between atoms: C_28  and  C_29
                            x       y       z     vdW  Elec       q    Type
                         _______ _______ _______ _____ _____    ______ ____

>  <TORSDO>
F 11

$$$$
=
 OpenBabel11072411023D

 30 31  0  0  1  0  0  0  0  0999 V2000
  160.6300  207.8250  153.8960 C   0  0  2  0  0  3  0  0  0  0  0  0
  160.9420  204.5930  150.4740 C   0  0  0  0  0  0  0  0  0  0  0  0
  161.2030  207.0670  150.6510 C   0  0  0  0  0  0  0  0  0  0  0  0
  161.4390  205.7850  152.6270 C   0  0  0  0  0  2  0  0  0  0  0  0
  161.6400  207.2910  152.8710 C   0  0  1  0  0  3  0  0  0  0  0  0
  161.1740  205.7130  151.1660 C   0  0  0  0  0  0  0  0  0  0  0  0
  161.4500  207.9340  151.5700 N   0  0  0  0  0  0  0  0  0  0  0  0
  160.8530  202.0270  150.5590 C   0  0  0  0  0  1  0  0  0  0  0  0
  160.9430  203.3390  151.1760 N   0  0  0  0  0  2  0  0  0  0  0  0
  160.9900  207.4120  149.3150 O   0  0  0  0  0  0  0  0  0  0  0  0
  161.9390  208.1620  148.5730 C   0  0  0  0  0  1  0  0  0  0  0  0
  160.7120  204.6850  149.0910 O   0  0  0  0  0  0  0  0  0  0  0  0
  161.5650  204.1350  148.0980 C   0  0  0  0  0  1  0  0  0  0  0  0
  161.9580  210.7910  155.7850 N   0  0  0  0  0  0  0  0  0  0  0  0
  161.3220  211.3360  154.8290 N   0  0  0  0  0  0  0  0  0  0  0  0
  161.8880  209.3350  155.7070 C   0  0  0  0  0  2  0  0  0  0  0  0
  160.7620  210.3310  154.0050 C   0  0  0  0  0  0  0  0  0  0  0  0
  161.0770  209.1360  154.4700 C   0  0  0  0  0  0  0  0  0  0  0  0
  159.9270  210.6150  152.8010 C   0  0  0  0  0  2  0  0  0  0  0  0
  159.1130  212.8990  153.0470 N   0  0  0  0  0  1  0  0  0  0  0  0
  158.7440  211.4980  153.1690 C   0  0  2  0  0  3  0  0  0  0  0  0
  158.2200  211.2050  154.5760 C   0  0  0  0  0  2  0  0  0  0  0  0
  157.6360  212.4480  155.2520 C   0  0  2  0  0  3  0  0  0  0  0  0
  158.1400  212.5600  156.5510 O   0  0  0  0  0  1  0  0  0  0  0  0
  155.6060  211.0980  155.0800 N   0  0  0  0  0  1  0  0  0  0  0  0
  155.5480  213.0200  156.5510 C   0  0  0  0  0  1  0  0  0  0  0  0
  155.5930  213.2980  154.0990 C   0  0  0  0  0  1  0  0  0  0  0  0
  156.1000  212.4530  155.2530 C   0  0  0  0  0  0  0  0  0  0  0  0
  159.3590  207.2460  155.8400 O   0  0  0  0  0  1  0  0  0  0  0  0
  160.4200  206.8340  155.0340 C   0  0  0  0  0  2  0  0  0  0  0  0
  1 18  1  0  0  0  0
  1 30  1  1  0  0  0
  2  6  2  0  0  0  0
  2  9  1  0  0  0  0
  3  6  1  0  0  0  0
  3  7  2  0  0  0  0
  4  5  1  0  0  0  0
  5  1  1  1  0  0  0
  6  4  1  0  0  0  0
  7  5  1  0  0  0  0
  8  9  1  0  0  0  0
 10  3  1  0  0  0  0
 11 10  1  0  0  0  0
 12  2  1  0  0  0  0
 13 12  1  0  0  0  0
 15 14  2  0  0  0  0
 16 14  1  0  0  0  0
 17 18  2  0  0  0  0
 17 15  1  0  0  0  0
 18 16  1  0  0  0  0
 19 21  1  0  0  0  0
 19 17  1  0  0  0  0
 21 20  1  1  0  0  0
 21 22  1  0  0  0  0
 22 23  1  0  0  0  0
 23 28  1  0  0  0  0
 23 24  1  1  0  0  0
 25 28  1  0  0  0  0
 27 28  1  0  0  0  0
 28 26  1  0  0  0  0
 30 29  1  0  0  0  0
M  END
>  <MODEL>
4

>  <REMARK>
 VINA RESULT:      -6.1      2.908      4.789
  Name = 
  11 active torsions:
  status: ('A' for Active; 'I' for Inactive)
    1  A    between atoms: C_1  and  C_8
    2  A    between atoms: C_1  and  C_27
    3  A    between atoms: C_3  and  N_7
    4  A    between atoms: C_3  and  O_18
    5  A    between atoms: C_6  and  C_14
    6  A    between atoms: C_6  and  C_26
    7  A    between atoms: C_6  and  C_30
    8  A    between atoms: C_8  and  C_24
    9  A    between atoms: C_10  and  O_17
   10  A    between atoms: C_27  and  C_29
   11  A    between atoms: C_28  and  C_29
                            x       y       z     vdW  Elec       q    Type
                         _______ _______ _______ _____ _____    ______ ____

>  <TORSDO>
F 11

$$$$
=
 OpenBabel11072411023D

 30 31  0  0  1  0  0  0  0  0999 V2000
  161.9600  207.6240  150.1100 C   0  0  2  0  0  3  0  0  0  0  0  0
  161.6860  204.4870  146.5980 C   0  0  0  0  0  0  0  0  0  0  0  0
  160.8640  204.6440  148.9470 C   0  0  0  0  0  0  0  0  0  0  0  0
  161.4160  206.6570  147.8310 C   0  0  0  0  0  2  0  0  0  0  0  0
  160.9070  206.8950  149.2640 C   0  0  1  0  0  3  0  0  0  0  0  0
  161.3480  205.1780  147.6910 C   0  0  0  0  0  0  0  0  0  0  0  0
  160.6280  205.5670  149.8120 N   0  0  0  0  0  0  0  0  0  0  0  0
  161.3630  205.5520  144.2810 C   0  0  0  0  0  1  0  0  0  0  0  0
  162.1600  205.2080  145.4480 N   0  0  0  0  0  2  0  0  0  0  0  0
  160.6730  203.2860  149.2100 O   0  0  0  0  0  0  0  0  0  0  0  0
  160.7810  202.7530  150.5210 C   0  0  0  0  0  1  0  0  0  0  0  0
  161.5620  203.0880  146.6140 O   0  0  0  0  0  0  0  0  0  0  0  0
  160.7840  202.3410  145.6920 C   0  0  0  0  0  1  0  0  0  0  0  0
  161.9710  206.1350  153.5620 N   0  0  0  0  0  0  0  0  0  0  0  0
  161.3000  207.2020  153.7250 N   0  0  0  0  0  2  0  0  0  0  0  0
  162.4130  205.9920  152.1780 C   0  0  0  0  0  3  0  0  0  0  0  0
  161.2140  207.8950  152.4940 C   0  0  0  0  0  0  0  0  0  0  0  0
  161.8640  207.2330  151.5550 C   0  0  0  0  0  0  0  0  0  0  0  0
  160.4740  209.1790  152.3140 C   0  0  0  0  0  2  0  0  0  0  0  0
  160.1680  209.6980  154.6750 N   0  0  0  0  0  1  0  0  0  0  0  0
  160.7990  210.1440  153.4440 C   0  0  2  0  0  3  0  0  0  0  0  0
  160.3790  211.5780  153.1170 C   0  0  0  0  0  2  0  0  0  0  0  0
  158.8850  211.6900  152.8030 C   0  0  2  0  0  3  0  0  0  0  0  0
  158.7100  212.2300  151.5250 O   0  0  0  0  0  1  0  0  0  0  0  0
  157.3700  213.5660  153.2050 N   0  0  0  0  0  1  0  0  0  0  0  0
  157.1590  211.6320  154.6450 C   0  0  0  0  0  1  0  0  0  0  0  0
  159.1050  213.1400  154.8220 C   0  0  0  0  0  1  0  0  0  0  0  0
  158.1200  212.5060  153.8560 C   0  0  0  0  0  0  0  0  0  0  0  0
  162.3290  209.5790  148.7790 O   0  0  0  0  0  1  0  0  0  0  0  0
  161.8120  209.1360  149.9970 C   0  0  0  0  0  2  0  0  0  0  0  0
  1 30  1  1  0  0  0
  1 18  1  0  0  0  0
  2 12  1  0  0  0  0
  2  6  2  0  0  0  0
  3 10  1  0  0  0  0
  3  7  2  0  0  0  0
  4  5  1  0  0  0  0
  5  7  1  0  0  0  0
  5  1  1  1  0  0  0
  6  4  1  0  0  0  0
  6  3  1  0  0  0  0
  8  9  1  0  0  0  0
  9  2  1  0  0  0  0
 10 11  1  0  0  0  0
 13 12  1  0  0  0  0
 14 15  1  0  0  0  0
 16 14  2  0  0  0  0
 17 15  1  0  0  0  0
 18 16  1  0  0  0  0
 18 17  2  0  0  0  0
 19 17  1  0  0  0  0
 19 21  1  0  0  0  0
 21 20  1  1  0  0  0
 22 21  1  0  0  0  0
 23 24  1  6  0  0  0
 23 22  1  0  0  0  0
 23 28  1  0  0  0  0
 25 28  1  0  0  0  0
 28 26  1  0  0  0  0
 28 27  1  0  0  0  0
 29 30  1  0  0  0  0
M  END
>  <MODEL>
5

>  <REMARK>
 VINA RESULT:      -6.1      2.483      3.434
  Name = 
  11 active torsions:
  status: ('A' for Active; 'I' for Inactive)
    1  A    between atoms: C_1  and  C_8
    2  A    between atoms: C_1  and  C_27
    3  A    between atoms: C_3  and  N_7
    4  A    between atoms: C_3  and  O_18
    5  A    between atoms: C_6  and  C_14
    6  A    between atoms: C_6  and  C_26
    7  A    between atoms: C_6  and  C_30
    8  A    between atoms: C_8  and  C_24
    9  A    between atoms: C_10  and  O_17
   10  A    between atoms: C_27  and  C_29
   11  A    between atoms: C_28  and  C_29
                            x       y       z     vdW  Elec       q    Type
                         _______ _______ _______ _____ _____    ______ ____

>  <TORSDO>
F 11

$$$$
=
 OpenBabel11072411023D

 30 31  0  0  1  0  0  0  0  0999 V2000
  161.9400  208.9350  152.3060 C   0  0  2  0  0  3  0  0  0  0  0  0
  158.9730  211.1650  155.2180 C   0  0  0  0  0  0  0  0  0  0  0  0
  161.4130  210.6530  155.1710 C   0  0  0  0  0  0  0  0  0  0  0  0
  160.2370  210.6300  153.1170 C   0  0  0  0  0  2  0  0  0  0  0  0
  161.7340  210.3160  152.9450 C   0  0  1  0  0  3  0  0  0  0  0  0
  160.1060  210.8520  154.5810 C   0  0  0  0  0  0  0  0  0  0  0  0
  162.3050  210.3550  154.2920 N   0  0  0  0  0  0  0  0  0  0  0  0
  156.8450  212.4270  154.5230 C   0  0  0  0  0  1  0  0  0  0  0  0
  157.7670  211.3060  154.4480 N   0  0  0  0  0  2  0  0  0  0  0  0
  161.6940  210.7660  156.5340 O   0  0  0  0  0  0  0  0  0  0  0  0
  162.7280  210.0150  157.1520 C   0  0  0  0  0  1  0  0  0  0  0  0
  159.0070  211.3490  156.6100 O   0  0  0  0  0  0  0  0  0  0  0  0
  158.9270  212.6110  157.2550 C   0  0  0  0  0  1  0  0  0  0  0  0
  162.0520  209.7590  148.6400 N   0  0  0  0  0  0  0  0  0  0  0  0
  162.1440  208.4910  148.6400 N   0  0  0  0  0  0  0  0  0  0  0  0
  161.9580  210.2840  149.9990 C   0  0  0  0  0  2  0  0  0  0  0  0
  162.1260  208.0200  149.9740 C   0  0  0  0  0  0  0  0  0  0  0  0
  162.0330  209.0340  150.8130 C   0  0  0  0  0  0  0  0  0  0  0  0
  162.1910  206.5740  150.3440 C   0  0  0  0  0  2  0  0  0  0  0  0
  160.3860  204.9640  150.6340 N   0  0  0  0  0  1  0  0  0  0  0  0
  161.0730  205.7990  149.6630 C   0  0  2  0  0  3  0  0  0  0  0  0
  161.5840  204.9530  148.4970 C   0  0  0  0  0  2  0  0  0  0  0  0
  161.4560  205.6750  147.1520 C   0  0  2  0  0  3  0  0  0  0  0  0
  160.1680  206.2030  147.0210 O   0  0  0  0  0  1  0  0  0  0  0  0
  161.2970  203.4300  146.1980 N   0  0  0  0  0  1  0  0  0  0  0  0
  161.2130  205.3030  144.6670 C   0  0  0  0  0  1  0  0  0  0  0  0
  163.3130  204.6910  145.8090 C   0  0  0  0  0  1  0  0  0  0  0  0
  161.8060  204.7700  145.9620 C   0  0  0  0  0  0  0  0  0  0  0  0
  161.2300  207.0830  153.6460 O   0  0  0  0  0  1  0  0  0  0  0  0
  160.8070  207.9830  152.6680 C   0  0  0  0  0  2  0  0  0  0  0  0
  1 30  1  6  0  0  0
  2 12  1  0  0  0  0
  3 10  1  0  0  0  0
  4  6  1  0  0  0  0
  5  1  1  1  0  0  0
  5  4  1  0  0  0  0
  5  7  1  0  0  0  0
  6  3  1  0  0  0  0
  6  2  2  0  0  0  0
  7  3  2  0  0  0  0
  9  8  1  0  0  0  0
  9  2  1  0  0  0  0
 10 11  1  0  0  0  0
 12 13  1  0  0  0  0
 14 16  1  0  0  0  0
 15 14  2  0  0  0  0
 15 17  1  0  0  0  0
 16 18  1  0  0  0  0
 17 19  1  0  0  0  0
 17 18  2  0  0  0  0
 18  1  1  0  0  0  0
 21 19  1  0  0  0  0
 21 20  1  1  0  0  0
 22 21  1  0  0  0  0
 23 24  1  6  0  0  0
 23 22  1  0  0  0  0
 26 28  1  0  0  0  0
 27 28  1  0  0  0  0
 28 25  1  0  0  0  0
 28 23  1  0  0  0  0
 30 29  1  0  0  0  0
M  END
>  <MODEL>
6

>  <REMARK>
 VINA RESULT:      -6.0      2.117      8.457
  Name = 
  11 active torsions:
  status: ('A' for Active; 'I' for Inactive)
    1  A    between atoms: C_1  and  C_8
    2  A    between atoms: C_1  and  C_27
    3  A    between atoms: C_3  and  N_7
    4  A    between atoms: C_3  and  O_18
    5  A    between atoms: C_6  and  C_14
    6  A    between atoms: C_6  and  C_26
    7  A    between atoms: C_6  and  C_30
    8  A    between atoms: C_8  and  C_24
    9  A    between atoms: C_10  and  O_17
   10  A    between atoms: C_27  and  C_29
   11  A    between atoms: C_28  and  C_29
                            x       y       z     vdW  Elec       q    Type
                         _______ _______ _______ _____ _____    ______ ____

>  <TORSDO>
F 11

$$$$
=
 OpenBabel11072411023D

 30 31  0  0  1  0  0  0  0  0999 V2000
  161.0100  209.1660  151.8770 C   0  0  2  0  0  3  0  0  0  0  0  0
  159.1460  213.4930  151.6270 C   0  0  0  0  0  0  0  0  0  0  0  0
  158.8450  211.4770  153.0650 C   0  0  0  0  0  0  0  0  0  0  0  0
  160.8830  211.6990  151.8810 C   0  0  0  0  0  2  0  0  0  0  0  0
  160.8340  210.4230  152.7410 C   0  0  1  0  0  3  0  0  0  0  0  0
  159.5690  212.3380  152.1520 C   0  0  0  0  0  0  0  0  0  0  0  0
  159.5210  210.4300  153.3870 N   0  0  0  0  0  0  0  0  0  0  0  0
  159.9600  214.1240  149.2730 C   0  0  0  0  0  1  0  0  0  0  0  0
  160.0150  214.1960  150.7240 N   0  0  0  0  0  2  0  0  0  0  0  0
  157.5620  211.7350  153.5490 O   0  0  0  0  0  0  0  0  0  0  0  0
  157.1690  211.3720  154.8640 C   0  0  0  0  0  1  0  0  0  0  0  0
  157.8760  213.9740  151.9830 O   0  0  0  0  0  0  0  0  0  0  0  0
  156.7920  214.1220  151.0780 C   0  0  0  0  0  1  0  0  0  0  0  0
  161.0990  206.4310  154.4540 N   0  0  0  0  0  0  0  0  0  0  0  0
  161.4110  205.8140  153.3870 N   0  0  0  0  0  0  0  0  0  0  0  0
  160.8550  207.8470  154.1960 C   0  0  0  0  0  2  0  0  0  0  0  0
  161.4100  206.7230  152.3020 C   0  0  0  0  0  0  0  0  0  0  0  0
  161.0760  207.9290  152.7210 C   0  0  0  0  0  0  0  0  0  0  0  0
  161.7580  206.3430  150.9010 C   0  0  0  0  0  2  0  0  0  0  0  0
  160.5660  204.2740  150.4160 N   0  0  0  0  0  1  0  0  0  0  0  0
  160.5600  205.7130  150.2070 C   0  0  2  0  0  3  0  0  0  0  0  0
  160.5240  206.0350  148.7120 C   0  0  0  0  0  2  0  0  0  0  0  0
  161.8880  205.8490  148.0420 C   0  0  2  0  0  3  0  0  0  0  0  0
  162.4250  207.0960  147.7100 O   0  0  0  0  0  1  0  0  0  0  0  0
  160.8200  205.4290  145.8830 N   0  0  0  0  0  1  0  0  0  0  0  0
  163.1620  204.8570  146.1010 C   0  0  0  0  0  1  0  0  0  0  0  0
  161.4210  203.5320  147.2430 C   0  0  0  0  0  1  0  0  0  0  0  0
  161.8210  204.9310  146.8120 C   0  0  0  0  0  0  0  0  0  0  0  0
  161.9370  209.5190  149.6980 O   0  0  0  0  0  1  0  0  0  0  0  0
  162.2710  209.2520  151.0260 C   0  0  0  0  0  2  0  0  0  0  0  0
  1 30  1  1  0  0  0
  1 18  1  0  0  0  0
  2 12  1  0  0  0  0
  2  6  2  0  0  0  0
  3  7  2  0  0  0  0
  3 10  1  0  0  0  0
  4  6  1  0  0  0  0
  4  5  1  0  0  0  0
  5  1  1  6  0  0  0
  5  7  1  0  0  0  0
  6  3  1  0  0  0  0
  8  9  1  0  0  0  0
  9  2  1  0  0  0  0
 10 11  1  0  0  0  0
 13 12  1  0  0  0  0
 15 14  2  0  0  0  0
 16 14  1  0  0  0  0
 17 18  2  0  0  0  0
 17 15  1  0  0  0  0
 18 16  1  0  0  0  0
 19 17  1  0  0  0  0
 21 20  1  6  0  0  0
 21 19  1  0  0  0  0
 22 21  1  0  0  0  0
 23 24  1  6  0  0  0
 23 22  1  0  0  0  0
 25 28  1  0  0  0  0
 26 28  1  0  0  0  0
 28 27  1  0  0  0  0
 28 23  1  0  0  0  0
 29 30  1  0  0  0  0
M  END
>  <MODEL>
7

>  <REMARK>
 VINA RESULT:      -5.9      3.003      8.276
  Name = 
  11 active torsions:
  status: ('A' for Active; 'I' for Inactive)
    1  A    between atoms: C_1  and  C_8
    2  A    between atoms: C_1  and  C_27
    3  A    between atoms: C_3  and  N_7
    4  A    between atoms: C_3  and  O_18
    5  A    between atoms: C_6  and  C_14
    6  A    between atoms: C_6  and  C_26
    7  A    between atoms: C_6  and  C_30
    8  A    between atoms: C_8  and  C_24
    9  A    between atoms: C_10  and  O_17
   10  A    between atoms: C_27  and  C_29
   11  A    between atoms: C_28  and  C_29
                            x       y       z     vdW  Elec       q    Type
                         _______ _______ _______ _____ _____    ______ ____

>  <TORSDO>
F 11

$$$$
=
 OpenBabel11072411023D

 30 31  0  0  1  0  0  0  0  0999 V2000
  161.2920  209.0820  151.9220 C   0  0  2  0  0  3  0  0  0  0  0  0
  159.0210  211.9690  154.8820 C   0  0  0  0  0  0  0  0  0  0  0  0
  160.1250  209.7370  155.0280 C   0  0  0  0  0  0  0  0  0  0  0  0
  160.7570  211.1710  153.2540 C   0  0  0  0  0  2  0  0  0  0  0  0
  161.5240  209.8370  153.2390 C   0  0  1  0  0  3  0  0  0  0  0  0
  159.8800  211.0410  154.4480 C   0  0  0  0  0  0  0  0  0  0  0  0
  161.0120  209.0710  154.3750 N   0  0  0  0  0  0  0  0  0  0  0  0
  157.7970  213.5920  153.3120 C   0  0  0  0  0  1  0  0  0  0  0  0
  158.9150  213.2030  154.1540 N   0  0  0  0  0  2  0  0  0  0  0  0
  159.4810  209.2400  156.1630 O   0  0  0  0  0  0  0  0  0  0  0  0
  160.0810  208.2620  156.9980 C   0  0  0  0  0  1  0  0  0  0  0  0
  158.2600  211.7020  156.0330 O   0  0  0  0  0  0  0  0  0  0  0  0
  156.8640  211.4490  156.0300 C   0  0  0  0  0  1  0  0  0  0  0  0
  161.5770  205.4890  152.9910 N   0  0  0  0  0  0  0  0  0  0  0  0
  161.2870  205.3870  151.7580 N   0  0  0  0  0  0  0  0  0  0  0  0
  161.6540  206.8870  153.4040 C   0  0  0  0  0  2  0  0  0  0  0  0
  161.1320  206.6800  151.2040 C   0  0  0  0  0  0  0  0  0  0  0  0
  161.3240  207.5980  152.1330 C   0  0  0  0  0  0  0  0  0  0  0  0
  160.8140  206.9340  149.7670 C   0  0  0  0  0  2  0  0  0  0  0  0
  162.5880  207.3550  148.1510 N   0  0  0  0  0  1  0  0  0  0  0  0
  161.8730  206.3130  148.8690 C   0  0  2  0  0  3  0  0  0  0  0  0
  161.2760  205.3020  147.8890 C   0  0  0  0  0  2  0  0  0  0  0  0
  161.2970  205.8080  146.4440 C   0  0  2  0  0  3  0  0  0  0  0  0
  160.0110  206.2040  146.0630 O   0  0  0  0  0  1  0  0  0  0  0  0
  161.5810  205.1800  144.0980 N   0  0  0  0  0  1  0  0  0  0  0  0
  163.3720  204.6210  145.6290 C   0  0  0  0  0  1  0  0  0  0  0  0
  161.2140  203.4250  145.7090 C   0  0  0  0  0  1  0  0  0  0  0  0
  161.8680  204.7730  145.4640 C   0  0  0  0  0  0  0  0  0  0  0  0
  161.8690  210.5040  150.0850 O   0  0  0  0  0  1  0  0  0  0  0  0
  162.3360  209.4560  150.8780 C   0  0  0  0  0  2  0  0  0  0  0  0
  1 30  1  6  0  0  0
  1 18  1  0  0  0  0
  2 12  1  0  0  0  0
  3 10  1  0  0  0  0
  4  6  1  0  0  0  0
  5  1  1  6  0  0  0
  5  4  1  0  0  0  0
  5  7  1  0  0  0  0
  6  2  2  0  0  0  0
  6  3  1  0  0  0  0
  7  3  2  0  0  0  0
  8  9  1  0  0  0  0
  9  2  1  0  0  0  0
 10 11  1  0  0  0  0
 13 12  1  0  0  0  0
 14 16  1  0  0  0  0
 15 14  2  0  0  0  0
 17 15  1  0  0  0  0
 17 18  2  0  0  0  0
 18 16  1  0  0  0  0
 19 17  1  0  0  0  0
 21 20  1  6  0  0  0
 21 19  1  0  0  0  0
 22 21  1  0  0  0  0
 23 24  1  6  0  0  0
 23 22  1  0  0  0  0
 25 28  1  0  0  0  0
 28 26  1  0  0  0  0
 28 27  1  0  0  0  0
 28 23  1  0  0  0  0
 29 30  1  0  0  0  0
M  END
>  <MODEL>
8

>  <REMARK>
 VINA RESULT:      -5.7      2.503      8.639
  Name = 
  11 active torsions:
  status: ('A' for Active; 'I' for Inactive)
    1  A    between atoms: C_1  and  C_8
    2  A    between atoms: C_1  and  C_27
    3  A    between atoms: C_3  and  N_7
    4  A    between atoms: C_3  and  O_18
    5  A    between atoms: C_6  and  C_14
    6  A    between atoms: C_6  and  C_26
    7  A    between atoms: C_6  and  C_30
    8  A    between atoms: C_8  and  C_24
    9  A    between atoms: C_10  and  O_17
   10  A    between atoms: C_27  and  C_29
   11  A    between atoms: C_28  and  C_29
                            x       y       z     vdW  Elec       q    Type
                         _______ _______ _______ _____ _____    ______ ____

>  <TORSDO>
F 11

$$$$
=
 OpenBabel11072411023D

 30 31  0  0  1  0  0  0  0  0999 V2000
  160.8330  208.8340  152.0370 C   0  0  2  0  0  3  0  0  0  0  0  0
  160.7910  211.5630  155.8850 C   0  0  0  0  0  0  0  0  0  0  0  0
  159.6050  211.5160  153.6910 C   0  0  0  0  0  0  0  0  0  0  0  0
  160.5750  209.5010  154.4700 C   0  0  0  0  0  2  0  0  0  0  0  0
  159.8610  209.3310  153.1170 C   0  0  1  0  0  3  0  0  0  0  0  0
  160.3560  210.9370  154.7870 C   0  0  0  0  0  0  0  0  0  0  0  0
  159.3360  210.6530  152.7750 N   0  0  0  0  0  0  0  0  0  0  0  0
  162.9790  210.6420  156.8670 C   0  0  0  0  0  1  0  0  0  0  0  0
  161.5360  210.8100  156.8560 N   0  0  0  0  0  2  0  0  0  0  0  0
  159.2110  212.8530  153.6190 O   0  0  0  0  0  0  0  0  0  0  0  0
  159.0570  213.5240  152.3770 C   0  0  0  0  0  1  0  0  0  0  0  0
  160.5000  212.9280  156.0480 O   0  0  0  0  0  0  0  0  0  0  0  0
  159.5230  213.4380  156.9430 C   0  0  0  0  0  1  0  0  0  0  0  0
  161.7480  205.3270  153.0360 N   0  0  0  0  0  0  0  0  0  0  0  0
  161.5750  205.2200  151.7820 N   0  0  0  0  0  0  0  0  0  0  0  0
  161.5160  206.6960  153.4880 C   0  0  0  0  0  2  0  0  0  0  0  0
  161.2080  206.4790  151.2490 C   0  0  0  0  0  0  0  0  0  0  0  0
  161.1450  207.3780  152.2130 C   0  0  0  0  0  0  0  0  0  0  0  0
  160.9510  206.7230  149.7990 C   0  0  0  0  0  2  0  0  0  0  0  0
  161.7370  206.0460  147.5940 N   0  0  0  0  0  1  0  0  0  0  0  0
  161.5230  205.5910  148.9580 C   0  0  2  0  0  3  0  0  0  0  0  0
  160.6280  204.3510  148.9740 C   0  0  0  0  0  2  0  0  0  0  0  0
  161.3480  203.1050  148.4520 C   0  0  2  0  0  3  0  0  0  0  0  0
  161.2120  203.0270  147.0630 O   0  0  0  0  0  1  0  0  0  0  0  0
  159.4250  201.6780  148.9460 N   0  0  0  0  0  1  0  0  0  0  0  0
  161.5510  200.5900  148.5500 C   0  0  0  0  0  1  0  0  0  0  0  0
  161.1510  201.8790  150.6160 C   0  0  0  0  0  1  0  0  0  0  0  0
  160.8610  201.8150  149.1280 C   0  0  0  0  0  0  0  0  0  0  0  0
  162.3410  210.2450  150.8270 O   0  0  0  0  0  1  0  0  0  0  0  0
  162.1360  209.6240  152.0590 C   0  0  0  0  0  2  0  0  0  0  0  0
  1 30  1  1  0  0  0
  1 18  1  0  0  0  0
  2 12  1  0  0  0  0
  2  9  1  0  0  0  0
  3  6  1  0  0  0  0
  4  6  1  0  0  0  0
  5  1  1  6  0  0  0
  5  4  1  0  0  0  0
  6  2  2  0  0  0  0
  7  5  1  0  0  0  0
  7  3  2  0  0  0  0
  9  8  1  0  0  0  0
 10  3  1  0  0  0  0
 11 10  1  0  0  0  0
 12 13  1  0  0  0  0
 14 16  1  0  0  0  0
 15 14  2  0  0  0  0
 17 15  1  0  0  0  0
 17 18  2  0  0  0  0
 18 16  1  0  0  0  0
 19 17  1  0  0  0  0
 21 20  1  6  0  0  0
 21 22  1  0  0  0  0
 21 19  1  0  0  0  0
 23 24  1  6  0  0  0
 23 22  1  0  0  0  0
 23 28  1  0  0  0  0
 25 28  1  0  0  0  0
 26 28  1  0  0  0  0
 28 27  1  0  0  0  0
 29 30  1  0  0  0  0
M  END
>  <MODEL>
9

>  <REMARK>
 VINA RESULT:      -5.7      2.485      8.789
  Name = 
  11 active torsions:
  status: ('A' for Active; 'I' for Inactive)
    1  A    between atoms: C_1  and  C_8
    2  A    between atoms: C_1  and  C_27
    3  A    between atoms: C_3  and  N_7
    4  A    between atoms: C_3  and  O_18
    5  A    between atoms: C_6  and  C_14
    6  A    between atoms: C_6  and  C_26
    7  A    between atoms: C_6  and  C_30
    8  A    between atoms: C_8  and  C_24
    9  A    between atoms: C_10  and  O_17
   10  A    between atoms: C_27  and  C_29
   11  A    between atoms: C_28  and  C_29
                            x       y       z     vdW  Elec       q    Type
                         _______ _______ _______ _____ _____    ______ ____

>  <TORSDO>
F 11

$$$$
