=
 OpenBabel11072411543D

 32 34  0  0  0  0  0  0  0  0999 V2000
  160.7240  208.6040  154.8910 C   0  0  0  0  0  0  0  0  0  0  0  0
  161.3750  209.0520  152.5890 C   0  0  0  0  0  0  0  0  0  0  0  0
  160.6600  207.2420  154.6050 C   0  0  0  0  0  3  0  0  0  0  0  0
  160.4570  209.0380  156.1840 O   0  0  0  0  0  1  0  0  0  0  0  0
  161.3030  207.6700  152.2980 C   0  0  0  0  0  0  0  0  0  0  0  0
  161.7640  209.9650  151.6120 O   0  0  0  0  0  1  0  0  0  0  0  0
  160.9410  206.7810  153.3210 C   0  0  0  0  0  3  0  0  0  0  0  0
  161.0630  209.5200  153.8820 C   0  0  0  0  0  0  0  0  0  0  0  0
  162.7170  207.3450  150.4210 O   0  0  0  0  0  0  0  0  0  0  0  0
  161.5970  207.1120  150.9540 C   0  0  0  0  0  0  0  0  0  0  0  0
  160.6270  206.3070  150.2640 N   0  0  0  0  0  2  0  0  0  0  0  0
  161.7420  203.7270  145.5230 F   0  0  0  0  0  0  0  0  0  0  0  0
  160.7630  205.7040  148.9710 C   0  0  0  0  0  0  0  0  0  0  0  0
  161.9720  204.5680  146.5950 C   0  0  0  0  0  0  0  0  0  0  0  0
  163.2520  205.0780  146.4890 F   0  0  0  0  0  0  0  0  0  0  0  0
  161.8800  203.7470  147.8990 C   0  0  0  0  0  2  0  0  0  0  0  0
  160.7780  204.2080  148.8630 C   0  0  0  0  0  2  0  0  0  0  0  0
  160.9700  205.7310  146.5290 C   0  0  0  0  0  2  0  0  0  0  0  0
  160.8590  206.4270  147.8520 C   0  0  0  0  0  3  0  0  0  0  0  0
  161.1180  210.9870  154.2020 C   0  0  0  0  0  2  0  0  0  0  0  0
  159.8220  211.6840  153.9060 C   0  0  0  0  0  0  0  0  0  0  0  0
  159.6390  212.1910  152.7310 N   0  0  0  0  0  2  0  0  0  0  0  0
  157.5330  211.0150  154.5450 C   0  0  0  0  0  3  0  0  0  0  0  0
  158.7140  211.6880  154.8860 C   0  0  0  0  0  0  0  0  0  0  0  0
  158.7680  212.4090  156.1110 C   0  0  0  0  0  0  0  0  0  0  0  0
  156.4570  211.7840  156.5630 C   0  0  0  0  0  3  0  0  0  0  0  0
  156.4150  211.0550  155.3780 C   0  0  0  0  0  0  0  0  0  0  0  0
  157.6270  212.4530  156.9270 C   0  0  0  0  0  3  0  0  0  0  0  0
  155.2270  210.3660  155.0080 N   0  0  0  0  0  1  0  0  0  0  0  0
  159.9960  213.0710  156.6110 C   0  0  0  0  0  0  0  0  0  0  0  0
  160.9860  212.3460  157.2610 O   0  0  0  0  0  1  0  0  0  0  0  0
  160.1270  214.3190  156.5000 O   0  0  0  0  0  0  0  0  0  0  0  0
  1  4  1  0  0  0  0
  2  8  1  0  0  0  0
  3  1  1  0  0  0  0
  5  2  2  0  0  0  0
  5  7  1  0  0  0  0
  6  2  1  0  0  0  0
  7  3  2  0  0  0  0
  8 20  1  0  0  0  0
  8  1  2  0  0  0  0
  9 10  2  0  0  0  0
 10  5  1  0  0  0  0
 11 10  1  0  0  0  0
 12 14  1  0  0  0  0
 13 11  1  0  0  0  0
 14 16  1  0  0  0  0
 15 14  1  0  0  0  0
 16 17  1  0  0  0  0
 17 13  1  0  0  0  0
 18 14  1  0  0  0  0
 18 19  1  0  0  0  0
 19 13  2  0  0  0  0
 21 20  1  0  0  0  0
 21 24  1  0  0  0  0
 22 21  2  0  0  0  0
 23 24  2  0  0  0  0
 23 27  1  0  0  0  0
 24 25  1  0  0  0  0
 25 30  1  0  0  0  0
 25 28  2  0  0  0  0
 26 28  1  0  0  0  0
 27 26  2  0  0  0  0
 29 27  1  0  0  0  0
 30 31  1  0  0  0  0
 32 30  2  0  0  0  0
M  END
>  <MODEL>
1

>  <REMARK>
 VINA RESULT:      -8.5      0.000      0.000
  Name = 
  6 active torsions:
  status: ('A' for Active; 'I' for Inactive)
    1  A    between atoms: C_2  and  C_18
    2  A    between atoms: C_2  and  C_23
    3  A    between atoms: C_8  and  C_19
    4  A    between atoms: C_9  and  C_17
    5  A    between atoms: C_11  and  C_18
    6  A    between atoms: C_12  and  N_32
                            x       y       z     vdW  Elec       q    Type
                         _______ _______ _______ _____ _____    ______ ____

>  <TORSDO>
F 6

$$$$
=
 OpenBabel11072411543D

 32 34  0  0  0  0  0  0  0  0999 V2000
  161.5870  205.4200  152.2070 C   0  0  0  0  0  0  0  0  0  0  0  0
  161.5760  207.8000  151.6980 C   0  0  0  0  0  0  0  0  0  0  0  0
  161.2130  205.7010  153.5190 C   0  0  0  0  0  3  0  0  0  0  0  0
  161.7480  204.0950  151.8170 O   0  0  0  0  0  1  0  0  0  0  0  0
  161.2030  208.0850  153.0320 C   0  0  0  0  0  0  0  0  0  0  0  0
  161.7260  208.8250  150.7670 O   0  0  0  0  0  1  0  0  0  0  0  0
  161.0280  207.0210  153.9280 C   0  0  0  0  0  3  0  0  0  0  0  0
  161.7890  206.4670  151.2930 C   0  0  0  0  0  0  0  0  0  0  0  0
  161.9120  210.3140  153.4290 O   0  0  0  0  0  0  0  0  0  0  0  0
  160.9830  209.4660  153.5310 C   0  0  0  0  0  0  0  0  0  0  0  0
  159.7270  209.8440  154.1150 N   0  0  0  0  0  2  0  0  0  0  0  0
  157.8510  214.4530  156.4850 F   0  0  0  0  0  0  0  0  0  0  0  0
  159.3650  211.1290  154.6390 C   0  0  0  0  0  0  0  0  0  0  0  0
  157.7790  213.2770  155.7630 C   0  0  0  0  0  0  0  0  0  0  0  0
  156.4570  213.0420  155.4340 F   0  0  0  0  0  0  0  0  0  0  0  0
  158.2750  212.1180  156.6530 C   0  0  0  0  0  2  0  0  0  0  0  0
  159.5070  211.3820  156.1090 C   0  0  0  0  0  2  0  0  0  0  0  0
  158.5880  213.4470  154.4680 C   0  0  0  0  0  2  0  0  0  0  0  0
  158.9210  212.1180  153.8590 C   0  0  0  0  0  3  0  0  0  0  0  0
  162.2030  206.1490  149.8830 C   0  0  0  0  0  2  0  0  0  0  0  0
  161.0420  205.7410  149.0250 C   0  0  0  0  0  0  0  0  0  0  0  0
  160.0770  206.5810  148.8390 N   0  0  0  0  0  2  0  0  0  0  0  0
  160.8120  203.2830  149.0260 C   0  0  0  0  0  3  0  0  0  0  0  0
  161.0450  204.4560  148.2940 C   0  0  0  0  0  0  0  0  0  0  0  0
  161.3560  204.3540  146.9090 C   0  0  0  0  0  0  0  0  0  0  0  0
  161.2250  201.9270  147.0730 C   0  0  0  0  0  3  0  0  0  0  0  0
  160.8930  202.0290  148.4210 C   0  0  0  0  0  0  0  0  0  0  0  0
  161.4520  203.0820  146.3230 C   0  0  0  0  0  3  0  0  0  0  0  0
  160.6540  200.8540  149.1860 N   0  0  0  0  0  1  0  0  0  0  0  0
  161.5230  205.5320  146.0260 C   0  0  0  0  0  0  0  0  0  0  0  0
  160.4250  206.2670  145.5970 O   0  0  0  0  0  0  0  0  0  0  0  0
  162.6690  205.8460  145.6070 O   0  0  0  0  0  1  0  0  0  0  0  0
  1  3  1  0  0  0  0
  2  5  2  0  0  0  0
  3  7  2  0  0  0  0
  4  1  1  0  0  0  0
  5 10  1  0  0  0  0
  5  7  1  0  0  0  0
  6  2  1  0  0  0  0
  8  2  1  0  0  0  0
  8  1  2  0  0  0  0
  9 10  2  0  0  0  0
 10 11  1  0  0  0  0
 11 13  1  0  0  0  0
 13 17  1  0  0  0  0
 14 12  1  0  0  0  0
 14 16  1  0  0  0  0
 15 14  1  0  0  0  0
 17 16  1  0  0  0  0
 18 14  1  0  0  0  0
 19 18  1  0  0  0  0
 19 13  2  0  0  0  0
 20  8  1  0  0  0  0
 21 20  1  0  0  0  0
 22 21  2  0  0  0  0
 24 21  1  0  0  0  0
 24 23  2  0  0  0  0
 25 24  1  0  0  0  0
 26 27  2  0  0  0  0
 27 23  1  0  0  0  0
 27 29  1  0  0  0  0
 28 25  2  0  0  0  0
 28 26  1  0  0  0  0
 30 25  1  0  0  0  0
 31 30  2  0  0  0  0
 32 30  1  0  0  0  0
M  END
>  <MODEL>
2

>  <REMARK>
 VINA RESULT:      -8.4      4.160      9.802
  Name = 
  6 active torsions:
  status: ('A' for Active; 'I' for Inactive)
    1  A    between atoms: C_2  and  C_18
    2  A    between atoms: C_2  and  C_23
    3  A    between atoms: C_8  and  C_19
    4  A    between atoms: C_9  and  C_17
    5  A    between atoms: C_11  and  C_18
    6  A    between atoms: C_12  and  N_32
                            x       y       z     vdW  Elec       q    Type
                         _______ _______ _______ _____ _____    ______ ____

>  <TORSDO>
F 6

$$$$
=
 OpenBabel11072411543D

 32 34  0  0  0  0  0  0  0  0999 V2000
  160.8340  207.9110  155.1460 C   0  0  0  0  0  0  0  0  0  0  0  0
  161.2000  208.6440  152.8550 C   0  0  0  0  0  0  0  0  0  0  0  0
  160.9710  206.5850  154.7420 C   0  0  0  0  0  3  0  0  0  0  0  0
  160.6120  208.1900  156.4900 O   0  0  0  0  0  1  0  0  0  0  0  0
  161.3310  207.2970  152.4430 C   0  0  0  0  0  0  0  0  0  0  0  0
  161.3460  209.6840  151.9400 O   0  0  0  0  0  1  0  0  0  0  0  0
  161.2120  206.2820  153.4030 C   0  0  0  0  0  3  0  0  0  0  0  0
  160.9290  208.9480  154.2040 C   0  0  0  0  0  0  0  0  0  0  0  0
  162.6380  207.3280  150.4630 O   0  0  0  0  0  0  0  0  0  0  0  0
  161.5960  206.9050  151.0360 C   0  0  0  0  0  0  0  0  0  0  0  0
  160.6860  206.0480  150.3290 N   0  0  0  0  0  2  0  0  0  0  0  0
  161.7340  203.9970  145.3220 F   0  0  0  0  0  0  0  0  0  0  0  0
  160.8020  205.5860  148.9760 C   0  0  0  0  0  0  0  0  0  0  0  0
  161.9760  204.7230  146.4720 C   0  0  0  0  0  0  0  0  0  0  0  0
  163.2480  205.2580  146.3970 F   0  0  0  0  0  0  0  0  0  0  0  0
  161.9180  203.7670  147.6830 C   0  0  0  0  0  2  0  0  0  0  0  0
  160.8310  204.1110  148.7110 C   0  0  0  0  0  2  0  0  0  0  0  0
  160.9600  205.8740  146.5470 C   0  0  0  0  0  2  0  0  0  0  0  0
  160.8690  206.4250  147.9390 C   0  0  0  0  0  3  0  0  0  0  0  0
  160.7690  210.3740  154.6530 C   0  0  0  0  0  2  0  0  0  0  0  0
  159.3350  210.8190  154.6380 C   0  0  0  0  0  0  0  0  0  0  0  0
  158.4730  210.1730  155.3520 N   0  0  0  0  0  2  0  0  0  0  0  0
  158.6880  211.9620  152.5470 C   0  0  0  0  0  3  0  0  0  0  0  0
  158.9240  212.0490  153.9260 C   0  0  0  0  0  0  0  0  0  0  0  0
  158.8430  213.3190  154.5620 C   0  0  0  0  0  0  0  0  0  0  0  0
  158.3370  214.3460  152.4120 C   0  0  0  0  0  3  0  0  0  0  0  0
  158.3890  213.0980  151.7950 C   0  0  0  0  0  0  0  0  0  0  0  0
  158.5610  214.4530  153.7840 C   0  0  0  0  0  3  0  0  0  0  0  0
  158.1540  212.9850  150.3970 N   0  0  0  0  0  1  0  0  0  0  0  0
  158.9800  213.5050  156.0250 C   0  0  0  0  0  0  0  0  0  0  0  0
  157.8920  213.3360  156.8730 O   0  0  0  0  0  1  0  0  0  0  0  0
  160.0800  213.8770  156.5120 O   0  0  0  0  0  0  0  0  0  0  0  0
  1  4  1  0  0  0  0
  2  8  1  0  0  0  0
  3  1  1  0  0  0  0
  5  2  2  0  0  0  0
  5  7  1  0  0  0  0
  6  2  1  0  0  0  0
  7  3  2  0  0  0  0
  8 20  1  0  0  0  0
  8  1  2  0  0  0  0
  9 10  2  0  0  0  0
 10  5  1  0  0  0  0
 11 10  1  0  0  0  0
 12 14  1  0  0  0  0
 13 11  1  0  0  0  0
 14 18  1  0  0  0  0
 14 16  1  0  0  0  0
 15 14  1  0  0  0  0
 16 17  1  0  0  0  0
 17 13  1  0  0  0  0
 18 19  1  0  0  0  0
 19 13  2  0  0  0  0
 21 20  1  0  0  0  0
 21 22  2  0  0  0  0
 23 24  1  0  0  0  0
 24 25  2  0  0  0  0
 24 21  1  0  0  0  0
 25 30  1  0  0  0  0
 26 28  2  0  0  0  0
 27 26  1  0  0  0  0
 27 23  2  0  0  0  0
 28 25  1  0  0  0  0
 29 27  1  0  0  0  0
 30 32  2  0  0  0  0
 30 31  1  0  0  0  0
M  END
>  <MODEL>
3

>  <REMARK>
 VINA RESULT:      -8.0      1.460      2.100
  Name = 
  6 active torsions:
  status: ('A' for Active; 'I' for Inactive)
    1  A    between atoms: C_2  and  C_18
    2  A    between atoms: C_2  and  C_23
    3  A    between atoms: C_8  and  C_19
    4  A    between atoms: C_9  and  C_17
    5  A    between atoms: C_11  and  C_18
    6  A    between atoms: C_12  and  N_32
                            x       y       z     vdW  Elec       q    Type
                         _______ _______ _______ _____ _____    ______ ____

>  <TORSDO>
F 6

$$$$
=
 OpenBabel11072411543D

 32 34  0  0  0  0  0  0  0  0999 V2000
  162.3310  208.3210  149.4250 C   0  0  0  0  0  0  0  0  0  0  0  0
  161.4380  208.1400  151.6810 C   0  0  0  0  0  0  0  0  0  0  0  0
  162.2940  209.7100  149.5230 C   0  0  0  0  0  3  0  0  0  0  0  0
  162.8200  207.7380  148.2610 O   0  0  0  0  0  1  0  0  0  0  0  0
  161.3930  209.5510  151.7780 C   0  0  0  0  0  0  0  0  0  0  0  0
  161.0520  207.3420  152.7540 O   0  0  0  0  0  1  0  0  0  0  0  0
  161.8250  210.3180  150.6860 C   0  0  0  0  0  3  0  0  0  0  0  0
  161.8870  207.5270  150.4940 C   0  0  0  0  0  0  0  0  0  0  0  0
  161.6980  210.4150  153.9670 O   0  0  0  0  0  0  0  0  0  0  0  0
  160.9130  210.2620  152.9890 C   0  0  0  0  0  0  0  0  0  0  0  0
  159.5750  210.7810  153.0540 N   0  0  0  0  0  2  0  0  0  0  0  0
  156.6690  213.1510  157.0930 F   0  0  0  0  0  0  0  0  0  0  0  0
  158.9700  211.4840  154.1480 C   0  0  0  0  0  0  0  0  0  0  0  0
  156.9670  212.7700  155.7990 C   0  0  0  0  0  0  0  0  0  0  0  0
  155.9310  213.1660  154.9740 F   0  0  0  0  0  0  0  0  0  0  0  0
  157.0720  211.2310  155.7470 C   0  0  0  0  0  2  0  0  0  0  0  0
  158.4470  210.7030  155.3150 C   0  0  0  0  0  2  0  0  0  0  0  0
  158.2510  213.4900  155.3600 C   0  0  0  0  0  2  0  0  0  0  0  0
  158.8700  212.8160  154.1720 C   0  0  0  0  0  3  0  0  0  0  0  0
  161.9220  206.0290  150.3690 C   0  0  0  0  0  2  0  0  0  0  0  0
  160.8630  205.5090  149.4430 C   0  0  0  0  0  0  0  0  0  0  0  0
  159.9550  206.3220  149.0110 N   0  0  0  0  0  2  0  0  0  0  0  0
  160.4800  203.0900  149.7600 C   0  0  0  0  0  3  0  0  0  0  0  0
  160.9150  204.1250  148.9210 C   0  0  0  0  0  0  0  0  0  0  0  0
  161.4630  203.7990  147.6500 C   0  0  0  0  0  0  0  0  0  0  0  0
  161.1500  201.4330  148.1390 C   0  0  0  0  0  3  0  0  0  0  0  0
  160.5890  201.7550  149.3720 C   0  0  0  0  0  0  0  0  0  0  0  0
  161.5810  202.4490  147.2840 C   0  0  0  0  0  3  0  0  0  0  0  0
  160.1420  200.7220  150.2410 N   0  0  0  0  0  1  0  0  0  0  0  0
  161.8610  204.8180  146.6510 C   0  0  0  0  0  0  0  0  0  0  0  0
  160.9070  205.5160  145.9210 O   0  0  0  0  0  0  0  0  0  0  0  0
  163.0810  205.0220  146.4120 O   0  0  0  0  0  1  0  0  0  0  0  0
  1  3  2  0  0  0  0
  1  8  1  0  0  0  0
  2  5  1  0  0  0  0
  2  6  1  0  0  0  0
  3  7  1  0  0  0  0
  4  1  1  0  0  0  0
  5 10  1  0  0  0  0
  7  5  2  0  0  0  0
  8  2  2  0  0  0  0
 10 11  1  0  0  0  0
 10  9  2  0  0  0  0
 11 13  1  0  0  0  0
 13 19  2  0  0  0  0
 13 17  1  0  0  0  0
 14 12  1  0  0  0  0
 15 14  1  0  0  0  0
 16 14  1  0  0  0  0
 17 16  1  0  0  0  0
 18 14  1  0  0  0  0
 19 18  1  0  0  0  0
 20  8  1  0  0  0  0
 21 20  1  0  0  0  0
 22 21  2  0  0  0  0
 24 21  1  0  0  0  0
 24 23  2  0  0  0  0
 25 24  1  0  0  0  0
 26 27  2  0  0  0  0
 27 23  1  0  0  0  0
 27 29  1  0  0  0  0
 28 25  2  0  0  0  0
 28 26  1  0  0  0  0
 30 25  1  0  0  0  0
 31 30  2  0  0  0  0
 32 30  1  0  0  0  0
M  END
>  <MODEL>
4

>  <REMARK>
 VINA RESULT:      -7.9      4.198      9.872
  Name = 
  6 active torsions:
  status: ('A' for Active; 'I' for Inactive)
    1  A    between atoms: C_2  and  C_18
    2  A    between atoms: C_2  and  C_23
    3  A    between atoms: C_8  and  C_19
    4  A    between atoms: C_9  and  C_17
    5  A    between atoms: C_11  and  C_18
    6  A    between atoms: C_12  and  N_32
                            x       y       z     vdW  Elec       q    Type
                         _______ _______ _______ _____ _____    ______ ____

>  <TORSDO>
F 6

$$$$
=
 OpenBabel11072411543D

 32 34  0  0  0  0  0  0  0  0999 V2000
  160.5330  209.0710  154.9870 C   0  0  0  0  0  0  0  0  0  0  0  0
  161.4670  208.4480  152.8280 C   0  0  0  0  0  0  0  0  0  0  0  0
  160.4460  207.7250  155.3350 C   0  0  0  0  0  3  0  0  0  0  0  0
  160.1350  210.0350  155.9050 O   0  0  0  0  0  1  0  0  0  0  0  0
  161.3710  207.0800  153.1790 C   0  0  0  0  0  0  0  0  0  0  0  0
  162.0050  208.8300  151.6010 O   0  0  0  0  0  1  0  0  0  0  0  0
  160.8560  206.7400  154.4380 C   0  0  0  0  0  3  0  0  0  0  0  0
  161.0260  209.4410  153.7250 C   0  0  0  0  0  0  0  0  0  0  0  0
  163.0240  205.8390  152.0140 O   0  0  0  0  0  0  0  0  0  0  0  0
  161.7970  205.9830  152.2750 C   0  0  0  0  0  0  0  0  0  0  0  0
  160.8320  205.0840  151.7050 N   0  0  0  0  0  2  0  0  0  0  0  0
  161.3090  201.1160  147.9110 F   0  0  0  0  0  0  0  0  0  0  0  0
  161.0860  203.9850  150.8200 C   0  0  0  0  0  0  0  0  0  0  0  0
  160.6670  201.9190  148.8330 C   0  0  0  0  0  0  0  0  0  0  0  0
  159.3190  201.6140  148.8210 F   0  0  0  0  0  0  0  0  0  0  0  0
  160.8370  203.3940  148.4090 C   0  0  0  0  0  2  0  0  0  0  0  0
  161.5780  204.2670  149.4320 C   0  0  0  0  0  2  0  0  0  0  0  0
  161.2310  201.6110  150.2280 C   0  0  0  0  0  2  0  0  0  0  0  0
  160.9180  202.7140  151.1950 C   0  0  0  0  0  3  0  0  0  0  0  0
  161.1040  210.8970  153.3590 C   0  0  0  0  0  2  0  0  0  0  0  0
  159.9250  211.3440  152.5450 C   0  0  0  0  0  0  0  0  0  0  0  0
  158.7390  210.9880  152.9160 N   0  0  0  0  0  2  0  0  0  0  0  0
  160.9240  211.8970  150.3560 C   0  0  0  0  0  3  0  0  0  0  0  0
  160.0890  212.2820  151.4130 C   0  0  0  0  0  0  0  0  0  0  0  0
  159.5060  213.5800  151.3940 C   0  0  0  0  0  0  0  0  0  0  0  0
  160.6530  214.0480  149.2960 C   0  0  0  0  0  3  0  0  0  0  0  0
  161.2000  212.7670  149.3020 C   0  0  0  0  0  0  0  0  0  0  0  0
  159.8110  214.4480  150.3340 C   0  0  0  0  0  3  0  0  0  0  0  0
  162.0530  212.3530  148.2410 N   0  0  0  0  0  1  0  0  0  0  0  0
  158.5350  214.0500  152.4090 C   0  0  0  0  0  0  0  0  0  0  0  0
  158.9560  214.4530  153.6700 O   0  0  0  0  0  1  0  0  0  0  0  0
  157.3020  214.0350  152.1540 O   0  0  0  0  0  0  0  0  0  0  0  0
  1  3  1  0  0  0  0
  1  4  1  0  0  0  0
  2  5  2  0  0  0  0
  2  8  1  0  0  0  0
  5  7  1  0  0  0  0
  6  2  1  0  0  0  0
  7  3  2  0  0  0  0
  8  1  2  0  0  0  0
  9 10  2  0  0  0  0
 10  5  1  0  0  0  0
 11 10  1  0  0  0  0
 12 14  1  0  0  0  0
 13 19  2  0  0  0  0
 13 11  1  0  0  0  0
 14 18  1  0  0  0  0
 15 14  1  0  0  0  0
 16 14  1  0  0  0  0
 16 17  1  0  0  0  0
 17 13  1  0  0  0  0
 18 19  1  0  0  0  0
 20  8  1  0  0  0  0
 21 22  2  0  0  0  0
 21 20  1  0  0  0  0
 23 24  1  0  0  0  0
 24 21  1  0  0  0  0
 25 24  2  0  0  0  0
 25 30  1  0  0  0  0
 26 27  1  0  0  0  0
 26 28  2  0  0  0  0
 27 23  2  0  0  0  0
 28 25  1  0  0  0  0
 29 27  1  0  0  0  0
 30 31  1  0  0  0  0
 32 30  2  0  0  0  0
M  END
>  <MODEL>
5

>  <REMARK>
 VINA RESULT:      -7.7      2.829      4.225
  Name = 
  6 active torsions:
  status: ('A' for Active; 'I' for Inactive)
    1  A    between atoms: C_2  and  C_18
    2  A    between atoms: C_2  and  C_23
    3  A    between atoms: C_8  and  C_19
    4  A    between atoms: C_9  and  C_17
    5  A    between atoms: C_11  and  C_18
    6  A    between atoms: C_12  and  N_32
                            x       y       z     vdW  Elec       q    Type
                         _______ _______ _______ _____ _____    ______ ____

>  <TORSDO>
F 6

$$$$
=
 OpenBabel11072411543D

 32 34  0  0  0  0  0  0  0  0999 V2000
  162.3660  208.2320  149.4020 C   0  0  0  0  0  0  0  0  0  0  0  0
  161.5220  208.0730  151.6790 C   0  0  0  0  0  0  0  0  0  0  0  0
  162.3100  209.6210  149.4800 C   0  0  0  0  0  3  0  0  0  0  0  0
  162.8390  207.6370  148.2380 O   0  0  0  0  0  1  0  0  0  0  0  0
  161.4600  209.4850  151.7560 C   0  0  0  0  0  0  0  0  0  0  0  0
  161.1700  207.2860  152.7730 O   0  0  0  0  0  1  0  0  0  0  0  0
  161.8570  210.2410  150.6440 C   0  0  0  0  0  3  0  0  0  0  0  0
  161.9550  207.4480  150.4920 C   0  0  0  0  0  0  0  0  0  0  0  0
  161.7870  210.3580  153.9370 O   0  0  0  0  0  0  0  0  0  0  0  0
  160.9950  210.2070  152.9660 C   0  0  0  0  0  0  0  0  0  0  0  0
  159.6620  210.7390  153.0370 N   0  0  0  0  0  2  0  0  0  0  0  0
  156.8010  213.1770  157.0680 F   0  0  0  0  0  0  0  0  0  0  0  0
  159.0710  211.4550  154.1300 C   0  0  0  0  0  0  0  0  0  0  0  0
  157.0970  212.7950  155.7740 C   0  0  0  0  0  0  0  0  0  0  0  0
  156.0820  213.2300  154.9420 F   0  0  0  0  0  0  0  0  0  0  0  0
  157.1520  211.2540  155.7120 C   0  0  0  0  0  2  0  0  0  0  0  0
  158.5130  210.6840  155.2880 C   0  0  0  0  0  2  0  0  0  0  0  0
  158.4080  213.4750  155.3500 C   0  0  0  0  0  2  0  0  0  0  0  0
  159.0140  212.7890  154.1620 C   0  0  0  0  0  3  0  0  0  0  0  0
  162.0100  205.9490  150.3900 C   0  0  0  0  0  2  0  0  0  0  0  0
  160.9480  205.4010  149.4820 C   0  0  0  0  0  0  0  0  0  0  0  0
  160.0490  206.2030  149.0160 N   0  0  0  0  0  2  0  0  0  0  0  0
  161.0110  203.7650  147.6330 C   0  0  0  0  0  3  0  0  0  0  0  0
  160.9910  203.9970  149.0150 C   0  0  0  0  0  0  0  0  0  0  0  0
  160.9290  202.8860  149.9010 C   0  0  0  0  0  0  0  0  0  0  0  0
  160.8670  201.3820  147.9860 C   0  0  0  0  0  3  0  0  0  0  0  0
  160.9570  202.4690  147.1200 C   0  0  0  0  0  0  0  0  0  0  0  0
  160.8550  201.5910  149.3650 C   0  0  0  0  0  3  0  0  0  0  0  0
  160.9760  202.2590  145.7140 N   0  0  0  0  0  1  0  0  0  0  0  0
  161.0010  203.0170  151.3750 C   0  0  0  0  0  0  0  0  0  0  0  0
  160.0810  203.7910  152.0710 O   0  0  0  0  0  1  0  0  0  0  0  0
  161.9390  202.4670  152.0100 O   0  0  0  0  0  0  0  0  0  0  0  0
  1  3  2  0  0  0  0
  1  8  1  0  0  0  0
  2  5  1  0  0  0  0
  2  6  1  0  0  0  0
  3  7  1  0  0  0  0
  4  1  1  0  0  0  0
  5 10  1  0  0  0  0
  7  5  2  0  0  0  0
  8  2  2  0  0  0  0
 10 11  1  0  0  0  0
 10  9  2  0  0  0  0
 11 13  1  0  0  0  0
 13 19  2  0  0  0  0
 13 17  1  0  0  0  0
 14 12  1  0  0  0  0
 15 14  1  0  0  0  0
 16 14  1  0  0  0  0
 17 16  1  0  0  0  0
 18 14  1  0  0  0  0
 19 18  1  0  0  0  0
 20  8  1  0  0  0  0
 21 20  1  0  0  0  0
 22 21  2  0  0  0  0
 23 24  1  0  0  0  0
 24 21  1  0  0  0  0
 24 25  2  0  0  0  0
 25 30  1  0  0  0  0
 26 28  2  0  0  0  0
 27 23  2  0  0  0  0
 27 26  1  0  0  0  0
 28 25  1  0  0  0  0
 29 27  1  0  0  0  0
 30 32  2  0  0  0  0
 30 31  1  0  0  0  0
M  END
>  <MODEL>
6

>  <REMARK>
 VINA RESULT:      -7.6      4.249      9.698
  Name = 
  6 active torsions:
  status: ('A' for Active; 'I' for Inactive)
    1  A    between atoms: C_2  and  C_18
    2  A    between atoms: C_2  and  C_23
    3  A    between atoms: C_8  and  C_19
    4  A    between atoms: C_9  and  C_17
    5  A    between atoms: C_11  and  C_18
    6  A    between atoms: C_12  and  N_32
                            x       y       z     vdW  Elec       q    Type
                         _______ _______ _______ _____ _____    ______ ____

>  <TORSDO>
F 6

$$$$
=
 OpenBabel11072411543D

 32 34  0  0  0  0  0  0  0  0999 V2000
  162.3130  209.0010  150.6560 C   0  0  0  0  0  0  0  0  0  0  0  0
  161.6960  206.6690  150.3390 C   0  0  0  0  0  0  0  0  0  0  0  0
  162.1270  209.2330  149.2950 C   0  0  0  0  0  3  0  0  0  0  0  0
  162.6860  210.0580  151.4790 O   0  0  0  0  0  1  0  0  0  0  0  0
  161.5130  206.9030  148.9560 C   0  0  0  0  0  0  0  0  0  0  0  0
  161.4510  205.4110  150.8850 O   0  0  0  0  0  1  0  0  0  0  0  0
  161.7350  208.1940  148.4540 C   0  0  0  0  0  3  0  0  0  0  0  0
  162.1170  207.7150  151.1840 C   0  0  0  0  0  0  0  0  0  0  0  0
  160.1250  206.0650  147.2240 O   0  0  0  0  0  0  0  0  0  0  0  0
  161.0900  205.8430  148.0070 C   0  0  0  0  0  0  0  0  0  0  0  0
  161.7710  204.5790  147.9660 N   0  0  0  0  0  2  0  0  0  0  0  0
  160.1570  200.6830  144.4180 F   0  0  0  0  0  0  0  0  0  0  0  0
  161.4820  203.4640  147.1120 C   0  0  0  0  0  0  0  0  0  0  0  0
  160.0190  201.6180  145.4260 C   0  0  0  0  0  0  0  0  0  0  0  0
  158.6850  201.6890  145.7810 F   0  0  0  0  0  0  0  0  0  0  0  0
  160.4560  202.9960  144.8870 C   0  0  0  0  0  2  0  0  0  0  0  0
  161.6450  203.6210  145.6300 C   0  0  0  0  0  2  0  0  0  0  0  0
  160.8300  201.1490  146.6440 C   0  0  0  0  0  2  0  0  0  0  0  0
  161.0880  202.2820  147.5920 C   0  0  0  0  0  3  0  0  0  0  0  0
  162.3330  207.4760  152.6530 C   0  0  0  0  0  2  0  0  0  0  0  0
  161.0560  207.5520  153.4370 C   0  0  0  0  0  0  0  0  0  0  0  0
  160.4600  206.4540  153.7680 N   0  0  0  0  0  2  0  0  0  0  0  0
  159.9730  209.7310  153.0170 C   0  0  0  0  0  3  0  0  0  0  0  0
  160.5440  208.8450  153.9410 C   0  0  0  0  0  0  0  0  0  0  0  0
  160.6840  209.2560  155.2960 C   0  0  0  0  0  0  0  0  0  0  0  0
  159.7170  211.4180  154.7240 C   0  0  0  0  0  3  0  0  0  0  0  0
  159.5550  211.0040  153.4040 C   0  0  0  0  0  0  0  0  0  0  0  0
  160.2750  210.5490  155.6610 C   0  0  0  0  0  3  0  0  0  0  0  0
  158.9790  211.8850  152.4470 N   0  0  0  0  0  1  0  0  0  0  0  0
  161.1840  208.3650  156.3680 C   0  0  0  0  0  0  0  0  0  0  0  0
  160.3820  207.3600  156.8950 O   0  0  0  0  0  1  0  0  0  0  0  0
  162.3310  208.5480  156.8550 O   0  0  0  0  0  0  0  0  0  0  0  0
  1  8  1  0  0  0  0
  1  4  1  0  0  0  0
  2  6  1  0  0  0  0
  2  8  2  0  0  0  0
  3  1  2  0  0  0  0
  5  2  1  0  0  0  0
  7  5  2  0  0  0  0
  7  3  1  0  0  0  0
  8 20  1  0  0  0  0
  9 10  2  0  0  0  0
 10  5  1  0  0  0  0
 11 10  1  0  0  0  0
 12 14  1  0  0  0  0
 13 19  2  0  0  0  0
 13 11  1  0  0  0  0
 14 15  1  0  0  0  0
 14 18  1  0  0  0  0
 16 14  1  0  0  0  0
 16 17  1  0  0  0  0
 17 13  1  0  0  0  0
 18 19  1  0  0  0  0
 20 21  1  0  0  0  0
 21 22  2  0  0  0  0
 21 24  1  0  0  0  0
 23 27  2  0  0  0  0
 23 24  1  0  0  0  0
 24 25  2  0  0  0  0
 25 28  1  0  0  0  0
 25 30  1  0  0  0  0
 26 28  2  0  0  0  0
 27 26  1  0  0  0  0
 29 27  1  0  0  0  0
 30 32  2  0  0  0  0
 30 31  1  0  0  0  0
M  END
>  <MODEL>
7

>  <REMARK>
 VINA RESULT:      -7.5      2.601      4.296
  Name = 
  6 active torsions:
  status: ('A' for Active; 'I' for Inactive)
    1  A    between atoms: C_2  and  C_18
    2  A    between atoms: C_2  and  C_23
    3  A    between atoms: C_8  and  C_19
    4  A    between atoms: C_9  and  C_17
    5  A    between atoms: C_11  and  C_18
    6  A    between atoms: C_12  and  N_32
                            x       y       z     vdW  Elec       q    Type
                         _______ _______ _______ _____ _____    ______ ____

>  <TORSDO>
F 6

$$$$
=
 OpenBabel11072411543D

 32 34  0  0  0  0  0  0  0  0999 V2000
  161.0280  208.3560  154.7560 C   0  0  0  0  0  0  0  0  0  0  0  0
  161.3150  208.3330  152.3400 C   0  0  0  0  0  0  0  0  0  0  0  0
  160.9760  206.9640  154.7610 C   0  0  0  0  0  3  0  0  0  0  0  0
  160.9360  209.0420  155.9620 O   0  0  0  0  0  1  0  0  0  0  0  0
  161.2560  206.9200  152.3450 C   0  0  0  0  0  0  0  0  0  0  0  0
  161.5200  209.0320  151.1530 O   0  0  0  0  0  1  0  0  0  0  0  0
  161.0840  206.2540  153.5670 C   0  0  0  0  0  3  0  0  0  0  0  0
  161.1790  209.0510  153.5460 C   0  0  0  0  0  0  0  0  0  0  0  0
  161.8100  204.9220  151.1910 O   0  0  0  0  0  0  0  0  0  0  0  0
  161.3720  206.1030  151.1110 C   0  0  0  0  0  0  0  0  0  0  0  0
  160.9840  206.6400  149.8360 N   0  0  0  0  0  2  0  0  0  0  0  0
  161.7400  203.7710  145.1910 F   0  0  0  0  0  0  0  0  0  0  0  0
  161.0370  205.9800  148.5640 C   0  0  0  0  0  0  0  0  0  0  0  0
  162.0820  204.6070  146.2360 C   0  0  0  0  0  0  0  0  0  0  0  0
  163.4210  204.9280  146.1240 F   0  0  0  0  0  0  0  0  0  0  0  0
  161.8710  203.8500  147.5660 C   0  0  0  0  0  2  0  0  0  0  0  0
  160.8420  204.4940  148.5060 C   0  0  0  0  0  2  0  0  0  0  0  0
  161.2530  205.8960  146.1240 C   0  0  0  0  0  2  0  0  0  0  0  0
  161.2380  206.6450  147.4230 C   0  0  0  0  0  3  0  0  0  0  0  0
  161.2220  210.5530  153.5540 C   0  0  0  0  0  2  0  0  0  0  0  0
  159.8750  211.1640  153.2990 C   0  0  0  0  0  0  0  0  0  0  0  0
  158.8740  210.7980  154.0300 N   0  0  0  0  0  2  0  0  0  0  0  0
  160.4360  212.1920  151.1250 C   0  0  0  0  0  3  0  0  0  0  0  0
  159.7050  212.2600  152.3190 C   0  0  0  0  0  0  0  0  0  0  0  0
  158.9040  213.4070  152.5740 C   0  0  0  0  0  0  0  0  0  0  0  0
  159.6370  214.3700  150.4600 C   0  0  0  0  0  3  0  0  0  0  0  0
  160.3990  213.2340  150.1980 C   0  0  0  0  0  0  0  0  0  0  0  0
  158.8950  214.4530  151.6380 C   0  0  0  0  0  3  0  0  0  0  0  0
  161.1510  213.1420  148.9950 N   0  0  0  0  0  1  0  0  0  0  0  0
  158.0200  213.5350  153.7560 C   0  0  0  0  0  0  0  0  0  0  0  0
  156.6840  213.1590  153.6940 O   0  0  0  0  0  0  0  0  0  0  0  0
  158.4620  214.0430  154.8210 O   0  0  0  0  0  1  0  0  0  0  0  0
  1  3  1  0  0  0  0
  1  4  1  0  0  0  0
  2  5  2  0  0  0  0
  2  8  1  0  0  0  0
  5  7  1  0  0  0  0
  6  2  1  0  0  0  0
  7  3  2  0  0  0  0
  8 20  1  0  0  0  0
  8  1  2  0  0  0  0
 10  9  2  0  0  0  0
 10  5  1  0  0  0  0
 11 10  1  0  0  0  0
 12 14  1  0  0  0  0
 13 11  1  0  0  0  0
 14 16  1  0  0  0  0
 15 14  1  0  0  0  0
 16 17  1  0  0  0  0
 17 13  1  0  0  0  0
 18 14  1  0  0  0  0
 18 19  1  0  0  0  0
 19 13  2  0  0  0  0
 21 20  1  0  0  0  0
 21 22  2  0  0  0  0
 23 24  1  0  0  0  0
 24 25  2  0  0  0  0
 24 21  1  0  0  0  0
 25 30  1  0  0  0  0
 26 28  2  0  0  0  0
 27 26  1  0  0  0  0
 27 23  2  0  0  0  0
 28 25  1  0  0  0  0
 29 27  1  0  0  0  0
 30 32  1  0  0  0  0
 31 30  2  0  0  0  0
M  END
>  <MODEL>
8

>  <REMARK>
 VINA RESULT:      -7.5      2.051      3.194
  Name = 
  6 active torsions:
  status: ('A' for Active; 'I' for Inactive)
    1  A    between atoms: C_2  and  C_18
    2  A    between atoms: C_2  and  C_23
    3  A    between atoms: C_8  and  C_19
    4  A    between atoms: C_9  and  C_17
    5  A    between atoms: C_11  and  C_18
    6  A    between atoms: C_12  and  N_32
                            x       y       z     vdW  Elec       q    Type
                         _______ _______ _______ _____ _____    ______ ____

>  <TORSDO>
F 6

$$$$
=
 OpenBabel11072411543D

 32 34  0  0  0  0  0  0  0  0999 V2000
  161.0680  207.1770  154.0990 C   0  0  0  0  0  0  0  0  0  0  0  0
  161.5120  208.4760  152.0910 C   0  0  0  0  0  0  0  0  0  0  0  0
  161.1070  206.0040  153.3480 C   0  0  0  0  0  3  0  0  0  0  0  0
  160.8540  207.0950  155.4710 O   0  0  0  0  0  1  0  0  0  0  0  0
  161.5450  207.2860  151.3260 C   0  0  0  0  0  0  0  0  0  0  0  0
  161.7470  209.7110  151.4920 O   0  0  0  0  0  1  0  0  0  0  0  0
  161.3390  206.0600  151.9740 C   0  0  0  0  0  3  0  0  0  0  0  0
  161.2510  208.4200  153.4750 C   0  0  0  0  0  0  0  0  0  0  0  0
  162.3310  208.2780  149.3200 O   0  0  0  0  0  0  0  0  0  0  0  0
  161.7940  207.2740  149.8630 C   0  0  0  0  0  0  0  0  0  0  0  0
  161.4390  206.1310  149.0670 N   0  0  0  0  0  2  0  0  0  0  0  0
  161.4760  205.2530  143.6260 F   0  0  0  0  0  0  0  0  0  0  0  0
  161.6140  205.9710  147.6530 C   0  0  0  0  0  0  0  0  0  0  0  0
  161.3370  204.9320  144.9630 C   0  0  0  0  0  0  0  0  0  0  0  0
  160.9300  203.6150  145.0600 F   0  0  0  0  0  0  0  0  0  0  0  0
  160.2390  205.8280  145.5760 C   0  0  0  0  0  2  0  0  0  0  0  0
  160.7220  206.7320  146.7180 C   0  0  0  0  0  2  0  0  0  0  0  0
  162.7040  205.0790  145.6470 C   0  0  0  0  0  2  0  0  0  0  0  0
  162.5570  205.1790  147.1360 C   0  0  0  0  0  3  0  0  0  0  0  0
  161.1950  209.6780  154.2970 C   0  0  0  0  0  2  0  0  0  0  0  0
  159.7870  210.1260  154.5580 C   0  0  0  0  0  0  0  0  0  0  0  0
  159.0210  209.3850  155.2890 N   0  0  0  0  0  2  0  0  0  0  0  0
  158.9560  211.5930  152.7540 C   0  0  0  0  0  3  0  0  0  0  0  0
  159.3090  211.4500  154.1030 C   0  0  0  0  0  0  0  0  0  0  0  0
  159.2750  212.5920  154.9500 C   0  0  0  0  0  0  0  0  0  0  0  0
  158.5810  213.9580  153.0560 C   0  0  0  0  0  3  0  0  0  0  0  0
  158.5870  212.8340  152.2340 C   0  0  0  0  0  0  0  0  0  0  0  0
  158.9190  213.8360  154.4040 C   0  0  0  0  0  3  0  0  0  0  0  0
  158.2350  212.9530  150.8620 N   0  0  0  0  0  1  0  0  0  0  0  0
  159.5340  212.5310  156.4080 C   0  0  0  0  0  0  0  0  0  0  0  0
  160.8310  212.5510  156.9050 O   0  0  0  0  0  0  0  0  0  0  0  0
  158.5740  212.4030  157.2130 O   0  0  0  0  0  1  0  0  0  0  0  0
  1  4  1  0  0  0  0
  2  8  2  0  0  0  0
  3  1  2  0  0  0  0
  5  7  2  0  0  0  0
  5  2  1  0  0  0  0
  6  2  1  0  0  0  0
  7  3  1  0  0  0  0
  8  1  1  0  0  0  0
  8 20  1  0  0  0  0
  9 10  2  0  0  0  0
 10  5  1  0  0  0  0
 11 10  1  0  0  0  0
 12 14  1  0  0  0  0
 13 11  1  0  0  0  0
 14 15  1  0  0  0  0
 14 16  1  0  0  0  0
 14 18  1  0  0  0  0
 16 17  1  0  0  0  0
 17 13  1  0  0  0  0
 18 19  1  0  0  0  0
 19 13  2  0  0  0  0
 20 21  1  0  0  0  0
 21 22  2  0  0  0  0
 23 24  1  0  0  0  0
 24 21  1  0  0  0  0
 24 25  2  0  0  0  0
 25 30  1  0  0  0  0
 26 28  2  0  0  0  0
 27 23  2  0  0  0  0
 27 26  1  0  0  0  0
 28 25  1  0  0  0  0
 29 27  1  0  0  0  0
 30 31  2  0  0  0  0
 30 32  1  0  0  0  0
M  END
>  <MODEL>
9

>  <REMARK>
 VINA RESULT:      -7.5      1.724      2.455
  Name = 
  6 active torsions:
  status: ('A' for Active; 'I' for Inactive)
    1  A    between atoms: C_2  and  C_18
    2  A    between atoms: C_2  and  C_23
    3  A    between atoms: C_8  and  C_19
    4  A    between atoms: C_9  and  C_17
    5  A    between atoms: C_11  and  C_18
    6  A    between atoms: C_12  and  N_32
                            x       y       z     vdW  Elec       q    Type
                         _______ _______ _______ _____ _____    ______ ____

>  <TORSDO>
F 6

$$$$
