=
 OpenBabel11072414213D

 62 67  0  0  1  0  0  0  0  0999 V2000
  159.9840  207.7530  154.5780 C   0  0  0  0  0  2  0  0  0  0  0  0
  161.2090  204.7860  149.5840 C   0  0  0  0  0  0  0  0  0  0  0  0
  158.4200  212.3260  150.8960 C   0  0  0  0  0  2  0  0  0  0  0  0
  161.0080  206.3380  153.0220 C   0  0  1  0  0  0  0  0  0  0  0  0
  163.6810  213.2480  150.0630 O   0  0  0  0  0  1  0  0  0  0  0  0
  159.8810  209.3110  148.6150 O   0  0  0  0  0  1  0  0  0  0  0  0
  162.5100  210.4920  148.7180 C   0  0  1  0  0  3  0  0  0  0  0  0
  159.3030  214.3270  149.5910 C   0  0  0  0  0  2  0  0  0  0  0  0
  159.8810  207.1760  153.2960 O   0  0  0  0  0  0  0  0  0  0  0  0
  159.9960  210.8870  152.2380 N   0  0  0  0  0  0  0  0  0  0  0  0
  161.1670  203.4360  149.1220 N   0  0  0  0  0  2  0  0  0  0  0  0
  162.2770  210.7750  151.2720 C   0  0  2  0  0  3  0  0  0  0  0  0
  160.7010  205.0420  153.4390 O   0  0  0  0  0  1  0  0  0  0  0  0
  160.5640  207.3770  150.6450 C   0  0  0  0  0  2  0  0  0  0  0  0
  162.3630  208.2990  153.8540 C   0  0  2  0  0  3  0  0  0  0  0  0
  158.2080  213.7840  150.5050 C   0  0  1  0  0  3  0  0  0  0  0  0
  163.3380  208.3580  147.8830 O   0  0  0  0  0  1  0  0  0  0  0  0
  159.4670  212.2400  152.0180 C   0  0  2  0  0  3  0  0  0  0  0  0
  162.7870  210.1240  152.5600 C   0  0  0  0  0  2  0  0  0  0  0  0
  161.7670  213.8380  148.1090 O   0  0  0  0  0  0  0  0  0  0  0  0
  160.7970  205.8670  148.6090 C   0  0  2  0  0  0  0  0  0  0  0  0
  163.2620  213.0870  148.4180 P   0  0  2  0  0  0  0  0  0  0  0  0
  161.1000  208.8040  154.5820 C   0  0  0  0  0  2  0  0  0  0  0  0
  161.5550  205.7020  147.4340 O   0  0  0  0  0  1  0  0  0  0  0  0
  163.3600  211.3910  147.9020 N   0  0  0  0  0  0  0  0  0  0  0  0
  162.2170  209.1980  147.9310 C   0  0  1  0  0  3  0  0  0  0  0  0
  164.2790  213.8600  147.6000 O   0  0  0  0  0  0  0  0  0  0  0  0
  159.4280  213.5220  148.3900 N   0  0  0  0  0  0  0  0  0  0  0  0
  160.7860  210.4990  151.0770 C   0  0  0  0  0  2  0  0  0  0  0  0
  160.9220  208.4510  148.2800 C   0  0  1  0  0  3  0  0  0  0  0  0
  160.7600  212.9010  148.3990 C   0  0  0  0  0  2  0  0  0  0  0  0
  161.3230  205.0000  150.8730 N   0  0  0  0  0  0  0  0  0  0  0  0
  161.3150  206.3440  151.4950 C   0  0  2  0  0  3  0  0  0  0  0  0
  162.3940  208.7760  152.5440 O   0  0  0  0  0  0  0  0  0  0  0  0
  163.0940  210.1990  150.1120 C   0  0  0  0  0  2  0  0  0  0  0  0
  161.1060  207.2600  149.2250 C   0  0  1  0  0  3  0  0  0  0  0  0
  164.7660  210.9750  147.9160 C   0  0  0  0  0  1  0  0  0  0  0  0
  162.3150  206.7800  153.7480 C   0  0  0  0  0  2  0  0  0  0  0  0
  158.9020  209.9180  152.3400 C   0  0  0  0  0  1  0  0  0  0  0  0
  159.3490  213.2380  155.6600 C   0  0  0  0  0  3  0  0  0  0  0  0
  159.0030  212.8420  153.3030 C   0  0  0  0  0  0  0  0  0  0  0  0
  159.7960  212.7140  154.4480 C   0  0  0  0  0  3  0  0  0  0  0  0
  157.3270  214.0270  154.5910 C   0  0  0  0  0  3  0  0  0  0  0  0
  157.7690  213.5040  153.3770 C   0  0  0  0  0  3  0  0  0  0  0  0
  158.1060  213.8780  155.7380 C   0  0  0  0  0  0  0  0  0  0  0  0
  156.2680  214.2710  157.1310 F   0  0  0  0  0  0  0  0  0  0  0  0
  157.6370  214.4390  157.0350 C   0  0  0  0  0  2  0  0  0  0  0  0
  156.5660  214.1900  148.6320 O   0  0  0  0  0  0  0  0  0  0  0  0
  155.8480  214.0010  150.8040 O   0  0  0  0  0  1  0  0  0  0  0  0
  156.8170  214.0320  149.9960 C   0  0  0  0  0  0  0  0  0  0  0  0
  159.1210  205.8340  146.9870 C   0  0  0  0  0  1  0  0  0  0  0  0
  159.4030  205.6930  148.3590 O   0  0  0  0  0  0  0  0  0  0  0  0
  159.2930  214.4370  147.2530 C   0  0  0  0  0  2  0  0  0  0  0  0
  158.3650  213.9400  146.3280 O   0  0  0  0  0  1  0  0  0  0  0  0
  162.2900  202.5400  149.2580 C   0  0  0  0  0  2  0  0  0  0  0  0
  160.3490  199.8020  146.0690 O   0  0  0  0  0  1  0  0  0  0  0  0
  160.4230  200.9040  149.0960 C   0  0  0  0  0  2  0  0  0  0  0  0
  162.7610  199.4920  147.2110 C   0  0  0  0  0  1  0  0  0  0  0  0
  162.1200  200.8810  147.3780 C   0  0  1  0  0  3  0  0  0  0  0  0
  160.7270  200.9830  146.7130 C   0  0  2  0  0  3  0  0  0  0  0  0
  161.8910  201.1280  148.8590 C   0  0  1  0  0  3  0  0  0  0  0  0
  159.7380  201.3130  147.8090 C   0  0  0  0  0  2  0  0  0  0  0  0
  1 23  1  0  0  0  0
  2 32  2  0  0  0  0
  3 18  1  0  0  0  0
  4  9  1  0  0  0  0
  4 13  1  1  0  0  0
  4 38  1  0  0  0  0
  7 35  1  1  0  0  0
  8 16  1  0  0  0  0
  9  1  1  0  0  0  0
 10 39  1  0  0  0  0
 11 55  1  0  0  0  0
 11  2  1  0  0  0  0
 12 35  1  6  0  0  0
 12 19  1  0  0  0  0
 15 38  1  6  0  0  0
 15 23  1  0  0  0  0
 16 50  1  6  0  0  0
 16  3  1  0  0  0  0
 18 10  1  0  0  0  0
 18 41  1  1  0  0  0
 20 31  1  0  0  0  0
 20 22  1  0  0  0  0
 21 24  1  6  0  0  0
 21 36  1  0  0  0  0
 21  2  1  0  0  0  0
 22 27  2  6  0  0  0
 22  5  1  0  0  0  0
 25 37  1  0  0  0  0
 25 22  1  0  0  0  0
 25  7  1  0  0  0  0
 26 17  1  1  0  0  0
 26 30  1  0  0  0  0
 26  7  1  0  0  0  0
 28 31  1  0  0  0  0
 28  8  1  0  0  0  0
 29 12  1  0  0  0  0
 29 10  1  0  0  0  0
 30  6  1  1  0  0  0
 30 36  1  0  0  0  0
 32 33  1  0  0  0  0
 33 14  1  6  0  0  0
 33  4  1  0  0  0  0
 34 19  1  0  0  0  0
 34 15  1  0  0  0  0
 36 14  1  1  0  0  0
 40 45  1  0  0  0  0
 41 44  2  0  0  0  0
 41 42  1  0  0  0  0
 42 40  2  0  0  0  0
 43 45  2  0  0  0  0
 44 43  1  0  0  0  0
 45 47  1  0  0  0  0
 47 46  1  0  0  0  0
 48 50  2  0  0  0  0
 50 49  1  0  0  0  0
 51 52  1  0  0  0  0
 52 21  1  0  0  0  0
 53 28  1  0  0  0  0
 54 53  1  0  0  0  0
 59 58  1  1  0  0  0
 59 61  1  0  0  0  0
 60 56  1  1  0  0  0
 60 59  1  0  0  0  0
 60 62  1  0  0  0  0
 61 57  1  0  0  0  0
 61 55  1  6  0  0  0
 62 57  1  0  0  0  0
M  END
>  <MODEL>
1

>  <REMARK>
 VINA RESULT:      25.7      0.000      0.000
  Name = 
  7 active torsions:
  status: ('A' for Active; 'I' for Inactive)
    1  A    between atoms: N_15  and  C_23
    2  A    between atoms: C_21  and  C_35
    3  A    between atoms: C_22  and  C_26
    4  A    between atoms: C_23  and  C_50
    5  A    between atoms: C_31  and  O_39
    6  A    between atoms: C_34  and  C_61
    7  A    between atoms: C_37  and  N_44
                            x       y       z     vdW  Elec       q    Type
                         _______ _______ _______ _____ _____    ______ ____

>  <TORSDO>
F 7

$$$$
=
 OpenBabel11072414213D

 62 67  0  0  1  0  0  0  0  0999 V2000
  156.6730  214.2990  149.8570 C   0  0  0  0  0  2  0  0  0  0  0  0
  161.3880  213.0600  146.4690 C   0  0  0  0  0  0  0  0  0  0  0  0
  160.2590  212.8170  154.5330 C   0  0  0  0  0  2  0  0  0  0  0  0
  158.0120  213.5490  148.0920 C   0  0  1  0  0  0  0  0  0  0  0  0
  159.5990  207.6220  153.1900 O   0  0  0  0  0  0  0  0  0  0  0  0
  162.3080  212.1320  151.1040 O   0  0  0  0  0  1  0  0  0  0  0  0
  161.4210  209.3880  151.1080 C   0  0  1  0  0  3  0  0  0  0  0  0
  161.1200  210.8830  155.9480 C   0  0  0  0  0  2  0  0  0  0  0  0
  157.9790  214.2710  149.3270 O   0  0  0  0  0  0  0  0  0  0  0  0
  158.6680  212.3870  152.6250 N   0  0  0  0  0  0  0  0  0  0  0  0
  161.9510  213.5140  145.2390 N   0  0  0  0  0  2  0  0  0  0  0  0
  159.0050  210.1750  151.5540 C   0  0  2  0  0  3  0  0  0  0  0  0
  157.7960  214.4530  147.0510 O   0  0  0  0  0  1  0  0  0  0  0  0
  160.3310  212.8690  149.1340 C   0  0  0  0  0  2  0  0  0  0  0  0
  156.6980  211.8030  149.3560 C   0  0  2  0  0  3  0  0  0  0  0  0
  160.5740  212.3080  155.9340 C   0  0  1  0  0  3  0  0  0  0  0  0
  162.1760  209.2960  148.7930 O   0  0  0  0  0  1  0  0  0  0  0  0
  158.9110  212.2430  154.0660 C   0  0  2  0  0  3  0  0  0  0  0  0
  157.6840  210.3430  150.7990 C   0  0  0  0  0  2  0  0  0  0  0  0
  161.9340  208.5230  154.4410 O   0  0  0  0  0  0  0  0  0  0  0  0
  162.3470  212.7180  147.5880 C   0  0  2  0  0  0  0  0  0  0  0  0
  161.3030  207.6030  153.1560 P   0  0  2  0  0  0  0  0  0  0  0  0
  156.2910  212.9010  150.3590 C   0  0  0  0  0  2  0  0  0  0  0  0
  163.2900  211.8010  147.0840 O   0  0  0  0  0  1  0  0  0  0  0  0
  161.9090  208.0600  151.5510 N   0  0  0  0  0  0  0  0  0  0  0  0
  162.3590  209.9500  150.0200 C   0  0  1  0  0  3  0  0  0  0  0  0
  161.7600  206.1810  153.4150 O   0  0  0  0  0  1  0  0  0  0  0  0
  162.3070  210.7700  155.1200 N   0  0  0  0  0  0  0  0  0  0  0  0
  159.6080  211.5360  151.9050 C   0  0  0  0  0  2  0  0  0  0  0  0
  162.4250  211.4780  149.8810 C   0  0  1  0  0  3  0  0  0  0  0  0
  161.9960  209.8590  154.0090 C   0  0  0  0  0  2  0  0  0  0  0  0
  160.1010  213.2250  146.6650 N   0  0  0  0  0  0  0  0  0  0  0  0
  159.3990  212.8610  147.9150 C   0  0  2  0  0  3  0  0  0  0  0  0
  157.9110  211.2250  149.7300 O   0  0  0  0  0  0  0  0  0  0  0  0
  159.9510  209.3770  150.6530 C   0  0  0  0  0  2  0  0  0  0  0  0
  161.5630  212.0550  148.7540 C   0  0  1  0  0  3  0  0  0  0  0  0
  161.5590  207.0030  150.5970 C   0  0  0  0  0  1  0  0  0  0  0  0
  156.9350  212.4270  147.9860 C   0  0  0  0  0  2  0  0  0  0  0  0
  158.9360  213.7600  152.1920 C   0  0  0  0  0  1  0  0  0  0  0  0
  155.3830  213.2060  155.0150 C   0  0  0  0  0  3  0  0  0  0  0  0
  157.7500  212.7570  154.8520 C   0  0  0  0  0  0  0  0  0  0  0  0
  156.4650  212.6890  154.3040 C   0  0  0  0  0  3  0  0  0  0  0  0
  156.8560  213.8460  156.8230 C   0  0  0  0  0  3  0  0  0  0  0  0
  157.9420  213.3330  156.1170 C   0  0  0  0  0  3  0  0  0  0  0  0
  155.5780  213.8010  156.2670 C   0  0  0  0  0  0  0  0  0  0  0  0
  153.2500  214.0140  156.3610 F   0  0  0  0  0  0  0  0  0  0  0  0
  154.4170  214.3470  157.0220 C   0  0  0  0  0  2  0  0  0  0  0  0
  162.7010  212.9550  157.1290 O   0  0  0  0  0  1  0  0  0  0  0  0
  160.9770  214.4530  156.9050 O   0  0  0  0  0  0  0  0  0  0  0  0
  161.4100  213.2840  156.7110 C   0  0  0  0  0  0  0  0  0  0  0  0
  164.3190  213.7220  148.3230 C   0  0  0  0  0  1  0  0  0  0  0  0
  162.9700  213.9370  147.9900 O   0  0  0  0  0  0  0  0  0  0  0  0
  163.3610  210.2090  155.9680 C   0  0  0  0  0  2  0  0  0  0  0  0
  162.8770  209.9660  157.2610 O   0  0  0  0  0  1  0  0  0  0  0  0
  161.5960  212.9310  143.9670 C   0  0  0  0  0  2  0  0  0  0  0  0
  158.3350  213.4070  140.7150 O   0  0  0  0  0  1  0  0  0  0  0  0
  161.2760  214.1330  141.8140 C   0  0  0  0  0  2  0  0  0  0  0  0
  158.2790  214.3920  143.2140 C   0  0  0  0  0  1  0  0  0  0  0  0
  159.3240  213.2910  142.9570 C   0  0  1  0  0  3  0  0  0  0  0  0
  159.3130  212.7840  141.4950 C   0  0  2  0  0  3  0  0  0  0  0  0
  160.7050  213.8800  143.1810 C   0  0  1  0  0  3  0  0  0  0  0  0
  160.6860  213.0610  140.9220 C   0  0  0  0  0  2  0  0  0  0  0  0
  1 23  1  0  0  0  0
  2 32  2  0  0  0  0
  2 21  1  0  0  0  0
  3 16  1  0  0  0  0
  4 13  1  6  0  0  0
  4  9  1  0  0  0  0
  7 35  1  6  0  0  0
  7 25  1  0  0  0  0
  9  1  1  0  0  0  0
 10 18  1  0  0  0  0
 11  2  1  0  0  0  0
 12 35  1  6  0  0  0
 12 29  1  0  0  0  0
 15 38  1  6  0  0  0
 15 34  1  0  0  0  0
 15 23  1  0  0  0  0
 16  8  1  0  0  0  0
 16 50  1  6  0  0  0
 18  3  1  0  0  0  0
 18 41  1  1  0  0  0
 19 12  1  0  0  0  0
 21 24  1  6  0  0  0
 21 52  1  0  0  0  0
 21 36  1  0  0  0  0
 22  5  2  1  0  0  0
 22 27  1  0  0  0  0
 22 20  1  0  0  0  0
 25 22  1  0  0  0  0
 26 17  1  6  0  0  0
 26  7  1  0  0  0  0
 28  8  1  0  0  0  0
 28 53  1  0  0  0  0
 29 10  1  0  0  0  0
 30 26  1  0  0  0  0
 30  6  1  1  0  0  0
 31 20  1  0  0  0  0
 31 28  1  0  0  0  0
 32 33  1  0  0  0  0
 33  4  1  0  0  0  0
 33 14  1  1  0  0  0
 34 19  1  0  0  0  0
 36 14  1  1  0  0  0
 36 30  1  0  0  0  0
 37 25  1  0  0  0  0
 38  4  1  0  0  0  0
 39 10  1  0  0  0  0
 40 45  1  0  0  0  0
 41 44  2  0  0  0  0
 42 41  1  0  0  0  0
 42 40  2  0  0  0  0
 44 43  1  0  0  0  0
 45 43  2  0  0  0  0
 45 47  1  0  0  0  0
 46 47  1  0  0  0  0
 50 49  2  0  0  0  0
 50 48  1  0  0  0  0
 52 51  1  0  0  0  0
 53 54  1  0  0  0  0
 55 11  1  0  0  0  0
 57 61  1  0  0  0  0
 59 61  1  0  0  0  0
 59 58  1  6  0  0  0
 60 56  1  6  0  0  0
 60 59  1  0  0  0  0
 61 55  1  6  0  0  0
 62 60  1  0  0  0  0
 62 57  1  0  0  0  0
M  END
>  <MODEL>
2

>  <REMARK>
 VINA RESULT:      27.3      3.419      8.146
  Name = 
  7 active torsions:
  status: ('A' for Active; 'I' for Inactive)
    1  A    between atoms: N_15  and  C_23
    2  A    between atoms: C_21  and  C_35
    3  A    between atoms: C_22  and  C_26
    4  A    between atoms: C_23  and  C_50
    5  A    between atoms: C_31  and  O_39
    6  A    between atoms: C_34  and  C_61
    7  A    between atoms: C_37  and  N_44
                            x       y       z     vdW  Elec       q    Type
                         _______ _______ _______ _____ _____    ______ ____

>  <TORSDO>
F 7

$$$$
