=
 OpenBabel11072415163D

 40 45  0  0  1  0  0  0  0  0999 V2000
  160.9000  207.3130  154.6040 C   0  0  0  0  0  2  0  0  0  0  0  0
  161.6590  207.0430  149.3960 N   0  0  0  0  0  2  0  0  0  0  0  0
  163.1070  206.4520  152.7940 C   0  0  0  0  0  2  0  0  0  0  0  0
  162.1580  207.2810  150.7170 C   0  0  0  0  0  0  0  0  0  0  0  0
  161.2530  208.6490  153.9580 C   0  0  1  0  0  3  0  0  0  0  0  0
  160.1850  209.1430  152.9630 C   0  0  1  0  0  3  0  0  0  0  0  0
  162.3160  205.7350  153.7140 O   0  0  0  0  0  0  0  0  0  0  0  0
  160.6360  209.1700  151.5300 C   0  0  2  0  0  3  0  0  0  0  0  0
  159.8320  208.1350  152.0460 O   0  0  0  0  0  0  0  0  0  0  0  0
  162.0740  208.6730  151.2940 C   0  0  2  0  0  3  0  0  0  0  0  0
  162.6180  206.2900  151.4250 N   0  0  0  0  0  0  0  0  0  0  0  0
  161.0520  206.2360  153.6280 N   0  0  0  0  0  2  0  0  0  0  0  0
  161.5230  209.6990  155.0250 C   0  0  0  0  0  2  0  0  0  0  0  0
  160.3730  211.8470  154.4390 C   0  0  0  0  0  3  0  0  0  0  0  0
  159.2960  210.3240  155.9880 C   0  0  0  0  0  3  0  0  0  0  0  0
  158.2340  211.2210  156.1320 C   0  0  0  0  0  3  0  0  0  0  0  0
  160.3650  210.6320  155.1360 C   0  0  0  0  0  0  0  0  0  0  0  0
  159.3090  212.7430  154.5820 C   0  0  0  0  0  3  0  0  0  0  0  0
  158.2400  212.4300  155.4270 C   0  0  0  0  0  3  0  0  0  0  0  0
  161.6600  205.7240  148.7730 C   0  0  2  0  0  3  0  0  0  0  0  0
  162.4910  205.3420  146.3920 C   0  0  0  0  0  3  0  0  0  0  0  0
  160.8310  206.2890  145.2930 O   0  0  0  0  0  0  0  0  0  0  0  0
  161.5620  205.8340  147.2830 C   0  0  0  0  0  0  0  0  0  0  0  0
  160.5400  206.4160  146.5650 C   0  0  0  0  0  3  0  0  0  0  0  0
  161.9770  205.6600  145.1480 C   0  0  0  0  0  3  0  0  0  0  0  0
  159.9710  205.4460  150.4680 O   0  0  0  0  0  1  0  0  0  0  0  0
  160.5480  204.8430  149.3470 C   0  0  2  0  0  3  0  0  0  0  0  0
  161.0790  203.4700  149.7290 C   0  0  0  0  0  2  0  0  0  0  0  0
  160.7150  202.4420  148.6750 C   0  0  0  0  0  3  0  0  0  0  0  0
  161.2180  201.0820  149.1140 C   0  0  0  0  0  2  0  0  0  0  0  0
  159.7550  201.4350  149.2710 C   0  0  0  0  0  2  0  0  0  0  0  0
  162.9320  209.6890  150.5440 C   0  0  0  0  0  2  0  0  0  0  0  0
  162.1420  210.9200  150.1270 C   0  0  0  0  0  2  0  0  0  0  0  0
  162.1230  211.0140  148.6160 C   0  0  0  0  0  2  0  0  0  0  0  0
  162.8050  212.1630  148.2140 O   0  0  0  0  0  0  0  0  0  0  0  0
  160.4910  212.7390  145.7000 C   0  0  0  0  0  2  0  0  0  0  0  0
  161.8060  213.3740  145.3180 C   0  0  0  0  0  2  0  0  0  0  0  0
  160.7080  212.1800  147.0890 C   0  0  0  0  0  2  0  0  0  0  0  0
  162.3880  213.8850  146.6170 C   0  0  0  0  0  2  0  0  0  0  0  0
  161.8120  213.0110  147.7190 C   0  0  0  0  0  3  0  0  0  0  0  0
  2  4  1  0  0  0  0
  3  7  1  0  0  0  0
  4 10  1  0  0  0  0
  4 11  2  0  0  0  0
  5  1  1  0  0  0  0
  5 13  1  1  0  0  0
  6  9  1  6  0  0  0
  6  5  1  0  0  0  0
  8  9  1  6  0  0  0
  8  6  1  0  0  0  0
 10 32  1  6  0  0  0
 10  8  1  0  0  0  0
 11  3  1  0  0  0  0
 12  7  1  0  0  0  0
 12  1  1  0  0  0  0
 13 17  1  0  0  0  0
 14 18  2  0  0  0  0
 14 17  1  0  0  0  0
 15 16  1  0  0  0  0
 17 15  2  0  0  0  0
 18 19  1  0  0  0  0
 19 16  2  0  0  0  0
 20 27  1  0  0  0  0
 20  2  1  1  0  0  0
 21 23  1  0  0  0  0
 22 24  1  0  0  0  0
 23 20  1  0  0  0  0
 24 23  2  0  0  0  0
 25 22  1  0  0  0  0
 25 21  2  0  0  0  0
 27 28  1  0  0  0  0
 27 26  1  1  0  0  0
 29 30  1  0  0  0  0
 29 31  1  0  0  0  0
 29 28  1  0  0  0  0
 30 31  1  0  0  0  0
 33 32  1  0  0  0  0
 34 33  1  0  0  0  0
 35 34  1  0  0  0  0
 36 38  1  0  0  0  0
 37 36  1  0  0  0  0
 37 39  1  0  0  0  0
 38 40  1  0  0  0  0
 39 40  1  0  0  0  0
 40 35  1  0  0  0  0
M  END
>  <MODEL>
1

>  <REMARK>
 VINA RESULT:      -5.0      0.000      0.000
  Name = 
  12 active torsions:
  status: ('A' for Active; 'I' for Inactive)
    1  A    between atoms: C_4  and  C_17
    2  A    between atoms: C_4  and  O_29
    3  A    between atoms: C_6  and  C_34
    4  A    between atoms: N_11  and  C_33
    5  A    between atoms: C_15  and  C_20
    6  A    between atoms: C_17  and  C_37
    7  A    between atoms: C_19  and  C_33
    8  A    between atoms: C_20  and  C_31
    9  A    between atoms: C_24  and  C_37
   10  A    between atoms: O_29  and  C_32
   11  A    between atoms: C_33  and  C_35
   12  A    between atoms: C_34  and  C_35
                            x       y       z     vdW  Elec       q    Type
                         _______ _______ _______ _____ _____    ______ ____

>  <TORSDO>
F 12

$$$$
=
 OpenBabel11072415163D

 40 45  0  0  1  0  0  0  0  0999 V2000
  160.0270  212.5870  155.0380 C   0  0  0  0  0  2  0  0  0  0  0  0
  161.4490  208.9120  151.5400 N   0  0  0  0  0  2  0  0  0  0  0  0
  158.6830  211.0530  152.8640 C   0  0  0  0  0  2  0  0  0  0  0  0
  160.4800  209.4770  152.4290 C   0  0  0  0  0  0  0  0  0  0  0  0
  160.1070  211.1780  155.6170 C   0  0  1  0  0  3  0  0  0  0  0  0
  161.5340  210.5950  155.5980 C   0  0  1  0  0  3  0  0  0  0  0  0
  158.9500  212.4290  153.0140 O   0  0  0  0  0  0  0  0  0  0  0  0
  161.7150  209.4290  154.6680 C   0  0  2  0  0  3  0  0  0  0  0  0
  162.1280  210.7320  154.3290 O   0  0  0  0  0  0  0  0  0  0  0  0
  160.4590  209.0330  153.8710 C   0  0  2  0  0  3  0  0  0  0  0  0
  159.6710  210.4050  152.0030 N   0  0  0  0  0  0  0  0  0  0  0  0
  160.1810  212.5360  153.5870 N   0  0  0  0  0  2  0  0  0  0  0  0
  159.5310  211.1480  157.0230 C   0  0  0  0  0  2  0  0  0  0  0  0
  157.0350  211.3550  156.9260 C   0  0  0  0  0  3  0  0  0  0  0  0
  158.3660  213.3550  157.2490 C   0  0  0  0  0  3  0  0  0  0  0  0
  157.2020  214.1290  157.2590 C   0  0  0  0  0  3  0  0  0  0  0  0
  158.2850  211.9660  157.0890 C   0  0  0  0  0  0  0  0  0  0  0  0
  155.8710  212.1290  156.9390 C   0  0  0  0  0  3  0  0  0  0  0  0
  155.9540  213.5150  157.1070 C   0  0  0  0  0  3  0  0  0  0  0  0
  161.5710  209.3100  150.1420 C   0  0  2  0  0  3  0  0  0  0  0  0
  161.1960  207.7000  148.2000 C   0  0  0  0  0  3  0  0  0  0  0  0
  162.9870  206.4390  148.4480 O   0  0  0  0  0  0  0  0  0  0  0  0
  161.9300  208.1400  149.2790 C   0  0  0  0  0  0  0  0  0  0  0  0
  163.0410  207.3340  149.4050 C   0  0  0  0  0  3  0  0  0  0  0  0
  161.9110  206.6210  147.7130 C   0  0  0  0  0  3  0  0  0  0  0  0
  163.1910  210.7450  151.2000 O   0  0  0  0  0  1  0  0  0  0  0  0
  162.5730  210.4570  149.9810 C   0  0  2  0  0  3  0  0  0  0  0  0
  161.8910  211.7090  149.4520 C   0  0  0  0  0  2  0  0  0  0  0  0
  162.0370  211.8020  147.9450 C   0  0  0  0  0  3  0  0  0  0  0  0
  161.6340  213.1900  147.4930 C   0  0  0  0  0  2  0  0  0  0  0  0
  163.0970  212.8290  147.6100 C   0  0  0  0  0  2  0  0  0  0  0  0
  160.0910  207.5610  154.0440 C   0  0  0  0  0  2  0  0  0  0  0  0
  161.2970  206.6980  154.3840 C   0  0  0  0  0  2  0  0  0  0  0  0
  161.8640  206.1070  153.1100 C   0  0  0  0  0  2  0  0  0  0  0  0
  160.8730  205.3740  152.4570 O   0  0  0  0  0  0  0  0  0  0  0  0
  160.6110  203.1710  149.7950 C   0  0  0  0  0  2  0  0  0  0  0  0
  160.8700  202.3910  151.0610 C   0  0  0  0  0  2  0  0  0  0  0  0
  160.6630  204.6260  150.2070 C   0  0  0  0  0  2  0  0  0  0  0  0
  161.8060  203.2580  151.8730 C   0  0  0  0  0  2  0  0  0  0  0  0
  161.5460  204.6920  151.4410 C   0  0  0  0  0  3  0  0  0  0  0  0
  1  5  1  0  0  0  0
  2  4  1  0  0  0  0
  3  7  1  0  0  0  0
  4 10  1  0  0  0  0
  5 13  1  1  0  0  0
  6  9  1  6  0  0  0
  6  5  1  0  0  0  0
  7 12  1  0  0  0  0
  8  9  1  6  0  0  0
  8  6  1  0  0  0  0
 10 32  1  6  0  0  0
 10  8  1  0  0  0  0
 11  4  2  0  0  0  0
 11  3  1  0  0  0  0
 12  1  1  0  0  0  0
 13 17  1  0  0  0  0
 14 18  2  0  0  0  0
 14 17  1  0  0  0  0
 15 16  1  0  0  0  0
 17 15  2  0  0  0  0
 18 19  1  0  0  0  0
 19 16  2  0  0  0  0
 20  2  1  1  0  0  0
 21 23  1  0  0  0  0
 22 24  1  0  0  0  0
 23 24  2  0  0  0  0
 23 20  1  0  0  0  0
 25 21  2  0  0  0  0
 25 22  1  0  0  0  0
 27 20  1  0  0  0  0
 27 26  1  1  0  0  0
 28 27  1  0  0  0  0
 29 28  1  0  0  0  0
 30 31  1  0  0  0  0
 30 29  1  0  0  0  0
 31 29  1  0  0  0  0
 32 33  1  0  0  0  0
 34 33  1  0  0  0  0
 35 34  1  0  0  0  0
 36 38  1  0  0  0  0
 36 37  1  0  0  0  0
 37 39  1  0  0  0  0
 38 40  1  0  0  0  0
 40 39  1  0  0  0  0
 40 35  1  0  0  0  0
M  END
>  <MODEL>
2

>  <REMARK>
 VINA RESULT:      -4.6      2.315      6.487
  Name = 
  12 active torsions:
  status: ('A' for Active; 'I' for Inactive)
    1  A    between atoms: C_4  and  C_17
    2  A    between atoms: C_4  and  O_29
    3  A    between atoms: C_6  and  C_34
    4  A    between atoms: N_11  and  C_33
    5  A    between atoms: C_15  and  C_20
    6  A    between atoms: C_17  and  C_37
    7  A    between atoms: C_19  and  C_33
    8  A    between atoms: C_20  and  C_31
    9  A    between atoms: C_24  and  C_37
   10  A    between atoms: O_29  and  C_32
   11  A    between atoms: C_33  and  C_35
   12  A    between atoms: C_34  and  C_35
                            x       y       z     vdW  Elec       q    Type
                         _______ _______ _______ _____ _____    ______ ____

>  <TORSDO>
F 12

$$$$
=
 OpenBabel11072415163D

 40 45  0  0  1  0  0  0  0  0999 V2000
  160.1320  212.3480  154.4090 C   0  0  0  0  0  2  0  0  0  0  0  0
  162.1290  208.3830  151.5710 N   0  0  0  0  0  2  0  0  0  0  0  0
  159.0810  210.3660  152.4470 C   0  0  0  0  0  2  0  0  0  0  0  0
  161.0580  208.9580  152.3260 C   0  0  0  0  0  0  0  0  0  0  0  0
  160.3310  211.0580  155.2000 C   0  0  1  0  0  3  0  0  0  0  0  0
  161.8110  210.6460  155.3250 C   0  0  1  0  0  3  0  0  0  0  0  0
  159.1900  211.7700  152.3940 O   0  0  0  0  0  0  0  0  0  0  0  0
  162.1670  209.3840  154.5910 C   0  0  2  0  0  3  0  0  0  0  0  0
  162.4560  210.6620  154.0730 O   0  0  0  0  0  0  0  0  0  0  0  0
  161.0060  208.7330  153.8170 C   0  0  2  0  0  3  0  0  0  0  0  0
  160.1790  209.7150  151.7330 N   0  0  0  0  0  0  0  0  0  0  0  0
  160.3690  212.1010  152.9900 N   0  0  0  0  0  2  0  0  0  0  0  0
  159.6850  211.1710  156.5710 C   0  0  0  0  0  2  0  0  0  0  0  0
  157.3960  210.9130  155.5850 C   0  0  0  0  0  3  0  0  0  0  0  0
  157.8120  212.7430  157.1200 C   0  0  0  0  0  3  0  0  0  0  0  0
  156.4950  213.1790  156.9570 C   0  0  0  0  0  3  0  0  0  0  0  0
  158.2640  211.6050  156.4390 C   0  0  0  0  0  0  0  0  0  0  0  0
  156.0770  211.3490  155.4240 C   0  0  0  0  0  3  0  0  0  0  0  0
  155.6270  212.4810  156.1110 C   0  0  0  0  0  3  0  0  0  0  0  0
  162.2840  208.5810  150.1340 C   0  0  2  0  0  3  0  0  0  0  0  0
  161.6630  210.4790  148.5490 C   0  0  0  0  0  3  0  0  0  0  0  0
  162.0660  212.1880  149.8840 O   0  0  0  0  0  0  0  0  0  0  0  0
  162.1130  210.0230  149.7680 C   0  0  0  0  0  0  0  0  0  0  0  0
  162.3520  211.1120  150.5770 C   0  0  0  0  0  3  0  0  0  0  0  0
  161.6540  211.8560  148.6790 C   0  0  0  0  0  3  0  0  0  0  0  0
  160.8280  206.6620  150.1630 O   0  0  0  0  0  1  0  0  0  0  0  0
  161.3250  207.6820  149.3480 C   0  0  2  0  0  3  0  0  0  0  0  0
  162.0150  207.0710  148.1380 C   0  0  0  0  0  2  0  0  0  0  0  0
  161.1360  206.0140  147.4980 C   0  0  0  0  0  3  0  0  0  0  0  0
  161.4630  205.9260  146.0210 C   0  0  0  0  0  2  0  0  0  0  0  0
  162.0070  204.8900  146.9790 C   0  0  0  0  0  2  0  0  0  0  0  0
  160.7900  207.2710  154.2000 C   0  0  0  0  0  2  0  0  0  0  0  0
  161.7260  206.3320  153.4550 C   0  0  0  0  0  2  0  0  0  0  0  0
  161.0250  205.0100  153.2180 C   0  0  0  0  0  2  0  0  0  0  0  0
  161.6750  204.3170  152.1970 O   0  0  0  0  0  0  0  0  0  0  0  0
  161.1410  201.5020  150.2480 C   0  0  0  0  0  2  0  0  0  0  0  0
  160.7640  202.7310  149.4580 C   0  0  0  0  0  2  0  0  0  0  0  0
  161.5190  202.0130  151.6210 C   0  0  0  0  0  2  0  0  0  0  0  0
  160.1590  203.6790  150.4690 C   0  0  0  0  0  2  0  0  0  0  0  0
  160.7730  203.3220  151.8130 C   0  0  0  0  0  3  0  0  0  0  0  0
  1  5  1  0  0  0  0
  2  4  1  0  0  0  0
  4 10  1  0  0  0  0
  5  6  1  0  0  0  0
  5 13  1  1  0  0  0
  6  9  1  6  0  0  0
  7  3  1  0  0  0  0
  7 12  1  0  0  0  0
  8  9  1  6  0  0  0
  8  6  1  0  0  0  0
 10 32  1  6  0  0  0
 10  8  1  0  0  0  0
 11  4  2  0  0  0  0
 11  3  1  0  0  0  0
 12  1  1  0  0  0  0
 14 17  1  0  0  0  0
 16 15  1  0  0  0  0
 17 13  1  0  0  0  0
 17 15  2  0  0  0  0
 18 14  2  0  0  0  0
 18 19  1  0  0  0  0
 19 16  2  0  0  0  0
 20  2  1  1  0  0  0
 21 25  2  0  0  0  0
 21 23  1  0  0  0  0
 22 24  1  0  0  0  0
 23 20  1  0  0  0  0
 23 24  2  0  0  0  0
 25 22  1  0  0  0  0
 27 20  1  0  0  0  0
 27 26  1  1  0  0  0
 28 27  1  0  0  0  0
 29 28  1  0  0  0  0
 30 31  1  0  0  0  0
 30 29  1  0  0  0  0
 31 29  1  0  0  0  0
 33 32  1  0  0  0  0
 34 33  1  0  0  0  0
 35 34  1  0  0  0  0
 36 38  1  0  0  0  0
 37 36  1  0  0  0  0
 37 39  1  0  0  0  0
 38 40  1  0  0  0  0
 39 40  1  0  0  0  0
 40 35  1  0  0  0  0
M  END
>  <MODEL>
3

>  <REMARK>
 VINA RESULT:      -4.5      2.005      5.992
  Name = 
  12 active torsions:
  status: ('A' for Active; 'I' for Inactive)
    1  A    between atoms: C_4  and  C_17
    2  A    between atoms: C_4  and  O_29
    3  A    between atoms: C_6  and  C_34
    4  A    between atoms: N_11  and  C_33
    5  A    between atoms: C_15  and  C_20
    6  A    between atoms: C_17  and  C_37
    7  A    between atoms: C_19  and  C_33
    8  A    between atoms: C_20  and  C_31
    9  A    between atoms: C_24  and  C_37
   10  A    between atoms: O_29  and  C_32
   11  A    between atoms: C_33  and  C_35
   12  A    between atoms: C_34  and  C_35
                            x       y       z     vdW  Elec       q    Type
                         _______ _______ _______ _____ _____    ______ ____

>  <TORSDO>
F 12

$$$$
=
 OpenBabel11072415163D

 40 45  0  0  1  0  0  0  0  0999 V2000
  162.1620  208.8880  148.2590 C   0  0  0  0  0  2  0  0  0  0  0  0
  160.3160  209.2410  153.1820 N   0  0  0  0  0  2  0  0  0  0  0  0
  163.1680  209.9350  150.8620 C   0  0  0  0  0  2  0  0  0  0  0  0
  161.4010  209.0390  152.2700 C   0  0  0  0  0  0  0  0  0  0  0  0
  162.2560  207.5870  149.0510 C   0  0  1  0  0  3  0  0  0  0  0  0
  160.8800  207.0110  149.4370 C   0  0  1  0  0  3  0  0  0  0  0  0
  162.8650  210.5800  149.6460 O   0  0  0  0  0  0  0  0  0  0  0  0
  160.5910  207.0280  150.9110 C   0  0  2  0  0  3  0  0  0  0  0  0
  160.0610  207.9910  150.0310 O   0  0  0  0  0  0  0  0  0  0  0  0
  161.7020  207.6430  151.7830 C   0  0  2  0  0  3  0  0  0  0  0  0
  162.0740  210.0620  151.8240 N   0  0  0  0  0  0  0  0  0  0  0  0
  161.7530  209.9770  149.1410 N   0  0  0  0  0  2  0  0  0  0  0  0
  163.0770  206.5590  148.2890 C   0  0  0  0  0  2  0  0  0  0  0  0
  162.7800  204.9270  146.4100 C   0  0  0  0  0  3  0  0  0  0  0  0
  161.0860  206.6230  146.7690 C   0  0  0  0  0  3  0  0  0  0  0  0
  160.3720  206.1430  145.6680 C   0  0  0  0  0  3  0  0  0  0  0  0
  162.2880  206.0130  147.1470 C   0  0  0  0  0  0  0  0  0  0  0  0
  162.0640  204.4460  145.3100 C   0  0  0  0  0  3  0  0  0  0  0  0
  160.8600  205.0520  144.9400 C   0  0  0  0  0  3  0  0  0  0  0  0
  159.9260  210.5580  153.6730 C   0  0  2  0  0  3  0  0  0  0  0  0
  160.4630  211.6760  155.9000 C   0  0  0  0  0  3  0  0  0  0  0  0
  159.7720  210.0840  157.2600 O   0  0  0  0  0  0  0  0  0  0  0  0
  159.9840  210.6130  155.1680 C   0  0  0  0  0  0  0  0  0  0  0  0
  159.5590  209.6380  156.0450 C   0  0  0  0  0  3  0  0  0  0  0  0
  160.3060  211.2850  157.2180 C   0  0  0  0  0  3  0  0  0  0  0  0
  158.6550  211.9300  152.1550 O   0  0  0  0  0  1  0  0  0  0  0  0
  158.5430  210.9540  153.1470 C   0  0  2  0  0  3  0  0  0  0  0  0
  157.6590  211.4730  154.2700 C   0  0  0  0  0  2  0  0  0  0  0  0
  157.1150  212.8480  153.9300 C   0  0  0  0  0  3  0  0  0  0  0  0
  156.2830  213.3530  155.0910 C   0  0  0  0  0  2  0  0  0  0  0  0
  157.6920  213.8640  154.8920 C   0  0  0  0  0  2  0  0  0  0  0  0
  162.1660  206.7040  152.8940 C   0  0  0  0  0  2  0  0  0  0  0  0
  161.0920  205.7050  153.2960 C   0  0  0  0  0  2  0  0  0  0  0  0
  161.4270  204.3480  152.7140 C   0  0  0  0  0  2  0  0  0  0  0  0
  160.5930  204.0890  151.6270 O   0  0  0  0  0  0  0  0  0  0  0  0
  160.6920  202.2240  148.7090 C   0  0  0  0  0  2  0  0  0  0  0  0
  160.4650  201.3000  149.8800 C   0  0  0  0  0  2  0  0  0  0  0  0
  160.8740  203.5980  149.3160 C   0  0  0  0  0  2  0  0  0  0  0  0
  161.2800  201.8900  151.0100 C   0  0  0  0  0  2  0  0  0  0  0  0
  161.3900  203.3800  150.7280 C   0  0  0  0  0  3  0  0  0  0  0  0
  1  5  1  0  0  0  0
  1 12  1  0  0  0  0
  3 11  1  0  0  0  0
  4  2  1  0  0  0  0
  5 13  1  6  0  0  0
  5  6  1  0  0  0  0
  6  9  1  6  0  0  0
  6  8  1  0  0  0  0
  7  3  1  0  0  0  0
  8  9  1  6  0  0  0
  8 10  1  0  0  0  0
 10  4  1  0  0  0  0
 10 32  1  1  0  0  0
 11  4  2  0  0  0  0
 12  7  1  0  0  0  0
 14 17  1  0  0  0  0
 15 17  2  0  0  0  0
 16 15  1  0  0  0  0
 17 13  1  0  0  0  0
 18 14  2  0  0  0  0
 19 18  1  0  0  0  0
 19 16  2  0  0  0  0
 20  2  1  1  0  0  0
 20 23  1  0  0  0  0
 21 25  2  0  0  0  0
 23 21  1  0  0  0  0
 23 24  2  0  0  0  0
 24 22  1  0  0  0  0
 25 22  1  0  0  0  0
 27 26  1  6  0  0  0
 27 20  1  0  0  0  0
 27 28  1  0  0  0  0
 29 28  1  0  0  0  0
 29 31  1  0  0  0  0
 29 30  1  0  0  0  0
 31 30  1  0  0  0  0
 32 33  1  0  0  0  0
 34 33  1  0  0  0  0
 35 34  1  0  0  0  0
 36 38  1  0  0  0  0
 36 37  1  0  0  0  0
 37 39  1  0  0  0  0
 38 40  1  0  0  0  0
 40 39  1  0  0  0  0
 40 35  1  0  0  0  0
M  END
>  <MODEL>
4

>  <REMARK>
 VINA RESULT:      -4.5      2.458      9.168
  Name = 
  12 active torsions:
  status: ('A' for Active; 'I' for Inactive)
    1  A    between atoms: C_4  and  C_17
    2  A    between atoms: C_4  and  O_29
    3  A    between atoms: C_6  and  C_34
    4  A    between atoms: N_11  and  C_33
    5  A    between atoms: C_15  and  C_20
    6  A    between atoms: C_17  and  C_37
    7  A    between atoms: C_19  and  C_33
    8  A    between atoms: C_20  and  C_31
    9  A    between atoms: C_24  and  C_37
   10  A    between atoms: O_29  and  C_32
   11  A    between atoms: C_33  and  C_35
   12  A    between atoms: C_34  and  C_35
                            x       y       z     vdW  Elec       q    Type
                         _______ _______ _______ _____ _____    ______ ____

>  <TORSDO>
F 12

$$$$
=
 OpenBabel11072415163D

 40 45  0  0  1  0  0  0  0  0999 V2000
  162.7020  207.1610  150.7660 C   0  0  0  0  0  2  0  0  0  0  0  0
  161.3550  210.3230  154.7610 N   0  0  0  0  0  2  0  0  0  0  0  0
  160.8450  207.0130  153.0940 C   0  0  0  0  0  2  0  0  0  0  0  0
  161.0100  209.3380  153.7810 C   0  0  0  0  0  0  0  0  0  0  0  0
  161.7070  208.2540  150.3850 C   0  0  1  0  0  3  0  0  0  0  0  0
  162.2880  209.6760  150.5160 C   0  0  1  0  0  3  0  0  0  0  0  0
  162.0000  206.2740  152.7670 O   0  0  0  0  0  0  0  0  0  0  0  0
  161.6590  210.5050  151.5990 C   0  0  2  0  0  3  0  0  0  0  0  0
  162.9020  209.8650  151.7690 O   0  0  0  0  0  0  0  0  0  0  0  0
  160.5640  209.7890  152.4120 C   0  0  2  0  0  3  0  0  0  0  0  0
  161.1420  208.0720  154.0580 N   0  0  0  0  0  0  0  0  0  0  0  0
  162.8880  207.1460  152.2140 N   0  0  0  0  0  2  0  0  0  0  0  0
  161.1710  208.0180  148.9820 C   0  0  0  0  0  2  0  0  0  0  0  0
  161.8880  206.2130  147.3970 C   0  0  0  0  0  3  0  0  0  0  0  0
  160.7760  205.5900  149.4590 C   0  0  0  0  0  3  0  0  0  0  0  0
  160.8510  204.2440  149.0930 C   0  0  0  0  0  3  0  0  0  0  0  0
  161.3000  206.5780  148.6150 C   0  0  0  0  0  0  0  0  0  0  0  0
  161.9640  204.8660  147.0320 C   0  0  0  0  0  3  0  0  0  0  0  0
  161.4470  203.8810  147.8800 C   0  0  0  0  0  3  0  0  0  0  0  0
  161.8350  209.9810  156.0950 C   0  0  2  0  0  3  0  0  0  0  0  0
  159.8720  208.5200  156.8100 C   0  0  0  0  0  3  0  0  0  0  0  0
  160.9680  206.6540  157.2360 O   0  0  0  0  0  0  0  0  0  0  0  0
  161.2170  208.7060  156.5790 C   0  0  0  0  0  0  0  0  0  0  0  0
  161.8710  207.5240  156.8520 C   0  0  0  0  0  3  0  0  0  0  0  0
  159.7730  207.2040  157.2250 C   0  0  0  0  0  3  0  0  0  0  0  0
  160.5250  211.9220  156.6590 O   0  0  0  0  0  1  0  0  0  0  0  0
  161.5970  211.1310  157.0780 C   0  0  2  0  0  3  0  0  0  0  0  0
  162.8400  211.9980  157.2180 C   0  0  0  0  0  2  0  0  0  0  0  0
  164.0950  211.1520  157.1250 C   0  0  0  0  0  3  0  0  0  0  0  0
  164.8790  211.5610  155.8950 C   0  0  0  0  0  2  0  0  0  0  0  0
  165.3090  212.0460  157.2610 C   0  0  0  0  0  2  0  0  0  0  0  0
  159.2460  210.5590  152.4300 C   0  0  0  0  0  2  0  0  0  0  0  0
  159.4240  212.0240  152.0610 C   0  0  0  0  0  2  0  0  0  0  0  0
  159.2660  212.8750  153.3030 C   0  0  0  0  0  2  0  0  0  0  0  0
  158.2130  212.3830  154.0740 O   0  0  0  0  0  0  0  0  0  0  0  0
  156.2290  213.7270  156.5760 C   0  0  0  0  0  2  0  0  0  0  0  0
  155.3440  213.1770  155.4830 C   0  0  0  0  0  2  0  0  0  0  0  0
  157.6430  213.5380  156.0750 C   0  0  0  0  0  2  0  0  0  0  0  0
  156.0880  213.4590  154.1970 C   0  0  0  0  0  2  0  0  0  0  0  0
  157.5640  213.5190  154.5580 C   0  0  0  0  0  3  0  0  0  0  0  0
  1 12  1  0  0  0  0
  3 11  1  0  0  0  0
  4 11  2  0  0  0  0
  4  2  1  0  0  0  0
  5 13  1  6  0  0  0
  5  6  1  0  0  0  0
  5  1  1  0  0  0  0
  6  8  1  0  0  0  0
  6  9  1  1  0  0  0
  7  3  1  0  0  0  0
  8  9  1  1  0  0  0
  8 10  1  0  0  0  0
 10 32  1  1  0  0  0
 10  4  1  0  0  0  0
 12  7  1  0  0  0  0
 14 17  1  0  0  0  0
 16 15  1  0  0  0  0
 17 13  1  0  0  0  0
 17 15  2  0  0  0  0
 18 14  2  0  0  0  0
 18 19  1  0  0  0  0
 19 16  2  0  0  0  0
 20  2  1  6  0  0  0
 20 23  1  0  0  0  0
 20 27  1  0  0  0  0
 21 25  2  0  0  0  0
 23 21  1  0  0  0  0
 23 24  2  0  0  0  0
 24 22  1  0  0  0  0
 25 22  1  0  0  0  0
 27 26  1  6  0  0  0
 27 28  1  0  0  0  0
 29 28  1  0  0  0  0
 29 31  1  0  0  0  0
 30 29  1  0  0  0  0
 30 31  1  0  0  0  0
 33 32  1  0  0  0  0
 33 34  1  0  0  0  0
 34 35  1  0  0  0  0
 35 40  1  0  0  0  0
 37 36  1  0  0  0  0
 38 36  1  0  0  0  0
 39 40  1  0  0  0  0
 39 37  1  0  0  0  0
 40 38  1  0  0  0  0
M  END
>  <MODEL>
5

>  <REMARK>
 VINA RESULT:      -4.0      2.871      8.609
  Name = 
  12 active torsions:
  status: ('A' for Active; 'I' for Inactive)
    1  A    between atoms: C_4  and  C_17
    2  A    between atoms: C_4  and  O_29
    3  A    between atoms: C_6  and  C_34
    4  A    between atoms: N_11  and  C_33
    5  A    between atoms: C_15  and  C_20
    6  A    between atoms: C_17  and  C_37
    7  A    between atoms: C_19  and  C_33
    8  A    between atoms: C_20  and  C_31
    9  A    between atoms: C_24  and  C_37
   10  A    between atoms: O_29  and  C_32
   11  A    between atoms: C_33  and  C_35
   12  A    between atoms: C_34  and  C_35
                            x       y       z     vdW  Elec       q    Type
                         _______ _______ _______ _____ _____    ______ ____

>  <TORSDO>
F 12

$$$$
=
 OpenBabel11072415163D

 40 45  0  0  1  0  0  0  0  0999 V2000
  159.8000  209.6620  156.4990 C   0  0  0  0  0  2  0  0  0  0  0  0
  160.0660  212.5960  152.1290 N   0  0  0  0  0  2  0  0  0  0  0  0
  157.9890  210.2880  154.2160 C   0  0  0  0  0  2  0  0  0  0  0  0
  159.6200  211.4210  152.8160 C   0  0  0  0  0  0  0  0  0  0  0  0
  160.5720  209.0070  155.3580 C   0  0  1  0  0  3  0  0  0  0  0  0
  161.8570  209.7690  154.9780 C   0  0  1  0  0  3  0  0  0  0  0  0
  157.8950  210.5750  155.5920 O   0  0  0  0  0  0  0  0  0  0  0  0
  161.8250  210.3980  153.6140 C   0  0  2  0  0  3  0  0  0  0  0  0
  161.6030  211.1410  154.7900 O   0  0  0  0  0  0  0  0  0  0  0  0
  160.5080  210.2020  152.8390 C   0  0  2  0  0  3  0  0  0  0  0  0
  158.4880  211.4370  153.4610 N   0  0  0  0  0  0  0  0  0  0  0  0
  159.1510  210.8810  156.0220 N   0  0  0  0  0  2  0  0  0  0  0  0
  160.8840  207.5570  155.6920 C   0  0  0  0  0  2  0  0  0  0  0  0
  160.1710  205.7340  154.1270 C   0  0  0  0  0  3  0  0  0  0  0  0
  162.1650  207.0110  153.6090 C   0  0  0  0  0  3  0  0  0  0  0  0
  162.3630  206.2360  152.4630 C   0  0  0  0  0  3  0  0  0  0  0  0
  161.0650  206.7650  154.4410 C   0  0  0  0  0  0  0  0  0  0  0  0
  160.3680  204.9600  152.9800 C   0  0  0  0  0  3  0  0  0  0  0  0
  161.4630  205.2120  152.1470 C   0  0  0  0  0  3  0  0  0  0  0  0
  159.2950  213.8330  152.0880 C   0  0  2  0  0  3  0  0  0  0  0  0
  158.8810  214.2170  154.5750 C   0  0  0  0  0  3  0  0  0  0  0  0
  156.6810  214.0630  154.5850 O   0  0  0  0  0  0  0  0  0  0  0  0
  158.4250  213.9650  153.3000 C   0  0  0  0  0  0  0  0  0  0  0  0
  157.0500  213.8770  153.3400 C   0  0  0  0  0  3  0  0  0  0  0  0
  157.7340  214.2670  155.3470 C   0  0  0  0  0  3  0  0  0  0  0  0
  157.9500  212.6850  150.4530 O   0  0  0  0  0  1  0  0  0  0  0  0
  158.4800  213.9310  150.7960 C   0  0  2  0  0  3  0  0  0  0  0  0
  159.3330  214.4510  149.6490 C   0  0  0  0  0  2  0  0  0  0  0  0
  159.4450  213.4100  148.5510 C   0  0  0  0  0  3  0  0  0  0  0  0
  160.6410  213.7360  147.6800 C   0  0  0  0  0  2  0  0  0  0  0  0
  160.7390  212.6440  148.7220 C   0  0  0  0  0  2  0  0  0  0  0  0
  160.7240  209.5860  151.4590 C   0  0  0  0  0  2  0  0  0  0  0  0
  162.1790  209.6390  151.0210 C   0  0  0  0  0  2  0  0  0  0  0  0
  162.3900  208.6770  149.8700 C   0  0  0  0  0  2  0  0  0  0  0  0
  161.1880  208.0370  149.5730 O   0  0  0  0  0  0  0  0  0  0  0  0
  162.2950  206.2230  146.8360 C   0  0  0  0  0  2  0  0  0  0  0  0
  160.7860  206.2280  146.8490 C   0  0  0  0  0  2  0  0  0  0  0  0
  162.7060  206.9520  148.0970 C   0  0  0  0  0  2  0  0  0  0  0  0
  160.4060  206.1690  148.3120 C   0  0  0  0  0  2  0  0  0  0  0  0
  161.5630  206.7850  149.0820 C   0  0  0  0  0  3  0  0  0  0  0  0
  2  4  1  0  0  0  0
  3  7  1  0  0  0  0
  4 10  1  0  0  0  0
  4 11  2  0  0  0  0
  5 13  1  1  0  0  0
  5  1  1  0  0  0  0
  6  9  1  1  0  0  0
  6  5  1  0  0  0  0
  7 12  1  0  0  0  0
  8  9  1  1  0  0  0
  8  6  1  0  0  0  0
 10 32  1  6  0  0  0
 10  8  1  0  0  0  0
 11  3  1  0  0  0  0
 12  1  1  0  0  0  0
 14 17  1  0  0  0  0
 15 17  2  0  0  0  0
 16 15  1  0  0  0  0
 17 13  1  0  0  0  0
 18 14  2  0  0  0  0
 19 16  2  0  0  0  0
 19 18  1  0  0  0  0
 20  2  1  1  0  0  0
 20 23  1  0  0  0  0
 21 25  2  0  0  0  0
 22 25  1  0  0  0  0
 23 24  2  0  0  0  0
 23 21  1  0  0  0  0
 24 22  1  0  0  0  0
 27 26  1  6  0  0  0
 27 20  1  0  0  0  0
 28 27  1  0  0  0  0
 29 31  1  0  0  0  0
 29 28  1  0  0  0  0
 30 29  1  0  0  0  0
 30 31  1  0  0  0  0
 33 32  1  0  0  0  0
 34 33  1  0  0  0  0
 35 34  1  0  0  0  0
 36 37  1  0  0  0  0
 36 38  1  0  0  0  0
 37 39  1  0  0  0  0
 38 40  1  0  0  0  0
 39 40  1  0  0  0  0
 40 35  1  0  0  0  0
M  END
>  <MODEL>
6

>  <REMARK>
 VINA RESULT:      -3.9      2.923      7.669
  Name = 
  12 active torsions:
  status: ('A' for Active; 'I' for Inactive)
    1  A    between atoms: C_4  and  C_17
    2  A    between atoms: C_4  and  O_29
    3  A    between atoms: C_6  and  C_34
    4  A    between atoms: N_11  and  C_33
    5  A    between atoms: C_15  and  C_20
    6  A    between atoms: C_17  and  C_37
    7  A    between atoms: C_19  and  C_33
    8  A    between atoms: C_20  and  C_31
    9  A    between atoms: C_24  and  C_37
   10  A    between atoms: O_29  and  C_32
   11  A    between atoms: C_33  and  C_35
   12  A    between atoms: C_34  and  C_35
                            x       y       z     vdW  Elec       q    Type
                         _______ _______ _______ _____ _____    ______ ____

>  <TORSDO>
F 12

$$$$
=
 OpenBabel11072415163D

 40 45  0  0  1  0  0  0  0  0999 V2000
  161.8090  206.8920  147.7300 C   0  0  0  0  0  2  0  0  0  0  0  0
  160.8870  207.3870  152.8940 N   0  0  0  0  0  2  0  0  0  0  0  0
  163.4560  207.3280  150.1760 C   0  0  0  0  0  2  0  0  0  0  0  0
  161.7060  206.9280  151.8130 C   0  0  0  0  0  0  0  0  0  0  0  0
  161.5770  205.5660  148.4480 C   0  0  1  0  0  3  0  0  0  0  0  0
  160.1550  205.4310  149.0270 C   0  0  1  0  0  3  0  0  0  0  0  0
  163.2180  208.1400  149.0490 O   0  0  0  0  0  0  0  0  0  0  0  0
  160.0960  205.4110  150.5280 C   0  0  2  0  0  3  0  0  0  0  0  0
  159.7980  206.5670  149.7800 O   0  0  0  0  0  0  0  0  0  0  0  0
  161.4570  205.5570  151.2340 C   0  0  2  0  0  3  0  0  0  0  0  0
  162.6110  207.7150  151.3040 N   0  0  0  0  0  0  0  0  0  0  0  0
  161.9110  207.9730  148.7060 N   0  0  0  0  0  2  0  0  0  0  0  0
  161.8960  204.3990  147.5270 C   0  0  0  0  0  2  0  0  0  0  0  0
  160.4490  204.3910  145.4810 C   0  0  0  0  0  3  0  0  0  0  0  0
  162.6190  205.4660  145.3780 C   0  0  0  0  0  3  0  0  0  0  0  0
  162.4020  205.7760  144.0330 C   0  0  0  0  0  3  0  0  0  0  0  0
  161.6410  204.7780  146.1070 C   0  0  0  0  0  0  0  0  0  0  0  0
  160.2310  204.7030  144.1350 C   0  0  0  0  0  3  0  0  0  0  0  0
  161.2060  205.3970  143.4120 C   0  0  0  0  0  3  0  0  0  0  0  0
  161.0270  208.7110  153.4890 C   0  0  2  0  0  3  0  0  0  0  0  0
  161.5470  209.4040  155.8880 C   0  0  0  0  0  3  0  0  0  0  0  0
  160.0810  208.1360  156.9380 O   0  0  0  0  0  0  0  0  0  0  0  0
  160.8390  208.6560  154.9740 C   0  0  0  0  0  0  0  0  0  0  0  0
  159.9320  207.8780  155.6600 C   0  0  0  0  0  3  0  0  0  0  0  0
  161.0260  209.0330  157.1140 C   0  0  0  0  0  3  0  0  0  0  0  0
  160.6420  210.2640  151.6890 O   0  0  0  0  0  1  0  0  0  0  0  0
  160.0690  209.7120  152.8370 C   0  0  2  0  0  3  0  0  0  0  0  0
  159.7010  210.8270  153.8030 C   0  0  0  0  0  2  0  0  0  0  0  0
  158.3730  211.4510  153.4200 C   0  0  0  0  0  3  0  0  0  0  0  0
  158.1460  212.6910  154.2600 C   0  0  0  0  0  2  0  0  0  0  0  0
  158.6180  212.8230  152.8300 C   0  0  0  0  0  2  0  0  0  0  0  0
  161.7330  204.4260  152.2210 C   0  0  0  0  0  2  0  0  0  0  0  0
  161.9560  203.0910  151.5260 C   0  0  0  0  0  2  0  0  0  0  0  0
  160.7850  202.1750  151.8140 C   0  0  0  0  0  2  0  0  0  0  0  0
  160.7480  201.1560  150.8640 O   0  0  0  0  0  0  0  0  0  0  0  0
  160.0350  201.2800  147.4750 C   0  0  0  0  0  2  0  0  0  0  0  0
  161.2070  200.3560  147.7020 C   0  0  0  0  0  2  0  0  0  0  0  0
  159.7080  201.8480  148.8380 C   0  0  0  0  0  2  0  0  0  0  0  0
  161.9890  200.9830  148.8340 C   0  0  0  0  0  2  0  0  0  0  0  0
  160.9930  201.7940  149.6470 C   0  0  0  0  0  3  0  0  0  0  0  0
  1  5  1  0  0  0  0
  1 12  1  0  0  0  0
  3 11  1  0  0  0  0
  4  2  1  0  0  0  0
  5 13  1  6  0  0  0
  5  6  1  0  0  0  0
  6  9  1  1  0  0  0
  6  8  1  0  0  0  0
  7  3  1  0  0  0  0
  8  9  1  1  0  0  0
  8 10  1  0  0  0  0
 10  4  1  0  0  0  0
 10 32  1  1  0  0  0
 11  4  2  0  0  0  0
 12  7  1  0  0  0  0
 14 17  1  0  0  0  0
 15 17  2  0  0  0  0
 16 15  1  0  0  0  0
 17 13  1  0  0  0  0
 18 14  2  0  0  0  0
 19 16  2  0  0  0  0
 19 18  1  0  0  0  0
 20  2  1  6  0  0  0
 20 23  1  0  0  0  0
 21 25  2  0  0  0  0
 22 25  1  0  0  0  0
 23 24  2  0  0  0  0
 23 21  1  0  0  0  0
 24 22  1  0  0  0  0
 27 26  1  6  0  0  0
 27 20  1  0  0  0  0
 27 28  1  0  0  0  0
 29 28  1  0  0  0  0
 29 30  1  0  0  0  0
 31 29  1  0  0  0  0
 31 30  1  0  0  0  0
 33 34  1  0  0  0  0
 33 32  1  0  0  0  0
 35 34  1  0  0  0  0
 36 37  1  0  0  0  0
 36 38  1  0  0  0  0
 37 39  1  0  0  0  0
 38 40  1  0  0  0  0
 39 40  1  0  0  0  0
 40 35  1  0  0  0  0
M  END
>  <MODEL>
7

>  <REMARK>
 VINA RESULT:      -3.8      2.988      9.316
  Name = 
  12 active torsions:
  status: ('A' for Active; 'I' for Inactive)
    1  A    between atoms: C_4  and  C_17
    2  A    between atoms: C_4  and  O_29
    3  A    between atoms: C_6  and  C_34
    4  A    between atoms: N_11  and  C_33
    5  A    between atoms: C_15  and  C_20
    6  A    between atoms: C_17  and  C_37
    7  A    between atoms: C_19  and  C_33
    8  A    between atoms: C_20  and  C_31
    9  A    between atoms: C_24  and  C_37
   10  A    between atoms: O_29  and  C_32
   11  A    between atoms: C_33  and  C_35
   12  A    between atoms: C_34  and  C_35
                            x       y       z     vdW  Elec       q    Type
                         _______ _______ _______ _____ _____    ______ ____

>  <TORSDO>
F 12

$$$$
=
 OpenBabel11072415163D

 40 45  0  0  1  0  0  0  0  0999 V2000
  158.4030  211.3520  157.1900 C   0  0  0  0  0  2  0  0  0  0  0  0
  158.9420  213.3740  152.3540 N   0  0  0  0  0  2  0  0  0  0  0  0
  157.0070  211.0650  154.5720 C   0  0  0  0  0  2  0  0  0  0  0  0
  158.6190  212.2790  153.2170 C   0  0  0  0  0  0  0  0  0  0  0  0
  159.5120  210.7030  156.3660 C   0  0  1  0  0  3  0  0  0  0  0  0
  160.6590  211.6720  156.0240 C   0  0  1  0  0  3  0  0  0  0  0  0
  156.5770  211.5770  155.8130 O   0  0  0  0  0  0  0  0  0  0  0  0
  160.7770  212.0030  154.5630 C   0  0  2  0  0  3  0  0  0  0  0  0
  160.1700  212.8780  155.4850 O   0  0  0  0  0  0  0  0  0  0  0  0
  159.7170  211.3440  153.6610 C   0  0  2  0  0  3  0  0  0  0  0  0
  157.4010  212.1360  153.6580 N   0  0  0  0  0  0  0  0  0  0  0  0
  157.6270  212.2590  156.3490 N   0  0  0  0  0  2  0  0  0  0  0  0
  160.0430  209.4660  157.0730 C   0  0  0  0  0  2  0  0  0  0  0  0
  161.4130  208.4930  155.2130 C   0  0  0  0  0  3  0  0  0  0  0  0
  159.4530  207.2900  155.9790 C   0  0  0  0  0  3  0  0  0  0  0  0
  159.6830  206.3030  155.0170 C   0  0  0  0  0  3  0  0  0  0  0  0
  160.3200  208.3850  156.0830 C   0  0  0  0  0  0  0  0  0  0  0  0
  161.6450  207.5040  154.2530 C   0  0  0  0  0  3  0  0  0  0  0  0
  160.7810  206.4080  154.1560 C   0  0  0  0  0  3  0  0  0  0  0  0
  157.9560  214.3510  151.9080 C   0  0  2  0  0  3  0  0  0  0  0  0
  155.4520  214.0320  152.2670 C   0  0  0  0  0  3  0  0  0  0  0  0
  155.3810  214.3050  154.4540 O   0  0  0  0  0  0  0  0  0  0  0  0
  156.7170  214.2870  152.7470 C   0  0  0  0  0  0  0  0  0  0  0  0
  156.6390  214.4500  154.1130 C   0  0  0  0  0  3  0  0  0  0  0  0
  154.6460  214.0570  153.3920 C   0  0  0  0  0  3  0  0  0  0  0  0
  157.1790  212.8790  150.1660 O   0  0  0  0  0  1  0  0  0  0  0  0
  157.6380  214.1740  150.4200 C   0  0  2  0  0  3  0  0  0  0  0  0
  158.8630  214.4520  149.5620 C   0  0  0  0  0  2  0  0  0  0  0  0
  159.4430  213.1590  149.0220 C   0  0  0  0  0  3  0  0  0  0  0  0
  160.2560  213.4620  147.7790 C   0  0  0  0  0  2  0  0  0  0  0  0
  160.9530  213.2200  149.0990 C   0  0  0  0  0  2  0  0  0  0  0  0
  160.3340  210.5490  152.5120 C   0  0  0  0  0  2  0  0  0  0  0  0
  161.8520  210.6350  152.4960 C   0  0  0  0  0  2  0  0  0  0  0  0
  162.4060  209.5390  151.6100 C   0  0  0  0  0  2  0  0  0  0  0  0
  161.3590  208.7410  151.1490 O   0  0  0  0  0  0  0  0  0  0  0  0
  161.2860  206.9130  148.2060 C   0  0  0  0  0  2  0  0  0  0  0  0
  160.5010  206.1780  149.2660 C   0  0  0  0  0  2  0  0  0  0  0  0
  161.8640  208.1230  148.9070 C   0  0  0  0  0  2  0  0  0  0  0  0
  161.2480  206.4330  150.5560 C   0  0  0  0  0  2  0  0  0  0  0  0
  161.9770  207.7560  150.3770 C   0  0  0  0  0  3  0  0  0  0  0  0
  2  4  1  0  0  0  0
  3  7  1  0  0  0  0
  4 11  2  0  0  0  0
  4 10  1  0  0  0  0
  5 13  1  1  0  0  0
  5  1  1  0  0  0  0
  6  9  1  1  0  0  0
  6  5  1  0  0  0  0
  7 12  1  0  0  0  0
  8  9  1  1  0  0  0
  8  6  1  0  0  0  0
 10 32  1  6  0  0  0
 10  8  1  0  0  0  0
 11  3  1  0  0  0  0
 12  1  1  0  0  0  0
 14 17  1  0  0  0  0
 15 17  2  0  0  0  0
 16 15  1  0  0  0  0
 17 13  1  0  0  0  0
 18 14  2  0  0  0  0
 19 18  1  0  0  0  0
 19 16  2  0  0  0  0
 20  2  1  1  0  0  0
 20 23  1  0  0  0  0
 21 23  1  0  0  0  0
 21 25  2  0  0  0  0
 23 24  2  0  0  0  0
 24 22  1  0  0  0  0
 25 22  1  0  0  0  0
 27 26  1  1  0  0  0
 27 20  1  0  0  0  0
 28 27  1  0  0  0  0
 29 31  1  0  0  0  0
 29 28  1  0  0  0  0
 30 29  1  0  0  0  0
 30 31  1  0  0  0  0
 33 32  1  0  0  0  0
 34 33  1  0  0  0  0
 35 34  1  0  0  0  0
 36 38  1  0  0  0  0
 36 37  1  0  0  0  0
 37 39  1  0  0  0  0
 38 40  1  0  0  0  0
 40 39  1  0  0  0  0
 40 35  1  0  0  0  0
M  END
>  <MODEL>
8

>  <REMARK>
 VINA RESULT:      -3.8      3.522      7.904
  Name = 
  12 active torsions:
  status: ('A' for Active; 'I' for Inactive)
    1  A    between atoms: C_4  and  C_17
    2  A    between atoms: C_4  and  O_29
    3  A    between atoms: C_6  and  C_34
    4  A    between atoms: N_11  and  C_33
    5  A    between atoms: C_15  and  C_20
    6  A    between atoms: C_17  and  C_37
    7  A    between atoms: C_19  and  C_33
    8  A    between atoms: C_20  and  C_31
    9  A    between atoms: C_24  and  C_37
   10  A    between atoms: O_29  and  C_32
   11  A    between atoms: C_33  and  C_35
   12  A    between atoms: C_34  and  C_35
                            x       y       z     vdW  Elec       q    Type
                         _______ _______ _______ _____ _____    ______ ____

>  <TORSDO>
F 12

$$$$
=
 OpenBabel11072415163D

 40 45  0  0  1  0  0  0  0  0999 V2000
  162.5640  207.3070  150.8960 C   0  0  0  0  0  2  0  0  0  0  0  0
  161.1570  210.9720  154.4120 N   0  0  0  0  0  2  0  0  0  0  0  0
  160.3490  207.6660  152.8590 C   0  0  0  0  0  2  0  0  0  0  0  0
  160.8100  209.9800  153.4400 C   0  0  0  0  0  0  0  0  0  0  0  0
  161.8590  208.5150  150.2850 C   0  0  1  0  0  3  0  0  0  0  0  0
  162.6540  209.8250  150.4420 C   0  0  1  0  0  3  0  0  0  0  0  0
  161.3910  206.7200  152.7840 O   0  0  0  0  0  0  0  0  0  0  0  0
  162.0110  210.8360  151.3500 C   0  0  2  0  0  3  0  0  0  0  0  0
  163.0740  210.0140  151.7730 O   0  0  0  0  0  0  0  0  0  0  0  0
  160.6860  210.3830  151.9910 C   0  0  2  0  0  3  0  0  0  0  0  0
  160.6650  208.7370  153.8030 N   0  0  0  0  0  0  0  0  0  0  0  0
  162.5010  207.3820  152.3530 N   0  0  0  0  0  2  0  0  0  0  0  0
  161.5310  208.2540  148.8240 C   0  0  0  0  0  2  0  0  0  0  0  0
  162.3270  206.3140  147.4520 C   0  0  0  0  0  3  0  0  0  0  0  0
  160.8260  205.9000  149.3100 C   0  0  0  0  0  3  0  0  0  0  0  0
  160.8310  204.5350  149.0100 C   0  0  0  0  0  3  0  0  0  0  0  0
  161.5790  206.7910  148.5360 C   0  0  0  0  0  0  0  0  0  0  0  0
  162.3320  204.9480  147.1530 C   0  0  0  0  0  3  0  0  0  0  0  0
  161.5860  204.0590  147.9330 C   0  0  0  0  0  3  0  0  0  0  0  0
  161.3390  210.6670  155.8270 C   0  0  2  0  0  3  0  0  0  0  0  0
  159.6980  208.7510  156.1940 C   0  0  0  0  0  3  0  0  0  0  0  0
  161.1430  207.1240  156.5500 O   0  0  0  0  0  0  0  0  0  0  0  0
  160.9820  209.2440  156.1210 C   0  0  0  0  0  0  0  0  0  0  0  0
  161.8590  208.2040  156.3450 C   0  0  0  0  0  3  0  0  0  0  0  0
  159.8610  207.4050  156.4680 C   0  0  0  0  0  3  0  0  0  0  0  0
  159.4300  211.0080  157.2560 O   0  0  0  0  0  1  0  0  0  0  0  0
  160.5480  211.6400  156.7050 C   0  0  2  0  0  3  0  0  0  0  0  0
  160.0990  212.8560  155.9100 C   0  0  0  0  0  2  0  0  0  0  0  0
  158.5940  213.0230  155.9900 C   0  0  0  0  0  3  0  0  0  0  0  0
  158.1230  213.8470  154.8100 C   0  0  0  0  0  2  0  0  0  0  0  0
  157.9530  212.3450  154.7990 C   0  0  0  0  0  2  0  0  0  0  0  0
  159.5430  211.3610  151.7320 C   0  0  0  0  0  2  0  0  0  0  0  0
  160.0300  212.7900  151.5520 C   0  0  0  0  0  2  0  0  0  0  0  0
  159.6350  213.2840  150.1770 C   0  0  0  0  0  2  0  0  0  0  0  0
  160.7390  213.8720  149.5590 O   0  0  0  0  0  0  0  0  0  0  0  0
  162.3180  213.2710  146.5340 C   0  0  0  0  0  2  0  0  0  0  0  0
  160.8300  213.3810  146.3040 C   0  0  0  0  0  2  0  0  0  0  0  0
  162.4970  213.3830  148.0320 C   0  0  0  0  0  2  0  0  0  0  0  0
  160.1960  212.7520  147.5240 C   0  0  0  0  0  2  0  0  0  0  0  0
  161.1960  212.9100  148.6580 C   0  0  0  0  0  3  0  0  0  0  0  0
  1 12  1  0  0  0  0
  3 11  1  0  0  0  0
  4 11  2  0  0  0  0
  4  2  1  0  0  0  0
  5 13  1  6  0  0  0
  5  6  1  0  0  0  0
  5  1  1  0  0  0  0
  6  8  1  0  0  0  0
  6  9  1  1  0  0  0
  7  3  1  0  0  0  0
  8  9  1  1  0  0  0
  8 10  1  0  0  0  0
 10 32  1  1  0  0  0
 10  4  1  0  0  0  0
 12  7  1  0  0  0  0
 14 17  1  0  0  0  0
 16 15  1  0  0  0  0
 17 13  1  0  0  0  0
 17 15  2  0  0  0  0
 18 14  2  0  0  0  0
 18 19  1  0  0  0  0
 19 16  2  0  0  0  0
 20  2  1  6  0  0  0
 20 23  1  0  0  0  0
 20 27  1  0  0  0  0
 21 25  2  0  0  0  0
 23 21  1  0  0  0  0
 23 24  2  0  0  0  0
 24 22  1  0  0  0  0
 25 22  1  0  0  0  0
 27 26  1  6  0  0  0
 28 29  1  0  0  0  0
 28 27  1  0  0  0  0
 30 29  1  0  0  0  0
 31 30  1  0  0  0  0
 31 29  1  0  0  0  0
 33 32  1  0  0  0  0
 34 33  1  0  0  0  0
 35 34  1  0  0  0  0
 36 38  1  0  0  0  0
 37 36  1  0  0  0  0
 37 39  1  0  0  0  0
 38 40  1  0  0  0  0
 39 40  1  0  0  0  0
 40 35  1  0  0  0  0
M  END
>  <MODEL>
9

>  <REMARK>
 VINA RESULT:      -3.5      2.117      7.610
  Name = 
  12 active torsions:
  status: ('A' for Active; 'I' for Inactive)
    1  A    between atoms: C_4  and  C_17
    2  A    between atoms: C_4  and  O_29
    3  A    between atoms: C_6  and  C_34
    4  A    between atoms: N_11  and  C_33
    5  A    between atoms: C_15  and  C_20
    6  A    between atoms: C_17  and  C_37
    7  A    between atoms: C_19  and  C_33
    8  A    between atoms: C_20  and  C_31
    9  A    between atoms: C_24  and  C_37
   10  A    between atoms: O_29  and  C_32
   11  A    between atoms: C_33  and  C_35
   12  A    between atoms: C_34  and  C_35
                            x       y       z     vdW  Elec       q    Type
                         _______ _______ _______ _____ _____    ______ ____

>  <TORSDO>
F 12

$$$$
