=
 OpenBabel11072414363D

 36 38  0  0  1  0  0  0  0  0999 V2000
  162.0450  208.5430  149.9080 N   0  0  0  0  0  2  0  0  0  0  0  0
  161.8830  207.3680  149.1450 C   0  0  0  0  0  0  0  0  0  0  0  0
  162.0530  207.3580  147.8650 N   0  0  0  0  0  2  0  0  0  0  0  0
  161.8370  206.1370  149.9590 C   0  0  1  0  0  3  0  0  0  0  0  0
  162.0520  208.1970  151.3160 C   0  0  2  0  0  3  0  0  0  0  0  0
  161.9470  206.6650  151.3920 C   0  0  2  0  0  3  0  0  0  0  0  0
  163.0960  206.1500  151.9910 O   0  0  0  0  0  1  0  0  0  0  0  0
  160.8620  208.8490  152.0070 C   0  0  0  0  0  2  0  0  0  0  0  0
  161.3090  209.9590  152.9500 C   0  0  0  0  0  2  0  0  0  0  0  0
  161.2650  209.5040  154.4030 C   0  0  1  0  0  3  0  0  0  0  0  0
  159.8450  211.9240  155.0590 S   0  0  0  0  0  0  0  0  0  0  0  0
  160.0590  212.4430  156.7950 C   0  0  0  0  0  2  0  0  0  0  0  0
  161.4400  211.9990  157.2590 C   0  0  0  0  0  2  0  0  0  0  0  0
  161.7980  210.8260  156.4270 C   0  0  0  0  0  0  0  0  0  0  0  0
  161.0840  210.6700  155.3270 C   0  0  0  0  0  0  0  0  0  0  0  0
  162.8190  209.9550  156.7880 O   0  0  0  0  0  1  0  0  0  0  0  0
  160.2240  208.5900  154.5820 O   0  0  0  0  0  0  0  0  0  0  0  0
  160.7810  207.5460  155.3250 C   0  0  2  0  0  3  0  0  0  0  0  0
  160.8940  206.4110  154.5230 O   0  0  0  0  0  1  0  0  0  0  0  0
  159.8900  207.2380  156.5110 C   0  0  0  0  0  1  0  0  0  0  0  0
  160.5020  205.4370  149.7620 C   0  0  0  0  0  2  0  0  0  0  0  0
  160.2060  204.5280  150.9420 C   0  0  0  0  0  2  0  0  0  0  0  0
  161.0040  203.2690  150.8380 C   0  0  0  0  0  0  0  0  0  0  0  0
  161.9610  203.0970  151.5780 O   0  0  0  0  0  0  0  0  0  0  0  0
  160.6510  202.2370  149.7950 C   0  0  0  0  0  0  0  0  0  0  0  0
  159.4990  202.6520  149.1530 F   0  0  0  0  0  0  0  0  0  0  0  0
  160.3790  201.0090  150.3890 F   0  0  0  0  0  0  0  0  0  0  0  0
  161.6750  202.1190  148.8270 O   0  0  0  0  0  0  0  0  0  0  0  0
  162.2060  203.6130  147.0550 C   0  0  0  0  0  2  0  0  0  0  0  0
  160.0230  202.9320  144.8220 C   0  0  0  0  0  0  0  0  0  0  0  0
  161.1330  201.4880  146.5990 C   0  0  0  0  0  2  0  0  0  0  0  0
  161.5900  204.5350  146.0520 C   0  0  0  0  0  3  0  0  0  0  0  0
  160.6940  204.2230  145.1080 C   0  0  0  0  0  3  0  0  0  0  0  0
  160.1780  201.7810  145.4880 C   0  0  0  0  0  3  0  0  0  0  0  0
  161.2070  202.6180  147.5990 C   0  0  1  0  0  3  0  0  0  0  0  0
  159.1120  202.9410  143.8210 F   0  0  0  0  0  0  0  0  0  0  0  0
  1  5  1  0  0  0  0
  2  1  1  0  0  0  0
  2  4  1  0  0  0  0
  3  2  2  0  0  0  0
  4 21  1  1  0  0  0
  4  6  1  0  0  0  0
  5  6  1  0  0  0  0
  5  8  1  1  0  0  0
  6  7  1  6  0  0  0
  8  9  1  0  0  0  0
 10  9  1  6  0  0  0
 10 17  1  0  0  0  0
 10 15  1  0  0  0  0
 11 15  1  0  0  0  0
 11 12  1  0  0  0  0
 12 13  1  0  0  0  0
 14 16  1  0  0  0  0
 14 13  1  0  0  0  0
 15 14  2  0  0  0  0
 17 18  1  0  0  0  0
 18 20  1  1  0  0  0
 19 18  1  0  0  0  0
 21 22  1  0  0  0  0
 23 22  1  0  0  0  0
 23 24  2  0  0  0  0
 25 27  1  0  0  0  0
 25 23  1  0  0  0  0
 26 25  1  0  0  0  0
 28 25  1  0  0  0  0
 29 35  1  0  0  0  0
 30 33  1  0  0  0  0
 30 34  2  0  0  0  0
 31 35  1  0  0  0  0
 32 29  1  0  0  0  0
 33 32  2  0  0  0  0
 34 31  1  0  0  0  0
 35 28  1  1  0  0  0
 36 30  1  0  0  0  0
M  END
>  <MODEL>
1

>  <REMARK>
 VINA RESULT:      -7.5      0.000      0.000
  Name = 
  12 active torsions:
  status: ('A' for Active; 'I' for Inactive)
    1  A    between atoms: C_2  and  C_10
    2  A    between atoms: C_2  and  C_16
    3  A    between atoms: O_4  and  C_6
    4  A    between atoms: O_4  and  C_30
    5  A    between atoms: C_5  and  C_6
    6  A    between atoms: C_5  and  C_35
    7  A    between atoms: C_10  and  C_32
    8  A    between atoms: C_16  and  C_25
    9  A    between atoms: C_16  and  O_27
   10  A    between atoms: C_17  and  O_27
   11  A    between atoms: C_20  and  C_26
   12  A    between atoms: C_20  and  C_35
                            x       y       z     vdW  Elec       q    Type
                         _______ _______ _______ _____ _____    ______ ____

>  <TORSDO>
F 12

$$$$
=
 OpenBabel11072414363D

 36 38  0  0  1  0  0  0  0  0999 V2000
  162.0870  208.5960  150.4700 N   0  0  0  0  0  2  0  0  0  0  0  0
  162.1300  207.4670  149.6250 C   0  0  0  0  0  0  0  0  0  0  0  0
  162.5560  207.5430  148.4080 N   0  0  0  0  0  2  0  0  0  0  0  0
  161.9690  206.1870  150.3420 C   0  0  1  0  0  3  0  0  0  0  0  0
  161.8240  208.1620  151.8280 C   0  0  2  0  0  3  0  0  0  0  0  0
  161.7670  206.6260  151.7940 C   0  0  2  0  0  3  0  0  0  0  0  0
  162.7900  206.1060  152.5850 O   0  0  0  0  0  1  0  0  0  0  0  0
  160.4930  208.7360  152.2960 C   0  0  0  0  0  2  0  0  0  0  0  0
  160.6600  210.1530  152.8330 C   0  0  0  0  0  2  0  0  0  0  0  0
  160.0650  210.2910  154.2280 C   0  0  1  0  0  3  0  0  0  0  0  0
  162.5050  210.6400  155.7210 S   0  0  0  0  0  0  0  0  0  0  0  0
  162.5780  209.6290  157.2380 C   0  0  0  0  0  2  0  0  0  0  0  0
  161.7900  208.3490  156.9970 C   0  0  0  0  0  2  0  0  0  0  0  0
  160.7840  208.6730  155.9580 C   0  0  0  0  0  0  0  0  0  0  0  0
  161.0110  209.7760  155.2700 C   0  0  0  0  0  0  0  0  0  0  0  0
  159.6770  207.8630  155.7320 O   0  0  0  0  0  1  0  0  0  0  0  0
  159.7600  211.6300  154.4830 O   0  0  0  0  0  0  0  0  0  0  0  0
  158.3640  211.6910  154.4790 C   0  0  2  0  0  3  0  0  0  0  0  0
  157.9510  212.8790  153.8780 O   0  0  0  0  0  1  0  0  0  0  0  0
  157.8520  211.6430  155.9040 C   0  0  0  0  0  1  0  0  0  0  0  0
  160.7310  205.4640  149.8380 C   0  0  0  0  0  2  0  0  0  0  0  0
  160.2140  204.5040  150.8950 C   0  0  0  0  0  2  0  0  0  0  0  0
  160.9710  203.2170  150.8390 C   0  0  0  0  0  0  0  0  0  0  0  0
  161.8620  203.0030  151.6470 O   0  0  0  0  0  0  0  0  0  0  0  0
  160.6580  202.2050  149.7630 C   0  0  0  0  0  0  0  0  0  0  0  0
  159.5030  202.6080  149.1180 F   0  0  0  0  0  0  0  0  0  0  0  0
  160.4110  200.9540  150.3190 F   0  0  0  0  0  0  0  0  0  0  0  0
  161.6970  202.1420  148.8060 O   0  0  0  0  0  0  0  0  0  0  0  0
  162.2340  203.6200  147.0210 C   0  0  0  0  0  2  0  0  0  0  0  0
  160.0170  202.9630  144.8140 C   0  0  0  0  0  0  0  0  0  0  0  0
  161.1220  201.5100  146.5860 C   0  0  0  0  0  2  0  0  0  0  0  0
  161.6220  204.5460  146.0210 C   0  0  0  0  0  3  0  0  0  0  0  0
  160.7120  204.2450  145.0880 C   0  0  0  0  0  3  0  0  0  0  0  0
  160.1600  201.8130  145.4830 C   0  0  0  0  0  3  0  0  0  0  0  0
  161.2240  202.6430  147.5810 C   0  0  1  0  0  3  0  0  0  0  0  0
  159.0960  202.9830  143.8230 F   0  0  0  0  0  0  0  0  0  0  0  0
  1  5  1  0  0  0  0
  2  4  1  0  0  0  0
  2  1  1  0  0  0  0
  3  2  2  0  0  0  0
  4 21  1  6  0  0  0
  4  6  1  0  0  0  0
  5  8  1  6  0  0  0
  6  5  1  0  0  0  0
  6  7  1  1  0  0  0
  8  9  1  0  0  0  0
 10  9  1  6  0  0  0
 10 17  1  0  0  0  0
 10 15  1  0  0  0  0
 11 12  1  0  0  0  0
 13 12  1  0  0  0  0
 14 13  1  0  0  0  0
 15 11  1  0  0  0  0
 15 14  2  0  0  0  0
 16 14  1  0  0  0  0
 18 17  1  0  0  0  0
 18 20  1  1  0  0  0
 19 18  1  0  0  0  0
 21 22  1  0  0  0  0
 23 22  1  0  0  0  0
 23 24  2  0  0  0  0
 25 27  1  0  0  0  0
 25 23  1  0  0  0  0
 26 25  1  0  0  0  0
 28 25  1  0  0  0  0
 29 35  1  0  0  0  0
 30 33  1  0  0  0  0
 30 34  2  0  0  0  0
 31 35  1  0  0  0  0
 32 29  1  0  0  0  0
 33 32  2  0  0  0  0
 34 31  1  0  0  0  0
 35 28  1  1  0  0  0
 36 30  1  0  0  0  0
M  END
>  <MODEL>
2

>  <REMARK>
 VINA RESULT:      -7.4      1.442      2.189
  Name = 
  12 active torsions:
  status: ('A' for Active; 'I' for Inactive)
    1  A    between atoms: C_2  and  C_10
    2  A    between atoms: C_2  and  C_16
    3  A    between atoms: O_4  and  C_6
    4  A    between atoms: O_4  and  C_30
    5  A    between atoms: C_5  and  C_6
    6  A    between atoms: C_5  and  C_35
    7  A    between atoms: C_10  and  C_32
    8  A    between atoms: C_16  and  C_25
    9  A    between atoms: C_16  and  O_27
   10  A    between atoms: C_17  and  O_27
   11  A    between atoms: C_20  and  C_26
   12  A    between atoms: C_20  and  C_35
                            x       y       z     vdW  Elec       q    Type
                         _______ _______ _______ _____ _____    ______ ____

>  <TORSDO>
F 12

$$$$
=
 OpenBabel11072414363D

 36 38  0  0  1  0  0  0  0  0999 V2000
  160.8640  211.5440  151.2310 N   0  0  0  0  0  2  0  0  0  0  0  0
  161.7420  210.6040  150.6540 C   0  0  0  0  0  0  0  0  0  0  0  0
  162.2180  210.7560  149.4640 N   0  0  0  0  0  2  0  0  0  0  0  0
  162.3050  209.6470  151.6290 C   0  0  1  0  0  3  0  0  0  0  0  0
  160.7130  211.2490  152.6420 C   0  0  2  0  0  3  0  0  0  0  0  0
  161.6380  210.0590  152.9430 C   0  0  2  0  0  3  0  0  0  0  0  0
  162.6140  210.4490  153.8590 O   0  0  0  0  0  1  0  0  0  0  0  0
  159.2630  210.8870  152.9340 C   0  0  0  0  0  2  0  0  0  0  0  0
  158.7320  211.6560  154.1380 C   0  0  0  0  0  2  0  0  0  0  0  0
  158.2910  210.7120  155.2490 C   0  0  1  0  0  3  0  0  0  0  0  0
  159.8420  208.4070  156.0170 S   0  0  0  0  0  0  0  0  0  0  0  0
  161.5300  208.8210  156.5710 C   0  0  0  0  0  2  0  0  0  0  0  0
  161.4960  210.1990  157.2190 C   0  0  0  0  0  2  0  0  0  0  0  0
  160.3500  210.9140  156.6080 C   0  0  0  0  0  0  0  0  0  0  0  0
  159.4740  210.1520  155.9800 C   0  0  0  0  0  0  0  0  0  0  0  0
  160.2160  212.2940  156.6970 O   0  0  0  0  0  1  0  0  0  0  0  0
  157.4560  211.3870  156.1420 O   0  0  0  0  0  0  0  0  0  0  0  0
  156.2870  211.6440  155.4220 C   0  0  2  0  0  3  0  0  0  0  0  0
  155.5150  212.5810  156.1060 O   0  0  0  0  0  1  0  0  0  0  0  0
  155.4980  210.3600  155.2650 C   0  0  0  0  0  1  0  0  0  0  0  0
  161.8980  208.2310  151.2570 C   0  0  0  0  0  2  0  0  0  0  0  0
  160.9310  207.6740  152.2870 C   0  0  0  0  0  2  0  0  0  0  0  0
  161.4200  206.3580  152.7980 C   0  0  0  0  0  0  0  0  0  0  0  0
  161.8860  206.2820  153.9250 O   0  0  0  0  0  0  0  0  0  0  0  0
  161.3740  205.1400  151.9070 C   0  0  0  0  0  0  0  0  0  0  0  0
  161.0810  204.0430  152.6950 F   0  0  0  0  0  0  0  0  0  0  0  0
  162.6160  204.9120  151.3200 F   0  0  0  0  0  0  0  0  0  0  0  0
  160.3630  205.2620  150.9280 O   0  0  0  0  0  0  0  0  0  0  0  0
  160.6450  203.7910  149.0800 C   0  0  0  0  0  2  0  0  0  0  0  0
  161.8970  205.6670  146.8150 C   0  0  0  0  0  0  0  0  0  0  0  0
  160.2950  206.1630  148.7280 C   0  0  0  0  0  2  0  0  0  0  0  0
  161.6010  203.4170  147.9940 C   0  0  0  0  0  3  0  0  0  0  0  0
  162.0950  204.2140  147.0390 C   0  0  0  0  0  3  0  0  0  0  0  0
  161.1670  206.5030  147.5630 C   0  0  0  0  0  3  0  0  0  0  0  0
  160.9430  205.1590  149.6510 C   0  0  1  0  0  3  0  0  0  0  0  0
  162.5810  206.2100  145.7820 F   0  0  0  0  0  0  0  0  0  0  0  0
  1  5  1  0  0  0  0
  2  1  1  0  0  0  0
  2  4  1  0  0  0  0
  3  2  2  0  0  0  0
  4 21  1  6  0  0  0
  4  6  1  0  0  0  0
  5  8  1  6  0  0  0
  5  6  1  0  0  0  0
  6  7  1  1  0  0  0
  8  9  1  0  0  0  0
 10  9  1  6  0  0  0
 10 15  1  0  0  0  0
 10 17  1  0  0  0  0
 11 12  1  0  0  0  0
 12 13  1  0  0  0  0
 14 16  1  0  0  0  0
 14 13  1  0  0  0  0
 15 11  1  0  0  0  0
 15 14  2  0  0  0  0
 18 20  1  1  0  0  0
 18 19  1  0  0  0  0
 18 17  1  0  0  0  0
 21 22  1  0  0  0  0
 22 23  1  0  0  0  0
 23 24  2  0  0  0  0
 25 26  1  0  0  0  0
 25 23  1  0  0  0  0
 27 25  1  0  0  0  0
 28 25  1  0  0  0  0
 29 35  1  0  0  0  0
 30 33  1  0  0  0  0
 30 34  2  0  0  0  0
 31 35  1  0  0  0  0
 32 29  1  0  0  0  0
 33 32  2  0  0  0  0
 34 31  1  0  0  0  0
 35 28  1  1  0  0  0
 36 30  1  0  0  0  0
M  END
>  <MODEL>
3

>  <REMARK>
 VINA RESULT:      -7.4      2.809      4.023
  Name = 
  12 active torsions:
  status: ('A' for Active; 'I' for Inactive)
    1  A    between atoms: C_2  and  C_10
    2  A    between atoms: C_2  and  C_16
    3  A    between atoms: O_4  and  C_6
    4  A    between atoms: O_4  and  C_30
    5  A    between atoms: C_5  and  C_6
    6  A    between atoms: C_5  and  C_35
    7  A    between atoms: C_10  and  C_32
    8  A    between atoms: C_16  and  C_25
    9  A    between atoms: C_16  and  O_27
   10  A    between atoms: C_17  and  O_27
   11  A    between atoms: C_20  and  C_26
   12  A    between atoms: C_20  and  C_35
                            x       y       z     vdW  Elec       q    Type
                         _______ _______ _______ _____ _____    ______ ____

>  <TORSDO>
F 12

$$$$
=
 OpenBabel11072414363D

 36 38  0  0  1  0  0  0  0  0999 V2000
  160.6840  211.7480  151.2260 N   0  0  0  0  0  2  0  0  0  0  0  0
  161.6060  210.8180  150.7010 C   0  0  0  0  0  0  0  0  0  0  0  0
  162.1470  210.9760  149.5400 N   0  0  0  0  0  2  0  0  0  0  0  0
  162.1230  209.8690  151.7070 C   0  0  1  0  0  3  0  0  0  0  0  0
  160.4560  211.4510  152.6260 C   0  0  2  0  0  3  0  0  0  0  0  0
  161.3760  210.2720  152.9810 C   0  0  2  0  0  3  0  0  0  0  0  0
  162.2940  210.6740  153.9510 O   0  0  0  0  0  1  0  0  0  0  0  0
  158.9960  211.0710  152.8350 C   0  0  0  0  0  2  0  0  0  0  0  0
  158.2850  212.0770  153.7330 C   0  0  0  0  0  2  0  0  0  0  0  0
  158.5510  211.7910  155.2050 C   0  0  1  0  0  3  0  0  0  0  0  0
  157.6210  213.6610  157.1910 S   0  0  0  0  0  0  0  0  0  0  0  0
  155.8030  213.7990  157.2610 C   0  0  0  0  0  2  0  0  0  0  0  0
  155.2060  212.4530  156.8740 C   0  0  0  0  0  2  0  0  0  0  0  0
  156.2100  211.7900  156.0080 C   0  0  0  0  0  0  0  0  0  0  0  0
  157.4290  212.2940  156.0620 C   0  0  0  0  0  0  0  0  0  0  0  0
  155.8790  210.7110  155.1970 O   0  0  0  0  0  1  0  0  0  0  0  0
  158.7190  210.4180  155.3980 O   0  0  0  0  0  0  0  0  0  0  0  0
  159.6040  210.3080  156.4740 C   0  0  2  0  0  3  0  0  0  0  0  0
  160.5700  211.3100  156.3870 O   0  0  0  0  0  1  0  0  0  0  0  0
  160.2790  208.9530  156.4360 C   0  0  0  0  0  1  0  0  0  0  0  0
  161.7550  208.4480  151.3140 C   0  0  0  0  0  2  0  0  0  0  0  0
  160.8400  207.8330  152.3590 C   0  0  0  0  0  2  0  0  0  0  0  0
  161.3900  206.5230  152.8210 C   0  0  0  0  0  0  0  0  0  0  0  0
  161.8350  206.4190  153.9540 O   0  0  0  0  0  0  0  0  0  0  0  0
  161.4290  205.3460  151.8760 C   0  0  0  0  0  0  0  0  0  0  0  0
  161.1880  204.1990  152.6090 F   0  0  0  0  0  0  0  0  0  0  0  0
  162.6900  205.2180  151.3020 F   0  0  0  0  0  0  0  0  0  0  0  0
  160.4270  205.4540  150.8850 O   0  0  0  0  0  0  0  0  0  0  0  0
  160.6260  203.8340  149.1550 C   0  0  0  0  0  2  0  0  0  0  0  0
  161.9820  205.4590  146.7610 C   0  0  0  0  0  0  0  0  0  0  0  0
  160.4090  206.1880  148.6230 C   0  0  0  0  0  2  0  0  0  0  0  0
  161.5600  203.3250  148.1050 C   0  0  0  0  0  3  0  0  0  0  0  0
  162.0980  204.0190  147.0950 C   0  0  0  0  0  3  0  0  0  0  0  0
  161.3000  206.3890  147.4400 C   0  0  0  0  0  3  0  0  0  0  0  0
  161.0000  205.2220  149.6230 C   0  0  1  0  0  3  0  0  0  0  0  0
  162.6950  205.8840  145.6920 F   0  0  0  0  0  0  0  0  0  0  0  0
  1  5  1  0  0  0  0
  2  1  1  0  0  0  0
  2  4  1  0  0  0  0
  3  2  2  0  0  0  0
  4 21  1  6  0  0  0
  4  6  1  0  0  0  0
  5  8  1  6  0  0  0
  5  6  1  0  0  0  0
  6  7  1  1  0  0  0
  8  9  1  0  0  0  0
 10  9  1  6  0  0  0
 10 17  1  0  0  0  0
 10 15  1  0  0  0  0
 11 12  1  0  0  0  0
 13 12  1  0  0  0  0
 14 15  2  0  0  0  0
 14 13  1  0  0  0  0
 15 11  1  0  0  0  0
 16 14  1  0  0  0  0
 17 18  1  0  0  0  0
 18 20  1  6  0  0  0
 19 18  1  0  0  0  0
 21 22  1  0  0  0  0
 22 23  1  0  0  0  0
 23 24  2  0  0  0  0
 25 26  1  0  0  0  0
 25 23  1  0  0  0  0
 27 25  1  0  0  0  0
 28 25  1  0  0  0  0
 29 35  1  0  0  0  0
 30 33  1  0  0  0  0
 30 34  2  0  0  0  0
 31 35  1  0  0  0  0
 32 29  1  0  0  0  0
 33 32  2  0  0  0  0
 34 31  1  0  0  0  0
 35 28  1  1  0  0  0
 36 30  1  0  0  0  0
M  END
>  <MODEL>
4

>  <REMARK>
 VINA RESULT:      -7.0      2.775      4.165
  Name = 
  12 active torsions:
  status: ('A' for Active; 'I' for Inactive)
    1  A    between atoms: C_2  and  C_10
    2  A    between atoms: C_2  and  C_16
    3  A    between atoms: O_4  and  C_6
    4  A    between atoms: O_4  and  C_30
    5  A    between atoms: C_5  and  C_6
    6  A    between atoms: C_5  and  C_35
    7  A    between atoms: C_10  and  C_32
    8  A    between atoms: C_16  and  C_25
    9  A    between atoms: C_16  and  O_27
   10  A    between atoms: C_17  and  O_27
   11  A    between atoms: C_20  and  C_26
   12  A    between atoms: C_20  and  C_35
                            x       y       z     vdW  Elec       q    Type
                         _______ _______ _______ _____ _____    ______ ____

>  <TORSDO>
F 12

$$$$
=
 OpenBabel11072414363D

 36 38  0  0  1  0  0  0  0  0999 V2000
  162.1400  208.6400  150.3240 N   0  0  0  0  0  2  0  0  0  0  0  0
  162.0910  207.4740  149.5310 C   0  0  0  0  0  0  0  0  0  0  0  0
  162.4880  207.4680  148.3030 N   0  0  0  0  0  2  0  0  0  0  0  0
  161.8690  206.2400  150.3100 C   0  0  1  0  0  3  0  0  0  0  0  0
  161.8860  208.2840  151.7060 C   0  0  2  0  0  3  0  0  0  0  0  0
  161.7320  206.7550  151.7450 C   0  0  2  0  0  3  0  0  0  0  0  0
  162.7410  206.2060  152.5350 O   0  0  0  0  0  1  0  0  0  0  0  0
  160.6060  208.9610  152.1790 C   0  0  0  0  0  2  0  0  0  0  0  0
  160.8040  210.4640  152.3430 C   0  0  0  0  0  2  0  0  0  0  0  0
  160.2570  210.9530  153.6780 C   0  0  1  0  0  3  0  0  0  0  0  0
  157.5050  211.4030  154.4050 S   0  0  0  0  0  0  0  0  0  0  0  0
  156.8860  213.0480  153.9170 C   0  0  0  0  0  2  0  0  0  0  0  0
  157.6130  213.4750  152.6490 C   0  0  0  0  0  2  0  0  0  0  0  0
  158.9160  212.7680  152.6620 C   0  0  0  0  0  0  0  0  0  0  0  0
  158.9970  211.7400  153.4870 C   0  0  0  0  0  0  0  0  0  0  0  0
  159.9740  213.1660  151.8540 O   0  0  0  0  0  1  0  0  0  0  0  0
  160.0150  209.8630  154.5180 O   0  0  0  0  0  0  0  0  0  0  0  0
  160.8060  210.0910  155.6460 C   0  0  2  0  0  3  0  0  0  0  0  0
  161.6560  211.1710  155.4080 O   0  0  0  0  0  1  0  0  0  0  0  0
  161.6320  208.8560  155.9430 C   0  0  0  0  0  1  0  0  0  0  0  0
  160.5750  205.5750  149.8680 C   0  0  0  0  0  2  0  0  0  0  0  0
  160.1240  204.5610  150.9040 C   0  0  0  0  0  2  0  0  0  0  0  0
  160.9650  203.3280  150.8220 C   0  0  0  0  0  0  0  0  0  0  0  0
  161.8260  203.1260  151.6650 O   0  0  0  0  0  0  0  0  0  0  0  0
  160.7750  202.3610  149.6790 C   0  0  0  0  0  0  0  0  0  0  0  0
  159.5830  202.6700  149.0490 F   0  0  0  0  0  0  0  0  0  0  0  0
  160.6720  201.0560  150.1490 F   0  0  0  0  0  0  0  0  0  0  0  0
  161.8170  202.4810  148.7310 O   0  0  0  0  0  0  0  0  0  0  0  0
  162.2010  203.9870  146.9310 C   0  0  0  0  0  2  0  0  0  0  0  0
  159.9960  203.1530  144.7730 C   0  0  0  0  0  0  0  0  0  0  0  0
  161.2460  201.7970  146.5260 C   0  0  0  0  0  2  0  0  0  0  0  0
  161.5000  204.8590  145.9410 C   0  0  0  0  0  3  0  0  0  0  0  0
  160.5960  204.4840  145.0280 C   0  0  0  0  0  3  0  0  0  0  0  0
  160.2400  202.0200  145.4430 C   0  0  0  0  0  3  0  0  0  0  0  0
  161.2810  202.9390  147.5140 C   0  0  1  0  0  3  0  0  0  0  0  0
  159.0550  203.0970  143.8020 F   0  0  0  0  0  0  0  0  0  0  0  0
  1  5  1  0  0  0  0
  2  4  1  0  0  0  0
  2  1  1  0  0  0  0
  3  2  2  0  0  0  0
  4 21  1  6  0  0  0
  4  6  1  0  0  0  0
  5  6  1  0  0  0  0
  5  8  1  6  0  0  0
  6  7  1  1  0  0  0
  8  9  1  0  0  0  0
 10  9  1  6  0  0  0
 10 17  1  0  0  0  0
 12 11  1  0  0  0  0
 13 14  1  0  0  0  0
 13 12  1  0  0  0  0
 14 15  2  0  0  0  0
 15 10  1  0  0  0  0
 15 11  1  0  0  0  0
 16 14  1  0  0  0  0
 17 18  1  0  0  0  0
 18 20  1  6  0  0  0
 19 18  1  0  0  0  0
 21 22  1  0  0  0  0
 23 22  1  0  0  0  0
 23 24  2  0  0  0  0
 25 27  1  0  0  0  0
 25 23  1  0  0  0  0
 26 25  1  0  0  0  0
 28 25  1  0  0  0  0
 29 35  1  0  0  0  0
 30 33  1  0  0  0  0
 30 34  2  0  0  0  0
 31 35  1  0  0  0  0
 32 29  1  0  0  0  0
 33 32  2  0  0  0  0
 34 31  1  0  0  0  0
 35 28  1  1  0  0  0
 36 30  1  0  0  0  0
M  END
>  <MODEL>
5

>  <REMARK>
 VINA RESULT:      -6.9      1.798      2.277
  Name = 
  12 active torsions:
  status: ('A' for Active; 'I' for Inactive)
    1  A    between atoms: C_2  and  C_10
    2  A    between atoms: C_2  and  C_16
    3  A    between atoms: O_4  and  C_6
    4  A    between atoms: O_4  and  C_30
    5  A    between atoms: C_5  and  C_6
    6  A    between atoms: C_5  and  C_35
    7  A    between atoms: C_10  and  C_32
    8  A    between atoms: C_16  and  C_25
    9  A    between atoms: C_16  and  O_27
   10  A    between atoms: C_17  and  O_27
   11  A    between atoms: C_20  and  C_26
   12  A    between atoms: C_20  and  C_35
                            x       y       z     vdW  Elec       q    Type
                         _______ _______ _______ _____ _____    ______ ____

>  <TORSDO>
F 12

$$$$
=
 OpenBabel11072414363D

 36 38  0  0  1  0  0  0  0  0999 V2000
  161.3220  211.8470  156.4680 N   0  0  0  0  0  2  0  0  0  0  0  0
  162.0150  210.7480  155.9170 C   0  0  0  0  0  0  0  0  0  0  0  0
  163.1950  210.4150  156.3210 N   0  0  0  0  0  2  0  0  0  0  0  0
  161.1580  209.8550  155.1110 C   0  0  1  0  0  3  0  0  0  0  0  0
  159.9450  211.8140  156.0160 C   0  0  2  0  0  3  0  0  0  0  0  0
  159.7920  210.5420  155.1660 C   0  0  2  0  0  3  0  0  0  0  0  0
  158.8660  209.6910  155.7670 O   0  0  0  0  0  1  0  0  0  0  0  0
  159.6550  213.0530  155.1790 C   0  0  0  0  0  2  0  0  0  0  0  0
  159.0460  212.6810  153.8320 C   0  0  0  0  0  2  0  0  0  0  0  0
  157.6260  213.2160  153.6990 C   0  0  1  0  0  3  0  0  0  0  0  0
  158.4960  213.3780  150.9570 S   0  0  0  0  0  0  0  0  0  0  0  0
  157.1300  213.6440  149.7770 C   0  0  0  0  0  2  0  0  0  0  0  0
  156.0470  214.4530  150.4760 C   0  0  0  0  0  2  0  0  0  0  0  0
  156.1880  214.1680  151.9230 C   0  0  0  0  0  0  0  0  0  0  0  0
  157.3370  213.6300  152.2880 C   0  0  0  0  0  0  0  0  0  0  0  0
  155.1720  214.4530  152.8290 O   0  0  0  0  0  1  0  0  0  0  0  0
  156.7120  212.2410  154.1050 O   0  0  0  0  0  0  0  0  0  0  0  0
  156.0620  212.7910  155.2120 C   0  0  2  0  0  3  0  0  0  0  0  0
  156.6000  214.0470  155.4920 O   0  0  0  0  0  1  0  0  0  0  0  0
  156.2500  211.8850  156.4120 C   0  0  0  0  0  1  0  0  0  0  0  0
  161.6630  209.8100  153.6780 C   0  0  0  0  0  2  0  0  0  0  0  0
  160.7540  208.9420  152.8270 C   0  0  0  0  0  2  0  0  0  0  0  0
  161.3820  207.6060  152.5950 C   0  0  0  0  0  0  0  0  0  0  0  0
  161.4600  206.8050  153.5140 O   0  0  0  0  0  0  0  0  0  0  0  0
  161.9550  207.2680  151.2390 C   0  0  0  0  0  0  0  0  0  0  0  0
  162.6160  206.0590  151.3420 F   0  0  0  0  0  0  0  0  0  0  0  0
  162.8890  208.2220  150.8470 F   0  0  0  0  0  0  0  0  0  0  0  0
  160.9320  207.1300  150.2740 O   0  0  0  0  0  0  0  0  0  0  0  0
  160.4700  204.9850  149.3550 C   0  0  0  0  0  2  0  0  0  0  0  0
  162.2810  204.8920  146.7240 C   0  0  0  0  0  0  0  0  0  0  0  0
  161.1400  206.8220  147.9240 C   0  0  0  0  0  2  0  0  0  0  0  0
  161.1210  203.7980  148.7230 C   0  0  0  0  0  3  0  0  0  0  0  0
  161.8560  203.7770  147.6050 C   0  0  0  0  0  3  0  0  0  0  0  0
  162.0130  206.1930  146.8880 C   0  0  0  0  0  3  0  0  0  0  0  0
  161.3480  206.2140  149.2910 C   0  0  1  0  0  3  0  0  0  0  0  0
  163.0780  204.5590  145.6810 F   0  0  0  0  0  0  0  0  0  0  0  0
  2  3  2  0  0  0  0
  2  1  1  0  0  0  0
  4 21  1  6  0  0  0
  4  6  1  0  0  0  0
  4  2  1  0  0  0  0
  5  8  1  6  0  0  0
  5  1  1  0  0  0  0
  6  7  1  1  0  0  0
  6  5  1  0  0  0  0
  9  8  1  0  0  0  0
 10  9  1  6  0  0  0
 10 17  1  0  0  0  0
 11 15  1  0  0  0  0
 12 13  1  0  0  0  0
 12 11  1  0  0  0  0
 13 14  1  0  0  0  0
 14 15  2  0  0  0  0
 14 16  1  0  0  0  0
 15 10  1  0  0  0  0
 17 18  1  0  0  0  0
 18 19  1  0  0  0  0
 18 20  1  1  0  0  0
 22 21  1  0  0  0  0
 23 22  1  0  0  0  0
 23 24  2  0  0  0  0
 25 26  1  0  0  0  0
 25 23  1  0  0  0  0
 27 25  1  0  0  0  0
 28 25  1  0  0  0  0
 30 34  2  0  0  0  0
 30 33  1  0  0  0  0
 31 35  1  0  0  0  0
 32 29  1  0  0  0  0
 33 32  2  0  0  0  0
 34 31  1  0  0  0  0
 35 29  1  0  0  0  0
 35 28  1  1  0  0  0
 36 30  1  0  0  0  0
M  END
>  <MODEL>
6

>  <REMARK>
 VINA RESULT:      -6.4      4.113      6.085
  Name = 
  12 active torsions:
  status: ('A' for Active; 'I' for Inactive)
    1  A    between atoms: C_2  and  C_10
    2  A    between atoms: C_2  and  C_16
    3  A    between atoms: O_4  and  C_6
    4  A    between atoms: O_4  and  C_30
    5  A    between atoms: C_5  and  C_6
    6  A    between atoms: C_5  and  C_35
    7  A    between atoms: C_10  and  C_32
    8  A    between atoms: C_16  and  C_25
    9  A    between atoms: C_16  and  O_27
   10  A    between atoms: C_17  and  O_27
   11  A    between atoms: C_20  and  C_26
   12  A    between atoms: C_20  and  C_35
                            x       y       z     vdW  Elec       q    Type
                         _______ _______ _______ _____ _____    ______ ____

>  <TORSDO>
F 12

$$$$
=
 OpenBabel11072414363D

 36 38  0  0  1  0  0  0  0  0999 V2000
  161.1940  207.4570  154.7040 N   0  0  0  0  0  2  0  0  0  0  0  0
  160.5200  208.1720  155.7160 C   0  0  0  0  0  0  0  0  0  0  0  0
  160.2790  207.6520  156.8730 N   0  0  0  0  0  2  0  0  0  0  0  0
  160.4270  209.6220  155.4520 C   0  0  1  0  0  3  0  0  0  0  0  0
  161.5510  208.3700  153.6360 C   0  0  2  0  0  3  0  0  0  0  0  0
  161.1010  209.7690  154.0860 C   0  0  2  0  0  3  0  0  0  0  0  0
  162.2150  210.6000  154.2030 O   0  0  0  0  0  1  0  0  0  0  0  0
  160.8310  207.9630  152.3570 C   0  0  0  0  0  2  0  0  0  0  0  0
  161.8020  207.3790  151.3370 C   0  0  0  0  0  2  0  0  0  0  0  0
  161.2650  206.0860  150.7370 C   0  0  1  0  0  3  0  0  0  0  0  0
  162.0090  207.5000  148.3390 S   0  0  0  0  0  0  0  0  0  0  0  0
  162.2790  206.4050  146.9050 C   0  0  0  0  0  2  0  0  0  0  0  0
  161.3620  205.1980  147.0470 C   0  0  0  0  0  2  0  0  0  0  0  0
  161.1090  205.0400  148.4990 C   0  0  0  0  0  0  0  0  0  0  0  0
  161.3950  206.0920  149.2440 C   0  0  0  0  0  0  0  0  0  0  0  0
  160.6040  203.8590  149.0310 O   0  0  0  0  0  1  0  0  0  0  0  0
  161.9520  204.9940  151.2710 O   0  0  0  0  0  0  0  0  0  0  0  0
  161.0140  204.3240  152.0580 C   0  0  2  0  0  3  0  0  0  0  0  0
  161.1770  204.6920  153.3930 O   0  0  0  0  0  1  0  0  0  0  0  0
  161.2130  202.8280  151.9210 C   0  0  0  0  0  1  0  0  0  0  0  0
  158.9680  210.0380  155.3620 C   0  0  0  0  0  2  0  0  0  0  0  0
  158.8490  211.5510  155.3940 C   0  0  0  0  0  2  0  0  0  0  0  0
  158.0380  212.0310  154.2340 C   0  0  0  0  0  0  0  0  0  0  0  0
  156.8210  212.0820  154.3270 O   0  0  0  0  0  0  0  0  0  0  0  0
  158.7210  212.4110  152.9430 C   0  0  0  0  0  0  0  0  0  0  0  0
  158.6640  211.3240  152.0910 F   0  0  0  0  0  0  0  0  0  0  0  0
  160.0650  212.6990  153.1620 F   0  0  0  0  0  0  0  0  0  0  0  0
  158.0630  213.4950  152.3170 O   0  0  0  0  0  0  0  0  0  0  0  0
  156.9180  213.9050  150.2730 C   0  0  0  0  0  2  0  0  0  0  0  0
  159.1270  213.3020  148.0440 C   0  0  0  0  0  0  0  0  0  0  0  0
  159.3200  214.1880  150.4210 C   0  0  0  0  0  2  0  0  0  0  0  0
  156.7160  213.3640  148.8950 C   0  0  0  0  0  3  0  0  0  0  0  0
  157.6550  213.1420  147.9670 C   0  0  0  0  0  3  0  0  0  0  0  0
  159.8370  213.7030  149.1050 C   0  0  0  0  0  3  0  0  0  0  0  0
  158.1660  213.3510  150.9220 C   0  0  1  0  0  3  0  0  0  0  0  0
  159.8260  212.9410  146.9420 F   0  0  0  0  0  0  0  0  0  0  0  0
  1  2  1  0  0  0  0
  2  3  2  0  0  0  0
  4 21  1  6  0  0  0
  4  2  1  0  0  0  0
  5  8  1  6  0  0  0
  5  6  1  0  0  0  0
  5  1  1  0  0  0  0
  6  7  1  1  0  0  0
  6  4  1  0  0  0  0
  9  8  1  0  0  0  0
 10 17  1  0  0  0  0
 10  9  1  1  0  0  0
 11 15  1  0  0  0  0
 12 13  1  0  0  0  0
 12 11  1  0  0  0  0
 13 14  1  0  0  0  0
 14 16  1  0  0  0  0
 14 15  2  0  0  0  0
 15 10  1  0  0  0  0
 17 18  1  0  0  0  0
 18 20  1  1  0  0  0
 18 19  1  0  0  0  0
 21 22  1  0  0  0  0
 23 24  2  0  0  0  0
 23 22  1  0  0  0  0
 25 27  1  0  0  0  0
 25 23  1  0  0  0  0
 26 25  1  0  0  0  0
 28 25  1  0  0  0  0
 29 35  1  0  0  0  0
 30 34  2  0  0  0  0
 31 35  1  0  0  0  0
 32 29  1  0  0  0  0
 33 30  1  0  0  0  0
 33 32  2  0  0  0  0
 34 31  1  0  0  0  0
 35 28  1  1  0  0  0
 36 30  1  0  0  0  0
M  END
>  <MODEL>
7

>  <REMARK>
 VINA RESULT:      -6.2      4.845      8.949
  Name = 
  12 active torsions:
  status: ('A' for Active; 'I' for Inactive)
    1  A    between atoms: C_2  and  C_10
    2  A    between atoms: C_2  and  C_16
    3  A    between atoms: O_4  and  C_6
    4  A    between atoms: O_4  and  C_30
    5  A    between atoms: C_5  and  C_6
    6  A    between atoms: C_5  and  C_35
    7  A    between atoms: C_10  and  C_32
    8  A    between atoms: C_16  and  C_25
    9  A    between atoms: C_16  and  O_27
   10  A    between atoms: C_17  and  O_27
   11  A    between atoms: C_20  and  C_26
   12  A    between atoms: C_20  and  C_35
                            x       y       z     vdW  Elec       q    Type
                         _______ _______ _______ _____ _____    ______ ____

>  <TORSDO>
F 12

$$$$
=
 OpenBabel11072414363D

 36 38  0  0  1  0  0  0  0  0999 V2000
  161.9690  209.3330  150.8630 N   0  0  0  0  0  2  0  0  0  0  0  0
  161.9850  208.6960  149.6040 C   0  0  0  0  0  0  0  0  0  0  0  0
  162.2560  209.3400  148.5180 N   0  0  0  0  0  2  0  0  0  0  0  0
  161.9960  207.2220  149.6890 C   0  0  1  0  0  3  0  0  0  0  0  0
  161.9000  208.3260  151.9030 C   0  0  2  0  0  3  0  0  0  0  0  0
  161.9410  206.9610  151.1960 C   0  0  2  0  0  3  0  0  0  0  0  0
  163.0840  206.2680  151.5910 O   0  0  0  0  0  1  0  0  0  0  0  0
  160.6000  208.4860  152.6800 C   0  0  0  0  0  2  0  0  0  0  0  0
  160.4010  209.9270  153.1340 C   0  0  0  0  0  2  0  0  0  0  0  0
  160.2770  210.0190  154.6500 C   0  0  1  0  0  3  0  0  0  0  0  0
  157.8610  211.5690  154.4010 S   0  0  0  0  0  0  0  0  0  0  0  0
  157.6060  212.7410  155.7760 C   0  0  0  0  0  2  0  0  0  0  0  0
  158.9710  213.1880  156.2810 C   0  0  0  0  0  2  0  0  0  0  0  0
  159.9120  212.0920  155.9520 C   0  0  0  0  0  0  0  0  0  0  0  0
  159.4850  211.2250  155.0530 C   0  0  0  0  0  0  0  0  0  0  0  0
  161.1610  211.9920  156.5550 O   0  0  0  0  0  1  0  0  0  0  0  0
  159.6700  208.8630  155.1460 O   0  0  0  0  0  0  0  0  0  0  0  0
  160.4050  208.5260  156.2850 C   0  0  2  0  0  3  0  0  0  0  0  0
  161.7620  208.7340  156.0410 O   0  0  0  0  0  1  0  0  0  0  0  0
  160.1730  207.0680  156.6250 C   0  0  0  0  0  1  0  0  0  0  0  0
  160.7570  206.6560  149.0150 C   0  0  0  0  0  2  0  0  0  0  0  0
  160.9250  206.6720  147.5060 C   0  0  0  0  0  2  0  0  0  0  0  0
  162.0940  205.8310  147.1070 C   0  0  0  0  0  0  0  0  0  0  0  0
  163.1040  205.8330  147.7930 O   0  0  0  0  0  0  0  0  0  0  0  0
  162.0360  205.0150  145.8370 C   0  0  0  0  0  0  0  0  0  0  0  0
  163.0690  204.0970  145.8700 F   0  0  0  0  0  0  0  0  0  0  0  0
  162.2310  205.8240  144.7220 F   0  0  0  0  0  0  0  0  0  0  0  0
  160.8180  204.3030  145.7440 O   0  0  0  0  0  0  0  0  0  0  0  0
  160.7090  202.8200  147.6000 C   0  0  0  0  0  2  0  0  0  0  0  0
  161.1310  199.9390  146.2820 C   0  0  0  0  0  0  0  0  0  0  0  0
  160.0760  202.0720  145.3830 C   0  0  0  0  0  2  0  0  0  0  0  0
  161.3600  201.6160  148.2000 C   0  0  0  0  0  3  0  0  0  0  0  0
  161.5050  200.4100  147.6380 C   0  0  0  0  0  3  0  0  0  0  0  0
  160.5650  200.6620  145.3080 C   0  0  0  0  0  3  0  0  0  0  0  0
  161.0350  202.9690  146.1320 C   0  0  1  0  0  3  0  0  0  0  0  0
  161.4590  198.6600  145.9820 F   0  0  0  0  0  0  0  0  0  0  0  0
  1  5  1  0  0  0  0
  2  4  1  0  0  0  0
  2  1  1  0  0  0  0
  3  2  2  0  0  0  0
  4 21  1  6  0  0  0
  4  6  1  0  0  0  0
  5  8  1  6  0  0  0
  6  7  1  1  0  0  0
  6  5  1  0  0  0  0
  8  9  1  0  0  0  0
 10  9  1  6  0  0  0
 10 15  1  0  0  0  0
 10 17  1  0  0  0  0
 11 15  1  0  0  0  0
 11 12  1  0  0  0  0
 12 13  1  0  0  0  0
 14 13  1  0  0  0  0
 14 16  1  0  0  0  0
 15 14  2  0  0  0  0
 17 18  1  0  0  0  0
 18 20  1  6  0  0  0
 19 18  1  0  0  0  0
 22 21  1  0  0  0  0
 23 22  1  0  0  0  0
 23 24  2  0  0  0  0
 25 26  1  0  0  0  0
 25 23  1  0  0  0  0
 27 25  1  0  0  0  0
 28 25  1  0  0  0  0
 29 32  1  0  0  0  0
 30 33  1  0  0  0  0
 31 35  1  0  0  0  0
 33 32  2  0  0  0  0
 34 31  1  0  0  0  0
 34 30  2  0  0  0  0
 35 28  1  6  0  0  0
 35 29  1  0  0  0  0
 36 30  1  0  0  0  0
M  END
>  <MODEL>
8

>  <REMARK>
 VINA RESULT:      -6.1      2.184      3.043
  Name = 
  12 active torsions:
  status: ('A' for Active; 'I' for Inactive)
    1  A    between atoms: C_2  and  C_10
    2  A    between atoms: C_2  and  C_16
    3  A    between atoms: O_4  and  C_6
    4  A    between atoms: O_4  and  C_30
    5  A    between atoms: C_5  and  C_6
    6  A    between atoms: C_5  and  C_35
    7  A    between atoms: C_10  and  C_32
    8  A    between atoms: C_16  and  C_25
    9  A    between atoms: C_16  and  O_27
   10  A    between atoms: C_17  and  O_27
   11  A    between atoms: C_20  and  C_26
   12  A    between atoms: C_20  and  C_35
                            x       y       z     vdW  Elec       q    Type
                         _______ _______ _______ _____ _____    ______ ____

>  <TORSDO>
F 12

$$$$
=
 OpenBabel11072414363D

 36 38  0  0  1  0  0  0  0  0999 V2000
  160.8020  211.8140  151.1170 N   0  0  0  0  0  2  0  0  0  0  0  0
  161.6670  211.0700  150.2880 C   0  0  0  0  0  0  0  0  0  0  0  0
  162.0850  211.5250  149.1550 N   0  0  0  0  0  2  0  0  0  0  0  0
  162.2900  209.9170  150.9700 C   0  0  1  0  0  3  0  0  0  0  0  0
  160.7220  211.1750  152.4150 C   0  0  2  0  0  3  0  0  0  0  0  0
  161.6780  209.9720  152.3720 C   0  0  2  0  0  3  0  0  0  0  0  0
  162.6890  210.1490  153.3150 O   0  0  0  0  0  1  0  0  0  0  0  0
  159.2930  210.7120  152.6670 C   0  0  0  0  0  2  0  0  0  0  0  0
  158.4940  211.7680  153.4220 C   0  0  0  0  0  2  0  0  0  0  0  0
  158.8090  211.7420  154.9120 C   0  0  1  0  0  3  0  0  0  0  0  0
  157.9650  213.8680  156.6640 S   0  0  0  0  0  0  0  0  0  0  0  0
  156.1540  214.0860  156.7200 C   0  0  0  0  0  2  0  0  0  0  0  0
  155.5030  212.7280  156.4960 C   0  0  0  0  0  2  0  0  0  0  0  0
  156.4740  211.9290  155.7130 C   0  0  0  0  0  0  0  0  0  0  0  0
  157.7120  212.3860  155.7050 C   0  0  0  0  0  0  0  0  0  0  0  0
  156.0960  210.7750  155.0360 O   0  0  0  0  0  1  0  0  0  0  0  0
  158.9900  210.4230  155.3350 O   0  0  0  0  0  0  0  0  0  0  0  0
  159.8880  210.5030  156.4010 C   0  0  2  0  0  3  0  0  0  0  0  0
  161.0330  211.1880  155.9950 O   0  0  0  0  0  1  0  0  0  0  0  0
  160.2690  209.1070  156.8480 C   0  0  0  0  0  1  0  0  0  0  0  0
  161.8880  208.6270  150.2750 C   0  0  0  0  0  2  0  0  0  0  0  0
  160.9810  207.8050  151.1740 C   0  0  0  0  0  2  0  0  0  0  0  0
  161.2490  206.3470  150.9850 C   0  0  0  0  0  0  0  0  0  0  0  0
  161.8120  205.7160  151.8660 O   0  0  0  0  0  0  0  0  0  0  0  0
  160.8600  205.6710  149.6920 C   0  0  0  0  0  0  0  0  0  0  0  0
  159.8490  206.4120  149.1080 F   0  0  0  0  0  0  0  0  0  0  0  0
  160.3580  204.3960  149.9340 F   0  0  0  0  0  0  0  0  0  0  0  0
  161.9490  205.6270  148.7920 O   0  0  0  0  0  0  0  0  0  0  0  0
  162.1380  205.8630  146.4330 C   0  0  0  0  0  2  0  0  0  0  0  0
  160.7190  203.2330  145.3020 C   0  0  0  0  0  0  0  0  0  0  0  0
  162.0150  203.6660  147.4480 C   0  0  0  0  0  2  0  0  0  0  0  0
  161.3770  205.7000  145.1570 C   0  0  0  0  0  3  0  0  0  0  0  0
  160.8110  204.5800  144.6900 C   0  0  0  0  0  3  0  0  0  0  0  0
  161.1930  202.8580  146.4970 C   0  0  0  0  0  3  0  0  0  0  0  0
  161.5140  205.0870  147.5690 C   0  0  1  0  0  3  0  0  0  0  0  0
  160.0270  202.3040  144.6010 F   0  0  0  0  0  0  0  0  0  0  0  0
  1  5  1  0  0  0  0
  2  4  1  0  0  0  0
  2  1  1  0  0  0  0
  3  2  2  0  0  0  0
  4 21  1  6  0  0  0
  4  6  1  0  0  0  0
  5  8  1  6  0  0  0
  6  5  1  0  0  0  0
  6  7  1  1  0  0  0
  8  9  1  0  0  0  0
 10  9  1  6  0  0  0
 10 17  1  0  0  0  0
 10 15  1  0  0  0  0
 11 12  1  0  0  0  0
 13 12  1  0  0  0  0
 14 13  1  0  0  0  0
 15 14  2  0  0  0  0
 15 11  1  0  0  0  0
 16 14  1  0  0  0  0
 17 18  1  0  0  0  0
 18 20  1  6  0  0  0
 19 18  1  0  0  0  0
 21 22  1  0  0  0  0
 23 22  1  0  0  0  0
 23 24  2  0  0  0  0
 25 27  1  0  0  0  0
 25 23  1  0  0  0  0
 26 25  1  0  0  0  0
 28 25  1  0  0  0  0
 29 35  1  0  0  0  0
 30 34  2  0  0  0  0
 31 35  1  0  0  0  0
 32 29  1  0  0  0  0
 33 32  2  0  0  0  0
 33 30  1  0  0  0  0
 34 31  1  0  0  0  0
 35 28  1  1  0  0  0
 36 30  1  0  0  0  0
M  END
>  <MODEL>
9

>  <REMARK>
 VINA RESULT:      -6.1      2.503      3.549
  Name = 
  12 active torsions:
  status: ('A' for Active; 'I' for Inactive)
    1  A    between atoms: C_2  and  C_10
    2  A    between atoms: C_2  and  C_16
    3  A    between atoms: O_4  and  C_6
    4  A    between atoms: O_4  and  C_30
    5  A    between atoms: C_5  and  C_6
    6  A    between atoms: C_5  and  C_35
    7  A    between atoms: C_10  and  C_32
    8  A    between atoms: C_16  and  C_25
    9  A    between atoms: C_16  and  O_27
   10  A    between atoms: C_17  and  O_27
   11  A    between atoms: C_20  and  C_26
   12  A    between atoms: C_20  and  C_35
                            x       y       z     vdW  Elec       q    Type
                         _______ _______ _______ _____ _____    ______ ____

>  <TORSDO>
F 12

$$$$
