=
 OpenBabel11072410023D

 55 60  0  0  1  0  0  0  0  0999 V2000
  160.3960  211.1000  152.8430 C   0  0  1  0  0  3  0  0  0  0  0  0
  159.3650  212.1900  153.2110 C   0  0  2  0  0  3  0  0  0  0  0  0
  156.3540  213.7270  153.0460 C   0  0  0  0  0  0  0  0  0  0  0  0
  158.1170  211.3850  153.5900 C   0  0  0  0  0  2  0  0  0  0  0  0
  156.1630  213.0470  154.2050 C   0  0  0  0  0  0  0  0  0  0  0  0
  159.2990  213.3800  152.2800 C   0  0  0  0  0  0  0  0  0  0  0  0
  158.0500  213.6970  151.3780 C   0  0  1  0  0  3  0  0  0  0  0  0
  160.2610  214.1430  152.2800 O   0  0  0  0  0  0  0  0  0  0  0  0
  156.8530  211.8200  154.4010 C   0  0  0  0  0  2  0  0  0  0  0  0
  156.7480  214.2390  151.9650 C   0  0  0  0  0  3  0  0  0  0  0  0
  155.2240  213.1120  156.4810 C   0  0  0  0  0  1  0  0  0  0  0  0
  155.1510  213.3540  155.0790 O   0  0  0  0  0  0  0  0  0  0  0  0
  158.4960  214.4510  150.0970 C   0  0  0  0  0  2  0  0  0  0  0  0
  159.0550  213.5760  148.9420 C   0  0  2  0  0  3  0  0  0  0  0  0
  160.5100  213.6890  148.5200 C   0  0  0  0  0  0  0  0  0  0  0  0
  161.3220  214.2730  149.2480 O   0  0  0  0  0  0  0  0  0  0  0  0
  161.0820  214.4510  146.1100 C   0  0  0  0  0  1  0  0  0  0  0  0
  160.8740  213.4310  147.1200 N   0  0  0  0  0  2  0  0  0  0  0  0
  158.2340  213.6560  147.7560 O   0  0  0  0  0  0  0  0  0  0  0  0
  157.0900  212.1740  146.1590 O   0  0  0  0  0  0  0  0  0  0  0  0
  157.2420  212.6270  147.4630 C   0  0  0  0  0  0  0  0  0  0  0  0
  156.6370  212.0640  148.3990 O   0  0  0  0  0  1  0  0  0  0  0  0
  160.4780  210.7670  151.5000 O   0  0  0  0  0  0  0  0  0  0  0  0
  160.4570  208.6560  152.6180 C   0  0  0  0  0  2  0  0  0  0  0  0
  162.3860  208.9480  151.0410 C   0  0  0  0  0  2  0  0  0  0  0  0
  162.3910  207.5550  151.6370 C   0  0  0  0  0  2  0  0  0  0  0  0
  160.9480  209.4070  151.4090 C   0  0  2  0  0  3  0  0  0  0  0  0
  161.4080  207.5350  152.8350 C   0  0  2  0  0  3  0  0  0  0  0  0
  160.7320  206.1730  153.0630 C   0  0  0  0  0  2  0  0  0  0  0  0
  161.5140  205.1470  152.5310 O   0  0  0  0  0  0  0  0  0  0  0  0
  161.0820  205.1450  151.1970 C   0  0  0  0  0  2  0  0  0  0  0  0
  160.4640  203.8020  150.8950 C   0  0  0  0  0  2  0  0  0  0  0  0
  160.8720  203.2070  149.5910 N   0  0  0  0  0  0  0  0  0  0  0  0
  161.5630  206.1700  145.4250 O   0  0  0  0  0  1  0  0  0  0  0  0
  160.9990  204.3730  148.5470 C   0  0  2  0  0  3  0  0  0  0  0  0
  161.7060  204.3070  147.1320 C   0  0  2  0  0  0  0  0  0  0  0  0
  163.1670  204.4900  147.3190 O   0  0  0  0  0  1  0  0  0  0  0  0
  160.9810  205.5490  146.5290 C   0  0  1  0  0  3  0  0  0  0  0  0
  161.4220  207.7510  147.6830 O   0  0  0  0  0  1  0  0  0  0  0  0
  160.6230  206.5710  147.6450 C   0  0  2  0  0  3  0  0  0  0  0  0
  160.5520  205.7550  148.9570 C   0  0  0  0  0  2  0  0  0  0  0  0
  161.4220  203.0770  146.3280 C   0  0  0  0  0  2  0  0  0  0  0  0
  160.0100  201.4900  144.9980 C   0  0  0  0  0  2  0  0  0  0  0  0
  160.0330  202.8320  144.4240 O   0  0  0  0  0  0  0  0  0  0  0  0
  159.9490  202.7140  145.7880 C   0  0  2  0  0  3  0  0  0  0  0  0
  159.9850  202.1410  149.1490 C   0  0  0  0  0  2  0  0  0  0  0  0
  162.2500  201.1740  149.0520 C   0  0  0  0  0  2  0  0  0  0  0  0
  160.8230  200.8740  149.4160 C   0  0  0  0  0  3  0  0  0  0  0  0
  161.4170  200.2430  148.1810 C   0  0  0  0  0  2  0  0  0  0  0  0
  161.6300  210.7660  153.7030 C   0  0  0  0  0  2  0  0  0  0  0  0
  161.3480  211.1370  155.2010 C   0  0  0  0  0  2  0  0  0  0  0  0
  162.3140  209.9720  156.2080 S   0  0  0  0  0  0  0  0  0  0  0  0
  160.9120  209.1400  157.0410 C   0  0  0  0  0  3  0  0  0  0  0  0
  159.7720  208.4860  156.1420 C   0  0  0  0  0  2  0  0  0  0  0  0
  159.7800  209.9910  156.4450 C   0  0  0  0  0  2  0  0  0  0  0  0
  1 50  1  6  0  0  0
  2  1  1  6  0  0  0
  2  4  1  0  0  0  0
  3  5  2  0  0  0  0
  4  9  1  0  0  0  0
  5  9  1  0  0  0  0
  5 12  1  0  0  0  0
  6  2  1  0  0  0  0
  7 13  1  6  0  0  0
  7 10  1  0  0  0  0
  7  6  1  0  0  0  0
  8  6  2  0  0  0  0
 10  3  2  0  0  0  0
 12 11  1  0  0  0  0
 14 13  1  1  0  0  0
 15 14  1  0  0  0  0
 15 16  2  0  0  0  0
 17 18  1  0  0  0  0
 18 15  1  0  0  0  0
 19 14  1  0  0  0  0
 20 21  2  0  0  0  0
 21 19  1  0  0  0  0
 21 22  1  0  0  0  0
 23  1  1  0  0  0  0
 24 28  1  0  0  0  0
 25 27  1  0  0  0  0
 25 26  1  0  0  0  0
 26 28  1  0  0  0  0
 27 23  1  1  0  0  0
 27 24  1  0  0  0  0
 28 29  1  6  0  0  0
 30 29  1  0  0  0  0
 31 30  1  0  0  0  0
 32 31  1  0  0  0  0
 33 32  1  0  0  0  0
 35 41  1  0  0  0  0
 35 33  1  1  0  0  0
 36 37  1  1  0  0  0
 36 35  1  0  0  0  0
 38 34  1  6  0  0  0
 38 36  1  0  0  0  0
 38 40  1  0  0  0  0
 40 39  1  1  0  0  0
 40 41  1  0  0  0  0
 42 36  1  0  0  0  0
 43 45  1  0  0  0  0
 44 43  1  0  0  0  0
 44 45  1  0  0  0  0
 45 42  1  1  0  0  0
 46 48  1  0  0  0  0
 46 33  1  0  0  0  0
 47 48  1  0  0  0  0
 49 47  1  0  0  0  0
 49 48  1  0  0  0  0
 50 51  1  0  0  0  0
 51 52  1  0  0  0  0
 52 53  1  0  0  0  0
 54 55  1  0  0  0  0
 54 53  1  0  0  0  0
 55 53  1  0  0  0  0
M  END
>  <MODEL>
1

>  <REMARK>
 VINA RESULT:      -5.2      0.000      0.000
  Name = 
  23 active torsions:
  status: ('A' for Active; 'I' for Inactive)
    1  A    between atoms: C_1  and  N_44
    2  A    between atoms: C_1  and  C_46
    3  A    between atoms: C_2  and  C_11
    4  A    between atoms: C_3  and  N_44
    5  A    between atoms: C_3  and  C_50
    6  A    between atoms: C_4  and  C_42
    7  A    between atoms: C_10  and  O_40
    8  A    between atoms: C_11  and  O_20
    9  A    between atoms: C_11  and  C_47
   10  A    between atoms: C_12  and  C_25
   11  A    between atoms: C_12  and  C_51
   12  A    between atoms: C_14  and  C_31
   13  A    between atoms: C_14  and  C_42
   14  A    between atoms: C_17  and  N_44
   15  A    between atoms: O_19  and  C_33
   16  A    between atoms: O_19  and  C_50
   17  A    between atoms: O_20  and  C_22
   18  A    between atoms: C_21  and  C_47
   19  A    between atoms: S_24  and  C_31
   20  A    between atoms: S_24  and  C_36
   21  A    between atoms: C_33  and  C_48
   22  A    between atoms: C_35  and  O_45
   23  A    between atoms: C_42  and  O_45
                            x       y       z     vdW  Elec       q    Type
                         _______ _______ _______ _____ _____    ______ ____

>  <TORSDO>
F 23

$$$$
=
 OpenBabel11072410023D

 55 60  0  0  1  0  0  0  0  0999 V2000
  161.6610  211.0950  150.1810 C   0  0  1  0  0  3  0  0  0  0  0  0
  161.9750  209.8080  150.9760 C   0  0  2  0  0  3  0  0  0  0  0  0
  161.1830  207.1110  152.8590 C   0  0  0  0  0  0  0  0  0  0  0  0
  160.9900  208.7850  150.4010 C   0  0  0  0  0  2  0  0  0  0  0  0
  161.2890  206.4860  151.6580 C   0  0  0  0  0  0  0  0  0  0  0  0
  162.1720  209.9820  152.4650 C   0  0  0  0  0  0  0  0  0  0  0  0
  161.1830  209.3900  153.5370 C   0  0  1  0  0  3  0  0  0  0  0  0
  163.1820  210.5790  152.8290 O   0  0  0  0  0  0  0  0  0  0  0  0
  161.0090  207.2240  150.4760 C   0  0  0  0  0  2  0  0  0  0  0  0
  161.1270  207.8950  153.8420 C   0  0  0  0  0  3  0  0  0  0  0  0
  160.7310  204.3600  150.5480 C   0  0  0  0  0  1  0  0  0  0  0  0
  161.4020  205.1230  151.5470 O   0  0  0  0  0  0  0  0  0  0  0  0
  161.1980  210.2690  154.8160 C   0  0  0  0  0  2  0  0  0  0  0  0
  160.0480  211.3030  154.9540 C   0  0  2  0  0  3  0  0  0  0  0  0
  160.0670  212.3390  156.0660 C   0  0  0  0  0  0  0  0  0  0  0  0
  160.0750  211.9770  157.2490 O   0  0  0  0  0  0  0  0  0  0  0  0
  158.4210  214.3390  155.9740 C   0  0  0  0  0  1  0  0  0  0  0  0
  159.7210  213.7330  155.7550 N   0  0  0  0  0  2  0  0  0  0  0  0
  158.7490  210.6720  154.9500 O   0  0  0  0  0  0  0  0  0  0  0  0
  156.7680  211.9110  154.1740 O   0  0  0  0  0  0  0  0  0  0  0  0
  157.5420  211.4440  155.2290 C   0  0  0  0  0  0  0  0  0  0  0  0
  157.1400  211.5610  156.4050 O   0  0  0  0  0  1  0  0  0  0  0  0
  162.2640  211.2060  148.9380 O   0  0  0  0  0  0  0  0  0  0  0  0
  161.1460  212.0860  147.0190 C   0  0  0  0  0  2  0  0  0  0  0  0
  162.6020  213.7550  148.1980 C   0  0  0  0  0  2  0  0  0  0  0  0
  161.8580  214.4110  147.0540 C   0  0  0  0  0  2  0  0  0  0  0  0
  161.8020  212.4290  148.3290 C   0  0  2  0  0  3  0  0  0  0  0  0
  161.2530  213.2970  146.1630 C   0  0  2  0  0  3  0  0  0  0  0  0
  159.9370  213.6960  145.4740 C   0  0  0  0  0  2  0  0  0  0  0  0
  159.6050  212.7670  144.4870 O   0  0  0  0  0  0  0  0  0  0  0  0
  158.6200  213.4710  143.7790 C   0  0  0  0  0  2  0  0  0  0  0  0
  159.1850  213.8640  142.4360 C   0  0  0  0  0  2  0  0  0  0  0  0
  158.4330  213.3330  141.2640 N   0  0  0  0  0  0  0  0  0  0  0  0
  162.4700  212.1020  138.2970 O   0  0  0  0  0  1  0  0  0  0  0  0
  159.4670  212.6700  140.2860 C   0  0  2  0  0  3  0  0  0  0  0  0
  160.7100  213.3710  139.6020 C   0  0  2  0  0  0  0  0  0  0  0  0
  160.2430  214.1050  138.4000 O   0  0  0  0  0  1  0  0  0  0  0  0
  161.4850  212.0560  139.2820 C   0  0  1  0  0  3  0  0  0  0  0  0
  160.3350  210.4570  137.7010 O   0  0  0  0  0  1  0  0  0  0  0  0
  160.4940  210.8780  139.0540 C   0  0  2  0  0  3  0  0  0  0  0  0
  159.1980  211.2660  139.8010 C   0  0  0  0  0  2  0  0  0  0  0  0
  161.5160  214.2640  140.4930 C   0  0  0  0  0  2  0  0  0  0  0  0
  162.4560  213.0470  142.4710 C   0  0  0  0  0  2  0  0  0  0  0  0
  162.8470  214.4530  142.4440 O   0  0  0  0  0  0  0  0  0  0  0  0
  162.8390  213.7600  141.2590 C   0  0  2  0  0  3  0  0  0  0  0  0
  157.6020  214.3390  140.6170 C   0  0  0  0  0  2  0  0  0  0  0  0
  156.1600  213.9880  138.6490 C   0  0  0  0  0  2  0  0  0  0  0  0
  156.4430  213.4980  140.0410 C   0  0  0  0  0  3  0  0  0  0  0  0
  155.1770  214.2750  139.7760 C   0  0  0  0  0  2  0  0  0  0  0  0
  160.3970  211.9480  150.4020 C   0  0  0  0  0  2  0  0  0  0  0  0
  160.4520  212.6190  151.8190 C   0  0  0  0  0  2  0  0  0  0  0  0
  159.2560  213.9870  151.7850 S   0  0  0  0  0  0  0  0  0  0  0  0
  157.9780  213.1780  150.7550 C   0  0  0  0  0  3  0  0  0  0  0  0
  157.9560  213.4840  149.1910 C   0  0  0  0  0  2  0  0  0  0  0  0
  157.3210  214.4520  150.1990 C   0  0  0  0  0  2  0  0  0  0  0  0
  1 50  1  6  0  0  0
  2  1  1  1  0  0  0
  2  6  1  0  0  0  0
  3 10  2  0  0  0  0
  4  9  1  0  0  0  0
  4  2  1  0  0  0  0
  5  3  2  0  0  0  0
  6  8  2  0  0  0  0
  6  7  1  0  0  0  0
  7 10  1  0  0  0  0
  7 13  1  1  0  0  0
  9  5  1  0  0  0  0
 11 12  1  0  0  0  0
 12  5  1  0  0  0  0
 14 13  1  1  0  0  0
 14 15  1  0  0  0  0
 15 16  2  0  0  0  0
 18 17  1  0  0  0  0
 18 15  1  0  0  0  0
 19 14  1  0  0  0  0
 19 21  1  0  0  0  0
 20 21  2  0  0  0  0
 21 22  1  0  0  0  0
 23  1  1  0  0  0  0
 24 27  1  0  0  0  0
 25 27  1  0  0  0  0
 26 25  1  0  0  0  0
 27 23  1  6  0  0  0
 28 29  1  1  0  0  0
 28 24  1  0  0  0  0
 28 26  1  0  0  0  0
 30 29  1  0  0  0  0
 31 30  1  0  0  0  0
 32 31  1  0  0  0  0
 33 32  1  0  0  0  0
 35 33  1  6  0  0  0
 36 37  1  6  0  0  0
 36 35  1  0  0  0  0
 36 42  1  0  0  0  0
 38 34  1  6  0  0  0
 38 36  1  0  0  0  0
 40 39  1  6  0  0  0
 40 38  1  0  0  0  0
 40 41  1  0  0  0  0
 41 35  1  0  0  0  0
 44 43  1  0  0  0  0
 45 42  1  6  0  0  0
 45 44  1  0  0  0  0
 45 43  1  0  0  0  0
 46 33  1  0  0  0  0
 47 49  1  0  0  0  0
 47 48  1  0  0  0  0
 48 46  1  0  0  0  0
 49 48  1  0  0  0  0
 50 51  1  0  0  0  0
 52 51  1  0  0  0  0
 53 52  1  0  0  0  0
 54 55  1  0  0  0  0
 54 53  1  0  0  0  0
 55 53  1  0  0  0  0
M  END
>  <MODEL>
2

>  <REMARK>
 VINA RESULT:      -4.4      4.687      9.744
  Name = 
  23 active torsions:
  status: ('A' for Active; 'I' for Inactive)
    1  A    between atoms: C_1  and  N_44
    2  A    between atoms: C_1  and  C_46
    3  A    between atoms: C_2  and  C_11
    4  A    between atoms: C_3  and  N_44
    5  A    between atoms: C_3  and  C_50
    6  A    between atoms: C_4  and  C_42
    7  A    between atoms: C_10  and  O_40
    8  A    between atoms: C_11  and  O_20
    9  A    between atoms: C_11  and  C_47
   10  A    between atoms: C_12  and  C_25
   11  A    between atoms: C_12  and  C_51
   12  A    between atoms: C_14  and  C_31
   13  A    between atoms: C_14  and  C_42
   14  A    between atoms: C_17  and  N_44
   15  A    between atoms: O_19  and  C_33
   16  A    between atoms: O_19  and  C_50
   17  A    between atoms: O_20  and  C_22
   18  A    between atoms: C_21  and  C_47
   19  A    between atoms: S_24  and  C_31
   20  A    between atoms: S_24  and  C_36
   21  A    between atoms: C_33  and  C_48
   22  A    between atoms: C_35  and  O_45
   23  A    between atoms: C_42  and  O_45
                            x       y       z     vdW  Elec       q    Type
                         _______ _______ _______ _____ _____    ______ ____

>  <TORSDO>
F 23

$$$$
=
 OpenBabel11072410023D

 55 60  0  0  1  0  0  0  0  0999 V2000
  161.5060  210.4350  150.2000 C   0  0  1  0  0  3  0  0  0  0  0  0
  161.8630  209.2810  151.1640 C   0  0  2  0  0  3  0  0  0  0  0  0
  161.1620  206.8660  153.4290 C   0  0  0  0  0  0  0  0  0  0  0  0
  160.8890  208.1680  150.7610 C   0  0  0  0  0  2  0  0  0  0  0  0
  161.2590  206.0790  152.3280 C   0  0  0  0  0  0  0  0  0  0  0  0
  162.0820  209.6700  152.6090 C   0  0  0  0  0  0  0  0  0  0  0  0
  161.1270  209.2190  153.7750 C   0  0  1  0  0  3  0  0  0  0  0  0
  163.0860  210.3310  152.8620 O   0  0  0  0  0  0  0  0  0  0  0  0
  160.9430  206.6340  151.0580 C   0  0  0  0  0  2  0  0  0  0  0  0
  161.1070  207.7820  154.2910 C   0  0  0  0  0  3  0  0  0  0  0  0
  161.8970  203.9130  151.3420 C   0  0  0  0  0  1  0  0  0  0  0  0
  161.3990  204.7160  152.4090 O   0  0  0  0  0  0  0  0  0  0  0  0
  161.1460  210.2720  154.9140 C   0  0  0  0  0  2  0  0  0  0  0  0
  159.9410  210.2480  155.8940 C   0  0  2  0  0  3  0  0  0  0  0  0
  158.5510  210.6410  155.4230 C   0  0  0  0  0  0  0  0  0  0  0  0
  158.2210  210.4530  154.2450 O   0  0  0  0  0  0  0  0  0  0  0  0
  157.6140  212.9800  156.0290 C   0  0  0  0  0  1  0  0  0  0  0  0
  157.7440  211.5520  156.2460 N   0  0  0  0  0  2  0  0  0  0  0  0
  160.2220  210.9660  157.1160 O   0  0  0  0  0  0  0  0  0  0  0  0
  160.7290  213.3720  157.2240 O   0  0  0  0  0  1  0  0  0  0  0  0
  161.1840  212.0630  157.1330 C   0  0  0  0  0  0  0  0  0  0  0  0
  162.4060  211.8150  157.2050 O   0  0  0  0  0  0  0  0  0  0  0  0
  162.0140  210.3330  148.9140 O   0  0  0  0  0  0  0  0  0  0  0  0
  161.2000  211.5120  147.0030 C   0  0  0  0  0  2  0  0  0  0  0  0
  163.1070  212.6570  148.1620 C   0  0  0  0  0  2  0  0  0  0  0  0
  162.5880  213.5080  147.0220 C   0  0  0  0  0  2  0  0  0  0  0  0
  161.9420  211.6390  148.3060 C   0  0  2  0  0  3  0  0  0  0  0  0
  161.6630  212.6310  146.1420 C   0  0  2  0  0  3  0  0  0  0  0  0
  160.5250  213.4130  145.4630 C   0  0  0  0  0  2  0  0  0  0  0  0
  159.5170  212.5420  145.0490 O   0  0  0  0  0  0  0  0  0  0  0  0
  159.3880  212.9040  143.7000 C   0  0  0  0  0  2  0  0  0  0  0  0
  159.9770  211.8050  142.8510 C   0  0  0  0  0  2  0  0  0  0  0  0
  160.7070  212.2760  141.6400 N   0  0  0  0  0  0  0  0  0  0  0  0
  159.4330  209.2030  137.6980 O   0  0  0  0  0  1  0  0  0  0  0  0
  160.0640  211.5830  140.3870 C   0  0  2  0  0  3  0  0  0  0  0  0
  160.7100  210.4440  139.4960 C   0  0  2  0  0  0  0  0  0  0  0  0
  161.6290  211.0700  138.5140 O   0  0  0  0  0  1  0  0  0  0  0  0
  159.3700  209.9390  138.8800 C   0  0  1  0  0  3  0  0  0  0  0  0
  158.1040  211.6110  137.4730 O   0  0  0  0  0  1  0  0  0  0  0  0
  158.3380  211.0990  138.7830 C   0  0  2  0  0  3  0  0  0  0  0  0
  158.7650  212.1330  139.8500 C   0  0  0  0  0  2  0  0  0  0  0  0
  161.3990  209.3500  140.2500 C   0  0  0  0  0  2  0  0  0  0  0  0
  161.8990  206.9150  140.5630 C   0  0  0  0  0  2  0  0  0  0  0  0
  163.0660  207.6720  140.1200 O   0  0  0  0  0  0  0  0  0  0  0  0
  161.8500  207.9690  139.5570 C   0  0  2  0  0  3  0  0  0  0  0  0
  162.1460  212.0710  141.7280 C   0  0  0  0  0  2  0  0  0  0  0  0
  161.6150  214.3880  141.0740 C   0  0  0  0  0  2  0  0  0  0  0  0
  162.6960  213.5100  141.6400 C   0  0  0  0  0  3  0  0  0  0  0  0
  162.8380  214.0410  140.2350 C   0  0  0  0  0  2  0  0  0  0  0  0
  160.2760  211.3450  150.3760 C   0  0  0  0  0  2  0  0  0  0  0  0
  160.5920  212.4670  151.4260 C   0  0  0  0  0  2  0  0  0  0  0  0
  158.9870  213.0890  152.0100 S   0  0  0  0  0  0  0  0  0  0  0  0
  158.7910  214.4500  150.8010 C   0  0  0  0  0  3  0  0  0  0  0  0
  159.0750  214.1480  149.2630 C   0  0  0  0  0  2  0  0  0  0  0  0
  160.2230  214.4380  150.2400 C   0  0  0  0  0  2  0  0  0  0  0  0
  1 50  1  6  0  0  0
  2  1  1  6  0  0  0
  2  6  1  0  0  0  0
  3 10  2  0  0  0  0
  4  9  1  0  0  0  0
  4  2  1  0  0  0  0
  5 12  1  0  0  0  0
  5  3  2  0  0  0  0
  6  8  2  0  0  0  0
  6  7  1  0  0  0  0
  7 10  1  0  0  0  0
  7 13  1  1  0  0  0
  9  5  1  0  0  0  0
 11 12  1  0  0  0  0
 14 13  1  6  0  0  0
 14 19  1  0  0  0  0
 15 14  1  0  0  0  0
 15 18  1  0  0  0  0
 16 15  2  0  0  0  0
 17 18  1  0  0  0  0
 19 21  1  0  0  0  0
 21 22  2  0  0  0  0
 21 20  1  0  0  0  0
 23  1  1  0  0  0  0
 24 27  1  0  0  0  0
 25 27  1  0  0  0  0
 26 25  1  0  0  0  0
 27 23  1  6  0  0  0
 28 29  1  1  0  0  0
 28 24  1  0  0  0  0
 28 26  1  0  0  0  0
 30 29  1  0  0  0  0
 31 30  1  0  0  0  0
 32 31  1  0  0  0  0
 33 46  1  0  0  0  0
 33 32  1  0  0  0  0
 35 33  1  6  0  0  0
 36 37  1  6  0  0  0
 36 42  1  0  0  0  0
 36 35  1  0  0  0  0
 38 34  1  6  0  0  0
 38 36  1  0  0  0  0
 40 39  1  6  0  0  0
 40 38  1  0  0  0  0
 40 41  1  0  0  0  0
 41 35  1  0  0  0  0
 44 43  1  0  0  0  0
 45 44  1  0  0  0  0
 45 42  1  1  0  0  0
 45 43  1  0  0  0  0
 47 48  1  0  0  0  0
 48 46  1  0  0  0  0
 49 47  1  0  0  0  0
 49 48  1  0  0  0  0
 50 51  1  0  0  0  0
 51 52  1  0  0  0  0
 53 52  1  0  0  0  0
 54 55  1  0  0  0  0
 54 53  1  0  0  0  0
 55 53  1  0  0  0  0
M  END
>  <MODEL>
3

>  <REMARK>
 VINA RESULT:      -4.4      4.701      9.200
  Name = 
  23 active torsions:
  status: ('A' for Active; 'I' for Inactive)
    1  A    between atoms: C_1  and  N_44
    2  A    between atoms: C_1  and  C_46
    3  A    between atoms: C_2  and  C_11
    4  A    between atoms: C_3  and  N_44
    5  A    between atoms: C_3  and  C_50
    6  A    between atoms: C_4  and  C_42
    7  A    between atoms: C_10  and  O_40
    8  A    between atoms: C_11  and  O_20
    9  A    between atoms: C_11  and  C_47
   10  A    between atoms: C_12  and  C_25
   11  A    between atoms: C_12  and  C_51
   12  A    between atoms: C_14  and  C_31
   13  A    between atoms: C_14  and  C_42
   14  A    between atoms: C_17  and  N_44
   15  A    between atoms: O_19  and  C_33
   16  A    between atoms: O_19  and  C_50
   17  A    between atoms: O_20  and  C_22
   18  A    between atoms: C_21  and  C_47
   19  A    between atoms: S_24  and  C_31
   20  A    between atoms: S_24  and  C_36
   21  A    between atoms: C_33  and  C_48
   22  A    between atoms: C_35  and  O_45
   23  A    between atoms: C_42  and  O_45
                            x       y       z     vdW  Elec       q    Type
                         _______ _______ _______ _____ _____    ______ ____

>  <TORSDO>
F 23

$$$$
=
 OpenBabel11072410023D

 55 60  0  0  1  0  0  0  0  0999 V2000
  161.4890  211.0550  150.4230 C   0  0  1  0  0  3  0  0  0  0  0  0
  161.8230  209.7240  151.1330 C   0  0  2  0  0  3  0  0  0  0  0  0
  161.0810  206.9340  152.8970 C   0  0  0  0  0  0  0  0  0  0  0  0
  160.8030  208.7430  150.5450 C   0  0  0  0  0  2  0  0  0  0  0  0
  161.1290  206.3750  151.6610 C   0  0  0  0  0  0  0  0  0  0  0  0
  162.0840  209.8140  152.6200 C   0  0  0  0  0  0  0  0  0  0  0  0
  161.1360  209.1720  153.6990 C   0  0  1  0  0  3  0  0  0  0  0  0
  163.1150  210.3810  152.9720 O   0  0  0  0  0  0  0  0  0  0  0  0
  160.8080  207.1800  150.5340 C   0  0  0  0  0  2  0  0  0  0  0  0
  161.0750  207.6630  153.9230 C   0  0  0  0  0  3  0  0  0  0  0  0
  161.1270  204.0700  152.5280 C   0  0  0  0  0  1  0  0  0  0  0  0
  161.2230  205.0200  151.4700 O   0  0  0  0  0  0  0  0  0  0  0  0
  161.2140  209.9790  155.0220 C   0  0  0  0  0  2  0  0  0  0  0  0
  160.0220  210.9270  155.3220 C   0  0  2  0  0  3  0  0  0  0  0  0
  158.7640  210.8840  154.4710 C   0  0  0  0  0  0  0  0  0  0  0  0
  158.7770  211.3480  153.3240 O   0  0  0  0  0  0  0  0  0  0  0  0
  156.5070  211.6490  155.4900 C   0  0  0  0  0  1  0  0  0  0  0  0
  157.4680  210.6300  155.1150 N   0  0  0  0  0  2  0  0  0  0  0  0
  160.4410  212.3050  155.4360 O   0  0  0  0  0  0  0  0  0  0  0  0
  158.9570  213.2990  157.1290 O   0  0  0  0  0  1  0  0  0  0  0  0
  159.5010  213.3400  155.8520 C   0  0  0  0  0  0  0  0  0  0  0  0
  159.2980  214.3260  155.1130 O   0  0  0  0  0  0  0  0  0  0  0  0
  162.1020  211.2630  149.1970 O   0  0  0  0  0  0  0  0  0  0  0  0
  161.2010  211.9480  147.0930 C   0  0  0  0  0  2  0  0  0  0  0  0
  161.7370  213.8530  148.6350 C   0  0  0  0  0  2  0  0  0  0  0  0
  161.0860  214.3620  147.3660 C   0  0  0  0  0  2  0  0  0  0  0  0
  161.4080  212.3380  148.5320 C   0  0  2  0  0  3  0  0  0  0  0  0
  161.0880  213.2140  146.3240 C   0  0  2  0  0  3  0  0  0  0  0  0
  159.8970  213.2540  145.3520 C   0  0  0  0  0  2  0  0  0  0  0  0
  159.8500  212.0830  144.5940 O   0  0  0  0  0  0  0  0  0  0  0  0
  159.5820  212.6010  143.3190 C   0  0  0  0  0  2  0  0  0  0  0  0
  160.8570  212.5740  142.5130 C   0  0  0  0  0  2  0  0  0  0  0  0
  160.9540  213.6280  141.4640 N   0  0  0  0  0  0  0  0  0  0  0  0
  159.3680  211.3740  137.1030 O   0  0  0  0  0  1  0  0  0  0  0  0
  160.8200  212.9300  140.0630 C   0  0  2  0  0  3  0  0  0  0  0  0
  159.5470  212.1790  139.4960 C   0  0  2  0  0  0  0  0  0  0  0  0
  159.5250  210.7990  140.0400 O   0  0  0  0  0  1  0  0  0  0  0  0
  159.9620  212.2650  137.9950 C   0  0  1  0  0  3  0  0  0  0  0  0
  162.0980  211.0710  137.3720 O   0  0  0  0  0  1  0  0  0  0  0  0
  161.5110  212.2770  137.8540 C   0  0  2  0  0  3  0  0  0  0  0  0
  162.0530  212.8060  139.2030 C   0  0  0  0  0  2  0  0  0  0  0  0
  158.2370  212.8660  139.7300 C   0  0  0  0  0  2  0  0  0  0  0  0
  155.7790  213.0950  139.3010 C   0  0  0  0  0  2  0  0  0  0  0  0
  156.2910  211.7810  138.9250 O   0  0  0  0  0  0  0  0  0  0  0  0
  157.0570  212.8810  138.6340 C   0  0  2  0  0  3  0  0  0  0  0  0
  162.1570  214.4400  141.5820 C   0  0  0  0  0  2  0  0  0  0  0  0
  163.9440  214.4520  143.2790 C   0  0  0  0  0  2  0  0  0  0  0  0
  162.4550  214.3800  143.0950 C   0  0  0  0  0  3  0  0  0  0  0  0
  163.2030  213.1470  143.5380 C   0  0  0  0  0  2  0  0  0  0  0  0
  160.2060  211.8660  150.6880 C   0  0  0  0  0  2  0  0  0  0  0  0
  160.5410  213.1120  151.5800 C   0  0  0  0  0  2  0  0  0  0  0  0
  159.3420  214.4010  151.1310 S   0  0  0  0  0  0  0  0  0  0  0  0
  157.9900  213.3020  150.5710 C   0  0  0  0  0  3  0  0  0  0  0  0
  157.2870  213.6110  149.1750 C   0  0  0  0  0  2  0  0  0  0  0  0
  156.8900  214.3700  150.4480 C   0  0  0  0  0  2  0  0  0  0  0  0
  1 50  1  6  0  0  0
  2  1  1  1  0  0  0
  2  6  1  0  0  0  0
  3 10  2  0  0  0  0
  4  2  1  0  0  0  0
  5  3  2  0  0  0  0
  6  8  2  0  0  0  0
  6  7  1  0  0  0  0
  7 10  1  0  0  0  0
  7 13  1  1  0  0  0
  9  4  1  0  0  0  0
  9  5  1  0  0  0  0
 12  5  1  0  0  0  0
 12 11  1  0  0  0  0
 14 13  1  6  0  0  0
 14 19  1  0  0  0  0
 15 18  1  0  0  0  0
 15 14  1  0  0  0  0
 16 15  2  0  0  0  0
 18 17  1  0  0  0  0
 19 21  1  0  0  0  0
 21 20  1  0  0  0  0
 22 21  2  0  0  0  0
 23  1  1  0  0  0  0
 24 27  1  0  0  0  0
 26 25  1  0  0  0  0
 27 25  1  0  0  0  0
 27 23  1  6  0  0  0
 28 29  1  1  0  0  0
 28 24  1  0  0  0  0
 28 26  1  0  0  0  0
 30 29  1  0  0  0  0
 31 30  1  0  0  0  0
 32 31  1  0  0  0  0
 33 46  1  0  0  0  0
 33 32  1  0  0  0  0
 35 33  1  1  0  0  0
 36 42  1  0  0  0  0
 36 37  1  1  0  0  0
 36 35  1  0  0  0  0
 38 34  1  6  0  0  0
 38 36  1  0  0  0  0
 40 39  1  1  0  0  0
 40 38  1  0  0  0  0
 40 41  1  0  0  0  0
 41 35  1  0  0  0  0
 44 43  1  0  0  0  0
 45 44  1  0  0  0  0
 45 43  1  0  0  0  0
 45 42  1  1  0  0  0
 46 48  1  0  0  0  0
 47 49  1  0  0  0  0
 48 47  1  0  0  0  0
 48 49  1  0  0  0  0
 50 51  1  0  0  0  0
 52 51  1  0  0  0  0
 53 52  1  0  0  0  0
 54 55  1  0  0  0  0
 54 53  1  0  0  0  0
 55 53  1  0  0  0  0
M  END
>  <MODEL>
4

>  <REMARK>
 VINA RESULT:      -4.3      4.591      9.532
  Name = 
  23 active torsions:
  status: ('A' for Active; 'I' for Inactive)
    1  A    between atoms: C_1  and  N_44
    2  A    between atoms: C_1  and  C_46
    3  A    between atoms: C_2  and  C_11
    4  A    between atoms: C_3  and  N_44
    5  A    between atoms: C_3  and  C_50
    6  A    between atoms: C_4  and  C_42
    7  A    between atoms: C_10  and  O_40
    8  A    between atoms: C_11  and  O_20
    9  A    between atoms: C_11  and  C_47
   10  A    between atoms: C_12  and  C_25
   11  A    between atoms: C_12  and  C_51
   12  A    between atoms: C_14  and  C_31
   13  A    between atoms: C_14  and  C_42
   14  A    between atoms: C_17  and  N_44
   15  A    between atoms: O_19  and  C_33
   16  A    between atoms: O_19  and  C_50
   17  A    between atoms: O_20  and  C_22
   18  A    between atoms: C_21  and  C_47
   19  A    between atoms: S_24  and  C_31
   20  A    between atoms: S_24  and  C_36
   21  A    between atoms: C_33  and  C_48
   22  A    between atoms: C_35  and  O_45
   23  A    between atoms: C_42  and  O_45
                            x       y       z     vdW  Elec       q    Type
                         _______ _______ _______ _____ _____    ______ ____

>  <TORSDO>
F 23

$$$$
=
 OpenBabel11072410023D

 55 60  0  0  1  0  0  0  0  0999 V2000
  161.6000  210.7690  149.9970 C   0  0  1  0  0  3  0  0  0  0  0  0
  161.9950  209.4370  150.6740 C   0  0  2  0  0  3  0  0  0  0  0  0
  161.3710  206.5260  152.2810 C   0  0  0  0  0  0  0  0  0  0  0  0
  161.0920  208.4080  149.9870 C   0  0  0  0  0  2  0  0  0  0  0  0
  161.5360  206.0260  151.0290 C   0  0  0  0  0  0  0  0  0  0  0  0
  162.1590  209.4830  152.1770 C   0  0  0  0  0  0  0  0  0  0  0  0
  161.2020  208.7260  153.1690 C   0  0  1  0  0  3  0  0  0  0  0  0
  163.1200  210.1110  152.6140 O   0  0  0  0  0  0  0  0  0  0  0  0
  161.2210  206.8510  149.9160 C   0  0  0  0  0  2  0  0  0  0  0  0
  161.2470  207.2080  153.3320 C   0  0  0  0  0  3  0  0  0  0  0  0
  161.1470  203.6540  151.5650 C   0  0  0  0  0  1  0  0  0  0  0  0
  161.7470  204.6910  150.7930 O   0  0  0  0  0  0  0  0  0  0  0  0
  161.1380  209.4780  154.5250 C   0  0  0  0  0  2  0  0  0  0  0  0
  159.7460  209.5460  155.2100 C   0  0  2  0  0  3  0  0  0  0  0  0
  159.1220  210.8850  155.5640 C   0  0  0  0  0  0  0  0  0  0  0  0
  159.2750  211.3580  156.6980 O   0  0  0  0  0  0  0  0  0  0  0  0
  156.6400  211.3340  154.9670 C   0  0  0  0  0  1  0  0  0  0  0  0
  158.0640  211.4350  154.7060 N   0  0  0  0  0  2  0  0  0  0  0  0
  159.6720  208.6930  156.3720 O   0  0  0  0  0  0  0  0  0  0  0  0
  160.8100  206.5430  156.7520 O   0  0  0  0  0  1  0  0  0  0  0  0
  159.7230  207.2410  156.2380 C   0  0  0  0  0  0  0  0  0  0  0  0
  158.7350  206.6240  155.7890 O   0  0  0  0  0  0  0  0  0  0  0  0
  162.2720  211.0790  148.8240 O   0  0  0  0  0  0  0  0  0  0  0  0
  161.4120  212.0730  146.8300 C   0  0  0  0  0  2  0  0  0  0  0  0
  162.2070  213.7380  148.5310 C   0  0  0  0  0  2  0  0  0  0  0  0
  161.5930  214.4440  147.3400 C   0  0  0  0  0  2  0  0  0  0  0  0
  161.6970  212.2900  148.2920 C   0  0  2  0  0  3  0  0  0  0  0  0
  161.4340  213.4150  146.1920 C   0  0  2  0  0  3  0  0  0  0  0  0
  160.2350  213.6920  145.2700 C   0  0  0  0  0  2  0  0  0  0  0  0
  159.8020  212.5100  144.6680 O   0  0  0  0  0  0  0  0  0  0  0  0
  159.5050  212.9620  143.3740 C   0  0  0  0  0  2  0  0  0  0  0  0
  160.2910  212.1360  142.3860 C   0  0  0  0  0  2  0  0  0  0  0  0
  160.4140  212.7390  141.0280 N   0  0  0  0  0  0  0  0  0  0  0  0
  156.5540  210.9850  138.0900 O   0  0  0  0  0  1  0  0  0  0  0  0
  159.0660  212.4870  140.2640 C   0  0  2  0  0  3  0  0  0  0  0  0
  158.8430  211.5300  139.0230 C   0  0  2  0  0  0  0  0  0  0  0  0
  159.2570  212.2430  137.7900 O   0  0  0  0  0  1  0  0  0  0  0  0
  157.2980  211.3990  139.1930 C   0  0  1  0  0  3  0  0  0  0  0  0
  155.9780  213.5390  138.9630 O   0  0  0  0  0  1  0  0  0  0  0  0
  156.7060  212.6830  139.8400 C   0  0  2  0  0  3  0  0  0  0  0  0
  157.8710  213.3390  140.6170 C   0  0  0  0  0  2  0  0  0  0  0  0
  159.5080  210.1920  139.1150 C   0  0  0  0  0  2  0  0  0  0  0  0
  159.8240  208.4260  137.3650 C   0  0  0  0  0  2  0  0  0  0  0  0
  160.8530  208.3780  138.3990 O   0  0  0  0  0  0  0  0  0  0  0  0
  160.4480  209.6080  137.9460 C   0  0  2  0  0  3  0  0  0  0  0  0
  161.5800  212.2630  140.2970 C   0  0  0  0  0  2  0  0  0  0  0  0
  162.4920  212.9790  138.1220 C   0  0  0  0  0  2  0  0  0  0  0  0
  161.9550  213.4840  139.4310 C   0  0  0  0  0  3  0  0  0  0  0  0
  163.4290  213.6160  139.1400 C   0  0  0  0  0  2  0  0  0  0  0  0
  160.2400  211.4630  150.2050 C   0  0  0  0  0  2  0  0  0  0  0  0
  160.4660  212.9230  150.7330 C   0  0  0  0  0  2  0  0  0  0  0  0
  159.0310  213.3200  151.7740 S   0  0  0  0  0  0  0  0  0  0  0  0
  158.1810  214.4480  150.6100 C   0  0  0  0  0  3  0  0  0  0  0  0
  157.1430  213.8290  149.5720 C   0  0  0  0  0  2  0  0  0  0  0  0
  158.6540  213.7930  149.3020 C   0  0  0  0  0  2  0  0  0  0  0  0
  1 50  1  6  0  0  0
  2  1  1  1  0  0  0
  2  6  1  0  0  0  0
  3 10  2  0  0  0  0
  4  2  1  0  0  0  0
  5  3  2  0  0  0  0
  6  8  2  0  0  0  0
  6  7  1  0  0  0  0
  7 10  1  0  0  0  0
  7 13  1  1  0  0  0
  9  4  1  0  0  0  0
  9  5  1  0  0  0  0
 12  5  1  0  0  0  0
 12 11  1  0  0  0  0
 14 13  1  1  0  0  0
 14 15  1  0  0  0  0
 14 19  1  0  0  0  0
 15 16  2  0  0  0  0
 18 17  1  0  0  0  0
 18 15  1  0  0  0  0
 21 19  1  0  0  0  0
 21 20  1  0  0  0  0
 22 21  2  0  0  0  0
 23  1  1  0  0  0  0
 24 27  1  0  0  0  0
 26 25  1  0  0  0  0
 27 25  1  0  0  0  0
 27 23  1  6  0  0  0
 28 29  1  1  0  0  0
 28 24  1  0  0  0  0
 28 26  1  0  0  0  0
 30 29  1  0  0  0  0
 31 30  1  0  0  0  0
 32 31  1  0  0  0  0
 33 32  1  0  0  0  0
 35 41  1  0  0  0  0
 35 33  1  6  0  0  0
 36 37  1  6  0  0  0
 36 42  1  0  0  0  0
 36 38  1  0  0  0  0
 36 35  1  0  0  0  0
 38 34  1  6  0  0  0
 38 40  1  0  0  0  0
 40 39  1  6  0  0  0
 40 41  1  0  0  0  0
 43 45  1  0  0  0  0
 43 44  1  0  0  0  0
 45 44  1  0  0  0  0
 45 42  1  1  0  0  0
 46 33  1  0  0  0  0
 47 49  1  0  0  0  0
 47 48  1  0  0  0  0
 48 46  1  0  0  0  0
 49 48  1  0  0  0  0
 50 51  1  0  0  0  0
 51 52  1  0  0  0  0
 53 52  1  0  0  0  0
 54 53  1  0  0  0  0
 55 54  1  0  0  0  0
 55 53  1  0  0  0  0
M  END
>  <MODEL>
5

>  <REMARK>
 VINA RESULT:      -4.1      4.955      9.727
  Name = 
  23 active torsions:
  status: ('A' for Active; 'I' for Inactive)
    1  A    between atoms: C_1  and  N_44
    2  A    between atoms: C_1  and  C_46
    3  A    between atoms: C_2  and  C_11
    4  A    between atoms: C_3  and  N_44
    5  A    between atoms: C_3  and  C_50
    6  A    between atoms: C_4  and  C_42
    7  A    between atoms: C_10  and  O_40
    8  A    between atoms: C_11  and  O_20
    9  A    between atoms: C_11  and  C_47
   10  A    between atoms: C_12  and  C_25
   11  A    between atoms: C_12  and  C_51
   12  A    between atoms: C_14  and  C_31
   13  A    between atoms: C_14  and  C_42
   14  A    between atoms: C_17  and  N_44
   15  A    between atoms: O_19  and  C_33
   16  A    between atoms: O_19  and  C_50
   17  A    between atoms: O_20  and  C_22
   18  A    between atoms: C_21  and  C_47
   19  A    between atoms: S_24  and  C_31
   20  A    between atoms: S_24  and  C_36
   21  A    between atoms: C_33  and  C_48
   22  A    between atoms: C_35  and  O_45
   23  A    between atoms: C_42  and  O_45
                            x       y       z     vdW  Elec       q    Type
                         _______ _______ _______ _____ _____    ______ ____

>  <TORSDO>
F 23

$$$$
=
 OpenBabel11072410023D

 55 60  0  0  1  0  0  0  0  0999 V2000
  161.6580  211.0810  150.2070 C   0  0  1  0  0  3  0  0  0  0  0  0
  161.9600  209.8120  151.0360 C   0  0  2  0  0  3  0  0  0  0  0  0
  161.1280  207.0980  152.8770 C   0  0  0  0  0  0  0  0  0  0  0  0
  161.0610  208.7490  150.3960 C   0  0  0  0  0  2  0  0  0  0  0  0
  161.3500  206.4710  151.6940 C   0  0  0  0  0  0  0  0  0  0  0  0
  162.0340  210.0030  152.5340 C   0  0  0  0  0  0  0  0  0  0  0  0
  160.9900  209.3800  153.5330 C   0  0  1  0  0  3  0  0  0  0  0  0
  162.9900  210.6400  152.9690 O   0  0  0  0  0  0  0  0  0  0  0  0
  161.1340  207.1900  150.4870 C   0  0  0  0  0  2  0  0  0  0  0  0
  160.9670  207.8850  153.8460 C   0  0  0  0  0  3  0  0  0  0  0  0
  161.1880  204.3550  150.4430 C   0  0  0  0  0  1  0  0  0  0  0  0
  161.5230  205.1120  151.6030 O   0  0  0  0  0  0  0  0  0  0  0  0
  160.8730  210.2660  154.8010 C   0  0  0  0  0  2  0  0  0  0  0  0
  159.5230  211.0060  155.0020 C   0  0  2  0  0  3  0  0  0  0  0  0
  158.8770  211.7650  153.8550 C   0  0  0  0  0  0  0  0  0  0  0  0
  159.4690  212.7190  153.3330 O   0  0  0  0  0  0  0  0  0  0  0  0
  156.4070  212.5230  154.0580 C   0  0  0  0  0  1  0  0  0  0  0  0
  157.4370  211.6070  153.6080 N   0  0  0  0  0  2  0  0  0  0  0  0
  159.5470  211.8720  156.1580 O   0  0  0  0  0  0  0  0  0  0  0  0
  157.3480  211.7270  157.2550 O   0  0  0  0  0  1  0  0  0  0  0  0
  158.3250  212.5040  156.6440 C   0  0  0  0  0  0  0  0  0  0  0  0
  158.2230  213.7480  156.6330 O   0  0  0  0  0  0  0  0  0  0  0  0
  162.3140  211.1840  148.9900 O   0  0  0  0  0  0  0  0  0  0  0  0
  161.5920  212.0670  146.8910 C   0  0  0  0  0  2  0  0  0  0  0  0
  162.4690  213.8050  148.4740 C   0  0  0  0  0  2  0  0  0  0  0  0
  161.9470  214.4520  147.2080 C   0  0  0  0  0  2  0  0  0  0  0  0
  161.8520  212.3860  148.3390 C   0  0  2  0  0  3  0  0  0  0  0  0
  161.7390  213.3440  146.1450 C   0  0  2  0  0  3  0  0  0  0  0  0
  160.5910  213.6320  145.1620 C   0  0  0  0  0  2  0  0  0  0  0  0
  160.7450  212.8750  144.0000 O   0  0  0  0  0  0  0  0  0  0  0  0
  159.8940  213.5590  143.1210 C   0  0  0  0  0  2  0  0  0  0  0  0
  160.6370  213.8040  141.8300 C   0  0  0  0  0  2  0  0  0  0  0  0
  159.9820  213.2350  140.6170 N   0  0  0  0  0  0  0  0  0  0  0  0
  163.4190  211.2580  137.3170 O   0  0  0  0  0  1  0  0  0  0  0  0
  161.0970  212.9760  139.5430 C   0  0  2  0  0  3  0  0  0  0  0  0
  161.8710  211.6190  139.2870 C   0  0  2  0  0  0  0  0  0  0  0  0
  162.9760  211.5070  140.2710 O   0  0  0  0  0  1  0  0  0  0  0  0
  162.3390  211.9670  137.8410 C   0  0  1  0  0  3  0  0  0  0  0  0
  163.8710  213.9630  137.6290 O   0  0  0  0  0  1  0  0  0  0  0  0
  162.5230  213.5030  137.6790 C   0  0  2  0  0  3  0  0  0  0  0  0
  161.6230  214.1520  138.7560 C   0  0  0  0  0  2  0  0  0  0  0  0
  161.0250  210.3840  139.2940 C   0  0  0  0  0  2  0  0  0  0  0  0
  160.1680  208.5780  137.7830 C   0  0  0  0  0  2  0  0  0  0  0  0
  160.7170  208.0500  139.0280 O   0  0  0  0  0  0  0  0  0  0  0  0
  161.3810  209.0830  138.4150 C   0  0  2  0  0  3  0  0  0  0  0  0
  158.8920  214.0620  140.1180 C   0  0  0  0  0  2  0  0  0  0  0  0
  156.7620  212.9160  139.6440 C   0  0  0  0  0  2  0  0  0  0  0  0
  157.6510  213.4010  140.7540 C   0  0  0  0  0  3  0  0  0  0  0  0
  156.3520  214.1180  140.4840 C   0  0  0  0  0  2  0  0  0  0  0  0
  160.3720  211.9150  150.3600 C   0  0  0  0  0  2  0  0  0  0  0  0
  160.7290  213.3500  150.8850 C   0  0  0  0  0  2  0  0  0  0  0  0
  159.2620  214.3820  150.5940 S   0  0  0  0  0  0  0  0  0  0  0  0
  158.5900  213.4640  149.1590 C   0  0  0  0  0  3  0  0  0  0  0  0
  157.2930  214.0350  148.4310 C   0  0  0  0  0  2  0  0  0  0  0  0
  157.1810  213.2060  149.7190 C   0  0  0  0  0  2  0  0  0  0  0  0
  1 50  1  6  0  0  0
  2  1  1  6  0  0  0
  2  6  1  0  0  0  0
  3 10  2  0  0  0  0
  4  9  1  0  0  0  0
  4  2  1  0  0  0  0
  5  3  2  0  0  0  0
  6  8  2  0  0  0  0
  6  7  1  0  0  0  0
  7 10  1  0  0  0  0
  7 13  1  1  0  0  0
  9  5  1  0  0  0  0
 11 12  1  0  0  0  0
 12  5  1  0  0  0  0
 14 13  1  6  0  0  0
 14 19  1  0  0  0  0
 15 14  1  0  0  0  0
 16 15  2  0  0  0  0
 18 15  1  0  0  0  0
 18 17  1  0  0  0  0
 19 21  1  0  0  0  0
 21 20  1  0  0  0  0
 22 21  2  0  0  0  0
 23  1  1  0  0  0  0
 24 27  1  0  0  0  0
 26 25  1  0  0  0  0
 27 25  1  0  0  0  0
 27 23  1  6  0  0  0
 28 29  1  1  0  0  0
 28 24  1  0  0  0  0
 28 26  1  0  0  0  0
 30 29  1  0  0  0  0
 31 30  1  0  0  0  0
 32 31  1  0  0  0  0
 33 32  1  0  0  0  0
 35 33  1  1  0  0  0
 36 42  1  0  0  0  0
 36 35  1  0  0  0  0
 36 37  1  1  0  0  0
 38 34  1  1  0  0  0
 38 36  1  0  0  0  0
 40 39  1  1  0  0  0
 40 38  1  0  0  0  0
 40 41  1  0  0  0  0
 41 35  1  0  0  0  0
 43 45  1  0  0  0  0
 43 44  1  0  0  0  0
 45 44  1  0  0  0  0
 45 42  1  1  0  0  0
 46 33  1  0  0  0  0
 46 48  1  0  0  0  0
 47 49  1  0  0  0  0
 47 48  1  0  0  0  0
 49 48  1  0  0  0  0
 50 51  1  0  0  0  0
 52 51  1  0  0  0  0
 53 55  1  0  0  0  0
 53 52  1  0  0  0  0
 54 53  1  0  0  0  0
 54 55  1  0  0  0  0
M  END
>  <MODEL>
6

>  <REMARK>
 VINA RESULT:      -4.0      5.033      9.595
  Name = 
  23 active torsions:
  status: ('A' for Active; 'I' for Inactive)
    1  A    between atoms: C_1  and  N_44
    2  A    between atoms: C_1  and  C_46
    3  A    between atoms: C_2  and  C_11
    4  A    between atoms: C_3  and  N_44
    5  A    between atoms: C_3  and  C_50
    6  A    between atoms: C_4  and  C_42
    7  A    between atoms: C_10  and  O_40
    8  A    between atoms: C_11  and  O_20
    9  A    between atoms: C_11  and  C_47
   10  A    between atoms: C_12  and  C_25
   11  A    between atoms: C_12  and  C_51
   12  A    between atoms: C_14  and  C_31
   13  A    between atoms: C_14  and  C_42
   14  A    between atoms: C_17  and  N_44
   15  A    between atoms: O_19  and  C_33
   16  A    between atoms: O_19  and  C_50
   17  A    between atoms: O_20  and  C_22
   18  A    between atoms: C_21  and  C_47
   19  A    between atoms: S_24  and  C_31
   20  A    between atoms: S_24  and  C_36
   21  A    between atoms: C_33  and  C_48
   22  A    between atoms: C_35  and  O_45
   23  A    between atoms: C_42  and  O_45
                            x       y       z     vdW  Elec       q    Type
                         _______ _______ _______ _____ _____    ______ ____

>  <TORSDO>
F 23

$$$$
=
 OpenBabel11072410023D

 55 60  0  0  1  0  0  0  0  0999 V2000
  160.0910  210.6750  153.0540 C   0  0  1  0  0  3  0  0  0  0  0  0
  159.2090  211.9020  153.3760 C   0  0  2  0  0  3  0  0  0  0  0  0
  156.5300  213.9280  152.9690 C   0  0  0  0  0  0  0  0  0  0  0  0
  157.8100  211.2990  153.5450 C   0  0  0  0  0  2  0  0  0  0  0  0
  156.0850  213.2300  154.0450 C   0  0  0  0  0  0  0  0  0  0  0  0
  159.4540  213.1330  152.5330 C   0  0  0  0  0  0  0  0  0  0  0  0
  158.3980  213.7020  151.5150 C   0  0  1  0  0  3  0  0  0  0  0  0
  160.5180  213.7230  152.7020 O   0  0  0  0  0  0  0  0  0  0  0  0
  156.5380  211.8960  154.2300 C   0  0  0  0  0  2  0  0  0  0  0  0
  157.1360  214.4230  151.9830 C   0  0  0  0  0  3  0  0  0  0  0  0
  155.1850  214.4520  155.9850 C   0  0  0  0  0  1  0  0  0  0  0  0
  155.0300  213.6570  154.8120 O   0  0  0  0  0  0  0  0  0  0  0  0
  159.1200  214.4370  150.3540 C   0  0  0  0  0  2  0  0  0  0  0  0
  158.9060  213.8540  148.9310 C   0  0  2  0  0  3  0  0  0  0  0  0
  157.5300  213.3910  148.4830 C   0  0  0  0  0  0  0  0  0  0  0  0
  156.8570  212.6530  149.2130 O   0  0  0  0  0  0  0  0  0  0  0  0
  157.2190  212.4500  146.0880 C   0  0  0  0  0  1  0  0  0  0  0  0
  157.1550  213.5180  147.0670 N   0  0  0  0  0  2  0  0  0  0  0  0
  159.8540  212.8090  148.6250 O   0  0  0  0  0  0  0  0  0  0  0  0
  162.2510  213.3060  148.3740 O   0  0  0  0  0  1  0  0  0  0  0  0
  161.0150  213.0760  147.7830 C   0  0  0  0  0  0  0  0  0  0  0  0
  160.9220  212.9610  146.5430 O   0  0  0  0  0  0  0  0  0  0  0  0
  160.2860  210.4010  151.7090 O   0  0  0  0  0  0  0  0  0  0  0  0
  160.3200  208.0490  152.1270 C   0  0  0  0  0  2  0  0  0  0  0  0
  162.5990  209.0970  152.0460 C   0  0  0  0  0  2  0  0  0  0  0  0
  162.7080  207.5960  152.2200 C   0  0  0  0  0  2  0  0  0  0  0  0
  161.1120  209.2220  151.6130 C   0  0  2  0  0  3  0  0  0  0  0  0
  161.3100  207.0470  152.6020 C   0  0  2  0  0  3  0  0  0  0  0  0
  161.0450  205.6170  152.1020 C   0  0  0  0  0  2  0  0  0  0  0  0
  162.0060  205.2450  151.1600 O   0  0  0  0  0  0  0  0  0  0  0  0
  161.4100  205.7020  149.9760 C   0  0  0  0  0  2  0  0  0  0  0  0
  160.7080  204.5410  149.3150 C   0  0  0  0  0  2  0  0  0  0  0  0
  161.5240  203.8150  148.3010 N   0  0  0  0  0  0  0  0  0  0  0  0
  161.1620  205.0920  143.3160 O   0  0  0  0  0  1  0  0  0  0  0  0
  161.3060  204.5170  146.9130 C   0  0  2  0  0  3  0  0  0  0  0  0
  161.8520  204.0330  145.5090 C   0  0  2  0  0  0  0  0  0  0  0  0
  163.2600  204.4760  145.3650 O   0  0  0  0  0  1  0  0  0  0  0  0
  160.8380  204.8470  144.6490 C   0  0  1  0  0  3  0  0  0  0  0  0
  160.9660  207.3590  144.8780 O   0  0  0  0  0  1  0  0  0  0  0  0
  160.4130  206.1480  145.3880 C   0  0  2  0  0  3  0  0  0  0  0  0
  160.6470  205.8750  146.8920 C   0  0  0  0  0  2  0  0  0  0  0  0
  161.7250  202.5650  145.2400 C   0  0  0  0  0  2  0  0  0  0  0  0
  160.1540  200.6220  145.0580 C   0  0  0  0  0  2  0  0  0  0  0  0
  159.4590  201.8780  145.3260 O   0  0  0  0  0  0  0  0  0  0  0  0
  160.6400  201.6380  145.9840 C   0  0  2  0  0  3  0  0  0  0  0  0
  161.2470  202.3860  148.2650 C   0  0  0  0  0  2  0  0  0  0  0  0
  160.9570  200.6220  149.9620 C   0  0  0  0  0  2  0  0  0  0  0  0
  160.7960  202.0950  149.7120 C   0  0  0  0  0  3  0  0  0  0  0  0
  159.5670  201.2270  149.8220 C   0  0  0  0  0  2  0  0  0  0  0  0
  161.1390  210.0980  154.0250 C   0  0  0  0  0  2  0  0  0  0  0  0
  161.2710  211.0320  155.2780 C   0  0  0  0  0  2  0  0  0  0  0  0
  161.9610  210.0070  156.6110 S   0  0  0  0  0  0  0  0  0  0  0  0
  161.5300  208.3690  155.9160 C   0  0  0  0  0  3  0  0  0  0  0  0
  160.0960  207.7570  156.2440 C   0  0  0  0  0  2  0  0  0  0  0  0
  161.2550  207.6450  157.2440 C   0  0  0  0  0  2  0  0  0  0  0  0
  1 50  1  6  0  0  0
  2  1  1  6  0  0  0
  2  4  1  0  0  0  0
  3  5  2  0  0  0  0
  4  9  1  0  0  0  0
  5  9  1  0  0  0  0
  5 12  1  0  0  0  0
  6  8  2  0  0  0  0
  6  2  1  0  0  0  0
  7 13  1  6  0  0  0
  7 10  1  0  0  0  0
  7  6  1  0  0  0  0
 10  3  2  0  0  0  0
 12 11  1  0  0  0  0
 14 13  1  1  0  0  0
 15 14  1  0  0  0  0
 15 16  2  0  0  0  0
 17 18  1  0  0  0  0
 18 15  1  0  0  0  0
 19 14  1  0  0  0  0
 21 20  1  0  0  0  0
 21 19  1  0  0  0  0
 22 21  2  0  0  0  0
 23  1  1  0  0  0  0
 24 28  1  0  0  0  0
 25 26  1  0  0  0  0
 26 28  1  0  0  0  0
 27 23  1  1  0  0  0
 27 25  1  0  0  0  0
 27 24  1  0  0  0  0
 28 29  1  6  0  0  0
 30 29  1  0  0  0  0
 31 30  1  0  0  0  0
 32 31  1  0  0  0  0
 33 32  1  0  0  0  0
 35 33  1  1  0  0  0
 36 37  1  6  0  0  0
 36 35  1  0  0  0  0
 38 34  1  6  0  0  0
 38 40  1  0  0  0  0
 38 36  1  0  0  0  0
 40 39  1  6  0  0  0
 40 41  1  0  0  0  0
 41 35  1  0  0  0  0
 42 36  1  0  0  0  0
 43 44  1  0  0  0  0
 43 45  1  0  0  0  0
 44 45  1  0  0  0  0
 45 42  1  6  0  0  0
 46 33  1  0  0  0  0
 46 48  1  0  0  0  0
 48 49  1  0  0  0  0
 48 47  1  0  0  0  0
 49 47  1  0  0  0  0
 50 51  1  0  0  0  0
 51 52  1  0  0  0  0
 53 54  1  0  0  0  0
 53 52  1  0  0  0  0
 53 55  1  0  0  0  0
 54 55  1  0  0  0  0
M  END
>  <MODEL>
7

>  <REMARK>
 VINA RESULT:      -2.7      1.325      2.026
  Name = 
  23 active torsions:
  status: ('A' for Active; 'I' for Inactive)
    1  A    between atoms: C_1  and  N_44
    2  A    between atoms: C_1  and  C_46
    3  A    between atoms: C_2  and  C_11
    4  A    between atoms: C_3  and  N_44
    5  A    between atoms: C_3  and  C_50
    6  A    between atoms: C_4  and  C_42
    7  A    between atoms: C_10  and  O_40
    8  A    between atoms: C_11  and  O_20
    9  A    between atoms: C_11  and  C_47
   10  A    between atoms: C_12  and  C_25
   11  A    between atoms: C_12  and  C_51
   12  A    between atoms: C_14  and  C_31
   13  A    between atoms: C_14  and  C_42
   14  A    between atoms: C_17  and  N_44
   15  A    between atoms: O_19  and  C_33
   16  A    between atoms: O_19  and  C_50
   17  A    between atoms: O_20  and  C_22
   18  A    between atoms: C_21  and  C_47
   19  A    between atoms: S_24  and  C_31
   20  A    between atoms: S_24  and  C_36
   21  A    between atoms: C_33  and  C_48
   22  A    between atoms: C_35  and  O_45
   23  A    between atoms: C_42  and  O_45
                            x       y       z     vdW  Elec       q    Type
                         _______ _______ _______ _____ _____    ______ ____

>  <TORSDO>
F 23

$$$$
=
 OpenBabel11072410023D

 55 60  0  0  1  0  0  0  0  0999 V2000
  161.7380  208.8150  150.7370 C   0  0  1  0  0  3  0  0  0  0  0  0
  161.6760  209.2460  152.2200 C   0  0  2  0  0  3  0  0  0  0  0  0
  160.0990  210.1050  155.0870 C   0  0  0  0  0  0  0  0  0  0  0  0
  160.7020  208.2400  152.8410 C   0  0  0  0  0  2  0  0  0  0  0  0
  160.3730  208.8110  155.3950 C   0  0  0  0  0  0  0  0  0  0  0  0
  161.5640  210.7330  152.4720 C   0  0  0  0  0  0  0  0  0  0  0  0
  160.2880  211.4030  153.1030 C   0  0  1  0  0  3  0  0  0  0  0  0
  162.5460  211.4200  152.2050 O   0  0  0  0  0  0  0  0  0  0  0  0
  160.4730  207.8630  154.3410 C   0  0  0  0  0  2  0  0  0  0  0  0
  159.9450  211.2480  154.5830 C   0  0  0  0  0  3  0  0  0  0  0  0
  160.0890  206.9580  156.9920 C   0  0  0  0  0  1  0  0  0  0  0  0
  160.3050  208.3320  156.6790 O   0  0  0  0  0  0  0  0  0  0  0  0
  160.1500  212.8640  152.5990 C   0  0  0  0  0  2  0  0  0  0  0  0
  158.7190  213.4670  152.6170 C   0  0  2  0  0  3  0  0  0  0  0  0
  157.9310  213.5520  153.9130 C   0  0  0  0  0  0  0  0  0  0  0  0
  158.4910  213.9120  154.9560 O   0  0  0  0  0  0  0  0  0  0  0  0
  156.4000  211.5790  154.6060 C   0  0  0  0  0  1  0  0  0  0  0  0
  156.6270  212.8800  154.0060 N   0  0  0  0  0  2  0  0  0  0  0  0
  157.8690  212.8740  151.6110 O   0  0  0  0  0  0  0  0  0  0  0  0
  158.3470  214.0090  149.4800 O   0  0  0  0  0  0  0  0  0  0  0  0
  157.4260  213.6480  150.4560 C   0  0  0  0  0  0  0  0  0  0  0  0
  156.2090  213.8620  150.2830 O   0  0  0  0  0  1  0  0  0  0  0  0
  160.8040  207.8710  150.3380 O   0  0  0  0  0  0  0  0  0  0  0  0
  160.3010  205.5380  150.4400 C   0  0  0  0  0  2  0  0  0  0  0  0
  162.4680  206.1570  151.5430 C   0  0  0  0  0  2  0  0  0  0  0  0
  162.2670  204.6560  151.5680 C   0  0  0  0  0  2  0  0  0  0  0  0
  161.3990  206.5670  150.4930 C   0  0  2  0  0  3  0  0  0  0  0  0
  160.7940  204.3560  151.1940 C   0  0  2  0  0  3  0  0  0  0  0  0
  160.5980  203.0180  150.4610 C   0  0  0  0  0  2  0  0  0  0  0  0
  161.3820  202.0230  151.0460 O   0  0  0  0  0  0  0  0  0  0  0  0
  161.2670  200.9990  150.0960 C   0  0  0  0  0  2  0  0  0  0  0  0
  160.5980  201.5600  148.8650 C   0  0  0  0  0  2  0  0  0  0  0  0
  161.1820  201.0980  147.5740 N   0  0  0  0  0  0  0  0  0  0  0  0
  160.5750  205.1090  144.3870 O   0  0  0  0  0  1  0  0  0  0  0  0
  160.7480  202.1120  146.4570 C   0  0  2  0  0  3  0  0  0  0  0  0
  161.0730  203.6600  146.4030 C   0  0  2  0  0  0  0  0  0  0  0  0
  160.0980  204.3830  147.2560 O   0  0  0  0  0  1  0  0  0  0  0  0
  160.8250  203.8260  144.8720 C   0  0  1  0  0  3  0  0  0  0  0  0
  158.4770  203.3430  144.0780 O   0  0  0  0  0  1  0  0  0  0  0  0
  159.7630  202.8040  144.3750 C   0  0  2  0  0  3  0  0  0  0  0  0
  159.7930  201.6380  145.3890 C   0  0  0  0  0  2  0  0  0  0  0  0
  162.4770  204.0360  146.7620 C   0  0  0  0  0  2  0  0  0  0  0  0
  161.8210  206.4210  147.1610 C   0  0  0  0  0  2  0  0  0  0  0  0
  163.0810  206.3040  146.4340 O   0  0  0  0  0  0  0  0  0  0  0  0
  162.8470  205.4340  147.4700 C   0  0  2  0  0  3  0  0  0  0  0  0
  160.8400  199.7190  147.2550 C   0  0  0  0  0  2  0  0  0  0  0  0
  160.8310  198.7250  145.0000 C   0  0  0  0  0  2  0  0  0  0  0  0
  161.6930  199.4430  145.9990 C   0  0  0  0  0  3  0  0  0  0  0  0
  161.9460  197.9820  145.7230 C   0  0  0  0  0  2  0  0  0  0  0  0
  162.3490  209.6820  149.6200 C   0  0  0  0  0  2  0  0  0  0  0  0
  161.2320  210.5690  148.9660 C   0  0  0  0  0  2  0  0  0  0  0  0
  161.9800  212.1990  148.6710 S   0  0  0  0  0  0  0  0  0  0  0  0
  160.9990  212.6620  147.1960 C   0  0  0  0  0  3  0  0  0  0  0  0
  161.7670  212.9510  145.8320 C   0  0  0  0  0  2  0  0  0  0  0  0
  161.6600  214.0230  146.9250 C   0  0  0  0  0  2  0  0  0  0  0  0
  1 50  1  6  0  0  0
  2  1  1  6  0  0  0
  2  6  1  0  0  0  0
  2  4  1  0  0  0  0
  3  5  2  0  0  0  0
  4  9  1  0  0  0  0
  5 12  1  0  0  0  0
  6  7  1  0  0  0  0
  7 13  1  1  0  0  0
  7 10  1  0  0  0  0
  8  6  2  0  0  0  0
  9  5  1  0  0  0  0
 10  3  2  0  0  0  0
 12 11  1  0  0  0  0
 14 13  1  1  0  0  0
 14 15  1  0  0  0  0
 15 18  1  0  0  0  0
 15 16  2  0  0  0  0
 18 17  1  0  0  0  0
 19 14  1  0  0  0  0
 20 21  2  0  0  0  0
 21 19  1  0  0  0  0
 22 21  1  0  0  0  0
 23  1  1  0  0  0  0
 24 27  1  0  0  0  0
 24 28  1  0  0  0  0
 25 26  1  0  0  0  0
 27 23  1  1  0  0  0
 27 25  1  0  0  0  0
 28 29  1  6  0  0  0
 28 26  1  0  0  0  0
 29 30  1  0  0  0  0
 31 30  1  0  0  0  0
 32 31  1  0  0  0  0
 33 32  1  0  0  0  0
 35 33  1  1  0  0  0
 36 35  1  0  0  0  0
 36 42  1  0  0  0  0
 36 37  1  1  0  0  0
 38 34  1  1  0  0  0
 38 36  1  0  0  0  0
 40 39  1  1  0  0  0
 40 38  1  0  0  0  0
 40 41  1  0  0  0  0
 41 35  1  0  0  0  0
 43 45  1  0  0  0  0
 44 43  1  0  0  0  0
 44 45  1  0  0  0  0
 45 42  1  6  0  0  0
 46 33  1  0  0  0  0
 47 49  1  0  0  0  0
 47 48  1  0  0  0  0
 48 46  1  0  0  0  0
 49 48  1  0  0  0  0
 51 50  1  0  0  0  0
 52 51  1  0  0  0  0
 53 52  1  0  0  0  0
 54 55  1  0  0  0  0
 54 53  1  0  0  0  0
 55 53  1  0  0  0  0
M  END
>  <MODEL>
8

>  <REMARK>
 VINA RESULT:      -2.6      2.427      5.226
  Name = 
  23 active torsions:
  status: ('A' for Active; 'I' for Inactive)
    1  A    between atoms: C_1  and  N_44
    2  A    between atoms: C_1  and  C_46
    3  A    between atoms: C_2  and  C_11
    4  A    between atoms: C_3  and  N_44
    5  A    between atoms: C_3  and  C_50
    6  A    between atoms: C_4  and  C_42
    7  A    between atoms: C_10  and  O_40
    8  A    between atoms: C_11  and  O_20
    9  A    between atoms: C_11  and  C_47
   10  A    between atoms: C_12  and  C_25
   11  A    between atoms: C_12  and  C_51
   12  A    between atoms: C_14  and  C_31
   13  A    between atoms: C_14  and  C_42
   14  A    between atoms: C_17  and  N_44
   15  A    between atoms: O_19  and  C_33
   16  A    between atoms: O_19  and  C_50
   17  A    between atoms: O_20  and  C_22
   18  A    between atoms: C_21  and  C_47
   19  A    between atoms: S_24  and  C_31
   20  A    between atoms: S_24  and  C_36
   21  A    between atoms: C_33  and  C_48
   22  A    between atoms: C_35  and  O_45
   23  A    between atoms: C_42  and  O_45
                            x       y       z     vdW  Elec       q    Type
                         _______ _______ _______ _____ _____    ______ ____

>  <TORSDO>
F 23

$$$$
=
 OpenBabel11072410023D

 55 60  0  0  1  0  0  0  0  0999 V2000
  161.0820  205.3560  144.6760 C   0  0  1  0  0  3  0  0  0  0  0  0
  161.4090  203.9030  145.0860 C   0  0  2  0  0  3  0  0  0  0  0  0
  160.8330  200.9790  146.6900 C   0  0  0  0  0  0  0  0  0  0  0  0
  160.1140  203.1460  144.7730 C   0  0  0  0  0  2  0  0  0  0  0  0
  160.3980  200.6140  145.4560 C   0  0  0  0  0  0  0  0  0  0  0  0
  162.1380  203.7340  146.4000 C   0  0  0  0  0  0  0  0  0  0  0  0
  161.4910  203.0480  147.6600 C   0  0  1  0  0  3  0  0  0  0  0  0
  163.3030  204.1190  146.4450 O   0  0  0  0  0  0  0  0  0  0  0  0
  159.8680  201.6120  144.5940 C   0  0  0  0  0  2  0  0  0  0  0  0
  161.2680  201.5390  147.7300 C   0  0  0  0  0  3  0  0  0  0  0  0
  161.2060  198.2950  145.2680 C   0  0  0  0  0  1  0  0  0  0  0  0
  160.2110  199.3020  145.1020 O   0  0  0  0  0  0  0  0  0  0  0  0
  162.1110  203.6290  148.9590 C   0  0  0  0  0  2  0  0  0  0  0  0
  161.1100  204.1330  150.0340 C   0  0  2  0  0  3  0  0  0  0  0  0
  161.5850  204.9970  151.1890 C   0  0  0  0  0  0  0  0  0  0  0  0
  162.7830  205.2880  151.2930 O   0  0  0  0  0  0  0  0  0  0  0  0
  160.8050  204.4450  153.5990 C   0  0  0  0  0  1  0  0  0  0  0  0
  160.7090  205.1840  152.3540 N   0  0  0  0  0  2  0  0  0  0  0  0
  160.3100  203.0580  150.5740 O   0  0  0  0  0  0  0  0  0  0  0  0
  162.0560  201.7420  151.7040 O   0  0  0  0  0  1  0  0  0  0  0  0
  160.9140  201.7740  150.9140 C   0  0  0  0  0  0  0  0  0  0  0  0
  160.3290  200.7140  150.6110 O   0  0  0  0  0  0  0  0  0  0  0  0
  160.3250  206.0880  145.5770 O   0  0  0  0  0  0  0  0  0  0  0  0
  160.2840  207.0190  147.7770 C   0  0  0  0  0  2  0  0  0  0  0  0
  162.5800  206.8920  146.7720 C   0  0  0  0  0  2  0  0  0  0  0  0
  162.6480  207.4030  148.1960 C   0  0  0  0  0  2  0  0  0  0  0  0
  161.1340  206.3230  146.7470 C   0  0  2  0  0  3  0  0  0  0  0  0
  161.2150  207.7830  148.6470 C   0  0  2  0  0  3  0  0  0  0  0  0
  160.9650  207.5930  150.1530 C   0  0  0  0  0  2  0  0  0  0  0  0
  161.6210  208.5850  150.8830 O   0  0  0  0  0  0  0  0  0  0  0  0
  160.7880  208.6830  152.0070 C   0  0  0  0  0  2  0  0  0  0  0  0
  160.9450  210.0620  152.6010 C   0  0  0  0  0  2  0  0  0  0  0  0
  160.7020  210.1390  154.0690 N   0  0  0  0  0  0  0  0  0  0  0  0
  156.7080  213.4010  153.9170 O   0  0  0  0  0  1  0  0  0  0  0  0
  159.3690  210.9370  154.2970 C   0  0  2  0  0  3  0  0  0  0  0  0
  159.0130  212.3710  153.7300 C   0  0  2  0  0  0  0  0  0  0  0  0
  159.6240  213.3980  154.6100 O   0  0  0  0  0  1  0  0  0  0  0  0
  157.4680  212.2330  153.8910 C   0  0  1  0  0  3  0  0  0  0  0  0
  156.6300  211.9360  156.2550 O   0  0  0  0  0  1  0  0  0  0  0  0
  157.1240  211.2930  155.0820 C   0  0  2  0  0  3  0  0  0  0  0  0
  158.3600  210.3850  155.2740 C   0  0  0  0  0  2  0  0  0  0  0  0
  159.3830  212.6070  152.2980 C   0  0  0  0  0  2  0  0  0  0  0  0
  158.3940  214.0870  150.5350 C   0  0  0  0  0  2  0  0  0  0  0  0
  159.8270  213.8790  150.3490 O   0  0  0  0  0  0  0  0  0  0  0  0
  159.3610  214.0700  151.6260 C   0  0  2  0  0  3  0  0  0  0  0  0
  161.8300  210.6930  154.8050 C   0  0  0  0  0  2  0  0  0  0  0  0
  162.6320  210.7770  157.1340 C   0  0  0  0  0  2  0  0  0  0  0  0
  161.4940  210.3220  156.2650 C   0  0  0  0  0  3  0  0  0  0  0  0
  162.4110  209.2920  156.8760 C   0  0  0  0  0  2  0  0  0  0  0  0
  161.9240  206.1710  143.6760 C   0  0  0  0  0  2  0  0  0  0  0  0
  161.2050  206.2070  142.2820 C   0  0  0  0  0  2  0  0  0  0  0  0
  162.5190  206.2060  141.0270 S   0  0  0  0  0  0  0  0  0  0  0  0
  162.2140  207.8760  140.3430 C   0  0  0  0  0  3  0  0  0  0  0  0
  160.9970  208.0740  139.3340 C   0  0  0  0  0  2  0  0  0  0  0  0
  162.3440  207.5190  138.8530 C   0  0  0  0  0  2  0  0  0  0  0  0
  1 50  1  1  0  0  0
  1 23  1  0  0  0  0
  2  1  1  1  0  0  0
  2  6  1  0  0  0  0
  3 10  2  0  0  0  0
  4  2  1  0  0  0  0
  5  3  2  0  0  0  0
  6  8  2  0  0  0  0
  6  7  1  0  0  0  0
  7 10  1  0  0  0  0
  7 13  1  1  0  0  0
  9  4  1  0  0  0  0
  9  5  1  0  0  0  0
 12 11  1  0  0  0  0
 12  5  1  0  0  0  0
 14 13  1  1  0  0  0
 14 19  1  0  0  0  0
 14 15  1  0  0  0  0
 15 16  2  0  0  0  0
 15 18  1  0  0  0  0
 18 17  1  0  0  0  0
 19 21  1  0  0  0  0
 21 20  1  0  0  0  0
 22 21  2  0  0  0  0
 24 28  1  0  0  0  0
 25 26  1  0  0  0  0
 26 28  1  0  0  0  0
 27 23  1  6  0  0  0
 27 25  1  0  0  0  0
 27 24  1  0  0  0  0
 28 29  1  1  0  0  0
 29 30  1  0  0  0  0
 30 31  1  0  0  0  0
 31 32  1  0  0  0  0
 32 33  1  0  0  0  0
 33 46  1  0  0  0  0
 35 33  1  1  0  0  0
 35 41  1  0  0  0  0
 36 38  1  0  0  0  0
 36 35  1  0  0  0  0
 36 37  1  1  0  0  0
 38 34  1  1  0  0  0
 38 40  1  0  0  0  0
 40 41  1  0  0  0  0
 40 39  1  1  0  0  0
 42 36  1  0  0  0  0
 43 45  1  0  0  0  0
 44 43  1  0  0  0  0
 44 45  1  0  0  0  0
 45 42  1  1  0  0  0
 46 48  1  0  0  0  0
 48 49  1  0  0  0  0
 48 47  1  0  0  0  0
 49 47  1  0  0  0  0
 51 50  1  0  0  0  0
 52 51  1  0  0  0  0
 53 52  1  0  0  0  0
 54 53  1  0  0  0  0
 55 54  1  0  0  0  0
 55 53  1  0  0  0  0
M  END
>  <MODEL>
9

>  <REMARK>
 VINA RESULT:      -2.5      3.515     11.642
  Name = 
  23 active torsions:
  status: ('A' for Active; 'I' for Inactive)
    1  A    between atoms: C_1  and  N_44
    2  A    between atoms: C_1  and  C_46
    3  A    between atoms: C_2  and  C_11
    4  A    between atoms: C_3  and  N_44
    5  A    between atoms: C_3  and  C_50
    6  A    between atoms: C_4  and  C_42
    7  A    between atoms: C_10  and  O_40
    8  A    between atoms: C_11  and  O_20
    9  A    between atoms: C_11  and  C_47
   10  A    between atoms: C_12  and  C_25
   11  A    between atoms: C_12  and  C_51
   12  A    between atoms: C_14  and  C_31
   13  A    between atoms: C_14  and  C_42
   14  A    between atoms: C_17  and  N_44
   15  A    between atoms: O_19  and  C_33
   16  A    between atoms: O_19  and  C_50
   17  A    between atoms: O_20  and  C_22
   18  A    between atoms: C_21  and  C_47
   19  A    between atoms: S_24  and  C_31
   20  A    between atoms: S_24  and  C_36
   21  A    between atoms: C_33  and  C_48
   22  A    between atoms: C_35  and  O_45
   23  A    between atoms: C_42  and  O_45
                            x       y       z     vdW  Elec       q    Type
                         _______ _______ _______ _____ _____    ______ ____

>  <TORSDO>
F 23

$$$$
