=
 OpenBabel11072410293D

 32 37  0  0  1  0  0  0  0  0999 V2000
  161.5840  203.9090  152.3160 C   0  0  0  0  0  3  0  0  0  0  0  0
  161.1650  206.2410  148.7900 C   0  0  0  0  0  3  0  0  0  0  0  0
  161.1550  204.8370  148.7840 C   0  0  0  0  0  0  0  0  0  0  0  0
  161.3930  206.2750  151.2310 C   0  0  0  0  0  0  0  0  0  0  0  0
  161.3230  208.4630  150.0100 C   0  0  2  0  0  3  0  0  0  0  0  0
  161.3500  202.8230  150.2270 O   0  0  0  0  0  0  0  0  0  0  0  0
  161.3150  206.9610  149.9910 C   0  0  0  0  0  0  0  0  0  0  0  0
  161.8960  209.2540  148.4810 S   0  0  0  0  0  0  0  0  0  0  0  0
  162.2040  210.3650  150.9370 C   0  0  0  0  0  2  0  0  0  0  0  0
  161.5290  207.0480  152.5410 C   0  0  1  0  0  3  0  0  0  0  0  0
  162.1840  208.9240  151.0830 N   0  0  1  0  0  0  0  0  0  0  0  0
  161.5200  202.5400  151.6130 C   0  0  0  0  0  3  0  0  0  0  0  0
  161.5220  208.5780  152.3330 C   0  0  0  0  0  2  0  0  0  0  0  0
  161.3000  204.1840  150.0150 C   0  0  0  0  0  0  0  0  0  0  0  0
  161.4190  204.8720  151.1920 C   0  0  0  0  0  0  0  0  0  0  0  0
  162.4690  210.6750  149.4730 C   0  0  2  0  0  3  0  0  0  0  0  0
  160.5860  207.3650  154.8150 C   0  0  0  0  0  2  0  0  0  0  0  0
  160.9590  206.0240  154.6280 O   0  0  0  0  0  0  0  0  0  0  0  0
  160.4080  206.6820  153.5110 C   0  0  2  0  0  3  0  0  0  0  0  0
  161.0570  202.8380  147.5190 O   0  0  0  0  0  0  0  0  0  0  0  0
  161.0080  204.0990  147.5140 C   0  0  0  0  0  0  0  0  0  0  0  0
  160.8160  204.8040  146.3170 O   0  0  0  0  0  0  0  0  0  0  0  0
  161.7950  205.0280  145.3410 C   0  0  0  0  0  0  0  0  0  0  0  0
  163.0060  204.8600  145.6370 O   0  0  0  0  0  0  0  0  0  0  0  0
  161.4550  205.4420  144.0190 N   0  0  0  0  0  1  0  0  0  0  0  0
  161.7610  211.8520  149.1020 O   0  0  0  0  0  0  0  0  0  0  0  0
  162.6750  213.3060  145.8020 C   0  0  0  0  0  3  0  0  0  0  0  0
  161.4470  213.2210  145.1410 C   0  0  0  0  0  3  0  0  0  0  0  0
  162.7910  212.8540  147.1190 C   0  0  0  0  0  3  0  0  0  0  0  0
  160.3350  212.6850  145.7960 C   0  0  0  0  0  3  0  0  0  0  0  0
  160.4520  212.2320  147.1150 C   0  0  0  0  0  3  0  0  0  0  0  0
  161.6780  212.3110  147.7830 C   0  0  0  0  0  0  0  0  0  0  0  0
  2  7  1  0  0  0  0
  3  2  2  0  0  0  0
  3 14  1  0  0  0  0
  4 10  1  0  0  0  0
  5  8  1  6  0  0  0
  5 11  1  0  0  0  0
  6 12  1  0  0  0  0
  7  5  1  0  0  0  0
  7  4  2  0  0  0  0
  8 16  1  0  0  0  0
 10 13  1  6  0  0  0
 10 19  1  0  0  0  0
 11  9  1  6  0  0  0
 11 13  1  0  0  0  0
 12  1  2  0  0  0  0
 14  6  1  0  0  0  0
 14 15  2  0  0  0  0
 15  4  1  0  0  0  0
 15  1  1  0  0  0  0
 16 26  1  6  0  0  0
 16  9  1  0  0  0  0
 18 17  1  0  0  0  0
 19 18  1  0  0  0  0
 19 17  1  1  0  0  0
 21 20  2  0  0  0  0
 21  3  1  0  0  0  0
 22 21  1  0  0  0  0
 23 24  2  0  0  0  0
 23 22  1  0  0  0  0
 25 23  1  0  0  0  0
 27 29  1  0  0  0  0
 28 30  1  0  0  0  0
 28 27  2  0  0  0  0
 29 32  2  0  0  0  0
 30 31  2  0  0  0  0
 31 32  1  0  0  0  0
 32 26  1  0  0  0  0
M  END
>  <MODEL>
1

>  <REMARK>
 VINA RESULT:      -8.0      0.000      0.000
  Name = 
  6 active torsions:
  status: ('A' for Active; 'I' for Inactive)
    1  A    between atoms: C_4  and  C_25
    2  A    between atoms: C_9  and  O_22
    3  A    between atoms: O_15  and  C_31
    4  A    between atoms: O_15  and  C_32
    5  A    between atoms: C_17  and  C_29
    6  A    between atoms: O_22  and  C_25
                            x       y       z     vdW  Elec       q    Type
                         _______ _______ _______ _____ _____    ______ ____

>  <TORSDO>
F 6

$$$$
=
 OpenBabel11072410293D

 32 37  0  0  1  0  0  0  0  0999 V2000
  161.5790  203.9070  152.4520 C   0  0  0  0  0  3  0  0  0  0  0  0
  161.1310  206.1720  148.8850 C   0  0  0  0  0  3  0  0  0  0  0  0
  161.1250  204.7680  148.9060 C   0  0  0  0  0  0  0  0  0  0  0  0
  161.3740  206.2530  151.3240 C   0  0  0  0  0  0  0  0  0  0  0  0
  161.2910  208.4170  150.0630 C   0  0  2  0  0  3  0  0  0  0  0  0
  161.3350  202.7820  150.3850 O   0  0  0  0  0  0  0  0  0  0  0  0
  161.2870  206.9150  150.0730 C   0  0  0  0  0  0  0  0  0  0  0  0
  161.8520  209.1810  148.5160 S   0  0  0  0  0  0  0  0  0  0  0  0
  162.1720  210.3380  150.9490 C   0  0  0  0  0  2  0  0  0  0  0  0
  161.5170  207.0500  152.6190 C   0  0  1  0  0  3  0  0  0  0  0  0
  162.1580  208.9000  151.1220 N   0  0  1  0  0  0  0  0  0  0  0  0
  161.5140  202.5250  151.7750 C   0  0  0  0  0  3  0  0  0  0  0  0
  161.5040  208.5750  152.3820 C   0  0  0  0  0  2  0  0  0  0  0  0
  161.2800  204.1390  150.1480 C   0  0  0  0  0  0  0  0  0  0  0  0
  161.4040  204.8480  151.3110 C   0  0  0  0  0  0  0  0  0  0  0  0
  162.4270  210.6210  149.4780 C   0  0  2  0  0  3  0  0  0  0  0  0
  160.5610  207.4420  154.8760 C   0  0  0  0  0  2  0  0  0  0  0  0
  160.9670  206.1030  154.7470 O   0  0  0  0  0  0  0  0  0  0  0  0
  160.4030  206.7000  153.6030 C   0  0  2  0  0  3  0  0  0  0  0  0
  161.4110  204.4920  146.5730 O   0  0  0  0  0  0  0  0  0  0  0  0
  160.9720  204.0060  147.6510 C   0  0  0  0  0  0  0  0  0  0  0  0
  160.3420  202.7530  147.6690 O   0  0  0  0  0  0  0  0  0  0  0  0
  160.8380  201.5860  147.0720 C   0  0  0  0  0  0  0  0  0  0  0  0
  160.7380  201.4460  145.8270 O   0  0  0  0  0  0  0  0  0  0  0  0
  161.4500  200.5530  147.8410 N   0  0  0  0  0  1  0  0  0  0  0  0
  161.7140  211.7900  149.0890 O   0  0  0  0  0  0  0  0  0  0  0  0
  160.3970  212.6450  145.7170 C   0  0  0  0  0  3  0  0  0  0  0  0
  161.5550  213.1380  145.1110 C   0  0  0  0  0  3  0  0  0  0  0  0
  160.4370  212.1950  147.0390 C   0  0  0  0  0  3  0  0  0  0  0  0
  162.7560  213.1780  145.8270 C   0  0  0  0  0  3  0  0  0  0  0  0
  162.7960  212.7280  147.1510 C   0  0  0  0  0  3  0  0  0  0  0  0
  161.6390  212.2350  147.7650 C   0  0  0  0  0  0  0  0  0  0  0  0
  2  3  2  0  0  0  0
  2  7  1  0  0  0  0
  3 14  1  0  0  0  0
  4 10  1  0  0  0  0
  5  8  1  6  0  0  0
  5  7  1  0  0  0  0
  5 11  1  0  0  0  0
  6 12  1  0  0  0  0
  7  4  2  0  0  0  0
  8 16  1  0  0  0  0
 10 13  1  6  0  0  0
 10 19  1  0  0  0  0
 11  9  1  6  0  0  0
 11 13  1  0  0  0  0
 12  1  2  0  0  0  0
 14  6  1  0  0  0  0
 14 15  2  0  0  0  0
 15  4  1  0  0  0  0
 15  1  1  0  0  0  0
 16 26  1  6  0  0  0
 16  9  1  0  0  0  0
 18 17  1  0  0  0  0
 19 18  1  0  0  0  0
 19 17  1  1  0  0  0
 20 21  2  0  0  0  0
 21 22  1  0  0  0  0
 21  3  1  0  0  0  0
 23 22  1  0  0  0  0
 23 25  1  0  0  0  0
 24 23  2  0  0  0  0
 27 29  1  0  0  0  0
 28 27  2  0  0  0  0
 28 30  1  0  0  0  0
 29 32  2  0  0  0  0
 30 31  2  0  0  0  0
 31 32  1  0  0  0  0
 32 26  1  0  0  0  0
M  END
>  <MODEL>
2

>  <REMARK>
 VINA RESULT:      -7.7      1.267      1.810
  Name = 
  6 active torsions:
  status: ('A' for Active; 'I' for Inactive)
    1  A    between atoms: C_4  and  C_25
    2  A    between atoms: C_9  and  O_22
    3  A    between atoms: O_15  and  C_31
    4  A    between atoms: O_15  and  C_32
    5  A    between atoms: C_17  and  C_29
    6  A    between atoms: O_22  and  C_25
                            x       y       z     vdW  Elec       q    Type
                         _______ _______ _______ _____ _____    ______ ____

>  <TORSDO>
F 6

$$$$
=
 OpenBabel11072410293D

 32 37  0  0  1  0  0  0  0  0999 V2000
  159.5590  212.6860  156.1790 C   0  0  0  0  0  3  0  0  0  0  0  0
  160.2410  210.9330  152.3690 C   0  0  0  0  0  3  0  0  0  0  0  0
  159.7410  212.2350  152.5350 C   0  0  0  0  0  0  0  0  0  0  0  0
  160.4230  210.6460  154.7980 C   0  0  0  0  0  0  0  0  0  0  0  0
  161.0890  208.7350  153.3190 C   0  0  2  0  0  3  0  0  0  0  0  0
  159.0570  213.9220  154.2260 O   0  0  0  0  0  0  0  0  0  0  0  0
  160.5500  210.1280  153.4830 C   0  0  0  0  0  0  0  0  0  0  0  0
  160.6100  207.8950  151.7840 S   0  0  0  0  0  0  0  0  0  0  0  0
  161.1110  206.5820  154.1050 C   0  0  0  0  0  2  0  0  0  0  0  0
  160.7800  209.7890  156.0100 C   0  0  1  0  0  3  0  0  0  0  0  0
  160.6300  207.9110  154.4220 N   0  0  1  0  0  0  0  0  0  0  0  0
  159.0140  214.0250  155.6460 C   0  0  0  0  0  3  0  0  0  0  0  0
  161.3070  208.3930  155.6170 C   0  0  0  0  0  2  0  0  0  0  0  0
  159.5620  212.6980  153.8440 C   0  0  0  0  0  0  0  0  0  0  0  0
  159.8850  211.9360  154.9340 C   0  0  0  0  0  0  0  0  0  0  0  0
  160.7520  206.2980  152.6550 C   0  0  2  0  0  3  0  0  0  0  0  0
  163.0960  210.6750  156.1340 C   0  0  0  0  0  2  0  0  0  0  0  0
  162.9310  209.6200  157.0470 O   0  0  0  0  0  0  0  0  0  0  0  0
  161.8290  210.4800  156.8790 C   0  0  2  0  0  3  0  0  0  0  0  0
  158.2030  213.2830  151.0720 O   0  0  0  0  0  0  0  0  0  0  0  0
  159.4120  213.0610  151.3560 C   0  0  0  0  0  0  0  0  0  0  0  0
  160.4430  213.5880  150.5650 O   0  0  0  0  0  0  0  0  0  0  0  0
  160.7810  213.1550  149.2760 C   0  0  0  0  0  0  0  0  0  0  0  0
  161.5640  212.1800  149.1430 O   0  0  0  0  0  0  0  0  0  0  0  0
  160.2600  213.7910  148.1110 N   0  0  0  0  0  1  0  0  0  0  0  0
  161.7700  205.5010  152.0610 O   0  0  0  0  0  0  0  0  0  0  0  0
  161.0970  203.7060  148.8740 C   0  0  0  0  0  3  0  0  0  0  0  0
  160.9690  202.3970  149.3440 C   0  0  0  0  0  3  0  0  0  0  0  0
  161.3640  204.7470  149.7680 C   0  0  0  0  0  3  0  0  0  0  0  0
  161.1060  202.1280  150.7090 C   0  0  0  0  0  3  0  0  0  0  0  0
  161.3730  203.1690  151.6040 C   0  0  0  0  0  3  0  0  0  0  0  0
  161.5060  204.4830  151.1400 C   0  0  0  0  0  0  0  0  0  0  0  0
  2  3  2  0  0  0  0
  2  7  1  0  0  0  0
  3 14  1  0  0  0  0
  4 15  1  0  0  0  0
  4 10  1  0  0  0  0
  5  8  1  6  0  0  0
  5  7  1  0  0  0  0
  5 11  1  0  0  0  0
  6 12  1  0  0  0  0
  7  4  2  0  0  0  0
  8 16  1  0  0  0  0
 10 13  1  6  0  0  0
 10 19  1  0  0  0  0
 11  9  1  6  0  0  0
 11 13  1  0  0  0  0
 12  1  2  0  0  0  0
 14  6  1  0  0  0  0
 14 15  2  0  0  0  0
 15  1  1  0  0  0  0
 16 26  1  6  0  0  0
 16  9  1  0  0  0  0
 17 18  1  0  0  0  0
 19 17  1  6  0  0  0
 19 18  1  0  0  0  0
 20 21  2  0  0  0  0
 21  3  1  0  0  0  0
 22 21  1  0  0  0  0
 23 22  1  0  0  0  0
 24 23  2  0  0  0  0
 25 23  1  0  0  0  0
 27 28  2  0  0  0  0
 27 29  1  0  0  0  0
 28 30  1  0  0  0  0
 29 32  2  0  0  0  0
 30 31  2  0  0  0  0
 32 31  1  0  0  0  0
 32 26  1  0  0  0  0
M  END
>  <MODEL>
3

>  <REMARK>
 VINA RESULT:      -7.6      3.466      8.193
  Name = 
  6 active torsions:
  status: ('A' for Active; 'I' for Inactive)
    1  A    between atoms: C_4  and  C_25
    2  A    between atoms: C_9  and  O_22
    3  A    between atoms: O_15  and  C_31
    4  A    between atoms: O_15  and  C_32
    5  A    between atoms: C_17  and  C_29
    6  A    between atoms: O_22  and  C_25
                            x       y       z     vdW  Elec       q    Type
                         _______ _______ _______ _____ _____    ______ ____

>  <TORSDO>
F 6

$$$$
=
 OpenBabel11072410293D

 32 37  0  0  1  0  0  0  0  0999 V2000
  159.9320  211.0870  155.2180 C   0  0  0  0  0  3  0  0  0  0  0  0
  161.0600  209.7350  151.3510 C   0  0  0  0  0  3  0  0  0  0  0  0
  160.7670  211.0790  151.6380 C   0  0  0  0  0  0  0  0  0  0  0  0
  160.6940  209.1100  153.6940 C   0  0  0  0  0  0  0  0  0  0  0  0
  161.3090  207.3090  152.0620 C   0  0  2  0  0  3  0  0  0  0  0  0
  160.0540  212.6380  153.4360 O   0  0  0  0  0  0  0  0  0  0  0  0
  160.9940  208.7490  152.3550 C   0  0  0  0  0  0  0  0  0  0  0  0
  161.0140  206.7850  150.3500 S   0  0  0  0  0  0  0  0  0  0  0  0
  160.8030  205.1130  152.4760 C   0  0  0  0  0  2  0  0  0  0  0  0
  160.6470  208.0510  154.7940 C   0  0  1  0  0  3  0  0  0  0  0  0
  160.5030  206.4590  152.9180 N   0  0  1  0  0  0  0  0  0  0  0  0
  159.7430  212.5640  154.8250 C   0  0  0  0  0  3  0  0  0  0  0  0
  160.9960  206.6390  154.2760 C   0  0  0  0  0  2  0  0  0  0  0  0
  160.4090  211.3970  152.9540 C   0  0  0  0  0  0  0  0  0  0  0  0
  160.3690  210.4530  153.9440 C   0  0  0  0  0  0  0  0  0  0  0  0
  160.7010  205.0940  150.9590 C   0  0  2  0  0  3  0  0  0  0  0  0
  161.1940  207.7410  157.1950 C   0  0  0  0  0  2  0  0  0  0  0  0
  160.8900  209.0880  156.9370 O   0  0  0  0  0  0  0  0  0  0  0  0
  161.6010  208.4020  155.9330 C   0  0  2  0  0  3  0  0  0  0  0  0
  160.0790  213.1090  150.6340 O   0  0  0  0  0  0  0  0  0  0  0  0
  160.8290  212.0970  150.5710 C   0  0  0  0  0  0  0  0  0  0  0  0
  161.7190  211.9300  149.5000 O   0  0  0  0  0  0  0  0  0  0  0  0
  161.6210  212.5670  148.2560 C   0  0  0  0  0  0  0  0  0  0  0  0
  160.8630  212.0820  147.3770 O   0  0  0  0  0  0  0  0  0  0  0  0
  162.3600  213.7500  147.9590 N   0  0  0  0  0  1  0  0  0  0  0  0
  161.6670  204.1930  150.4310 O   0  0  0  0  0  0  0  0  0  0  0  0
  160.7000  201.0870  148.6260 C   0  0  0  0  0  3  0  0  0  0  0  0
  160.8420  201.5100  147.3020 C   0  0  0  0  0  3  0  0  0  0  0  0
  160.9710  201.9700  149.6750 C   0  0  0  0  0  3  0  0  0  0  0  0
  161.2570  202.8170  147.0260 C   0  0  0  0  0  3  0  0  0  0  0  0
  161.5280  203.7010  148.0760 C   0  0  0  0  0  3  0  0  0  0  0  0
  161.3860  203.2850  149.4050 C   0  0  0  0  0  0  0  0  0  0  0  0
  2  3  2  0  0  0  0
  2  7  1  0  0  0  0
  3 14  1  0  0  0  0
  4 15  1  0  0  0  0
  4 10  1  0  0  0  0
  5  8  1  6  0  0  0
  5  7  1  0  0  0  0
  5 11  1  0  0  0  0
  6 12  1  0  0  0  0
  7  4  2  0  0  0  0
  8 16  1  0  0  0  0
 10 13  1  6  0  0  0
 10 19  1  0  0  0  0
 11  9  1  6  0  0  0
 11 13  1  0  0  0  0
 12  1  2  0  0  0  0
 14  6  1  0  0  0  0
 14 15  2  0  0  0  0
 15  1  1  0  0  0  0
 16 26  1  6  0  0  0
 16  9  1  0  0  0  0
 18 17  1  0  0  0  0
 19 18  1  0  0  0  0
 19 17  1  1  0  0  0
 21 20  2  0  0  0  0
 21  3  1  0  0  0  0
 22 21  1  0  0  0  0
 23 22  1  0  0  0  0
 24 23  2  0  0  0  0
 25 23  1  0  0  0  0
 27 29  1  0  0  0  0
 28 27  2  0  0  0  0
 30 28  1  0  0  0  0
 30 31  2  0  0  0  0
 31 32  1  0  0  0  0
 32 29  2  0  0  0  0
 32 26  1  0  0  0  0
M  END
>  <MODEL>
4

>  <REMARK>
 VINA RESULT:      -7.2      2.798      7.564
  Name = 
  6 active torsions:
  status: ('A' for Active; 'I' for Inactive)
    1  A    between atoms: C_4  and  C_25
    2  A    between atoms: C_9  and  O_22
    3  A    between atoms: O_15  and  C_31
    4  A    between atoms: O_15  and  C_32
    5  A    between atoms: C_17  and  C_29
    6  A    between atoms: O_22  and  C_25
                            x       y       z     vdW  Elec       q    Type
                         _______ _______ _______ _____ _____    ______ ____

>  <TORSDO>
F 6

$$$$
=
 OpenBabel11072410293D

 32 37  0  0  1  0  0  0  0  0999 V2000
  159.5460  212.3660  156.4520 C   0  0  0  0  0  3  0  0  0  0  0  0
  160.4060  210.8810  152.5650 C   0  0  0  0  0  3  0  0  0  0  0  0
  159.9390  212.1840  152.8010 C   0  0  0  0  0  0  0  0  0  0  0  0
  160.4280  210.4060  154.9710 C   0  0  0  0  0  0  0  0  0  0  0  0
  161.1240  208.5880  153.3910 C   0  0  2  0  0  3  0  0  0  0  0  0
  159.2050  213.7630  154.5740 O   0  0  0  0  0  0  0  0  0  0  0  0
  160.6200  209.9840  153.6300 C   0  0  0  0  0  0  0  0  0  0  0  0
  160.7150  207.8840  151.7700 S   0  0  0  0  0  0  0  0  0  0  0  0
  161.0290  206.3830  154.0080 C   0  0  0  0  0  2  0  0  0  0  0  0
  160.6830  209.4480  156.1330 C   0  0  1  0  0  3  0  0  0  0  0  0
  160.5720  207.7010  154.3980 N   0  0  1  0  0  0  0  0  0  0  0  0
  159.0780  213.7600  155.9920 C   0  0  0  0  0  3  0  0  0  0  0  0
  161.1890  208.0670  155.6650 C   0  0  0  0  0  2  0  0  0  0  0  0
  159.6940  212.5540  154.1300 C   0  0  0  0  0  0  0  0  0  0  0  0
  159.9240  211.7010  155.1750 C   0  0  0  0  0  0  0  0  0  0  0  0
  160.7510  206.2220  152.5220 C   0  0  2  0  0  3  0  0  0  0  0  0
  162.9880  210.3180  156.4410 C   0  0  0  0  0  2  0  0  0  0  0  0
  162.7990  209.1610  157.2160 O   0  0  0  0  0  0  0  0  0  0  0  0
  161.6980  210.0340  157.1130 C   0  0  2  0  0  3  0  0  0  0  0  0
  160.4220  213.0100  150.6360 O   0  0  0  0  0  0  0  0  0  0  0  0
  159.7090  213.1070  151.6720 C   0  0  0  0  0  0  0  0  0  0  0  0
  158.7040  214.0810  151.7620 O   0  0  0  0  0  0  0  0  0  0  0  0
  157.3320  213.8500  151.6030 C   0  0  0  0  0  0  0  0  0  0  0  0
  156.8670  213.6950  150.4450 O   0  0  0  0  0  0  0  0  0  0  0  0
  156.4480  213.7860  152.7200 N   0  0  0  0  0  1  0  0  0  0  0  0
  161.7790  205.4360  151.9300 O   0  0  0  0  0  0  0  0  0  0  0  0
  161.2270  201.9600  150.7260 C   0  0  0  0  0  3  0  0  0  0  0  0
  161.0070  202.1960  149.3670 C   0  0  0  0  0  3  0  0  0  0  0  0
  161.4850  203.0290  151.5880 C   0  0  0  0  0  3  0  0  0  0  0  0
  161.0450  203.5020  148.8690 C   0  0  0  0  0  3  0  0  0  0  0  0
  161.3030  204.5720  149.7320 C   0  0  0  0  0  3  0  0  0  0  0  0
  161.5220  204.3440  151.0950 C   0  0  0  0  0  0  0  0  0  0  0  0
  2  3  2  0  0  0  0
  2  7  1  0  0  0  0
  3 14  1  0  0  0  0
  4 15  1  0  0  0  0
  4 10  1  0  0  0  0
  5  8  1  6  0  0  0
  5  7  1  0  0  0  0
  5 11  1  0  0  0  0
  6 12  1  0  0  0  0
  7  4  2  0  0  0  0
  8 16  1  0  0  0  0
 10 13  1  6  0  0  0
 10 19  1  0  0  0  0
 11  9  1  6  0  0  0
 11 13  1  0  0  0  0
 12  1  2  0  0  0  0
 14  6  1  0  0  0  0
 14 15  2  0  0  0  0
 15  1  1  0  0  0  0
 16 26  1  6  0  0  0
 16  9  1  0  0  0  0
 17 18  1  0  0  0  0
 19 17  1  6  0  0  0
 19 18  1  0  0  0  0
 20 21  2  0  0  0  0
 21 22  1  0  0  0  0
 21  3  1  0  0  0  0
 23 22  1  0  0  0  0
 23 25  1  0  0  0  0
 24 23  2  0  0  0  0
 27 29  1  0  0  0  0
 28 27  2  0  0  0  0
 30 28  1  0  0  0  0
 30 31  2  0  0  0  0
 31 32  1  0  0  0  0
 32 29  2  0  0  0  0
 32 26  1  0  0  0  0
M  END
>  <MODEL>
5

>  <REMARK>
 VINA RESULT:      -7.1      4.078      8.614
  Name = 
  6 active torsions:
  status: ('A' for Active; 'I' for Inactive)
    1  A    between atoms: C_4  and  C_25
    2  A    between atoms: C_9  and  O_22
    3  A    between atoms: O_15  and  C_31
    4  A    between atoms: O_15  and  C_32
    5  A    between atoms: C_17  and  C_29
    6  A    between atoms: O_22  and  C_25
                            x       y       z     vdW  Elec       q    Type
                         _______ _______ _______ _____ _____    ______ ____

>  <TORSDO>
F 6

$$$$
=
 OpenBabel11072410293D

 32 37  0  0  1  0  0  0  0  0999 V2000
  160.6310  209.9060  152.9510 C   0  0  0  0  0  3  0  0  0  0  0  0
  161.9550  209.1910  148.9770 C   0  0  0  0  0  3  0  0  0  0  0  0
  161.8660  210.4770  149.5360 C   0  0  0  0  0  0  0  0  0  0  0  0
  161.2170  208.1770  151.0850 C   0  0  0  0  0  0  0  0  0  0  0  0
  161.7000  206.6690  149.1410 C   0  0  2  0  0  3  0  0  0  0  0  0
  161.2260  211.7380  151.5780 O   0  0  0  0  0  0  0  0  0  0  0  0
  161.6050  208.0500  149.7260 C   0  0  0  0  0  0  0  0  0  0  0  0
  161.5220  206.5770  147.3380 S   0  0  0  0  0  0  0  0  0  0  0  0
  160.7800  204.5740  149.0110 C   0  0  0  0  0  2  0  0  0  0  0  0
  160.8610  206.9430  151.9110 C   0  0  1  0  0  3  0  0  0  0  0  0
  160.6650  205.8320  149.7200 N   0  0  1  0  0  0  0  0  0  0  0  0
  160.7460  211.4400  152.8860 C   0  0  0  0  0  3  0  0  0  0  0  0
  161.0200  205.6290  151.1170 C   0  0  0  0  0  2  0  0  0  0  0  0
  161.4160  210.5790  150.8580 C   0  0  0  0  0  0  0  0  0  0  0  0
  161.1000  209.4760  151.6040 C   0  0  0  0  0  0  0  0  0  0  0  0
  160.8540  204.8890  147.5260 C   0  0  2  0  0  3  0  0  0  0  0  0
  161.2320  205.8010  154.0830 C   0  0  0  0  0  2  0  0  0  0  0  0
  160.9250  207.1550  154.2940 O   0  0  0  0  0  0  0  0  0  0  0  0
  161.7210  206.8610  153.1700 C   0  0  2  0  0  3  0  0  0  0  0  0
  163.4180  211.8100  148.3440 O   0  0  0  0  0  0  0  0  0  0  0  0
  162.2270  211.6630  148.7330 C   0  0  0  0  0  0  0  0  0  0  0  0
  161.2440  212.6110  148.4120 O   0  0  0  0  0  0  0  0  0  0  0  0
  160.7410  212.8560  147.1280 C   0  0  0  0  0  0  0  0  0  0  0  0
  159.8190  212.1250  146.6820 O   0  0  0  0  0  0  0  0  0  0  0  0
  161.2470  213.9100  146.3120 N   0  0  0  0  0  1  0  0  0  0  0  0
  161.7070  203.9480  146.8830 O   0  0  0  0  0  0  0  0  0  0  0  0
  160.1080  201.2440  144.8920 C   0  0  0  0  0  3  0  0  0  0  0  0
  160.4290  200.1320  145.6750 C   0  0  0  0  0  3  0  0  0  0  0  0
  160.5280  202.5180  145.2840 C   0  0  0  0  0  3  0  0  0  0  0  0
  161.1680  200.2930  146.8500 C   0  0  0  0  0  3  0  0  0  0  0  0
  161.5890  201.5680  147.2420 C   0  0  0  0  0  3  0  0  0  0  0  0
  161.2740  202.6870  146.4620 C   0  0  0  0  0  0  0  0  0  0  0  0
  2  3  2  0  0  0  0
  2  7  1  0  0  0  0
  3 14  1  0  0  0  0
  4 15  1  0  0  0  0
  4 10  1  0  0  0  0
  5  8  1  6  0  0  0
  5 11  1  0  0  0  0
  5  7  1  0  0  0  0
  6 12  1  0  0  0  0
  7  4  2  0  0  0  0
  8 16  1  0  0  0  0
 10 13  1  6  0  0  0
 10 19  1  0  0  0  0
 11  9  1  6  0  0  0
 11 13  1  0  0  0  0
 12  1  2  0  0  0  0
 14  6  1  0  0  0  0
 14 15  2  0  0  0  0
 15  1  1  0  0  0  0
 16 26  1  6  0  0  0
 16  9  1  0  0  0  0
 17 18  1  0  0  0  0
 19 17  1  1  0  0  0
 19 18  1  0  0  0  0
 20 21  2  0  0  0  0
 21  3  1  0  0  0  0
 22 21  1  0  0  0  0
 23 22  1  0  0  0  0
 24 23  2  0  0  0  0
 25 23  1  0  0  0  0
 27 29  2  0  0  0  0
 27 28  1  0  0  0  0
 28 30  2  0  0  0  0
 29 32  1  0  0  0  0
 30 31  1  0  0  0  0
 32 26  1  0  0  0  0
 32 31  2  0  0  0  0
M  END
>  <MODEL>
6

>  <REMARK>
 VINA RESULT:      -7.0      2.412      7.345
  Name = 
  6 active torsions:
  status: ('A' for Active; 'I' for Inactive)
    1  A    between atoms: C_4  and  C_25
    2  A    between atoms: C_9  and  O_22
    3  A    between atoms: O_15  and  C_31
    4  A    between atoms: O_15  and  C_32
    5  A    between atoms: C_17  and  C_29
    6  A    between atoms: O_22  and  C_25
                            x       y       z     vdW  Elec       q    Type
                         _______ _______ _______ _____ _____    ______ ____

>  <TORSDO>
F 6

$$$$
=
 OpenBabel11072410293D

 32 37  0  0  1  0  0  0  0  0999 V2000
  161.4900  201.9880  150.1990 C   0  0  0  0  0  3  0  0  0  0  0  0
  161.1750  205.2030  147.4390 C   0  0  0  0  0  3  0  0  0  0  0  0
  161.2010  203.8550  147.0450 C   0  0  0  0  0  0  0  0  0  0  0  0
  161.2880  204.5600  149.8030 C   0  0  0  0  0  0  0  0  0  0  0  0
  161.2190  207.0000  149.2340 C   0  0  2  0  0  3  0  0  0  0  0  0
  161.3810  201.5220  147.8820 O   0  0  0  0  0  0  0  0  0  0  0  0
  161.2510  205.5620  148.8000 C   0  0  0  0  0  0  0  0  0  0  0  0
  161.8420  208.1910  148.0160 S   0  0  0  0  0  0  0  0  0  0  0  0
  162.0060  208.5800  150.6960 C   0  0  0  0  0  2  0  0  0  0  0  0
  161.3430  204.9400  151.2810 C   0  0  1  0  0  3  0  0  0  0  0  0
  162.0170  207.1550  150.4360 N   0  0  1  0  0  0  0  0  0  0  0  0
  161.4930  200.8670  149.1420 C   0  0  0  0  0  3  0  0  0  0  0  0
  161.3070  206.4670  151.5050 C   0  0  0  0  0  2  0  0  0  0  0  0
  161.3060  202.8880  148.0530 C   0  0  0  0  0  0  0  0  0  0  0  0
  161.3520  203.2230  149.3790 C   0  0  0  0  0  0  0  0  0  0  0  0
  162.3310  209.2870  149.3900 C   0  0  2  0  0  3  0  0  0  0  0  0
  160.4440  204.3280  153.5130 C   0  0  0  0  0  2  0  0  0  0  0  0
  160.6600  203.1720  152.7430 O   0  0  0  0  0  0  0  0  0  0  0  0
  160.1880  204.3060  152.0530 C   0  0  2  0  0  3  0  0  0  0  0  0
  160.5040  202.4620  145.2620 O   0  0  0  0  0  0  0  0  0  0  0  0
  161.1330  203.4980  145.6140 C   0  0  0  0  0  0  0  0  0  0  0  0
  161.7670  204.3090  144.6630 O   0  0  0  0  0  0  0  0  0  0  0  0
  161.2350  205.4820  144.1120 C   0  0  0  0  0  0  0  0  0  0  0  0
  161.5820  205.8270  142.9530 O   0  0  0  0  0  0  0  0  0  0  0  0
  160.3110  206.2970  144.8310 N   0  0  0  0  0  1  0  0  0  0  0  0
  161.6110  210.5130  149.3230 O   0  0  0  0  0  0  0  0  0  0  0  0
  163.3120  213.1160  147.2810 C   0  0  0  0  0  3  0  0  0  0  0  0
  162.2850  213.4520  146.3960 C   0  0  0  0  0  3  0  0  0  0  0  0
  163.1000  212.1400  148.2580 C   0  0  0  0  0  3  0  0  0  0  0  0
  161.0440  212.8140  146.4890 C   0  0  0  0  0  3  0  0  0  0  0  0
  160.8320  211.8360  147.4660 C   0  0  0  0  0  3  0  0  0  0  0  0
  161.8570  211.4920  148.3550 C   0  0  0  0  0  0  0  0  0  0  0  0
  2  7  1  0  0  0  0
  3  2  2  0  0  0  0
  3 14  1  0  0  0  0
  4 10  1  0  0  0  0
  5  8  1  6  0  0  0
  5 11  1  0  0  0  0
  6 14  1  0  0  0  0
  6 12  1  0  0  0  0
  7  5  1  0  0  0  0
  7  4  2  0  0  0  0
  8 16  1  0  0  0  0
 10 13  1  6  0  0  0
 10 19  1  0  0  0  0
 11  9  1  1  0  0  0
 11 13  1  0  0  0  0
 12  1  2  0  0  0  0
 14 15  2  0  0  0  0
 15  4  1  0  0  0  0
 15  1  1  0  0  0  0
 16 26  1  6  0  0  0
 16  9  1  0  0  0  0
 18 17  1  0  0  0  0
 19 18  1  0  0  0  0
 19 17  1  1  0  0  0
 20 21  2  0  0  0  0
 21  3  1  0  0  0  0
 22 21  1  0  0  0  0
 23 22  1  0  0  0  0
 23 25  1  0  0  0  0
 24 23  2  0  0  0  0
 27 29  1  0  0  0  0
 28 30  1  0  0  0  0
 28 27  2  0  0  0  0
 29 32  2  0  0  0  0
 30 31  2  0  0  0  0
 31 32  1  0  0  0  0
 32 26  1  0  0  0  0
M  END
>  <MODEL>
7

>  <REMARK>
 VINA RESULT:      -6.6      1.556      2.131
  Name = 
  6 active torsions:
  status: ('A' for Active; 'I' for Inactive)
    1  A    between atoms: C_4  and  C_25
    2  A    between atoms: C_9  and  O_22
    3  A    between atoms: O_15  and  C_31
    4  A    between atoms: O_15  and  C_32
    5  A    between atoms: C_17  and  C_29
    6  A    between atoms: O_22  and  C_25
                            x       y       z     vdW  Elec       q    Type
                         _______ _______ _______ _____ _____    ______ ____

>  <TORSDO>
F 6

$$$$
=
 OpenBabel11072410293D

 32 37  0  0  1  0  0  0  0  0999 V2000
  162.4380  210.5160  152.1430 C   0  0  0  0  0  3  0  0  0  0  0  0
  160.9260  206.5720  151.6910 C   0  0  0  0  0  3  0  0  0  0  0  0
  161.0280  207.2150  152.9360 C   0  0  0  0  0  0  0  0  0  0  0  0
  161.7790  208.5630  150.5420 C   0  0  0  0  0  0  0  0  0  0  0  0
  161.2160  206.5430  149.1680 C   0  0  2  0  0  3  0  0  0  0  0  0
  161.7560  209.3080  154.0590 O   0  0  0  0  0  0  0  0  0  0  0  0
  161.3250  207.2190  150.5050 C   0  0  0  0  0  0  0  0  0  0  0  0
  161.3050  204.7320  149.2050 S   0  0  0  0  0  0  0  0  0  0  0  0
  162.1510  206.2200  147.1010 C   0  0  0  0  0  2  0  0  0  0  0  0
  162.1890  209.2810  149.2580 C   0  0  1  0  0  3  0  0  0  0  0  0
  162.2870  207.0100  148.3070 N   0  0  1  0  0  0  0  0  0  0  0  0
  162.3040  210.5660  153.6770 C   0  0  0  0  0  3  0  0  0  0  0  0
  162.0040  208.4050  148.0010 C   0  0  0  0  0  2  0  0  0  0  0  0
  161.5430  208.5170  152.9510 C   0  0  0  0  0  0  0  0  0  0  0  0
  161.9080  209.1670  151.8030 C   0  0  0  0  0  0  0  0  0  0  0  0
  161.9990  204.7660  147.5180 C   0  0  2  0  0  3  0  0  0  0  0  0
  161.8750  211.3350  147.8990 C   0  0  0  0  0  2  0  0  0  0  0  0
  162.2620  211.6730  149.2060 O   0  0  0  0  0  0  0  0  0  0  0  0
  161.3940  210.5720  149.0750 C   0  0  2  0  0  3  0  0  0  0  0  0
  161.0440  205.3520  154.3960 O   0  0  0  0  0  0  0  0  0  0  0  0
  160.6160  206.5170  154.1690 C   0  0  0  0  0  0  0  0  0  0  0  0
  159.7540  207.1530  155.0750 O   0  0  0  0  0  0  0  0  0  0  0  0
  160.0710  207.4940  156.3950 C   0  0  0  0  0  0  0  0  0  0  0  0
  160.3060  206.5790  157.2250 O   0  0  0  0  0  0  0  0  0  0  0  0
  160.1340  208.8530  156.8250 N   0  0  0  0  0  1  0  0  0  0  0  0
  161.1260  204.1010  146.6120 O   0  0  0  0  0  0  0  0  0  0  0  0
  161.3900  200.4810  147.4250 C   0  0  0  0  0  3  0  0  0  0  0  0
  160.8310  199.9230  146.2720 C   0  0  0  0  0  3  0  0  0  0  0  0
  161.4930  201.8700  147.5490 C   0  0  0  0  0  3  0  0  0  0  0  0
  160.3760  200.7530  145.2430 C   0  0  0  0  0  3  0  0  0  0  0  0
  160.4780  202.1420  145.3680 C   0  0  0  0  0  3  0  0  0  0  0  0
  161.0350  202.7090  146.5200 C   0  0  0  0  0  0  0  0  0  0  0  0
  1 12  2  0  0  0  0
  2  3  1  0  0  0  0
  3 14  2  0  0  0  0
  3 21  1  0  0  0  0
  4 15  2  0  0  0  0
  5  8  1  1  0  0  0
  5  7  1  0  0  0  0
  7  4  1  0  0  0  0
  7  2  2  0  0  0  0
  9 16  1  0  0  0  0
 10 13  1  6  0  0  0
 10  4  1  0  0  0  0
 11  9  1  6  0  0  0
 11  5  1  0  0  0  0
 12  6  1  0  0  0  0
 13 11  1  0  0  0  0
 14  6  1  0  0  0  0
 15  1  1  0  0  0  0
 15 14  1  0  0  0  0
 16 26  1  6  0  0  0
 16  8  1  0  0  0  0
 17 18  1  0  0  0  0
 19 17  1  6  0  0  0
 19 18  1  0  0  0  0
 19 10  1  0  0  0  0
 21 20  2  0  0  0  0
 21 22  1  0  0  0  0
 22 23  1  0  0  0  0
 23 25  1  0  0  0  0
 23 24  2  0  0  0  0
 27 29  1  0  0  0  0
 28 27  2  0  0  0  0
 30 31  2  0  0  0  0
 30 28  1  0  0  0  0
 31 32  1  0  0  0  0
 32 26  1  0  0  0  0
 32 29  2  0  0  0  0
M  END
>  <MODEL>
8

>  <REMARK>
 VINA RESULT:      -6.0      2.423      8.063
  Name = 
  6 active torsions:
  status: ('A' for Active; 'I' for Inactive)
    1  A    between atoms: C_4  and  C_25
    2  A    between atoms: C_9  and  O_22
    3  A    between atoms: O_15  and  C_31
    4  A    between atoms: O_15  and  C_32
    5  A    between atoms: C_17  and  C_29
    6  A    between atoms: O_22  and  C_25
                            x       y       z     vdW  Elec       q    Type
                         _______ _______ _______ _____ _____    ______ ____

>  <TORSDO>
F 6

$$$$
=
 OpenBabel11072410293D

 32 37  0  0  1  0  0  0  0  0999 V2000
  162.3870  206.9190  149.4620 C   0  0  0  0  0  3  0  0  0  0  0  0
  161.2140  210.4430  151.5260 C   0  0  0  0  0  3  0  0  0  0  0  0
  161.5770  210.4350  150.1680 C   0  0  0  0  0  0  0  0  0  0  0  0
  161.5290  208.0150  151.6700 C   0  0  0  0  0  0  0  0  0  0  0  0
  160.8290  209.2520  153.7350 C   0  0  2  0  0  3  0  0  0  0  0  0
  162.3610  208.9850  148.3090 O   0  0  0  0  0  0  0  0  0  0  0  0
  161.2190  209.2560  152.2840 C   0  0  0  0  0  0  0  0  0  0  0  0
  161.1070  210.8120  154.6170 S   0  0  0  0  0  0  0  0  0  0  0  0
  161.2130  208.3830  155.8220 C   0  0  0  0  0  2  0  0  0  0  0  0
  161.5110  206.7200  152.4790 C   0  0  1  0  0  3  0  0  0  0  0  0
  161.5820  208.2240  154.4300 N   0  0  1  0  0  0  0  0  0  0  0  0
  162.6580  207.6060  148.1100 C   0  0  0  0  0  3  0  0  0  0  0  0
  161.0900  206.9410  153.9470 C   0  0  0  0  0  2  0  0  0  0  0  0
  161.9430  209.2070  149.6040 C   0  0  0  0  0  0  0  0  0  0  0  0
  161.9250  208.0430  150.3230 C   0  0  0  0  0  0  0  0  0  0  0  0
  161.3240  209.8610  156.1600 C   0  0  2  0  0  3  0  0  0  0  0  0
  160.8400  204.3330  152.3660 C   0  0  0  0  0  2  0  0  0  0  0  0
  161.3260  204.7590  151.1190 O   0  0  0  0  0  0  0  0  0  0  0  0
  160.5690  205.6950  151.8500 C   0  0  2  0  0  3  0  0  0  0  0  0
  160.6160  212.4970  149.5150 O   0  0  0  0  0  0  0  0  0  0  0  0
  161.5780  211.6900  149.3910 C   0  0  0  0  0  0  0  0  0  0  0  0
  162.6440  211.9730  148.5260 O   0  0  0  0  0  0  0  0  0  0  0  0
  162.7150  213.0670  147.6550 C   0  0  0  0  0  0  0  0  0  0  0  0
  163.1590  214.1630  148.0830 O   0  0  0  0  0  0  0  0  0  0  0  0
  162.2950  212.9720  146.2950 N   0  0  0  0  0  1  0  0  0  0  0  0
  160.3140  210.2100  157.1000 O   0  0  0  0  0  0  0  0  0  0  0  0
  157.1380  211.6840  155.8440 C   0  0  0  0  0  3  0  0  0  0  0  0
  157.2790  213.0010  156.2870 C   0  0  0  0  0  3  0  0  0  0  0  0
  158.1400  210.7470  156.1090 C   0  0  0  0  0  3  0  0  0  0  0  0
  158.4230  213.3830  156.9940 C   0  0  0  0  0  3  0  0  0  0  0  0
  159.4260  212.4450  157.2600 C   0  0  0  0  0  3  0  0  0  0  0  0
  159.2920  211.1220  156.8210 C   0  0  0  0  0  0  0  0  0  0  0  0
  1 15  1  0  0  0  0
  2  7  1  0  0  0  0
  3  2  2  0  0  0  0
  4  7  2  0  0  0  0
  4 10  1  0  0  0  0
  5  7  1  6  0  0  0
  5 11  1  0  0  0  0
  5  8  1  0  0  0  0
  6 14  1  0  0  0  0
  8 16  1  0  0  0  0
  9 16  1  0  0  0  0
 10 13  1  1  0  0  0
 11 13  1  6  0  0  0
 11  9  1  0  0  0  0
 12  6  1  0  0  0  0
 12  1  2  0  0  0  0
 14  3  1  0  0  0  0
 14 15  2  0  0  0  0
 15  4  1  0  0  0  0
 16 26  1  1  0  0  0
 18 19  1  0  0  0  0
 18 17  1  0  0  0  0
 19 17  1  1  0  0  0
 19 10  1  0  0  0  0
 21 20  2  0  0  0  0
 21  3  1  0  0  0  0
 22 21  1  0  0  0  0
 23 24  2  0  0  0  0
 23 22  1  0  0  0  0
 25 23  1  0  0  0  0
 27 29  2  0  0  0  0
 27 28  1  0  0  0  0
 28 30  2  0  0  0  0
 29 32  1  0  0  0  0
 30 31  1  0  0  0  0
 32 26  1  0  0  0  0
 32 31  2  0  0  0  0
M  END
>  <MODEL>
9

>  <REMARK>
 VINA RESULT:      -5.8      3.381      7.091
  Name = 
  6 active torsions:
  status: ('A' for Active; 'I' for Inactive)
    1  A    between atoms: C_4  and  C_25
    2  A    between atoms: C_9  and  O_22
    3  A    between atoms: O_15  and  C_31
    4  A    between atoms: O_15  and  C_32
    5  A    between atoms: C_17  and  C_29
    6  A    between atoms: O_22  and  C_25
                            x       y       z     vdW  Elec       q    Type
                         _______ _______ _______ _____ _____    ______ ____

>  <TORSDO>
F 6

$$$$
