=
 OpenBabel11072411313D

 52 56  0  0  1  0  0  0  0  0999 V2000
  157.7820  213.1860  149.1650 N   0  0  0  0  0  0  0  0  0  0  0  0
  159.7850  213.4360  147.8580 C   0  0  0  0  0  0  0  0  0  0  0  0
  158.9990  213.3280  146.6930 C   0  0  0  0  0  0  0  0  0  0  0  0
  159.1320  213.3540  149.1170 C   0  0  0  0  0  0  0  0  0  0  0  0
  157.0190  213.0950  148.0470 C   0  0  0  0  0  3  0  0  0  0  0  0
  157.6130  213.1690  146.7910 C   0  0  0  0  0  3  0  0  0  0  0  0
  159.1330  214.4530  144.4800 O   0  0  0  0  0  1  0  0  0  0  0  0
  159.7670  212.2320  144.6750 O   0  0  0  0  0  0  0  0  0  0  0  0
  160.9610  212.8740  145.0750 C   0  0  2  0  0  3  0  0  0  0  0  0
  159.6230  213.4630  145.3390 C   0  0  2  0  0  0  0  0  0  0  0  0
  161.6390  213.4970  143.8630 C   0  0  0  0  0  2  0  0  0  0  0  0
  162.4810  212.1600  140.9610 C   0  0  2  0  0  3  0  0  0  0  0  0
  160.9400  213.0820  142.5860 C   0  0  2  0  0  3  0  0  0  0  0  0
  161.5480  211.7830  142.0870 C   0  0  0  0  0  2  0  0  0  0  0  0
  161.8770  213.4080  140.3610 C   0  0  0  0  0  2  0  0  0  0  0  0
  161.1820  214.1200  141.5040 C   0  0  0  0  0  2  0  0  0  0  0  0
  163.6030  211.1260  139.1350 O   0  0  0  0  0  0  0  0  0  0  0  0
  162.6260  211.0840  139.9310 C   0  0  0  0  0  0  0  0  0  0  0  0
  161.6960  210.0020  139.8650 N   0  0  0  0  0  2  0  0  0  0  0  0
  161.7670  208.9820  138.8300 C   0  0  1  0  0  3  0  0  0  0  0  0
  161.5890  207.6060  139.4600 C   0  0  0  0  0  1  0  0  0  0  0  0
  160.3440  207.9730  137.0110 C   0  0  0  0  0  1  0  0  0  0  0  0
  159.5380  209.8980  138.2870 N   0  0  0  0  0  1  0  0  0  0  0  0
  160.7310  209.2580  137.7370 C   0  0  1  0  0  3  0  0  0  0  0  0
  159.8700  213.4140  150.4150 C   0  0  0  0  0  2  0  0  0  0  0  0
  158.9500  213.0870  151.5880 C   0  0  0  0  0  2  0  0  0  0  0  0
  159.7680  212.7720  152.8350 C   0  0  0  0  0  2  0  0  0  0  0  0
  159.5660  211.3190  153.2550 C   0  0  0  0  0  2  0  0  0  0  0  0
  160.9010  210.6030  153.4080 C   0  0  0  0  0  2  0  0  0  0  0  0
  160.8180  209.1470  152.9860 C   0  0  0  0  0  2  0  0  0  0  0  0
  160.9800  209.0200  151.4840 C   0  0  1  0  0  3  0  0  0  0  0  0
  162.4310  208.6630  151.1670 C   0  0  0  0  0  2  0  0  0  0  0  0
  161.3530  207.6060  151.0410 C   0  0  1  0  0  0  0  0  0  0  0  0
  162.6970  206.2810  152.5480 O   0  0  0  0  0  1  0  0  0  0  0  0
  161.3910  206.4820  152.0810 C   0  0  2  0  0  3  0  0  0  0  0  0
  160.7760  205.1820  151.5550 C   0  0  0  0  0  2  0  0  0  0  0  0
  160.9750  204.1220  152.4520 O   0  0  0  0  0  0  0  0  0  0  0  0
  161.5930  203.1330  151.6780 C   0  0  0  0  0  2  0  0  0  0  0  0
  160.7130  202.7240  150.5060 C   0  0  2  0  0  3  0  0  0  0  0  0
  160.7120  201.3390  150.3530 O   0  0  0  0  0  1  0  0  0  0  0  0
  161.1580  203.3690  149.2820 N   0  0  0  0  0  2  0  0  0  0  0  0
  160.4630  202.7100  148.1920 C   0  0  0  0  0  2  0  0  0  0  0  0
  160.9490  202.5690  145.7730 C   0  0  0  0  0  1  0  0  0  0  0  0
  161.4630  202.2250  147.1590 C   0  0  0  0  0  2  0  0  0  0  0  0
  160.9620  207.3250  149.7260 O   0  0  0  0  0  0  0  0  0  0  0  0
  162.0210  207.6090  148.9520 O   0  0  0  0  0  0  0  0  0  0  0  0
  162.0040  207.2920  147.5960 C   0  0  0  0  0  3  0  0  0  0  0  0
  162.3440  206.1520  147.2030 O   0  0  0  0  0  0  0  0  0  0  0  0
  161.1720  213.6250  147.6950 O   0  0  0  0  0  0  0  0  0  0  0  0
  162.1920  212.9630  148.4150 C   0  0  0  0  0  3  0  0  0  0  0  0
  161.8390  211.4960  148.5310 C   0  0  0  0  0  2  0  0  0  0  0  0
  162.8600  211.9550  147.5150 C   0  0  0  0  0  2  0  0  0  0  0  0
  2  4  2  0  0  0  0
  3  6  2  0  0  0  0
  3  2  1  0  0  0  0
  4  1  1  0  0  0  0
  4 25  1  0  0  0  0
  5  1  2  0  0  0  0
  6  5  1  0  0  0  0
  8  9  1  0  0  0  0
  8 10  1  0  0  0  0
  9 11  1  6  0  0  0
  9 10  1  0  0  0  0
 10  7  1  6  0  0  0
 10  3  1  0  0  0  0
 12 18  1  6  0  0  0
 12 14  1  0  0  0  0
 13 11  1  1  0  0  0
 14 13  1  0  0  0  0
 15 12  1  0  0  0  0
 15 16  1  0  0  0  0
 16 13  1  0  0  0  0
 17 18  2  0  0  0  0
 19 18  1  0  0  0  0
 20 21  1  1  0  0  0
 20 19  1  0  0  0  0
 24 22  1  1  0  0  0
 24 23  1  0  0  0  0
 24 20  1  0  0  0  0
 25 26  1  0  0  0  0
 26 27  1  0  0  0  0
 27 28  1  0  0  0  0
 28 29  1  0  0  0  0
 30 29  1  0  0  0  0
 31 30  1  1  0  0  0
 32 31  1  0  0  0  0
 33 45  1  6  0  0  0
 33 32  1  0  0  0  0
 33 31  1  0  0  0  0
 33 35  1  0  0  0  0
 35 34  1  6  0  0  0
 36 35  1  0  0  0  0
 36 37  1  0  0  0  0
 38 37  1  0  0  0  0
 39 40  1  6  0  0  0
 39 38  1  0  0  0  0
 41 39  1  0  0  0  0
 42 41  1  0  0  0  0
 43 44  1  0  0  0  0
 44 42  1  0  0  0  0
 46 45  1  0  0  0  0
 47 46  1  0  0  0  0
 48 47  2  0  0  0  0
 49  2  1  0  0  0  0
 49 50  1  0  0  0  0
 50 51  1  0  0  0  0
 52 50  1  0  0  0  0
 52 51  1  0  0  0  0
M  END
>  <MODEL>
1

>  <REMARK>
 VINA RESULT:      -5.8      0.000      0.000
  Name = 
  26 active torsions:
  status: ('A' for Active; 'I' for Inactive)
    1  A    between atoms: C_2  and  C_21
    2  A    between atoms: C_2  and  C_22
    3  A    between atoms: C_3  and  C_19
    4  A    between atoms: C_4  and  C_5
    5  A    between atoms: C_4  and  C_34
    6  A    between atoms: C_6  and  N_31
    7  A    between atoms: C_6  and  C_39
    8  A    between atoms: O_7  and  C_37
    9  A    between atoms: O_7  and  O_40
   10  A    between atoms: C_8  and  N_25
   11  A    between atoms: C_8  and  C_43
   12  A    between atoms: C_12  and  C_41
   13  A    between atoms: C_12  and  O_50
   14  A    between atoms: O_14  and  C_15
   15  A    between atoms: O_14  and  C_16
   16  A    between atoms: C_18  and  C_24
   17  A    between atoms: C_18  and  C_29
   18  A    between atoms: C_21  and  C_26
   19  A    between atoms: C_23  and  C_48
   20  A    between atoms: C_24  and  C_42
   21  A    between atoms: N_25  and  C_30
   22  A    between atoms: C_26  and  C_29
   23  A    between atoms: C_28  and  O_40
   24  A    between atoms: C_28  and  C_41
   25  A    between atoms: C_30  and  C_44
   26  A    between atoms: C_43  and  O_50
                            x       y       z     vdW  Elec       q    Type
                         _______ _______ _______ _____ _____    ______ ____

>  <TORSDO>
F 26

$$$$
=
 OpenBabel11072411313D

 52 56  0  0  1  0  0  0  0  0999 V2000
  162.3680  209.5040  148.2470 N   0  0  0  0  0  0  0  0  0  0  0  0
  161.6230  209.0780  150.4940 C   0  0  0  0  0  0  0  0  0  0  0  0
  161.5310  207.7100  150.1690 C   0  0  0  0  0  0  0  0  0  0  0  0
  162.0520  209.9800  149.4820 C   0  0  0  0  0  0  0  0  0  0  0  0
  162.2940  208.1860  147.9320 C   0  0  0  0  0  3  0  0  0  0  0  0
  161.8780  207.2660  148.8890 C   0  0  0  0  0  3  0  0  0  0  0  0
  159.8130  206.2610  151.2320 O   0  0  0  0  0  1  0  0  0  0  0  0
  161.5920  207.0430  152.4950 O   0  0  0  0  0  0  0  0  0  0  0  0
  162.1840  205.9070  151.8990 C   0  0  2  0  0  3  0  0  0  0  0  0
  161.1390  206.7060  151.2080 C   0  0  2  0  0  0  0  0  0  0  0  0
  161.6200  204.6430  152.5330 C   0  0  0  0  0  2  0  0  0  0  0  0
  160.7880  203.2470  149.6560 C   0  0  2  0  0  3  0  0  0  0  0  0
  162.0180  203.4190  151.7350 C   0  0  2  0  0  3  0  0  0  0  0  0
  162.0640  203.7810  150.2600 C   0  0  0  0  0  2  0  0  0  0  0  0
  160.4400  202.0390  150.4940 C   0  0  0  0  0  2  0  0  0  0  0  0
  160.9620  202.3390  151.8850 C   0  0  0  0  0  2  0  0  0  0  0  0
  160.5100  201.7530  147.8240 O   0  0  0  0  0  0  0  0  0  0  0  0
  160.9290  202.8770  148.2120 C   0  0  0  0  0  0  0  0  0  0  0  0
  161.4990  203.7910  147.2740 N   0  0  0  0  0  2  0  0  0  0  0  0
  161.7180  203.4350  145.8810 C   0  0  1  0  0  3  0  0  0  0  0  0
  160.6180  202.4850  145.4210 C   0  0  0  0  0  1  0  0  0  0  0  0
  160.4130  205.3020  144.8010 C   0  0  0  0  0  1  0  0  0  0  0  0
  162.6920  205.6870  145.6000 N   0  0  0  0  0  1  0  0  0  0  0  0
  161.7960  204.6940  145.0130 C   0  0  1  0  0  3  0  0  0  0  0  0
  162.1470  211.4550  149.7030 C   0  0  0  0  0  2  0  0  0  0  0  0
  161.1560  212.2090  148.8220 C   0  0  0  0  0  2  0  0  0  0  0  0
  161.7290  213.5600  148.4110 C   0  0  0  0  0  2  0  0  0  0  0  0
  161.3410  213.8920  146.9730 C   0  0  0  0  0  2  0  0  0  0  0  0
  159.9340  213.4020  146.6590 C   0  0  0  0  0  2  0  0  0  0  0  0
  159.5530  213.6570  145.2120 C   0  0  0  0  0  2  0  0  0  0  0  0
  160.7520  214.1490  144.4250 C   0  0  1  0  0  3  0  0  0  0  0  0
  161.6330  212.9560  144.0600 C   0  0  0  0  0  2  0  0  0  0  0  0
  160.7860  213.6190  142.9930 C   0  0  1  0  0  0  0  0  0  0  0  0
  160.0050  211.4980  142.1410 O   0  0  0  0  0  1  0  0  0  0  0  0
  159.6020  212.7990  142.4700 C   0  0  2  0  0  3  0  0  0  0  0  0
  158.8930  213.4830  141.2980 C   0  0  0  0  0  2  0  0  0  0  0  0
  157.9990  212.6090  140.6600 O   0  0  0  0  0  0  0  0  0  0  0  0
  157.6170  213.2980  139.5040 C   0  0  0  0  0  2  0  0  0  0  0  0
  157.4330  212.3450  138.3320 C   0  0  2  0  0  3  0  0  0  0  0  0
  156.5950  212.9070  137.3700 O   0  0  0  0  0  1  0  0  0  0  0  0
  156.8990  211.0710  138.7870 N   0  0  0  0  0  2  0  0  0  0  0  0
  157.5400  210.0460  137.9850 C   0  0  0  0  0  2  0  0  0  0  0  0
  159.6490  208.7590  137.9110 C   0  0  0  0  0  1  0  0  0  0  0  0
  159.0460  210.1330  138.1410 C   0  0  0  0  0  2  0  0  0  0  0  0
  161.4950  214.4530  142.1200 O   0  0  0  0  0  0  0  0  0  0  0  0
  162.3460  213.6580  141.4530 O   0  0  0  0  0  0  0  0  0  0  0  0
  163.3340  214.2110  140.6420 C   0  0  0  0  0  3  0  0  0  0  0  0
  164.0730  213.4770  139.9460 O   0  0  0  0  0  0  0  0  0  0  0  0
  161.2890  209.4620  151.8070 O   0  0  0  0  0  0  0  0  0  0  0  0
  160.1610  210.2220  152.1900 C   0  0  0  0  0  3  0  0  0  0  0  0
  160.1010  210.2890  153.7010 C   0  0  0  0  0  2  0  0  0  0  0  0
  160.6200  211.4660  152.9060 C   0  0  0  0  0  2  0  0  0  0  0  0
  1  4  1  0  0  0  0
  2 49  1  0  0  0  0
  3  2  1  0  0  0  0
  3 10  1  0  0  0  0
  4 25  1  0  0  0  0
  4  2  2  0  0  0  0
  5  1  2  0  0  0  0
  5  6  1  0  0  0  0
  6  3  2  0  0  0  0
  9  8  1  0  0  0  0
  9 11  1  1  0  0  0
 10  7  1  6  0  0  0
 10  9  1  0  0  0  0
 10  8  1  0  0  0  0
 12 18  1  6  0  0  0
 12 14  1  0  0  0  0
 12 15  1  0  0  0  0
 13 16  1  0  0  0  0
 13 11  1  1  0  0  0
 14 13  1  0  0  0  0
 15 16  1  0  0  0  0
 17 18  2  0  0  0  0
 19 18  1  0  0  0  0
 20 21  1  6  0  0  0
 20 19  1  0  0  0  0
 24 22  1  1  0  0  0
 24 23  1  0  0  0  0
 24 20  1  0  0  0  0
 26 25  1  0  0  0  0
 27 26  1  0  0  0  0
 28 27  1  0  0  0  0
 29 28  1  0  0  0  0
 30 29  1  0  0  0  0
 31 30  1  1  0  0  0
 32 31  1  0  0  0  0
 33 45  1  6  0  0  0
 33 32  1  0  0  0  0
 33 31  1  0  0  0  0
 35 34  1  6  0  0  0
 35 33  1  0  0  0  0
 36 35  1  0  0  0  0
 37 36  1  0  0  0  0
 38 37  1  0  0  0  0
 39 40  1  6  0  0  0
 39 41  1  0  0  0  0
 39 38  1  0  0  0  0
 42 44  1  0  0  0  0
 42 41  1  0  0  0  0
 43 44  1  0  0  0  0
 46 45  1  0  0  0  0
 47 46  1  0  0  0  0
 48 47  2  0  0  0  0
 49 50  1  0  0  0  0
 50 52  1  0  0  0  0
 50 51  1  0  0  0  0
 52 51  1  0  0  0  0
M  END
>  <MODEL>
2

>  <REMARK>
 VINA RESULT:      -4.8      2.468     10.411
  Name = 
  26 active torsions:
  status: ('A' for Active; 'I' for Inactive)
    1  A    between atoms: C_2  and  C_21
    2  A    between atoms: C_2  and  C_22
    3  A    between atoms: C_3  and  C_19
    4  A    between atoms: C_4  and  C_5
    5  A    between atoms: C_4  and  C_34
    6  A    between atoms: C_6  and  N_31
    7  A    between atoms: C_6  and  C_39
    8  A    between atoms: O_7  and  C_37
    9  A    between atoms: O_7  and  O_40
   10  A    between atoms: C_8  and  N_25
   11  A    between atoms: C_8  and  C_43
   12  A    between atoms: C_12  and  C_41
   13  A    between atoms: C_12  and  O_50
   14  A    between atoms: O_14  and  C_15
   15  A    between atoms: O_14  and  C_16
   16  A    between atoms: C_18  and  C_24
   17  A    between atoms: C_18  and  C_29
   18  A    between atoms: C_21  and  C_26
   19  A    between atoms: C_23  and  C_48
   20  A    between atoms: C_24  and  C_42
   21  A    between atoms: N_25  and  C_30
   22  A    between atoms: C_26  and  C_29
   23  A    between atoms: C_28  and  O_40
   24  A    between atoms: C_28  and  C_41
   25  A    between atoms: C_30  and  C_44
   26  A    between atoms: C_43  and  O_50
                            x       y       z     vdW  Elec       q    Type
                         _______ _______ _______ _____ _____    ______ ____

>  <TORSDO>
F 26

$$$$
