=
 OpenBabel11072414403D

 26 30  0  0  1  0  0  0  0  0999 V2000
  160.7960  207.8440  152.6640 N   0  0  0  0  0  0  0  0  0  0  0  0
  161.6720  211.6400  157.2610 N   0  0  0  0  0  1  0  0  0  0  0  0
  160.2100  211.4270  153.0820 C   0  0  2  0  0  0  0  0  0  0  0  0
  162.7560  209.7380  156.5010 O   0  0  0  0  0  0  0  0  0  0  0  0
  160.4650  209.0670  152.0480 N   0  0  0  0  0  2  0  0  0  0  0  0
  161.2900  208.2270  154.0010 C   0  0  1  0  0  3  0  0  0  0  0  0
  157.8330  212.4010  153.3070 C   0  0  0  0  0  2  0  0  0  0  0  0
  160.4710  211.8250  154.5290 C   0  0  1  0  0  3  0  0  0  0  0  0
  158.4040  213.0510  154.4890 N   0  0  0  0  0  2  0  0  0  0  0  0
  161.3760  209.7260  153.9690 C   0  0  1  0  0  3  0  0  0  0  0  0
  160.0490  212.4780  152.0120 C   0  0  0  0  0  2  0  0  0  0  0  0
  161.8950  210.6310  156.2820 C   0  0  0  0  0  0  0  0  0  0  0  0
  158.8460  211.6200  152.4360 C   0  0  1  0  0  3  0  0  0  0  0  0
  159.1560  212.0640  155.2490 C   0  0  0  0  0  2  0  0  0  0  0  0
  160.9050  210.1480  152.8370 C   0  0  2  0  0  3  0  0  0  0  0  0
  161.1610  210.6430  155.0510 N   0  0  0  0  0  0  0  0  0  0  0  0
  160.9350  207.1260  156.0960 O   0  0  0  0  0  1  0  0  0  0  0  0
  160.2800  207.7540  155.0370 C   0  0  0  0  0  2  0  0  0  0  0  0
  161.9260  207.2790  151.9370 C   0  0  0  0  0  2  0  0  0  0  0  0
  161.1670  203.5930  151.5230 C   0  0  0  0  0  3  0  0  0  0  0  0
  160.7840  203.5270  150.1810 C   0  0  0  0  0  3  0  0  0  0  0  0
  160.7770  204.6840  149.3990 C   0  0  0  0  0  3  0  0  0  0  0  0
  161.5370  205.9820  151.3050 C   0  0  0  0  0  0  0  0  0  0  0  0
  161.1490  205.9140  149.9530 C   0  0  0  0  0  0  0  0  0  0  0  0
  161.5410  204.8180  152.0830 C   0  0  0  0  0  3  0  0  0  0  0  0
  161.1280  207.3410  148.9270 Cl  0  0  0  0  0  0  0  0  0  0  0  0
  1  6  1  0  0  0  0
  3 11  1  6  0  0  0
  3  8  1  0  0  0  0
  5  1  1  0  0  0  0
  6 18  1  1  0  0  0
  7  9  1  0  0  0  0
  8 16  1  0  0  0  0
  8 14  1  1  0  0  0
  9 14  1  0  0  0  0
 10  6  1  0  0  0  0
 10 16  1  1  0  0  0
 12  4  2  0  0  0  0
 12  2  1  0  0  0  0
 13 11  1  6  0  0  0
 13  3  1  0  0  0  0
 13  7  1  0  0  0  0
 15  5  1  1  0  0  0
 15  3  1  0  0  0  0
 15 10  1  0  0  0  0
 16 12  1  0  0  0  0
 18 17  1  0  0  0  0
 19  1  1  0  0  0  0
 20 25  1  0  0  0  0
 21 20  2  0  0  0  0
 22 24  2  0  0  0  0
 22 21  1  0  0  0  0
 23 19  1  0  0  0  0
 23 25  2  0  0  0  0
 24 23  1  0  0  0  0
 26 24  1  0  0  0  0
M  END
>  <MODEL>
1

>  <REMARK>
 VINA RESULT:      -7.9      0.000      0.000
  Name = 
  3 active torsions:
  status: ('A' for Active; 'I' for Inactive)
    1  A    between atoms: N_2  and  C_25
    2  A    between atoms: C_9  and  C_23
    3  A    between atoms: C_18  and  C_25
                            x       y       z     vdW  Elec       q    Type
                         _______ _______ _______ _____ _____    ______ ____

>  <TORSDO>
F 3

$$$$
=
 OpenBabel11072414403D

 26 30  0  0  1  0  0  0  0  0999 V2000
  160.8040  208.0090  152.5160 N   0  0  0  0  0  0  0  0  0  0  0  0
  161.5600  211.6460  157.2610 N   0  0  0  0  0  1  0  0  0  0  0  0
  160.1440  211.5620  153.0620 C   0  0  2  0  0  0  0  0  0  0  0  0
  162.6880  209.7950  156.4420 O   0  0  0  0  0  0  0  0  0  0  0  0
  160.4550  209.2480  151.9420 N   0  0  0  0  0  2  0  0  0  0  0  0
  161.2770  208.3520  153.8720 C   0  0  1  0  0  3  0  0  0  0  0  0
  157.7460  212.4810  153.2970 C   0  0  0  0  0  2  0  0  0  0  0  0
  160.3820  211.9110  154.5260 C   0  0  1  0  0  3  0  0  0  0  0  0
  158.2920  213.0970  154.5090 N   0  0  0  0  0  2  0  0  0  0  0  0
  161.3340  209.8520  153.8960 C   0  0  1  0  0  3  0  0  0  0  0  0
  159.9730  212.6490  152.0300 C   0  0  0  0  0  2  0  0  0  0  0  0
  161.8120  210.6780  156.2470 C   0  0  0  0  0  0  0  0  0  0  0  0
  158.7830  211.7530  152.4080 C   0  0  1  0  0  3  0  0  0  0  0  0
  159.0560  212.0960  155.2400 C   0  0  0  0  0  2  0  0  0  0  0  0
  160.8660  210.3070  152.7760 C   0  0  2  0  0  3  0  0  0  0  0  0
  161.0900  210.7230  155.0100 N   0  0  0  0  0  0  0  0  0  0  0  0
  160.9220  207.1540  155.9120 O   0  0  0  0  0  1  0  0  0  0  0  0
  160.2660  207.8200  154.8780 C   0  0  0  0  0  2  0  0  0  0  0  0
  161.9520  207.4940  151.7800 C   0  0  0  0  0  2  0  0  0  0  0  0
  161.1250  205.5580  148.6340 C   0  0  0  0  0  3  0  0  0  0  0  0
  160.7840  204.3050  149.1480 C   0  0  0  0  0  3  0  0  0  0  0  0
  160.8150  204.0830  150.5270 C   0  0  0  0  0  3  0  0  0  0  0  0
  161.5310  206.3750  150.8830 C   0  0  0  0  0  0  0  0  0  0  0  0
  161.1900  205.1110  151.3990 C   0  0  0  0  0  0  0  0  0  0  0  0
  161.4990  206.5900  149.4990 C   0  0  0  0  0  3  0  0  0  0  0  0
  161.2100  204.7850  153.1260 Cl  0  0  0  0  0  0  0  0  0  0  0  0
  1  6  1  0  0  0  0
  3 11  1  6  0  0  0
  3  8  1  0  0  0  0
  5  1  1  0  0  0  0
  6 10  1  0  0  0  0
  6 18  1  1  0  0  0
  7  9  1  0  0  0  0
  8 16  1  0  0  0  0
  8 14  1  1  0  0  0
  9 14  1  0  0  0  0
 10 16  1  1  0  0  0
 12  4  2  0  0  0  0
 12  2  1  0  0  0  0
 13 11  1  6  0  0  0
 13  3  1  0  0  0  0
 13  7  1  0  0  0  0
 15  5  1  1  0  0  0
 15  3  1  0  0  0  0
 15 10  1  0  0  0  0
 16 12  1  0  0  0  0
 18 17  1  0  0  0  0
 19  1  1  0  0  0  0
 20 21  2  0  0  0  0
 20 25  1  0  0  0  0
 21 22  1  0  0  0  0
 22 24  2  0  0  0  0
 23 24  1  0  0  0  0
 23 19  1  0  0  0  0
 24 26  1  0  0  0  0
 25 23  2  0  0  0  0
M  END
>  <MODEL>
2

>  <REMARK>
 VINA RESULT:      -7.5      1.048      1.429
  Name = 
  3 active torsions:
  status: ('A' for Active; 'I' for Inactive)
    1  A    between atoms: N_2  and  C_25
    2  A    between atoms: C_9  and  C_23
    3  A    between atoms: C_18  and  C_25
                            x       y       z     vdW  Elec       q    Type
                         _______ _______ _______ _____ _____    ______ ____

>  <TORSDO>
F 3

$$$$
=
 OpenBabel11072414403D

 26 30  0  0  1  0  0  0  0  0999 V2000
  161.3780  207.2720  151.7630 N   0  0  0  0  0  0  0  0  0  0  0  0
  159.7910  212.6840  153.8820 N   0  0  0  0  0  1  0  0  0  0  0  0
  160.5550  208.4950  155.1080 C   0  0  2  0  0  0  0  0  0  0  0  0
  159.4450  211.5610  151.8850 O   0  0  0  0  0  0  0  0  0  0  0  0
  161.0990  206.9450  153.1060 N   0  0  0  0  0  2  0  0  0  0  0  0
  160.9850  208.6890  151.6400 C   0  0  1  0  0  3  0  0  0  0  0  0
  162.3560  208.8000  156.9270 C   0  0  0  0  0  2  0  0  0  0  0  0
  160.3840  210.0080  155.0740 C   0  0  1  0  0  3  0  0  0  0  0  0
  161.7650  210.1350  157.0380 N   0  0  0  0  0  2  0  0  0  0  0  0
  160.3090  209.0200  152.9400 C   0  0  1  0  0  3  0  0  0  0  0  0
  160.1210  207.6970  156.3130 C   0  0  0  0  0  2  0  0  0  0  0  0
  159.8380  211.5090  153.0810 C   0  0  0  0  0  0  0  0  0  0  0  0
  161.6140  207.8310  155.9760 C   0  0  1  0  0  3  0  0  0  0  0  0
  161.5920  210.6830  155.7010 C   0  0  0  0  0  2  0  0  0  0  0  0
  160.3940  207.9940  153.7290 C   0  0  2  0  0  3  0  0  0  0  0  0
  160.3070  210.2740  153.6360 N   0  0  0  0  0  0  0  0  0  0  0  0
  162.1000  210.3680  150.3500 O   0  0  0  0  0  1  0  0  0  0  0  0
  162.2470  209.5190  151.4460 C   0  0  0  0  0  2  0  0  0  0  0  0
  160.4670  206.5010  150.9270 C   0  0  0  0  0  2  0  0  0  0  0  0
  162.2340  206.9680  147.6120 C   0  0  0  0  0  3  0  0  0  0  0  0
  162.3590  205.6510  147.1640 C   0  0  0  0  0  3  0  0  0  0  0  0
  161.8620  204.6000  147.9380 C   0  0  0  0  0  3  0  0  0  0  0  0
  161.1110  206.1850  149.6150 C   0  0  0  0  0  0  0  0  0  0  0  0
  161.2400  204.8580  149.1640 C   0  0  0  0  0  0  0  0  0  0  0  0
  161.6130  207.2340  148.8350 C   0  0  0  0  0  3  0  0  0  0  0  0
  160.6260  203.5030  150.0990 Cl  0  0  0  0  0  0  0  0  0  0  0  0
  1  5  1  0  0  0  0
  3 13  1  0  0  0  0
  3 11  1  1  0  0  0
  4 12  2  0  0  0  0
  6 18  1  1  0  0  0
  6  1  1  0  0  0  0
  6 10  1  0  0  0  0
  7  9  1  0  0  0  0
  8  3  1  0  0  0  0
  8 14  1  6  0  0  0
 10 16  1  1  0  0  0
 10 15  1  0  0  0  0
 12 16  1  0  0  0  0
 12  2  1  0  0  0  0
 13 11  1  1  0  0  0
 13  7  1  0  0  0  0
 14  9  1  0  0  0  0
 15  5  1  6  0  0  0
 15  3  1  0  0  0  0
 16  8  1  0  0  0  0
 17 18  1  0  0  0  0
 19  1  1  0  0  0  0
 20 25  1  0  0  0  0
 21 20  2  0  0  0  0
 21 22  1  0  0  0  0
 22 24  2  0  0  0  0
 23 19  1  0  0  0  0
 24 23  1  0  0  0  0
 24 26  1  0  0  0  0
 25 23  2  0  0  0  0
M  END
>  <MODEL>
3

>  <REMARK>
 VINA RESULT:      -6.8      2.380      4.010
  Name = 
  3 active torsions:
  status: ('A' for Active; 'I' for Inactive)
    1  A    between atoms: N_2  and  C_25
    2  A    between atoms: C_9  and  C_23
    3  A    between atoms: C_18  and  C_25
                            x       y       z     vdW  Elec       q    Type
                         _______ _______ _______ _____ _____    ______ ____

>  <TORSDO>
F 3

$$$$
=
 OpenBabel11072414403D

 26 30  0  0  1  0  0  0  0  0999 V2000
  161.5340  207.5850  151.5360 N   0  0  0  0  0  0  0  0  0  0  0  0
  159.7480  212.7210  154.1340 N   0  0  0  0  0  1  0  0  0  0  0  0
  160.5440  208.4380  154.9500 C   0  0  2  0  0  0  0  0  0  0  0  0
  159.5120  211.8070  152.0170 O   0  0  0  0  0  0  0  0  0  0  0  0
  161.2050  207.1160  152.8240 N   0  0  0  0  0  2  0  0  0  0  0  0
  161.1180  209.0010  151.5440 C   0  0  1  0  0  3  0  0  0  0  0  0
  162.2600  208.5780  156.8690 C   0  0  0  0  0  2  0  0  0  0  0  0
  160.3450  209.9430  155.0660 C   0  0  1  0  0  3  0  0  0  0  0  0
  161.6370  209.8860  157.0920 N   0  0  0  0  0  2  0  0  0  0  0  0
  160.3810  209.1830  152.8390 C   0  0  1  0  0  3  0  0  0  0  0  0
  160.0750  207.5120  156.0440 C   0  0  0  0  0  2  0  0  0  0  0  0
  159.8540  211.6370  153.2170 C   0  0  0  0  0  0  0  0  0  0  0  0
  161.5780  207.7030  155.7910 C   0  0  1  0  0  3  0  0  0  0  0  0
  161.5100  210.5680  155.8130 C   0  0  0  0  0  2  0  0  0  0  0  0
  160.4530  208.0820  153.5200 C   0  0  2  0  0  3  0  0  0  0  0  0
  160.3240  210.3570  153.6610 N   0  0  0  0  0  0  0  0  0  0  0  0
  162.3320  210.7030  150.3790 O   0  0  0  0  0  1  0  0  0  0  0  0
  162.3700  209.8670  151.4930 C   0  0  0  0  0  2  0  0  0  0  0  0
  160.6750  206.8920  150.5840 C   0  0  0  0  0  2  0  0  0  0  0  0
  161.2060  203.4270  152.0120 C   0  0  0  0  0  3  0  0  0  0  0  0
  161.3050  202.6510  150.8550 C   0  0  0  0  0  3  0  0  0  0  0  0
  161.2060  203.2530  149.5990 C   0  0  0  0  0  3  0  0  0  0  0  0
  160.9070  205.4180  150.6570 C   0  0  0  0  0  0  0  0  0  0  0  0
  161.0050  204.6330  149.4910 C   0  0  0  0  0  0  0  0  0  0  0  0
  161.0060  204.8060  151.9130 C   0  0  0  0  0  3  0  0  0  0  0  0
  160.8910  205.3460  147.8890 Cl  0  0  0  0  0  0  0  0  0  0  0  0
  1  6  1  0  0  0  0
  1  5  1  0  0  0  0
  3  8  1  0  0  0  0
  3 13  1  0  0  0  0
  3 11  1  1  0  0  0
  4 12  2  0  0  0  0
  6 18  1  1  0  0  0
  6 10  1  0  0  0  0
  7  9  1  0  0  0  0
  8 14  1  1  0  0  0
 10 15  1  0  0  0  0
 10 16  1  1  0  0  0
 12 16  1  0  0  0  0
 12  2  1  0  0  0  0
 13 11  1  1  0  0  0
 13  7  1  0  0  0  0
 14  9  1  0  0  0  0
 15  5  1  6  0  0  0
 15  3  1  0  0  0  0
 16  8  1  0  0  0  0
 17 18  1  0  0  0  0
 19 23  1  0  0  0  0
 19  1  1  0  0  0  0
 21 20  2  0  0  0  0
 22 21  1  0  0  0  0
 23 25  2  0  0  0  0
 24 22  2  0  0  0  0
 24 23  1  0  0  0  0
 25 20  1  0  0  0  0
 26 24  1  0  0  0  0
M  END
>  <MODEL>
4

>  <REMARK>
 VINA RESULT:      -6.8      2.153      3.650
  Name = 
  3 active torsions:
  status: ('A' for Active; 'I' for Inactive)
    1  A    between atoms: N_2  and  C_25
    2  A    between atoms: C_9  and  C_23
    3  A    between atoms: C_18  and  C_25
                            x       y       z     vdW  Elec       q    Type
                         _______ _______ _______ _____ _____    ______ ____

>  <TORSDO>
F 3

$$$$
=
 OpenBabel11072414403D

 26 30  0  0  1  0  0  0  0  0999 V2000
  161.4760  207.5760  151.2500 N   0  0  0  0  0  0  0  0  0  0  0  0
  160.6850  201.8260  149.6330 N   0  0  0  0  0  1  0  0  0  0  0  0
  160.8660  205.9540  148.0320 C   0  0  2  0  0  0  0  0  0  0  0  0
  160.1660  203.0640  151.5210 O   0  0  0  0  0  0  0  0  0  0  0  0
  161.1670  207.7380  149.8840 N   0  0  0  0  0  2  0  0  0  0  0  0
  161.2850  206.1350  151.5020 C   0  0  1  0  0  3  0  0  0  0  0  0
  162.7110  205.7440  146.2420 C   0  0  0  0  0  2  0  0  0  0  0  0
  160.9100  204.4410  148.2020 C   0  0  1  0  0  3  0  0  0  0  0  0
  162.3140  204.3340  146.2540 N   0  0  0  0  0  2  0  0  0  0  0  0
  160.6740  205.5970  150.2390 C   0  0  1  0  0  3  0  0  0  0  0  0
  160.3360  206.5710  146.7610 C   0  0  0  0  0  2  0  0  0  0  0  0
  160.5590  203.0630  150.3250 C   0  0  0  0  0  0  0  0  0  0  0  0
  161.8300  206.6800  147.1040 C   0  0  1  0  0  3  0  0  0  0  0  0
  162.2060  203.8900  147.6360 C   0  0  0  0  0  2  0  0  0  0  0  0
  160.6230  206.5490  149.3600 C   0  0  2  0  0  3  0  0  0  0  0  0
  160.8560  204.2970  149.6590 N   0  0  0  0  0  0  0  0  0  0  0  0
  163.0800  205.8290  153.0530 O   0  0  0  0  0  1  0  0  0  0  0  0
  162.6480  205.5110  151.7670 C   0  0  0  0  0  2  0  0  0  0  0  0
  160.4570  208.2830  152.0160 C   0  0  0  0  0  2  0  0  0  0  0  0
  162.2330  210.7040  154.3210 C   0  0  0  0  0  3  0  0  0  0  0  0
  162.1630  210.0380  155.5470 C   0  0  0  0  0  3  0  0  0  0  0  0
  161.5400  208.7900  155.6300 C   0  0  0  0  0  3  0  0  0  0  0  0
  161.0550  208.8710  153.2530 C   0  0  0  0  0  0  0  0  0  0  0  0
  160.9830  208.2020  154.4900 C   0  0  0  0  0  0  0  0  0  0  0  0
  161.6790  210.1220  153.1780 C   0  0  0  0  0  3  0  0  0  0  0  0
  160.2140  206.6300  154.6440 Cl  0  0  0  0  0  0  0  0  0  0  0  0
  1  6  1  0  0  0  0
  1 19  1  0  0  0  0
  2 12  1  0  0  0  0
  3 11  1  6  0  0  0
  3  8  1  0  0  0  0
  3 15  1  0  0  0  0
  5  1  1  0  0  0  0
  6 18  1  6  0  0  0
  7  9  1  0  0  0  0
  8 14  1  1  0  0  0
  8 16  1  0  0  0  0
  9 14  1  0  0  0  0
 10 16  1  6  0  0  0
 10  6  1  0  0  0  0
 11 13  1  0  0  0  0
 12  4  2  0  0  0  0
 13  7  1  6  0  0  0
 13  3  1  0  0  0  0
 15  5  1  1  0  0  0
 15 10  1  0  0  0  0
 16 12  1  0  0  0  0
 18 17  1  0  0  0  0
 19 23  1  0  0  0  0
 20 21  1  0  0  0  0
 21 22  2  0  0  0  0
 23 24  2  0  0  0  0
 24 26  1  0  0  0  0
 24 22  1  0  0  0  0
 25 23  1  0  0  0  0
 25 20  2  0  0  0  0
M  END
>  <MODEL>
5

>  <REMARK>
 VINA RESULT:      -6.4      3.297      7.567
  Name = 
  3 active torsions:
  status: ('A' for Active; 'I' for Inactive)
    1  A    between atoms: N_2  and  C_25
    2  A    between atoms: C_9  and  C_23
    3  A    between atoms: C_18  and  C_25
                            x       y       z     vdW  Elec       q    Type
                         _______ _______ _______ _____ _____    ______ ____

>  <TORSDO>
F 3

$$$$
=
 OpenBabel11072414403D

 26 30  0  0  1  0  0  0  0  0999 V2000
  160.6260  208.1780  154.3510 N   0  0  0  0  0  0  0  0  0  0  0  0
  162.3320  209.1720  148.6580 N   0  0  0  0  0  1  0  0  0  0  0  0
  161.7790  205.9720  151.6740 C   0  0  2  0  0  0  0  0  0  0  0  0
  162.4830  210.3810  150.6290 O   0  0  0  0  0  0  0  0  0  0  0  0
  161.0530  206.8850  153.9860 N   0  0  0  0  0  2  0  0  0  0  0  0
  160.9780  209.0220  153.1920 C   0  0  1  0  0  3  0  0  0  0  0  0
  160.1760  204.3660  150.4490 C   0  0  0  0  0  2  0  0  0  0  0  0
  161.9170  206.7630  150.3800 C   0  0  1  0  0  3  0  0  0  0  0  0
  160.7520  204.9880  149.2540 N   0  0  0  0  0  2  0  0  0  0  0  0
  161.7830  208.1300  152.2910 C   0  0  1  0  0  3  0  0  0  0  0  0
  162.3540  204.5830  151.7920 C   0  0  0  0  0  2  0  0  0  0  0  0
  162.2200  209.2820  150.0730 C   0  0  0  0  0  0  0  0  0  0  0  0
  160.8310  204.7870  151.7860 C   0  0  1  0  0  3  0  0  0  0  0  0
  160.7720  206.4310  149.4410 C   0  0  0  0  0  2  0  0  0  0  0  0
  161.8010  206.9350  152.7930 C   0  0  2  0  0  3  0  0  0  0  0  0
  161.8360  208.1460  150.8580 N   0  0  0  0  0  0  0  0  0  0  0  0
  159.5040  210.8400  152.6950 O   0  0  0  0  0  1  0  0  0  0  0  0
  159.6880  209.4700  152.5190 C   0  0  0  0  0  2  0  0  0  0  0  0
  161.4570  208.6150  155.4660 C   0  0  0  0  0  2  0  0  0  0  0  0
  158.9340  211.1390  156.7280 C   0  0  0  0  0  3  0  0  0  0  0  0
  159.7610  212.1320  157.2580 C   0  0  0  0  0  3  0  0  0  0  0  0
  161.1500  211.9890  157.2030 C   0  0  0  0  0  3  0  0  0  0  0  0
  160.8870  209.8510  156.0830 C   0  0  0  0  0  0  0  0  0  0  0  0
  161.7200  210.8520  156.6200 C   0  0  0  0  0  0  0  0  0  0  0  0
  159.4960  210.0010  156.1430 C   0  0  0  0  0  3  0  0  0  0  0  0
  163.4710  210.7190  156.5700 Cl  0  0  0  0  0  0  0  0  0  0  0  0
  1 19  1  0  0  0  0
  2 12  1  0  0  0  0
  3 13  1  0  0  0  0
  3 11  1  1  0  0  0
  3 15  1  0  0  0  0
  5  1  1  0  0  0  0
  6 18  1  6  0  0  0
  6  1  1  0  0  0  0
  8 14  1  6  0  0  0
  8 16  1  0  0  0  0
  8  3  1  0  0  0  0
  9 14  1  0  0  0  0
  9  7  1  0  0  0  0
 10 16  1  6  0  0  0
 10 15  1  0  0  0  0
 10  6  1  0  0  0  0
 12  4  2  0  0  0  0
 12 16  1  0  0  0  0
 13  7  1  6  0  0  0
 13 11  1  0  0  0  0
 15  5  1  1  0  0  0
 18 17  1  0  0  0  0
 19 23  1  0  0  0  0
 20 21  1  0  0  0  0
 22 21  2  0  0  0  0
 23 25  1  0  0  0  0
 23 24  2  0  0  0  0
 24 22  1  0  0  0  0
 25 20  2  0  0  0  0
 26 24  1  0  0  0  0
M  END
>  <MODEL>
6

>  <REMARK>
 VINA RESULT:      -5.7      3.086      6.969
  Name = 
  3 active torsions:
  status: ('A' for Active; 'I' for Inactive)
    1  A    between atoms: N_2  and  C_25
    2  A    between atoms: C_9  and  C_23
    3  A    between atoms: C_18  and  C_25
                            x       y       z     vdW  Elec       q    Type
                         _______ _______ _______ _____ _____    ______ ____

>  <TORSDO>
F 3

$$$$
=
 OpenBabel11072414403D

 26 30  0  0  1  0  0  0  0  0999 V2000
  160.9990  205.6260  150.9180 N   0  0  0  0  0  0  0  0  0  0  0  0
  162.3570  203.9520  145.2920 N   0  0  0  0  0  1  0  0  0  0  0  0
  161.1030  202.3800  149.2410 C   0  0  2  0  0  0  0  0  0  0  0  0
  163.0870  205.6400  146.7000 O   0  0  0  0  0  0  0  0  0  0  0  0
  160.9460  204.2240  151.0530 N   0  0  0  0  0  2  0  0  0  0  0  0
  161.4870  205.8460  149.5430 C   0  0  1  0  0  3  0  0  0  0  0  0
  158.9530  201.0920  148.6360 C   0  0  0  0  0  2  0  0  0  0  0  0
  161.3600  202.5790  147.7530 C   0  0  1  0  0  3  0  0  0  0  0  0
  159.5770  201.0280  147.3120 N   0  0  0  0  0  2  0  0  0  0  0  0
  161.8660  204.4810  149.0420 C   0  0  1  0  0  3  0  0  0  0  0  0
  161.2060  201.0100  149.8640 C   0  0  0  0  0  2  0  0  0  0  0  0
  162.4290  204.5750  146.5700 C   0  0  0  0  0  0  0  0  0  0  0  0
  159.8390  201.7020  149.7480 C   0  0  1  0  0  3  0  0  0  0  0  0
  160.0810  202.3500  146.9680 C   0  0  0  0  0  2  0  0  0  0  0  0
  161.5470  203.6020  149.9400 C   0  0  2  0  0  3  0  0  0  0  0  0
  161.7780  203.9820  147.7010 N   0  0  0  0  0  0  0  0  0  0  0  0
  160.8310  207.4660  147.9100 O   0  0  0  0  0  1  0  0  0  0  0  0
  160.3510  206.4410  148.7220 C   0  0  0  0  0  2  0  0  0  0  0  0
  162.0340  206.1130  151.8220 C   0  0  0  0  0  2  0  0  0  0  0  0
  160.4560  207.4700  154.9850 C   0  0  0  0  0  3  0  0  0  0  0  0
  160.3770  208.8360  154.7040 C   0  0  0  0  0  3  0  0  0  0  0  0
  160.8330  209.3250  153.4770 C   0  0  0  0  0  3  0  0  0  0  0  0
  161.4500  207.0750  152.8060 C   0  0  0  0  0  0  0  0  0  0  0  0
  161.3720  208.4530  152.5260 C   0  0  0  0  0  0  0  0  0  0  0  0
  160.9920  206.5930  154.0390 C   0  0  0  0  0  3  0  0  0  0  0  0
  161.9280  209.1140  150.9960 Cl  0  0  0  0  0  0  0  0  0  0  0  0
  1  5  1  0  0  0  0
  1 19  1  0  0  0  0
  2 12  1  0  0  0  0
  3 13  1  0  0  0  0
  3 11  1  1  0  0  0
  3 15  1  0  0  0  0
  6 18  1  6  0  0  0
  6  1  1  0  0  0  0
  8 14  1  6  0  0  0
  8  3  1  0  0  0  0
  9  7  1  0  0  0  0
 10 16  1  6  0  0  0
 10  6  1  0  0  0  0
 10 15  1  0  0  0  0
 12  4  2  0  0  0  0
 12 16  1  0  0  0  0
 13  7  1  6  0  0  0
 13 11  1  0  0  0  0
 14  9  1  0  0  0  0
 15  5  1  1  0  0  0
 16  8  1  0  0  0  0
 17 18  1  0  0  0  0
 19 23  1  0  0  0  0
 21 20  1  0  0  0  0
 22 21  2  0  0  0  0
 23 25  1  0  0  0  0
 24 23  2  0  0  0  0
 24 22  1  0  0  0  0
 25 20  2  0  0  0  0
 26 24  1  0  0  0  0
M  END
>  <MODEL>
7

>  <REMARK>
 VINA RESULT:      -5.6      4.203      8.661
  Name = 
  3 active torsions:
  status: ('A' for Active; 'I' for Inactive)
    1  A    between atoms: N_2  and  C_25
    2  A    between atoms: C_9  and  C_23
    3  A    between atoms: C_18  and  C_25
                            x       y       z     vdW  Elec       q    Type
                         _______ _______ _______ _____ _____    ______ ____

>  <TORSDO>
F 3

$$$$
=
 OpenBabel11072414403D

 26 30  0  0  1  0  0  0  0  0999 V2000
  161.4190  207.3610  148.4180 N   0  0  0  0  0  0  0  0  0  0  0  0
  161.5810  205.8280  154.2430 N   0  0  0  0  0  1  0  0  0  0  0  0
  162.0190  209.2650  151.4800 C   0  0  2  0  0  0  0  0  0  0  0  0
  162.1340  204.7500  152.2680 O   0  0  0  0  0  0  0  0  0  0  0  0
  161.8290  208.5830  148.9890 N   0  0  0  0  0  2  0  0  0  0  0  0
  161.4120  206.4110  149.5480 C   0  0  1  0  0  3  0  0  0  0  0  0
  160.2770  210.9190  152.4170 C   0  0  0  0  0  2  0  0  0  0  0  0
  161.7760  208.3770  152.6930 C   0  0  1  0  0  3  0  0  0  0  0  0
  160.4930  210.1680  153.6560 N   0  0  0  0  0  2  0  0  0  0  0  0
  162.0270  207.1630  150.6930 C   0  0  1  0  0  3  0  0  0  0  0  0
  162.7000  210.6030  151.6280 C   0  0  0  0  0  2  0  0  0  0  0  0
  161.8180  205.8270  152.8400 C   0  0  0  0  0  0  0  0  0  0  0  0
  161.2130  210.5350  151.2470 C   0  0  1  0  0  3  0  0  0  0  0  0
  160.4580  208.7440  153.3520 C   0  0  0  0  0  2  0  0  0  0  0  0
  162.2520  208.3840  150.3190 C   0  0  2  0  0  3  0  0  0  0  0  0
  161.7200  207.0440  152.0890 N   0  0  0  0  0  0  0  0  0  0  0  0
  159.8750  204.6740  150.1330 O   0  0  0  0  0  1  0  0  0  0  0  0
  159.9670  206.0340  149.8450 C   0  0  0  0  0  2  0  0  0  0  0  0
  162.4690  206.9300  147.5030 C   0  0  0  0  0  2  0  0  0  0  0  0
  160.1110  205.4440  144.9410 C   0  0  0  0  0  3  0  0  0  0  0  0
  160.8240  204.3220  144.5110 C   0  0  0  0  0  3  0  0  0  0  0  0
  162.0780  204.0390  145.0580 C   0  0  0  0  0  3  0  0  0  0  0  0
  161.9090  206.0040  146.4730 C   0  0  0  0  0  0  0  0  0  0  0  0
  162.6270  204.8740  146.0360 C   0  0  0  0  0  0  0  0  0  0  0  0
  160.6530  206.2830  145.9190 C   0  0  0  0  0  3  0  0  0  0  0  0
  164.2050  204.4740  146.6970 Cl  0  0  0  0  0  0  0  0  0  0  0  0
  1  5  1  0  0  0  0
  1  6  1  0  0  0  0
  3 11  1  1  0  0  0
  3  8  1  0  0  0  0
  4 12  2  0  0  0  0
  6 18  1  1  0  0  0
  6 10  1  0  0  0  0
  7  9  1  0  0  0  0
  8 14  1  6  0  0  0
 10 16  1  1  0  0  0
 12  2  1  0  0  0  0
 13  3  1  0  0  0  0
 13 11  1  1  0  0  0
 13  7  1  0  0  0  0
 14  9  1  0  0  0  0
 15  5  1  6  0  0  0
 15 10  1  0  0  0  0
 15  3  1  0  0  0  0
 16  8  1  0  0  0  0
 16 12  1  0  0  0  0
 18 17  1  0  0  0  0
 19  1  1  0  0  0  0
 20 25  1  0  0  0  0
 21 20  2  0  0  0  0
 21 22  1  0  0  0  0
 22 24  2  0  0  0  0
 23 19  1  0  0  0  0
 24 23  1  0  0  0  0
 24 26  1  0  0  0  0
 25 23  2  0  0  0  0
M  END
>  <MODEL>
8

>  <REMARK>
 VINA RESULT:      -5.4      3.207      4.845
  Name = 
  3 active torsions:
  status: ('A' for Active; 'I' for Inactive)
    1  A    between atoms: N_2  and  C_25
    2  A    between atoms: C_9  and  C_23
    3  A    between atoms: C_18  and  C_25
                            x       y       z     vdW  Elec       q    Type
                         _______ _______ _______ _____ _____    ______ ____

>  <TORSDO>
F 3

$$$$
=
 OpenBabel11072414403D

 26 30  0  0  1  0  0  0  0  0999 V2000
  161.0360  206.1130  150.8170 N   0  0  0  0  0  0  0  0  0  0  0  0
  162.3270  203.5780  145.5050 N   0  0  0  0  0  1  0  0  0  0  0  0
  161.1340  202.6440  149.6700 C   0  0  2  0  0  0  0  0  0  0  0  0
  163.0670  205.4700  146.6200 O   0  0  0  0  0  0  0  0  0  0  0  0
  160.9920  204.7490  151.1710 N   0  0  0  0  0  2  0  0  0  0  0  0
  161.5050  206.1150  149.4170 C   0  0  1  0  0  3  0  0  0  0  0  0
  158.9830  201.2700  149.3050 C   0  0  0  0  0  2  0  0  0  0  0  0
  161.3700  202.6060  148.1650 C   0  0  1  0  0  3  0  0  0  0  0  0
  159.5890  201.0000  147.9990 N   0  0  0  0  0  2  0  0  0  0  0  0
  161.8840  204.6900  149.1320 C   0  0  1  0  0  3  0  0  0  0  0  0
  161.2530  201.3890  150.4990 C   0  0  0  0  0  2  0  0  0  0  0  0
  162.4130  204.3940  146.6680 C   0  0  0  0  0  0  0  0  0  0  0  0
  159.8810  202.0500  150.2950 C   0  0  1  0  0  3  0  0  0  0  0  0
  160.0820  202.2530  147.4440 C   0  0  0  0  0  2  0  0  0  0  0  0
  161.5810  203.9620  150.1610 C   0  0  2  0  0  3  0  0  0  0  0  0
  161.7800  203.9850  147.8870 N   0  0  0  0  0  0  0  0  0  0  0  0
  160.8300  207.3970  147.5140 O   0  0  0  0  0  1  0  0  0  0  0  0
  160.3550  206.5700  148.5300 C   0  0  0  0  0  2  0  0  0  0  0  0
  162.0810  206.7390  151.6180 C   0  0  0  0  0  2  0  0  0  0  0  0
  161.2060  210.4010  152.0120 C   0  0  0  0  0  3  0  0  0  0  0  0
  160.6200  210.4230  153.2800 C   0  0  0  0  0  3  0  0  0  0  0  0
  160.5110  209.2430  154.0190 C   0  0  0  0  0  3  0  0  0  0  0  0
  161.5780  208.0120  152.2190 C   0  0  0  0  0  0  0  0  0  0  0  0
  160.9850  208.0350  153.4960 C   0  0  0  0  0  0  0  0  0  0  0  0
  161.6820  209.1990  151.4830 C   0  0  0  0  0  3  0  0  0  0  0  0
  160.8290  206.5780  154.4660 Cl  0  0  0  0  0  0  0  0  0  0  0  0
  1  5  1  0  0  0  0
  1 19  1  0  0  0  0
  2 12  1  0  0  0  0
  3 15  1  0  0  0  0
  3 13  1  0  0  0  0
  3 11  1  1  0  0  0
  4 12  2  0  0  0  0
  6 18  1  6  0  0  0
  6  1  1  0  0  0  0
  8 14  1  6  0  0  0
  8  3  1  0  0  0  0
  9  7  1  0  0  0  0
 10 16  1  6  0  0  0
 10  6  1  0  0  0  0
 10 15  1  0  0  0  0
 12 16  1  0  0  0  0
 13  7  1  6  0  0  0
 13 11  1  0  0  0  0
 14  9  1  0  0  0  0
 15  5  1  6  0  0  0
 16  8  1  0  0  0  0
 17 18  1  0  0  0  0
 19 23  1  0  0  0  0
 20 21  1  0  0  0  0
 21 22  2  0  0  0  0
 23 24  2  0  0  0  0
 24 22  1  0  0  0  0
 24 26  1  0  0  0  0
 25 20  2  0  0  0  0
 25 23  1  0  0  0  0
M  END
>  <MODEL>
9

>  <REMARK>
 VINA RESULT:      -5.3      4.192      8.679
  Name = 
  3 active torsions:
  status: ('A' for Active; 'I' for Inactive)
    1  A    between atoms: N_2  and  C_25
    2  A    between atoms: C_9  and  C_23
    3  A    between atoms: C_18  and  C_25
                            x       y       z     vdW  Elec       q    Type
                         _______ _______ _______ _____ _____    ______ ____

>  <TORSDO>
F 3

$$$$
