=
 OpenBabel11072412193D

 38 41  0  0  1  0  0  0  0  0999 V2000
  161.5740  209.0770  148.4910 O   0  0  0  0  0  0  0  0  0  0  0  0
  160.4140  209.4700  152.7210 C   0  0  0  0  0  2  0  0  0  0  0  0
  162.7810  210.0030  152.3990 O   0  0  0  0  0  0  0  0  0  0  0  0
  161.4680  210.4570  152.1690 C   0  0  1  0  0  3  0  0  0  0  0  0
  161.8440  207.5370  151.7950 C   0  0  0  0  0  2  0  0  0  0  0  0
  160.8420  207.9970  152.8580 C   0  0  1  0  0  3  0  0  0  0  0  0
  161.5620  208.1940  149.3910 C   0  0  0  0  0  0  0  0  0  0  0  0
  161.9490  208.5310  150.7310 N   0  0  0  0  0  0  0  0  0  0  0  0
  162.3160  209.9120  151.0660 C   0  0  2  0  0  3  0  0  0  0  0  0
  161.3730  207.7510  154.1930 N   0  0  0  0  0  2  0  0  0  0  0  0
  161.2720  207.9950  156.5000 O   0  0  0  0  0  0  0  0  0  0  0  0
  160.7450  208.2370  155.3830 C   0  0  0  0  0  0  0  0  0  0  0  0
  159.4890  209.0500  155.3240 C   0  0  0  0  0  2  0  0  0  0  0  0
  159.1180  210.7220  157.0510 O   0  0  0  0  0  0  0  0  0  0  0  0
  158.5070  211.3270  155.9290 C   0  0  2  0  0  3  0  0  0  0  0  0
  161.1080  211.1010  155.7020 C   0  0  0  0  0  1  0  0  0  0  0  0
  159.7200  210.4760  155.8040 C   0  0  2  0  0  0  0  0  0  0  0  0
  158.7930  212.8220  155.9450 C   0  0  2  0  0  3  0  0  0  0  0  0
  158.7520  213.2870  157.2600 O   0  0  0  0  0  1  0  0  0  0  0  0
  157.7560  213.5510  155.1060 C   0  0  0  0  0  2  0  0  0  0  0  0
  159.3580  213.1480  153.2380 O   0  0  0  0  0  1  0  0  0  0  0  0
  157.1380  213.5160  152.8040 O   0  0  0  0  0  0  0  0  0  0  0  0
  158.0570  213.3920  153.6560 C   0  0  0  0  0  0  0  0  0  0  0  0
  161.0790  206.8050  149.0680 C   0  0  1  0  0  3  0  0  0  0  0  0
  161.5790  204.0840  145.4410 C   0  0  0  0  0  2  0  0  0  0  0  0
  162.3070  205.1410  147.5770 C   0  0  0  0  0  2  0  0  0  0  0  0
  161.4130  206.3840  147.6310 C   0  0  1  0  0  3  0  0  0  0  0  0
  160.1400  206.2380  146.8020 C   0  0  0  0  0  2  0  0  0  0  0  0
  160.6460  204.9730  144.7280 N   0  0  0  0  0  0  0  0  0  0  0  0
  161.1700  205.1640  143.3870 C   0  0  0  0  0  1  0  0  0  0  0  0
  162.7290  204.7990  146.1540 C   0  0  0  0  0  2  0  0  0  0  0  0
  160.4910  206.3060  145.3210 C   0  0  0  0  0  2  0  0  0  0  0  0
  160.4970  204.8810  150.5470 C   0  0  0  0  0  3  0  0  0  0  0  0
  161.3880  205.7850  150.1350 C   0  0  0  0  0  3  0  0  0  0  0  0
  160.8650  203.8980  151.6040 C   0  0  0  0  0  2  0  0  0  0  0  0
  161.7470  201.6870  151.6510 O   0  0  0  0  0  1  0  0  0  0  0  0
  161.1650  202.5810  150.9820 C   0  0  0  0  0  0  0  0  0  0  0  0
  160.7760  202.3250  149.6730 O   0  0  0  0  0  0  0  0  0  0  0  0
  1  7  2  0  0  0  0
  2  6  1  0  0  0  0
  4  3  1  0  0  0  0
  4  2  1  1  0  0  0
  5  6  1  0  0  0  0
  6 10  1  1  0  0  0
  7  8  1  0  0  0  0
  8  9  1  0  0  0  0
  8  5  1  0  0  0  0
  9  4  1  0  0  0  0
  9  3  1  1  0  0  0
 10 12  1  0  0  0  0
 12 11  2  0  0  0  0
 13 12  1  0  0  0  0
 13 17  1  0  0  0  0
 15 18  1  1  0  0  0
 15 14  1  0  0  0  0
 17 16  1  6  0  0  0
 17 15  1  0  0  0  0
 17 14  1  0  0  0  0
 18 19  1  1  0  0  0
 20 18  1  0  0  0  0
 21 23  1  0  0  0  0
 22 23  2  0  0  0  0
 23 20  1  0  0  0  0
 24  7  1  0  0  0  0
 24 34  1  1  0  0  0
 25 31  1  0  0  0  0
 26 27  1  0  0  0  0
 27 24  1  1  0  0  0
 28 27  1  0  0  0  0
 29 32  1  0  0  0  0
 29 25  1  0  0  0  0
 30 29  1  0  0  0  0
 31 26  1  0  0  0  0
 32 28  1  0  0  0  0
 33 35  1  0  0  0  0
 34 33  2  0  0  0  0
 37 35  1  0  0  0  0
 37 36  1  0  0  0  0
 38 37  2  0  0  0  0
M  END
>  <MODEL>
1

>  <REMARK>
 VINA RESULT:      -7.3      0.000      0.000
  Name = 
  11 active torsions:
  status: ('A' for Active; 'I' for Inactive)
    1  A    between atoms: C_3  and  C_25
    2  A    between atoms: C_3  and  C_34
    3  A    between atoms: C_6  and  C_15
    4  A    between atoms: N_7  and  C_28
    5  A    between atoms: C_9  and  C_14
    6  A    between atoms: C_9  and  C_36
    7  A    between atoms: C_10  and  C_27
    8  A    between atoms: C_12  and  C_27
    9  A    between atoms: C_15  and  C_24
   10  A    between atoms: C_15  and  C_29
   11  A    between atoms: C_32  and  C_36
                            x       y       z     vdW  Elec       q    Type
                         _______ _______ _______ _____ _____    ______ ____

>  <TORSDO>
F 11

$$$$
=
 OpenBabel11072412193D

 38 41  0  0  1  0  0  0  0  0999 V2000
  159.4460  210.9230  156.0770 O   0  0  0  0  0  0  0  0  0  0  0  0
  160.1110  206.6830  155.0850 C   0  0  0  0  0  2  0  0  0  0  0  0
  162.0240  207.6220  156.2880 O   0  0  0  0  0  0  0  0  0  0  0  0
  160.6850  207.2090  156.4210 C   0  0  1  0  0  3  0  0  0  0  0  0
  161.2860  208.6420  153.8930 C   0  0  0  0  0  2  0  0  0  0  0  0
  160.7640  207.2060  153.7920 C   0  0  1  0  0  3  0  0  0  0  0  0
  159.9380  210.4250  155.0280 C   0  0  0  0  0  0  0  0  0  0  0  0
  160.7950  209.2780  155.1110 N   0  0  0  0  0  0  0  0  0  0  0  0
  161.0650  208.6540  156.4110 C   0  0  2  0  0  3  0  0  0  0  0  0
  161.8320  206.3080  153.3710 N   0  0  0  0  0  2  0  0  0  0  0  0
  162.7710  204.8390  151.8360 O   0  0  0  0  0  0  0  0  0  0  0  0
  161.8170  205.6090  152.1230 C   0  0  0  0  0  0  0  0  0  0  0  0
  160.6780  205.7560  151.1630 C   0  0  0  0  0  2  0  0  0  0  0  0
  160.0750  206.4850  148.9220 O   0  0  0  0  0  0  0  0  0  0  0  0
  160.9790  205.4330  148.6480 C   0  0  2  0  0  3  0  0  0  0  0  0
  162.1060  207.5030  149.7930 C   0  0  0  0  0  1  0  0  0  0  0  0
  161.1390  206.3250  149.8280 C   0  0  2  0  0  0  0  0  0  0  0  0
  161.8480  205.8130  147.4580 C   0  0  2  0  0  3  0  0  0  0  0  0
  161.0650  206.4650  146.5030 O   0  0  0  0  0  1  0  0  0  0  0  0
  162.4640  204.5620  146.8530 C   0  0  0  0  0  2  0  0  0  0  0  0
  161.0780  202.9260  148.1280 O   0  0  0  0  0  1  0  0  0  0  0  0
  161.0840  202.9050  145.8360 O   0  0  0  0  0  0  0  0  0  0  0  0
  161.4960  203.4310  146.9040 C   0  0  0  0  0  0  0  0  0  0  0  0
  159.5700  211.0010  153.6860 C   0  0  1  0  0  3  0  0  0  0  0  0
  156.2770  213.8880  152.4060 C   0  0  0  0  0  2  0  0  0  0  0  0
  158.6400  213.1300  152.6360 C   0  0  0  0  0  2  0  0  0  0  0  0
  158.5370  212.1300  153.7920 C   0  0  1  0  0  3  0  0  0  0  0  0
  157.1310  211.5620  153.9630 C   0  0  0  0  0  2  0  0  0  0  0  0
  155.4600  213.3370  153.5010 N   0  0  0  0  0  0  0  0  0  0  0  0
  154.7900  214.4530  154.1440 C   0  0  0  0  0  1  0  0  0  0  0  0
  157.6910  214.3090  152.8100 C   0  0  0  0  0  2  0  0  0  0  0  0
  156.2190  212.6350  154.5420 C   0  0  0  0  0  2  0  0  0  0  0  0
  160.9580  210.6330  151.6450 C   0  0  0  0  0  3  0  0  0  0  0  0
  160.7520  211.2810  152.7930 C   0  0  0  0  0  3  0  0  0  0  0  0
  162.1460  210.9580  150.8070 C   0  0  0  0  0  2  0  0  0  0  0  0
  161.1440  212.5390  149.3360 O   0  0  0  0  0  1  0  0  0  0  0  0
  161.7020  211.4180  149.4640 C   0  0  0  0  0  0  0  0  0  0  0  0
  161.9320  210.6250  148.3460 O   0  0  0  0  0  0  0  0  0  0  0  0
  3  4  1  0  0  0  0
  4  2  1  6  0  0  0
  5  8  1  0  0  0  0
  6 10  1  1  0  0  0
  6  5  1  0  0  0  0
  6  2  1  0  0  0  0
  7  8  1  0  0  0  0
  7  1  2  0  0  0  0
  8  9  1  0  0  0  0
  9  3  1  6  0  0  0
  9  4  1  0  0  0  0
 11 12  2  0  0  0  0
 12 10  1  0  0  0  0
 13 12  1  0  0  0  0
 14 17  1  0  0  0  0
 15 18  1  6  0  0  0
 15 14  1  0  0  0  0
 15 17  1  0  0  0  0
 17 16  1  6  0  0  0
 17 13  1  0  0  0  0
 18 19  1  6  0  0  0
 20 23  1  0  0  0  0
 20 18  1  0  0  0  0
 22 23  2  0  0  0  0
 23 21  1  0  0  0  0
 24 34  1  1  0  0  0
 24  7  1  0  0  0  0
 25 31  1  0  0  0  0
 25 29  1  0  0  0  0
 26 31  1  0  0  0  0
 26 27  1  0  0  0  0
 27 24  1  6  0  0  0
 27 28  1  0  0  0  0
 28 32  1  0  0  0  0
 29 30  1  0  0  0  0
 29 32  1  0  0  0  0
 33 34  2  0  0  0  0
 35 33  1  0  0  0  0
 36 37  1  0  0  0  0
 37 35  1  0  0  0  0
 38 37  2  0  0  0  0
M  END
>  <MODEL>
2

>  <REMARK>
 VINA RESULT:      -6.7      2.555      9.088
  Name = 
  11 active torsions:
  status: ('A' for Active; 'I' for Inactive)
    1  A    between atoms: C_3  and  C_25
    2  A    between atoms: C_3  and  C_34
    3  A    between atoms: C_6  and  C_15
    4  A    between atoms: N_7  and  C_28
    5  A    between atoms: C_9  and  C_14
    6  A    between atoms: C_9  and  C_36
    7  A    between atoms: C_10  and  C_27
    8  A    between atoms: C_12  and  C_27
    9  A    between atoms: C_15  and  C_24
   10  A    between atoms: C_15  and  C_29
   11  A    between atoms: C_32  and  C_36
                            x       y       z     vdW  Elec       q    Type
                         _______ _______ _______ _____ _____    ______ ____

>  <TORSDO>
F 11

$$$$
=
 OpenBabel11072412193D

 38 41  0  0  1  0  0  0  0  0999 V2000
  161.6210  207.1490  149.5360 O   0  0  0  0  0  0  0  0  0  0  0  0
  160.4240  210.6260  151.9600 C   0  0  0  0  0  2  0  0  0  0  0  0
  162.7950  210.7360  151.3640 O   0  0  0  0  0  0  0  0  0  0  0  0
  161.4860  210.8470  150.8590 C   0  0  1  0  0  3  0  0  0  0  0  0
  161.8570  208.6770  152.8480 C   0  0  0  0  0  2  0  0  0  0  0  0
  160.8470  209.7800  153.1760 C   0  0  1  0  0  3  0  0  0  0  0  0
  161.5990  207.2660  150.7920 C   0  0  0  0  0  0  0  0  0  0  0  0
  161.9740  208.5080  151.4040 N   0  0  0  0  0  0  0  0  0  0  0  0
  162.3420  209.6570  150.5690 C   0  0  2  0  0  3  0  0  0  0  0  0
  161.3650  210.6430  154.2300 N   0  0  0  0  0  2  0  0  0  0  0  0
  161.0440  212.0870  156.0210 O   0  0  0  0  0  0  0  0  0  0  0  0
  160.5220  211.3500  155.1450 C   0  0  0  0  0  0  0  0  0  0  0  0
  159.0300  211.2490  155.0640 C   0  0  0  0  0  2  0  0  0  0  0  0
  157.0110  212.4340  154.4030 O   0  0  0  0  0  0  0  0  0  0  0  0
  157.7060  212.3440  153.1760 C   0  0  2  0  0  3  0  0  0  0  0  0
  158.8930  213.8820  154.9340 C   0  0  0  0  0  1  0  0  0  0  0  0
  158.4140  212.5090  154.4730 C   0  0  2  0  0  0  0  0  0  0  0  0
  157.5220  213.6390  152.3970 C   0  0  2  0  0  3  0  0  0  0  0  0
  156.2260  214.1180  152.5960 O   0  0  0  0  0  1  0  0  0  0  0  0
  157.7570  213.3840  150.9170 C   0  0  0  0  0  2  0  0  0  0  0  0
  159.6220  213.5140  149.2660 O   0  0  0  0  0  0  0  0  0  0  0  0
  159.8520  214.4350  151.3530 O   0  0  0  0  0  1  0  0  0  0  0  0
  159.1270  213.8200  150.5270 C   0  0  0  0  0  0  0  0  0  0  0  0
  161.1150  206.1190  151.6390 C   0  0  1  0  0  3  0  0  0  0  0  0
  160.3000  201.8040  150.4030 C   0  0  0  0  0  2  0  0  0  0  0  0
  161.1260  203.5870  151.9360 C   0  0  0  0  0  2  0  0  0  0  0  0
  161.3380  204.7560  150.9700 C   0  0  1  0  0  3  0  0  0  0  0  0
  160.5020  204.6370  149.6990 C   0  0  0  0  0  2  0  0  0  0  0  0
  160.3900  202.2570  149.0050 N   0  0  0  0  0  0  0  0  0  0  0  0
  161.1460  201.2570  148.2730 C   0  0  0  0  0  1  0  0  0  0  0  0
  161.4610  202.2460  151.2970 C   0  0  0  0  0  2  0  0  0  0  0  0
  161.0800  203.5380  148.8160 C   0  0  0  0  0  2  0  0  0  0  0  0
  160.6500  206.3720  154.0780 C   0  0  0  0  0  3  0  0  0  0  0  0
  161.5280  206.2100  153.0870 C   0  0  0  0  0  3  0  0  0  0  0  0
  161.1220  206.4520  155.4880 C   0  0  0  0  0  2  0  0  0  0  0  0
  159.3100  207.9080  156.0030 O   0  0  0  0  0  0  0  0  0  0  0  0
  160.5330  207.6470  156.1490 C   0  0  0  0  0  0  0  0  0  0  0  0
  161.3250  208.4580  156.9530 O   0  0  0  0  0  1  0  0  0  0  0  0
  1  7  2  0  0  0  0
  2  6  1  0  0  0  0
  4  3  1  0  0  0  0
  4  2  1  1  0  0  0
  5  6  1  0  0  0  0
  6 10  1  1  0  0  0
  7  8  1  0  0  0  0
  7 24  1  0  0  0  0
  8  5  1  0  0  0  0
  9  4  1  0  0  0  0
  9  3  1  1  0  0  0
  9  8  1  0  0  0  0
 10 12  1  0  0  0  0
 12 11  2  0  0  0  0
 13 12  1  0  0  0  0
 14 17  1  0  0  0  0
 15 18  1  6  0  0  0
 15 14  1  0  0  0  0
 15 17  1  0  0  0  0
 17 16  1  1  0  0  0
 17 13  1  0  0  0  0
 18 19  1  6  0  0  0
 20 18  1  0  0  0  0
 21 23  2  0  0  0  0
 23 20  1  0  0  0  0
 23 22  1  0  0  0  0
 24 34  1  1  0  0  0
 25 31  1  0  0  0  0
 27 24  1  1  0  0  0
 27 26  1  0  0  0  0
 28 27  1  0  0  0  0
 29 25  1  0  0  0  0
 30 29  1  0  0  0  0
 31 26  1  0  0  0  0
 32 29  1  0  0  0  0
 32 28  1  0  0  0  0
 33 35  1  0  0  0  0
 34 33  2  0  0  0  0
 35 37  1  0  0  0  0
 36 37  2  0  0  0  0
 37 38  1  0  0  0  0
M  END
>  <MODEL>
3

>  <REMARK>
 VINA RESULT:      -6.2      2.559      4.172
  Name = 
  11 active torsions:
  status: ('A' for Active; 'I' for Inactive)
    1  A    between atoms: C_3  and  C_25
    2  A    between atoms: C_3  and  C_34
    3  A    between atoms: C_6  and  C_15
    4  A    between atoms: N_7  and  C_28
    5  A    between atoms: C_9  and  C_14
    6  A    between atoms: C_9  and  C_36
    7  A    between atoms: C_10  and  C_27
    8  A    between atoms: C_12  and  C_27
    9  A    between atoms: C_15  and  C_24
   10  A    between atoms: C_15  and  C_29
   11  A    between atoms: C_32  and  C_36
                            x       y       z     vdW  Elec       q    Type
                         _______ _______ _______ _____ _____    ______ ____

>  <TORSDO>
F 11

$$$$
=
 OpenBabel11072412193D

 38 41  0  0  1  0  0  0  0  0999 V2000
  161.7780  210.1520  153.8340 O   0  0  0  0  0  0  0  0  0  0  0  0
  160.3870  206.0120  153.2700 C   0  0  0  0  0  2  0  0  0  0  0  0
  162.8310  206.1270  153.3160 O   0  0  0  0  0  0  0  0  0  0  0  0
  161.6700  206.2330  154.1040 C   0  0  1  0  0  3  0  0  0  0  0  0
  161.4400  207.4430  151.4040 C   0  0  0  0  0  2  0  0  0  0  0  0
  160.4760  206.3070  151.7620 C   0  0  1  0  0  3  0  0  0  0  0  0
  161.5030  209.5510  152.7600 C   0  0  0  0  0  0  0  0  0  0  0  0
  161.8420  208.1660  152.6060 N   0  0  0  0  0  0  0  0  0  0  0  0
  162.4680  207.4340  153.7140 C   0  0  2  0  0  3  0  0  0  0  0  0
  160.8300  205.0960  151.0340 N   0  0  0  0  0  2  0  0  0  0  0  0
  161.0610  203.9040  149.0530 O   0  0  0  0  0  0  0  0  0  0  0  0
  160.7500  204.9890  149.6090 C   0  0  0  0  0  0  0  0  0  0  0  0
  160.2790  206.1360  148.7700 C   0  0  0  0  0  2  0  0  0  0  0  0
  160.4410  206.8980  146.4660 O   0  0  0  0  0  0  0  0  0  0  0  0
  160.7660  205.5290  146.3390 C   0  0  2  0  0  3  0  0  0  0  0  0
  162.5530  206.9050  147.6730 C   0  0  0  0  0  1  0  0  0  0  0  0
  161.1500  206.3240  147.5350 C   0  0  2  0  0  0  0  0  0  0  0  0
  161.8800  205.3690  145.3130 C   0  0  2  0  0  3  0  0  0  0  0  0
  161.4210  205.7860  144.0630 O   0  0  0  0  0  1  0  0  0  0  0  0
  162.3110  203.9130  145.2470 C   0  0  0  0  0  2  0  0  0  0  0  0
  161.0760  202.1620  146.5240 O   0  0  0  0  0  1  0  0  0  0  0  0
  160.2110  203.0050  144.5760 O   0  0  0  0  0  0  0  0  0  0  0  0
  161.1350  203.0160  145.4310 C   0  0  0  0  0  0  0  0  0  0  0  0
  160.7620  210.2760  151.6690 C   0  0  1  0  0  3  0  0  0  0  0  0
  158.4090  212.9820  154.4890 C   0  0  0  0  0  2  0  0  0  0  0  0
  159.2610  210.7900  153.6650 C   0  0  0  0  0  2  0  0  0  0  0  0
  159.5920  211.1120  152.2050 C   0  0  1  0  0  3  0  0  0  0  0  0
  159.8390  212.5990  151.9650 C   0  0  0  0  0  2  0  0  0  0  0  0
  158.2860  213.9310  153.3700 N   0  0  0  0  0  0  0  0  0  0  0  0
  156.9260  214.4390  153.3800 C   0  0  0  0  0  1  0  0  0  0  0  0
  158.0280  211.5390  154.1530 C   0  0  0  0  0  2  0  0  0  0  0  0
  158.5150  213.3490  152.0420 C   0  0  0  0  0  2  0  0  0  0  0  0
  161.9640  210.4420  149.4890 C   0  0  0  0  0  3  0  0  0  0  0  0
  161.6580  210.9700  150.6740 C   0  0  0  0  0  3  0  0  0  0  0  0
  162.8540  211.1810  148.5500 C   0  0  0  0  0  2  0  0  0  0  0  0
  162.5640  213.5210  148.2220 O   0  0  0  0  0  1  0  0  0  0  0  0
  162.1350  212.3590  147.9970 C   0  0  0  0  0  0  0  0  0  0  0  0
  161.0080  212.1770  147.2040 O   0  0  0  0  0  0  0  0  0  0  0  0
  3  4  1  0  0  0  0
  4  2  1  6  0  0  0
  5  6  1  0  0  0  0
  5  8  1  0  0  0  0
  6 10  1  6  0  0  0
  6  2  1  0  0  0  0
  7  1  2  0  0  0  0
  8  7  1  0  0  0  0
  8  9  1  0  0  0  0
  9  3  1  6  0  0  0
  9  4  1  0  0  0  0
 11 12  2  0  0  0  0
 12 10  1  0  0  0  0
 13 12  1  0  0  0  0
 14 17  1  0  0  0  0
 15 18  1  6  0  0  0
 15 14  1  0  0  0  0
 15 17  1  0  0  0  0
 17 16  1  1  0  0  0
 17 13  1  0  0  0  0
 18 19  1  6  0  0  0
 20 18  1  0  0  0  0
 20 23  1  0  0  0  0
 22 23  2  0  0  0  0
 23 21  1  0  0  0  0
 24 34  1  1  0  0  0
 24  7  1  0  0  0  0
 26 31  1  0  0  0  0
 27 24  1  1  0  0  0
 27 26  1  0  0  0  0
 28 32  1  0  0  0  0
 28 27  1  0  0  0  0
 29 30  1  0  0  0  0
 29 25  1  0  0  0  0
 31 25  1  0  0  0  0
 32 29  1  0  0  0  0
 33 34  2  0  0  0  0
 35 33  1  0  0  0  0
 37 36  1  0  0  0  0
 37 35  1  0  0  0  0
 38 37  2  0  0  0  0
M  END
>  <MODEL>
4

>  <REMARK>
 VINA RESULT:      -5.0      2.695      9.408
  Name = 
  11 active torsions:
  status: ('A' for Active; 'I' for Inactive)
    1  A    between atoms: C_3  and  C_25
    2  A    between atoms: C_3  and  C_34
    3  A    between atoms: C_6  and  C_15
    4  A    between atoms: N_7  and  C_28
    5  A    between atoms: C_9  and  C_14
    6  A    between atoms: C_9  and  C_36
    7  A    between atoms: C_10  and  C_27
    8  A    between atoms: C_12  and  C_27
    9  A    between atoms: C_15  and  C_24
   10  A    between atoms: C_15  and  C_29
   11  A    between atoms: C_32  and  C_36
                            x       y       z     vdW  Elec       q    Type
                         _______ _______ _______ _____ _____    ______ ____

>  <TORSDO>
F 11

$$$$
=
 OpenBabel11072412193D

 38 41  0  0  1  0  0  0  0  0999 V2000
  163.1900  209.9570  152.1200 O   0  0  0  0  0  0  0  0  0  0  0  0
  162.7060  207.8900  148.2610 C   0  0  0  0  0  2  0  0  0  0  0  0
  161.5310  210.0360  148.2700 O   0  0  0  0  0  0  0  0  0  0  0  0
  162.8020  209.4330  148.2440 C   0  0  1  0  0  3  0  0  0  0  0  0
  160.8410  208.0980  150.0260 C   0  0  0  0  0  2  0  0  0  0  0  0
  161.4350  207.2770  148.8780 C   0  0  1  0  0  3  0  0  0  0  0  0
  162.3170  209.1130  151.7810 C   0  0  0  0  0  0  0  0  0  0  0  0
  161.7790  209.1320  150.4510 N   0  0  0  0  0  0  0  0  0  0  0  0
  162.2750  210.1040  149.4710 C   0  0  2  0  0  3  0  0  0  0  0  0
  160.4330  207.0560  147.8430 N   0  0  0  0  0  2  0  0  0  0  0  0
  159.8240  206.3450  145.7180 O   0  0  0  0  0  0  0  0  0  0  0  0
  160.7420  206.4920  146.5650 C   0  0  0  0  0  0  0  0  0  0  0  0
  162.1410  206.0990  146.2070 C   0  0  0  0  0  2  0  0  0  0  0  0
  161.6510  204.0290  145.0280 O   0  0  0  0  0  0  0  0  0  0  0  0
  161.0530  203.7920  146.2860 C   0  0  2  0  0  3  0  0  0  0  0  0
  163.6660  203.9520  146.3900 C   0  0  0  0  0  1  0  0  0  0  0  0
  162.3010  204.5870  146.1440 C   0  0  2  0  0  0  0  0  0  0  0  0
  161.2800  202.3410  146.6870 C   0  0  2  0  0  3  0  0  0  0  0  0
  160.8320  201.5030  145.6640 O   0  0  0  0  0  1  0  0  0  0  0  0
  160.5240  202.0390  147.9710 C   0  0  0  0  0  2  0  0  0  0  0  0
  161.1720  200.9650  150.1270 O   0  0  0  0  0  1  0  0  0  0  0  0
  161.8740  200.0800  148.1330 O   0  0  0  0  0  0  0  0  0  0  0  0
  161.2160  200.9660  148.7390 C   0  0  0  0  0  0  0  0  0  0  0  0
  161.8910  208.0470  152.7550 C   0  0  1  0  0  3  0  0  0  0  0  0
  159.9890  209.6140  156.5950 C   0  0  0  0  0  2  0  0  0  0  0  0
  160.8660  207.8400  155.0810 C   0  0  0  0  0  2  0  0  0  0  0  0
  160.7960  208.5300  153.7160 C   0  0  1  0  0  3  0  0  0  0  0  0
  160.8020  210.0530  153.8180 C   0  0  0  0  0  2  0  0  0  0  0  0
  159.4890  210.7520  155.8050 N   0  0  0  0  0  0  0  0  0  0  0  0
  158.1220  211.0030  156.2240 C   0  0  0  0  0  1  0  0  0  0  0  0
  159.7090  208.2380  155.9870 C   0  0  0  0  0  2  0  0  0  0  0  0
  159.4580  210.5280  154.3550 C   0  0  0  0  0  2  0  0  0  0  0  0
  162.6310  205.8030  151.9530 C   0  0  0  0  0  3  0  0  0  0  0  0
  161.6560  206.6970  152.1250 C   0  0  0  0  0  3  0  0  0  0  0  0
  162.3330  204.4850  151.3260 C   0  0  0  0  0  2  0  0  0  0  0  0
  160.0740  204.4290  150.5760 O   0  0  0  0  0  0  0  0  0  0  0  0
  160.8910  204.1620  151.4950 C   0  0  0  0  0  0  0  0  0  0  0  0
  160.4510  203.5350  152.6550 O   0  0  0  0  0  1  0  0  0  0  0  0
  2  6  1  0  0  0  0
  4  2  1  1  0  0  0
  4  3  1  0  0  0  0
  4  9  1  0  0  0  0
  5  8  1  0  0  0  0
  6 10  1  6  0  0  0
  6  5  1  0  0  0  0
  7  1  2  0  0  0  0
  7 24  1  0  0  0  0
  8  7  1  0  0  0  0
  9  3  1  6  0  0  0
  9  8  1  0  0  0  0
 11 12  2  0  0  0  0
 12 10  1  0  0  0  0
 13 12  1  0  0  0  0
 14 17  1  0  0  0  0
 14 15  1  0  0  0  0
 15 18  1  1  0  0  0
 17 13  1  0  0  0  0
 17 15  1  0  0  0  0
 17 16  1  1  0  0  0
 18 19  1  6  0  0  0
 18 20  1  0  0  0  0
 20 23  1  0  0  0  0
 22 23  2  0  0  0  0
 23 21  1  0  0  0  0
 24 34  1  6  0  0  0
 26 31  1  0  0  0  0
 27 24  1  6  0  0  0
 27 28  1  0  0  0  0
 27 26  1  0  0  0  0
 28 32  1  0  0  0  0
 29 30  1  0  0  0  0
 29 25  1  0  0  0  0
 31 25  1  0  0  0  0
 32 29  1  0  0  0  0
 33 34  2  0  0  0  0
 35 37  1  0  0  0  0
 35 33  1  0  0  0  0
 36 37  2  0  0  0  0
 37 38  1  0  0  0  0
M  END
>  <MODEL>
5

>  <REMARK>
 VINA RESULT:      -4.6      2.815      9.318
  Name = 
  11 active torsions:
  status: ('A' for Active; 'I' for Inactive)
    1  A    between atoms: C_3  and  C_25
    2  A    between atoms: C_3  and  C_34
    3  A    between atoms: C_6  and  C_15
    4  A    between atoms: N_7  and  C_28
    5  A    between atoms: C_9  and  C_14
    6  A    between atoms: C_9  and  C_36
    7  A    between atoms: C_10  and  C_27
    8  A    between atoms: C_12  and  C_27
    9  A    between atoms: C_15  and  C_24
   10  A    between atoms: C_15  and  C_29
   11  A    between atoms: C_32  and  C_36
                            x       y       z     vdW  Elec       q    Type
                         _______ _______ _______ _____ _____    ______ ____

>  <TORSDO>
F 11

$$$$
=
 OpenBabel11072412193D

 38 41  0  0  1  0  0  0  0  0999 V2000
  162.9410  208.5140  148.1030 O   0  0  0  0  0  0  0  0  0  0  0  0
  160.5040  212.1830  148.1740 C   0  0  0  0  0  2  0  0  0  0  0  0
  162.8640  212.6780  148.5930 O   0  0  0  0  0  0  0  0  0  0  0  0
  161.9400  212.2830  147.6080 C   0  0  1  0  0  3  0  0  0  0  0  0
  161.4890  211.0680  150.2780 C   0  0  0  0  0  2  0  0  0  0  0  0
  160.3670  211.9270  149.6860 C   0  0  1  0  0  3  0  0  0  0  0  0
  162.3240  209.0340  149.0720 C   0  0  0  0  0  0  0  0  0  0  0  0
  162.2810  210.4610  149.2130 N   0  0  0  0  0  0  0  0  0  0  0  0
  162.9140  211.3190  148.2050 C   0  0  2  0  0  3  0  0  0  0  0  0
  160.2690  213.1930  150.4010 N   0  0  0  0  0  2  0  0  0  0  0  0
  159.5650  214.4530  152.2210 O   0  0  0  0  0  0  0  0  0  0  0  0
  159.6220  213.3230  151.6710 C   0  0  0  0  0  0  0  0  0  0  0  0
  158.9880  212.1460  152.3450 C   0  0  0  0  0  2  0  0  0  0  0  0
  158.9350  213.6110  154.2860 O   0  0  0  0  0  0  0  0  0  0  0  0
  159.0530  212.3380  154.8890 C   0  0  2  0  0  3  0  0  0  0  0  0
  156.7680  212.6990  153.6600 C   0  0  0  0  0  1  0  0  0  0  0  0
  158.2850  212.5480  153.6340 C   0  0  2  0  0  0  0  0  0  0  0  0
  158.1950  212.2950  156.1460 C   0  0  2  0  0  3  0  0  0  0  0  0
  157.8930  213.5980  156.5440 O   0  0  0  0  0  1  0  0  0  0  0  0
  158.9450  211.5760  157.2550 C   0  0  0  0  0  2  0  0  0  0  0  0
  160.9220  213.0950  157.1810 O   0  0  0  0  0  1  0  0  0  0  0  0
  161.1850  210.8330  156.9190 O   0  0  0  0  0  0  0  0  0  0  0  0
  160.4110  211.8050  157.1220 C   0  0  0  0  0  0  0  0  0  0  0  0
  161.5830  208.1540  150.0430 C   0  0  1  0  0  3  0  0  0  0  0  0
  160.4560  203.7440  149.7260 C   0  0  0  0  0  2  0  0  0  0  0  0
  161.3420  205.7610  150.8910 C   0  0  0  0  0  2  0  0  0  0  0  0
  161.7220  206.6620  149.7120 C   0  0  1  0  0  3  0  0  0  0  0  0
  160.9620  206.3210  148.4330 C   0  0  0  0  0  2  0  0  0  0  0  0
  160.6760  203.8610  148.2740 N   0  0  0  0  0  0  0  0  0  0  0  0
  161.3830  202.6670  147.8470 C   0  0  0  0  0  1  0  0  0  0  0  0
  161.5930  204.2890  150.5930 C   0  0  0  0  0  2  0  0  0  0  0  0
  161.4910  205.0110  147.8660 C   0  0  0  0  0  2  0  0  0  0  0  0
  160.7870  208.8100  152.3150 C   0  0  0  0  0  3  0  0  0  0  0  0
  161.7940  208.5230  151.4900 C   0  0  0  0  0  3  0  0  0  0  0  0
  161.0620  209.1650  153.7360 C   0  0  0  0  0  2  0  0  0  0  0  0
  159.9680  208.2630  155.6480 O   0  0  0  0  0  1  0  0  0  0  0  0
  160.6610  208.0400  154.6210 C   0  0  0  0  0  0  0  0  0  0  0  0
  161.0230  206.7380  154.2990 O   0  0  0  0  0  0  0  0  0  0  0  0
  1  7  2  0  0  0  0
  2  6  1  0  0  0  0
  4  2  1  1  0  0  0
  4  9  1  0  0  0  0
  4  3  1  0  0  0  0
  6  5  1  0  0  0  0
  6 10  1  1  0  0  0
  7  8  1  0  0  0  0
  7 24  1  0  0  0  0
  8  5  1  0  0  0  0
  9  3  1  1  0  0  0
  9  8  1  0  0  0  0
 10 12  1  0  0  0  0
 12 11  2  0  0  0  0
 12 13  1  0  0  0  0
 13 17  1  0  0  0  0
 14 15  1  0  0  0  0
 15 18  1  1  0  0  0
 17 16  1  1  0  0  0
 17 14  1  0  0  0  0
 17 15  1  0  0  0  0
 18 19  1  1  0  0  0
 18 20  1  0  0  0  0
 22 23  2  0  0  0  0
 23 21  1  0  0  0  0
 23 20  1  0  0  0  0
 24 34  1  1  0  0  0
 25 31  1  0  0  0  0
 27 24  1  1  0  0  0
 27 26  1  0  0  0  0
 28 27  1  0  0  0  0
 29 25  1  0  0  0  0
 30 29  1  0  0  0  0
 31 26  1  0  0  0  0
 32 29  1  0  0  0  0
 32 28  1  0  0  0  0
 33 35  1  0  0  0  0
 34 33  2  0  0  0  0
 35 37  1  0  0  0  0
 37 36  1  0  0  0  0
 38 37  2  0  0  0  0
M  END
>  <MODEL>
6

>  <REMARK>
 VINA RESULT:      -4.5      2.511      4.498
  Name = 
  11 active torsions:
  status: ('A' for Active; 'I' for Inactive)
    1  A    between atoms: C_3  and  C_25
    2  A    between atoms: C_3  and  C_34
    3  A    between atoms: C_6  and  C_15
    4  A    between atoms: N_7  and  C_28
    5  A    between atoms: C_9  and  C_14
    6  A    between atoms: C_9  and  C_36
    7  A    between atoms: C_10  and  C_27
    8  A    between atoms: C_12  and  C_27
    9  A    between atoms: C_15  and  C_24
   10  A    between atoms: C_15  and  C_29
   11  A    between atoms: C_32  and  C_36
                            x       y       z     vdW  Elec       q    Type
                         _______ _______ _______ _____ _____    ______ ____

>  <TORSDO>
F 11

$$$$
=
 OpenBabel11072412193D

 38 41  0  0  1  0  0  0  0  0999 V2000
  161.0130  208.3210  155.9980 O   0  0  0  0  0  0  0  0  0  0  0  0
  160.4590  208.3120  151.6290 C   0  0  0  0  0  2  0  0  0  0  0  0
  162.4840  207.0950  152.2680 O   0  0  0  0  0  0  0  0  0  0  0  0
  161.0770  207.0520  152.2790 C   0  0  1  0  0  3  0  0  0  0  0  0
  162.2330  209.7250  152.8520 C   0  0  0  0  0  2  0  0  0  0  0  0
  161.3180  209.5900  151.6310 C   0  0  1  0  0  3  0  0  0  0  0  0
  161.4010  209.1710  155.1520 C   0  0  0  0  0  0  0  0  0  0  0  0
  161.8750  208.7400  153.8680 N   0  0  0  0  0  0  0  0  0  0  0  0
  161.8660  207.3140  153.5210 C   0  0  2  0  0  3  0  0  0  0  0  0
  162.0980  209.6720  150.4030 N   0  0  0  0  0  2  0  0  0  0  0  0
  162.6380  208.9010  148.2790 O   0  0  0  0  0  0  0  0  0  0  0  0
  161.9170  208.7750  149.3020 C   0  0  0  0  0  0  0  0  0  0  0  0
  160.9030  207.6750  149.3550 C   0  0  0  0  0  2  0  0  0  0  0  0
  160.8320  205.9090  147.6840 O   0  0  0  0  0  0  0  0  0  0  0  0
  160.5530  205.1930  148.8700 C   0  0  2  0  0  3  0  0  0  0  0  0
  162.9870  206.1580  148.7860 C   0  0  0  0  0  1  0  0  0  0  0  0
  161.4760  206.3580  148.8500 C   0  0  2  0  0  0  0  0  0  0  0  0
  161.2520  203.8420  148.8190 C   0  0  2  0  0  3  0  0  0  0  0  0
  161.2240  203.3560  147.5110 O   0  0  0  0  0  1  0  0  0  0  0  0
  160.5490  202.8660  149.7490 C   0  0  0  0  0  2  0  0  0  0  0  0
  162.1050  202.1010  151.5420 O   0  0  0  0  0  0  0  0  0  0  0  0
  160.6440  203.8240  151.9300 O   0  0  0  0  0  1  0  0  0  0  0  0
  161.1050  202.9710  151.1270 C   0  0  0  0  0  0  0  0  0  0  0  0
  161.3050  210.6390  155.4700 C   0  0  1  0  0  3  0  0  0  0  0  0
  157.6360  213.3440  155.6780 C   0  0  0  0  0  2  0  0  0  0  0  0
  159.8160  212.4430  156.4850 C   0  0  0  0  0  2  0  0  0  0  0  0
  159.8700  211.0820  155.7850 C   0  0  1  0  0  3  0  0  0  0  0  0
  159.0000  211.0210  154.5330 C   0  0  0  0  0  2  0  0  0  0  0  0
  156.9150  212.3130  154.9120 N   0  0  0  0  0  0  0  0  0  0  0  0
  155.5960  212.1790  155.5020 C   0  0  0  0  0  1  0  0  0  0  0  0
  158.3990  212.8210  156.8970 C   0  0  0  0  0  2  0  0  0  0  0  0
  157.5330  210.9820  154.9390 C   0  0  0  0  0  2  0  0  0  0  0  0
  163.6670  210.9440  156.2160 C   0  0  0  0  0  3  0  0  0  0  0  0
  162.3630  211.1310  156.4260 C   0  0  0  0  0  3  0  0  0  0  0  0
  164.6630  211.4560  157.1980 C   0  0  0  0  0  2  0  0  0  0  0  0
  166.6960  212.6920  157.1260 O   0  0  0  0  0  1  0  0  0  0  0  0
  165.7930  212.1000  156.4790 C   0  0  0  0  0  0  0  0  0  0  0  0
  165.8710  212.0230  155.0940 O   0  0  0  0  0  0  0  0  0  0  0  0
  2  6  1  0  0  0  0
  3  4  1  0  0  0  0
  4  2  1  6  0  0  0
  4  9  1  0  0  0  0
  5  8  1  0  0  0  0
  6 10  1  6  0  0  0
  6  5  1  0  0  0  0
  7 24  1  0  0  0  0
  7  1  2  0  0  0  0
  8  7  1  0  0  0  0
  9  3  1  6  0  0  0
  9  8  1  0  0  0  0
 11 12  2  0  0  0  0
 12 13  1  0  0  0  0
 12 10  1  0  0  0  0
 14 17  1  0  0  0  0
 14 15  1  0  0  0  0
 15 18  1  6  0  0  0
 17 16  1  1  0  0  0
 17 15  1  0  0  0  0
 17 13  1  0  0  0  0
 18 19  1  6  0  0  0
 18 20  1  0  0  0  0
 20 23  1  0  0  0  0
 23 21  2  0  0  0  0
 23 22  1  0  0  0  0
 24 34  1  1  0  0  0
 25 31  1  0  0  0  0
 26 31  1  0  0  0  0
 27 24  1  6  0  0  0
 27 26  1  0  0  0  0
 28 32  1  0  0  0  0
 28 27  1  0  0  0  0
 29 32  1  0  0  0  0
 29 30  1  0  0  0  0
 29 25  1  0  0  0  0
 33 34  2  0  0  0  0
 33 35  1  0  0  0  0
 37 36  1  0  0  0  0
 37 35  1  0  0  0  0
 38 37  2  0  0  0  0
M  END
>  <MODEL>
7

>  <REMARK>
 VINA RESULT:      -4.4      2.830      9.638
  Name = 
  11 active torsions:
  status: ('A' for Active; 'I' for Inactive)
    1  A    between atoms: C_3  and  C_25
    2  A    between atoms: C_3  and  C_34
    3  A    between atoms: C_6  and  C_15
    4  A    between atoms: N_7  and  C_28
    5  A    between atoms: C_9  and  C_14
    6  A    between atoms: C_9  and  C_36
    7  A    between atoms: C_10  and  C_27
    8  A    between atoms: C_12  and  C_27
    9  A    between atoms: C_15  and  C_24
   10  A    between atoms: C_15  and  C_29
   11  A    between atoms: C_32  and  C_36
                            x       y       z     vdW  Elec       q    Type
                         _______ _______ _______ _____ _____    ______ ____

>  <TORSDO>
F 11

$$$$
=
 OpenBabel11072412193D

 38 41  0  0  1  0  0  0  0  0999 V2000
  161.3130  209.5930  148.5180 O   0  0  0  0  0  0  0  0  0  0  0  0
  160.0810  209.5420  152.7460 C   0  0  0  0  0  2  0  0  0  0  0  0
  161.5340  211.4530  152.2690 O   0  0  0  0  0  0  0  0  0  0  0  0
  160.2480  210.9180  152.0610 C   0  0  1  0  0  3  0  0  0  0  0  0
  162.4470  208.9290  151.9290 C   0  0  0  0  0  2  0  0  0  0  0  0
  161.3630  208.7250  152.9920 C   0  0  1  0  0  3  0  0  0  0  0  0
  161.8590  209.0080  149.4920 C   0  0  0  0  0  0  0  0  0  0  0  0
  161.9020  209.6420  150.7780 N   0  0  0  0  0  0  0  0  0  0  0  0
  161.2710  210.9530  150.9720 C   0  0  2  0  0  3  0  0  0  0  0  0
  161.8950  209.0150  154.3170 N   0  0  0  0  0  2  0  0  0  0  0  0
  161.6060  209.6530  156.5320 O   0  0  0  0  0  0  0  0  0  0  0  0
  161.0710  209.4070  155.4200 C   0  0  0  0  0  0  0  0  0  0  0  0
  159.5890  209.5540  155.2690 C   0  0  0  0  0  2  0  0  0  0  0  0
  158.4820  211.0090  156.8730 O   0  0  0  0  0  0  0  0  0  0  0  0
  157.6550  211.1530  155.7360 C   0  0  2  0  0  3  0  0  0  0  0  0
  160.0570  212.1480  155.4100 C   0  0  0  0  0  1  0  0  0  0  0  0
  159.1250  210.9600  155.6240 C   0  0  2  0  0  0  0  0  0  0  0  0
  157.2070  212.6030  155.6200 C   0  0  2  0  0  3  0  0  0  0  0  0
  156.6860  213.0250  156.8450 O   0  0  0  0  0  1  0  0  0  0  0  0
  156.1470  212.7270  154.5380 C   0  0  0  0  0  2  0  0  0  0  0  0
  155.7280  214.1470  152.5300 O   0  0  0  0  0  0  0  0  0  0  0  0
  157.8610  213.8370  153.3080 O   0  0  0  0  0  1  0  0  0  0  0  0
  156.6300  213.6090  153.4380 C   0  0  0  0  0  0  0  0  0  0  0  0
  162.4070  207.6170  149.3150 C   0  0  1  0  0  3  0  0  0  0  0  0
  160.8120  203.5210  150.5390 C   0  0  0  0  0  2  0  0  0  0  0  0
  160.8120  205.6300  149.2110 C   0  0  0  0  0  2  0  0  0  0  0  0
  161.6210  206.5670  150.1120 C   0  0  1  0  0  3  0  0  0  0  0  0
  162.5410  205.8210  151.0740 C   0  0  0  0  0  2  0  0  0  0  0  0
  161.4110  203.7570  151.8630 N   0  0  0  0  0  0  0  0  0  0  0  0
  160.4560  203.3020  152.8570 C   0  0  0  0  0  1  0  0  0  0  0  0
  159.9460  204.6680  150.0130 C   0  0  0  0  0  2  0  0  0  0  0  0
  161.7050  205.1630  152.1640 C   0  0  0  0  0  2  0  0  0  0  0  0
  162.2570  206.1380  147.3100 C   0  0  0  0  0  3  0  0  0  0  0  0
  162.7110  207.2540  147.8830 C   0  0  0  0  0  3  0  0  0  0  0  0
  162.5900  205.8380  145.8900 C   0  0  0  0  0  2  0  0  0  0  0  0
  160.7120  205.3370  144.5160 O   0  0  0  0  0  0  0  0  0  0  0  0
  161.5790  204.9080  145.3220 C   0  0  0  0  0  0  0  0  0  0  0  0
  161.6100  203.5590  145.6540 O   0  0  0  0  0  1  0  0  0  0  0  0
  1  7  2  0  0  0  0
  2  6  1  0  0  0  0
  4  3  1  0  0  0  0
  4  2  1  1  0  0  0
  5  6  1  0  0  0  0
  6 10  1  1  0  0  0
  7  8  1  0  0  0  0
  8  9  1  0  0  0  0
  8  5  1  0  0  0  0
  9  4  1  0  0  0  0
  9  3  1  1  0  0  0
 10 12  1  0  0  0  0
 12 11  2  0  0  0  0
 13 12  1  0  0  0  0
 13 17  1  0  0  0  0
 15 18  1  1  0  0  0
 15 14  1  0  0  0  0
 17 16  1  6  0  0  0
 17 15  1  0  0  0  0
 17 14  1  0  0  0  0
 18 19  1  1  0  0  0
 20 18  1  0  0  0  0
 21 23  2  0  0  0  0
 22 23  1  0  0  0  0
 23 20  1  0  0  0  0
 24 34  1  6  0  0  0
 24  7  1  0  0  0  0
 25 29  1  0  0  0  0
 26 31  1  0  0  0  0
 26 27  1  0  0  0  0
 27 24  1  6  0  0  0
 27 28  1  0  0  0  0
 28 32  1  0  0  0  0
 29 32  1  0  0  0  0
 29 30  1  0  0  0  0
 31 25  1  0  0  0  0
 33 34  2  0  0  0  0
 35 33  1  0  0  0  0
 36 37  2  0  0  0  0
 37 38  1  0  0  0  0
 37 35  1  0  0  0  0
M  END
>  <MODEL>
8

>  <REMARK>
 VINA RESULT:      -4.4      2.109      3.703
  Name = 
  11 active torsions:
  status: ('A' for Active; 'I' for Inactive)
    1  A    between atoms: C_3  and  C_25
    2  A    between atoms: C_3  and  C_34
    3  A    between atoms: C_6  and  C_15
    4  A    between atoms: N_7  and  C_28
    5  A    between atoms: C_9  and  C_14
    6  A    between atoms: C_9  and  C_36
    7  A    between atoms: C_10  and  C_27
    8  A    between atoms: C_12  and  C_27
    9  A    between atoms: C_15  and  C_24
   10  A    between atoms: C_15  and  C_29
   11  A    between atoms: C_32  and  C_36
                            x       y       z     vdW  Elec       q    Type
                         _______ _______ _______ _____ _____    ______ ____

>  <TORSDO>
F 11

$$$$
=
 OpenBabel11072412193D

 38 41  0  0  1  0  0  0  0  0999 V2000
  159.3780  210.1960  157.0050 O   0  0  0  0  0  0  0  0  0  0  0  0
  158.1100  213.4090  154.2720 C   0  0  0  0  0  2  0  0  0  0  0  0
  156.4380  211.6240  154.3780 O   0  0  0  0  0  0  0  0  0  0  0  0
  157.0160  212.6900  155.0940 C   0  0  1  0  0  3  0  0  0  0  0  0
  158.9390  211.0970  153.4900 C   0  0  0  0  0  2  0  0  0  0  0  0
  158.8050  212.5890  153.1680 C   0  0  1  0  0  3  0  0  0  0  0  0
  159.6280  210.3320  155.7770 C   0  0  0  0  0  0  0  0  0  0  0  0
  158.6230  210.8490  154.8930 N   0  0  0  0  0  0  0  0  0  0  0  0
  157.3190  211.2640  155.4240 C   0  0  2  0  0  3  0  0  0  0  0  0
  158.1130  212.7710  151.8990 N   0  0  0  0  0  2  0  0  0  0  0  0
  158.0990  213.3870  149.6590 O   0  0  0  0  0  0  0  0  0  0  0  0
  158.7660  213.2420  150.7150 C   0  0  0  0  0  0  0  0  0  0  0  0
  160.2230  213.5890  150.7170 C   0  0  0  0  0  2  0  0  0  0  0  0
  161.7880  214.3240  149.0060 O   0  0  0  0  0  0  0  0  0  0  0  0
  160.5670  214.3150  148.2940 C   0  0  2  0  0  3  0  0  0  0  0  0
  161.3680  211.9270  149.0160 C   0  0  0  0  0  1  0  0  0  0  0  0
  160.8650  213.3240  149.3620 C   0  0  2  0  0  0  0  0  0  0  0  0
  160.8110  213.8010  146.8820 C   0  0  2  0  0  3  0  0  0  0  0  0
  161.9190  214.4530  146.3380 O   0  0  0  0  0  1  0  0  0  0  0  0
  159.5850  214.0620  146.0220 C   0  0  0  0  0  2  0  0  0  0  0  0
  157.7920  212.3370  145.8440 O   0  0  0  0  0  1  0  0  0  0  0  0
  159.7650  212.0830  144.7060 O   0  0  0  0  0  0  0  0  0  0  0  0
  159.0550  212.7820  145.4750 C   0  0  0  0  0  0  0  0  0  0  0  0
  161.0030  210.0090  155.2540 C   0  0  1  0  0  3  0  0  0  0  0  0
  162.6010  208.6460  151.2040 C   0  0  0  0  0  2  0  0  0  0  0  0
  161.9960  210.3400  152.9290 C   0  0  0  0  0  2  0  0  0  0  0  0
  160.9860  209.5680  153.7850 C   0  0  1  0  0  3  0  0  0  0  0  0
  161.1470  208.0540  153.6740 C   0  0  0  0  0  2  0  0  0  0  0  0
  161.7450  207.4560  151.3410 N   0  0  0  0  0  0  0  0  0  0  0  0
  161.1360  207.2100  150.0470 C   0  0  0  0  0  1  0  0  0  0  0  0
  161.8920  209.9790  151.4530 C   0  0  0  0  0  2  0  0  0  0  0  0
  160.6520  207.5920  152.3100 C   0  0  0  0  0  2  0  0  0  0  0  0
  163.2220  210.6970  156.1650 C   0  0  0  0  0  3  0  0  0  0  0  0
  162.0520  211.0290  155.6170 C   0  0  0  0  0  3  0  0  0  0  0  0
  164.2180  211.7530  156.4980 C   0  0  0  0  0  2  0  0  0  0  0  0
  166.4890  212.1060  155.8790 O   0  0  0  0  0  1  0  0  0  0  0  0
  165.3490  211.6980  155.5350 C   0  0  0  0  0  0  0  0  0  0  0  0
  165.1570  211.1670  154.2650 O   0  0  0  0  0  0  0  0  0  0  0  0
  3  4  1  0  0  0  0
  4  2  1  6  0  0  0
  4  9  1  0  0  0  0
  5  8  1  0  0  0  0
  6 10  1  6  0  0  0
  6  5  1  0  0  0  0
  6  2  1  0  0  0  0
  7  1  2  0  0  0  0
  8  9  1  0  0  0  0
  8  7  1  0  0  0  0
  9  3  1  6  0  0  0
 11 12  2  0  0  0  0
 12 13  1  0  0  0  0
 12 10  1  0  0  0  0
 14 17  1  0  0  0  0
 15 18  1  6  0  0  0
 15 14  1  0  0  0  0
 15 17  1  0  0  0  0
 17 16  1  6  0  0  0
 17 13  1  0  0  0  0
 18 19  1  6  0  0  0
 20 18  1  0  0  0  0
 22 23  2  0  0  0  0
 23 21  1  0  0  0  0
 23 20  1  0  0  0  0
 24 34  1  6  0  0  0
 24  7  1  0  0  0  0
 25 29  1  0  0  0  0
 25 31  1  0  0  0  0
 26 27  1  0  0  0  0
 27 24  1  1  0  0  0
 28 27  1  0  0  0  0
 29 32  1  0  0  0  0
 30 29  1  0  0  0  0
 31 26  1  0  0  0  0
 32 28  1  0  0  0  0
 33 35  1  0  0  0  0
 34 33  2  0  0  0  0
 37 36  1  0  0  0  0
 37 35  1  0  0  0  0
 38 37  2  0  0  0  0
M  END
>  <MODEL>
9

>  <REMARK>
 VINA RESULT:      -4.3      3.913      7.978
  Name = 
  11 active torsions:
  status: ('A' for Active; 'I' for Inactive)
    1  A    between atoms: C_3  and  C_25
    2  A    between atoms: C_3  and  C_34
    3  A    between atoms: C_6  and  C_15
    4  A    between atoms: N_7  and  C_28
    5  A    between atoms: C_9  and  C_14
    6  A    between atoms: C_9  and  C_36
    7  A    between atoms: C_10  and  C_27
    8  A    between atoms: C_12  and  C_27
    9  A    between atoms: C_15  and  C_24
   10  A    between atoms: C_15  and  C_29
   11  A    between atoms: C_32  and  C_36
                            x       y       z     vdW  Elec       q    Type
                         _______ _______ _______ _____ _____    ______ ____

>  <TORSDO>
F 11

$$$$
