=
 OpenBabel11072412393D

 31 33  0  0  1  0  0  0  0  0999 V2000
  162.1240  208.4710  148.1450 C   0  0  0  0  0  2  0  0  0  0  0  0
  161.0550  208.3590  151.5860 C   0  0  0  0  0  0  0  0  0  0  0  0
  161.8760  206.2960  149.3990 N   0  0  0  0  0  0  0  0  0  0  0  0
  160.3860  207.3490  151.7390 O   0  0  0  0  0  0  0  0  0  0  0  0
  162.7990  206.9330  150.3600 C   0  0  1  0  0  3  0  0  0  0  0  0
  162.0810  209.1580  149.4940 C   0  0  0  0  0  0  0  0  0  0  0  0
  161.9660  210.5030  149.5830 C   0  0  0  0  0  0  0  0  0  0  0  0
  162.0380  211.1930  150.8920 C   0  0  0  0  0  3  0  0  0  0  0  0
  162.3030  208.3340  150.7360 C   0  0  1  0  0  3  0  0  0  0  0  0
  160.5320  209.6630  152.1330 C   0  0  2  0  0  3  0  0  0  0  0  0
  161.4670  210.7830  151.9880 N   0  0  0  0  0  0  0  0  0  0  0  0
  163.2200  206.1020  151.5690 C   0  0  0  0  0  1  0  0  0  0  0  0
  161.5560  207.0400  148.1610 C   0  0  2  0  0  3  0  0  0  0  0  0
  162.8060  205.0230  147.2240 C   0  0  0  0  0  3  0  0  0  0  0  0
  160.0420  206.5510  145.5650 O   0  0  0  0  0  0  0  0  0  0  0  0
  162.0410  206.3090  146.8980 C   0  0  1  0  0  3  0  0  0  0  0  0
  160.9250  205.8150  146.0700 C   0  0  0  0  0  0  0  0  0  0  0  0
  161.9720  203.8590  146.6810 C   0  0  0  0  0  3  0  0  0  0  0  0
  160.9250  204.4490  145.9340 O   0  0  0  0  0  0  0  0  0  0  0  0
  159.3280  210.3120  154.0890 O   0  0  0  0  0  0  0  0  0  0  0  0
  160.7280  208.5150  154.3420 O   0  0  0  0  0  1  0  0  0  0  0  0
  160.1650  209.5200  153.5710 C   0  0  0  0  0  0  0  0  0  0  0  0
  163.0710  212.1300  147.9990 N   0  0  0  0  0  1  0  0  0  0  0  0
  160.8550  211.5170  147.7520 O   0  0  0  0  0  0  0  0  0  0  0  0
  161.9290  211.3780  148.3920 C   0  0  0  0  0  0  0  0  0  0  0  0
  161.4840  204.0200  150.2130 C   0  0  0  0  0  3  0  0  0  0  0  0
  161.0380  205.1550  149.6830 C   0  0  0  0  0  3  0  0  0  0  0  0
  160.3090  202.6010  151.6760 O   0  0  0  0  0  0  0  0  0  0  0  0
  160.6030  202.8780  150.4840 C   0  0  0  0  0  0  0  0  0  0  0  0
  160.0740  202.0130  149.3850 C   0  0  0  0  0  2  0  0  0  0  0  0
  161.0650  201.0180  149.0190 N   0  0  0  0  0  1  0  0  0  0  0  0
  1  6  1  0  0  0  0
  2  4  2  0  0  0  0
  2 10  1  0  0  0  0
  3 27  1  0  0  0  0
  3  5  1  0  0  0  0
  5  9  1  0  0  0  0
  5 12  1  1  0  0  0
  6  7  2  0  0  0  0
  7  8  1  0  0  0  0
  8 11  2  0  0  0  0
  9  6  1  6  0  0  0
  9  2  1  0  0  0  0
 10 22  1  1  0  0  0
 11 10  1  0  0  0  0
 13  1  1  1  0  0  0
 13  3  1  0  0  0  0
 15 17  2  0  0  0  0
 16 14  1  1  0  0  0
 16 13  1  0  0  0  0
 17 16  1  0  0  0  0
 18 14  2  0  0  0  0
 19 17  1  0  0  0  0
 19 18  1  0  0  0  0
 22 20  2  0  0  0  0
 22 21  1  0  0  0  0
 23 25  1  0  0  0  0
 24 25  2  0  0  0  0
 25  7  1  0  0  0  0
 26 29  1  0  0  0  0
 27 26  2  0  0  0  0
 29 28  2  0  0  0  0
 30 29  1  0  0  0  0
 31 30  1  0  0  0  0
M  END
>  <MODEL>
1

>  <REMARK>
 VINA RESULT:      -5.9      0.000      0.000
  Name = 
  6 active torsions:
  status: ('A' for Active; 'I' for Inactive)
    1  A    between atoms: C_1  and  C_20
    2  A    between atoms: N_9  and  C_11
    3  A    between atoms: C_10  and  C_20
    4  A    between atoms: C_15  and  C_30
    5  A    between atoms: C_23  and  CA_27
    6  A    between atoms: C_24  and  C_31
                            x       y       z     vdW  Elec       q    Type
                         _______ _______ _______ _____ _____    ______ ____

>  <TORSDO>
F 6

$$$$
=
 OpenBabel11072412393D

 31 33  0  0  1  0  0  0  0  0999 V2000
  160.3970  211.5900  151.5130 C   0  0  0  0  0  2  0  0  0  0  0  0
  158.6130  211.1990  154.6220 C   0  0  0  0  0  0  0  0  0  0  0  0
  161.2430  210.0980  153.3630 N   0  0  0  0  0  0  0  0  0  0  0  0
  158.7710  210.0500  155.0030 O   0  0  0  0  0  0  0  0  0  0  0  0
  161.1370  211.3240  154.1790 C   0  0  1  0  0  3  0  0  0  0  0  0
  159.4730  212.2040  152.5440 C   0  0  0  0  0  0  0  0  0  0  0  0
  158.4830  213.0490  152.1730 C   0  0  0  0  0  0  0  0  0  0  0  0
  157.6490  213.7430  153.1810 C   0  0  0  0  0  3  0  0  0  0  0  0
  159.7570  211.9690  154.0060 C   0  0  1  0  0  3  0  0  0  0  0  0
  157.2220  211.7800  154.6360 C   0  0  2  0  0  3  0  0  0  0  0  0
  157.1700  213.1970  154.2620 N   0  0  0  0  0  0  0  0  0  0  0  0
  161.5710  211.2220  155.6390 C   0  0  0  0  0  1  0  0  0  0  0  0
  160.9450  210.2100  151.9180 C   0  0  2  0  0  3  0  0  0  0  0  0
  162.2810  208.4050  150.7080 C   0  0  0  0  0  3  0  0  0  0  0  0
  161.9880  211.7520  149.5080 O   0  0  0  0  0  0  0  0  0  0  0  0
  162.1680  209.8950  151.0420 C   0  0  1  0  0  3  0  0  0  0  0  0
  162.0800  210.5150  149.7080 C   0  0  0  0  0  0  0  0  0  0  0  0
  162.0880  208.2720  149.1950 C   0  0  0  0  0  3  0  0  0  0  0  0
  162.0710  209.5930  148.6900 O   0  0  0  0  0  0  0  0  0  0  0  0
  157.1450  212.1060  156.9990 O   0  0  0  0  0  1  0  0  0  0  0  0
  155.4010  210.9150  156.1080 O   0  0  0  0  0  0  0  0  0  0  0  0
  156.5940  211.6090  155.9770 C   0  0  0  0  0  0  0  0  0  0  0  0
  159.1410  214.4010  150.1440 N   0  0  0  0  0  1  0  0  0  0  0  0
  157.2810  213.0270  150.1310 O   0  0  0  0  0  0  0  0  0  0  0  0
  158.2760  213.4600  150.7670 C   0  0  0  0  0  0  0  0  0  0  0  0
  160.8340  207.6850  153.2710 C   0  0  0  0  0  3  0  0  0  0  0  0
  161.3290  208.7550  153.8860 C   0  0  0  0  0  3  0  0  0  0  0  0
  160.7290  206.1700  155.0670 O   0  0  0  0  0  0  0  0  0  0  0  0
  160.9360  206.3350  153.8370 C   0  0  0  0  0  0  0  0  0  0  0  0
  161.3130  205.1560  152.9980 C   0  0  0  0  0  2  0  0  0  0  0  0
  161.0300  205.4310  151.6030 N   0  0  0  0  0  1  0  0  0  0  0  0
  1  6  1  0  0  0  0
  2 10  1  0  0  0  0
  2  4  2  0  0  0  0
  3 27  1  0  0  0  0
  3  5  1  0  0  0  0
  5 12  1  1  0  0  0
  7  6  2  0  0  0  0
  7  8  1  0  0  0  0
  8 11  2  0  0  0  0
  9  6  1  6  0  0  0
  9  5  1  0  0  0  0
  9  2  1  0  0  0  0
 10 22  1  1  0  0  0
 11 10  1  0  0  0  0
 13  1  1  1  0  0  0
 13  3  1  0  0  0  0
 15 17  2  0  0  0  0
 16 14  1  6  0  0  0
 16 13  1  0  0  0  0
 17 16  1  0  0  0  0
 18 14  2  0  0  0  0
 19 18  1  0  0  0  0
 19 17  1  0  0  0  0
 22 21  2  0  0  0  0
 22 20  1  0  0  0  0
 23 25  1  0  0  0  0
 24 25  2  0  0  0  0
 25  7  1  0  0  0  0
 26 29  1  0  0  0  0
 26 27  2  0  0  0  0
 29 28  2  0  0  0  0
 30 29  1  0  0  0  0
 31 30  1  0  0  0  0
M  END
>  <MODEL>
2

>  <REMARK>
 VINA RESULT:      -5.3      3.183      5.281
  Name = 
  6 active torsions:
  status: ('A' for Active; 'I' for Inactive)
    1  A    between atoms: C_1  and  C_20
    2  A    between atoms: N_9  and  C_11
    3  A    between atoms: C_10  and  C_20
    4  A    between atoms: C_15  and  C_30
    5  A    between atoms: C_23  and  CA_27
    6  A    between atoms: C_24  and  C_31
                            x       y       z     vdW  Elec       q    Type
                         _______ _______ _______ _____ _____    ______ ____

>  <TORSDO>
F 6

$$$$
=
 OpenBabel11072412393D

 31 33  0  0  1  0  0  0  0  0999 V2000
  160.0660  209.6440  154.8810 C   0  0  0  0  0  2  0  0  0  0  0  0
  161.0910  208.0290  151.8240 C   0  0  0  0  0  0  0  0  0  0  0  0
  160.6740  210.9560  152.8140 N   0  0  0  0  0  0  0  0  0  0  0  0
  160.6750  208.6960  150.8890 O   0  0  0  0  0  0  0  0  0  0  0  0
  161.9390  210.1970  152.9020 C   0  0  1  0  0  3  0  0  0  0  0  0
  160.7390  208.4560  154.2240 C   0  0  0  0  0  0  0  0  0  0  0  0
  160.6200  207.2140  154.7480 C   0  0  0  0  0  0  0  0  0  0  0  0
  161.3660  206.0680  154.1810 C   0  0  0  0  0  3  0  0  0  0  0  0
  161.6580  208.6970  153.0540 C   0  0  1  0  0  3  0  0  0  0  0  0
  160.8870  206.5360  151.7930 C   0  0  2  0  0  3  0  0  0  0  0  0
  161.5220  205.8290  152.9100 N   0  0  0  0  0  0  0  0  0  0  0  0
  163.0040  210.5040  151.8530 C   0  0  0  0  0  1  0  0  0  0  0  0
  159.6820  210.7610  153.8930 C   0  0  2  0  0  3  0  0  0  0  0  0
  157.9390  212.2640  154.9920 C   0  0  0  0  0  3  0  0  0  0  0  0
  161.2470  211.8560  156.2650 O   0  0  0  0  0  0  0  0  0  0  0  0
  159.4250  212.0490  154.6910 C   0  0  1  0  0  3  0  0  0  0  0  0
  160.0210  212.0050  156.0390 C   0  0  0  0  0  0  0  0  0  0  0  0
  157.7750  212.1690  156.5110 C   0  0  0  0  0  3  0  0  0  0  0  0
  159.0860  212.1080  157.0400 O   0  0  0  0  0  0  0  0  0  0  0  0
  162.2670  206.5790  149.8460 O   0  0  0  0  0  0  0  0  0  0  0  0
  160.8970  204.7520  150.0460 O   0  0  0  0  0  1  0  0  0  0  0  0
  161.3860  205.9640  150.5100 C   0  0  0  0  0  0  0  0  0  0  0  0
  160.5430  206.9680  157.2600 N   0  0  0  0  0  1  0  0  0  0  0  0
  158.6640  206.6340  155.9540 O   0  0  0  0  0  0  0  0  0  0  0  0
  159.8810  206.9490  156.0010 C   0  0  0  0  0  0  0  0  0  0  0  0
  159.9640  212.9510  151.5850 C   0  0  0  0  0  3  0  0  0  0  0  0
  160.1990  211.6430  151.6370 C   0  0  0  0  0  3  0  0  0  0  0  0
  158.2740  213.4590  150.0300 O   0  0  0  0  0  0  0  0  0  0  0  0
  159.4750  213.6160  150.3710 C   0  0  0  0  0  0  0  0  0  0  0  0
  160.3740  214.4430  149.5090 C   0  0  0  0  0  2  0  0  0  0  0  0
  161.1640  213.5820  148.6500 N   0  0  0  0  0  1  0  0  0  0  0  0
  3  5  1  0  0  0  0
  3 13  1  0  0  0  0
  4  2  2  0  0  0  0
  5 12  1  6  0  0  0
  5  9  1  0  0  0  0
  6  7  2  0  0  0  0
  6  1  1  0  0  0  0
  7 25  1  0  0  0  0
  8  7  1  0  0  0  0
  9  2  1  6  0  0  0
  9  6  1  0  0  0  0
 10 22  1  6  0  0  0
 10  2  1  0  0  0  0
 10 11  1  0  0  0  0
 11  8  2  0  0  0  0
 13 16  1  0  0  0  0
 13  1  1  1  0  0  0
 14 18  2  0  0  0  0
 16 14  1  1  0  0  0
 16 17  1  0  0  0  0
 17 15  2  0  0  0  0
 17 19  1  0  0  0  0
 18 19  1  0  0  0  0
 20 22  2  0  0  0  0
 21 22  1  0  0  0  0
 24 25  2  0  0  0  0
 25 23  1  0  0  0  0
 26 27  2  0  0  0  0
 27  3  1  0  0  0  0
 28 29  2  0  0  0  0
 29 26  1  0  0  0  0
 30 29  1  0  0  0  0
 31 30  1  0  0  0  0
M  END
>  <MODEL>
3

>  <REMARK>
 VINA RESULT:      -4.9      3.163      8.585
  Name = 
  6 active torsions:
  status: ('A' for Active; 'I' for Inactive)
    1  A    between atoms: C_1  and  C_20
    2  A    between atoms: N_9  and  C_11
    3  A    between atoms: C_10  and  C_20
    4  A    between atoms: C_15  and  C_30
    5  A    between atoms: C_23  and  CA_27
    6  A    between atoms: C_24  and  C_31
                            x       y       z     vdW  Elec       q    Type
                         _______ _______ _______ _____ _____    ______ ____

>  <TORSDO>
F 6

$$$$
=
 OpenBabel11072412393D

 31 33  0  0  1  0  0  0  0  0999 V2000
  161.5170  208.7990  149.8420 C   0  0  0  0  0  2  0  0  0  0  0  0
  161.0130  207.3970  153.1250 C   0  0  0  0  0  0  0  0  0  0  0  0
  161.6330  206.3150  150.2680 N   0  0  0  0  0  0  0  0  0  0  0  0
  160.4540  206.3190  152.9910 O   0  0  0  0  0  0  0  0  0  0  0  0
  162.6460  206.6990  151.2730 C   0  0  1  0  0  3  0  0  0  0  0  0
  161.6340  208.9780  151.3410 C   0  0  0  0  0  0  0  0  0  0  0  0
  161.4340  210.1880  151.9130 C   0  0  0  0  0  0  0  0  0  0  0  0
  161.6580  210.3970  153.3620 C   0  0  0  0  0  3  0  0  0  0  0  0
  162.1100  207.8170  152.1760 C   0  0  1  0  0  3  0  0  0  0  0  0
  160.4850  208.3610  154.1560 C   0  0  2  0  0  3  0  0  0  0  0  0
  161.2990  209.5730  154.3030 N   0  0  0  0  0  0  0  0  0  0  0  0
  163.3120  205.5680  152.0510 C   0  0  0  0  0  1  0  0  0  0  0  0
  161.0690  207.3870  149.4210 C   0  0  2  0  0  3  0  0  0  0  0  0
  162.8250  206.6700  147.7160 C   0  0  0  0  0  3  0  0  0  0  0  0
  159.3230  206.1810  147.2360 O   0  0  0  0  0  0  0  0  0  0  0  0
  161.4030  207.1940  147.9320 C   0  0  1  0  0  3  0  0  0  0  0  0
  160.5770  206.1480  147.3020 C   0  0  0  0  0  0  0  0  0  0  0  0
  162.6960  205.2700  147.1080 C   0  0  0  0  0  3  0  0  0  0  0  0
  161.3220  205.1000  146.8180 O   0  0  0  0  0  0  0  0  0  0  0  0
  161.3380  207.6950  156.2830 O   0  0  0  0  0  1  0  0  0  0  0  0
  159.1700  207.0860  155.8530 O   0  0  0  0  0  0  0  0  0  0  0  0
  160.3600  207.6960  155.4840 C   0  0  0  0  0  0  0  0  0  0  0  0
  161.8540  211.6770  149.9180 N   0  0  0  0  0  1  0  0  0  0  0  0
  160.3120  212.2420  151.5460 O   0  0  0  0  0  0  0  0  0  0  0  0
  161.1450  211.4020  151.1200 C   0  0  0  0  0  0  0  0  0  0  0  0
  161.5460  203.8730  150.1130 C   0  0  0  0  0  3  0  0  0  0  0  0
  160.9390  205.0500  150.2300 C   0  0  0  0  0  3  0  0  0  0  0  0
  160.5530  202.0110  151.1520 O   0  0  0  0  0  0  0  0  0  0  0  0
  160.8060  202.6060  150.0730 C   0  0  0  0  0  0  0  0  0  0  0  0
  160.3780  201.9840  148.7820 C   0  0  0  0  0  2  0  0  0  0  0  0
  161.1710  200.7980  148.5180 N   0  0  0  0  0  1  0  0  0  0  0  0
  1  6  1  0  0  0  0
  2 10  1  0  0  0  0
  3  5  1  0  0  0  0
  4  2  2  0  0  0  0
  5 12  1  1  0  0  0
  5  9  1  0  0  0  0
  6  7  2  0  0  0  0
  7  8  1  0  0  0  0
  8 11  2  0  0  0  0
  9  6  1  6  0  0  0
  9  2  1  0  0  0  0
 10 11  1  0  0  0  0
 10 22  1  1  0  0  0
 13  1  1  1  0  0  0
 13  3  1  0  0  0  0
 15 17  2  0  0  0  0
 16 14  1  1  0  0  0
 16 13  1  0  0  0  0
 17 16  1  0  0  0  0
 18 14  2  0  0  0  0
 19 18  1  0  0  0  0
 19 17  1  0  0  0  0
 22 21  2  0  0  0  0
 22 20  1  0  0  0  0
 23 25  1  0  0  0  0
 25 24  2  0  0  0  0
 25  7  1  0  0  0  0
 26 27  2  0  0  0  0
 27  3  1  0  0  0  0
 29 26  1  0  0  0  0
 29 28  2  0  0  0  0
 30 29  1  0  0  0  0
 31 30  1  0  0  0  0
M  END
>  <MODEL>
4

>  <REMARK>
 VINA RESULT:      -4.7      1.601      1.964
  Name = 
  6 active torsions:
  status: ('A' for Active; 'I' for Inactive)
    1  A    between atoms: C_1  and  C_20
    2  A    between atoms: N_9  and  C_11
    3  A    between atoms: C_10  and  C_20
    4  A    between atoms: C_15  and  C_30
    5  A    between atoms: C_23  and  CA_27
    6  A    between atoms: C_24  and  C_31
                            x       y       z     vdW  Elec       q    Type
                         _______ _______ _______ _____ _____    ______ ____

>  <TORSDO>
F 6

$$$$
=
 OpenBabel11072412393D

 31 33  0  0  1  0  0  0  0  0999 V2000
  161.8060  210.0320  149.6260 C   0  0  0  0  0  2  0  0  0  0  0  0
  159.8740  211.7460  152.1420 C   0  0  0  0  0  0  0  0  0  0  0  0
  161.5040  209.0960  151.9490 N   0  0  0  0  0  0  0  0  0  0  0  0
  159.3200  210.9020  152.8290 O   0  0  0  0  0  0  0  0  0  0  0  0
  162.0470  210.4030  152.3700 C   0  0  1  0  0  3  0  0  0  0  0  0
  161.3150  211.3520  150.1840 C   0  0  0  0  0  0  0  0  0  0  0  0
  161.0130  212.3840  149.3610 C   0  0  0  0  0  0  0  0  0  0  0  0
  160.6440  213.7120  149.9020 C   0  0  0  0  0  3  0  0  0  0  0  0
  161.2970  211.5470  151.6780 C   0  0  1  0  0  3  0  0  0  0  0  0
  159.0630  212.9130  151.6380 C   0  0  2  0  0  3  0  0  0  0  0  0
  159.8550  213.9150  150.9180 N   0  0  0  0  0  0  0  0  0  0  0  0
  162.2280  210.6260  153.8690 C   0  0  0  0  0  1  0  0  0  0  0  0
  161.4380  208.8180  150.4980 C   0  0  2  0  0  3  0  0  0  0  0  0
  162.7040  206.7450  151.2760 C   0  0  0  0  0  3  0  0  0  0  0  0
  161.1740  207.0060  148.0640 O   0  0  0  0  0  0  0  0  0  0  0  0
  162.3320  207.6360  150.0880 C   0  0  1  0  0  3  0  0  0  0  0  0
  161.6420  206.6950  149.1870 C   0  0  0  0  0  0  0  0  0  0  0  0
  162.0540  205.3800  151.0300 C   0  0  0  0  0  3  0  0  0  0  0  0
  161.5280  205.4330  149.7180 O   0  0  0  0  0  0  0  0  0  0  0  0
  158.9800  213.9370  153.7920 O   0  0  0  0  0  1  0  0  0  0  0  0
  156.9800  213.8150  152.6780 O   0  0  0  0  0  0  0  0  0  0  0  0
  158.3440  213.5780  152.7610 C   0  0  0  0  0  0  0  0  0  0  0  0
  162.4480  212.5820  147.2930 N   0  0  0  0  0  1  0  0  0  0  0  0
  160.1980  212.0640  147.1590 O   0  0  0  0  0  0  0  0  0  0  0  0
  161.1890  212.3070  147.8950 C   0  0  0  0  0  0  0  0  0  0  0  0
  161.1350  207.8710  154.0370 C   0  0  0  0  0  3  0  0  0  0  0  0
  160.7700  208.1880  152.7980 C   0  0  0  0  0  3  0  0  0  0  0  0
  160.2400  205.7450  154.4950 O   0  0  0  0  0  0  0  0  0  0  0  0
  160.3670  206.9390  154.8710 C   0  0  0  0  0  0  0  0  0  0  0  0
  159.7010  207.3790  156.1350 C   0  0  0  0  0  2  0  0  0  0  0  0
  159.6970  208.8270  156.2140 N   0  0  0  0  0  1  0  0  0  0  0  0
  1  6  1  0  0  0  0
  2  4  2  0  0  0  0
  3  5  1  0  0  0  0
  3 27  1  0  0  0  0
  5 12  1  1  0  0  0
  7  8  1  0  0  0  0
  7  6  2  0  0  0  0
  8 11  2  0  0  0  0
  9  6  1  6  0  0  0
  9  2  1  0  0  0  0
  9  5  1  0  0  0  0
 10  2  1  0  0  0  0
 10 22  1  1  0  0  0
 11 10  1  0  0  0  0
 13  1  1  6  0  0  0
 13  3  1  0  0  0  0
 15 17  2  0  0  0  0
 16 13  1  0  0  0  0
 16 14  1  1  0  0  0
 17 19  1  0  0  0  0
 17 16  1  0  0  0  0
 18 14  2  0  0  0  0
 19 18  1  0  0  0  0
 21 22  2  0  0  0  0
 22 20  1  0  0  0  0
 23 25  1  0  0  0  0
 24 25  2  0  0  0  0
 25  7  1  0  0  0  0
 26 29  1  0  0  0  0
 27 26  2  0  0  0  0
 28 29  2  0  0  0  0
 29 30  1  0  0  0  0
 30 31  1  0  0  0  0
M  END
>  <MODEL>
5

>  <REMARK>
 VINA RESULT:      -4.1      2.753      4.467
  Name = 
  6 active torsions:
  status: ('A' for Active; 'I' for Inactive)
    1  A    between atoms: C_1  and  C_20
    2  A    between atoms: N_9  and  C_11
    3  A    between atoms: C_10  and  C_20
    4  A    between atoms: C_15  and  C_30
    5  A    between atoms: C_23  and  CA_27
    6  A    between atoms: C_24  and  C_31
                            x       y       z     vdW  Elec       q    Type
                         _______ _______ _______ _____ _____    ______ ____

>  <TORSDO>
F 6

$$$$
=
 OpenBabel11072412393D

 31 33  0  0  1  0  0  0  0  0999 V2000
  160.9860  207.5290  152.6780 C   0  0  0  0  0  2  0  0  0  0  0  0
  161.7440  210.3300  150.5390 C   0  0  0  0  0  0  0  0  0  0  0  0
  161.3450  209.8520  153.5930 N   0  0  0  0  0  0  0  0  0  0  0  0
  161.2170  211.3220  151.0180 O   0  0  0  0  0  0  0  0  0  0  0  0
  162.6330  209.7590  152.8760 C   0  0  1  0  0  3  0  0  0  0  0  0
  161.6240  208.0240  151.3970 C   0  0  0  0  0  0  0  0  0  0  0  0
  161.5930  207.2740  150.2710 C   0  0  0  0  0  0  0  0  0  0  0  0
  162.3120  207.6970  149.0480 C   0  0  0  0  0  3  0  0  0  0  0  0
  162.4120  209.3090  151.4270 C   0  0  1  0  0  3  0  0  0  0  0  0
  161.5820  210.0670  149.0630 C   0  0  2  0  0  3  0  0  0  0  0  0
  162.3460  208.9120  148.5810 N   0  0  0  0  0  0  0  0  0  0  0  0
  163.5780  210.9520  152.9950 C   0  0  0  0  0  1  0  0  0  0  0  0
  160.4720  208.6580  153.5900 C   0  0  2  0  0  3  0  0  0  0  0  0
  161.5780  207.7030  155.6810 C   0  0  0  0  0  3  0  0  0  0  0  0
  158.5920  209.6550  155.7680 O   0  0  0  0  0  0  0  0  0  0  0  0
  160.2600  208.0850  155.0010 C   0  0  1  0  0  3  0  0  0  0  0  0
  159.6960  209.0790  155.9330 C   0  0  0  0  0  0  0  0  0  0  0  0
  161.7430  208.6340  156.8860 C   0  0  0  0  0  3  0  0  0  0  0  0
  160.5250  209.3450  156.9950 O   0  0  0  0  0  0  0  0  0  0  0  0
  163.1270  211.7520  148.3800 O   0  0  0  0  0  1  0  0  0  0  0  0
  161.0570  211.8550  147.4010 O   0  0  0  0  0  0  0  0  0  0  0  0
  161.9660  211.2690  148.2690 C   0  0  0  0  0  0  0  0  0  0  0  0
  161.4750  204.8830  151.0760 N   0  0  0  0  0  1  0  0  0  0  0  0
  160.0880  205.6650  149.3990 O   0  0  0  0  0  0  0  0  0  0  0  0
  160.9920  205.9230  150.2340 C   0  0  0  0  0  0  0  0  0  0  0  0
  159.6960  211.6570  153.4490 C   0  0  0  0  0  3  0  0  0  0  0  0
  160.7330  211.0780  154.0470 C   0  0  0  0  0  3  0  0  0  0  0  0
  159.1850  213.1870  155.1600 O   0  0  0  0  0  0  0  0  0  0  0  0
  159.1030  212.9070  153.9360 C   0  0  0  0  0  0  0  0  0  0  0  0
  158.3710  213.8400  153.0240 C   0  0  0  0  0  2  0  0  0  0  0  0
  158.2100  213.2300  151.7190 N   0  0  0  0  0  1  0  0  0  0  0  0
  2  4  2  0  0  0  0
  3 27  1  0  0  0  0
  5 12  1  6  0  0  0
  5  3  1  0  0  0  0
  6  9  1  0  0  0  0
  6  1  1  0  0  0  0
  7  6  2  0  0  0  0
  8  7  1  0  0  0  0
  9  2  1  6  0  0  0
  9  5  1  0  0  0  0
 10 22  1  6  0  0  0
 10  2  1  0  0  0  0
 11  8  2  0  0  0  0
 11 10  1  0  0  0  0
 13  1  1  6  0  0  0
 13  3  1  0  0  0  0
 13 16  1  0  0  0  0
 14 18  2  0  0  0  0
 15 17  2  0  0  0  0
 16 14  1  1  0  0  0
 16 17  1  0  0  0  0
 17 19  1  0  0  0  0
 18 19  1  0  0  0  0
 21 22  2  0  0  0  0
 22 20  1  0  0  0  0
 24 25  2  0  0  0  0
 25  7  1  0  0  0  0
 25 23  1  0  0  0  0
 26 29  1  0  0  0  0
 26 27  2  0  0  0  0
 29 28  2  0  0  0  0
 30 29  1  0  0  0  0
 31 30  1  0  0  0  0
M  END
>  <MODEL>
6

>  <REMARK>
 VINA RESULT:      -3.7      2.559      7.675
  Name = 
  6 active torsions:
  status: ('A' for Active; 'I' for Inactive)
    1  A    between atoms: C_1  and  C_20
    2  A    between atoms: N_9  and  C_11
    3  A    between atoms: C_10  and  C_20
    4  A    between atoms: C_15  and  C_30
    5  A    between atoms: C_23  and  CA_27
    6  A    between atoms: C_24  and  C_31
                            x       y       z     vdW  Elec       q    Type
                         _______ _______ _______ _____ _____    ______ ____

>  <TORSDO>
F 6

$$$$
=
 OpenBabel11072412393D

 31 33  0  0  1  0  0  0  0  0999 V2000
  160.8970  206.9420  153.5970 C   0  0  0  0  0  2  0  0  0  0  0  0
  161.2580  207.7430  150.1000 C   0  0  0  0  0  0  0  0  0  0  0  0
  160.9770  209.3250  152.7710 N   0  0  0  0  0  0  0  0  0  0  0  0
  160.6190  208.7600  149.8790 O   0  0  0  0  0  0  0  0  0  0  0  0
  162.2540  208.8990  152.1620 C   0  0  1  0  0  3  0  0  0  0  0  0
  161.4440  206.5420  152.2420 C   0  0  0  0  0  0  0  0  0  0  0  0
  161.4880  205.2420  151.8690 C   0  0  0  0  0  0  0  0  0  0  0  0
  162.1250  204.8310  150.5970 C   0  0  0  0  0  3  0  0  0  0  0  0
  162.0650  207.6010  151.3680 C   0  0  1  0  0  3  0  0  0  0  0  0
  161.1030  206.5750  149.1590 C   0  0  2  0  0  3  0  0  0  0  0  0
  161.9980  205.4520  149.4590 N   0  0  0  0  0  0  0  0  0  0  0  0
  163.0430  209.9590  151.3980 C   0  0  0  0  0  1  0  0  0  0  0  0
  160.2620  208.3450  153.6170 C   0  0  2  0  0  3  0  0  0  0  0  0
  159.5750  207.7200  155.9930 C   0  0  0  0  0  3  0  0  0  0  0  0
  162.2810  209.9270  155.2580 O   0  0  0  0  0  0  0  0  0  0  0  0
  160.1490  208.8070  155.0790 C   0  0  1  0  0  3  0  0  0  0  0  0
  161.4640  209.0750  155.6880 C   0  0  0  0  0  0  0  0  0  0  0  0
  160.6850  207.3340  156.9750 C   0  0  0  0  0  3  0  0  0  0  0  0
  161.7290  208.2660  156.7660 O   0  0  0  0  0  0  0  0  0  0  0  0
  162.2960  207.7500  147.4580 O   0  0  0  0  0  1  0  0  0  0  0  0
  160.4570  206.5790  146.7470 O   0  0  0  0  0  0  0  0  0  0  0  0
  161.3180  207.0040  147.7480 C   0  0  0  0  0  0  0  0  0  0  0  0
  160.8280  202.8350  152.2570 N   0  0  0  0  0  1  0  0  0  0  0  0
  160.8320  204.3820  153.9770 O   0  0  0  0  0  0  0  0  0  0  0  0
  161.0610  204.1440  152.7630 C   0  0  0  0  0  0  0  0  0  0  0  0
  160.2700  211.6530  153.0430 C   0  0  0  0  0  3  0  0  0  0  0  0
  160.2240  210.4960  152.3890 C   0  0  0  0  0  3  0  0  0  0  0  0
  158.6900  213.3470  153.4510 O   0  0  0  0  0  0  0  0  0  0  0  0
  159.4860  212.8230  152.6290 C   0  0  0  0  0  0  0  0  0  0  0  0
  159.5790  213.3850  151.2470 C   0  0  0  0  0  2  0  0  0  0  0  0
  158.2780  213.3470  150.6090 N   0  0  0  0  0  1  0  0  0  0  0  0
  3 13  1  0  0  0  0
  4  2  2  0  0  0  0
  5 12  1  6  0  0  0
  5  3  1  0  0  0  0
  6  1  1  0  0  0  0
  7  6  2  0  0  0  0
  7 25  1  0  0  0  0
  8  7  1  0  0  0  0
  9  2  1  6  0  0  0
  9  5  1  0  0  0  0
  9  6  1  0  0  0  0
 10 22  1  6  0  0  0
 10 11  1  0  0  0  0
 10  2  1  0  0  0  0
 11  8  2  0  0  0  0
 13  1  1  1  0  0  0
 13 16  1  0  0  0  0
 14 18  2  0  0  0  0
 15 17  2  0  0  0  0
 16 17  1  0  0  0  0
 16 14  1  1  0  0  0
 17 19  1  0  0  0  0
 19 18  1  0  0  0  0
 20 22  1  0  0  0  0
 21 22  2  0  0  0  0
 23 25  1  0  0  0  0
 25 24  2  0  0  0  0
 27  3  1  0  0  0  0
 27 26  2  0  0  0  0
 29 26  1  0  0  0  0
 29 28  2  0  0  0  0
 30 29  1  0  0  0  0
 31 30  1  0  0  0  0
M  END
>  <MODEL>
7

>  <REMARK>
 VINA RESULT:      -3.4      2.417      7.949
  Name = 
  6 active torsions:
  status: ('A' for Active; 'I' for Inactive)
    1  A    between atoms: C_1  and  C_20
    2  A    between atoms: N_9  and  C_11
    3  A    between atoms: C_10  and  C_20
    4  A    between atoms: C_15  and  C_30
    5  A    between atoms: C_23  and  CA_27
    6  A    between atoms: C_24  and  C_31
                            x       y       z     vdW  Elec       q    Type
                         _______ _______ _______ _____ _____    ______ ____

>  <TORSDO>
F 6

$$$$
=
 OpenBabel11072412393D

 31 33  0  0  1  0  0  0  0  0999 V2000
  159.7460  209.6620  155.5170 C   0  0  0  0  0  2  0  0  0  0  0  0
  160.9630  208.7920  152.2360 C   0  0  0  0  0  0  0  0  0  0  0  0
  160.4570  211.4130  153.8450 N   0  0  0  0  0  0  0  0  0  0  0  0
  160.5940  209.6570  151.4570 O   0  0  0  0  0  0  0  0  0  0  0  0
  161.7230  210.6520  153.8310 C   0  0  1  0  0  3  0  0  0  0  0  0
  160.4690  208.6560  154.6450 C   0  0  0  0  0  0  0  0  0  0  0  0
  160.3340  207.3270  154.8620 C   0  0  0  0  0  0  0  0  0  0  0  0
  161.1240  206.3410  154.0910 C   0  0  0  0  0  3  0  0  0  0  0  0
  161.4510  209.1580  153.6170 C   0  0  1  0  0  3  0  0  0  0  0  0
  160.7780  207.3460  151.8510 C   0  0  2  0  0  3  0  0  0  0  0  0
  161.3550  206.4000  152.8110 N   0  0  0  0  0  0  0  0  0  0  0  0
  162.8430  211.1890  152.9440 C   0  0  0  0  0  1  0  0  0  0  0  0
  159.4070  210.9770  154.7910 C   0  0  2  0  0  3  0  0  0  0  0  0
  159.7880  213.3800  155.5560 C   0  0  0  0  0  3  0  0  0  0  0  0
  156.7230  211.6290  156.0730 O   0  0  0  0  0  0  0  0  0  0  0  0
  159.0910  212.0490  155.8480 C   0  0  1  0  0  3  0  0  0  0  0  0
  157.6660  212.4290  155.8540 C   0  0  0  0  0  0  0  0  0  0  0  0
  158.6870  214.4030  155.2610 C   0  0  0  0  0  3  0  0  0  0  0  0
  157.4660  213.7550  155.5580 O   0  0  0  0  0  0  0  0  0  0  0  0
  160.6030  206.7310  149.5510 O   0  0  0  0  0  0  0  0  0  0  0  0
  162.7170  207.2330  150.2820 O   0  0  0  0  0  1  0  0  0  0  0  0
  161.3560  207.0830  150.5020 C   0  0  0  0  0  0  0  0  0  0  0  0
  160.1010  206.5700  157.2600 N   0  0  0  0  0  1  0  0  0  0  0  0
  158.3350  206.4360  155.7720 O   0  0  0  0  0  0  0  0  0  0  0  0
  159.5270  206.7830  155.9760 C   0  0  0  0  0  0  0  0  0  0  0  0
  158.8790  212.2880  152.1900 C   0  0  0  0  0  3  0  0  0  0  0  0
  160.0420  212.3530  152.8320 C   0  0  0  0  0  3  0  0  0  0  0  0
  159.2620  213.4560  150.1850 O   0  0  0  0  0  0  0  0  0  0  0  0
  158.4920  213.2600  151.1610 C   0  0  0  0  0  0  0  0  0  0  0  0
  157.2270  214.0500  151.2590 C   0  0  0  0  0  2  0  0  0  0  0  0
  156.5480  213.7430  152.5030 N   0  0  0  0  0  1  0  0  0  0  0  0
  3 13  1  0  0  0  0
  4  2  2  0  0  0  0
  5 12  1  6  0  0  0
  5  3  1  0  0  0  0
  6  7  2  0  0  0  0
  6  1  1  0  0  0  0
  7 25  1  0  0  0  0
  8  7  1  0  0  0  0
  9  2  1  6  0  0  0
  9  5  1  0  0  0  0
  9  6  1  0  0  0  0
 10 22  1  6  0  0  0
 10  2  1  0  0  0  0
 10 11  1  0  0  0  0
 11  8  2  0  0  0  0
 13  1  1  1  0  0  0
 13 16  1  0  0  0  0
 16 14  1  6  0  0  0
 16 17  1  0  0  0  0
 17 15  2  0  0  0  0
 18 14  2  0  0  0  0
 18 19  1  0  0  0  0
 19 17  1  0  0  0  0
 20 22  2  0  0  0  0
 21 22  1  0  0  0  0
 24 25  2  0  0  0  0
 25 23  1  0  0  0  0
 26 27  2  0  0  0  0
 27  3  1  0  0  0  0
 28 29  2  0  0  0  0
 29 30  1  0  0  0  0
 29 26  1  0  0  0  0
 30 31  1  0  0  0  0
M  END
>  <MODEL>
8

>  <REMARK>
 VINA RESULT:      -3.3      3.607      8.863
  Name = 
  6 active torsions:
  status: ('A' for Active; 'I' for Inactive)
    1  A    between atoms: C_1  and  C_20
    2  A    between atoms: N_9  and  C_11
    3  A    between atoms: C_10  and  C_20
    4  A    between atoms: C_15  and  C_30
    5  A    between atoms: C_23  and  CA_27
    6  A    between atoms: C_24  and  C_31
                            x       y       z     vdW  Elec       q    Type
                         _______ _______ _______ _____ _____    ______ ____

>  <TORSDO>
F 6

$$$$
=
 OpenBabel11072412393D

 31 33  0  0  1  0  0  0  0  0999 V2000
  161.3320  205.4100  153.1240 C   0  0  0  0  0  2  0  0  0  0  0  0
  160.9780  206.7930  149.8140 C   0  0  0  0  0  0  0  0  0  0  0  0
  161.2260  207.8980  152.7180 N   0  0  0  0  0  0  0  0  0  0  0  0
  160.3000  207.8060  149.9000 O   0  0  0  0  0  0  0  0  0  0  0  0
  162.3580  207.6330  151.8070 C   0  0  1  0  0  3  0  0  0  0  0  0
  161.6000  205.2630  151.6410 C   0  0  0  0  0  0  0  0  0  0  0  0
  161.5780  204.0460  151.0490 C   0  0  0  0  0  0  0  0  0  0  0  0
  161.9510  203.8790  149.6260 C   0  0  0  0  0  3  0  0  0  0  0  0
  162.0240  206.4770  150.8550 C   0  0  1  0  0  3  0  0  0  0  0  0
  160.6470  205.7920  148.7370 C   0  0  2  0  0  3  0  0  0  0  0  0
  161.5930  204.6740  148.6590 N   0  0  0  0  0  0  0  0  0  0  0  0
  162.9690  208.8370  151.0960 C   0  0  0  0  0  1  0  0  0  0  0  0
  160.7030  206.7620  153.5080 C   0  0  2  0  0  3  0  0  0  0  0  0
  161.7920  208.1580  155.3440 C   0  0  0  0  0  3  0  0  0  0  0  0
  158.5860  206.6310  155.6940 O   0  0  0  0  0  0  0  0  0  0  0  0
  160.8810  206.9700  155.0210 C   0  0  1  0  0  3  0  0  0  0  0  0
  159.6210  207.3430  155.6900 C   0  0  0  0  0  0  0  0  0  0  0  0
  160.9260  209.2040  156.0500 C   0  0  0  0  0  3  0  0  0  0  0  0
  159.6790  208.5780  156.2880 O   0  0  0  0  0  0  0  0  0  0  0  0
  159.6110  206.2010  146.6260 O   0  0  0  0  0  0  0  0  0  0  0  0
  161.5450  207.3670  147.0200 O   0  0  0  0  0  1  0  0  0  0  0  0
  160.5720  206.4570  147.4050 C   0  0  0  0  0  0  0  0  0  0  0  0
  160.0790  202.5160  152.3870 N   0  0  0  0  0  1  0  0  0  0  0  0
  162.3030  202.0050  152.0110 O   0  0  0  0  0  0  0  0  0  0  0  0
  161.3480  202.7980  151.8090 C   0  0  0  0  0  0  0  0  0  0  0  0
  160.8840  210.3220  152.7190 C   0  0  0  0  0  3  0  0  0  0  0  0
  160.4020  209.0830  152.6980 C   0  0  0  0  0  3  0  0  0  0  0  0
  160.0860  212.3010  151.7300 O   0  0  0  0  0  0  0  0  0  0  0  0
  160.0160  211.5050  152.7020 C   0  0  0  0  0  0  0  0  0  0  0  0
  159.0780  211.8100  153.8260 C   0  0  0  0  0  2  0  0  0  0  0  0
  159.8050  212.4130  154.9270 N   0  0  0  0  0  1  0  0  0  0  0  0
  2  4  2  0  0  0  0
  3 13  1  0  0  0  0
  5 12  1  6  0  0  0
  5  3  1  0  0  0  0
  6  1  1  0  0  0  0
  7  6  2  0  0  0  0
  7 25  1  0  0  0  0
  8  7  1  0  0  0  0
  9  2  1  6  0  0  0
  9  6  1  0  0  0  0
  9  5  1  0  0  0  0
 10 22  1  6  0  0  0
 10  2  1  0  0  0  0
 11 10  1  0  0  0  0
 11  8  2  0  0  0  0
 13  1  1  6  0  0  0
 13 16  1  0  0  0  0
 14 18  2  0  0  0  0
 16 14  1  6  0  0  0
 16 17  1  0  0  0  0
 17 15  2  0  0  0  0
 17 19  1  0  0  0  0
 18 19  1  0  0  0  0
 20 22  2  0  0  0  0
 21 22  1  0  0  0  0
 25 24  2  0  0  0  0
 25 23  1  0  0  0  0
 27  3  1  0  0  0  0
 27 26  2  0  0  0  0
 28 29  2  0  0  0  0
 29 26  1  0  0  0  0
 29 30  1  0  0  0  0
 30 31  1  0  0  0  0
M  END
>  <MODEL>
9

>  <REMARK>
 VINA RESULT:      -3.1      2.492      7.840
  Name = 
  6 active torsions:
  status: ('A' for Active; 'I' for Inactive)
    1  A    between atoms: C_1  and  C_20
    2  A    between atoms: N_9  and  C_11
    3  A    between atoms: C_10  and  C_20
    4  A    between atoms: C_15  and  C_30
    5  A    between atoms: C_23  and  CA_27
    6  A    between atoms: C_24  and  C_31
                            x       y       z     vdW  Elec       q    Type
                         _______ _______ _______ _____ _____    ______ ____

>  <TORSDO>
F 6

$$$$
