=
 OpenBabel11072411543D

 32 35  0  0  1  0  0  0  0  0999 V2000
  160.8610  208.2090  151.5950 C   0  0  1  0  0  3  0  0  0  0  0  0
  162.2690  207.6740  151.5220 C   0  0  2  0  0  3  0  0  0  0  0  0
  161.0710  208.7910  152.9770 C   0  0  2  0  0  3  0  0  0  0  0  0
  160.9180  207.5810  153.9380 C   0  0  0  0  0  2  0  0  0  0  0  0
  161.6650  208.2980  150.4380 O   0  0  0  0  0  0  0  0  0  0  0  0
  162.0730  206.2250  151.9890 C   0  0  1  0  0  0  0  0  0  0  0  0
  163.2930  205.5590  151.8390 O   0  0  0  0  0  1  0  0  0  0  0  0
  161.7800  206.3450  153.5160 C   0  0  0  0  0  2  0  0  0  0  0  0
  161.3610  203.5800  150.2450 N   0  0  1  0  0  0  0  0  0  0  0  0
  161.3450  204.9960  149.8800 C   0  0  0  0  0  2  0  0  0  0  0  0
  160.9550  203.9650  151.5950 C   0  0  0  0  0  2  0  0  0  0  0  0
  160.9400  205.4430  151.2690 C   0  0  1  0  0  3  0  0  0  0  0  0
  161.4490  202.4190  147.4330 C   0  0  2  0  0  3  0  0  0  0  0  0
  161.3920  200.7000  149.2500 C   0  0  0  0  0  2  0  0  0  0  0  0
  161.3790  200.9240  147.7430 C   0  0  0  0  0  2  0  0  0  0  0  0
  160.2070  201.4140  149.8990 C   0  0  0  0  0  2  0  0  0  0  0  0
  160.2250  202.9200  149.5910 C   0  0  2  0  0  3  0  0  0  0  0  0
  160.2590  203.1360  148.0700 C   0  0  0  0  0  2  0  0  0  0  0  0
  161.4290  202.6300  146.0280 O   0  0  0  0  0  0  0  0  0  0  0  0
  162.7420  204.7400  145.8700 C   0  0  0  0  0  1  0  0  0  0  0  0
  161.5920  203.8950  145.4590 C   0  0  0  0  0  0  0  0  0  0  0  0
  160.7800  204.3260  144.5970 O   0  0  0  0  0  0  0  0  0  0  0  0
  160.0670  209.8980  153.3130 C   0  0  2  0  0  3  0  0  0  0  0  0
  160.2650  211.1540  152.4740 C   0  0  0  0  0  1  0  0  0  0  0  0
  160.1470  210.2320  154.7260 N   0  0  0  0  0  2  0  0  0  0  0  0
  159.4170  211.4750  154.9100 C   0  0  0  0  0  2  0  0  0  0  0  0
  158.2650  211.2620  155.8770 C   0  0  0  0  0  2  0  0  0  0  0  0
  157.0510  212.1070  153.9940 O   0  0  0  0  0  1  0  0  0  0  0  0
  157.0020  211.9540  155.3810 C   0  0  1  0  0  3  0  0  0  0  0  0
  155.8000  211.1590  155.7630 C   0  0  0  0  0  0  0  0  0  0  0  0
  155.2440  210.2720  154.8520 O   0  0  0  0  0  0  0  0  0  0  0  0
  155.2740  211.2990  156.9000 O   0  0  0  0  0  1  0  0  0  0  0  0
  1  5  1  6  0  0  0
  1  3  1  0  0  0  0
  2  5  1  6  0  0  0
  2  1  1  0  0  0  0
  2  6  1  0  0  0  0
  3 23  1  1  0  0  0
  3  4  1  0  0  0  0
  6  7  1  6  0  0  0
  6  8  1  0  0  0  0
  8  4  1  0  0  0  0
  9 10  1  6  0  0  0
  9 11  1  0  0  0  0
 12 10  1  6  0  0  0
 12 11  1  0  0  0  0
 12  6  1  0  0  0  0
 13 19  1  6  0  0  0
 13 15  1  0  0  0  0
 13 18  1  0  0  0  0
 14 16  1  0  0  0  0
 15 14  1  0  0  0  0
 17 18  1  6  0  0  0
 17 16  1  0  0  0  0
 17  9  1  0  0  0  0
 21 20  1  0  0  0  0
 21 19  1  0  0  0  0
 22 21  2  0  0  0  0
 23 24  1  6  0  0  0
 23 25  1  0  0  0  0
 25 26  1  0  0  0  0
 26 27  1  0  0  0  0
 29 28  1  6  0  0  0
 29 30  1  0  0  0  0
 29 27  1  0  0  0  0
 30 32  1  0  0  0  0
 31 30  2  0  0  0  0
M  END
>  <MODEL>
1

>  <REMARK>
 VINA RESULT:      -6.9      0.000      0.000
  Name = 
  10 active torsions:
  status: ('A' for Active; 'I' for Inactive)
    1  A    between atoms: C_2  and  O_24
    2  A    between atoms: C_3  and  C_7
    3  A    between atoms: C_3  and  N_9
    4  A    between atoms: C_5  and  C_22
    5  A    between atoms: N_8  and  C_25
    6  A    between atoms: N_9  and  C_30
    7  A    between atoms: C_16  and  O_24
    8  A    between atoms: C_18  and  C_27
    9  A    between atoms: C_22  and  C_23
   10  A    between atoms: C_23  and  C_30
                            x       y       z     vdW  Elec       q    Type
                         _______ _______ _______ _____ _____    ______ ____

>  <TORSDO>
F 10

$$$$
=
 OpenBabel11072411543D

 32 35  0  0  1  0  0  0  0  0999 V2000
  160.8980  208.5450  151.9300 C   0  0  1  0  0  3  0  0  0  0  0  0
  162.3030  208.0210  151.7820 C   0  0  2  0  0  3  0  0  0  0  0  0
  161.1500  209.0430  153.3380 C   0  0  2  0  0  3  0  0  0  0  0  0
  161.0290  207.7750  154.2280 C   0  0  0  0  0  2  0  0  0  0  0  0
  161.6650  208.7080  150.7560 O   0  0  0  0  0  0  0  0  0  0  0  0
  162.1240  206.5450  152.1650 C   0  0  1  0  0  0  0  0  0  0  0  0
  163.3410  205.8940  151.9360 O   0  0  0  0  0  1  0  0  0  0  0  0
  161.8800  206.5710  153.7040 C   0  0  0  0  0  2  0  0  0  0  0  0
  161.3380  203.9370  150.3970 N   0  0  1  0  0  0  0  0  0  0  0  0
  161.3680  205.3560  150.0430 C   0  0  0  0  0  2  0  0  0  0  0  0
  160.9390  204.3240  151.7490 C   0  0  0  0  0  2  0  0  0  0  0  0
  160.9710  205.8050  151.4340 C   0  0  1  0  0  3  0  0  0  0  0  0
  161.4560  202.6030  147.6650 C   0  0  2  0  0  3  0  0  0  0  0  0
  161.2050  201.0070  149.5740 C   0  0  0  0  0  2  0  0  0  0  0  0
  161.2680  201.1380  148.0570 C   0  0  0  0  0  2  0  0  0  0  0  0
  160.0480  201.8390  150.1270 C   0  0  0  0  0  2  0  0  0  0  0  0
  160.1860  203.3180  149.7330 C   0  0  2  0  0  3  0  0  0  0  0  0
  160.2960  203.4380  148.2050 C   0  0  0  0  0  2  0  0  0  0  0  0
  161.5080  202.7280  146.2500 O   0  0  0  0  0  0  0  0  0  0  0  0
  162.9050  204.7650  145.9360 C   0  0  0  0  0  1  0  0  0  0  0  0
  161.7020  203.9560  145.6140 C   0  0  0  0  0  0  0  0  0  0  0  0
  160.8740  204.3850  144.7670 O   0  0  0  0  0  0  0  0  0  0  0  0
  160.1550  210.1230  153.7720 C   0  0  2  0  0  3  0  0  0  0  0  0
  159.2310  209.6640  154.8930 C   0  0  0  0  0  1  0  0  0  0  0  0
  159.3650  210.5620  152.6320 N   0  0  0  0  0  2  0  0  0  0  0  0
  159.7300  211.9440  152.3710 C   0  0  0  0  0  2  0  0  0  0  0  0
  158.5920  212.6540  151.6560 C   0  0  0  0  0  2  0  0  0  0  0  0
  160.3930  213.1730  150.1650 O   0  0  0  0  0  1  0  0  0  0  0  0
  159.1260  213.5880  150.5780 C   0  0  1  0  0  3  0  0  0  0  0  0
  158.1940  213.6110  149.4140 C   0  0  0  0  0  0  0  0  0  0  0  0
  156.8890  213.1650  149.5700 O   0  0  0  0  0  1  0  0  0  0  0  0
  158.5860  214.0160  148.2880 O   0  0  0  0  0  0  0  0  0  0  0  0
  1  5  1  6  0  0  0
  1  3  1  0  0  0  0
  2  5  1  6  0  0  0
  2  1  1  0  0  0  0
  2  6  1  0  0  0  0
  3 23  1  1  0  0  0
  3  4  1  0  0  0  0
  6  7  1  6  0  0  0
  6  8  1  0  0  0  0
  8  4  1  0  0  0  0
  9 10  1  6  0  0  0
  9 11  1  0  0  0  0
 12 10  1  6  0  0  0
 12 11  1  0  0  0  0
 12  6  1  0  0  0  0
 13 19  1  6  0  0  0
 13 15  1  0  0  0  0
 13 18  1  0  0  0  0
 14 16  1  0  0  0  0
 15 14  1  0  0  0  0
 17 18  1  6  0  0  0
 17 16  1  0  0  0  0
 17  9  1  0  0  0  0
 21 20  1  0  0  0  0
 21 19  1  0  0  0  0
 22 21  2  0  0  0  0
 23 24  1  1  0  0  0
 25 23  1  0  0  0  0
 26 25  1  0  0  0  0
 27 26  1  0  0  0  0
 29 28  1  6  0  0  0
 29 27  1  0  0  0  0
 30 31  1  0  0  0  0
 30 29  1  0  0  0  0
 32 30  2  0  0  0  0
M  END
>  <MODEL>
2

>  <REMARK>
 VINA RESULT:      -6.2      2.250      2.985
  Name = 
  10 active torsions:
  status: ('A' for Active; 'I' for Inactive)
    1  A    between atoms: C_2  and  O_24
    2  A    between atoms: C_3  and  C_7
    3  A    between atoms: C_3  and  N_9
    4  A    between atoms: C_5  and  C_22
    5  A    between atoms: N_8  and  C_25
    6  A    between atoms: N_9  and  C_30
    7  A    between atoms: C_16  and  O_24
    8  A    between atoms: C_18  and  C_27
    9  A    between atoms: C_22  and  C_23
   10  A    between atoms: C_23  and  C_30
                            x       y       z     vdW  Elec       q    Type
                         _______ _______ _______ _____ _____    ______ ____

>  <TORSDO>
F 10

$$$$
=
 OpenBabel11072411543D

 32 35  0  0  1  0  0  0  0  0999 V2000
  160.6480  207.2600  152.4050 C   0  0  1  0  0  3  0  0  0  0  0  0
  161.7640  208.0230  153.0720 C   0  0  2  0  0  3  0  0  0  0  0  0
  161.5720  206.6680  151.3630 C   0  0  2  0  0  3  0  0  0  0  0  0
  161.7520  207.7980  150.3120 C   0  0  0  0  0  2  0  0  0  0  0  0
  160.7950  207.3500  153.8060 O   0  0  0  0  0  0  0  0  0  0  0  0
  161.6370  209.4010  152.4060 C   0  0  1  0  0  0  0  0  0  0  0  0
  162.5370  210.2650  153.0390 O   0  0  0  0  0  1  0  0  0  0  0  0
  162.1380  209.1740  150.9480 C   0  0  0  0  0  2  0  0  0  0  0  0
  159.8040  211.8660  153.4570 N   0  0  1  0  0  0  0  0  0  0  0  0
  159.7750  210.4440  153.7970 C   0  0  0  0  0  2  0  0  0  0  0  0
  160.2090  211.4930  152.1030 C   0  0  0  0  0  2  0  0  0  0  0  0
  160.2090  210.0120  152.4120 C   0  0  1  0  0  3  0  0  0  0  0  0
  158.0810  212.3680  155.9150 C   0  0  2  0  0  3  0  0  0  0  0  0
  158.8570  214.4500  154.7650 C   0  0  0  0  0  2  0  0  0  0  0  0
  158.0010  213.8950  155.8970 C   0  0  0  0  0  2  0  0  0  0  0  0
  158.3810  213.8950  153.4230 C   0  0  0  0  0  2  0  0  0  0  0  0
  158.4220  212.3590  153.4080 C   0  0  2  0  0  3  0  0  0  0  0  0
  157.5940  211.8070  154.5790 C   0  0  0  0  0  2  0  0  0  0  0  0
  157.2770  211.8480  156.9650 O   0  0  0  0  0  0  0  0  0  0  0  0
  155.1910  213.1760  157.2560 C   0  0  0  0  0  1  0  0  0  0  0  0
  155.8820  211.9010  156.9350 C   0  0  0  0  0  0  0  0  0  0  0  0
  155.2020  210.8840  156.6360 O   0  0  0  0  0  0  0  0  0  0  0  0
  161.0060  205.3980  150.7200 C   0  0  2  0  0  3  0  0  0  0  0  0
  161.4030  204.1280  151.4630 C   0  0  0  0  0  1  0  0  0  0  0  0
  161.4300  205.3080  149.3320 N   0  0  0  0  0  2  0  0  0  0  0  0
  161.1660  203.9480  148.8950 C   0  0  0  0  0  2  0  0  0  0  0  0
  161.5520  203.7880  147.4340 C   0  0  0  0  0  2  0  0  0  0  0  0
  163.4330  204.8610  146.4120 O   0  0  0  0  0  1  0  0  0  0  0  0
  162.1360  205.0800  146.8810 C   0  0  1  0  0  3  0  0  0  0  0  0
  161.2770  205.5990  145.7780 C   0  0  0  0  0  0  0  0  0  0  0  0
  161.5920  205.2960  144.4610 O   0  0  0  0  0  0  0  0  0  0  0  0
  160.2780  206.3240  146.0310 O   0  0  0  0  0  1  0  0  0  0  0  0
  1  2  1  0  0  0  0
  1  5  1  1  0  0  0
  2  5  1  1  0  0  0
  3 23  1  6  0  0  0
  3  1  1  0  0  0  0
  4  8  1  0  0  0  0
  4  3  1  0  0  0  0
  6 12  1  0  0  0  0
  6  7  1  1  0  0  0
  6  2  1  0  0  0  0
  8  6  1  0  0  0  0
  9 11  1  6  0  0  0
  9 10  1  0  0  0  0
 12 11  1  6  0  0  0
 12 10  1  0  0  0  0
 13 19  1  1  0  0  0
 14 15  1  0  0  0  0
 15 13  1  0  0  0  0
 16 14  1  0  0  0  0
 17 16  1  1  0  0  0
 17  9  1  0  0  0  0
 17 18  1  0  0  0  0
 18 13  1  0  0  0  0
 21 19  1  0  0  0  0
 21 20  1  0  0  0  0
 22 21  2  0  0  0  0
 23 24  1  1  0  0  0
 25 23  1  0  0  0  0
 26 25  1  0  0  0  0
 27 26  1  0  0  0  0
 29 28  1  6  0  0  0
 29 27  1  0  0  0  0
 30 32  1  0  0  0  0
 30 29  1  0  0  0  0
 31 30  2  0  0  0  0
M  END
>  <MODEL>
3

>  <REMARK>
 VINA RESULT:      -6.2      1.884     10.380
  Name = 
  10 active torsions:
  status: ('A' for Active; 'I' for Inactive)
    1  A    between atoms: C_2  and  O_24
    2  A    between atoms: C_3  and  C_7
    3  A    between atoms: C_3  and  N_9
    4  A    between atoms: C_5  and  C_22
    5  A    between atoms: N_8  and  C_25
    6  A    between atoms: N_9  and  C_30
    7  A    between atoms: C_16  and  O_24
    8  A    between atoms: C_18  and  C_27
    9  A    between atoms: C_22  and  C_23
   10  A    between atoms: C_23  and  C_30
                            x       y       z     vdW  Elec       q    Type
                         _______ _______ _______ _____ _____    ______ ____

>  <TORSDO>
F 10

$$$$
=
 OpenBabel11072411543D

 32 35  0  0  1  0  0  0  0  0999 V2000
  160.8360  207.5540  151.9320 C   0  0  1  0  0  3  0  0  0  0  0  0
  161.7810  208.1260  152.9570 C   0  0  2  0  0  3  0  0  0  0  0  0
  161.9390  207.3520  150.9150 C   0  0  2  0  0  3  0  0  0  0  0  0
  162.1530  208.7570  150.2870 C   0  0  0  0  0  2  0  0  0  0  0  0
  160.7890  207.2170  153.3020 O   0  0  0  0  0  0  0  0  0  0  0  0
  161.6200  209.6340  152.7200 C   0  0  1  0  0  0  0  0  0  0  0  0
  162.3480  210.3030  153.7090 O   0  0  0  0  0  1  0  0  0  0  0  0
  162.3270  209.8880  151.3540 C   0  0  0  0  0  2  0  0  0  0  0  0
  159.6320  212.0530  153.5780 N   0  0  1  0  0  0  0  0  0  0  0  0
  159.6990  210.6650  154.0360 C   0  0  0  0  0  2  0  0  0  0  0  0
  160.0550  211.5950  152.2560 C   0  0  0  0  0  2  0  0  0  0  0  0
  160.1550  210.1470  152.6880 C   0  0  1  0  0  3  0  0  0  0  0  0
  157.7780  212.2380  155.9840 C   0  0  2  0  0  3  0  0  0  0  0  0
  158.4420  214.4530  155.0300 C   0  0  0  0  0  2  0  0  0  0  0  0
  157.5840  213.7520  156.0760 C   0  0  0  0  0  2  0  0  0  0  0  0
  158.0640  213.9710  153.6300 C   0  0  0  0  0  2  0  0  0  0  0  0
  158.2210  212.4480  153.5020 C   0  0  2  0  0  3  0  0  0  0  0  0
  157.3900  211.7490  154.5890 C   0  0  0  0  0  2  0  0  0  0  0  0
  156.9730  211.5820  156.9540 O   0  0  0  0  0  0  0  0  0  0  0  0
  154.8850  210.3600  156.3640 C   0  0  0  0  0  1  0  0  0  0  0  0
  155.5780  211.5670  156.8820 C   0  0  0  0  0  0  0  0  0  0  0  0
  154.9000  212.5620  157.2560 O   0  0  0  0  0  0  0  0  0  0  0  0
  161.5780  206.3160  149.8460 C   0  0  2  0  0  3  0  0  0  0  0  0
  161.1250  206.9470  148.5350 C   0  0  0  0  0  1  0  0  0  0  0  0
  160.5440  205.4230  150.3450 N   0  0  0  0  0  2  0  0  0  0  0  0
  161.1150  204.0870  150.3710 C   0  0  0  0  0  2  0  0  0  0  0  0
  161.0150  203.4530  148.9930 C   0  0  0  0  0  2  0  0  0  0  0  0
  159.3930  201.7390  149.3960 O   0  0  0  0  0  1  0  0  0  0  0  0
  160.7390  201.9600  149.0990 C   0  0  1  0  0  3  0  0  0  0  0  0
  161.0970  201.2810  147.8200 C   0  0  0  0  0  0  0  0  0  0  0  0
  160.7960  201.8920  146.6110 O   0  0  0  0  0  0  0  0  0  0  0  0
  161.6530  200.1510  147.8290 O   0  0  0  0  0  1  0  0  0  0  0  0
  1  2  1  0  0  0  0
  1  5  1  1  0  0  0
  2  5  1  1  0  0  0
  3 23  1  6  0  0  0
  3  1  1  0  0  0  0
  4  3  1  0  0  0  0
  4  8  1  0  0  0  0
  6  2  1  0  0  0  0
  6  7  1  1  0  0  0
  8  6  1  0  0  0  0
  9 11  1  6  0  0  0
  9 10  1  0  0  0  0
 12 11  1  6  0  0  0
 12  6  1  0  0  0  0
 12 10  1  0  0  0  0
 13 15  1  0  0  0  0
 13 19  1  1  0  0  0
 14 15  1  0  0  0  0
 16 14  1  0  0  0  0
 17  9  1  0  0  0  0
 17 16  1  1  0  0  0
 17 18  1  0  0  0  0
 18 13  1  0  0  0  0
 20 21  1  0  0  0  0
 21 19  1  0  0  0  0
 21 22  2  0  0  0  0
 23 24  1  6  0  0  0
 23 25  1  0  0  0  0
 25 26  1  0  0  0  0
 27 29  1  0  0  0  0
 27 26  1  0  0  0  0
 29 28  1  6  0  0  0
 30 32  1  0  0  0  0
 30 29  1  0  0  0  0
 31 30  2  0  0  0  0
M  END
>  <MODEL>
4

>  <REMARK>
 VINA RESULT:      -6.0      1.940     10.444
  Name = 
  10 active torsions:
  status: ('A' for Active; 'I' for Inactive)
    1  A    between atoms: C_2  and  O_24
    2  A    between atoms: C_3  and  C_7
    3  A    between atoms: C_3  and  N_9
    4  A    between atoms: C_5  and  C_22
    5  A    between atoms: N_8  and  C_25
    6  A    between atoms: N_9  and  C_30
    7  A    between atoms: C_16  and  O_24
    8  A    between atoms: C_18  and  C_27
    9  A    between atoms: C_22  and  C_23
   10  A    between atoms: C_23  and  C_30
                            x       y       z     vdW  Elec       q    Type
                         _______ _______ _______ _____ _____    ______ ____

>  <TORSDO>
F 10

$$$$
=
 OpenBabel11072411543D

 32 35  0  0  1  0  0  0  0  0999 V2000
  161.2150  208.3960  151.4200 C   0  0  1  0  0  3  0  0  0  0  0  0
  162.5310  207.6750  151.5690 C   0  0  2  0  0  3  0  0  0  0  0  0
  161.2660  208.9410  152.8320 C   0  0  2  0  0  3  0  0  0  0  0  0
  160.7940  207.7610  153.7250 C   0  0  0  0  0  2  0  0  0  0  0  0
  162.2060  208.3770  150.4160 O   0  0  0  0  0  0  0  0  0  0  0  0
  162.0680  206.2650  151.9610 C   0  0  1  0  0  0  0  0  0  0  0  0
  163.1970  205.4400  152.0000 O   0  0  0  0  0  1  0  0  0  0  0  0
  161.5420  206.4210  153.4210 C   0  0  0  0  0  2  0  0  0  0  0  0
  161.3180  203.7510  150.0490 N   0  0  1  0  0  0  0  0  0  0  0  0
  161.5450  205.1590  149.7270 C   0  0  0  0  0  2  0  0  0  0  0  0
  160.7480  204.1760  151.3260 C   0  0  0  0  0  2  0  0  0  0  0  0
  160.9780  205.6450  151.0450 C   0  0  1  0  0  3  0  0  0  0  0  0
  161.7010  202.7270  147.2090 C   0  0  2  0  0  3  0  0  0  0  0  0
  161.2050  200.9370  148.8850 C   0  0  0  0  0  2  0  0  0  0  0  0
  161.4360  201.2340  147.4080 C   0  0  0  0  0  2  0  0  0  0  0  0
  160.0150  201.7430  149.4040 C   0  0  0  0  0  2  0  0  0  0  0  0
  160.2300  203.2510  149.2000 C   0  0  2  0  0  3  0  0  0  0  0  0
  160.5090  203.5370  147.7160 C   0  0  0  0  0  2  0  0  0  0  0  0
  161.9100  203.0070  145.8320 O   0  0  0  0  0  0  0  0  0  0  0  0
  161.6930  205.4000  145.1770 C   0  0  0  0  0  1  0  0  0  0  0  0
  161.1980  203.9990  145.1540 C   0  0  0  0  0  0  0  0  0  0  0  0
  160.1450  203.7220  144.5190 O   0  0  0  0  0  0  0  0  0  0  0  0
  160.3760  210.1730  153.0240 C   0  0  2  0  0  3  0  0  0  0  0  0
  160.2590  211.0230  151.7650 C   0  0  0  0  0  1  0  0  0  0  0  0
  160.8780  210.9850  154.1210 N   0  0  0  0  0  2  0  0  0  0  0  0
  159.8340  211.0240  155.1310 C   0  0  0  0  0  2  0  0  0  0  0  0
  160.4410  211.3120  156.4940 C   0  0  0  0  0  2  0  0  0  0  0  0
  159.7830  209.0400  156.8670 O   0  0  0  0  0  1  0  0  0  0  0  0
  160.6950  210.0210  157.2600 C   0  0  1  0  0  3  0  0  0  0  0  0
  162.0890  209.5480  157.0180 C   0  0  0  0  0  0  0  0  0  0  0  0
  162.3400  208.1900  156.8860 O   0  0  0  0  0  0  0  0  0  0  0  0
  163.0410  210.3700  156.9480 O   0  0  0  0  0  1  0  0  0  0  0  0
  1  5  1  6  0  0  0
  1  2  1  0  0  0  0
  1  3  1  0  0  0  0
  2  5  1  6  0  0  0
  2  6  1  0  0  0  0
  3 23  1  6  0  0  0
  3  4  1  0  0  0  0
  6  7  1  1  0  0  0
  6  8  1  0  0  0  0
  8  4  1  0  0  0  0
  9 10  1  6  0  0  0
  9 11  1  0  0  0  0
 12 10  1  6  0  0  0
 12 11  1  0  0  0  0
 12  6  1  0  0  0  0
 13 19  1  6  0  0  0
 13 15  1  0  0  0  0
 13 18  1  0  0  0  0
 14 16  1  0  0  0  0
 15 14  1  0  0  0  0
 17 18  1  6  0  0  0
 17 16  1  0  0  0  0
 17  9  1  0  0  0  0
 21 20  1  0  0  0  0
 21 19  1  0  0  0  0
 22 21  2  0  0  0  0
 23 24  1  6  0  0  0
 23 25  1  0  0  0  0
 25 26  1  0  0  0  0
 26 27  1  0  0  0  0
 27 29  1  0  0  0  0
 29 28  1  6  0  0  0
 30 29  1  0  0  0  0
 31 30  2  0  0  0  0
 32 30  1  0  0  0  0
M  END
>  <MODEL>
5

>  <REMARK>
 VINA RESULT:      -5.9      2.112      2.645
  Name = 
  10 active torsions:
  status: ('A' for Active; 'I' for Inactive)
    1  A    between atoms: C_2  and  O_24
    2  A    between atoms: C_3  and  C_7
    3  A    between atoms: C_3  and  N_9
    4  A    between atoms: C_5  and  C_22
    5  A    between atoms: N_8  and  C_25
    6  A    between atoms: N_9  and  C_30
    7  A    between atoms: C_16  and  O_24
    8  A    between atoms: C_18  and  C_27
    9  A    between atoms: C_22  and  C_23
   10  A    between atoms: C_23  and  C_30
                            x       y       z     vdW  Elec       q    Type
                         _______ _______ _______ _____ _____    ______ ____

>  <TORSDO>
F 10

$$$$
=
 OpenBabel11072411543D

 32 35  0  0  1  0  0  0  0  0999 V2000
  161.5000  207.0280  150.5820 C   0  0  1  0  0  3  0  0  0  0  0  0
  162.7140  207.8180  151.0010 C   0  0  2  0  0  3  0  0  0  0  0  0
  161.9010  207.0410  149.1220 C   0  0  2  0  0  3  0  0  0  0  0  0
  161.4650  208.4410  148.6100 C   0  0  0  0  0  2  0  0  0  0  0  0
  162.2610  206.7260  151.7320 O   0  0  0  0  0  0  0  0  0  0  0  0
  162.1580  209.2490  151.0260 C   0  0  1  0  0  0  0  0  0  0  0  0
  163.1550  210.0850  151.5390 O   0  0  0  0  0  1  0  0  0  0  0  0
  161.9570  209.6120  149.5240 C   0  0  0  0  0  2  0  0  0  0  0  0
  160.6370  211.0280  153.2750 N   0  0  1  0  0  0  0  0  0  0  0  0
  161.0820  209.6350  153.3020 C   0  0  0  0  0  2  0  0  0  0  0  0
  160.3710  210.8740  151.8470 C   0  0  0  0  0  2  0  0  0  0  0  0
  160.8370  209.4340  151.8210 C   0  0  1  0  0  3  0  0  0  0  0  0
  160.2590  210.3990  156.2290 C   0  0  2  0  0  3  0  0  0  0  0  0
  160.1160  212.8340  155.6740 C   0  0  0  0  0  2  0  0  0  0  0  0
  159.9870  211.7970  156.7830 C   0  0  0  0  0  2  0  0  0  0  0  0
  159.1280  212.5260  154.5490 C   0  0  0  0  0  2  0  0  0  0  0  0
  159.3510  211.1170  153.9790 C   0  0  2  0  0  3  0  0  0  0  0  0
  159.2660  210.0820  155.1110 C   0  0  0  0  0  2  0  0  0  0  0  0
  160.1320  209.4300  157.2610 O   0  0  0  0  0  0  0  0  0  0  0  0
  159.9120  206.9540  157.1170 C   0  0  0  0  0  1  0  0  0  0  0  0
  160.7490  208.1790  157.1920 C   0  0  0  0  0  0  0  0  0  0  0  0
  162.0050  208.0750  157.1870 O   0  0  0  0  0  0  0  0  0  0  0  0
  161.2350  205.9230  148.3150 C   0  0  2  0  0  3  0  0  0  0  0  0
  161.5030  204.5360  148.8870 C   0  0  0  0  0  1  0  0  0  0  0  0
  161.6750  205.9770  146.9300 N   0  0  0  0  0  2  0  0  0  0  0  0
  162.6730  204.9350  146.7610 C   0  0  0  0  0  2  0  0  0  0  0  0
  162.3680  204.1200  145.5150 C   0  0  0  0  0  2  0  0  0  0  0  0
  160.3990  204.2390  144.1570 O   0  0  0  0  0  1  0  0  0  0  0  0
  160.8770  203.8330  145.4040 C   0  0  1  0  0  3  0  0  0  0  0  0
  160.6210  202.3760  145.5980 C   0  0  0  0  0  0  0  0  0  0  0  0
  160.0720  201.6320  144.5630 O   0  0  0  0  0  0  0  0  0  0  0  0
  160.8840  201.8200  146.6970 O   0  0  0  0  0  1  0  0  0  0  0  0
  1  2  1  0  0  0  0
  1  5  1  1  0  0  0
  2  6  1  0  0  0  0
  2  5  1  1  0  0  0
  3 23  1  6  0  0  0
  3  1  1  0  0  0  0
  4  3  1  0  0  0  0
  4  8  1  0  0  0  0
  6  7  1  1  0  0  0
  6 12  1  0  0  0  0
  8  6  1  0  0  0  0
  9 11  1  6  0  0  0
  9 10  1  0  0  0  0
  9 17  1  0  0  0  0
 12 11  1  6  0  0  0
 12 10  1  0  0  0  0
 13 15  1  0  0  0  0
 13 19  1  1  0  0  0
 14 15  1  0  0  0  0
 16 14  1  0  0  0  0
 17 16  1  1  0  0  0
 17 18  1  0  0  0  0
 18 13  1  0  0  0  0
 20 21  1  0  0  0  0
 21 19  1  0  0  0  0
 22 21  2  0  0  0  0
 23 24  1  1  0  0  0
 25 23  1  0  0  0  0
 26 25  1  0  0  0  0
 27 26  1  0  0  0  0
 29 28  1  6  0  0  0
 29 27  1  0  0  0  0
 29 30  1  0  0  0  0
 30 32  1  0  0  0  0
 31 30  2  0  0  0  0
M  END
>  <MODEL>
6

>  <REMARK>
 VINA RESULT:      -5.7      2.616     10.073
  Name = 
  10 active torsions:
  status: ('A' for Active; 'I' for Inactive)
    1  A    between atoms: C_2  and  O_24
    2  A    between atoms: C_3  and  C_7
    3  A    between atoms: C_3  and  N_9
    4  A    between atoms: C_5  and  C_22
    5  A    between atoms: N_8  and  C_25
    6  A    between atoms: N_9  and  C_30
    7  A    between atoms: C_16  and  O_24
    8  A    between atoms: C_18  and  C_27
    9  A    between atoms: C_22  and  C_23
   10  A    between atoms: C_23  and  C_30
                            x       y       z     vdW  Elec       q    Type
                         _______ _______ _______ _____ _____    ______ ____

>  <TORSDO>
F 10

$$$$
=
 OpenBabel11072411543D

 32 35  0  0  1  0  0  0  0  0999 V2000
  161.5510  209.9420  156.0340 C   0  0  1  0  0  3  0  0  0  0  0  0
  160.9790  208.7730  156.7940 C   0  0  2  0  0  3  0  0  0  0  0  0
  160.2810  210.7540  156.1750 C   0  0  2  0  0  3  0  0  0  0  0  0
  159.3360  210.1940  155.0770 C   0  0  0  0  0  2  0  0  0  0  0  0
  162.2790  209.2160  157.0020 O   0  0  0  0  0  0  0  0  0  0  0  0
  160.4720  207.8810  155.6510 C   0  0  1  0  0  0  0  0  0  0  0  0
  160.0310  206.6780  156.2120 O   0  0  0  0  0  1  0  0  0  0  0  0
  159.2240  208.6340  155.0970 C   0  0  0  0  0  2  0  0  0  0  0  0
  160.9200  206.4970  152.7490 N   0  0  1  0  0  0  0  0  0  0  0  0
  161.4720  206.1610  154.0610 C   0  0  0  0  0  2  0  0  0  0  0  0
  160.9420  207.9040  153.1440 C   0  0  0  0  0  2  0  0  0  0  0  0
  161.4980  207.6050  154.5190 C   0  0  1  0  0  3  0  0  0  0  0  0
  160.9180  204.2010  150.7520 C   0  0  2  0  0  3  0  0  0  0  0  0
  160.4110  206.4350  149.7450 C   0  0  0  0  0  2  0  0  0  0  0  0
  160.6420  204.9570  149.4520 C   0  0  0  0  0  2  0  0  0  0  0  0
  161.6360  207.0320  150.4370 C   0  0  0  0  0  2  0  0  0  0  0  0
  161.9630  206.2830  151.7390 C   0  0  2  0  0  3  0  0  0  0  0  0
  162.1490  204.7870  151.4420 C   0  0  0  0  0  2  0  0  0  0  0  0
  161.1410  202.8240  150.4790 O   0  0  0  0  0  0  0  0  0  0  0  0
  161.1620  202.0960  148.0980 C   0  0  0  0  0  1  0  0  0  0  0  0
  160.5060  202.1570  149.4290 C   0  0  0  0  0  0  0  0  0  0  0  0
  159.3870  201.6010  149.5970 O   0  0  0  0  0  0  0  0  0  0  0  0
  160.5140  212.2570  155.9930 C   0  0  2  0  0  3  0  0  0  0  0  0
  160.0730  213.0770  157.1990 C   0  0  0  0  0  1  0  0  0  0  0  0
  159.8290  212.7280  154.8000 N   0  0  0  0  0  2  0  0  0  0  0  0
  158.7960  213.6510  155.2410 C   0  0  0  0  0  2  0  0  0  0  0  0
  157.5740  213.5280  154.3470 C   0  0  0  0  0  2  0  0  0  0  0  0
  155.1880  213.7260  154.4090 O   0  0  0  0  0  1  0  0  0  0  0  0
  156.3050  213.3880  155.1760 C   0  0  1  0  0  3  0  0  0  0  0  0
  156.1720  211.9900  155.6790 C   0  0  0  0  0  0  0  0  0  0  0  0
  155.7250  210.9930  154.8240 O   0  0  0  0  0  0  0  0  0  0  0  0
  156.4480  211.7120  156.8760 O   0  0  0  0  0  1  0  0  0  0  0  0
  1  3  1  0  0  0  0
  1  2  1  0  0  0  0
  1  5  1  1  0  0  0
  2  5  1  6  0  0  0
  3 23  1  6  0  0  0
  4  8  1  0  0  0  0
  4  3  1  0  0  0  0
  6  7  1  1  0  0  0
  6  2  1  0  0  0  0
  8  6  1  0  0  0  0
  9 11  1  1  0  0  0
  9 10  1  0  0  0  0
 10 12  1  0  0  0  0
 12 11  1  6  0  0  0
 12  6  1  0  0  0  0
 13 19  1  6  0  0  0
 13 18  1  0  0  0  0
 14 16  1  0  0  0  0
 15 14  1  0  0  0  0
 15 13  1  0  0  0  0
 17 16  1  6  0  0  0
 17  9  1  0  0  0  0
 18 17  1  0  0  0  0
 20 21  1  0  0  0  0
 21 22  2  0  0  0  0
 21 19  1  0  0  0  0
 23 24  1  1  0  0  0
 25 26  1  0  0  0  0
 25 23  1  0  0  0  0
 27 29  1  0  0  0  0
 27 26  1  0  0  0  0
 29 28  1  6  0  0  0
 29 30  1  0  0  0  0
 30 32  1  0  0  0  0
 31 30  2  0  0  0  0
M  END
>  <MODEL>
7

>  <REMARK>
 VINA RESULT:      -5.7      2.500      4.156
  Name = 
  10 active torsions:
  status: ('A' for Active; 'I' for Inactive)
    1  A    between atoms: C_2  and  O_24
    2  A    between atoms: C_3  and  C_7
    3  A    between atoms: C_3  and  N_9
    4  A    between atoms: C_5  and  C_22
    5  A    between atoms: N_8  and  C_25
    6  A    between atoms: N_9  and  C_30
    7  A    between atoms: C_16  and  O_24
    8  A    between atoms: C_18  and  C_27
    9  A    between atoms: C_22  and  C_23
   10  A    between atoms: C_23  and  C_30
                            x       y       z     vdW  Elec       q    Type
                         _______ _______ _______ _____ _____    ______ ____

>  <TORSDO>
F 10

$$$$
=
 OpenBabel11072411543D

 32 35  0  0  1  0  0  0  0  0999 V2000
  161.2190  206.4280  151.7720 C   0  0  1  0  0  3  0  0  0  0  0  0
  162.4190  207.3400  151.7900 C   0  0  2  0  0  3  0  0  0  0  0  0
  161.4770  205.9890  150.3470 C   0  0  2  0  0  3  0  0  0  0  0  0
  160.9140  207.1430  149.4730 C   0  0  0  0  0  2  0  0  0  0  0  0
  162.1020  206.5250  152.8690 O   0  0  0  0  0  0  0  0  0  0  0  0
  161.7850  208.6910  151.4270 C   0  0  1  0  0  0  0  0  0  0  0  0
  162.7760  209.6720  151.5420 O   0  0  0  0  0  1  0  0  0  0  0  0
  161.4220  208.5550  149.9170 C   0  0  0  0  0  2  0  0  0  0  0  0
  160.4760  210.9640  153.3400 N   0  0  1  0  0  0  0  0  0  0  0  0
  160.9070  209.5990  153.6390 C   0  0  0  0  0  2  0  0  0  0  0  0
  160.0910  210.5080  152.0060 C   0  0  0  0  0  2  0  0  0  0  0  0
  160.5370  209.0850  152.2630 C   0  0  1  0  0  3  0  0  0  0  0  0
  160.0980  210.2460  156.2730 C   0  0  2  0  0  3  0  0  0  0  0  0
  160.3810  212.6950  155.8460 C   0  0  0  0  0  2  0  0  0  0  0  0
  160.1060  211.6360  156.9080 C   0  0  0  0  0  2  0  0  0  0  0  0
  159.3140  212.6350  154.7540 C   0  0  0  0  0  2  0  0  0  0  0  0
  159.2550  211.2430  154.1050 C   0  0  2  0  0  3  0  0  0  0  0  0
  159.0240  210.1770  155.1880 C   0  0  0  0  0  2  0  0  0  0  0  0
  159.8340  209.2580  157.2600 O   0  0  0  0  0  0  0  0  0  0  0  0
  161.9020  207.8710  157.2480 C   0  0  0  0  0  1  0  0  0  0  0  0
  160.4220  207.9920  157.2280 C   0  0  0  0  0  0  0  0  0  0  0  0
  159.7140  206.9500  157.1870 O   0  0  0  0  0  0  0  0  0  0  0  0
  160.8040  204.6560  150.0060 C   0  0  2  0  0  3  0  0  0  0  0  0
  160.4560  203.8330  151.2400 C   0  0  0  0  0  1  0  0  0  0  0  0
  161.6560  203.8780  149.1200 N   0  0  0  0  0  2  0  0  0  0  0  0
  160.8180  203.4100  148.0290 C   0  0  0  0  0  2  0  0  0  0  0  0
  161.5990  203.4380  146.7260 C   0  0  0  0  0  2  0  0  0  0  0  0
  163.4750  204.7010  145.9360 O   0  0  0  0  0  1  0  0  0  0  0  0
  162.1930  204.8180  146.4770 C   0  0  1  0  0  3  0  0  0  0  0  0
  161.3180  205.5920  145.5510 C   0  0  0  0  0  0  0  0  0  0  0  0
  160.3770  206.4720  146.0690 O   0  0  0  0  0  1  0  0  0  0  0  0
  161.4140  205.4420  144.3040 O   0  0  0  0  0  0  0  0  0  0  0  0
  1  2  1  0  0  0  0
  1  5  1  1  0  0  0
  2  5  1  1  0  0  0
  3 23  1  6  0  0  0
  3  1  1  0  0  0  0
  4  8  1  0  0  0  0
  4  3  1  0  0  0  0
  6  7  1  1  0  0  0
  6  2  1  0  0  0  0
  6 12  1  0  0  0  0
  8  6  1  0  0  0  0
  9 11  1  6  0  0  0
  9 10  1  0  0  0  0
  9 17  1  0  0  0  0
 12 11  1  6  0  0  0
 12 10  1  0  0  0  0
 13 15  1  0  0  0  0
 13 19  1  1  0  0  0
 14 15  1  0  0  0  0
 16 14  1  0  0  0  0
 17 16  1  1  0  0  0
 17 18  1  0  0  0  0
 18 13  1  0  0  0  0
 21 20  1  0  0  0  0
 21 19  1  0  0  0  0
 22 21  2  0  0  0  0
 23 24  1  1  0  0  0
 25 23  1  0  0  0  0
 26 25  1  0  0  0  0
 27 26  1  0  0  0  0
 29 28  1  6  0  0  0
 29 27  1  0  0  0  0
 30 31  1  0  0  0  0
 30 29  1  0  0  0  0
 32 30  2  0  0  0  0
M  END
>  <MODEL>
8

>  <REMARK>
 VINA RESULT:      -5.6      2.288      9.727
  Name = 
  10 active torsions:
  status: ('A' for Active; 'I' for Inactive)
    1  A    between atoms: C_2  and  O_24
    2  A    between atoms: C_3  and  C_7
    3  A    between atoms: C_3  and  N_9
    4  A    between atoms: C_5  and  C_22
    5  A    between atoms: N_8  and  C_25
    6  A    between atoms: N_9  and  C_30
    7  A    between atoms: C_16  and  O_24
    8  A    between atoms: C_18  and  C_27
    9  A    between atoms: C_22  and  C_23
   10  A    between atoms: C_23  and  C_30
                            x       y       z     vdW  Elec       q    Type
                         _______ _______ _______ _____ _____    ______ ____

>  <TORSDO>
F 10

$$$$
=
 OpenBabel11072411543D

 32 35  0  0  1  0  0  0  0  0999 V2000
  160.6620  204.0320  151.0380 C   0  0  1  0  0  3  0  0  0  0  0  0
  161.9850  204.3290  151.6960 C   0  0  2  0  0  3  0  0  0  0  0  0
  161.3090  203.7100  149.7080 C   0  0  2  0  0  3  0  0  0  0  0  0
  161.5920  205.0950  149.0640 C   0  0  0  0  0  2  0  0  0  0  0  0
  160.9940  203.5990  152.3400 O   0  0  0  0  0  0  0  0  0  0  0  0
  162.0690  205.8550  151.5470 C   0  0  1  0  0  0  0  0  0  0  0  0
  163.1990  206.2920  152.2460 O   0  0  0  0  0  1  0  0  0  0  0  0
  162.3310  206.0830  150.0270 C   0  0  0  0  0  2  0  0  0  0  0  0
  161.0090  208.4800  153.1380 N   0  0  1  0  0  0  0  0  0  0  0  0
  160.9040  207.0580  153.4670 C   0  0  0  0  0  2  0  0  0  0  0  0
  160.9070  208.1200  151.7250 C   0  0  0  0  0  2  0  0  0  0  0  0
  160.8110  206.6370  152.0150 C   0  0  1  0  0  3  0  0  0  0  0  0
  160.8550  210.7650  155.1420 C   0  0  2  0  0  3  0  0  0  0  0  0
  160.4500  211.4520  152.7710 C   0  0  0  0  0  2  0  0  0  0  0  0
  160.4820  211.9250  154.2200 C   0  0  0  0  0  2  0  0  0  0  0  0
  159.4360  210.3210  152.6090 C   0  0  0  0  0  2  0  0  0  0  0  0
  159.7610  209.1410  153.5390 C   0  0  2  0  0  3  0  0  0  0  0  0
  159.8370  209.6350  154.9920 C   0  0  0  0  0  2  0  0  0  0  0  0
  160.8780  211.2020  156.4940 O   0  0  0  0  0  0  0  0  0  0  0  0
  158.5650  211.7390  157.2430 C   0  0  0  0  0  1  0  0  0  0  0  0
  159.9720  212.1420  156.9910 C   0  0  0  0  0  0  0  0  0  0  0  0
  160.3330  213.3240  157.2340 O   0  0  0  0  0  0  0  0  0  0  0  0
  160.4170  202.8510  148.8070 C   0  0  2  0  0  3  0  0  0  0  0  0
  159.7610  201.6940  149.5500 C   0  0  0  0  0  1  0  0  0  0  0  0
  161.1850  202.3410  147.6820 N   0  0  0  0  0  2  0  0  0  0  0  0
  160.3110  202.3750  146.5220 C   0  0  0  0  0  2  0  0  0  0  0  0
  161.0660  202.9180  145.3200 C   0  0  0  0  0  2  0  0  0  0  0  0
  162.9430  204.4030  145.3750 O   0  0  0  0  0  1  0  0  0  0  0  0
  161.5650  204.3320  145.5840 C   0  0  1  0  0  3  0  0  0  0  0  0
  160.8630  205.2980  144.6900 C   0  0  0  0  0  0  0  0  0  0  0  0
  161.3770  205.5640  143.4290 O   0  0  0  0  0  0  0  0  0  0  0  0
  159.8190  205.8860  145.0770 O   0  0  0  0  0  1  0  0  0  0  0  0
  1  2  1  0  0  0  0
  1  5  1  1  0  0  0
  2  5  1  1  0  0  0
  3 23  1  6  0  0  0
  3  1  1  0  0  0  0
  4  3  1  0  0  0  0
  4  8  1  0  0  0  0
  6  2  1  0  0  0  0
  6 12  1  0  0  0  0
  6  7  1  1  0  0  0
  8  6  1  0  0  0  0
  9 11  1  6  0  0  0
  9 10  1  0  0  0  0
  9 17  1  0  0  0  0
 12 11  1  6  0  0  0
 12 10  1  0  0  0  0
 13 19  1  1  0  0  0
 14 15  1  0  0  0  0
 15 13  1  0  0  0  0
 16 14  1  0  0  0  0
 17 16  1  6  0  0  0
 17 18  1  0  0  0  0
 18 13  1  0  0  0  0
 19 21  1  0  0  0  0
 21 22  2  0  0  0  0
 21 20  1  0  0  0  0
 23 24  1  1  0  0  0
 25 23  1  0  0  0  0
 26 25  1  0  0  0  0
 27 29  1  0  0  0  0
 27 26  1  0  0  0  0
 29 28  1  6  0  0  0
 30 32  1  0  0  0  0
 30 29  1  0  0  0  0
 31 30  2  0  0  0  0
M  END
>  <MODEL>
9

>  <REMARK>
 VINA RESULT:      -5.4      2.270     10.020
  Name = 
  10 active torsions:
  status: ('A' for Active; 'I' for Inactive)
    1  A    between atoms: C_2  and  O_24
    2  A    between atoms: C_3  and  C_7
    3  A    between atoms: C_3  and  N_9
    4  A    between atoms: C_5  and  C_22
    5  A    between atoms: N_8  and  C_25
    6  A    between atoms: N_9  and  C_30
    7  A    between atoms: C_16  and  O_24
    8  A    between atoms: C_18  and  C_27
    9  A    between atoms: C_22  and  C_23
   10  A    between atoms: C_23  and  C_30
                            x       y       z     vdW  Elec       q    Type
                         _______ _______ _______ _____ _____    ______ ____

>  <TORSDO>
F 10

$$$$
