=
 OpenBabel11072411343D

 25 28  0  0  1  0  0  0  0  0999 V2000
  160.4390  206.2550  147.6310 O   0  0  0  0  0  0  0  0  0  0  0  0
  161.2530  207.0430  151.1230 C   0  0  0  0  0  0  0  0  0  0  0  0
  160.8690  206.1280  149.9820 C   0  0  1  0  0  3  0  0  0  0  0  0
  161.9450  208.7800  149.5440 C   0  0  0  0  0  3  0  0  0  0  0  0
  161.7700  208.2580  150.9080 C   0  0  0  0  0  3  0  0  0  0  0  0
  161.5380  208.1050  148.5130 N   0  0  0  0  0  0  0  0  0  0  0  0
  160.9210  206.8210  148.6460 C   0  0  0  0  0  0  0  0  0  0  0  0
  161.0650  206.5760  152.5310 C   0  0  0  0  0  2  0  0  0  0  0  0
  160.8500  207.7450  153.4820 C   0  0  0  0  0  2  0  0  0  0  0  0
  160.2300  207.8840  155.9590 C   0  0  1  0  0  0  0  0  0  0  0  0
  159.2690  211.0070  154.5260 O   0  0  0  0  0  1  0  0  0  0  0  0
  161.5640  208.5830  155.7690 C   0  0  2  0  0  0  0  0  0  0  0  0
  161.2820  210.0140  155.3350 C   0  0  0  0  0  2  0  0  0  0  0  0
  159.1390  208.8780  155.5950 C   0  0  0  0  0  2  0  0  0  0  0  0
  161.2220  207.3650  154.9140 C   0  0  2  0  0  3  0  0  0  0  0  0
  162.4660  208.3810  156.8160 O   0  0  0  0  0  1  0  0  0  0  0  0
  160.0840  207.0690  157.2330 C   0  0  0  0  0  1  0  0  0  0  0  0
  159.7990  210.2440  155.5650 C   0  0  2  0  0  3  0  0  0  0  0  0
  161.7530  204.9710  149.9610 N   0  0  0  0  0  2  0  0  0  0  0  0
  161.5590  203.2910  148.2090 C   0  0  0  0  0  2  0  0  0  0  0  0
  160.2820  201.4930  150.0570 C   0  0  0  0  0  2  0  0  0  0  0  0
  160.9660  203.8370  149.5070 C   0  0  1  0  0  3  0  0  0  0  0  0
  160.7810  202.1420  147.7480 N   0  0  0  0  0  2  0  0  0  0  0  0
  160.9080  201.0670  148.7310 C   0  0  0  0  0  2  0  0  0  0  0  0
  160.9830  202.7440  150.5730 C   0  0  0  0  0  2  0  0  0  0  0  0
  1  7  2  0  0  0  0
  2  8  1  0  0  0  0
  3 19  1  6  0  0  0
  3  2  1  0  0  0  0
  4  5  1  0  0  0  0
  5  2  2  0  0  0  0
  6  7  1  0  0  0  0
  6  4  2  0  0  0  0
  7  3  1  0  0  0  0
  8  9  1  0  0  0  0
 10 17  1  1  0  0  0
 12 10  1  0  0  0  0
 12 16  1  1  0  0  0
 13 18  1  0  0  0  0
 13 12  1  0  0  0  0
 14 10  1  0  0  0  0
 15  9  1  6  0  0  0
 15 12  1  0  0  0  0
 15 10  1  0  0  0  0
 18 11  1  6  0  0  0
 18 14  1  0  0  0  0
 20 22  1  0  0  0  0
 21 25  1  0  0  0  0
 22 19  1  1  0  0  0
 22 25  1  0  0  0  0
 23 20  1  0  0  0  0
 23 24  1  0  0  0  0
 24 21  1  0  0  0  0
M  END
>  <MODEL>
1

>  <REMARK>
 VINA RESULT:      -7.9      0.000      0.000
  Name = 
  5 active torsions:
  status: ('A' for Active; 'I' for Inactive)
    1  A    between atoms: C_3  and  C_6
    2  A    between atoms: C_6  and  C_14
    3  A    between atoms: C_7  and  N_21
    4  A    between atoms: C_14  and  C_19
    5  A    between atoms: C_15  and  N_21
                            x       y       z     vdW  Elec       q    Type
                         _______ _______ _______ _____ _____    ______ ____

>  <TORSDO>
F 5

$$$$
=
 OpenBabel11072411343D

 25 28  0  0  1  0  0  0  0  0999 V2000
  161.2630  207.3370  147.8580 O   0  0  0  0  0  0  0  0  0  0  0  0
  161.2560  208.6950  151.2690 C   0  0  0  0  0  0  0  0  0  0  0  0
  161.1430  207.5980  150.2350 C   0  0  1  0  0  3  0  0  0  0  0  0
  162.2910  210.1860  149.6280 C   0  0  0  0  0  3  0  0  0  0  0  0
  161.8090  209.8790  150.9820 C   0  0  0  0  0  3  0  0  0  0  0  0
  162.1320  209.3430  148.6540 N   0  0  0  0  0  0  0  0  0  0  0  0
  161.5000  208.0740  148.8500 C   0  0  0  0  0  0  0  0  0  0  0  0
  160.7500  208.4490  152.6550 C   0  0  0  0  0  2  0  0  0  0  0  0
  161.2660  209.4980  153.6300 C   0  0  0  0  0  2  0  0  0  0  0  0
  160.4990  211.2910  155.2840 C   0  0  1  0  0  0  0  0  0  0  0  0
  162.4630  208.9860  157.1710 O   0  0  0  0  0  1  0  0  0  0  0  0
  159.5680  210.1000  155.4190 C   0  0  2  0  0  0  0  0  0  0  0  0
  160.2180  209.1080  156.3720 C   0  0  0  0  0  2  0  0  0  0  0  0
  161.7350  211.0010  156.1200 C   0  0  0  0  0  2  0  0  0  0  0  0
  160.1500  210.4530  154.0510 C   0  0  2  0  0  3  0  0  0  0  0  0
  158.2320  210.4430  155.6410 O   0  0  0  0  0  1  0  0  0  0  0  0
  159.8450  212.6590  155.3930 C   0  0  0  0  0  1  0  0  0  0  0  0
  161.3710  209.8420  157.0300 C   0  0  2  0  0  3  0  0  0  0  0  0
  162.0080  206.4860  150.6010 N   0  0  0  0  0  2  0  0  0  0  0  0
  161.3600  204.3650  149.5940 C   0  0  0  0  0  2  0  0  0  0  0  0
  160.7420  203.3040  152.1970 C   0  0  0  0  0  2  0  0  0  0  0  0
  161.1590  205.3190  150.7710 C   0  0  1  0  0  3  0  0  0  0  0  0
  160.5180  203.1810  149.7600 N   0  0  0  0  0  2  0  0  0  0  0  0
  160.9640  202.4540  150.9480 C   0  0  0  0  0  2  0  0  0  0  0  0
  161.5240  204.6070  152.0710 C   0  0  0  0  0  2  0  0  0  0  0  0
  1  7  2  0  0  0  0
  2  8  1  0  0  0  0
  3 19  1  1  0  0  0
  3  2  1  0  0  0  0
  4  5  1  0  0  0  0
  5  2  2  0  0  0  0
  6  7  1  0  0  0  0
  6  4  2  0  0  0  0
  7  3  1  0  0  0  0
  8  9  1  0  0  0  0
 10 17  1  1  0  0  0
 10 12  1  0  0  0  0
 10 14  1  0  0  0  0
 12 16  1  1  0  0  0
 12 13  1  0  0  0  0
 13 18  1  0  0  0  0
 14 18  1  0  0  0  0
 15  9  1  1  0  0  0
 15 10  1  0  0  0  0
 15 12  1  0  0  0  0
 18 11  1  6  0  0  0
 20 23  1  0  0  0  0
 20 22  1  0  0  0  0
 22 19  1  6  0  0  0
 22 25  1  0  0  0  0
 23 24  1  0  0  0  0
 24 21  1  0  0  0  0
 25 21  1  0  0  0  0
M  END
>  <MODEL>
2

>  <REMARK>
 VINA RESULT:      -7.4      1.517      2.736
  Name = 
  5 active torsions:
  status: ('A' for Active; 'I' for Inactive)
    1  A    between atoms: C_3  and  C_6
    2  A    between atoms: C_6  and  C_14
    3  A    between atoms: C_7  and  N_21
    4  A    between atoms: C_14  and  C_19
    5  A    between atoms: C_15  and  N_21
                            x       y       z     vdW  Elec       q    Type
                         _______ _______ _______ _____ _____    ______ ____

>  <TORSDO>
F 5

$$$$
=
 OpenBabel11072411343D

 25 28  0  0  1  0  0  0  0  0999 V2000
  161.1980  205.0830  153.5410 O   0  0  0  0  0  0  0  0  0  0  0  0
  160.8580  205.2990  149.8920 C   0  0  0  0  0  0  0  0  0  0  0  0
  161.1630  205.8400  151.2700 C   0  0  1  0  0  3  0  0  0  0  0  0
  160.9910  203.0020  150.7250 C   0  0  0  0  0  3  0  0  0  0  0  0
  160.8030  203.9850  149.6480 C   0  0  0  0  0  3  0  0  0  0  0  0
  161.1460  203.3810  151.9560 N   0  0  0  0  0  0  0  0  0  0  0  0
  161.1610  204.7640  152.3240 C   0  0  0  0  0  0  0  0  0  0  0  0
  160.6250  206.2540  148.7650 C   0  0  0  0  0  2  0  0  0  0  0  0
  160.2880  205.5230  147.4740 C   0  0  0  0  0  2  0  0  0  0  0  0
  161.1640  204.9730  145.1350 C   0  0  1  0  0  0  0  0  0  0  0  0
  160.3350  201.8450  146.6370 O   0  0  0  0  0  1  0  0  0  0  0  0
  162.3000  204.7710  146.1220 C   0  0  2  0  0  0  0  0  0  0  0  0
  162.1680  203.3700  146.7010 C   0  0  0  0  0  2  0  0  0  0  0  0
  160.3170  203.7110  145.1510 C   0  0  0  0  0  2  0  0  0  0  0  0
  161.2770  205.8790  146.3660 C   0  0  2  0  0  3  0  0  0  0  0  0
  163.5500  205.1660  145.6390 O   0  0  0  0  0  1  0  0  0  0  0  0
  161.5490  205.5820  143.7970 C   0  0  0  0  0  1  0  0  0  0  0  0
  161.1500  202.6470  145.8390 C   0  0  2  0  0  3  0  0  0  0  0  0
  162.4570  206.5060  151.2620 N   0  0  0  0  0  2  0  0  0  0  0  0
  162.2960  208.8490  150.6200 C   0  0  0  0  0  2  0  0  0  0  0  0
  160.6050  209.3680  152.8890 C   0  0  0  0  0  2  0  0  0  0  0  0
  162.2540  207.8500  151.7750 C   0  0  1  0  0  3  0  0  0  0  0  0
  162.0820  210.2050  151.1230 N   0  0  0  0  0  2  0  0  0  0  0  0
  160.7320  210.2890  151.6780 C   0  0  0  0  0  2  0  0  0  0  0  0
  160.8970  207.9320  152.4690 C   0  0  0  0  0  2  0  0  0  0  0  0
  2  3  1  0  0  0  0
  3 19  1  6  0  0  0
  3  7  1  0  0  0  0
  4  6  2  0  0  0  0
  5  2  2  0  0  0  0
  5  4  1  0  0  0  0
  6  7  1  0  0  0  0
  7  1  2  0  0  0  0
  8  2  1  0  0  0  0
  9  8  1  0  0  0  0
 10 17  1  6  0  0  0
 10 14  1  0  0  0  0
 10 12  1  0  0  0  0
 10 15  1  0  0  0  0
 12 16  1  6  0  0  0
 12 15  1  0  0  0  0
 12 13  1  0  0  0  0
 14 18  1  0  0  0  0
 15  9  1  1  0  0  0
 18 11  1  1  0  0  0
 18 13  1  0  0  0  0
 20 23  1  0  0  0  0
 20 22  1  0  0  0  0
 22 19  1  6  0  0  0
 22 25  1  0  0  0  0
 23 24  1  0  0  0  0
 24 21  1  0  0  0  0
 25 21  1  0  0  0  0
M  END
>  <MODEL>
3

>  <REMARK>
 VINA RESULT:      -7.3      2.907      8.329
  Name = 
  5 active torsions:
  status: ('A' for Active; 'I' for Inactive)
    1  A    between atoms: C_3  and  C_6
    2  A    between atoms: C_6  and  C_14
    3  A    between atoms: C_7  and  N_21
    4  A    between atoms: C_14  and  C_19
    5  A    between atoms: C_15  and  N_21
                            x       y       z     vdW  Elec       q    Type
                         _______ _______ _______ _____ _____    ______ ____

>  <TORSDO>
F 5

$$$$
=
 OpenBabel11072411343D

 25 28  0  0  1  0  0  0  0  0999 V2000
  162.0600  205.5370  151.7690 O   0  0  0  0  0  0  0  0  0  0  0  0
  161.9190  208.8930  150.2880 C   0  0  0  0  0  0  0  0  0  0  0  0
  161.9960  207.3830  150.2470 C   0  0  1  0  0  3  0  0  0  0  0  0
  161.2170  208.8310  152.6300 C   0  0  0  0  0  3  0  0  0  0  0  0
  161.5360  209.5500  151.3880 C   0  0  0  0  0  3  0  0  0  0  0  0
  161.3640  207.5440  152.7160 N   0  0  0  0  0  0  0  0  0  0  0  0
  161.8230  206.7620  151.6080 C   0  0  0  0  0  0  0  0  0  0  0  0
  162.2660  209.6760  149.0620 C   0  0  0  0  0  2  0  0  0  0  0  0
  161.7700  211.1130  149.1590 C   0  0  0  0  0  2  0  0  0  0  0  0
  162.0310  213.4640  148.1900 C   0  0  1  0  0  0  0  0  0  0  0  0
  158.7290  213.3130  149.5340 O   0  0  0  0  0  1  0  0  0  0  0  0
  161.2980  212.6130  147.1670 C   0  0  2  0  0  0  0  0  0  0  0  0
  159.8200  212.6270  147.5260 C   0  0  0  0  0  2  0  0  0  0  0  0
  161.0010  213.9560  149.1940 C   0  0  0  0  0  2  0  0  0  0  0  0
  162.3690  211.9770  148.0510 C   0  0  2  0  0  3  0  0  0  0  0  0
  161.6550  212.8810  145.8440 O   0  0  0  0  0  1  0  0  0  0  0  0
  163.0390  214.4530  147.6280 C   0  0  0  0  0  1  0  0  0  0  0  0
  159.6430  213.7210  148.5630 C   0  0  2  0  0  3  0  0  0  0  0  0
  160.9780  206.8630  149.3460 N   0  0  0  0  0  2  0  0  0  0  0  0
  161.1980  204.5890  148.5050 C   0  0  0  0  0  2  0  0  0  0  0  0
  161.9090  205.6050  145.9080 C   0  0  0  0  0  2  0  0  0  0  0  0
  161.6560  206.0390  148.3600 C   0  0  1  0  0  3  0  0  0  0  0  0
  161.8670  203.7510  147.5100 N   0  0  0  0  0  2  0  0  0  0  0  0
  161.4390  204.1770  146.1780 C   0  0  0  0  0  2  0  0  0  0  0  0
  161.3210  206.5410  146.9580 C   0  0  0  0  0  2  0  0  0  0  0  0
  2  5  2  0  0  0  0
  3 19  1  6  0  0  0
  3  2  1  0  0  0  0
  3  7  1  0  0  0  0
  4  6  2  0  0  0  0
  5  4  1  0  0  0  0
  7  1  2  0  0  0  0
  7  6  1  0  0  0  0
  8  9  1  0  0  0  0
  8  2  1  0  0  0  0
 10 17  1  6  0  0  0
 10 14  1  0  0  0  0
 12 16  1  6  0  0  0
 12 13  1  0  0  0  0
 12 15  1  0  0  0  0
 12 10  1  0  0  0  0
 13 18  1  0  0  0  0
 15 10  1  0  0  0  0
 15  9  1  1  0  0  0
 18 14  1  0  0  0  0
 18 11  1  1  0  0  0
 21 24  1  0  0  0  0
 21 25  1  0  0  0  0
 22 20  1  0  0  0  0
 22 19  1  1  0  0  0
 23 20  1  0  0  0  0
 24 23  1  0  0  0  0
 25 22  1  0  0  0  0
M  END
>  <MODEL>
4

>  <REMARK>
 VINA RESULT:      -7.2      3.635      6.332
  Name = 
  5 active torsions:
  status: ('A' for Active; 'I' for Inactive)
    1  A    between atoms: C_3  and  C_6
    2  A    between atoms: C_6  and  C_14
    3  A    between atoms: C_7  and  N_21
    4  A    between atoms: C_14  and  C_19
    5  A    between atoms: C_15  and  N_21
                            x       y       z     vdW  Elec       q    Type
                         _______ _______ _______ _____ _____    ______ ____

>  <TORSDO>
F 5

$$$$
=
 OpenBabel11072411343D

 25 28  0  0  1  0  0  0  0  0999 V2000
  161.3270  205.9900  153.5070 O   0  0  0  0  0  0  0  0  0  0  0  0
  160.8780  205.4860  149.8980 C   0  0  0  0  0  0  0  0  0  0  0  0
  161.1080  206.3100  151.1450 C   0  0  1  0  0  3  0  0  0  0  0  0
  161.4400  203.4340  151.1070 C   0  0  0  0  0  3  0  0  0  0  0  0
  161.0560  204.1600  149.8880 C   0  0  0  0  0  3  0  0  0  0  0  0
  161.5490  204.0480  152.2450 N   0  0  0  0  0  0  0  0  0  0  0  0
  161.3220  205.4570  152.3670 C   0  0  0  0  0  0  0  0  0  0  0  0
  160.4530  206.1690  148.6370 C   0  0  0  0  0  2  0  0  0  0  0  0
  160.4090  205.1980  147.4650 C   0  0  0  0  0  2  0  0  0  0  0  0
  161.1620  204.9160  145.0380 C   0  0  1  0  0  0  0  0  0  0  0  0
  159.9330  201.7280  146.0650 O   0  0  0  0  0  1  0  0  0  0  0  0
  162.2760  204.4090  145.9370 C   0  0  2  0  0  0  0  0  0  0  0  0
  161.9610  202.9640  146.2960 C   0  0  0  0  0  2  0  0  0  0  0  0
  160.1490  203.7930  144.8890 C   0  0  0  0  0  2  0  0  0  0  0  0
  161.4200  205.5910  146.3890 C   0  0  2  0  0  3  0  0  0  0  0  0
  163.5600  204.7050  145.4740 O   0  0  0  0  0  1  0  0  0  0  0  0
  161.6050  205.6730  143.7970 C   0  0  0  0  0  1  0  0  0  0  0  0
  160.8380  202.5300  145.3710 C   0  0  2  0  0  3  0  0  0  0  0  0
  162.2610  207.1780  150.9540 N   0  0  0  0  0  2  0  0  0  0  0  0
  162.2330  209.5640  151.4390 C   0  0  0  0  0  2  0  0  0  0  0  0
  161.8910  210.1420  148.6410 C   0  0  0  0  0  2  0  0  0  0  0  0
  161.7620  208.4620  150.4920 C   0  0  1  0  0  3  0  0  0  0  0  0
  161.7450  210.8630  150.9780 N   0  0  0  0  0  2  0  0  0  0  0  0
  162.3550  211.1580  149.6820 C   0  0  0  0  0  2  0  0  0  0  0  0
  162.2890  208.7390  149.0870 C   0  0  0  0  0  2  0  0  0  0  0  0
  2  3  1  0  0  0  0
  3 19  1  6  0  0  0
  3  7  1  0  0  0  0
  4  6  2  0  0  0  0
  5  2  2  0  0  0  0
  5  4  1  0  0  0  0
  6  7  1  0  0  0  0
  7  1  2  0  0  0  0
  8  2  1  0  0  0  0
  9  8  1  0  0  0  0
 10 17  1  6  0  0  0
 10 12  1  0  0  0  0
 10 15  1  0  0  0  0
 12 16  1  6  0  0  0
 12 13  1  0  0  0  0
 12 15  1  0  0  0  0
 14 10  1  0  0  0  0
 14 18  1  0  0  0  0
 15  9  1  1  0  0  0
 18 11  1  1  0  0  0
 18 13  1  0  0  0  0
 21 25  1  0  0  0  0
 21 24  1  0  0  0  0
 22 19  1  1  0  0  0
 22 20  1  0  0  0  0
 23 20  1  0  0  0  0
 24 23  1  0  0  0  0
 25 22  1  0  0  0  0
M  END
>  <MODEL>
5

>  <REMARK>
 VINA RESULT:      -6.7      3.346      8.555
  Name = 
  5 active torsions:
  status: ('A' for Active; 'I' for Inactive)
    1  A    between atoms: C_3  and  C_6
    2  A    between atoms: C_6  and  C_14
    3  A    between atoms: C_7  and  N_21
    4  A    between atoms: C_14  and  C_19
    5  A    between atoms: C_15  and  N_21
                            x       y       z     vdW  Elec       q    Type
                         _______ _______ _______ _____ _____    ______ ____

>  <TORSDO>
F 5

$$$$
=
 OpenBabel11072411343D

 25 28  0  0  1  0  0  0  0  0999 V2000
  160.9570  204.5780  153.2430 O   0  0  0  0  0  0  0  0  0  0  0  0
  160.6220  205.1710  149.6350 C   0  0  0  0  0  0  0  0  0  0  0  0
  160.7970  205.5870  151.0780 C   0  0  1  0  0  3  0  0  0  0  0  0
  161.1990  202.8600  150.1940 C   0  0  0  0  0  3  0  0  0  0  0  0
  160.8320  203.9120  149.2350 C   0  0  0  0  0  3  0  0  0  0  0  0
  161.2620  203.1070  151.4670 N   0  0  0  0  0  0  0  0  0  0  0  0
  160.9970  204.4100  151.9970 C   0  0  0  0  0  0  0  0  0  0  0  0
  160.2170  206.1940  148.6230 C   0  0  0  0  0  2  0  0  0  0  0  0
  161.1750  206.2180  147.4400 C   0  0  0  0  0  2  0  0  0  0  0  0
  160.8270  204.5400  145.5420 C   0  0  1  0  0  0  0  0  0  0  0  0
  164.2780  204.3270  146.4250 O   0  0  0  0  0  1  0  0  0  0  0  0
  161.3980  205.8130  144.9440 C   0  0  2  0  0  0  0  0  0  0  0  0
  162.9120  205.7550  145.0870 C   0  0  0  0  0  2  0  0  0  0  0  0
  161.9920  203.7310  146.0890 C   0  0  0  0  0  2  0  0  0  0  0  0
  160.4460  205.8990  146.1350 C   0  0  2  0  0  3  0  0  0  0  0  0
  160.8700  206.1420  143.6940 O   0  0  0  0  0  1  0  0  0  0  0  0
  159.7700  203.8330  144.7100 C   0  0  0  0  0  1  0  0  0  0  0  0
  163.2480  204.3300  145.4840 C   0  0  2  0  0  3  0  0  0  0  0  0
  161.9340  206.4890  151.1950 N   0  0  0  0  0  2  0  0  0  0  0  0
  161.3120  208.0100  152.9920 C   0  0  0  0  0  2  0  0  0  0  0  0
  161.8690  210.2650  151.2930 C   0  0  0  0  0  2  0  0  0  0  0  0
  161.4060  207.8120  151.4800 C   0  0  1  0  0  3  0  0  0  0  0  0
  160.7910  209.3440  153.2910 N   0  0  0  0  0  2  0  0  0  0  0  0
  161.7510  210.3380  152.8140 C   0  0  0  0  0  2  0  0  0  0  0  0
  162.3310  208.8710  150.8850 C   0  0  0  0  0  2  0  0  0  0  0  0
  2  3  1  0  0  0  0
  3 19  1  6  0  0  0
  3  7  1  0  0  0  0
  4  6  2  0  0  0  0
  5  2  2  0  0  0  0
  5  4  1  0  0  0  0
  6  7  1  0  0  0  0
  7  1  2  0  0  0  0
  8  2  1  0  0  0  0
  9  8  1  0  0  0  0
 10 17  1  6  0  0  0
 10 14  1  0  0  0  0
 10 15  1  0  0  0  0
 12 16  1  6  0  0  0
 12 13  1  0  0  0  0
 12 10  1  0  0  0  0
 12 15  1  0  0  0  0
 13 18  1  0  0  0  0
 15  9  1  1  0  0  0
 18 14  1  0  0  0  0
 18 11  1  1  0  0  0
 20 23  1  0  0  0  0
 21 24  1  0  0  0  0
 22 19  1  1  0  0  0
 22 20  1  0  0  0  0
 24 23  1  0  0  0  0
 25 21  1  0  0  0  0
 25 22  1  0  0  0  0
M  END
>  <MODEL>
6

>  <REMARK>
 VINA RESULT:      -6.7      2.908      8.458
  Name = 
  5 active torsions:
  status: ('A' for Active; 'I' for Inactive)
    1  A    between atoms: C_3  and  C_6
    2  A    between atoms: C_6  and  C_14
    3  A    between atoms: C_7  and  N_21
    4  A    between atoms: C_14  and  C_19
    5  A    between atoms: C_15  and  N_21
                            x       y       z     vdW  Elec       q    Type
                         _______ _______ _______ _____ _____    ______ ____

>  <TORSDO>
F 5

$$$$
=
 OpenBabel11072411343D

 25 28  0  0  1  0  0  0  0  0999 V2000
  162.5930  205.8630  151.8820 O   0  0  0  0  0  0  0  0  0  0  0  0
  162.0350  208.9950  150.0500 C   0  0  0  0  0  0  0  0  0  0  0  0
  162.2350  207.5010  150.1740 C   0  0  1  0  0  3  0  0  0  0  0  0
  161.5570  209.1660  152.4430 C   0  0  0  0  0  3  0  0  0  0  0  0
  161.7010  209.7500  151.1020 C   0  0  0  0  0  3  0  0  0  0  0  0
  161.8190  207.9140  152.6590 N   0  0  0  0  0  0  0  0  0  0  0  0
  162.2400  207.0380  151.6080 C   0  0  0  0  0  0  0  0  0  0  0  0
  162.2020  209.6470  148.7150 C   0  0  0  0  0  2  0  0  0  0  0  0
  162.0590  211.1600  148.8110 C   0  0  0  0  0  2  0  0  0  0  0  0
  161.0040  212.6130  146.9920 C   0  0  1  0  0  0  0  0  0  0  0  0
  163.8450  214.4200  148.1720 O   0  0  0  0  0  1  0  0  0  0  0  0
  160.5290  213.1290  148.3390 C   0  0  2  0  0  0  0  0  0  0  0  0
  161.5890  214.0820  148.8710 C   0  0  0  0  0  2  0  0  0  0  0  0
  162.3730  213.2190  146.7290 C   0  0  0  0  0  2  0  0  0  0  0  0
  160.7680  211.6330  148.1450 C   0  0  2  0  0  3  0  0  0  0  0  0
  159.1990  213.5560  148.3480 O   0  0  0  0  0  1  0  0  0  0  0  0
  159.9710  212.6230  145.8770 C   0  0  0  0  0  1  0  0  0  0  0  0
  162.5290  214.3630  147.7130 C   0  0  2  0  0  3  0  0  0  0  0  0
  161.1870  206.8030  149.4450 N   0  0  0  0  0  2  0  0  0  0  0  0
  161.0880  204.4850  148.7040 C   0  0  0  0  0  2  0  0  0  0  0  0
  162.3730  205.2070  146.2320 C   0  0  0  0  0  2  0  0  0  0  0  0
  161.8350  205.8140  148.6010 C   0  0  1  0  0  3  0  0  0  0  0  0
  161.7270  203.4840  147.8500 N   0  0  0  0  0  2  0  0  0  0  0  0
  161.5990  203.9100  146.4570 C   0  0  0  0  0  2  0  0  0  0  0  0
  161.8230  206.2920  147.1510 C   0  0  0  0  0  2  0  0  0  0  0  0
  2  3  1  0  0  0  0
  2  5  2  0  0  0  0
  3 19  1  6  0  0  0
  3  7  1  0  0  0  0
  4  6  2  0  0  0  0
  5  4  1  0  0  0  0
  7  1  2  0  0  0  0
  7  6  1  0  0  0  0
  8  9  1  0  0  0  0
  8  2  1  0  0  0  0
 10 17  1  6  0  0  0
 10 15  1  0  0  0  0
 10 12  1  0  0  0  0
 12 16  1  1  0  0  0
 12 13  1  0  0  0  0
 14 10  1  0  0  0  0
 14 18  1  0  0  0  0
 15 12  1  0  0  0  0
 15  9  1  1  0  0  0
 18 11  1  1  0  0  0
 18 13  1  0  0  0  0
 21 24  1  0  0  0  0
 21 25  1  0  0  0  0
 22 20  1  0  0  0  0
 22 19  1  1  0  0  0
 23 20  1  0  0  0  0
 24 23  1  0  0  0  0
 25 22  1  0  0  0  0
M  END
>  <MODEL>
7

>  <REMARK>
 VINA RESULT:      -6.5      3.875      6.498
  Name = 
  5 active torsions:
  status: ('A' for Active; 'I' for Inactive)
    1  A    between atoms: C_3  and  C_6
    2  A    between atoms: C_6  and  C_14
    3  A    between atoms: C_7  and  N_21
    4  A    between atoms: C_14  and  C_19
    5  A    between atoms: C_15  and  N_21
                            x       y       z     vdW  Elec       q    Type
                         _______ _______ _______ _____ _____    ______ ____

>  <TORSDO>
F 5

$$$$
=
 OpenBabel11072411343D

 25 28  0  0  1  0  0  0  0  0999 V2000
  161.6890  200.1840  147.6430 O   0  0  0  0  0  0  0  0  0  0  0  0
  160.9700  203.4500  149.1580 C   0  0  0  0  0  0  0  0  0  0  0  0
  161.3360  202.5210  148.0230 C   0  0  1  0  0  3  0  0  0  0  0  0
  160.1960  201.5590  150.5040 C   0  0  0  0  0  3  0  0  0  0  0  0
  160.4230  202.9960  150.2920 C   0  0  0  0  0  3  0  0  0  0  0  0
  160.5830  200.6840  149.6280 N   0  0  0  0  0  0  0  0  0  0  0  0
  161.2280  201.0690  148.4100 C   0  0  0  0  0  0  0  0  0  0  0  0
  161.2110  204.9180  149.0090 C   0  0  0  0  0  2  0  0  0  0  0  0
  160.4150  205.7210  150.0300 C   0  0  0  0  0  2  0  0  0  0  0  0
  161.0710  206.8650  152.2200 C   0  0  1  0  0  0  0  0  0  0  0  0
  161.8160  209.2000  149.6270 O   0  0  0  0  0  1  0  0  0  0  0  0
  162.3280  206.2790  151.6020 C   0  0  2  0  0  0  0  0  0  0  0  0
  162.8640  207.2870  150.5950 C   0  0  0  0  0  2  0  0  0  0  0  0
  160.8190  208.2080  151.5550 C   0  0  0  0  0  2  0  0  0  0  0  0
  160.9950  205.5530  151.4330 C   0  0  2  0  0  3  0  0  0  0  0  0
  163.2220  205.7420  152.5310 O   0  0  0  0  0  1  0  0  0  0  0  0
  160.9690  206.7650  153.7330 C   0  0  0  0  0  1  0  0  0  0  0  0
  162.1060  208.5790  150.8420 C   0  0  2  0  0  3  0  0  0  0  0  0
  160.4740  202.7810  146.8780 N   0  0  0  0  0  2  0  0  0  0  0  0
  160.5190  204.4950  145.1500 C   0  0  0  0  0  2  0  0  0  0  0  0
  163.3750  204.7160  145.4260 C   0  0  0  0  0  2  0  0  0  0  0  0
  161.3000  203.3800  145.8450 C   0  0  1  0  0  3  0  0  0  0  0  0
  161.3450  205.1130  144.1130 N   0  0  0  0  0  2  0  0  0  0  0  0
  162.4890  205.7620  144.7530 C   0  0  0  0  0  2  0  0  0  0  0  0
  162.5640  203.9600  146.4730 C   0  0  0  0  0  2  0  0  0  0  0  0
  1  7  2  0  0  0  0
  2  5  2  0  0  0  0
  3 19  1  6  0  0  0
  3  7  1  0  0  0  0
  3  2  1  0  0  0  0
  5  4  1  0  0  0  0
  6  4  2  0  0  0  0
  7  6  1  0  0  0  0
  8  2  1  0  0  0  0
  8  9  1  0  0  0  0
 10 17  1  1  0  0  0
 12 10  1  0  0  0  0
 12 16  1  1  0  0  0
 13 18  1  0  0  0  0
 13 12  1  0  0  0  0
 14 10  1  0  0  0  0
 15  9  1  6  0  0  0
 15 12  1  0  0  0  0
 15 10  1  0  0  0  0
 18 11  1  6  0  0  0
 18 14  1  0  0  0  0
 20 22  1  0  0  0  0
 21 25  1  0  0  0  0
 22 25  1  0  0  0  0
 22 19  1  1  0  0  0
 23 24  1  0  0  0  0
 23 20  1  0  0  0  0
 24 21  1  0  0  0  0
M  END
>  <MODEL>
8

>  <REMARK>
 VINA RESULT:      -6.5      2.833      5.123
  Name = 
  5 active torsions:
  status: ('A' for Active; 'I' for Inactive)
    1  A    between atoms: C_3  and  C_6
    2  A    between atoms: C_6  and  C_14
    3  A    between atoms: C_7  and  N_21
    4  A    between atoms: C_14  and  C_19
    5  A    between atoms: C_15  and  N_21
                            x       y       z     vdW  Elec       q    Type
                         _______ _______ _______ _____ _____    ______ ____

>  <TORSDO>
F 5

$$$$
=
 OpenBabel11072411343D

 25 28  0  0  1  0  0  0  0  0999 V2000
  162.4630  205.6230  152.3870 O   0  0  0  0  0  0  0  0  0  0  0  0
  160.8620  208.8660  153.0200 C   0  0  0  0  0  0  0  0  0  0  0  0
  161.4650  207.7860  152.1500 C   0  0  1  0  0  3  0  0  0  0  0  0
  160.6720  207.3030  154.8920 C   0  0  0  0  0  3  0  0  0  0  0  0
  160.4790  208.6250  154.2780 C   0  0  0  0  0  3  0  0  0  0  0  0
  161.2820  206.3510  154.2540 N   0  0  0  0  0  0  0  0  0  0  0  0
  161.7780  206.5320  152.9240 C   0  0  0  0  0  0  0  0  0  0  0  0
  160.6740  210.2390  152.4570 C   0  0  0  0  0  2  0  0  0  0  0  0
  159.4620  210.9300  153.0650 C   0  0  0  0  0  2  0  0  0  0  0  0
  159.2770  212.1580  155.2990 C   0  0  1  0  0  0  0  0  0  0  0  0
  156.0770  210.6920  154.7140 O   0  0  0  0  0  1  0  0  0  0  0  0
  158.6960  213.0560  154.2210 C   0  0  2  0  0  0  0  0  0  0  0  0
  157.2450  212.6500  154.0100 C   0  0  0  0  0  2  0  0  0  0  0  0
  158.1900  211.1780  155.7100 C   0  0  0  0  0  2  0  0  0  0  0  0
  159.8780  212.1450  153.8910 C   0  0  2  0  0  3  0  0  0  0  0  0
  158.9790  214.4120  154.3960 O   0  0  0  0  0  1  0  0  0  0  0  0
  160.0800  212.8590  156.3820 C   0  0  0  0  0  1  0  0  0  0  0  0
  156.8870  211.7330  155.1660 C   0  0  2  0  0  3  0  0  0  0  0  0
  160.5530  207.4650  151.0610 N   0  0  0  0  0  2  0  0  0  0  0  0
  160.5360  205.7270  149.3560 C   0  0  0  0  0  2  0  0  0  0  0  0
  162.3960  207.2470  147.7710 C   0  0  0  0  0  2  0  0  0  0  0  0
  161.3410  206.8520  150.0060 C   0  0  1  0  0  3  0  0  0  0  0  0
  161.3160  205.1090  148.2850 N   0  0  0  0  0  2  0  0  0  0  0  0
  161.5390  206.1030  147.2360 C   0  0  0  0  0  2  0  0  0  0  0  0
  161.6910  207.9010  148.9540 C   0  0  0  0  0  2  0  0  0  0  0  0
  1  7  2  0  0  0  0
  2  5  2  0  0  0  0
  3 19  1  6  0  0  0
  3  7  1  0  0  0  0
  3  2  1  0  0  0  0
  5  4  1  0  0  0  0
  6  4  2  0  0  0  0
  7  6  1  0  0  0  0
  8  2  1  0  0  0  0
  8  9  1  0  0  0  0
 10 14  1  0  0  0  0
 10 17  1  1  0  0  0
 12 16  1  1  0  0  0
 12 10  1  0  0  0  0
 13 12  1  0  0  0  0
 13 18  1  0  0  0  0
 15  9  1  6  0  0  0
 15 12  1  0  0  0  0
 15 10  1  0  0  0  0
 18 11  1  6  0  0  0
 18 14  1  0  0  0  0
 20 22  1  0  0  0  0
 21 25  1  0  0  0  0
 22 19  1  1  0  0  0
 23 20  1  0  0  0  0
 24 21  1  0  0  0  0
 24 23  1  0  0  0  0
 25 22  1  0  0  0  0
M  END
>  <MODEL>
9

>  <REMARK>
 VINA RESULT:      -6.2      2.677      4.570
  Name = 
  5 active torsions:
  status: ('A' for Active; 'I' for Inactive)
    1  A    between atoms: C_3  and  C_6
    2  A    between atoms: C_6  and  C_14
    3  A    between atoms: C_7  and  N_21
    4  A    between atoms: C_14  and  C_19
    5  A    between atoms: C_15  and  N_21
                            x       y       z     vdW  Elec       q    Type
                         _______ _______ _______ _____ _____    ______ ____

>  <TORSDO>
F 5

$$$$
