=
 OpenBabel11072412413D

 31 34  0  0  1  0  0  0  0  0999 V2000
  162.1230  209.7240  150.8520 C   0  0  0  0  0  3  0  0  0  0  0  0
  162.1310  208.9490  149.7580 C   0  0  0  0  0  3  0  0  0  0  0  0
  160.9940  207.1550  151.0390 C   0  0  0  0  0  0  0  0  0  0  0  0
  161.0080  207.9340  152.0820 N   0  0  0  0  0  0  0  0  0  0  0  0
  161.2100  207.7550  149.6680 C   0  0  0  0  0  2  0  0  0  0  0  0
  161.1840  209.3900  151.9810 C   0  0  1  0  0  3  0  0  0  0  0  0
  161.6910  209.9840  153.2940 C   0  0  0  0  0  2  0  0  0  0  0  0
  160.7100  210.8970  153.8660 N   0  0  0  0  0  2  0  0  0  0  0  0
  159.7340  210.4410  154.8070 C   0  0  0  0  0  0  0  0  0  0  0  0
  159.9020  209.3490  155.4170 O   0  0  0  0  0  0  0  0  0  0  0  0
  156.6070  212.7360  155.0770 C   0  0  0  0  0  0  0  0  0  0  0  0
  156.9050  212.1800  156.3170 C   0  0  0  0  0  3  0  0  0  0  0  0
  158.5550  211.2630  155.0840 C   0  0  0  0  0  0  0  0  0  0  0  0
  157.9990  211.3670  156.3100 N   0  0  0  0  0  0  0  0  0  0  0  0
  157.7370  212.1980  153.9490 S   0  0  0  0  0  0  0  0  0  0  0  0
  154.9840  214.3340  155.7150 O   0  0  0  0  0  1  0  0  0  0  0  0
  155.4870  213.6390  154.7940 C   0  0  0  0  0  0  0  0  0  0  0  0
  154.9590  213.7190  153.5110 O   0  0  0  0  0  0  0  0  0  0  0  0
  160.7600  205.7830  151.2340 O   0  0  0  0  0  0  0  0  0  0  0  0
  161.1190  201.2950  147.5300 O   0  0  0  0  0  0  0  0  0  0  0  0
  161.4510  203.6740  147.2780 C   0  0  0  0  0  0  0  0  0  0  0  0
  160.5560  202.8490  149.3290 C   0  0  2  0  0  3  0  0  0  0  0  0
  161.0650  202.4680  147.9880 C   0  0  0  0  0  0  0  0  0  0  0  0
  161.6110  203.4340  151.4380 C   0  0  1  0  0  3  0  0  0  0  0  0
  160.7930  204.2810  149.3570 N   0  0  0  0  0  0  0  0  0  0  0  0
  161.4390  204.6990  150.5860 C   0  0  1  0  0  3  0  0  0  0  0  0
  161.3000  204.7050  148.0900 C   0  0  0  0  0  3  0  0  0  0  0  0
  160.6010  203.3210  152.5680 C   0  0  0  0  0  1  0  0  0  0  0  0
  161.3940  202.2780  150.4640 C   0  0  0  0  0  2  0  0  0  0  0  0
  161.9420  203.7600  145.8760 C   0  0  0  0  0  2  0  0  0  0  0  0
  163.0430  204.7020  145.7990 N   0  0  0  0  0  1  0  0  0  0  0  0
  1  6  1  0  0  0  0
  2  1  2  0  0  0  0
  3 19  1  0  0  0  0
  3  4  2  0  0  0  0
  5  2  1  0  0  0  0
  5  3  1  0  0  0  0
  6  4  1  0  0  0  0
  6  7  1  1  0  0  0
  7  8  1  0  0  0  0
  8  9  1  0  0  0  0
  9 13  1  0  0  0  0
  9 10  2  0  0  0  0
 11 12  2  0  0  0  0
 13 14  2  0  0  0  0
 14 12  1  0  0  0  0
 15 11  1  0  0  0  0
 15 13  1  0  0  0  0
 17 11  1  0  0  0  0
 17 16  1  0  0  0  0
 18 17  2  0  0  0  0
 20 23  2  0  0  0  0
 21 23  1  0  0  0  0
 21 27  2  0  0  0  0
 22 25  1  0  0  0  0
 22 29  1  1  0  0  0
 23 22  1  0  0  0  0
 24 28  1  1  0  0  0
 25 26  1  0  0  0  0
 26 19  1  1  0  0  0
 26 24  1  0  0  0  0
 27 25  1  0  0  0  0
 29 24  1  0  0  0  0
 30 21  1  0  0  0  0
 31 30  1  0  0  0  0
M  END
>  <MODEL>
1

>  <REMARK>
 VINA RESULT:      -7.8      0.000      0.000
  Name = 
  7 active torsions:
  status: ('A' for Active; 'I' for Inactive)
    1  A    between atoms: C_1  and  C_13
    2  A    between atoms: C_7  and  C_22
    3  A    between atoms: C_8  and  C_10
    4  A    between atoms: N_14  and  C_24
    5  A    between atoms: C_20  and  O_29
    6  A    between atoms: C_23  and  O_29
    7  A    between atoms: C_24  and  C_31
                            x       y       z     vdW  Elec       q    Type
                         _______ _______ _______ _____ _____    ______ ____

>  <TORSDO>
F 7

$$$$
=
 OpenBabel11072412413D

 31 34  0  0  1  0  0  0  0  0999 V2000
  161.2030  208.7900  154.0290 C   0  0  0  0  0  3  0  0  0  0  0  0
  161.0980  207.5280  154.4690 C   0  0  0  0  0  3  0  0  0  0  0  0
  160.9740  206.7360  152.1210 C   0  0  0  0  0  0  0  0  0  0  0  0
  161.0730  207.9740  151.7310 N   0  0  0  0  0  0  0  0  0  0  0  0
  161.3740  206.3740  153.5340 C   0  0  0  0  0  2  0  0  0  0  0  0
  161.6010  209.0380  152.5980 C   0  0  1  0  0  3  0  0  0  0  0  0
  161.1300  210.4170  152.1390 C   0  0  0  0  0  2  0  0  0  0  0  0
  159.9330  210.8250  152.8630 N   0  0  0  0  0  2  0  0  0  0  0  0
  159.4080  212.1500  152.7350 C   0  0  0  0  0  0  0  0  0  0  0  0
  159.7470  212.8780  151.7620 O   0  0  0  0  0  0  0  0  0  0  0  0
  156.6990  213.0180  155.3870 C   0  0  0  0  0  0  0  0  0  0  0  0
  157.4290  214.1550  155.0540 C   0  0  0  0  0  3  0  0  0  0  0  0
  158.4480  212.6460  153.7230 C   0  0  0  0  0  0  0  0  0  0  0  0
  158.3960  213.9360  154.1190 N   0  0  0  0  0  0  0  0  0  0  0  0
  157.2770  211.7130  154.4910 S   0  0  0  0  0  0  0  0  0  0  0  0
  155.2690  211.8610  156.8750 O   0  0  0  0  0  1  0  0  0  0  0  0
  155.6070  212.9610  156.3640 C   0  0  0  0  0  0  0  0  0  0  0  0
  154.9240  214.1180  156.7190 O   0  0  0  0  0  0  0  0  0  0  0  0
  160.5110  205.7810  151.2010 O   0  0  0  0  0  0  0  0  0  0  0  0
  161.3980  201.6300  147.2040 O   0  0  0  0  0  0  0  0  0  0  0  0
  161.5880  204.0380  147.1540 C   0  0  0  0  0  0  0  0  0  0  0  0
  160.6210  203.0000  149.0720 C   0  0  2  0  0  3  0  0  0  0  0  0
  161.2380  202.7580  147.7440 C   0  0  0  0  0  0  0  0  0  0  0  0
  161.5000  203.4800  151.2850 C   0  0  1  0  0  3  0  0  0  0  0  0
  160.7610  204.4380  149.2240 N   0  0  0  0  0  0  0  0  0  0  0  0
  161.2990  204.7950  150.5210 C   0  0  1  0  0  3  0  0  0  0  0  0
  161.3180  204.9910  148.0290 C   0  0  0  0  0  3  0  0  0  0  0  0
  160.4300  203.2160  152.3330 C   0  0  0  0  0  1  0  0  0  0  0  0
  161.4220  202.3930  150.2150 C   0  0  0  0  0  2  0  0  0  0  0  0
  162.1590  204.2640  145.7990 C   0  0  0  0  0  2  0  0  0  0  0  0
  161.1000  204.2170  144.8080 N   0  0  0  0  0  1  0  0  0  0  0  0
  1  2  2  0  0  0  0
  3  5  1  0  0  0  0
  4  3  2  0  0  0  0
  4  6  1  0  0  0  0
  5  2  1  0  0  0  0
  6  7  1  6  0  0  0
  6  1  1  0  0  0  0
  7  8  1  0  0  0  0
  9  8  1  0  0  0  0
  9 13  1  0  0  0  0
 10  9  2  0  0  0  0
 11 17  1  0  0  0  0
 12 11  2  0  0  0  0
 13 14  2  0  0  0  0
 13 15  1  0  0  0  0
 14 12  1  0  0  0  0
 15 11  1  0  0  0  0
 17 18  2  0  0  0  0
 17 16  1  0  0  0  0
 19  3  1  0  0  0  0
 20 23  2  0  0  0  0
 21 23  1  0  0  0  0
 21 27  2  0  0  0  0
 22 25  1  0  0  0  0
 22 29  1  1  0  0  0
 23 22  1  0  0  0  0
 24 28  1  1  0  0  0
 25 26  1  0  0  0  0
 26 19  1  1  0  0  0
 26 24  1  0  0  0  0
 27 25  1  0  0  0  0
 29 24  1  0  0  0  0
 30 21  1  0  0  0  0
 31 30  1  0  0  0  0
M  END
>  <MODEL>
2

>  <REMARK>
 VINA RESULT:      -7.6      1.733      2.141
  Name = 
  7 active torsions:
  status: ('A' for Active; 'I' for Inactive)
    1  A    between atoms: C_1  and  C_13
    2  A    between atoms: C_7  and  C_22
    3  A    between atoms: C_8  and  C_10
    4  A    between atoms: N_14  and  C_24
    5  A    between atoms: C_20  and  O_29
    6  A    between atoms: C_23  and  O_29
    7  A    between atoms: C_24  and  C_31
                            x       y       z     vdW  Elec       q    Type
                         _______ _______ _______ _____ _____    ______ ____

>  <TORSDO>
F 7

$$$$
=
 OpenBabel11072412413D

 31 34  0  0  1  0  0  0  0  0999 V2000
  160.4440  207.5420  154.6680 C   0  0  0  0  0  3  0  0  0  0  0  0
  160.7090  206.3030  154.2290 C   0  0  0  0  0  3  0  0  0  0  0  0
  161.7360  207.2630  152.1850 C   0  0  0  0  0  0  0  0  0  0  0  0
  161.4590  208.4500  152.6420 N   0  0  0  0  0  0  0  0  0  0  0  0
  161.7300  206.0870  153.1360 C   0  0  0  0  0  2  0  0  0  0  0  0
  161.1800  208.7080  154.0620 C   0  0  1  0  0  3  0  0  0  0  0  0
  160.3870  210.0000  154.2490 C   0  0  0  0  0  2  0  0  0  0  0  0
  160.7590  210.9900  153.2470 N   0  0  0  0  0  2  0  0  0  0  0  0
  159.7670  211.6510  152.4560 C   0  0  0  0  0  0  0  0  0  0  0  0
  158.5600  211.6570  152.8260 O   0  0  0  0  0  0  0  0  0  0  0  0
  161.1010  213.1290  149.1160 C   0  0  0  0  0  0  0  0  0  0  0  0
  160.1820  213.9990  149.6960 C   0  0  0  0  0  3  0  0  0  0  0  0
  160.1630  212.3490  151.2330 C   0  0  0  0  0  0  0  0  0  0  0  0
  159.6720  213.5570  150.8790 N   0  0  0  0  0  0  0  0  0  0  0  0
  161.2780  211.7790  150.1080 S   0  0  0  0  0  0  0  0  0  0  0  0
  162.8340  214.0600  147.8030 O   0  0  0  0  0  1  0  0  0  0  0  0
  161.7970  213.3470  147.8440 C   0  0  0  0  0  0  0  0  0  0  0  0
  161.3070  212.7850  146.6720 O   0  0  0  0  0  0  0  0  0  0  0  0
  162.0460  207.1270  150.8210 O   0  0  0  0  0  0  0  0  0  0  0  0
  161.0740  203.2230  146.6020 O   0  0  0  0  0  0  0  0  0  0  0  0
  160.8720  203.1390  149.0070 C   0  0  0  0  0  0  0  0  0  0  0  0
  161.8930  205.0470  148.0050 C   0  0  2  0  0  3  0  0  0  0  0  0
  161.2430  203.7400  147.7390 C   0  0  0  0  0  0  0  0  0  0  0  0
  161.0700  207.2750  148.5170 C   0  0  1  0  0  3  0  0  0  0  0  0
  161.7510  205.1800  149.4440 N   0  0  0  0  0  0  0  0  0  0  0  0
  161.2450  206.4840  149.8210 C   0  0  1  0  0  3  0  0  0  0  0  0
  161.1600  203.9910  149.9760 C   0  0  0  0  0  3  0  0  0  0  0  0
  162.1680  208.2990  148.2750 C   0  0  0  0  0  1  0  0  0  0  0  0
  161.1250  206.2210  147.4140 C   0  0  0  0  0  2  0  0  0  0  0  0
  160.2650  201.7960  149.2090 C   0  0  0  0  0  2  0  0  0  0  0  0
  161.2810  200.7710  149.0550 N   0  0  0  0  0  1  0  0  0  0  0  0
  2  1  2  0  0  0  0
  3  4  2  0  0  0  0
  3  5  1  0  0  0  0
  4  6  1  0  0  0  0
  5  2  1  0  0  0  0
  6  7  1  6  0  0  0
  6  1  1  0  0  0  0
  8  7  1  0  0  0  0
  9 10  2  0  0  0  0
  9  8  1  0  0  0  0
 11 12  2  0  0  0  0
 11 15  1  0  0  0  0
 12 14  1  0  0  0  0
 13  9  1  0  0  0  0
 14 13  2  0  0  0  0
 15 13  1  0  0  0  0
 16 17  1  0  0  0  0
 17 11  1  0  0  0  0
 18 17  2  0  0  0  0
 19  3  1  0  0  0  0
 20 23  2  0  0  0  0
 21 30  1  0  0  0  0
 21 27  2  0  0  0  0
 22 29  1  6  0  0  0
 22 25  1  0  0  0  0
 23 22  1  0  0  0  0
 23 21  1  0  0  0  0
 24 28  1  6  0  0  0
 24 26  1  0  0  0  0
 25 26  1  0  0  0  0
 25 27  1  0  0  0  0
 26 19  1  1  0  0  0
 29 24  1  0  0  0  0
 31 30  1  0  0  0  0
M  END
>  <MODEL>
3

>  <REMARK>
 VINA RESULT:      -7.6      3.401      4.976
  Name = 
  7 active torsions:
  status: ('A' for Active; 'I' for Inactive)
    1  A    between atoms: C_1  and  C_13
    2  A    between atoms: C_7  and  C_22
    3  A    between atoms: C_8  and  C_10
    4  A    between atoms: N_14  and  C_24
    5  A    between atoms: C_20  and  O_29
    6  A    between atoms: C_23  and  O_29
    7  A    between atoms: C_24  and  C_31
                            x       y       z     vdW  Elec       q    Type
                         _______ _______ _______ _____ _____    ______ ____

>  <TORSDO>
F 7

$$$$
=
 OpenBabel11072412413D

 31 34  0  0  1  0  0  0  0  0999 V2000
  161.2320  206.0730  152.2390 C   0  0  0  0  0  3  0  0  0  0  0  0
  161.2140  205.8470  153.5600 C   0  0  0  0  0  3  0  0  0  0  0  0
  161.2050  208.2950  153.9630 C   0  0  0  0  0  0  0  0  0  0  0  0
  161.2260  208.4750  152.6740 N   0  0  0  0  0  0  0  0  0  0  0  0
  160.8010  206.9450  154.5120 C   0  0  0  0  0  2  0  0  0  0  0  0
  160.8300  207.4290  151.7210 C   0  0  1  0  0  3  0  0  0  0  0  0
  161.4310  207.6760  150.3380 C   0  0  0  0  0  2  0  0  0  0  0  0
  161.5470  206.4310  149.5910 N   0  0  0  0  0  2  0  0  0  0  0  0
  161.9490  206.4270  148.2180 C   0  0  0  0  0  0  0  0  0  0  0  0
  162.5310  207.4320  147.7230 O   0  0  0  0  0  0  0  0  0  0  0  0
  161.1980  203.0490  146.4450 C   0  0  0  0  0  0  0  0  0  0  0  0
  161.5780  204.0080  145.5120 C   0  0  0  0  0  3  0  0  0  0  0  0
  161.7100  205.2390  147.3970 C   0  0  0  0  0  0  0  0  0  0  0  0
  161.8680  205.2230  146.0560 N   0  0  0  0  0  0  0  0  0  0  0  0
  161.2280  203.7370  147.9830 S   0  0  0  0  0  0  0  0  0  0  0  0
  161.2060  200.7250  146.8860 O   0  0  0  0  0  1  0  0  0  0  0  0
  160.8240  201.6640  146.1400 C   0  0  0  0  0  0  0  0  0  0  0  0
  160.0610  201.3760  145.0150 O   0  0  0  0  0  0  0  0  0  0  0  0
  161.5470  209.3750  154.7950 O   0  0  0  0  0  0  0  0  0  0  0  0
  158.3770  213.9610  156.5010 O   0  0  0  0  0  0  0  0  0  0  0  0
  157.9070  212.0660  155.0790 C   0  0  0  0  0  0  0  0  0  0  0  0
  160.1450  212.4180  155.8240 C   0  0  2  0  0  3  0  0  0  0  0  0
  158.7540  212.9290  155.8830 C   0  0  0  0  0  0  0  0  0  0  0  0
  161.3430  210.6320  156.9540 C   0  0  1  0  0  3  0  0  0  0  0  0
  159.9950  211.1900  155.0610 N   0  0  0  0  0  0  0  0  0  0  0  0
  160.6740  210.0750  155.6900 C   0  0  1  0  0  3  0  0  0  0  0  0
  158.6390  211.0640  154.6260 C   0  0  0  0  0  3  0  0  0  0  0  0
  162.8420  210.8410  156.8050 C   0  0  0  0  0  1  0  0  0  0  0  0
  160.6760  211.9860  157.1840 C   0  0  0  0  0  2  0  0  0  0  0  0
  156.4580  212.2560  154.7990 C   0  0  0  0  0  2  0  0  0  0  0  0
  155.7730  210.9780  154.8790 N   0  0  0  0  0  1  0  0  0  0  0  0
  1  2  2  0  0  0  0
  2  5  1  0  0  0  0
  3  5  1  0  0  0  0
  3 19  1  0  0  0  0
  4  3  2  0  0  0  0
  6  7  1  6  0  0  0
  6  1  1  0  0  0  0
  6  4  1  0  0  0  0
  8  7  1  0  0  0  0
  9  8  1  0  0  0  0
 10  9  2  0  0  0  0
 11 15  1  0  0  0  0
 12 14  1  0  0  0  0
 12 11  2  0  0  0  0
 13 15  1  0  0  0  0
 13  9  1  0  0  0  0
 14 13  2  0  0  0  0
 17 11  1  0  0  0  0
 17 16  1  0  0  0  0
 18 17  2  0  0  0  0
 21 23  1  0  0  0  0
 22 23  1  0  0  0  0
 22 29  1  1  0  0  0
 23 20  2  0  0  0  0
 24 28  1  6  0  0  0
 24 29  1  0  0  0  0
 25 26  1  0  0  0  0
 25 22  1  0  0  0  0
 26 19  1  6  0  0  0
 26 24  1  0  0  0  0
 27 25  1  0  0  0  0
 27 21  2  0  0  0  0
 30 31  1  0  0  0  0
 30 21  1  0  0  0  0
M  END
>  <MODEL>
4

>  <REMARK>
 VINA RESULT:      -7.6      2.919     10.562
  Name = 
  7 active torsions:
  status: ('A' for Active; 'I' for Inactive)
    1  A    between atoms: C_1  and  C_13
    2  A    between atoms: C_7  and  C_22
    3  A    between atoms: C_8  and  C_10
    4  A    between atoms: N_14  and  C_24
    5  A    between atoms: C_20  and  O_29
    6  A    between atoms: C_23  and  O_29
    7  A    between atoms: C_24  and  C_31
                            x       y       z     vdW  Elec       q    Type
                         _______ _______ _______ _____ _____    ______ ____

>  <TORSDO>
F 7

$$$$
=
 OpenBabel11072412413D

 31 34  0  0  1  0  0  0  0  0999 V2000
  161.2140  208.6960  151.2410 C   0  0  0  0  0  3  0  0  0  0  0  0
  161.0220  207.3690  151.2390 C   0  0  0  0  0  3  0  0  0  0  0  0
  162.0010  207.2460  148.9630 C   0  0  0  0  0  0  0  0  0  0  0  0
  162.1690  208.5370  149.0000 N   0  0  0  0  0  0  0  0  0  0  0  0
  161.7660  206.4970  150.2550 C   0  0  0  0  0  2  0  0  0  0  0  0
  162.1820  209.2990  150.2570 C   0  0  1  0  0  3  0  0  0  0  0  0
  161.8580  210.7730  150.0190 C   0  0  0  0  0  2  0  0  0  0  0  0
  161.9290  211.1000  148.6010 N   0  0  0  0  0  2  0  0  0  0  0  0
  161.5590  212.3960  148.1220 C   0  0  0  0  0  0  0  0  0  0  0  0
  161.4930  213.3730  148.9170 O   0  0  0  0  0  0  0  0  0  0  0  0
  161.2770  213.1070  144.3090 C   0  0  0  0  0  0  0  0  0  0  0  0
  160.1210  212.4840  144.7700 C   0  0  0  0  0  3  0  0  0  0  0  0
  161.2880  212.5910  146.6960 C   0  0  0  0  0  0  0  0  0  0  0  0
  160.1370  212.2080  146.1040 N   0  0  0  0  0  0  0  0  0  0  0  0
  162.3380  213.3180  145.6000 S   0  0  0  0  0  0  0  0  0  0  0  0
  162.3870  214.4010  142.6690 O   0  0  0  0  0  1  0  0  0  0  0  0
  161.5340  213.5110  142.9220 C   0  0  0  0  0  0  0  0  0  0  0  0
  160.8240  212.9270  141.8800 O   0  0  0  0  0  0  0  0  0  0  0  0
  162.0630  206.6000  147.7170 O   0  0  0  0  0  0  0  0  0  0  0  0
  160.9090  201.0130  146.5180 O   0  0  0  0  0  0  0  0  0  0  0  0
  160.7450  202.3380  148.5310 C   0  0  0  0  0  0  0  0  0  0  0  0
  161.8030  203.2840  146.6150 C   0  0  2  0  0  3  0  0  0  0  0  0
  161.1120  202.0850  147.1500 C   0  0  0  0  0  0  0  0  0  0  0  0
  161.0530  205.4250  145.7460 C   0  0  1  0  0  3  0  0  0  0  0  0
  161.6890  204.2260  147.7140 N   0  0  0  0  0  0  0  0  0  0  0  0
  161.2270  205.5260  147.2680 C   0  0  1  0  0  3  0  0  0  0  0  0
  161.0730  203.5810  148.8320 C   0  0  0  0  0  3  0  0  0  0  0  0
  162.1760  206.0850  144.9620 C   0  0  0  0  0  1  0  0  0  0  0  0
  161.0600  203.9270  145.4520 C   0  0  0  0  0  2  0  0  0  0  0  0
  160.1020  201.3770  149.4690 C   0  0  0  0  0  2  0  0  0  0  0  0
  160.8390  201.3470  150.7190 N   0  0  0  0  0  1  0  0  0  0  0  0
  2  1  2  0  0  0  0
  3  4  2  0  0  0  0
  3  5  1  0  0  0  0
  4  6  1  0  0  0  0
  5  2  1  0  0  0  0
  6  7  1  6  0  0  0
  6  1  1  0  0  0  0
  8  7  1  0  0  0  0
  9  8  1  0  0  0  0
  9 10  2  0  0  0  0
 11 12  2  0  0  0  0
 11 15  1  0  0  0  0
 12 14  1  0  0  0  0
 13  9  1  0  0  0  0
 14 13  2  0  0  0  0
 15 13  1  0  0  0  0
 16 17  1  0  0  0  0
 17 11  1  0  0  0  0
 18 17  2  0  0  0  0
 19  3  1  0  0  0  0
 20 23  2  0  0  0  0
 21 27  2  0  0  0  0
 21 30  1  0  0  0  0
 22 29  1  6  0  0  0
 22 23  1  0  0  0  0
 22 25  1  0  0  0  0
 23 21  1  0  0  0  0
 24 28  1  6  0  0  0
 24 26  1  0  0  0  0
 25 27  1  0  0  0  0
 26 25  1  0  0  0  0
 26 19  1  6  0  0  0
 29 24  1  0  0  0  0
 30 31  1  0  0  0  0
M  END
>  <MODEL>
5

>  <REMARK>
 VINA RESULT:      -7.5      5.016      7.097
  Name = 
  7 active torsions:
  status: ('A' for Active; 'I' for Inactive)
    1  A    between atoms: C_1  and  C_13
    2  A    between atoms: C_7  and  C_22
    3  A    between atoms: C_8  and  C_10
    4  A    between atoms: N_14  and  C_24
    5  A    between atoms: C_20  and  O_29
    6  A    between atoms: C_23  and  O_29
    7  A    between atoms: C_24  and  C_31
                            x       y       z     vdW  Elec       q    Type
                         _______ _______ _______ _____ _____    ______ ____

>  <TORSDO>
F 7

$$$$
=
 OpenBabel11072412413D

 31 34  0  0  1  0  0  0  0  0999 V2000
  161.7630  207.3110  150.3260 C   0  0  0  0  0  3  0  0  0  0  0  0
  161.8580  208.5610  149.8510 C   0  0  0  0  0  3  0  0  0  0  0  0
  161.8110  209.4310  152.1740 C   0  0  0  0  0  0  0  0  0  0  0  0
  161.7150  208.2040  152.5980 N   0  0  0  0  0  0  0  0  0  0  0  0
  162.2880  209.6880  150.7620 C   0  0  0  0  0  2  0  0  0  0  0  0
  162.0920  207.0480  151.7720 C   0  0  1  0  0  3  0  0  0  0  0  0
  161.4100  205.7700  152.2550 C   0  0  0  0  0  2  0  0  0  0  0  0
  160.9110  204.9890  151.1310 N   0  0  0  0  0  2  0  0  0  0  0  0
  161.0960  203.5710  151.0750 C   0  0  0  0  0  0  0  0  0  0  0  0
  161.3790  202.9260  152.1210 O   0  0  0  0  0  0  0  0  0  0  0  0
  160.7950  202.1050  147.4850 C   0  0  0  0  0  0  0  0  0  0  0  0
  160.4160  201.1550  148.4280 C   0  0  0  0  0  3  0  0  0  0  0  0
  160.9240  202.8690  149.8020 C   0  0  0  0  0  0  0  0  0  0  0  0
  160.4850  201.5950  149.7160 N   0  0  0  0  0  0  0  0  0  0  0  0
  161.2230  203.5270  148.2820 S   0  0  0  0  0  0  0  0  0  0  0  0
  160.8270  202.8930  145.2550 O   0  0  0  0  0  0  0  0  0  0  0  0
  160.8240  201.9030  146.0330 C   0  0  0  0  0  0  0  0  0  0  0  0
  160.8270  200.6180  145.5050 O   0  0  0  0  0  1  0  0  0  0  0  0
  161.4810  210.4720  153.0580 O   0  0  0  0  0  0  0  0  0  0  0  0
  157.8670  212.7040  157.0520 O   0  0  0  0  0  0  0  0  0  0  0  0
  157.5450  211.9100  154.7930 C   0  0  0  0  0  0  0  0  0  0  0  0
  159.7670  212.1220  155.6320 C   0  0  2  0  0  3  0  0  0  0  0  0
  158.3290  212.2810  155.9570 C   0  0  0  0  0  0  0  0  0  0  0  0
  161.2840  210.2250  155.5450 C   0  0  1  0  0  3  0  0  0  0  0  0
  159.7240  211.5410  154.3010 N   0  0  0  0  0  0  0  0  0  0  0  0
  160.5960  210.3900  154.1830 C   0  0  1  0  0  3  0  0  0  0  0  0
  158.3670  211.4730  153.8560 C   0  0  0  0  0  3  0  0  0  0  0  0
  162.7230  210.7150  155.5620 C   0  0  0  0  0  1  0  0  0  0  0  0
  160.4600  211.0830  156.5030 C   0  0  0  0  0  2  0  0  0  0  0  0
  156.0650  211.9930  154.6560 C   0  0  0  0  0  2  0  0  0  0  0  0
  155.4760  210.6900  154.9030 N   0  0  0  0  0  1  0  0  0  0  0  0
  1  6  1  0  0  0  0
  2  1  2  0  0  0  0
  2  5  1  0  0  0  0
  3  4  2  0  0  0  0
  3 19  1  0  0  0  0
  5  3  1  0  0  0  0
  6  7  1  1  0  0  0
  6  4  1  0  0  0  0
  8  7  1  0  0  0  0
  9  8  1  0  0  0  0
  9 10  2  0  0  0  0
 11 15  1  0  0  0  0
 11 12  2  0  0  0  0
 12 14  1  0  0  0  0
 13  9  1  0  0  0  0
 14 13  2  0  0  0  0
 15 13  1  0  0  0  0
 16 17  2  0  0  0  0
 17 11  1  0  0  0  0
 18 17  1  0  0  0  0
 21 23  1  0  0  0  0
 22 23  1  0  0  0  0
 22 29  1  1  0  0  0
 23 20  2  0  0  0  0
 24 28  1  6  0  0  0
 24 29  1  0  0  0  0
 25 22  1  0  0  0  0
 26 19  1  6  0  0  0
 26 25  1  0  0  0  0
 26 24  1  0  0  0  0
 27 25  1  0  0  0  0
 27 21  2  0  0  0  0
 30 21  1  0  0  0  0
 30 31  1  0  0  0  0
M  END
>  <MODEL>
6

>  <REMARK>
 VINA RESULT:      -7.4      2.873     10.239
  Name = 
  7 active torsions:
  status: ('A' for Active; 'I' for Inactive)
    1  A    between atoms: C_1  and  C_13
    2  A    between atoms: C_7  and  C_22
    3  A    between atoms: C_8  and  C_10
    4  A    between atoms: N_14  and  C_24
    5  A    between atoms: C_20  and  O_29
    6  A    between atoms: C_23  and  O_29
    7  A    between atoms: C_24  and  C_31
                            x       y       z     vdW  Elec       q    Type
                         _______ _______ _______ _____ _____    ______ ____

>  <TORSDO>
F 7

$$$$
=
 OpenBabel11072412413D

 31 34  0  0  1  0  0  0  0  0999 V2000
  161.0510  209.1680  154.5180 C   0  0  0  0  0  3  0  0  0  0  0  0
  161.2100  207.8750  154.8340 C   0  0  0  0  0  3  0  0  0  0  0  0
  160.8980  207.2700  152.4490 C   0  0  0  0  0  0  0  0  0  0  0  0
  160.7450  208.5350  152.1800 N   0  0  0  0  0  0  0  0  0  0  0  0
  161.5370  206.8670  153.7580 C   0  0  0  0  0  2  0  0  0  0  0  0
  161.2090  209.5980  153.0840 C   0  0  1  0  0  3  0  0  0  0  0  0
  160.4670  210.9090  152.8310 C   0  0  0  0  0  2  0  0  0  0  0  0
  160.8270  211.4710  151.5350 N   0  0  0  0  0  2  0  0  0  0  0  0
  160.1990  212.6580  151.0430 C   0  0  0  0  0  0  0  0  0  0  0  0
  159.5860  213.4270  151.8330 O   0  0  0  0  0  0  0  0  0  0  0  0
  160.8560  213.2740  147.2600 C   0  0  0  0  0  0  0  0  0  0  0  0
  159.7100  213.9500  147.6660 C   0  0  0  0  0  3  0  0  0  0  0  0
  160.2990  212.9940  149.6210 C   0  0  0  0  0  0  0  0  0  0  0  0
  159.4150  213.7920  148.9870 N   0  0  0  0  0  0  0  0  0  0  0  0
  161.5130  212.4630  148.5830 S   0  0  0  0  0  0  0  0  0  0  0  0
  160.7000  212.8530  144.9370 O   0  0  0  0  0  0  0  0  0  0  0  0
  161.4020  213.2610  145.8990 C   0  0  0  0  0  0  0  0  0  0  0  0
  162.7060  213.6810  145.6640 O   0  0  0  0  0  1  0  0  0  0  0  0
  160.4740  206.3300  151.4950 O   0  0  0  0  0  0  0  0  0  0  0  0
  161.5550  202.7960  146.9860 O   0  0  0  0  0  0  0  0  0  0  0  0
  161.5920  205.1970  147.2480 C   0  0  0  0  0  0  0  0  0  0  0  0
  160.7240  203.8600  149.0220 C   0  0  2  0  0  3  0  0  0  0  0  0
  161.3330  203.8320  147.6690 C   0  0  0  0  0  0  0  0  0  0  0  0
  161.6070  204.1050  151.2720 C   0  0  1  0  0  3  0  0  0  0  0  0
  160.7750  205.2720  149.3590 N   0  0  0  0  0  0  0  0  0  0  0  0
  161.3110  205.4930  150.6870 C   0  0  1  0  0  3  0  0  0  0  0  0
  161.2760  206.0090  148.2410 C   0  0  0  0  0  3  0  0  0  0  0  0
  160.5730  203.6400  152.2850 C   0  0  0  0  0  1  0  0  0  0  0  0
  161.5800  203.1630  150.0710 C   0  0  0  0  0  2  0  0  0  0  0  0
  162.1250  205.6330  145.9290 C   0  0  0  0  0  2  0  0  0  0  0  0
  161.0280  205.8340  145.0000 N   0  0  0  0  0  1  0  0  0  0  0  0
  1  2  2  0  0  0  0
  3  5  1  0  0  0  0
  4  3  2  0  0  0  0
  4  6  1  0  0  0  0
  5  2  1  0  0  0  0
  6  7  1  1  0  0  0
  6  1  1  0  0  0  0
  8  7  1  0  0  0  0
  9  8  1  0  0  0  0
  9 10  2  0  0  0  0
 11 12  2  0  0  0  0
 11 15  1  0  0  0  0
 12 14  1  0  0  0  0
 13  9  1  0  0  0  0
 14 13  2  0  0  0  0
 15 13  1  0  0  0  0
 16 17  2  0  0  0  0
 17 11  1  0  0  0  0
 18 17  1  0  0  0  0
 19  3  1  0  0  0  0
 20 23  2  0  0  0  0
 21 23  1  0  0  0  0
 21 27  2  0  0  0  0
 22 25  1  0  0  0  0
 22 29  1  1  0  0  0
 23 22  1  0  0  0  0
 24 28  1  1  0  0  0
 25 26  1  0  0  0  0
 26 24  1  0  0  0  0
 26 19  1  1  0  0  0
 27 25  1  0  0  0  0
 29 24  1  0  0  0  0
 30 21  1  0  0  0  0
 31 30  1  0  0  0  0
M  END
>  <MODEL>
7

>  <REMARK>
 VINA RESULT:      -7.3      3.848      5.197
  Name = 
  7 active torsions:
  status: ('A' for Active; 'I' for Inactive)
    1  A    between atoms: C_1  and  C_13
    2  A    between atoms: C_7  and  C_22
    3  A    between atoms: C_8  and  C_10
    4  A    between atoms: N_14  and  C_24
    5  A    between atoms: C_20  and  O_29
    6  A    between atoms: C_23  and  O_29
    7  A    between atoms: C_24  and  C_31
                            x       y       z     vdW  Elec       q    Type
                         _______ _______ _______ _____ _____    ______ ____

>  <TORSDO>
F 7

$$$$
=
 OpenBabel11072412413D

 31 34  0  0  1  0  0  0  0  0999 V2000
  161.5410  207.0280  152.9580 C   0  0  0  0  0  3  0  0  0  0  0  0
  161.0540  205.9860  153.6480 C   0  0  0  0  0  3  0  0  0  0  0  0
  161.1710  204.5940  151.5980 C   0  0  0  0  0  0  0  0  0  0  0  0
  161.6390  205.6280  150.9600 N   0  0  0  0  0  0  0  0  0  0  0  0
  161.2060  204.5830  153.1100 C   0  0  0  0  0  2  0  0  0  0  0  0
  162.2430  206.7780  151.6490 C   0  0  1  0  0  3  0  0  0  0  0  0
  162.2140  208.0310  150.7760 C   0  0  0  0  0  2  0  0  0  0  0  0
  161.2060  208.9710  151.2480 N   0  0  0  0  0  2  0  0  0  0  0  0
  161.5350  209.9960  152.1910 C   0  0  0  0  0  0  0  0  0  0  0  0
  162.7380  210.3280  152.3750 O   0  0  0  0  0  0  0  0  0  0  0  0
  158.6660  212.1100  153.7470 C   0  0  0  0  0  0  0  0  0  0  0  0
  159.0220  211.0750  154.6050 C   0  0  0  0  0  3  0  0  0  0  0  0
  160.4650  210.6810  152.9180 C   0  0  0  0  0  0  0  0  0  0  0  0
  160.0310  210.2890  154.1350 N   0  0  0  0  0  0  0  0  0  0  0  0
  159.6370  212.0410  152.3720 S   0  0  0  0  0  0  0  0  0  0  0  0
  157.1240  213.7580  153.0380 O   0  0  0  0  0  0  0  0  0  0  0  0
  157.6120  213.0990  153.9940 C   0  0  0  0  0  0  0  0  0  0  0  0
  157.1570  213.3310  155.2860 O   0  0  0  0  0  1  0  0  0  0  0  0
  160.6660  203.5190  150.8480 O   0  0  0  0  0  0  0  0  0  0  0  0
  160.9720  201.9170  145.2510 O   0  0  0  0  0  0  0  0  0  0  0  0
  161.6070  203.9270  146.4300 C   0  0  0  0  0  0  0  0  0  0  0  0
  160.3680  202.2540  147.5930 C   0  0  2  0  0  3  0  0  0  0  0  0
  160.9960  202.6170  146.2990 C   0  0  0  0  0  0  0  0  0  0  0  0
  161.2060  201.3610  149.6920 C   0  0  1  0  0  3  0  0  0  0  0  0
  160.7640  203.3570  148.4520 N   0  0  0  0  0  0  0  0  0  0  0  0
  161.2910  202.8940  149.7200 C   0  0  1  0  0  3  0  0  0  0  0  0
  161.4740  204.3290  147.6810 C   0  0  0  0  0  3  0  0  0  0  0  0
  160.0530  200.8020  150.5110 C   0  0  0  0  0  1  0  0  0  0  0  0
  160.9820  201.0120  148.2220 C   0  0  0  0  0  2  0  0  0  0  0  0
  162.2780  204.7050  145.3540 C   0  0  0  0  0  2  0  0  0  0  0  0
  161.2800  205.3260  144.5030 N   0  0  0  0  0  1  0  0  0  0  0  0
  1  2  2  0  0  0  0
  3  5  1  0  0  0  0
  4  3  2  0  0  0  0
  4  6  1  0  0  0  0
  5  2  1  0  0  0  0
  6  7  1  6  0  0  0
  6  1  1  0  0  0  0
  7  8  1  0  0  0  0
  8  9  1  0  0  0  0
  9 10  2  0  0  0  0
  9 13  1  0  0  0  0
 11 17  1  0  0  0  0
 11 12  2  0  0  0  0
 13 14  2  0  0  0  0
 14 12  1  0  0  0  0
 15 13  1  0  0  0  0
 15 11  1  0  0  0  0
 16 17  2  0  0  0  0
 17 18  1  0  0  0  0
 19  3  1  0  0  0  0
 20 23  2  0  0  0  0
 21 27  2  0  0  0  0
 22 29  1  1  0  0  0
 22 25  1  0  0  0  0
 23 21  1  0  0  0  0
 23 22  1  0  0  0  0
 24 26  1  0  0  0  0
 24 28  1  1  0  0  0
 25 26  1  0  0  0  0
 26 19  1  1  0  0  0
 27 25  1  0  0  0  0
 29 24  1  0  0  0  0
 30 21  1  0  0  0  0
 31 30  1  0  0  0  0
M  END
>  <MODEL>
8

>  <REMARK>
 VINA RESULT:      -7.2      1.810      2.851
  Name = 
  7 active torsions:
  status: ('A' for Active; 'I' for Inactive)
    1  A    between atoms: C_1  and  C_13
    2  A    between atoms: C_7  and  C_22
    3  A    between atoms: C_8  and  C_10
    4  A    between atoms: N_14  and  C_24
    5  A    between atoms: C_20  and  O_29
    6  A    between atoms: C_23  and  O_29
    7  A    between atoms: C_24  and  C_31
                            x       y       z     vdW  Elec       q    Type
                         _______ _______ _______ _____ _____    ______ ____

>  <TORSDO>
F 7

$$$$
=
 OpenBabel11072412413D

 31 34  0  0  1  0  0  0  0  0999 V2000
  161.9890  209.2310  150.7380 C   0  0  0  0  0  3  0  0  0  0  0  0
  162.2680  209.6810  149.5060 C   0  0  0  0  0  3  0  0  0  0  0  0
  161.8820  207.4040  148.6030 C   0  0  0  0  0  0  0  0  0  0  0  0
  161.6210  207.0020  149.8130 N   0  0  0  0  0  0  0  0  0  0  0  0
  161.8480  208.8840  148.2940 C   0  0  0  0  0  2  0  0  0  0  0  0
  161.2500  207.9280  150.8930 C   0  0  1  0  0  3  0  0  0  0  0  0
  161.5190  207.3180  152.2680 C   0  0  0  0  0  2  0  0  0  0  0  0
  161.4880  208.3410  153.3060 N   0  0  0  0  0  2  0  0  0  0  0  0
  160.7360  208.1520  154.5080 C   0  0  0  0  0  0  0  0  0  0  0  0
  160.3690  206.9950  154.8530 O   0  0  0  0  0  0  0  0  0  0  0  0
  159.7550  211.4310  156.3530 C   0  0  0  0  0  0  0  0  0  0  0  0
  160.2380  210.4940  157.2610 C   0  0  0  0  0  3  0  0  0  0  0  0
  160.4210  209.3050  155.3530 C   0  0  0  0  0  0  0  0  0  0  0  0
  160.6130  209.3150  156.6900 N   0  0  0  0  0  0  0  0  0  0  0  0
  159.8020  210.7700  154.8040 S   0  0  0  0  0  0  0  0  0  0  0  0
  160.0680  213.7550  156.6700 O   0  0  0  0  0  0  0  0  0  0  0  0
  159.2760  212.7760  156.6890 C   0  0  0  0  0  0  0  0  0  0  0  0
  157.9500  212.9770  157.0510 O   0  0  0  0  0  1  0  0  0  0  0  0
  162.1700  206.4360  147.6250 O   0  0  0  0  0  0  0  0  0  0  0  0
  160.8310  200.8730  146.5110 O   0  0  0  0  0  0  0  0  0  0  0  0
  160.6770  202.2430  148.4950 C   0  0  0  0  0  0  0  0  0  0  0  0
  161.8080  203.1100  146.5820 C   0  0  2  0  0  3  0  0  0  0  0  0
  161.0610  201.9490  147.1260 C   0  0  0  0  0  0  0  0  0  0  0  0
  161.1550  205.2600  145.6580 C   0  0  1  0  0  3  0  0  0  0  0  0
  161.7070  204.0780  147.6610 N   0  0  0  0  0  0  0  0  0  0  0  0
  161.3040  205.3850  147.1810 C   0  0  1  0  0  3  0  0  0  0  0  0
  161.0470  203.4790  148.7780 C   0  0  0  0  0  3  0  0  0  0  0  0
  162.3180  205.8620  144.8830 C   0  0  0  0  0  1  0  0  0  0  0  0
  161.1120  203.7570  145.3930 C   0  0  0  0  0  2  0  0  0  0  0  0
  159.9810  201.3250  149.4380 C   0  0  0  0  0  2  0  0  0  0  0  0
  160.8810  200.9580  150.5160 N   0  0  0  0  0  1  0  0  0  0  0  0
  1  6  1  0  0  0  0
  2  1  2  0  0  0  0
  3  4  2  0  0  0  0
  4  6  1  0  0  0  0
  5  3  1  0  0  0  0
  5  2  1  0  0  0  0
  6  7  1  1  0  0  0
  7  8  1  0  0  0  0
  8  9  1  0  0  0  0
  9 10  2  0  0  0  0
  9 13  1  0  0  0  0
 11 17  1  0  0  0  0
 11 12  2  0  0  0  0
 13 14  2  0  0  0  0
 14 12  1  0  0  0  0
 15 13  1  0  0  0  0
 15 11  1  0  0  0  0
 16 17  2  0  0  0  0
 17 18  1  0  0  0  0
 19  3  1  0  0  0  0
 20 23  2  0  0  0  0
 21 27  2  0  0  0  0
 21 30  1  0  0  0  0
 22 29  1  6  0  0  0
 22 23  1  0  0  0  0
 22 25  1  0  0  0  0
 23 21  1  0  0  0  0
 24 28  1  6  0  0  0
 24 26  1  0  0  0  0
 25 27  1  0  0  0  0
 26 19  1  6  0  0  0
 26 25  1  0  0  0  0
 29 24  1  0  0  0  0
 30 31  1  0  0  0  0
M  END
>  <MODEL>
9

>  <REMARK>
 VINA RESULT:      -7.2      2.405      3.664
  Name = 
  7 active torsions:
  status: ('A' for Active; 'I' for Inactive)
    1  A    between atoms: C_1  and  C_13
    2  A    between atoms: C_7  and  C_22
    3  A    between atoms: C_8  and  C_10
    4  A    between atoms: N_14  and  C_24
    5  A    between atoms: C_20  and  O_29
    6  A    between atoms: C_23  and  O_29
    7  A    between atoms: C_24  and  C_31
                            x       y       z     vdW  Elec       q    Type
                         _______ _______ _______ _____ _____    ______ ____

>  <TORSDO>
F 7

$$$$
