=
 OpenBabel11072415043D

 39 42  0  0  1  0  0  0  0  0999 V2000
  160.6850  209.4830  155.0010 C   0  0  0  0  0  0  0  0  0  0  0  0
  159.9620  210.3300  154.2700 C   0  0  0  0  0  3  0  0  0  0  0  0
  162.1140  209.2180  156.8820 O   0  0  0  0  0  0  0  0  0  0  0  0
  160.4840  212.1770  155.9170 C   0  0  0  0  0  3  0  0  0  0  0  0
  161.1710  211.3330  156.6280 N   0  0  0  0  0  0  0  0  0  0  0  0
  159.9110  211.8070  154.5680 C   0  0  2  0  0  3  0  0  0  0  0  0
  161.3750  209.9800  156.2050 C   0  0  0  0  0  0  0  0  0  0  0  0
  160.7000  208.0350  154.6450 C   0  0  0  0  0  2  0  0  0  0  0  0
  161.6290  207.7980  153.4670 C   0  0  0  0  0  2  0  0  0  0  0  0
  160.8370  207.3680  152.2440 C   0  0  0  0  0  2  0  0  0  0  0  0
  161.9500  209.4830  151.4590 C   0  0  0  0  0  1  0  0  0  0  0  0
  161.1700  208.2490  151.0370 C   0  0  1  0  0  3  0  0  0  0  0  0
  161.9080  207.5230  149.8970 C   0  0  1  0  0  0  0  0  0  0  0  0
  161.7040  208.0170  148.4680 C   0  0  0  0  0  2  0  0  0  0  0  0
  163.2230  207.1270  150.1540 O   0  0  0  0  0  1  0  0  0  0  0  0
  161.1520  206.6630  148.8960 C   0  0  2  0  0  0  0  0  0  0  0  0
  159.7630  206.6310  149.0400 O   0  0  0  0  0  1  0  0  0  0  0  0
  161.8750  205.3520  146.8090 C   0  0  2  0  0  3  0  0  0  0  0  0
  161.8570  205.4300  148.3250 C   0  0  2  0  0  3  0  0  0  0  0  0
  161.7030  203.2480  147.9250 C   0  0  2  0  0  3  0  0  0  0  0  0
  161.2860  204.2510  148.8180 O   0  0  0  0  0  0  0  0  0  0  0  0
  160.6670  205.7940  146.2650 O   0  0  0  0  0  1  0  0  0  0  0  0
  161.9950  203.8770  146.5740 C   0  0  0  0  0  2  0  0  0  0  0  0
  160.8740  201.3720  146.5410 C   0  0  0  0  0  2  0  0  0  0  0  0
  160.6150  202.2000  147.7820 C   0  0  0  0  0  3  0  0  0  0  0  0
  161.2250  200.8180  147.9040 C   0  0  0  0  0  2  0  0  0  0  0  0
  158.5090  212.3790  154.3240 C   0  0  1  0  0  3  0  0  0  0  0  0
  158.4480  213.3960  153.1810 C   0  0  0  0  0  2  0  0  0  0  0  0
  159.5880  213.2480  152.2870 N   0  0  0  0  0  2  0  0  0  0  0  0
  159.1080  213.4420  150.9280 C   0  0  0  0  0  2  0  0  0  0  0  0
  160.2010  214.0510  150.0570 C   0  0  0  0  0  2  0  0  0  0  0  0
  160.1060  213.5560  148.6900 N   0  0  0  0  0  0  0  0  0  0  0  0
  160.9000  212.1550  146.8550 O   0  0  0  0  0  0  0  0  0  0  0  0
  161.9280  212.1030  148.9000 O   0  0  0  0  0  1  0  0  0  0  0  0
  159.1680  214.0850  147.8740 F   0  0  0  0  0  0  0  0  0  0  0  0
  161.0170  212.5800  148.1730 C   0  0  0  0  0  0  0  0  0  0  0  0
  157.5750  211.3540  154.1370 O   0  0  0  0  0  0  0  0  0  0  0  0
  155.6480  210.5270  155.2540 C   0  0  0  0  0  1  0  0  0  0  0  0
  156.4580  211.7480  154.8740 C   0  0  0  0  0  2  0  0  0  0  0  0
  1  7  1  0  0  0  0
  2  6  1  0  0  0  0
  2  1  2  0  0  0  0
  4  5  2  0  0  0  0
  6 27  1  1  0  0  0
  6  4  1  0  0  0  0
  7  5  1  0  0  0  0
  7  3  2  0  0  0  0
  8  1  1  0  0  0  0
  9  8  1  0  0  0  0
 10  9  1  0  0  0  0
 12 11  1  1  0  0  0
 12 10  1  0  0  0  0
 13 15  1  1  0  0  0
 13 12  1  0  0  0  0
 14 16  1  0  0  0  0
 14 13  1  0  0  0  0
 16 17  1  1  0  0  0
 16 13  1  0  0  0  0
 18 22  1  6  0  0  0
 18 19  1  0  0  0  0
 19 21  1  1  0  0  0
 19 16  1  0  0  0  0
 20 25  1  6  0  0  0
 20 21  1  0  0  0  0
 23 18  1  0  0  0  0
 23 20  1  0  0  0  0
 24 25  1  0  0  0  0
 24 26  1  0  0  0  0
 25 26  1  0  0  0  0
 27 28  1  6  0  0  0
 29 28  1  0  0  0  0
 30 29  1  0  0  0  0
 31 30  1  0  0  0  0
 32 31  1  0  0  0  0
 33 36  2  0  0  0  0
 35 32  1  0  0  0  0
 36 32  1  0  0  0  0
 36 34  1  0  0  0  0
 37 27  1  0  0  0  0
 37 39  1  0  0  0  0
 39 38  1  0  0  0  0
M  END
>  <MODEL>
1

>  <REMARK>
 VINA RESULT:      -6.4      0.000      0.000
  Name = 
  15 active torsions:
  status: ('A' for Active; 'I' for Inactive)
    1  A    between atoms: C_3  and  C_13
    2  A    between atoms: C_5  and  C_7
    3  A    between atoms: C_5  and  C_13
    4  A    between atoms: C_7  and  C_38
    5  A    between atoms: C_8  and  C_38
    6  A    between atoms: C_9  and  C_32
    7  A    between atoms: C_14  and  C_22
    8  A    between atoms: C_14  and  O_25
    9  A    between atoms: C_14  and  C_36
   10  A    between atoms: C_15  and  N_16
   11  A    between atoms: C_15  and  C_18
   12  A    between atoms: C_17  and  C_26
   13  A    between atoms: C_18  and  N_27
   14  A    between atoms: C_19  and  O_25
   15  A    between atoms: C_22  and  N_27
                            x       y       z     vdW  Elec       q    Type
                         _______ _______ _______ _____ _____    ______ ____

>  <TORSDO>
F 15

$$$$
=
 OpenBabel11072415043D

 39 42  0  0  1  0  0  0  0  0999 V2000
  161.1720  205.1500  151.7270 C   0  0  0  0  0  0  0  0  0  0  0  0
  160.9680  206.1270  150.8460 C   0  0  0  0  0  3  0  0  0  0  0  0
  161.2960  202.8030  152.0840 O   0  0  0  0  0  0  0  0  0  0  0  0
  160.8290  204.4090  148.9940 C   0  0  0  0  0  3  0  0  0  0  0  0
  161.0480  203.4690  149.8660 N   0  0  0  0  0  0  0  0  0  0  0  0
  160.6200  205.8490  149.4050 C   0  0  2  0  0  3  0  0  0  0  0  0
  161.1650  203.7500  151.2650 C   0  0  0  0  0  0  0  0  0  0  0  0
  161.5030  205.4940  153.1400 C   0  0  0  0  0  2  0  0  0  0  0  0
  160.5500  206.5600  153.6530 C   0  0  0  0  0  2  0  0  0  0  0  0
  161.2570  207.9010  153.7530 C   0  0  0  0  0  2  0  0  0  0  0  0
  161.6100  208.1520  156.2310 C   0  0  0  0  0  1  0  0  0  0  0  0
  160.8360  208.6490  155.0210 C   0  0  1  0  0  3  0  0  0  0  0  0
  160.9370  210.1820  154.9250 C   0  0  1  0  0  0  0  0  0  0  0  0
  160.5100  211.0160  156.1300 C   0  0  0  0  0  2  0  0  0  0  0  0
  162.0620  210.6980  154.2770 O   0  0  0  0  0  1  0  0  0  0  0  0
  159.6870  211.0460  154.8470 C   0  0  2  0  0  0  0  0  0  0  0  0
  158.4670  210.3700  154.9340 O   0  0  0  0  0  1  0  0  0  0  0  0
  158.9090  213.4780  154.5710 C   0  0  2  0  0  3  0  0  0  0  0  0
  159.7510  212.3370  154.0290 C   0  0  2  0  0  3  0  0  0  0  0  0
  159.0630  213.3820  152.1900 C   0  0  2  0  0  3  0  0  0  0  0  0
  159.3770  212.1100  152.6990 O   0  0  0  0  0  0  0  0  0  0  0  0
  157.6890  213.0140  155.0690 O   0  0  0  0  0  1  0  0  0  0  0  0
  158.6450  214.2860  153.3370 C   0  0  0  0  0  2  0  0  0  0  0  0
  156.9770  214.4310  151.3690 C   0  0  0  0  0  2  0  0  0  0  0  0
  157.9320  213.2700  151.1830 C   0  0  0  0  0  3  0  0  0  0  0  0
  157.9800  214.4520  150.2360 C   0  0  0  0  0  2  0  0  0  0  0  0
  161.2930  206.8540  148.4620 C   0  0  1  0  0  3  0  0  0  0  0  0
  162.4480  207.6270  149.1070 C   0  0  0  0  0  2  0  0  0  0  0  0
  162.0090  208.9360  149.5700 N   0  0  0  0  0  2  0  0  0  0  0  0
  162.0300  209.8350  148.4260 C   0  0  0  0  0  2  0  0  0  0  0  0
  162.0370  211.2870  148.8890 C   0  0  0  0  0  2  0  0  0  0  0  0
  162.5910  212.1550  147.8580 N   0  0  0  0  0  0  0  0  0  0  0  0
  162.3310  213.7420  146.0210 O   0  0  0  0  0  0  0  0  0  0  0  0
  160.5040  212.9280  147.1360 O   0  0  0  0  0  1  0  0  0  0  0  0
  163.9280  212.1580  147.6660 F   0  0  0  0  0  0  0  0  0  0  0  0
  161.7570  212.9460  147.0050 C   0  0  0  0  0  0  0  0  0  0  0  0
  161.7020  206.2330  147.2770 O   0  0  0  0  0  0  0  0  0  0  0  0
  160.8070  205.5990  145.1690 C   0  0  0  0  0  1  0  0  0  0  0  0
  160.7080  206.5430  146.3480 C   0  0  0  0  0  2  0  0  0  0  0  0
  1  8  1  0  0  0  0
  2  1  2  0  0  0  0
  4  6  1  0  0  0  0
  4  5  2  0  0  0  0
  5  7  1  0  0  0  0
  6 27  1  6  0  0  0
  6  2  1  0  0  0  0
  7  1  1  0  0  0  0
  7  3  2  0  0  0  0
  8  9  1  0  0  0  0
  9 10  1  0  0  0  0
 10 12  1  0  0  0  0
 12 11  1  1  0  0  0
 13 15  1  6  0  0  0
 13 12  1  0  0  0  0
 13 14  1  0  0  0  0
 16 13  1  0  0  0  0
 16 17  1  1  0  0  0
 16 14  1  0  0  0  0
 18 22  1  6  0  0  0
 19 21  1  6  0  0  0
 19 18  1  0  0  0  0
 19 16  1  0  0  0  0
 20 25  1  6  0  0  0
 20 21  1  0  0  0  0
 20 23  1  0  0  0  0
 23 18  1  0  0  0  0
 25 24  1  0  0  0  0
 26 25  1  0  0  0  0
 26 24  1  0  0  0  0
 27 28  1  1  0  0  0
 28 29  1  0  0  0  0
 30 31  1  0  0  0  0
 30 29  1  0  0  0  0
 32 31  1  0  0  0  0
 33 36  2  0  0  0  0
 35 32  1  0  0  0  0
 36 34  1  0  0  0  0
 36 32  1  0  0  0  0
 37 27  1  0  0  0  0
 38 39  1  0  0  0  0
 39 37  1  0  0  0  0
M  END
>  <MODEL>
2

>  <REMARK>
 VINA RESULT:      -6.4      2.670      8.270
  Name = 
  15 active torsions:
  status: ('A' for Active; 'I' for Inactive)
    1  A    between atoms: C_3  and  C_13
    2  A    between atoms: C_5  and  C_7
    3  A    between atoms: C_5  and  C_13
    4  A    between atoms: C_7  and  C_38
    5  A    between atoms: C_8  and  C_38
    6  A    between atoms: C_9  and  C_32
    7  A    between atoms: C_14  and  C_22
    8  A    between atoms: C_14  and  O_25
    9  A    between atoms: C_14  and  C_36
   10  A    between atoms: C_15  and  N_16
   11  A    between atoms: C_15  and  C_18
   12  A    between atoms: C_17  and  C_26
   13  A    between atoms: C_18  and  N_27
   14  A    between atoms: C_19  and  O_25
   15  A    between atoms: C_22  and  N_27
                            x       y       z     vdW  Elec       q    Type
                         _______ _______ _______ _____ _____    ______ ____

>  <TORSDO>
F 15

$$$$
=
 OpenBabel11072415043D

 39 42  0  0  1  0  0  0  0  0999 V2000
  161.7870  209.3340  151.1890 C   0  0  0  0  0  0  0  0  0  0  0  0
  161.3630  208.2460  150.5480 C   0  0  0  0  0  3  0  0  0  0  0  0
  162.0530  210.4140  153.2900 O   0  0  0  0  0  0  0  0  0  0  0  0
  160.8590  207.1500  152.7710 C   0  0  0  0  0  3  0  0  0  0  0  0
  161.2940  208.2130  153.3800 N   0  0  0  0  0  0  0  0  0  0  0  0
  160.7080  207.0950  151.2680 C   0  0  2  0  0  3  0  0  0  0  0  0
  161.7150  209.3770  152.6600 C   0  0  0  0  0  0  0  0  0  0  0  0
  162.4180  210.4420  150.4140 C   0  0  0  0  0  2  0  0  0  0  0  0
  161.9000  210.4390  148.9860 C   0  0  0  0  0  2  0  0  0  0  0  0
  162.3010  211.7200  148.2730 C   0  0  0  0  0  2  0  0  0  0  0  0
  160.7630  213.4870  149.1900 C   0  0  0  0  0  1  0  0  0  0  0  0
  161.0790  212.6000  147.9970 C   0  0  1  0  0  3  0  0  0  0  0  0
  161.1770  213.4510  146.7180 C   0  0  1  0  0  0  0  0  0  0  0  0
  159.9290  214.1850  146.2350 C   0  0  0  0  0  2  0  0  0  0  0  0
  162.3460  214.1960  146.5490 O   0  0  0  0  0  1  0  0  0  0  0  0
  160.4900  213.0170  145.4330 C   0  0  2  0  0  0  0  0  0  0  0  0
  159.7240  211.8510  145.5100 O   0  0  0  0  0  1  0  0  0  0  0  0
  160.2950  214.1690  143.1460 C   0  0  2  0  0  3  0  0  0  0  0  0
  161.1590  213.3660  144.1020 C   0  0  2  0  0  3  0  0  0  0  0  0
  161.7750  212.6120  142.1020 C   0  0  2  0  0  3  0  0  0  0  0  0
  161.5910  212.2130  143.4380 O   0  0  0  0  0  0  0  0  0  0  0  0
  158.9680  213.7380  143.1800 O   0  0  0  0  0  1  0  0  0  0  0  0
  160.8820  213.8070  141.8150 C   0  0  0  0  0  2  0  0  0  0  0  0
  161.5480  211.9340  139.7330 C   0  0  0  0  0  2  0  0  0  0  0  0
  161.4220  211.4680  141.1690 C   0  0  0  0  0  3  0  0  0  0  0  0
  162.6400  211.0890  140.3510 C   0  0  0  0  0  2  0  0  0  0  0  0
  161.1240  205.7480  150.6640 C   0  0  1  0  0  3  0  0  0  0  0  0
  161.5030  205.8260  149.1820 C   0  0  0  0  0  2  0  0  0  0  0  0
  160.3560  206.2040  148.3680 N   0  0  0  0  0  2  0  0  0  0  0  0
  160.7950  206.2390  146.9810 C   0  0  0  0  0  2  0  0  0  0  0  0
  161.9360  205.2530  146.7590 C   0  0  0  0  0  2  0  0  0  0  0  0
  161.5390  204.2080  145.8230 N   0  0  0  0  0  0  0  0  0  0  0  0
  160.7780  201.9410  145.3340 O   0  0  0  0  0  0  0  0  0  0  0  0
  161.0780  202.6380  147.4950 O   0  0  0  0  0  1  0  0  0  0  0  0
  161.6260  204.4600  144.4990 F   0  0  0  0  0  0  0  0  0  0  0  0
  161.1270  202.9110  146.2660 C   0  0  0  0  0  0  0  0  0  0  0  0
  162.1460  205.1560  151.4140 O   0  0  0  0  0  0  0  0  0  0  0  0
  160.5660  203.5450  152.1610 C   0  0  0  0  0  1  0  0  0  0  0  0
  161.8550  203.7920  151.4050 C   0  0  0  0  0  2  0  0  0  0  0  0
  1  7  1  0  0  0  0
  2  1  2  0  0  0  0
  2  6  1  0  0  0  0
  4  5  2  0  0  0  0
  6 27  1  6  0  0  0
  6  4  1  0  0  0  0
  7  3  2  0  0  0  0
  7  5  1  0  0  0  0
  8  1  1  0  0  0  0
  9  8  1  0  0  0  0
 10  9  1  0  0  0  0
 12 10  1  0  0  0  0
 12 11  1  1  0  0  0
 13 15  1  6  0  0  0
 13 12  1  0  0  0  0
 14 13  1  0  0  0  0
 16 17  1  1  0  0  0
 16 14  1  0  0  0  0
 16 13  1  0  0  0  0
 18 22  1  6  0  0  0
 18 19  1  0  0  0  0
 19 21  1  6  0  0  0
 19 16  1  0  0  0  0
 20 25  1  6  0  0  0
 20 21  1  0  0  0  0
 23 20  1  0  0  0  0
 23 18  1  0  0  0  0
 24 26  1  0  0  0  0
 24 25  1  0  0  0  0
 26 25  1  0  0  0  0
 27 28  1  6  0  0  0
 27 37  1  0  0  0  0
 29 28  1  0  0  0  0
 30 29  1  0  0  0  0
 31 30  1  0  0  0  0
 32 36  1  0  0  0  0
 32 31  1  0  0  0  0
 33 36  2  0  0  0  0
 35 32  1  0  0  0  0
 36 34  1  0  0  0  0
 39 37  1  0  0  0  0
 39 38  1  0  0  0  0
M  END
>  <MODEL>
3

>  <REMARK>
 VINA RESULT:      -6.2      4.378      8.342
  Name = 
  15 active torsions:
  status: ('A' for Active; 'I' for Inactive)
    1  A    between atoms: C_3  and  C_13
    2  A    between atoms: C_5  and  C_7
    3  A    between atoms: C_5  and  C_13
    4  A    between atoms: C_7  and  C_38
    5  A    between atoms: C_8  and  C_38
    6  A    between atoms: C_9  and  C_32
    7  A    between atoms: C_14  and  C_22
    8  A    between atoms: C_14  and  O_25
    9  A    between atoms: C_14  and  C_36
   10  A    between atoms: C_15  and  N_16
   11  A    between atoms: C_15  and  C_18
   12  A    between atoms: C_17  and  C_26
   13  A    between atoms: C_18  and  N_27
   14  A    between atoms: C_19  and  O_25
   15  A    between atoms: C_22  and  N_27
                            x       y       z     vdW  Elec       q    Type
                         _______ _______ _______ _____ _____    ______ ____

>  <TORSDO>
F 15

$$$$
=
 OpenBabel11072415043D

 39 42  0  0  1  0  0  0  0  0999 V2000
  159.2950  212.5740  152.5440 C   0  0  0  0  0  0  0  0  0  0  0  0
  160.1090  212.8510  151.5260 C   0  0  0  0  0  3  0  0  0  0  0  0
  157.1800  212.9790  153.5500 O   0  0  0  0  0  0  0  0  0  0  0  0
  158.2860  214.2480  150.4660 C   0  0  0  0  0  3  0  0  0  0  0  0
  157.4990  213.9530  151.4580 N   0  0  0  0  0  0  0  0  0  0  0  0
  159.7430  213.8440  150.4530 C   0  0  2  0  0  3  0  0  0  0  0  0
  157.9490  213.1740  152.5720 C   0  0  0  0  0  0  0  0  0  0  0  0
  159.7230  211.5880  153.5780 C   0  0  0  0  0  2  0  0  0  0  0  0
  160.9260  210.8040  153.0830 C   0  0  0  0  0  2  0  0  0  0  0  0
  160.5030  209.4200  152.6170 C   0  0  0  0  0  2  0  0  0  0  0  0
  161.0040  208.2260  154.7740 C   0  0  0  0  0  1  0  0  0  0  0  0
  161.3410  208.3340  153.2960 C   0  0  1  0  0  3  0  0  0  0  0  0
  161.2530  206.9470  152.6330 C   0  0  1  0  0  0  0  0  0  0  0  0
  162.5500  206.2200  152.2910 C   0  0  0  0  0  2  0  0  0  0  0  0
  160.2550  206.0900  153.1030 O   0  0  0  0  0  1  0  0  0  0  0  0
  161.6520  206.7470  151.1790 C   0  0  2  0  0  0  0  0  0  0  0  0
  162.1570  207.8710  150.5200 O   0  0  0  0  0  1  0  0  0  0  0  0
  160.9940  204.2800  150.8960 C   0  0  2  0  0  3  0  0  0  0  0  0
  160.8970  205.6970  150.3600 C   0  0  2  0  0  3  0  0  0  0  0  0
  160.9030  204.4540  148.5160 C   0  0  2  0  0  3  0  0  0  0  0  0
  161.3280  205.6920  149.0280 O   0  0  0  0  0  0  0  0  0  0  0  0
  162.2740  204.0120  151.3860 O   0  0  0  0  0  1  0  0  0  0  0  0
  160.7730  203.4630  149.6600 C   0  0  0  0  0  2  0  0  0  0  0  0
  161.3930  202.6600  146.8830 C   0  0  0  0  0  2  0  0  0  0  0  0
  161.9100  203.9420  147.5020 C   0  0  0  0  0  3  0  0  0  0  0  0
  161.2890  203.9620  146.1200 C   0  0  0  0  0  2  0  0  0  0  0  0
  160.2350  213.3860  149.0740 C   0  0  1  0  0  3  0  0  0  0  0  0
  159.4330  213.9710  147.9070 C   0  0  0  0  0  2  0  0  0  0  0  0
  158.9020  212.9150  147.0560 N   0  0  0  0  0  2  0  0  0  0  0  0
  159.0780  213.3360  145.6750 C   0  0  0  0  0  2  0  0  0  0  0  0
  159.6530  212.1970  144.8390 C   0  0  0  0  0  2  0  0  0  0  0  0
  160.9540  212.5640  144.2950 N   0  0  0  0  0  0  0  0  0  0  0  0
  162.5740  212.6380  142.4700 O   0  0  0  0  0  1  0  0  0  0  0  0
  160.4960  211.7270  142.1590 O   0  0  0  0  0  0  0  0  0  0  0  0
  161.8650  213.1250  145.1200 F   0  0  0  0  0  0  0  0  0  0  0  0
  161.3130  212.2880  142.9370 C   0  0  0  0  0  0  0  0  0  0  0  0
  161.6020  213.6380  148.9210 O   0  0  0  0  0  0  0  0  0  0  0  0
  162.2140  211.3430  149.0280 C   0  0  0  0  0  1  0  0  0  0  0  0
  162.0790  212.5730  148.1550 C   0  0  0  0  0  2  0  0  0  0  0  0
  1  7  1  0  0  0  0
  1  8  1  0  0  0  0
  2  1  2  0  0  0  0
  4  5  2  0  0  0  0
  5  7  1  0  0  0  0
  6 27  1  6  0  0  0
  6  4  1  0  0  0  0
  6  2  1  0  0  0  0
  7  3  2  0  0  0  0
  9  8  1  0  0  0  0
 10  9  1  0  0  0  0
 10 12  1  0  0  0  0
 12 11  1  1  0  0  0
 13 15  1  1  0  0  0
 13 12  1  0  0  0  0
 14 13  1  0  0  0  0
 16 17  1  6  0  0  0
 16 14  1  0  0  0  0
 16 13  1  0  0  0  0
 18 22  1  6  0  0  0
 19 21  1  6  0  0  0
 19 18  1  0  0  0  0
 19 16  1  0  0  0  0
 20 25  1  6  0  0  0
 20 21  1  0  0  0  0
 20 23  1  0  0  0  0
 23 18  1  0  0  0  0
 24 25  1  0  0  0  0
 26 24  1  0  0  0  0
 26 25  1  0  0  0  0
 27 28  1  6  0  0  0
 29 28  1  0  0  0  0
 30 29  1  0  0  0  0
 31 30  1  0  0  0  0
 32 31  1  0  0  0  0
 32 35  1  0  0  0  0
 33 36  1  0  0  0  0
 34 36  2  0  0  0  0
 36 32  1  0  0  0  0
 37 27  1  0  0  0  0
 39 37  1  0  0  0  0
 39 38  1  0  0  0  0
M  END
>  <MODEL>
4

>  <REMARK>
 VINA RESULT:      -5.5      2.423      4.837
  Name = 
  15 active torsions:
  status: ('A' for Active; 'I' for Inactive)
    1  A    between atoms: C_3  and  C_13
    2  A    between atoms: C_5  and  C_7
    3  A    between atoms: C_5  and  C_13
    4  A    between atoms: C_7  and  C_38
    5  A    between atoms: C_8  and  C_38
    6  A    between atoms: C_9  and  C_32
    7  A    between atoms: C_14  and  C_22
    8  A    between atoms: C_14  and  O_25
    9  A    between atoms: C_14  and  C_36
   10  A    between atoms: C_15  and  N_16
   11  A    between atoms: C_15  and  C_18
   12  A    between atoms: C_17  and  C_26
   13  A    between atoms: C_18  and  N_27
   14  A    between atoms: C_19  and  O_25
   15  A    between atoms: C_22  and  N_27
                            x       y       z     vdW  Elec       q    Type
                         _______ _______ _______ _____ _____    ______ ____

>  <TORSDO>
F 15

$$$$
=
 OpenBabel11072415043D

 39 42  0  0  1  0  0  0  0  0999 V2000
  160.1710  211.2670  152.5350 C   0  0  0  0  0  0  0  0  0  0  0  0
  159.3790  211.0390  153.5810 C   0  0  0  0  0  3  0  0  0  0  0  0
  160.5500  212.5840  150.5920 O   0  0  0  0  0  0  0  0  0  0  0  0
  157.9740  213.0420  152.9380 C   0  0  0  0  0  3  0  0  0  0  0  0
  158.7690  213.2610  151.9330 N   0  0  0  0  0  0  0  0  0  0  0  0
  158.1040  211.8110  153.8070 C   0  0  2  0  0  3  0  0  0  0  0  0
  159.8540  212.3810  151.6220 C   0  0  0  0  0  0  0  0  0  0  0  0
  161.4130  210.4600  152.3650 C   0  0  0  0  0  2  0  0  0  0  0  0
  161.0650  209.0680  151.8650 C   0  0  0  0  0  2  0  0  0  0  0  0
  162.0920  208.5970  150.8480 C   0  0  0  0  0  2  0  0  0  0  0  0
  162.1530  210.1570  148.8760 C   0  0  0  0  0  1  0  0  0  0  0  0
  161.6040  208.8480  149.4190 C   0  0  1  0  0  3  0  0  0  0  0  0
  161.8950  207.7040  148.4310 C   0  0  1  0  0  0  0  0  0  0  0  0
  160.8870  207.4290  147.3190 C   0  0  0  0  0  2  0  0  0  0  0  0
  163.2200  207.5580  148.0140 O   0  0  0  0  0  1  0  0  0  0  0  0
  161.0730  206.4250  148.4490 C   0  0  2  0  0  0  0  0  0  0  0  0
  160.0150  206.3880  149.3620 O   0  0  0  0  0  1  0  0  0  0  0  0
  161.6950  204.7380  146.6150 C   0  0  2  0  0  3  0  0  0  0  0  0
  161.7700  205.1120  148.0850 C   0  0  2  0  0  3  0  0  0  0  0  0
  161.6450  202.8920  148.1300 C   0  0  2  0  0  3  0  0  0  0  0  0
  161.2610  204.0460  148.8350 O   0  0  0  0  0  0  0  0  0  0  0  0
  160.4450  205.0500  146.0770 O   0  0  0  0  0  1  0  0  0  0  0  0
  161.8360  203.2470  146.6650 C   0  0  0  0  0  2  0  0  0  0  0  0
  161.1410  200.4880  147.8280 C   0  0  0  0  0  2  0  0  0  0  0  0
  160.5760  201.8230  148.2670 C   0  0  0  0  0  3  0  0  0  0  0  0
  161.0100  200.8050  149.3020 C   0  0  0  0  0  2  0  0  0  0  0  0
  157.8750  212.0910  155.2970 C   0  0  1  0  0  3  0  0  0  0  0  0
  159.1060  212.6540  156.0150 C   0  0  0  0  0  2  0  0  0  0  0  0
  159.3590  211.9400  157.2590 N   0  0  0  0  0  2  0  0  0  0  0  0
  160.5320  211.1050  157.0540 C   0  0  0  0  0  2  0  0  0  0  0  0
  160.1540  209.6290  157.1120 C   0  0  0  0  0  2  0  0  0  0  0  0
  160.7980  208.8890  156.0340 N   0  0  0  0  0  0  0  0  0  0  0  0
  161.0110  206.9140  154.6160 O   0  0  0  0  0  0  0  0  0  0  0  0
  159.3660  207.0470  156.2030 O   0  0  0  0  0  1  0  0  0  0  0  0
  161.8850  209.4280  155.4410 F   0  0  0  0  0  0  0  0  0  0  0  0
  160.3520  207.5890  155.6360 C   0  0  0  0  0  0  0  0  0  0  0  0
  156.7610  212.9160  155.4870 O   0  0  0  0  0  0  0  0  0  0  0  0
  155.0400  213.1190  157.1130 C   0  0  0  0  0  1  0  0  0  0  0  0
  155.9020  212.1770  156.3000 C   0  0  0  0  0  2  0  0  0  0  0  0
  1  2  2  0  0  0  0
  2  6  1  0  0  0  0
  3  7  2  0  0  0  0
  4  6  1  0  0  0  0
  5  4  2  0  0  0  0
  6 27  1  1  0  0  0
  7  5  1  0  0  0  0
  7  1  1  0  0  0  0
  8  1  1  0  0  0  0
  9  8  1  0  0  0  0
 10  9  1  0  0  0  0
 12 11  1  6  0  0  0
 12 10  1  0  0  0  0
 13 15  1  6  0  0  0
 13 16  1  0  0  0  0
 13 12  1  0  0  0  0
 14 13  1  0  0  0  0
 14 16  1  0  0  0  0
 16 17  1  1  0  0  0
 18 22  1  1  0  0  0
 18 23  1  0  0  0  0
 18 19  1  0  0  0  0
 19 16  1  0  0  0  0
 19 21  1  1  0  0  0
 20 25  1  6  0  0  0
 20 21  1  0  0  0  0
 23 20  1  0  0  0  0
 24 25  1  0  0  0  0
 24 26  1  0  0  0  0
 25 26  1  0  0  0  0
 27 37  1  0  0  0  0
 27 28  1  6  0  0  0
 28 29  1  0  0  0  0
 30 31  1  0  0  0  0
 30 29  1  0  0  0  0
 32 31  1  0  0  0  0
 33 36  2  0  0  0  0
 35 32  1  0  0  0  0
 36 32  1  0  0  0  0
 36 34  1  0  0  0  0
 37 39  1  0  0  0  0
 39 38  1  0  0  0  0
M  END
>  <MODEL>
5

>  <REMARK>
 VINA RESULT:      -5.5      2.249      4.468
  Name = 
  15 active torsions:
  status: ('A' for Active; 'I' for Inactive)
    1  A    between atoms: C_3  and  C_13
    2  A    between atoms: C_5  and  C_7
    3  A    between atoms: C_5  and  C_13
    4  A    between atoms: C_7  and  C_38
    5  A    between atoms: C_8  and  C_38
    6  A    between atoms: C_9  and  C_32
    7  A    between atoms: C_14  and  C_22
    8  A    between atoms: C_14  and  O_25
    9  A    between atoms: C_14  and  C_36
   10  A    between atoms: C_15  and  N_16
   11  A    between atoms: C_15  and  C_18
   12  A    between atoms: C_17  and  C_26
   13  A    between atoms: C_18  and  N_27
   14  A    between atoms: C_19  and  O_25
   15  A    between atoms: C_22  and  N_27
                            x       y       z     vdW  Elec       q    Type
                         _______ _______ _______ _____ _____    ______ ____

>  <TORSDO>
F 15

$$$$
=
 OpenBabel11072415043D

 39 42  0  0  1  0  0  0  0  0999 V2000
  161.1710  208.4820  153.2180 C   0  0  0  0  0  0  0  0  0  0  0  0
  160.9560  208.1370  151.9490 C   0  0  0  0  0  3  0  0  0  0  0  0
  161.4680  207.7220  155.4510 O   0  0  0  0  0  0  0  0  0  0  0  0
  161.1190  205.6980  152.6000 C   0  0  0  0  0  3  0  0  0  0  0  0
  161.3460  206.0530  153.8300 N   0  0  0  0  0  0  0  0  0  0  0  0
  160.7530  206.7030  151.5310 C   0  0  2  0  0  3  0  0  0  0  0  0
  161.3230  207.4260  154.2350 C   0  0  0  0  0  0  0  0  0  0  0  0
  161.3530  209.9210  153.5650 C   0  0  0  0  0  2  0  0  0  0  0  0
  160.0010  210.5900  153.7400 C   0  0  0  0  0  2  0  0  0  0  0  0
  159.4220  210.9790  152.3900 C   0  0  0  0  0  2  0  0  0  0  0  0
  158.3070  212.5760  153.9810 C   0  0  0  0  0  1  0  0  0  0  0  0
  158.4470  212.1510  152.5290 C   0  0  1  0  0  3  0  0  0  0  0  0
  158.7810  213.3710  151.6510 C   0  0  1  0  0  0  0  0  0  0  0  0
  157.7110  214.4410  151.4550 C   0  0  0  0  0  2  0  0  0  0  0  0
  160.0660  213.9030  151.7810 O   0  0  0  0  0  1  0  0  0  0  0  0
  158.1330  213.5570  150.2880 C   0  0  2  0  0  0  0  0  0  0  0  0
  157.1840  212.5990  149.9230 O   0  0  0  0  0  1  0  0  0  0  0  0
  158.2200  214.4100  147.8670 C   0  0  2  0  0  3  0  0  0  0  0  0
  158.9520  214.2330  149.1850 C   0  0  2  0  0  3  0  0  0  0  0  0
  160.5600  213.9720  147.6710 C   0  0  2  0  0  3  0  0  0  0  0  0
  160.1380  213.5320  148.9370 O   0  0  0  0  0  0  0  0  0  0  0  0
  157.4210  213.3010  147.5790 O   0  0  0  0  0  1  0  0  0  0  0  0
  159.3520  214.4520  146.8850 C   0  0  0  0  0  2  0  0  0  0  0  0
  162.0500  213.3990  145.7800 C   0  0  0  0  0  2  0  0  0  0  0  0
  161.2400  212.8360  146.9290 C   0  0  0  0  0  3  0  0  0  0  0  0
  162.7440  212.9770  147.0570 C   0  0  0  0  0  2  0  0  0  0  0  0
  161.4110  206.4160  150.1760 C   0  0  1  0  0  3  0  0  0  0  0  0
  161.0360  205.0540  149.5830 C   0  0  0  0  0  2  0  0  0  0  0  0
  161.0870  205.0850  148.1280 N   0  0  0  0  0  2  0  0  0  0  0  0
  161.4240  203.7450  147.6730 C   0  0  0  0  0  2  0  0  0  0  0  0
  160.6940  202.6980  148.5070 C   0  0  0  0  0  2  0  0  0  0  0  0
  161.1410  201.3560  148.1570 N   0  0  0  0  0  0  0  0  0  0  0  0
  161.4450  199.5470  146.5470 O   0  0  0  0  0  1  0  0  0  0  0  0
  160.5390  201.5500  145.9050 O   0  0  0  0  0  0  0  0  0  0  0  0
  161.6220  200.5600  149.1360 F   0  0  0  0  0  0  0  0  0  0  0  0
  161.0240  200.8410  146.8270 C   0  0  0  0  0  0  0  0  0  0  0  0
  161.1550  207.4480  149.2670 O   0  0  0  0  0  0  0  0  0  0  0  0
  162.0860  209.6020  148.8890 C   0  0  0  0  0  1  0  0  0  0  0  0
  162.3630  208.1380  149.1570 C   0  0  0  0  0  2  0  0  0  0  0  0
  1  8  1  0  0  0  0
  1  7  1  0  0  0  0
  2  1  2  0  0  0  0
  4  5  2  0  0  0  0
  5  7  1  0  0  0  0
  6 27  1  6  0  0  0
  6  2  1  0  0  0  0
  6  4  1  0  0  0  0
  7  3  2  0  0  0  0
  8  9  1  0  0  0  0
 10 12  1  0  0  0  0
 10  9  1  0  0  0  0
 12 11  1  1  0  0  0
 13 15  1  1  0  0  0
 13 12  1  0  0  0  0
 14 13  1  0  0  0  0
 16 17  1  6  0  0  0
 16 14  1  0  0  0  0
 16 13  1  0  0  0  0
 18 22  1  6  0  0  0
 18 19  1  0  0  0  0
 19 21  1  6  0  0  0
 19 16  1  0  0  0  0
 20 25  1  6  0  0  0
 20 21  1  0  0  0  0
 23 20  1  0  0  0  0
 23 18  1  0  0  0  0
 24 25  1  0  0  0  0
 24 26  1  0  0  0  0
 25 26  1  0  0  0  0
 27 28  1  6  0  0  0
 29 28  1  0  0  0  0
 30 29  1  0  0  0  0
 30 31  1  0  0  0  0
 32 31  1  0  0  0  0
 32 35  1  0  0  0  0
 33 36  1  0  0  0  0
 34 36  2  0  0  0  0
 36 32  1  0  0  0  0
 37 27  1  0  0  0  0
 38 39  1  0  0  0  0
 39 37  1  0  0  0  0
M  END
>  <MODEL>
6

>  <REMARK>
 VINA RESULT:      -5.4      3.985      8.705
  Name = 
  15 active torsions:
  status: ('A' for Active; 'I' for Inactive)
    1  A    between atoms: C_3  and  C_13
    2  A    between atoms: C_5  and  C_7
    3  A    between atoms: C_5  and  C_13
    4  A    between atoms: C_7  and  C_38
    5  A    between atoms: C_8  and  C_38
    6  A    between atoms: C_9  and  C_32
    7  A    between atoms: C_14  and  C_22
    8  A    between atoms: C_14  and  O_25
    9  A    between atoms: C_14  and  C_36
   10  A    between atoms: C_15  and  N_16
   11  A    between atoms: C_15  and  C_18
   12  A    between atoms: C_17  and  C_26
   13  A    between atoms: C_18  and  N_27
   14  A    between atoms: C_19  and  O_25
   15  A    between atoms: C_22  and  N_27
                            x       y       z     vdW  Elec       q    Type
                         _______ _______ _______ _____ _____    ______ ____

>  <TORSDO>
F 15

$$$$
=
 OpenBabel11072415043D

 39 42  0  0  1  0  0  0  0  0999 V2000
  161.2540  203.8140  150.2280 C   0  0  0  0  0  0  0  0  0  0  0  0
  160.9830  203.6590  148.9330 C   0  0  0  0  0  3  0  0  0  0  0  0
  161.1960  202.8320  152.3920 O   0  0  0  0  0  0  0  0  0  0  0  0
  160.2940  201.2650  149.3780 C   0  0  0  0  0  3  0  0  0  0  0  0
  160.5810  201.4290  150.6360 N   0  0  0  0  0  0  0  0  0  0  0  0
  160.3270  202.4130  148.3940 C   0  0  2  0  0  3  0  0  0  0  0  0
  161.0050  202.6950  151.1550 C   0  0  0  0  0  0  0  0  0  0  0  0
  161.8950  205.0760  150.6970 C   0  0  0  0  0  2  0  0  0  0  0  0
  160.9830  205.7890  151.6800 C   0  0  0  0  0  2  0  0  0  0  0  0
  161.7290  206.9150  152.3770 C   0  0  0  0  0  2  0  0  0  0  0  0
  161.1920  207.1570  154.8220 C   0  0  0  0  0  1  0  0  0  0  0  0
  160.8380  207.6040  153.4140 C   0  0  1  0  0  3  0  0  0  0  0  0
  160.8330  209.1420  153.3340 C   0  0  1  0  0  0  0  0  0  0  0  0
  161.6240  209.9270  154.3760 C   0  0  0  0  0  2  0  0  0  0  0  0
  160.9060  209.7040  152.0570 O   0  0  0  0  0  1  0  0  0  0  0  0
  160.1010  209.9780  154.3730 C   0  0  2  0  0  0  0  0  0  0  0  0
  159.5030  209.2710  155.4190 O   0  0  0  0  0  1  0  0  0  0  0  0
  159.8250  212.4990  154.7760 C   0  0  2  0  0  3  0  0  0  0  0  0
  159.4650  211.2950  153.9230 C   0  0  2  0  0  3  0  0  0  0  0  0
  157.6090  212.5190  153.8850 C   0  0  2  0  0  3  0  0  0  0  0  0
  158.0700  211.1920  153.8780 O   0  0  0  0  0  0  0  0  0  0  0  0
  159.8770  212.1630  156.1300 O   0  0  0  0  0  1  0  0  0  0  0  0
  158.6500  213.4020  154.5520 C   0  0  0  0  0  2  0  0  0  0  0  0
  156.0270  214.0490  155.0180 C   0  0  0  0  0  2  0  0  0  0  0  0
  156.2970  212.6070  154.6440 C   0  0  0  0  0  3  0  0  0  0  0  0
  155.3040  213.4250  153.8440 C   0  0  0  0  0  2  0  0  0  0  0  0
  160.9010  202.0250  147.0260 C   0  0  1  0  0  3  0  0  0  0  0  0
  162.1430  202.8280  146.6270 C   0  0  0  0  0  2  0  0  0  0  0  0
  161.8390  203.7590  145.5490 N   0  0  0  0  0  2  0  0  0  0  0  0
  162.7060  204.9160  145.7120 C   0  0  0  0  0  2  0  0  0  0  0  0
  161.9360  206.2030  145.4380 C   0  0  0  0  0  2  0  0  0  0  0  0
  161.0570  206.5250  146.5550 N   0  0  0  0  0  0  0  0  0  0  0  0
  160.6770  207.3770  148.8110 O   0  0  0  0  0  1  0  0  0  0  0  0
  162.7750  207.3800  147.8920 O   0  0  0  0  0  0  0  0  0  0  0  0
  159.7490  206.2010  146.4620 F   0  0  0  0  0  0  0  0  0  0  0  0
  161.5520  207.1090  147.7650 C   0  0  0  0  0  0  0  0  0  0  0  0
  161.1490  200.6490  146.9590 O   0  0  0  0  0  0  0  0  0  0  0  0
  159.6730  201.0770  145.1450 C   0  0  0  0  0  1  0  0  0  0  0  0
  160.8770  200.3000  145.6360 C   0  0  0  0  0  2  0  0  0  0  0  0
  1  8  1  0  0  0  0
  1  7  1  0  0  0  0
  2  1  2  0  0  0  0
  4  5  2  0  0  0  0
  5  7  1  0  0  0  0
  6 27  1  6  0  0  0
  6  2  1  0  0  0  0
  6  4  1  0  0  0  0
  7  3  2  0  0  0  0
  8  9  1  0  0  0  0
  9 10  1  0  0  0  0
 10 12  1  0  0  0  0
 12 11  1  1  0  0  0
 13 15  1  6  0  0  0
 13 12  1  0  0  0  0
 13 16  1  0  0  0  0
 13 14  1  0  0  0  0
 16 14  1  0  0  0  0
 16 17  1  1  0  0  0
 18 22  1  1  0  0  0
 19 21  1  1  0  0  0
 19 16  1  0  0  0  0
 19 18  1  0  0  0  0
 20 23  1  0  0  0  0
 20 25  1  1  0  0  0
 21 20  1  0  0  0  0
 23 18  1  0  0  0  0
 25 24  1  0  0  0  0
 26 25  1  0  0  0  0
 26 24  1  0  0  0  0
 27 28  1  1  0  0  0
 29 30  1  0  0  0  0
 29 28  1  0  0  0  0
 31 30  1  0  0  0  0
 31 32  1  0  0  0  0
 32 36  1  0  0  0  0
 35 32  1  0  0  0  0
 36 34  2  0  0  0  0
 36 33  1  0  0  0  0
 37 27  1  0  0  0  0
 38 39  1  0  0  0  0
 39 37  1  0  0  0  0
M  END
>  <MODEL>
7

>  <REMARK>
 VINA RESULT:      -5.3      3.634      9.849
  Name = 
  15 active torsions:
  status: ('A' for Active; 'I' for Inactive)
    1  A    between atoms: C_3  and  C_13
    2  A    between atoms: C_5  and  C_7
    3  A    between atoms: C_5  and  C_13
    4  A    between atoms: C_7  and  C_38
    5  A    between atoms: C_8  and  C_38
    6  A    between atoms: C_9  and  C_32
    7  A    between atoms: C_14  and  C_22
    8  A    between atoms: C_14  and  O_25
    9  A    between atoms: C_14  and  C_36
   10  A    between atoms: C_15  and  N_16
   11  A    between atoms: C_15  and  C_18
   12  A    between atoms: C_17  and  C_26
   13  A    between atoms: C_18  and  N_27
   14  A    between atoms: C_19  and  O_25
   15  A    between atoms: C_22  and  N_27
                            x       y       z     vdW  Elec       q    Type
                         _______ _______ _______ _____ _____    ______ ____

>  <TORSDO>
F 15

$$$$
=
 OpenBabel11072415043D

 39 42  0  0  1  0  0  0  0  0999 V2000
  160.9780  207.2290  152.3900 C   0  0  0  0  0  0  0  0  0  0  0  0
  160.9480  208.5600  152.4160 C   0  0  0  0  0  3  0  0  0  0  0  0
  161.2620  205.2320  153.6490 O   0  0  0  0  0  0  0  0  0  0  0  0
  161.2070  208.5030  154.9320 C   0  0  0  0  0  3  0  0  0  0  0  0
  161.2150  207.2040  154.8900 N   0  0  0  0  0  0  0  0  0  0  0  0
  161.2150  209.3450  153.6760 C   0  0  2  0  0  3  0  0  0  0  0  0
  161.1700  206.4880  153.6510 C   0  0  0  0  0  0  0  0  0  0  0  0
  160.7150  206.5140  151.1080 C   0  0  0  0  0  2  0  0  0  0  0  0
  161.0100  207.4290  149.9320 C   0  0  0  0  0  2  0  0  0  0  0  0
  160.5890  206.7720  148.6280 C   0  0  0  0  0  2  0  0  0  0  0  0
  162.7770  207.8690  148.0450 C   0  0  0  0  0  1  0  0  0  0  0  0
  161.6120  207.0440  147.5220 C   0  0  1  0  0  3  0  0  0  0  0  0
  162.1370  205.7840  146.8100 C   0  0  1  0  0  0  0  0  0  0  0  0
  162.4920  205.8810  145.3290 C   0  0  0  0  0  2  0  0  0  0  0  0
  163.0220  204.9790  147.5300 O   0  0  0  0  0  1  0  0  0  0  0  0
  161.2900  205.0580  145.7760 C   0  0  2  0  0  0  0  0  0  0  0  0
  160.0550  205.6400  145.4760 O   0  0  0  0  0  1  0  0  0  0  0  0
  160.3920  202.8660  144.7830 C   0  0  2  0  0  3  0  0  0  0  0  0
  161.4280  203.5380  145.6670 C   0  0  2  0  0  3  0  0  0  0  0  0
  161.0850  201.5870  146.6770 C   0  0  2  0  0  3  0  0  0  0  0  0
  161.3820  202.9370  146.9300 O   0  0  0  0  0  0  0  0  0  0  0  0
  159.1360  203.4550  144.9390 O   0  0  0  0  0  1  0  0  0  0  0  0
  160.3460  201.4810  145.3540 C   0  0  0  0  0  2  0  0  0  0  0  0
  161.0850  200.7680  149.0130 C   0  0  0  0  0  2  0  0  0  0  0  0
  160.2230  201.0290  147.7950 C   0  0  0  0  0  3  0  0  0  0  0  0
  160.2100  202.0020  148.9570 C   0  0  0  0  0  2  0  0  0  0  0  0
  160.3140  210.5820  153.7660 C   0  0  1  0  0  3  0  0  0  0  0  0
  159.8120  211.0810  152.4070 C   0  0  0  0  0  2  0  0  0  0  0  0
  160.1020  212.4970  152.2310 N   0  0  0  0  0  2  0  0  0  0  0  0
  159.1580  213.0190  151.2550 C   0  0  0  0  0  2  0  0  0  0  0  0
  159.8820  213.8630  150.2110 C   0  0  0  0  0  2  0  0  0  0  0  0
  159.7230  213.2850  148.8820 N   0  0  0  0  0  0  0  0  0  0  0  0
  160.6370  212.2540  146.8670 O   0  0  0  0  0  0  0  0  0  0  0  0
  161.9960  212.7950  148.6280 O   0  0  0  0  0  1  0  0  0  0  0  0
  158.4960  213.2940  148.3160 F   0  0  0  0  0  0  0  0  0  0  0  0
  160.8350  212.7750  148.1400 C   0  0  0  0  0  0  0  0  0  0  0  0
  159.2490  210.3630  154.6460 O   0  0  0  0  0  0  0  0  0  0  0  0
  160.2510  211.9610  156.0920 C   0  0  0  0  0  1  0  0  0  0  0  0
  159.0360  211.5940  155.2660 C   0  0  0  0  0  2  0  0  0  0  0  0
  1  2  2  0  0  0  0
  1  7  1  0  0  0  0
  2  6  1  0  0  0  0
  3  7  2  0  0  0  0
  5  4  2  0  0  0  0
  6 27  1  1  0  0  0
  6  4  1  0  0  0  0
  7  5  1  0  0  0  0
  8  1  1  0  0  0  0
  9  8  1  0  0  0  0
 10  9  1  0  0  0  0
 12 11  1  1  0  0  0
 12 10  1  0  0  0  0
 13 12  1  0  0  0  0
 13 15  1  1  0  0  0
 14 16  1  0  0  0  0
 14 13  1  0  0  0  0
 16 17  1  6  0  0  0
 16 13  1  0  0  0  0
 18 22  1  1  0  0  0
 18 23  1  0  0  0  0
 18 19  1  0  0  0  0
 19 16  1  0  0  0  0
 19 21  1  1  0  0  0
 20 21  1  0  0  0  0
 20 25  1  1  0  0  0
 23 20  1  0  0  0  0
 25 26  1  0  0  0  0
 25 24  1  0  0  0  0
 26 24  1  0  0  0  0
 27 28  1  6  0  0  0
 27 37  1  0  0  0  0
 29 28  1  0  0  0  0
 30 29  1  0  0  0  0
 31 30  1  0  0  0  0
 32 31  1  0  0  0  0
 33 36  2  0  0  0  0
 35 32  1  0  0  0  0
 36 34  1  0  0  0  0
 36 32  1  0  0  0  0
 37 39  1  0  0  0  0
 39 38  1  0  0  0  0
M  END
>  <MODEL>
8

>  <REMARK>
 VINA RESULT:      -5.1      1.807      3.046
  Name = 
  15 active torsions:
  status: ('A' for Active; 'I' for Inactive)
    1  A    between atoms: C_3  and  C_13
    2  A    between atoms: C_5  and  C_7
    3  A    between atoms: C_5  and  C_13
    4  A    between atoms: C_7  and  C_38
    5  A    between atoms: C_8  and  C_38
    6  A    between atoms: C_9  and  C_32
    7  A    between atoms: C_14  and  C_22
    8  A    between atoms: C_14  and  O_25
    9  A    between atoms: C_14  and  C_36
   10  A    between atoms: C_15  and  N_16
   11  A    between atoms: C_15  and  C_18
   12  A    between atoms: C_17  and  C_26
   13  A    between atoms: C_18  and  N_27
   14  A    between atoms: C_19  and  O_25
   15  A    between atoms: C_22  and  N_27
                            x       y       z     vdW  Elec       q    Type
                         _______ _______ _______ _____ _____    ______ ____

>  <TORSDO>
F 15

$$$$
=
 OpenBabel11072415043D

 39 42  0  0  1  0  0  0  0  0999 V2000
  160.2600  210.8240  153.3190 C   0  0  0  0  0  0  0  0  0  0  0  0
  160.2610  209.8740  154.2520 C   0  0  0  0  0  3  0  0  0  0  0  0
  159.7340  213.0820  152.7960 O   0  0  0  0  0  0  0  0  0  0  0  0
  159.4460  211.5630  155.9510 C   0  0  0  0  0  3  0  0  0  0  0  0
  159.4690  212.4810  155.0310 N   0  0  0  0  0  0  0  0  0  0  0  0
  159.7050  210.1070  155.6340 C   0  0  2  0  0  3  0  0  0  0  0  0
  159.8020  212.1800  153.6710 C   0  0  0  0  0  0  0  0  0  0  0  0
  160.8160  210.5240  151.9670 C   0  0  0  0  0  2  0  0  0  0  0  0
  160.8740  209.0220  151.7500 C   0  0  0  0  0  2  0  0  0  0  0  0
  161.9980  208.6660  150.7920 C   0  0  0  0  0  2  0  0  0  0  0  0
  162.1380  210.2570  148.8480 C   0  0  0  0  0  1  0  0  0  0  0  0
  161.5860  208.9300  149.3410 C   0  0  1  0  0  3  0  0  0  0  0  0
  161.9560  207.8070  148.3550 C   0  0  1  0  0  0  0  0  0  0  0  0
  161.0640  207.5870  147.1360 C   0  0  0  0  0  2  0  0  0  0  0  0
  163.3140  207.6410  148.0730 O   0  0  0  0  0  1  0  0  0  0  0  0
  161.1090  206.5470  148.2490 C   0  0  2  0  0  0  0  0  0  0  0  0
  159.9610  206.5100  149.0450 O   0  0  0  0  0  1  0  0  0  0  0  0
  161.7960  204.8470  146.4510 C   0  0  2  0  0  3  0  0  0  0  0  0
  161.8140  205.2290  147.9200 C   0  0  2  0  0  3  0  0  0  0  0  0
  161.6750  203.0100  147.9720 C   0  0  2  0  0  3  0  0  0  0  0  0
  161.2690  204.1700  148.6550 O   0  0  0  0  0  0  0  0  0  0  0  0
  160.5700  205.1620  145.8610 O   0  0  0  0  0  1  0  0  0  0  0  0
  161.9270  203.3550  146.5140 C   0  0  0  0  0  2  0  0  0  0  0  0
  161.2220  200.5780  147.9120 C   0  0  0  0  0  2  0  0  0  0  0  0
  160.5960  201.9470  148.0720 C   0  0  0  0  0  3  0  0  0  0  0  0
  160.8490  201.0820  149.2890 C   0  0  0  0  0  2  0  0  0  0  0  0
  160.5420  209.3920  156.7020 C   0  0  1  0  0  3  0  0  0  0  0  0
  160.0720  207.9660  157.0030 C   0  0  0  0  0  2  0  0  0  0  0  0
  160.9420  206.9840  156.3720 N   0  0  0  0  0  2  0  0  0  0  0  0
  160.3290  206.6020  155.1090 C   0  0  0  0  0  2  0  0  0  0  0  0
  161.3810  206.5260  154.0070 C   0  0  0  0  0  2  0  0  0  0  0  0
  161.2490  205.2850  153.2540 N   0  0  0  0  0  0  0  0  0  0  0  0
  161.7960  203.8630  151.3470 O   0  0  0  0  0  0  0  0  0  0  0  0
  162.7670  205.9220  151.5930 O   0  0  0  0  0  1  0  0  0  0  0  0
  160.3680  204.3570  153.6880 F   0  0  0  0  0  0  0  0  0  0  0  0
  161.9720  205.0540  152.0410 C   0  0  0  0  0  0  0  0  0  0  0  0
  161.9010  209.4150  156.3710 O   0  0  0  0  0  0  0  0  0  0  0  0
  163.5900  211.0760  156.5670 C   0  0  0  0  0  1  0  0  0  0  0  0
  162.4720  210.3260  157.2600 C   0  0  0  0  0  2  0  0  0  0  0  0
  1  7  1  0  0  0  0
  1  2  2  0  0  0  0
  2  6  1  0  0  0  0
  3  7  2  0  0  0  0
  5  4  2  0  0  0  0
  6  4  1  0  0  0  0
  6 27  1  1  0  0  0
  7  5  1  0  0  0  0
  8  1  1  0  0  0  0
  9  8  1  0  0  0  0
 10  9  1  0  0  0  0
 12 11  1  6  0  0  0
 12 10  1  0  0  0  0
 13 15  1  6  0  0  0
 13 12  1  0  0  0  0
 14 16  1  0  0  0  0
 14 13  1  0  0  0  0
 16 13  1  0  0  0  0
 16 17  1  1  0  0  0
 18 22  1  1  0  0  0
 18 23  1  0  0  0  0
 18 19  1  0  0  0  0
 19 16  1  0  0  0  0
 19 21  1  1  0  0  0
 20 25  1  6  0  0  0
 20 21  1  0  0  0  0
 23 20  1  0  0  0  0
 24 25  1  0  0  0  0
 24 26  1  0  0  0  0
 25 26  1  0  0  0  0
 27 28  1  6  0  0  0
 29 28  1  0  0  0  0
 30 29  1  0  0  0  0
 31 30  1  0  0  0  0
 32 35  1  0  0  0  0
 32 31  1  0  0  0  0
 33 36  2  0  0  0  0
 34 36  1  0  0  0  0
 36 32  1  0  0  0  0
 37 27  1  0  0  0  0
 37 39  1  0  0  0  0
 38 39  1  0  0  0  0
M  END
>  <MODEL>
9

>  <REMARK>
 VINA RESULT:      -5.1      2.931      4.928
  Name = 
  15 active torsions:
  status: ('A' for Active; 'I' for Inactive)
    1  A    between atoms: C_3  and  C_13
    2  A    between atoms: C_5  and  C_7
    3  A    between atoms: C_5  and  C_13
    4  A    between atoms: C_7  and  C_38
    5  A    between atoms: C_8  and  C_38
    6  A    between atoms: C_9  and  C_32
    7  A    between atoms: C_14  and  C_22
    8  A    between atoms: C_14  and  O_25
    9  A    between atoms: C_14  and  C_36
   10  A    between atoms: C_15  and  N_16
   11  A    between atoms: C_15  and  C_18
   12  A    between atoms: C_17  and  C_26
   13  A    between atoms: C_18  and  N_27
   14  A    between atoms: C_19  and  O_25
   15  A    between atoms: C_22  and  N_27
                            x       y       z     vdW  Elec       q    Type
                         _______ _______ _______ _____ _____    ______ ____

>  <TORSDO>
F 15

$$$$
