=
 OpenBabel11072414333D

 36 40  0  0  1  0  0  0  0  0999 V2000
  159.6030  209.9450  154.4610 C   0  0  0  0  0  2  0  0  0  0  0  0
  159.6660  213.4120  152.1890 C   0  0  0  0  0  2  0  0  0  0  0  0
  160.1450  212.2650  149.5270 O   0  0  0  0  0  0  0  0  0  0  0  0
  161.1120  207.5690  153.7940 C   0  0  0  0  0  3  0  0  0  0  0  0
  160.5370  209.9140  153.2760 C   0  0  0  0  0  0  0  0  0  0  0  0
  162.4630  210.0140  151.1810 O   0  0  0  0  0  0  0  0  0  0  0  0
  162.5940  205.1980  151.5560 O   0  0  0  0  0  0  0  0  0  0  0  0
  162.3280  207.5310  151.0890 C   0  0  2  0  0  3  0  0  0  0  0  0
  159.3510  211.9260  152.2110 C   0  0  1  0  0  3  0  0  0  0  0  0
  161.2790  208.8210  153.0330 C   0  0  0  0  0  0  0  0  0  0  0  0
  160.6600  211.1100  152.3460 C   0  0  2  0  0  3  0  0  0  0  0  0
  158.8970  211.2850  154.5960 C   0  0  0  0  0  2  0  0  0  0  0  0
  160.1600  213.6540  149.7420 C   0  0  2  0  0  3  0  0  0  0  0  0
  159.2090  214.0220  150.8740 C   0  0  0  0  0  2  0  0  0  0  0  0
  161.2160  210.6450  150.9770 C   0  0  1  0  0  3  0  0  0  0  0  0
  162.1960  206.3180  151.9750 C   0  0  0  0  0  0  0  0  0  0  0  0
  161.5610  206.4080  153.3070 C   0  0  0  0  0  3  0  0  0  0  0  0
  162.3110  208.8190  151.9250 C   0  0  2  0  0  3  0  0  0  0  0  0
  161.3920  211.8040  149.9730 C   0  0  1  0  0  3  0  0  0  0  0  0
  158.2720  211.6370  153.2580 C   0  0  0  0  0  2  0  0  0  0  0  0
  159.7800  214.4520  148.4860 C   0  0  1  0  0  3  0  0  0  0  0  0
  159.9540  213.6640  147.3290 O   0  0  0  0  0  0  0  0  0  0  0  0
  158.6230  213.8780  147.7510 C   0  0  0  0  0  2  0  0  0  0  0  0
  162.2340  211.4030  148.7940 C   0  0  0  0  0  0  0  0  0  0  0  0
  162.0840  210.1360  148.2480 O   0  0  0  0  0  1  0  0  0  0  0  0
  163.1090  212.2420  148.2520 C   0  0  0  0  0  2  0  0  0  0  0  0
  161.2950  207.5270  149.9950 C   0  0  0  0  0  0  0  0  0  0  0  0
  160.0880  207.2840  150.2700 O   0  0  0  0  0  0  0  0  0  0  0  0
  161.6560  207.7820  148.6660 O   0  0  0  0  0  0  0  0  0  0  0  0
  162.2410  206.8010  147.8160 C   0  0  0  0  0  2  0  0  0  0  0  0
  161.1610  206.0000  147.1030 C   0  0  0  0  0  2  0  0  0  0  0  0
  161.2420  203.7980  148.1830 C   0  0  0  0  0  0  0  0  0  0  0  0
  161.5910  202.4870  148.2020 F   0  0  0  0  0  0  0  0  0  0  0  0
  161.5050  204.5490  147.1130 C   0  0  0  0  0  0  0  0  0  0  0  0
  160.6480  204.3370  149.2820 F   0  0  0  0  0  0  0  0  0  0  0  0
  162.1700  203.9830  145.9850 N   0  0  0  0  0  1  0  0  0  0  0  0
  1 12  1  0  0  0  0
  3 13  1  0  0  0  0
  3 19  1  0  0  0  0
  5  1  1  0  0  0  0
  7 16  2  0  0  0  0
  8 27  1  6  0  0  0
  8 18  1  0  0  0  0
  8 16  1  0  0  0  0
  9  2  1  1  0  0  0
  9 11  1  0  0  0  0
  9 20  1  0  0  0  0
 10  5  2  0  0  0  0
 10  4  1  0  0  0  0
 11  5  1  1  0  0  0
 13 14  1  1  0  0  0
 14  2  1  0  0  0  0
 15  6  1  1  0  0  0
 15 11  1  0  0  0  0
 16 17  1  0  0  0  0
 17  4  2  0  0  0  0
 18  6  1  6  0  0  0
 18 10  1  0  0  0  0
 19 24  1  6  0  0  0
 19 15  1  0  0  0  0
 20 12  1  0  0  0  0
 21 23  1  1  0  0  0
 21 13  1  0  0  0  0
 22 23  1  0  0  0  0
 22 21  1  0  0  0  0
 25 24  1  0  0  0  0
 26 24  2  0  0  0  0
 27 28  2  0  0  0  0
 29 27  1  0  0  0  0
 30 29  1  0  0  0  0
 31 34  1  0  0  0  0
 31 30  1  0  0  0  0
 32 33  1  0  0  0  0
 32 35  1  0  0  0  0
 34 32  2  0  0  0  0
 36 34  1  0  0  0  0
M  END
>  <MODEL>
1

>  <REMARK>
 VINA RESULT:      -6.8      0.000      0.000
  Name = 
  7 active torsions:
  status: ('A' for Active; 'I' for Inactive)
    1  A    between atoms: C_1  and  C_21
    2  A    between atoms: C_2  and  C_24
    3  A    between atoms: C_2  and  C_36
    4  A    between atoms: O_7  and  C_23
    5  A    between atoms: O_7  and  C_36
    6  A    between atoms: C_14  and  C_34
    7  A    between atoms: C_15  and  C_23
                            x       y       z     vdW  Elec       q    Type
                         _______ _______ _______ _____ _____    ______ ____

>  <TORSDO>
F 7

$$$$
=
 OpenBabel11072414333D

 36 40  0  0  1  0  0  0  0  0999 V2000
  161.1140  204.0730  152.8730 C   0  0  0  0  0  2  0  0  0  0  0  0
  160.3710  202.1050  149.3010 C   0  0  0  0  0  2  0  0  0  0  0  0
  161.5080  204.0430  147.4080 O   0  0  0  0  0  0  0  0  0  0  0  0
  161.2100  206.9530  153.1210 C   0  0  0  0  0  3  0  0  0  0  0  0
  160.8210  204.9740  151.6970 C   0  0  0  0  0  0  0  0  0  0  0  0
  160.0130  206.6010  149.5050 O   0  0  0  0  0  0  0  0  0  0  0  0
  161.9220  210.2780  151.9920 O   0  0  0  0  0  0  0  0  0  0  0  0
  161.2690  208.4670  150.5700 C   0  0  2  0  0  3  0  0  0  0  0  0
  161.2830  203.0660  150.0430 C   0  0  1  0  0  3  0  0  0  0  0  0
  160.8020  206.3060  151.8590 C   0  0  0  0  0  0  0  0  0  0  0  0
  160.5390  204.3950  150.3200 C   0  0  2  0  0  3  0  0  0  0  0  0
  161.0330  202.6020  152.4980 C   0  0  0  0  0  2  0  0  0  0  0  0
  160.7920  202.9180  146.9650 C   0  0  2  0  0  3  0  0  0  0  0  0
  160.9660  201.7640  147.9440 C   0  0  0  0  0  2  0  0  0  0  0  0
  160.8170  205.4700  149.2400 C   0  0  1  0  0  3  0  0  0  0  0  0
  161.5840  209.0660  151.9170 C   0  0  0  0  0  0  0  0  0  0  0  0
  161.5520  208.2460  153.1470 C   0  0  0  0  0  3  0  0  0  0  0  0
  160.3880  207.2170  150.7230 C   0  0  2  0  0  3  0  0  0  0  0  0
  160.5360  204.9720  147.8080 C   0  0  1  0  0  3  0  0  0  0  0  0
  161.8900  202.3710  151.2650 C   0  0  0  0  0  2  0  0  0  0  0  0
  161.2180  202.4570  145.5630 C   0  0  1  0  0  3  0  0  0  0  0  0
  160.4910  201.3120  145.1780 O   0  0  0  0  0  0  0  0  0  0  0  0
  160.1220  202.5280  144.5630 C   0  0  0  0  0  2  0  0  0  0  0  0
  160.4810  206.1040  146.8200 C   0  0  0  0  0  0  0  0  0  0  0  0
  161.2150  207.2560  147.0620 O   0  0  0  0  0  1  0  0  0  0  0  0
  159.7570  206.0180  145.7090 C   0  0  0  0  0  2  0  0  0  0  0  0
  162.5220  208.2080  149.7780 C   0  0  0  0  0  0  0  0  0  0  0  0
  163.2810  207.2510  150.0950 O   0  0  0  0  0  0  0  0  0  0  0  0
  162.8660  209.0230  148.6920 O   0  0  0  0  0  0  0  0  0  0  0  0
  162.1020  210.1580  148.2970 C   0  0  0  0  0  2  0  0  0  0  0  0
  162.7830  211.4420  148.7490 C   0  0  0  0  0  2  0  0  0  0  0  0
  161.0350  213.1580  148.9070 C   0  0  0  0  0  0  0  0  0  0  0  0
  160.3450  214.2120  148.4050 F   0  0  0  0  0  0  0  0  0  0  0  0
  162.0480  212.6270  148.2200 C   0  0  0  0  0  0  0  0  0  0  0  0
  160.6570  212.6340  150.1040 F   0  0  0  0  0  0  0  0  0  0  0  0
  162.4040  213.1560  146.9440 N   0  0  0  0  0  1  0  0  0  0  0  0
  3 19  1  0  0  0  0
  4 17  2  0  0  0  0
  5 10  2  0  0  0  0
  5  1  1  0  0  0  0
  8 27  1  1  0  0  0
  8 18  1  0  0  0  0
  8 16  1  0  0  0  0
  9  2  1  1  0  0  0
  9 11  1  0  0  0  0
  9 20  1  0  0  0  0
 10  4  1  0  0  0  0
 11  5  1  1  0  0  0
 12  1  1  0  0  0  0
 13  3  1  0  0  0  0
 13 14  1  1  0  0  0
 14  2  1  0  0  0  0
 15  6  1  1  0  0  0
 15 11  1  0  0  0  0
 16  7  2  0  0  0  0
 16 17  1  0  0  0  0
 18  6  1  6  0  0  0
 18 10  1  0  0  0  0
 19 24  1  6  0  0  0
 19 15  1  0  0  0  0
 20 12  1  0  0  0  0
 21 23  1  6  0  0  0
 21 13  1  0  0  0  0
 22 21  1  0  0  0  0
 23 22  1  0  0  0  0
 24 25  1  0  0  0  0
 26 24  2  0  0  0  0
 27 28  2  0  0  0  0
 29 27  1  0  0  0  0
 30 29  1  0  0  0  0
 30 31  1  0  0  0  0
 32 35  1  0  0  0  0
 33 32  1  0  0  0  0
 34 31  1  0  0  0  0
 34 32  2  0  0  0  0
 36 34  1  0  0  0  0
M  END
>  <MODEL>
2

>  <REMARK>
 VINA RESULT:      -6.2      3.525      7.656
  Name = 
  7 active torsions:
  status: ('A' for Active; 'I' for Inactive)
    1  A    between atoms: C_1  and  C_21
    2  A    between atoms: C_2  and  C_24
    3  A    between atoms: C_2  and  C_36
    4  A    between atoms: O_7  and  C_23
    5  A    between atoms: O_7  and  C_36
    6  A    between atoms: C_14  and  C_34
    7  A    between atoms: C_15  and  C_23
                            x       y       z     vdW  Elec       q    Type
                         _______ _______ _______ _____ _____    ______ ____

>  <TORSDO>
F 7

$$$$
=
 OpenBabel11072414333D

 36 40  0  0  1  0  0  0  0  0999 V2000
  160.4470  206.9560  154.9850 C   0  0  0  0  0  2  0  0  0  0  0  0
  160.7150  211.0150  154.1850 C   0  0  0  0  0  2  0  0  0  0  0  0
  160.3360  210.9830  151.2710 O   0  0  0  0  0  0  0  0  0  0  0  0
  161.2420  204.9020  153.1110 C   0  0  0  0  0  3  0  0  0  0  0  0
  161.0640  207.3050  153.6520 C   0  0  0  0  0  0  0  0  0  0  0  0
  162.4480  208.0320  151.2730 O   0  0  0  0  0  0  0  0  0  0  0  0
  161.6610  203.4810  149.8500 O   0  0  0  0  0  0  0  0  0  0  0  0
  161.7860  205.8200  150.3430 C   0  0  2  0  0  3  0  0  0  0  0  0
  160.1130  209.6860  153.7640 C   0  0  1  0  0  3  0  0  0  0  0  0
  161.4900  206.3290  152.8340 C   0  0  0  0  0  0  0  0  0  0  0  0
  161.2200  208.7520  153.2170 C   0  0  2  0  0  3  0  0  0  0  0  0
  160.0830  208.1970  155.7860 C   0  0  0  0  0  2  0  0  0  0  0  0
  160.6860  212.1610  151.9540 C   0  0  2  0  0  3  0  0  0  0  0  0
  160.1120  212.1440  153.3640 C   0  0  0  0  0  2  0  0  0  0  0  0
  161.3460  208.8180  151.6750 C   0  0  1  0  0  3  0  0  0  0  0  0
  161.6070  204.3750  150.7360 C   0  0  0  0  0  0  0  0  0  0  0  0
  161.3210  203.9910  152.1350 C   0  0  0  0  0  3  0  0  0  0  0  0
  162.2240  206.6620  151.5520 C   0  0  2  0  0  3  0  0  0  0  0  0
  161.5280  210.2560  151.1460 C   0  0  1  0  0  3  0  0  0  0  0  0
  159.2600  209.1170  154.9010 C   0  0  0  0  0  2  0  0  0  0  0  0
  160.2080  213.4300  151.2310 C   0  0  1  0  0  3  0  0  0  0  0  0
  159.4760  213.0920  150.0740 O   0  0  0  0  0  0  0  0  0  0  0  0
  158.7290  213.5540  151.1790 C   0  0  0  0  0  2  0  0  0  0  0  0
  161.9830  210.2730  149.7120 C   0  0  0  0  0  0  0  0  0  0  0  0
  162.0420  209.0830  149.0010 O   0  0  0  0  0  1  0  0  0  0  0  0
  162.3150  211.4080  149.1060 C   0  0  0  0  0  2  0  0  0  0  0  0
  160.5560  206.3610  149.6670 C   0  0  0  0  0  0  0  0  0  0  0  0
  159.7180  207.0340  150.3270 O   0  0  0  0  0  0  0  0  0  0  0  0
  160.3200  206.1200  148.3070 O   0  0  0  0  0  0  0  0  0  0  0  0
  161.2160  206.5270  147.2770 C   0  0  0  0  0  2  0  0  0  0  0  0
  162.1120  205.3700  146.8620 C   0  0  0  0  0  2  0  0  0  0  0  0
  161.2020  203.3170  145.8710 C   0  0  0  0  0  0  0  0  0  0  0  0
  160.6690  202.6230  144.8350 F   0  0  0  0  0  0  0  0  0  0  0  0
  161.4870  204.6130  145.7390 C   0  0  0  0  0  0  0  0  0  0  0  0
  161.4680  202.6620  147.0340 F   0  0  0  0  0  0  0  0  0  0  0  0
  161.2470  205.2770  144.4990 N   0  0  0  0  0  1  0  0  0  0  0  0
  1 12  1  0  0  0  0
  3 13  1  0  0  0  0
  5  1  1  0  0  0  0
  7 16  2  0  0  0  0
  8 27  1  1  0  0  0
  8 16  1  0  0  0  0
  8 18  1  0  0  0  0
  9  2  1  1  0  0  0
  9 20  1  0  0  0  0
 10  4  1  0  0  0  0
 10  5  2  0  0  0  0
 11  5  1  6  0  0  0
 11  9  1  0  0  0  0
 13 14  1  1  0  0  0
 14  2  1  0  0  0  0
 15  6  1  1  0  0  0
 15 11  1  0  0  0  0
 16 17  1  0  0  0  0
 17  4  2  0  0  0  0
 18  6  1  6  0  0  0
 18 10  1  0  0  0  0
 19 24  1  6  0  0  0
 19  3  1  0  0  0  0
 19 15  1  0  0  0  0
 20 12  1  0  0  0  0
 21 23  1  1  0  0  0
 21 13  1  0  0  0  0
 22 23  1  0  0  0  0
 22 21  1  0  0  0  0
 25 24  1  0  0  0  0
 26 24  2  0  0  0  0
 27 28  2  0  0  0  0
 29 27  1  0  0  0  0
 30 29  1  0  0  0  0
 31 30  1  0  0  0  0
 32 35  1  0  0  0  0
 33 32  1  0  0  0  0
 34 32  2  0  0  0  0
 34 31  1  0  0  0  0
 36 34  1  0  0  0  0
M  END
>  <MODEL>
3

>  <REMARK>
 VINA RESULT:      -6.0      1.596      2.464
  Name = 
  7 active torsions:
  status: ('A' for Active; 'I' for Inactive)
    1  A    between atoms: C_1  and  C_21
    2  A    between atoms: C_2  and  C_24
    3  A    between atoms: C_2  and  C_36
    4  A    between atoms: O_7  and  C_23
    5  A    between atoms: O_7  and  C_36
    6  A    between atoms: C_14  and  C_34
    7  A    between atoms: C_15  and  C_23
                            x       y       z     vdW  Elec       q    Type
                         _______ _______ _______ _____ _____    ______ ____

>  <TORSDO>
F 7

$$$$
=
 OpenBabel11072414333D

 36 40  0  0  1  0  0  0  0  0999 V2000
  160.8800  201.8290  151.2720 C   0  0  0  0  0  2  0  0  0  0  0  0
  160.7660  202.2710  147.1520 C   0  0  0  0  0  2  0  0  0  0  0  0
  162.1060  204.8730  146.8840 O   0  0  0  0  0  0  0  0  0  0  0  0
  160.8290  204.0530  153.1200 C   0  0  0  0  0  3  0  0  0  0  0  0
  160.7370  203.2510  150.7860 C   0  0  0  0  0  0  0  0  0  0  0  0
  160.2120  205.8750  149.8140 O   0  0  0  0  0  0  0  0  0  0  0  0
  161.5800  207.3860  154.1960 O   0  0  0  0  0  0  0  0  0  0  0  0
  161.2200  206.7370  151.9200 C   0  0  2  0  0  3  0  0  0  0  0  0
  161.5180  202.5910  148.4320 C   0  0  1  0  0  3  0  0  0  0  0  0
  160.6430  204.2570  151.6710 C   0  0  0  0  0  0  0  0  0  0  0  0
  160.6900  203.5690  149.3010 C   0  0  2  0  0  3  0  0  0  0  0  0
  160.9130  200.8350  150.1210 C   0  0  0  0  0  2  0  0  0  0  0  0
  161.5080  204.2370  145.7820 C   0  0  2  0  0  3  0  0  0  0  0  0
  161.5740  202.7240  145.9460 C   0  0  0  0  0  2  0  0  0  0  0  0
  161.0890  205.0490  149.0760 C   0  0  1  0  0  3  0  0  0  0  0  0
  161.3020  206.4500  153.3980 C   0  0  0  0  0  0  0  0  0  0  0  0
  161.1130  205.0820  153.9250 C   0  0  0  0  0  3  0  0  0  0  0  0
  160.3740  205.6720  151.2060 C   0  0  2  0  0  3  0  0  0  0  0  0
  161.0500  205.4650  147.5920 C   0  0  1  0  0  3  0  0  0  0  0  0
  161.9560  201.2940  149.1170 C   0  0  0  0  0  2  0  0  0  0  0  0
  162.1610  204.6280  144.4470 C   0  0  1  0  0  3  0  0  0  0  0  0
  161.1890  204.7060  143.4280 O   0  0  0  0  0  0  0  0  0  0  0  0
  161.6850  205.9330  143.9200 C   0  0  0  0  0  2  0  0  0  0  0  0
  161.1040  206.9590  147.4250 C   0  0  0  0  0  0  0  0  0  0  0  0
  160.1480  207.5920  146.6430 O   0  0  0  0  0  1  0  0  0  0  0  0
  162.0380  207.6880  148.0250 C   0  0  0  0  0  2  0  0  0  0  0  0
  162.5880  206.9010  151.3160 C   0  0  0  0  0  0  0  0  0  0  0  0
  163.3850  205.9240  151.2860 O   0  0  0  0  0  0  0  0  0  0  0  0
  162.9980  208.1340  150.7910 O   0  0  0  0  0  0  0  0  0  0  0  0
  162.2320  209.3280  150.9190 C   0  0  0  0  0  2  0  0  0  0  0  0
  162.6300  210.0840  152.1780 C   0  0  0  0  0  2  0  0  0  0  0  0
  161.5350  210.6850  154.2900 C   0  0  0  0  0  0  0  0  0  0  0  0
  160.4290  210.9320  155.0370 F   0  0  0  0  0  0  0  0  0  0  0  0
  161.4210  210.3980  152.9930 C   0  0  0  0  0  0  0  0  0  0  0  0
  162.7540  210.7030  154.8940 F   0  0  0  0  0  0  0  0  0  0  0  0
  160.1330  210.3350  152.3830 N   0  0  0  0  0  1  0  0  0  0  0  0
  3 19  1  0  0  0  0
  4 17  2  0  0  0  0
  5  1  1  0  0  0  0
  5 10  2  0  0  0  0
  8 27  1  6  0  0  0
  8 16  1  0  0  0  0
  9  2  1  6  0  0  0
  9 20  1  0  0  0  0
  9 11  1  0  0  0  0
 10  4  1  0  0  0  0
 11  5  1  1  0  0  0
 12  1  1  0  0  0  0
 13 14  1  1  0  0  0
 13  3  1  0  0  0  0
 14  2  1  0  0  0  0
 15 11  1  0  0  0  0
 15  6  1  1  0  0  0
 16 17  1  0  0  0  0
 16  7  2  0  0  0  0
 18  6  1  6  0  0  0
 18 10  1  0  0  0  0
 18  8  1  0  0  0  0
 19 24  1  1  0  0  0
 19 15  1  0  0  0  0
 20 12  1  0  0  0  0
 21 23  1  1  0  0  0
 21 13  1  0  0  0  0
 22 23  1  0  0  0  0
 22 21  1  0  0  0  0
 24 26  2  0  0  0  0
 25 24  1  0  0  0  0
 28 27  2  0  0  0  0
 29 30  1  0  0  0  0
 29 27  1  0  0  0  0
 30 31  1  0  0  0  0
 31 34  1  0  0  0  0
 32 35  1  0  0  0  0
 32 33  1  0  0  0  0
 34 32  2  0  0  0  0
 36 34  1  0  0  0  0
M  END
>  <MODEL>
4

>  <REMARK>
 VINA RESULT:      -5.2      4.043      7.650
  Name = 
  7 active torsions:
  status: ('A' for Active; 'I' for Inactive)
    1  A    between atoms: C_1  and  C_21
    2  A    between atoms: C_2  and  C_24
    3  A    between atoms: C_2  and  C_36
    4  A    between atoms: O_7  and  C_23
    5  A    between atoms: O_7  and  C_36
    6  A    between atoms: C_14  and  C_34
    7  A    between atoms: C_15  and  C_23
                            x       y       z     vdW  Elec       q    Type
                         _______ _______ _______ _____ _____    ______ ____

>  <TORSDO>
F 7

$$$$
=
 OpenBabel11072414333D

 36 40  0  0  1  0  0  0  0  0999 V2000
  161.5840  207.6050  148.8620 C   0  0  0  0  0  2  0  0  0  0  0  0
  161.6940  206.1160  152.7290 C   0  0  0  0  0  2  0  0  0  0  0  0
  160.5360  208.3930  154.1820 O   0  0  0  0  0  0  0  0  0  0  0  0
  161.8030  210.4180  148.2250 C   0  0  0  0  0  3  0  0  0  0  0  0
  161.8210  208.6380  149.9370 C   0  0  0  0  0  0  0  0  0  0  0  0
  162.5180  210.4920  151.9820 O   0  0  0  0  0  0  0  0  0  0  0  0
  161.2930  213.9170  148.7990 O   0  0  0  0  0  0  0  0  0  0  0  0
  161.5890  212.2820  150.5230 C   0  0  2  0  0  3  0  0  0  0  0  0
  160.9770  207.0320  151.7520 C   0  0  1  0  0  3  0  0  0  0  0  0
  161.9910  209.9280  149.6030 C   0  0  0  0  0  0  0  0  0  0  0  0
  161.8770  208.2420  151.4030 C   0  0  2  0  0  3  0  0  0  0  0  0
  161.4720  206.2010  149.4350 C   0  0  0  0  0  2  0  0  0  0  0  0
  161.0790  207.2880  154.8600 C   0  0  2  0  0  3  0  0  0  0  0  0
  160.9100  206.0230  154.0280 C   0  0  0  0  0  2  0  0  0  0  0  0
  161.5800  209.4800  152.2850 C   0  0  1  0  0  3  0  0  0  0  0  0
  161.4990  212.7050  149.0780 C   0  0  0  0  0  0  0  0  0  0  0  0
  161.5970  211.7170  147.9830 C   0  0  0  0  0  3  0  0  0  0  0  0
  162.3540  210.9550  150.6540 C   0  0  2  0  0  3  0  0  0  0  0  0
  161.6360  209.1720  153.7950 C   0  0  1  0  0  3  0  0  0  0  0  0
  160.4560  206.2200  150.5630 C   0  0  0  0  0  2  0  0  0  0  0  0
  160.4440  207.0700  156.2420 C   0  0  1  0  0  3  0  0  0  0  0  0
  161.3260  207.4870  157.2610 O   0  0  0  0  0  0  0  0  0  0  0  0
  160.2260  208.3320  156.9940 C   0  0  0  0  0  2  0  0  0  0  0  0
  161.6840  210.4260  154.6230 C   0  0  0  0  0  0  0  0  0  0  0  0
  162.8380  210.7310  155.3320 O   0  0  0  0  0  1  0  0  0  0  0  0
  160.6510  211.2590  154.6780 C   0  0  0  0  0  2  0  0  0  0  0  0
  160.2310  212.2420  151.1690 C   0  0  0  0  0  0  0  0  0  0  0  0
  159.6490  211.1370  151.3450 O   0  0  0  0  0  0  0  0  0  0  0  0
  159.5930  213.4220  151.5730 O   0  0  0  0  0  0  0  0  0  0  0  0
  158.2450  213.7340  151.2360 C   0  0  0  0  0  2  0  0  0  0  0  0
  158.1830  214.4530  149.8960 C   0  0  0  0  0  2  0  0  0  0  0  0
  157.5310  213.3620  147.7970 C   0  0  0  0  0  0  0  0  0  0  0  0
  156.6070  212.8020  146.9760 F   0  0  0  0  0  0  0  0  0  0  0  0
  157.1800  213.7990  149.0070 C   0  0  0  0  0  0  0  0  0  0  0  0
  158.8100  213.4980  147.3520 F   0  0  0  0  0  0  0  0  0  0  0  0
  155.8260  213.6930  149.4430 N   0  0  0  0  0  1  0  0  0  0  0  0
  1 12  1  0  0  0  0
  1  5  1  0  0  0  0
  2 14  1  0  0  0  0
  3 13  1  0  0  0  0
  4 10  1  0  0  0  0
  7 16  2  0  0  0  0
  8 18  1  0  0  0  0
  8 27  1  6  0  0  0
  9 20  1  6  0  0  0
  9  2  1  0  0  0  0
 10  5  2  0  0  0  0
 11  5  1  6  0  0  0
 11  9  1  0  0  0  0
 11 15  1  0  0  0  0
 12 20  1  0  0  0  0
 13 14  1  6  0  0  0
 13 21  1  0  0  0  0
 15  6  1  1  0  0  0
 15 19  1  0  0  0  0
 16  8  1  0  0  0  0
 17  4  2  0  0  0  0
 17 16  1  0  0  0  0
 18 10  1  6  0  0  0
 18  6  1  0  0  0  0
 19  3  1  0  0  0  0
 19 24  1  1  0  0  0
 21 23  1  6  0  0  0
 21 22  1  0  0  0  0
 23 22  1  0  0  0  0
 24 26  2  0  0  0  0
 24 25  1  0  0  0  0
 27 28  2  0  0  0  0
 27 29  1  0  0  0  0
 30 29  1  0  0  0  0
 31 30  1  0  0  0  0
 32 34  2  0  0  0  0
 33 32  1  0  0  0  0
 34 36  1  0  0  0  0
 34 31  1  0  0  0  0
 35 32  1  0  0  0  0
M  END
>  <MODEL>
5

>  <REMARK>
 VINA RESULT:      -4.8      3.788      7.586
  Name = 
  7 active torsions:
  status: ('A' for Active; 'I' for Inactive)
    1  A    between atoms: C_1  and  C_21
    2  A    between atoms: C_2  and  C_24
    3  A    between atoms: C_2  and  C_36
    4  A    between atoms: O_7  and  C_23
    5  A    between atoms: O_7  and  C_36
    6  A    between atoms: C_14  and  C_34
    7  A    between atoms: C_15  and  C_23
                            x       y       z     vdW  Elec       q    Type
                         _______ _______ _______ _____ _____    ______ ____

>  <TORSDO>
F 7

$$$$
=
 OpenBabel11072414333D

 36 40  0  0  1  0  0  0  0  0999 V2000
  160.4890  207.8390  154.3010 C   0  0  0  0  0  2  0  0  0  0  0  0
  161.5060  211.0180  151.8420 C   0  0  0  0  0  2  0  0  0  0  0  0
  161.1870  209.7470  149.2120 O   0  0  0  0  0  0  0  0  0  0  0  0
  160.9340  205.0690  153.6000 C   0  0  0  0  0  3  0  0  0  0  0  0
  161.1860  207.4560  153.0180 C   0  0  0  0  0  0  0  0  0  0  0  0
  162.7270  206.8210  150.7100 O   0  0  0  0  0  0  0  0  0  0  0  0
  161.1540  202.2960  151.3430 O   0  0  0  0  0  0  0  0  0  0  0  0
  161.6920  204.5590  150.7770 C   0  0  2  0  0  3  0  0  0  0  0  0
  160.6810  209.7510  151.9860 C   0  0  1  0  0  3  0  0  0  0  0  0
  161.4440  206.1650  152.7540 C   0  0  0  0  0  0  0  0  0  0  0  0
  161.6110  208.5130  152.0130 C   0  0  2  0  0  3  0  0  0  0  0  0
  160.3400  209.3460  154.4400 C   0  0  0  0  0  2  0  0  0  0  0  0
  161.7320  211.0360  149.3440 C   0  0  2  0  0  3  0  0  0  0  0  0
  161.1350  211.7390  150.5560 C   0  0  0  0  0  2  0  0  0  0  0  0
  161.7780  207.8630  150.6170 C   0  0  1  0  0  3  0  0  0  0  0  0
  161.2460  203.4880  151.7410 C   0  0  0  0  0  0  0  0  0  0  0  0
  160.8660  203.8190  153.1310 C   0  0  0  0  0  3  0  0  0  0  0  0
  162.2510  205.7730  151.5350 C   0  0  2  0  0  3  0  0  0  0  0  0
  162.2290  208.8660  149.5350 C   0  0  1  0  0  3  0  0  0  0  0  0
  159.7160  209.8890  153.1670 C   0  0  0  0  0  2  0  0  0  0  0  0
  161.5070  211.9050  148.0970 C   0  0  1  0  0  3  0  0  0  0  0  0
  161.9630  213.2190  148.3240 O   0  0  0  0  0  0  0  0  0  0  0  0
  162.7690  212.4080  147.4960 C   0  0  0  0  0  2  0  0  0  0  0  0
  162.7090  208.1710  148.2910 C   0  0  0  0  0  0  0  0  0  0  0  0
  164.0680  208.1310  148.0130 O   0  0  0  0  0  1  0  0  0  0  0  0
  161.8590  207.5790  147.4580 C   0  0  0  0  0  2  0  0  0  0  0  0
  160.5950  204.9220  149.8140 C   0  0  0  0  0  0  0  0  0  0  0  0
  159.4700  205.2900  150.2510 O   0  0  0  0  0  0  0  0  0  0  0  0
  160.8010  204.8490  148.4310 O   0  0  0  0  0  0  0  0  0  0  0  0
  161.3350  203.6990  147.7820 C   0  0  0  0  0  2  0  0  0  0  0  0
  160.3870  202.5180  147.9270 C   0  0  0  0  0  2  0  0  0  0  0  0
  161.5160  200.3780  147.5160 C   0  0  0  0  0  0  0  0  0  0  0  0
  161.9350  199.3850  146.6920 F   0  0  0  0  0  0  0  0  0  0  0  0
  160.8140  201.4030  147.0330 C   0  0  0  0  0  0  0  0  0  0  0  0
  161.8510  200.3240  148.8340 F   0  0  0  0  0  0  0  0  0  0  0  0
  160.5090  201.4710  145.6410 N   0  0  0  0  0  1  0  0  0  0  0  0
  1 12  1  0  0  0  0
  3 13  1  0  0  0  0
  3 19  1  0  0  0  0
  5  1  1  0  0  0  0
  7 16  2  0  0  0  0
  8 27  1  1  0  0  0
  8 18  1  0  0  0  0
  8 16  1  0  0  0  0
  9  2  1  1  0  0  0
  9 11  1  0  0  0  0
  9 20  1  0  0  0  0
 10  5  2  0  0  0  0
 10  4  1  0  0  0  0
 11  5  1  1  0  0  0
 13 14  1  1  0  0  0
 14  2  1  0  0  0  0
 15  6  1  1  0  0  0
 15 11  1  0  0  0  0
 16 17  1  0  0  0  0
 17  4  2  0  0  0  0
 18  6  1  6  0  0  0
 18 10  1  0  0  0  0
 19 24  1  6  0  0  0
 19 15  1  0  0  0  0
 20 12  1  0  0  0  0
 21 23  1  6  0  0  0
 21 22  1  0  0  0  0
 21 13  1  0  0  0  0
 23 22  1  0  0  0  0
 25 24  1  0  0  0  0
 26 24  2  0  0  0  0
 27 28  2  0  0  0  0
 29 27  1  0  0  0  0
 30 31  1  0  0  0  0
 30 29  1  0  0  0  0
 32 35  1  0  0  0  0
 33 32  1  0  0  0  0
 34 32  2  0  0  0  0
 34 31  1  0  0  0  0
 36 34  1  0  0  0  0
M  END
>  <MODEL>
6

>  <REMARK>
 VINA RESULT:      -4.8      1.950      3.087
  Name = 
  7 active torsions:
  status: ('A' for Active; 'I' for Inactive)
    1  A    between atoms: C_1  and  C_21
    2  A    between atoms: C_2  and  C_24
    3  A    between atoms: C_2  and  C_36
    4  A    between atoms: O_7  and  C_23
    5  A    between atoms: O_7  and  C_36
    6  A    between atoms: C_14  and  C_34
    7  A    between atoms: C_15  and  C_23
                            x       y       z     vdW  Elec       q    Type
                         _______ _______ _______ _____ _____    ______ ____

>  <TORSDO>
F 7

$$$$
=
 OpenBabel11072414333D

 36 40  0  0  1  0  0  0  0  0999 V2000
  160.5230  207.0450  154.5350 C   0  0  0  0  0  2  0  0  0  0  0  0
  161.5650  210.5480  152.5800 C   0  0  0  0  0  2  0  0  0  0  0  0
  161.2060  209.6980  149.7900 O   0  0  0  0  0  0  0  0  0  0  0  0
  160.9230  204.4090  153.4150 C   0  0  0  0  0  3  0  0  0  0  0  0
  161.2030  206.8530  153.2010 C   0  0  0  0  0  0  0  0  0  0  0  0
  162.7160  206.5580  150.8080 O   0  0  0  0  0  0  0  0  0  0  0  0
  161.0830  202.0100  150.7590 O   0  0  0  0  0  0  0  0  0  0  0  0
  161.6490  204.3250  150.5400 C   0  0  2  0  0  3  0  0  0  0  0  0
  160.7230  209.2850  152.5370 C   0  0  1  0  0  3  0  0  0  0  0  0
  161.4400  205.6140  152.7400 C   0  0  0  0  0  0  0  0  0  0  0  0
  161.6360  208.0460  152.3650 C   0  0  2  0  0  3  0  0  0  0  0  0
  160.3970  208.5150  154.9040 C   0  0  0  0  0  2  0  0  0  0  0  0
  161.7700  210.9450  150.1110 C   0  0  2  0  0  3  0  0  0  0  0  0
  161.1940  211.4620  151.4230 C   0  0  0  0  0  2  0  0  0  0  0  0
  161.7810  207.6140  150.8850 C   0  0  1  0  0  3  0  0  0  0  0  0
  161.1960  203.1260  151.3330 C   0  0  0  0  0  0  0  0  0  0  0  0
  160.8320  203.2450  152.7610 C   0  0  0  0  0  3  0  0  0  0  0  0
  162.2320  205.4020  151.4680 C   0  0  2  0  0  3  0  0  0  0  0  0
  162.2380  208.7640  149.9640 C   0  0  1  0  0  3  0  0  0  0  0  0
  159.7700  209.2530  153.7350 C   0  0  0  0  0  2  0  0  0  0  0  0
  161.5470  211.9960  149.0130 C   0  0  1  0  0  3  0  0  0  0  0  0
  162.7730  212.5830  148.6370 O   0  0  0  0  0  0  0  0  0  0  0  0
  162.2140  211.6570  147.7300 C   0  0  0  0  0  2  0  0  0  0  0  0
  162.6970  208.2620  148.6230 C   0  0  0  0  0  0  0  0  0  0  0  0
  164.0090  208.4790  148.2270 O   0  0  0  0  0  1  0  0  0  0  0  0
  161.8770  207.5990  147.8150 C   0  0  0  0  0  2  0  0  0  0  0  0
  160.5490  204.8460  149.6550 C   0  0  0  0  0  0  0  0  0  0  0  0
  159.6690  205.6150  150.1300 O   0  0  0  0  0  0  0  0  0  0  0  0
  160.4810  204.4800  148.3050 O   0  0  0  0  0  0  0  0  0  0  0  0
  161.4340  203.6270  147.6790 C   0  0  0  0  0  2  0  0  0  0  0  0
  161.1090  203.4560  146.2020 C   0  0  0  0  0  2  0  0  0  0  0  0
  162.7530  205.0620  145.3430 C   0  0  0  0  0  0  0  0  0  0  0  0
  163.0820  206.2040  144.6890 F   0  0  0  0  0  0  0  0  0  0  0  0
  161.4780  204.6890  145.4480 C   0  0  0  0  0  0  0  0  0  0  0  0
  163.7430  204.3230  145.9150 F   0  0  0  0  0  0  0  0  0  0  0  0
  160.4460  205.4960  144.8850 N   0  0  0  0  0  1  0  0  0  0  0  0
  1 12  1  0  0  0  0
  3 19  1  0  0  0  0
  3 13  1  0  0  0  0
  5  1  1  0  0  0  0
  7 16  2  0  0  0  0
  8 27  1  1  0  0  0
  8 16  1  0  0  0  0
  8 18  1  0  0  0  0
  9  2  1  1  0  0  0
  9 20  1  0  0  0  0
 10  5  2  0  0  0  0
 10  4  1  0  0  0  0
 11  9  1  0  0  0  0
 11  5  1  1  0  0  0
 13 14  1  1  0  0  0
 14  2  1  0  0  0  0
 15  6  1  1  0  0  0
 15 11  1  0  0  0  0
 16 17  1  0  0  0  0
 17  4  2  0  0  0  0
 18  6  1  6  0  0  0
 18 10  1  0  0  0  0
 19 24  1  6  0  0  0
 19 15  1  0  0  0  0
 20 12  1  0  0  0  0
 21 23  1  6  0  0  0
 21 13  1  0  0  0  0
 22 21  1  0  0  0  0
 23 22  1  0  0  0  0
 25 24  1  0  0  0  0
 26 24  2  0  0  0  0
 27 28  2  0  0  0  0
 29 27  1  0  0  0  0
 30 29  1  0  0  0  0
 31 30  1  0  0  0  0
 32 34  2  0  0  0  0
 32 35  1  0  0  0  0
 33 32  1  0  0  0  0
 34 31  1  0  0  0  0
 36 34  1  0  0  0  0
M  END
>  <MODEL>
7

>  <REMARK>
 VINA RESULT:      -4.5      2.115      3.323
  Name = 
  7 active torsions:
  status: ('A' for Active; 'I' for Inactive)
    1  A    between atoms: C_1  and  C_21
    2  A    between atoms: C_2  and  C_24
    3  A    between atoms: C_2  and  C_36
    4  A    between atoms: O_7  and  C_23
    5  A    between atoms: O_7  and  C_36
    6  A    between atoms: C_14  and  C_34
    7  A    between atoms: C_15  and  C_23
                            x       y       z     vdW  Elec       q    Type
                         _______ _______ _______ _____ _____    ______ ____

>  <TORSDO>
F 7

$$$$
=
 OpenBabel11072414333D

 36 40  0  0  1  0  0  0  0  0999 V2000
  161.6020  211.1820  149.3630 C   0  0  0  0  0  2  0  0  0  0  0  0
  162.6800  207.4090  150.6990 C   0  0  0  0  0  2  0  0  0  0  0  0
  160.6740  207.0260  152.8120 O   0  0  0  0  0  0  0  0  0  0  0  0
  160.3990  213.1940  151.0570 C   0  0  0  0  0  3  0  0  0  0  0  0
  161.3870  210.9410  150.8380 C   0  0  0  0  0  0  0  0  0  0  0  0
  161.2470  210.5120  153.6480 O   0  0  0  0  0  0  0  0  0  0  0  0
  158.3120  214.3500  153.7280 O   0  0  0  0  0  0  0  0  0  0  0  0
  159.4750  212.2580  153.7150 C   0  0  2  0  0  3  0  0  0  0  0  0
  161.5460  208.4010  150.5090 C   0  0  1  0  0  3  0  0  0  0  0  0
  160.8940  211.9210  151.6130 C   0  0  0  0  0  0  0  0  0  0  0  0
  161.7280  209.6020  151.4690 C   0  0  2  0  0  3  0  0  0  0  0  0
  162.2190  209.9750  148.6730 C   0  0  0  0  0  2  0  0  0  0  0  0
  161.7260  206.1140  152.6240 C   0  0  2  0  0  3  0  0  0  0  0  0
  162.1290  206.0670  151.1550 C   0  0  0  0  0  2  0  0  0  0  0  0
  160.9340  209.4350  152.7890 C   0  0  1  0  0  3  0  0  0  0  0  0
  159.0930  213.5830  153.1040 C   0  0  0  0  0  0  0  0  0  0  0  0
  159.5780  213.9770  151.7650 C   0  0  0  0  0  3  0  0  0  0  0  0
  160.7890  211.7400  153.1120 C   0  0  2  0  0  3  0  0  0  0  0  0
  161.2350  208.1050  153.5100 C   0  0  1  0  0  3  0  0  0  0  0  0
  161.3990  208.7470  149.0250 C   0  0  0  0  0  2  0  0  0  0  0  0
  161.3710  204.6940  153.0930 C   0  0  1  0  0  3  0  0  0  0  0  0
  160.2770  204.1920  152.3590 O   0  0  0  0  0  0  0  0  0  0  0  0
  161.5470  203.6650  152.0370 C   0  0  0  0  0  2  0  0  0  0  0  0
  160.7320  208.1080  154.9270 C   0  0  0  0  0  0  0  0  0  0  0  0
  161.5880  208.4780  155.9530 O   0  0  0  0  0  1  0  0  0  0  0  0
  159.4770  207.7790  155.2150 C   0  0  0  0  0  2  0  0  0  0  0  0
  158.3500  211.2630  153.6140 C   0  0  0  0  0  0  0  0  0  0  0  0
  157.9740  210.8510  152.4830 O   0  0  0  0  0  0  0  0  0  0  0  0
  157.7050  210.7900  154.7630 O   0  0  0  0  0  0  0  0  0  0  0  0
  156.4460  211.2850  155.2090 C   0  0  0  0  0  2  0  0  0  0  0  0
  156.5280  211.7170  156.6660 C   0  0  0  0  0  2  0  0  0  0  0  0
  158.4320  213.2160  157.0560 C   0  0  0  0  0  0  0  0  0  0  0  0
  158.9750  214.4520  157.1830 F   0  0  0  0  0  0  0  0  0  0  0  0
  157.1390  213.0750  156.7660 C   0  0  0  0  0  0  0  0  0  0  0  0
  159.2220  212.1260  157.2590 F   0  0  0  0  0  0  0  0  0  0  0  0
  156.3110  214.2250  156.6010 N   0  0  0  0  0  1  0  0  0  0  0  0
  1  5  1  0  0  0  0
  2 14  1  0  0  0  0
  3 19  1  0  0  0  0
  4 10  1  0  0  0  0
  4 17  2  0  0  0  0
  5 10  2  0  0  0  0
  8 27  1  6  0  0  0
  9 20  1  6  0  0  0
  9  2  1  0  0  0  0
  9 11  1  0  0  0  0
 11  5  1  6  0  0  0
 11 15  1  0  0  0  0
 12 20  1  0  0  0  0
 12  1  1  0  0  0  0
 13 14  1  6  0  0  0
 13  3  1  0  0  0  0
 13 21  1  0  0  0  0
 15 19  1  0  0  0  0
 15  6  1  1  0  0  0
 16  8  1  0  0  0  0
 16  7  2  0  0  0  0
 17 16  1  0  0  0  0
 18 10  1  6  0  0  0
 18  6  1  0  0  0  0
 18  8  1  0  0  0  0
 19 24  1  1  0  0  0
 21 23  1  6  0  0  0
 22 21  1  0  0  0  0
 23 22  1  0  0  0  0
 24 26  2  0  0  0  0
 24 25  1  0  0  0  0
 27 29  1  0  0  0  0
 28 27  2  0  0  0  0
 29 30  1  0  0  0  0
 30 31  1  0  0  0  0
 31 34  1  0  0  0  0
 32 33  1  0  0  0  0
 32 35  1  0  0  0  0
 34 32  2  0  0  0  0
 36 34  1  0  0  0  0
M  END
>  <MODEL>
8

>  <REMARK>
 VINA RESULT:      -3.9      4.659      8.579
  Name = 
  7 active torsions:
  status: ('A' for Active; 'I' for Inactive)
    1  A    between atoms: C_1  and  C_21
    2  A    between atoms: C_2  and  C_24
    3  A    between atoms: C_2  and  C_36
    4  A    between atoms: O_7  and  C_23
    5  A    between atoms: O_7  and  C_36
    6  A    between atoms: C_14  and  C_34
    7  A    between atoms: C_15  and  C_23
                            x       y       z     vdW  Elec       q    Type
                         _______ _______ _______ _____ _____    ______ ____

>  <TORSDO>
F 7

$$$$
