=
 OpenBabel11072414073D

 57 62  0  0  1  0  0  0  0  0999 V2000
  161.7600  206.7520  154.1730 C   0  0  0  0  0  2  0  0  0  0  0  0
  158.4410  212.5230  152.4550 C   0  0  2  0  0  3  0  0  0  0  0  0
  160.0460  212.0610  150.6710 N   0  0  0  0  0  2  0  0  0  0  0  0
  160.9020  211.3180  151.5150 N   0  0  1  0  0  0  0  0  0  0  0  0
  160.1160  210.5570  152.5070 C   0  0  1  0  0  3  0  0  0  0  0  0
  160.9130  210.4770  153.8090 C   0  0  2  0  0  3  0  0  0  0  0  0
  161.7300  210.4100  150.6820 C   0  0  0  0  0  0  0  0  0  0  0  0
  162.6070  211.2500  149.7640 C   0  0  0  0  0  1  0  0  0  0  0  0
  158.6480  211.0160  152.6680 C   0  0  0  0  0  2  0  0  0  0  0  0
  161.1200  209.0650  154.2350 C   0  0  0  0  0  3  0  0  0  0  0  0
  161.6790  208.0910  153.5070 C   0  0  0  0  0  0  0  0  0  0  0  0
  162.7020  209.5510  151.5330 C   0  0  2  0  0  3  0  0  0  0  0  0
  162.1740  208.2540  152.1030 C   0  0  0  0  0  0  0  0  0  0  0  0
  162.2900  207.1790  151.3310 C   0  0  0  0  0  2  0  0  0  0  0  0
  159.4530  213.1300  151.4720 C   0  0  1  0  0  3  0  0  0  0  0  0
  163.4130  210.2950  152.4630 F   0  0  0  0  0  0  0  0  0  0  0  0
  160.3370  211.2110  154.8460 O   0  0  0  0  0  1  0  0  0  0  0  0
  160.8620  209.5240  149.7810 C   0  0  0  0  0  1  0  0  0  0  0  0
  157.6630  214.0540  147.7410 C   0  0  0  0  0  2  0  0  0  0  0  0
  156.8370  214.4530  148.9710 C   0  0  0  0  0  2  0  0  0  0  0  0
  157.3440  213.7550  150.2310 C   0  0  0  0  0  2  0  0  0  0  0  0
  159.6310  214.4260  149.2850 C   0  0  0  0  0  2  0  0  0  0  0  0
  159.1050  213.6480  148.0790 C   0  0  0  0  0  2  0  0  0  0  0  0
  158.7930  214.1640  150.5520 C   0  0  0  0  0  3  0  0  0  0  0  0
  158.4560  213.2730  153.7810 C   0  0  0  0  0  2  0  0  0  0  0  0
  157.1090  213.7130  154.1190 N   0  0  0  0  0  2  0  0  0  0  0  0
  157.0850  213.9800  155.5490 C   0  0  0  0  0  2  0  0  0  0  0  0
  155.7140  213.6520  156.1090 C   0  0  0  0  0  2  0  0  0  0  0  0
  155.5290  212.2670  156.1250 O   0  0  0  0  0  1  0  0  0  0  0  0
  160.7850  205.7740  153.5360 C   0  0  0  0  0  2  0  0  0  0  0  0
  161.5180  204.7100  152.8650 N   0  0  0  0  0  2  0  0  0  0  0  0
  160.8670  203.5350  152.3760 C   0  0  0  0  0  0  0  0  0  0  0  0
  159.6650  203.3010  152.6780 O   0  0  0  0  0  0  0  0  0  0  0  0
  161.2920  201.2070  151.7300 N   0  0  0  0  0  2  0  0  0  0  0  0
  159.9430  203.1640  149.6600 C   0  0  0  0  0  1  0  0  0  0  0  0
  161.6130  202.6080  151.4640 C   0  0  1  0  0  3  0  0  0  0  0  0
  161.8560  201.5200  149.4130 C   0  0  2  0  0  3  0  0  0  0  0  0
  161.3710  200.5150  150.4440 C   0  0  0  0  0  2  0  0  0  0  0  0
  161.4140  202.8650  149.9720 C   0  0  1  0  0  3  0  0  0  0  0  0
  161.1970  199.5260  146.2210 C   0  0  0  0  0  0  0  0  0  0  0  0
  161.5230  201.1620  147.9720 C   0  0  0  0  0  0  0  0  0  0  0  0
  160.7820  201.7900  145.7830 N   0  0  0  0  0  0  0  0  0  0  0  0
  161.2260  198.1170  145.7490 C   0  0  0  0  0  1  0  0  0  0  0  0
  161.0980  202.1480  147.0610 C   0  0  0  0  0  0  0  0  0  0  0  0
  161.5380  199.8320  147.5340 C   0  0  0  0  0  3  0  0  0  0  0  0
  160.8330  200.5220  145.3750 N   0  0  0  0  0  0  0  0  0  0  0  0
  160.9750  203.5150  147.4690 N   0  0  0  0  0  2  0  0  0  0  0  0
  161.4900  205.7000  143.7230 C   0  0  0  0  0  2  0  0  0  0  0  0
  162.4580  204.3970  145.7000 C   0  0  1  0  0  3  0  0  0  0  0  0
  163.7110  204.2400  146.5470 C   0  0  0  0  0  1  0  0  0  0  0  0
  161.2200  205.9600  147.2980 C   0  0  0  0  0  0  0  0  0  0  0  0
  161.6970  206.0270  148.4620 O   0  0  0  0  0  0  0  0  0  0  0  0
  160.6410  207.1370  146.7120 N   0  0  0  0  0  2  0  0  0  0  0  0
  161.2150  204.6380  146.5680 C   0  0  2  0  0  3  0  0  0  0  0  0
  160.6040  207.4760  145.2870 C   0  0  0  0  0  2  0  0  0  0  0  0
  160.2480  206.2810  144.4100 C   0  0  0  0  0  2  0  0  0  0  0  0
  162.6770  205.5080  144.6730 C   0  0  0  0  0  2  0  0  0  0  0  0
  2  9  1  0  0  0  0
  2 25  1  1  0  0  0
  3 15  1  0  0  0  0
  4  3  1  6  0  0  0
  4  5  1  0  0  0  0
  5  9  1  1  0  0  0
  5  6  1  0  0  0  0
  6 10  1  0  0  0  0
  6 17  1  1  0  0  0
  7  4  1  0  0  0  0
  7 12  1  0  0  0  0
  8  7  1  0  0  0  0
 11  1  1  0  0  0  0
 11 10  2  0  0  0  0
 12 13  1  0  0  0  0
 12 16  1  1  0  0  0
 13 11  1  0  0  0  0
 14 13  2  0  0  0  0
 15 24  1  6  0  0  0
 15  2  1  0  0  0  0
 18  7  1  0  0  0  0
 19 23  1  0  0  0  0
 19 20  1  0  0  0  0
 20 21  1  0  0  0  0
 21 24  1  0  0  0  0
 22 24  1  0  0  0  0
 23 22  1  0  0  0  0
 25 26  1  0  0  0  0
 26 27  1  0  0  0  0
 27 28  1  0  0  0  0
 28 29  1  0  0  0  0
 30  1  1  0  0  0  0
 31 30  1  0  0  0  0
 32 33  2  0  0  0  0
 32 31  1  0  0  0  0
 36 34  1  0  0  0  0
 36 32  1  1  0  0  0
 37 41  1  6  0  0  0
 37 39  1  0  0  0  0
 37 38  1  0  0  0  0
 38 34  1  0  0  0  0
 39 35  1  1  0  0  0
 39 36  1  0  0  0  0
 40 45  1  0  0  0  0
 42 44  2  0  0  0  0
 43 40  1  0  0  0  0
 44 47  1  0  0  0  0
 44 41  1  0  0  0  0
 45 41  2  0  0  0  0
 46 42  1  0  0  0  0
 46 40  2  0  0  0  0
 48 56  1  0  0  0  0
 48 57  1  0  0  0  0
 49 50  1  1  0  0  0
 49 54  1  0  0  0  0
 51 52  2  0  0  0  0
 53 51  1  0  0  0  0
 54 51  1  0  0  0  0
 54 47  1  1  0  0  0
 55 53  1  0  0  0  0
 56 55  1  0  0  0  0
 57 49  1  0  0  0  0
M  END
>  <MODEL>
1

>  <REMARK>
 VINA RESULT:       1.3      0.000      0.000
  Name = 
  12 active torsions:
  status: ('A' for Active; 'I' for Inactive)
    1  A    between atoms: C_1  and  C_46
    2  A    between atoms: N_3  and  C_27
    3  A    between atoms: N_3  and  C_53
    4  A    between atoms: N_6  and  C_35
    5  A    between atoms: C_16  and  C_23
    6  A    between atoms: C_17  and  C_33
    7  A    between atoms: C_17  and  C_35
    8  A    between atoms: C_19  and  C_26
    9  A    between atoms: N_22  and  C_26
   10  A    between atoms: N_22  and  C_46
   11  A    between atoms: C_29  and  C_31
   12  A    between atoms: C_44  and  C_50
                            x       y       z     vdW  Elec       q    Type
                         _______ _______ _______ _____ _____    ______ ____

>  <TORSDO>
F 12

$$$$
=
 OpenBabel11072414073D

 57 62  0  0  1  0  0  0  0  0999 V2000
  161.8590  205.5470  154.1110 C   0  0  0  0  0  2  0  0  0  0  0  0
  161.4150  202.7690  147.8380 C   0  0  2  0  0  3  0  0  0  0  0  0
  161.7450  205.1720  147.5360 N   0  0  0  0  0  2  0  0  0  0  0  0
  161.2000  205.4930  148.8000 N   0  0  1  0  0  0  0  0  0  0  0  0
  161.5470  204.4550  149.7910 C   0  0  1  0  0  3  0  0  0  0  0  0
  160.3930  204.3190  150.7850 C   0  0  2  0  0  3  0  0  0  0  0  0
  161.7110  206.8220  149.2200 C   0  0  0  0  0  0  0  0  0  0  0  0
  161.2230  207.8720  148.2310 C   0  0  0  0  0  1  0  0  0  0  0  0
  162.0510  203.1210  149.1900 C   0  0  0  0  0  2  0  0  0  0  0  0
  160.8530  204.5250  152.1860 C   0  0  0  0  0  3  0  0  0  0  0  0
  161.5020  205.5970  152.6580 C   0  0  0  0  0  0  0  0  0  0  0  0
  161.1610  207.2540  150.6060 C   0  0  2  0  0  3  0  0  0  0  0  0
  161.9050  206.7790  151.8330 C   0  0  0  0  0  0  0  0  0  0  0  0
  162.8980  207.5540  152.2590 C   0  0  0  0  0  2  0  0  0  0  0  0
  161.0200  204.0110  147.0240 C   0  0  1  0  0  3  0  0  0  0  0  0
  159.7880  207.0980  150.7180 F   0  0  0  0  0  0  0  0  0  0  0  0
  159.7200  203.1020  150.6750 O   0  0  0  0  0  1  0  0  0  0  0  0
  163.2430  206.8690  149.2000 C   0  0  0  0  0  1  0  0  0  0  0  0
  161.3780  205.7030  143.1530 C   0  0  0  0  0  2  0  0  0  0  0  0
  162.5920  204.8890  143.6170 C   0  0  0  0  0  2  0  0  0  0  0  0
  162.5580  204.6500  145.1250 C   0  0  0  0  0  2  0  0  0  0  0  0
  160.0930  204.1240  144.6530 C   0  0  0  0  0  2  0  0  0  0  0  0
  160.1450  205.5290  144.0520 C   0  0  0  0  0  2  0  0  0  0  0  0
  161.3230  203.8250  145.5320 C   0  0  0  0  0  3  0  0  0  0  0  0
  160.2230  201.8360  148.0160 C   0  0  0  0  0  2  0  0  0  0  0  0
  160.3340  200.7090  147.1000 N   0  0  0  0  0  2  0  0  0  0  0  0
  161.5920  200.0380  147.3870 C   0  0  0  0  0  2  0  0  0  0  0  0
  161.8300  198.9380  146.3710 C   0  0  0  0  0  2  0  0  0  0  0  0
  161.0270  199.1490  145.2470 O   0  0  0  0  0  1  0  0  0  0  0  0
  160.6600  205.9150  154.9730 C   0  0  0  0  0  2  0  0  0  0  0  0
  160.3070  207.3110  154.7600 N   0  0  0  0  0  2  0  0  0  0  0  0
  160.9880  208.3730  155.4320 C   0  0  0  0  0  0  0  0  0  0  0  0
  161.7920  208.1200  156.3710 O   0  0  0  0  0  0  0  0  0  0  0  0
  160.6300  209.8770  153.5270 N   0  0  0  0  0  2  0  0  0  0  0  0
  158.3660  209.5690  155.7000 C   0  0  0  0  0  1  0  0  0  0  0  0
  160.7720  209.7860  154.9790 C   0  0  1  0  0  3  0  0  0  0  0  0
  159.3780  211.6220  154.6120 C   0  0  2  0  0  3  0  0  0  0  0  0
  159.7040  210.9810  153.2730 C   0  0  0  0  0  2  0  0  0  0  0  0
  159.5830  210.4990  155.6190 C   0  0  1  0  0  3  0  0  0  0  0  0
  156.4690  213.8000  155.7910 C   0  0  0  0  0  0  0  0  0  0  0  0
  158.0840  212.4210  154.6340 C   0  0  0  0  0  0  0  0  0  0  0  0
  156.2020  213.3760  153.5030 N   0  0  0  0  0  0  0  0  0  0  0  0
  155.9840  214.4530  157.0350 C   0  0  0  0  0  1  0  0  0  0  0  0
  157.3440  212.6340  153.4540 C   0  0  0  0  0  0  0  0  0  0  0  0
  157.6370  213.0460  155.8040 C   0  0  0  0  0  3  0  0  0  0  0  0
  155.7750  213.9390  154.6340 N   0  0  0  0  0  0  0  0  0  0  0  0
  157.7930  212.0960  152.2050 N   0  0  0  0  0  2  0  0  0  0  0  0
  160.3710  213.5170  148.9800 C   0  0  0  0  0  2  0  0  0  0  0  0
  159.6270  213.5570  151.4270 C   0  0  1  0  0  3  0  0  0  0  0  0
  159.5560  214.4520  152.6550 C   0  0  0  0  0  1  0  0  0  0  0  0
  157.2180  213.9250  150.6570 C   0  0  0  0  0  0  0  0  0  0  0  0
  156.4560  214.4520  151.5110 O   0  0  0  0  0  0  0  0  0  0  0  0
  157.0390  214.2440  149.2690 N   0  0  0  0  0  2  0  0  0  0  0  0
  158.2640  212.9300  151.1040 C   0  0  2  0  0  3  0  0  0  0  0  0
  158.0790  214.2800  148.2380 C   0  0  0  0  0  2  0  0  0  0  0  0
  159.0420  213.1030  148.3370 C   0  0  0  0  0  2  0  0  0  0  0  0
  160.1970  214.3530  150.2530 C   0  0  0  0  0  2  0  0  0  0  0  0
  1 30  1  0  0  0  0
  2 25  1  1  0  0  0
  2  9  1  0  0  0  0
  4  3  1  6  0  0  0
  4  7  1  0  0  0  0
  4  5  1  0  0  0  0
  5  9  1  6  0  0  0
  5  6  1  0  0  0  0
  6 17  1  1  0  0  0
  6 10  1  0  0  0  0
  7 12  1  0  0  0  0
  8  7  1  0  0  0  0
 10 11  2  0  0  0  0
 11  1  1  0  0  0  0
 12 16  1  1  0  0  0
 12 13  1  0  0  0  0
 13 14  2  0  0  0  0
 13 11  1  0  0  0  0
 15 24  1  6  0  0  0
 15  3  1  0  0  0  0
 15  2  1  0  0  0  0
 18  7  1  0  0  0  0
 19 20  1  0  0  0  0
 19 23  1  0  0  0  0
 20 21  1  0  0  0  0
 21 24  1  0  0  0  0
 22 24  1  0  0  0  0
 23 22  1  0  0  0  0
 26 27  1  0  0  0  0
 26 25  1  0  0  0  0
 28 27  1  0  0  0  0
 29 28  1  0  0  0  0
 31 30  1  0  0  0  0
 31 32  1  0  0  0  0
 32 33  2  0  0  0  0
 34 36  1  0  0  0  0
 36 32  1  6  0  0  0
 36 39  1  0  0  0  0
 37 41  1  6  0  0  0
 37 39  1  0  0  0  0
 38 34  1  0  0  0  0
 38 37  1  0  0  0  0
 39 35  1  6  0  0  0
 40 45  1  0  0  0  0
 40 43  1  0  0  0  0
 41 45  2  0  0  0  0
 42 46  1  0  0  0  0
 44 42  2  0  0  0  0
 44 41  1  0  0  0  0
 46 40  2  0  0  0  0
 47 44  1  0  0  0  0
 48 57  1  0  0  0  0
 49 50  1  1  0  0  0
 51 54  1  0  0  0  0
 51 52  2  0  0  0  0
 53 51  1  0  0  0  0
 54 49  1  0  0  0  0
 54 47  1  1  0  0  0
 55 56  1  0  0  0  0
 55 53  1  0  0  0  0
 56 48  1  0  0  0  0
 57 49  1  0  0  0  0
M  END
>  <MODEL>
2

>  <REMARK>
 VINA RESULT:       1.7      2.171     10.597
  Name = 
  12 active torsions:
  status: ('A' for Active; 'I' for Inactive)
    1  A    between atoms: C_1  and  C_46
    2  A    between atoms: N_3  and  C_27
    3  A    between atoms: N_3  and  C_53
    4  A    between atoms: N_6  and  C_35
    5  A    between atoms: C_16  and  C_23
    6  A    between atoms: C_17  and  C_33
    7  A    between atoms: C_17  and  C_35
    8  A    between atoms: C_19  and  C_26
    9  A    between atoms: N_22  and  C_26
   10  A    between atoms: N_22  and  C_46
   11  A    between atoms: C_29  and  C_31
   12  A    between atoms: C_44  and  C_50
                            x       y       z     vdW  Elec       q    Type
                         _______ _______ _______ _____ _____    ______ ____

>  <TORSDO>
F 12

$$$$
=
 OpenBabel11072414073D

 57 62  0  0  1  0  0  0  0  0999 V2000
  161.5430  212.0000  148.3050 C   0  0  0  0  0  2  0  0  0  0  0  0
  159.1560  209.9550  154.4200 C   0  0  2  0  0  3  0  0  0  0  0  0
  157.8020  211.8670  153.7260 N   0  0  0  0  0  2  0  0  0  0  0  0
  158.8170  212.3940  152.8950 N   0  0  1  0  0  0  0  0  0  0  0  0
  159.5810  211.3030  152.2580 C   0  0  1  0  0  3  0  0  0  0  0  0
  161.0350  211.7490  152.1000 C   0  0  2  0  0  3  0  0  0  0  0  0
  158.1940  213.2740  151.8740 C   0  0  0  0  0  0  0  0  0  0  0  0
  157.5240  214.4460  152.5780 C   0  0  0  0  0  1  0  0  0  0  0  0
  159.3920  209.9100  152.9030 C   0  0  0  0  0  2  0  0  0  0  0  0
  161.4800  211.6650  150.6820 C   0  0  0  0  0  3  0  0  0  0  0  0
  160.8940  212.2530  149.6310 C   0  0  0  0  0  0  0  0  0  0  0  0
  159.2420  213.8970  150.9140 C   0  0  2  0  0  3  0  0  0  0  0  0
  159.6520  213.0860  149.7050 C   0  0  0  0  0  0  0  0  0  0  0  0
  158.9160  213.2440  148.6090 C   0  0  0  0  0  2  0  0  0  0  0  0
  158.4520  211.2420  154.8750 C   0  0  1  0  0  3  0  0  0  0  0  0
  160.3250  214.4530  151.5770 F   0  0  0  0  0  0  0  0  0  0  0  0
  161.9130  211.0400  152.9210 O   0  0  0  0  0  1  0  0  0  0  0  0
  157.1000  212.5410  151.0890 C   0  0  0  0  0  1  0  0  0  0  0  0
  155.1510  212.5720  157.1810 C   0  0  0  0  0  2  0  0  0  0  0  0
  154.9490  211.2220  156.4810 C   0  0  0  0  0  2  0  0  0  0  0  0
  155.9900  211.0020  155.3860 C   0  0  0  0  0  2  0  0  0  0  0  0
  157.5880  211.8930  157.1830 C   0  0  0  0  0  2  0  0  0  0  0  0
  156.6060  213.0640  157.1500 C   0  0  0  0  0  2  0  0  0  0  0  0
  157.4140  210.9590  155.9690 C   0  0  0  0  0  3  0  0  0  0  0  0
  160.4570  209.7480  155.1860 C   0  0  0  0  0  2  0  0  0  0  0  0
  160.7630  208.3270  155.2700 N   0  0  0  0  0  2  0  0  0  0  0  0
  161.6720  208.0130  154.1780 C   0  0  0  0  0  2  0  0  0  0  0  0
  161.9020  206.5150  154.1170 C   0  0  0  0  0  2  0  0  0  0  0  0
  160.8450  205.9010  153.4420 O   0  0  0  0  0  1  0  0  0  0  0  0
  162.8890  211.3160  148.4870 C   0  0  0  0  0  2  0  0  0  0  0  0
  162.8050  209.9310  148.0460 N   0  0  0  0  0  2  0  0  0  0  0  0
  162.3350  208.8910  148.9050 C   0  0  0  0  0  0  0  0  0  0  0  0
  162.1530  209.1130  150.1340 O   0  0  0  0  0  0  0  0  0  0  0  0
  163.2220  206.8130  147.9490 N   0  0  0  0  0  2  0  0  0  0  0  0
  161.6340  206.7080  150.6710 C   0  0  0  0  0  1  0  0  0  0  0  0
  162.0140  207.5460  148.3240 C   0  0  1  0  0  3  0  0  0  0  0  0
  161.4670  205.2910  148.5760 C   0  0  2  0  0  3  0  0  0  0  0  0
  162.9260  205.3960  148.1640 C   0  0  0  0  0  2  0  0  0  0  0  0
  161.1650  206.6410  149.2120 C   0  0  1  0  0  3  0  0  0  0  0  0
  160.2430  202.8760  151.2720 C   0  0  0  0  0  0  0  0  0  0  0  0
  161.1090  204.0140  149.3220 C   0  0  0  0  0  0  0  0  0  0  0  0
  160.8450  201.6350  149.3780 N   0  0  0  0  0  0  0  0  0  0  0  0
  159.7090  202.9140  152.6580 C   0  0  0  0  0  1  0  0  0  0  0  0
  161.1980  202.7580  148.6900 C   0  0  0  0  0  0  0  0  0  0  0  0
  160.5950  204.0550  150.6230 C   0  0  0  0  0  3  0  0  0  0  0  0
  160.3860  201.6900  150.6280 N   0  0  0  0  0  0  0  0  0  0  0  0
  161.6330  202.6540  147.3300 N   0  0  0  0  0  2  0  0  0  0  0  0
  158.6360  204.8260  145.0120 C   0  0  0  0  0  2  0  0  0  0  0  0
  159.9360  202.6860  145.5330 C   0  0  1  0  0  3  0  0  0  0  0  0
  160.4460  201.3970  144.9060 C   0  0  0  0  0  1  0  0  0  0  0  0
  162.1200  203.9970  145.3230 C   0  0  0  0  0  0  0  0  0  0  0  0
  163.1410  203.3040  145.0670 O   0  0  0  0  0  0  0  0  0  0  0  0
  162.0140  205.3170  144.7690 N   0  0  0  0  0  2  0  0  0  0  0  0
  161.0590  203.4500  146.2490 C   0  0  2  0  0  3  0  0  0  0  0  0
  160.7800  206.0190  144.4080 C   0  0  0  0  0  2  0  0  0  0  0  0
  159.6850  205.8520  145.4550 C   0  0  0  0  0  2  0  0  0  0  0  0
  159.2450  203.5310  144.4640 C   0  0  0  0  0  2  0  0  0  0  0  0
  1 30  1  0  0  0  0
  1 11  1  0  0  0  0
  2 15  1  0  0  0  0
  2 25  1  1  0  0  0
  3 15  1  0  0  0  0
  4  3  1  1  0  0  0
  5  4  1  0  0  0  0
  5  9  1  1  0  0  0
  6  5  1  0  0  0  0
  6 17  1  1  0  0  0
  7  8  1  0  0  0  0
  7  4  1  0  0  0  0
  9  2  1  0  0  0  0
 10  6  1  0  0  0  0
 11 13  1  0  0  0  0
 11 10  2  0  0  0  0
 12 16  1  1  0  0  0
 12  7  1  0  0  0  0
 13 12  1  0  0  0  0
 14 13  2  0  0  0  0
 15 24  1  1  0  0  0
 18  7  1  0  0  0  0
 20 19  1  0  0  0  0
 21 24  1  0  0  0  0
 21 20  1  0  0  0  0
 23 19  1  0  0  0  0
 23 22  1  0  0  0  0
 24 22  1  0  0  0  0
 25 26  1  0  0  0  0
 27 26  1  0  0  0  0
 28 27  1  0  0  0  0
 29 28  1  0  0  0  0
 31 30  1  0  0  0  0
 31 32  1  0  0  0  0
 32 33  2  0  0  0  0
 34 38  1  0  0  0  0
 34 36  1  0  0  0  0
 36 32  1  1  0  0  0
 36 39  1  0  0  0  0
 37 39  1  0  0  0  0
 37 41  1  1  0  0  0
 38 37  1  0  0  0  0
 39 35  1  1  0  0  0
 40 43  1  0  0  0  0
 41 45  2  0  0  0  0
 42 46  1  0  0  0  0
 44 41  1  0  0  0  0
 44 42  2  0  0  0  0
 45 40  1  0  0  0  0
 46 40  2  0  0  0  0
 47 44  1  0  0  0  0
 48 56  1  0  0  0  0
 49 50  1  6  0  0  0
 49 54  1  0  0  0  0
 51 54  1  0  0  0  0
 52 51  2  0  0  0  0
 53 51  1  0  0  0  0
 54 47  1  1  0  0  0
 55 53  1  0  0  0  0
 55 56  1  0  0  0  0
 57 48  1  0  0  0  0
 57 49  1  0  0  0  0
M  END
>  <MODEL>
3

>  <REMARK>
 VINA RESULT:       1.8      2.238      5.582
  Name = 
  12 active torsions:
  status: ('A' for Active; 'I' for Inactive)
    1  A    between atoms: C_1  and  C_46
    2  A    between atoms: N_3  and  C_27
    3  A    between atoms: N_3  and  C_53
    4  A    between atoms: N_6  and  C_35
    5  A    between atoms: C_16  and  C_23
    6  A    between atoms: C_17  and  C_33
    7  A    between atoms: C_17  and  C_35
    8  A    between atoms: C_19  and  C_26
    9  A    between atoms: N_22  and  C_26
   10  A    between atoms: N_22  and  C_46
   11  A    between atoms: C_29  and  C_31
   12  A    between atoms: C_44  and  C_50
                            x       y       z     vdW  Elec       q    Type
                         _______ _______ _______ _____ _____    ______ ____

>  <TORSDO>
F 12

$$$$
=
 OpenBabel11072414073D

 57 62  0  0  1  0  0  0  0  0999 V2000
  161.7690  207.8740  153.9740 C   0  0  0  0  0  2  0  0  0  0  0  0
  160.3460  205.6270  147.6340 C   0  0  2  0  0  3  0  0  0  0  0  0
  160.4990  203.6590  149.0740 N   0  0  0  0  0  2  0  0  0  0  0  0
  161.3400  204.3020  150.0110 N   0  0  1  0  0  0  0  0  0  0  0  0
  160.9750  205.7280  150.1370 C   0  0  1  0  0  3  0  0  0  0  0  0
  162.2440  206.5370  150.4090 C   0  0  2  0  0  3  0  0  0  0  0  0
  161.2260  203.6060  151.3170 C   0  0  0  0  0  0  0  0  0  0  0  0
  161.7280  202.1770  151.1580 C   0  0  0  0  0  1  0  0  0  0  0  0
  160.0820  206.2770  149.0000 C   0  0  0  0  0  2  0  0  0  0  0  0
  162.1250  207.3320  151.6630 C   0  0  0  0  0  3  0  0  0  0  0  0
  161.8340  206.8540  152.8800 C   0  0  0  0  0  0  0  0  0  0  0  0
  162.1200  204.2520  152.4090 C   0  0  2  0  0  3  0  0  0  0  0  0
  161.5460  205.4170  153.1840 C   0  0  0  0  0  0  0  0  0  0  0  0
  160.8520  205.1160  154.2770 C   0  0  0  0  0  2  0  0  0  0  0  0
  160.8360  204.1760  147.7500 C   0  0  1  0  0  3  0  0  0  0  0  0
  163.4200  204.4800  151.9840 F   0  0  0  0  0  0  0  0  0  0  0  0
  162.5970  207.3680  149.3460 O   0  0  0  0  0  1  0  0  0  0  0  0
  159.7690  203.5170  151.7840 C   0  0  0  0  0  1  0  0  0  0  0  0
  160.7670  200.4670  145.6950 C   0  0  0  0  0  2  0  0  0  0  0  0
  159.4160  200.9140  146.2680 C   0  0  0  0  0  2  0  0  0  0  0  0
  159.5900  202.0240  147.3020 C   0  0  0  0  0  2  0  0  0  0  0  0
  161.2130  202.9520  145.5460 C   0  0  0  0  0  2  0  0  0  0  0  0
  161.8370  201.5680  145.7250 C   0  0  0  0  0  2  0  0  0  0  0  0
  160.2110  203.2830  146.6700 C   0  0  0  0  0  3  0  0  0  0  0  0
  161.3140  206.4620  146.8050 C   0  0  0  0  0  2  0  0  0  0  0  0
  162.6860  206.1630  147.1940 N   0  0  0  0  0  2  0  0  0  0  0  0
  163.3000  205.4340  146.0950 C   0  0  0  0  0  2  0  0  0  0  0  0
  162.6350  205.8200  144.7870 C   0  0  0  0  0  2  0  0  0  0  0  0
  162.1760  204.6750  144.1330 O   0  0  0  0  0  1  0  0  0  0  0  0
  160.3600  208.4350  154.1040 C   0  0  0  0  0  2  0  0  0  0  0  0
  160.1930  209.5670  153.2050 N   0  0  0  0  0  2  0  0  0  0  0  0
  160.8570  210.8130  153.4260 C   0  0  0  0  0  0  0  0  0  0  0  0
  161.4640  211.0270  154.5120 O   0  0  0  0  0  0  0  0  0  0  0  0
  161.3790  211.3050  151.0800 N   0  0  0  0  0  2  0  0  0  0  0  0
  158.3890  211.4670  152.0650 C   0  0  0  0  0  1  0  0  0  0  0  0
  160.8660  211.8450  152.3380 C   0  0  1  0  0  3  0  0  0  0  0  0
  159.7800  213.0530  150.6620 C   0  0  2  0  0  3  0  0  0  0  0  0
  160.6620  212.0010  150.0110 C   0  0  0  0  0  2  0  0  0  0  0  0
  159.5180  212.5040  152.0570 C   0  0  1  0  0  3  0  0  0  0  0  0
  156.2690  214.0600  149.5420 C   0  0  0  0  0  0  0  0  0  0  0  0
  158.6100  213.5170  149.8070 C   0  0  0  0  0  0  0  0  0  0  0  0
  157.7450  214.4000  147.7560 N   0  0  0  0  0  0  0  0  0  0  0  0
  154.8900  214.1350  150.0930 C   0  0  0  0  0  1  0  0  0  0  0  0
  158.8120  213.9670  148.4870 C   0  0  0  0  0  0  0  0  0  0  0  0
  157.3160  213.6000  150.3340 C   0  0  0  0  0  3  0  0  0  0  0  0
  156.5140  214.4430  148.2640 N   0  0  0  0  0  0  0  0  0  0  0  0
  160.1250  213.9920  147.9170 N   0  0  0  0  0  2  0  0  0  0  0  0
  159.3190  213.0900  143.7210 C   0  0  0  0  0  2  0  0  0  0  0  0
  159.8150  212.3320  146.1130 C   0  0  1  0  0  3  0  0  0  0  0  0
  160.4440  211.2050  146.9180 C   0  0  0  0  0  1  0  0  0  0  0  0
  161.8420  213.8870  146.1540 C   0  0  0  0  0  0  0  0  0  0  0  0
  162.7330  213.5880  146.9930 O   0  0  0  0  0  0  0  0  0  0  0  0
  162.2320  214.4520  144.8930 N   0  0  0  0  0  2  0  0  0  0  0  0
  160.3870  213.7000  146.5110 C   0  0  2  0  0  3  0  0  0  0  0  0
  161.5310  214.3070  143.6150 C   0  0  0  0  0  2  0  0  0  0  0  0
  160.0200  214.4530  143.7560 C   0  0  0  0  0  2  0  0  0  0  0  0
  159.9800  212.0420  144.6220 C   0  0  0  0  0  2  0  0  0  0  0  0
  1 30  1  0  0  0  0
  2 25  1  1  0  0  0
  2 15  1  0  0  0  0
  2  9  1  0  0  0  0
  4  3  1  6  0  0  0
  4  5  1  0  0  0  0
  4  7  1  0  0  0  0
  5  9  1  6  0  0  0
  5  6  1  0  0  0  0
  6 17  1  6  0  0  0
  6 10  1  0  0  0  0
  7 18  1  0  0  0  0
  7 12  1  0  0  0  0
  8  7  1  0  0  0  0
 10 11  2  0  0  0  0
 11 13  1  0  0  0  0
 11  1  1  0  0  0  0
 12 16  1  6  0  0  0
 12 13  1  0  0  0  0
 13 14  2  0  0  0  0
 15 24  1  6  0  0  0
 15  3  1  0  0  0  0
 19 23  1  0  0  0  0
 19 20  1  0  0  0  0
 20 21  1  0  0  0  0
 22 23  1  0  0  0  0
 22 24  1  0  0  0  0
 24 21  1  0  0  0  0
 25 26  1  0  0  0  0
 27 26  1  0  0  0  0
 28 27  1  0  0  0  0
 29 28  1  0  0  0  0
 31 32  1  0  0  0  0
 31 30  1  0  0  0  0
 32 33  2  0  0  0  0
 34 36  1  0  0  0  0
 36 32  1  1  0  0  0
 37 41  1  6  0  0  0
 37 39  1  0  0  0  0
 38 37  1  0  0  0  0
 38 34  1  0  0  0  0
 39 35  1  6  0  0  0
 39 36  1  0  0  0  0
 40 43  1  0  0  0  0
 40 45  1  0  0  0  0
 41 45  2  0  0  0  0
 42 46  1  0  0  0  0
 42 44  2  0  0  0  0
 44 41  1  0  0  0  0
 46 40  2  0  0  0  0
 47 44  1  0  0  0  0
 48 56  1  0  0  0  0
 48 57  1  0  0  0  0
 49 54  1  0  0  0  0
 49 50  1  1  0  0  0
 51 54  1  0  0  0  0
 51 52  2  0  0  0  0
 53 51  1  0  0  0  0
 54 47  1  1  0  0  0
 55 56  1  0  0  0  0
 55 53  1  0  0  0  0
 57 49  1  0  0  0  0
M  END
>  <MODEL>
4

>  <REMARK>
 VINA RESULT:       2.2      2.685      9.945
  Name = 
  12 active torsions:
  status: ('A' for Active; 'I' for Inactive)
    1  A    between atoms: C_1  and  C_46
    2  A    between atoms: N_3  and  C_27
    3  A    between atoms: N_3  and  C_53
    4  A    between atoms: N_6  and  C_35
    5  A    between atoms: C_16  and  C_23
    6  A    between atoms: C_17  and  C_33
    7  A    between atoms: C_17  and  C_35
    8  A    between atoms: C_19  and  C_26
    9  A    between atoms: N_22  and  C_26
   10  A    between atoms: N_22  and  C_46
   11  A    between atoms: C_29  and  C_31
   12  A    between atoms: C_44  and  C_50
                            x       y       z     vdW  Elec       q    Type
                         _______ _______ _______ _____ _____    ______ ____

>  <TORSDO>
F 12

$$$$
=
 OpenBabel11072414073D

 57 62  0  0  1  0  0  0  0  0999 V2000
  162.2850  208.5330  149.1630 C   0  0  0  0  0  2  0  0  0  0  0  0
  161.0100  201.7780  149.0340 C   0  0  2  0  0  3  0  0  0  0  0  0
  161.0770  202.5390  146.7130 N   0  0  0  0  0  2  0  0  0  0  0  0
  160.7320  203.8680  147.0470 N   0  0  1  0  0  0  0  0  0  0  0  0
  161.3310  204.2470  148.3430 C   0  0  1  0  0  3  0  0  0  0  0  0
  160.3800  205.2040  149.0630 C   0  0  2  0  0  3  0  0  0  0  0  0
  161.1920  204.7720  145.9630 C   0  0  0  0  0  0  0  0  0  0  0  0
  160.4540  204.4170  144.6800 C   0  0  0  0  0  1  0  0  0  0  0  0
  161.8360  203.0620  149.1990 C   0  0  0  0  0  2  0  0  0  0  0  0
  161.0550  206.4860  149.4070 C   0  0  0  0  0  3  0  0  0  0  0  0
  161.6810  207.3060  148.5530 C   0  0  0  0  0  0  0  0  0  0  0  0
  160.8530  206.2590  146.2520 C   0  0  2  0  0  3  0  0  0  0  0  0
  161.8350  207.0520  147.0860 C   0  0  0  0  0  0  0  0  0  0  0  0
  162.8160  207.6580  146.4250 C   0  0  0  0  0  2  0  0  0  0  0  0
  160.3770  201.6540  147.6400 C   0  0  1  0  0  3  0  0  0  0  0  0
  159.5380  206.4500  146.6480 F   0  0  0  0  0  0  0  0  0  0  0  0
  159.8050  204.6440  150.2040 O   0  0  0  0  0  1  0  0  0  0  0  0
  162.6880  204.5970  145.6800 C   0  0  0  0  0  1  0  0  0  0  0  0
  161.5130  198.9270  144.5970 C   0  0  0  0  0  2  0  0  0  0  0  0
  161.9980  198.5630  146.0060 C   0  0  0  0  0  2  0  0  0  0  0  0
  161.8950  199.7540  146.9560 C   0  0  0  0  0  2  0  0  0  0  0  0
  159.6020  200.0250  145.8390 C   0  0  0  0  0  2  0  0  0  0  0  0
  160.4730  200.0570  144.5820 C   0  0  0  0  0  2  0  0  0  0  0  0
  160.4340  200.2100  147.1230 C   0  0  0  0  0  3  0  0  0  0  0  0
  159.9500  201.6610  150.1230 C   0  0  0  0  0  2  0  0  0  0  0  0
  160.5390  201.0990  151.3300 N   0  0  0  0  0  2  0  0  0  0  0  0
  161.3070  202.1550  151.9720 C   0  0  0  0  0  2  0  0  0  0  0  0
  160.3860  203.2970  152.3570 C   0  0  0  0  0  2  0  0  0  0  0  0
  161.1270  204.3250  152.9450 O   0  0  0  0  0  1  0  0  0  0  0  0
  162.1580  208.4990  150.6790 C   0  0  0  0  0  2  0  0  0  0  0  0
  161.9390  209.8450  151.1880 N   0  0  0  0  0  2  0  0  0  0  0  0
  161.5280  210.9170  150.3380 C   0  0  0  0  0  0  0  0  0  0  0  0
  161.5220  210.7700  149.0840 O   0  0  0  0  0  0  0  0  0  0  0  0
  160.3380  213.0340  149.9880 N   0  0  0  0  0  2  0  0  0  0  0  0
  159.1650  210.9170  152.0080 C   0  0  0  0  0  1  0  0  0  0  0  0
  161.0580  212.2030  150.9510 C   0  0  1  0  0  3  0  0  0  0  0  0
  159.5190  213.4170  152.2180 C   0  0  2  0  0  3  0  0  0  0  0  0
  159.3190  213.7570  150.7500 C   0  0  0  0  0  2  0  0  0  0  0  0
  160.1840  212.0480  152.1930 C   0  0  1  0  0  3  0  0  0  0  0  0
  155.9190  214.0120  153.3510 C   0  0  0  0  0  0  0  0  0  0  0  0
  158.2950  213.6410  153.0930 C   0  0  0  0  0  0  0  0  0  0  0  0
  157.2610  213.7350  155.2500 N   0  0  0  0  0  0  0  0  0  0  0  0
  154.5770  214.2430  152.7570 C   0  0  0  0  0  1  0  0  0  0  0  0
  158.3830  213.5550  154.4960 C   0  0  0  0  0  0  0  0  0  0  0  0
  157.0300  213.8450  152.5300 C   0  0  0  0  0  3  0  0  0  0  0  0
  156.0690  213.9590  154.6980 N   0  0  0  0  0  0  0  0  0  0  0  0
  159.6310  213.2610  155.1330 N   0  0  0  0  0  2  0  0  0  0  0  0
  159.8340  208.9030  154.9490 C   0  0  0  0  0  2  0  0  0  0  0  0
  158.8950  211.0540  155.9660 C   0  0  1  0  0  3  0  0  0  0  0  0
  158.3100  211.6320  157.2460 C   0  0  0  0  0  1  0  0  0  0  0  0
  161.2830  211.8860  156.3350 C   0  0  0  0  0  0  0  0  0  0  0  0
  161.4150  212.7650  157.2290 O   0  0  0  0  0  0  0  0  0  0  0  0
  162.3270  210.9170  156.1500 N   0  0  0  0  0  2  0  0  0  0  0  0
  160.0640  211.9030  155.4450 C   0  0  2  0  0  3  0  0  0  0  0  0
  162.1680  209.5390  155.6780 C   0  0  0  0  0  2  0  0  0  0  0  0
  161.2020  209.4310  154.5040 C   0  0  0  0  0  2  0  0  0  0  0  0
  159.2920  209.5970  156.2030 C   0  0  0  0  0  2  0  0  0  0  0  0
  1 30  1  0  0  0  0
  2  9  1  0  0  0  0
  2 25  1  1  0  0  0
  3 15  1  0  0  0  0
  4  3  1  6  0  0  0
  4  5  1  0  0  0  0
  5  6  1  0  0  0  0
  5  9  1  1  0  0  0
  6 10  1  0  0  0  0
  6 17  1  1  0  0  0
  7 12  1  0  0  0  0
  7  4  1  0  0  0  0
  8  7  1  0  0  0  0
 11  1  1  0  0  0  0
 11 10  2  0  0  0  0
 12 16  1  1  0  0  0
 12 13  1  0  0  0  0
 13 11  1  0  0  0  0
 14 13  2  0  0  0  0
 15 24  1  6  0  0  0
 15  2  1  0  0  0  0
 18  7  1  0  0  0  0
 19 20  1  0  0  0  0
 20 21  1  0  0  0  0
 21 24  1  0  0  0  0
 22 24  1  0  0  0  0
 23 19  1  0  0  0  0
 23 22  1  0  0  0  0
 25 26  1  0  0  0  0
 26 27  1  0  0  0  0
 27 28  1  0  0  0  0
 28 29  1  0  0  0  0
 30 31  1  0  0  0  0
 32 31  1  0  0  0  0
 33 32  2  0  0  0  0
 34 38  1  0  0  0  0
 34 36  1  0  0  0  0
 36 32  1  6  0  0  0
 36 39  1  0  0  0  0
 37 41  1  1  0  0  0
 38 37  1  0  0  0  0
 39 35  1  6  0  0  0
 39 37  1  0  0  0  0
 40 46  2  0  0  0  0
 41 44  1  0  0  0  0
 43 40  1  0  0  0  0
 44 47  1  0  0  0  0
 44 42  2  0  0  0  0
 45 41  2  0  0  0  0
 45 40  1  0  0  0  0
 46 42  1  0  0  0  0
 48 57  1  0  0  0  0
 49 57  1  0  0  0  0
 49 50  1  1  0  0  0
 51 52  2  0  0  0  0
 53 51  1  0  0  0  0
 54 47  1  1  0  0  0
 54 49  1  0  0  0  0
 54 51  1  0  0  0  0
 55 53  1  0  0  0  0
 56 48  1  0  0  0  0
 56 55  1  0  0  0  0
M  END
>  <MODEL>
5

>  <REMARK>
 VINA RESULT:       2.3      2.213     11.482
  Name = 
  12 active torsions:
  status: ('A' for Active; 'I' for Inactive)
    1  A    between atoms: C_1  and  C_46
    2  A    between atoms: N_3  and  C_27
    3  A    between atoms: N_3  and  C_53
    4  A    between atoms: N_6  and  C_35
    5  A    between atoms: C_16  and  C_23
    6  A    between atoms: C_17  and  C_33
    7  A    between atoms: C_17  and  C_35
    8  A    between atoms: C_19  and  C_26
    9  A    between atoms: N_22  and  C_26
   10  A    between atoms: N_22  and  C_46
   11  A    between atoms: C_29  and  C_31
   12  A    between atoms: C_44  and  C_50
                            x       y       z     vdW  Elec       q    Type
                         _______ _______ _______ _____ _____    ______ ____

>  <TORSDO>
F 12

$$$$
