=
 OpenBabel11072414013D

 29 34  0  0  1  0  0  0  0  0999 V2000
  161.8980  207.3300  151.5470 C   0  0  1  0  0  3  0  0  0  0  0  0
  161.7120  204.9360  151.1230 N   0  0  0  0  0  0  0  0  0  0  0  0
  160.8400  203.9030  151.6440 C   0  0  0  0  0  2  0  0  0  0  0  0
  161.0750  205.4840  145.4120 C   0  0  0  0  0  2  0  0  0  0  0  0
  160.7690  203.1270  144.9310 N   0  0  0  0  0  1  0  0  0  0  0  0
  161.6370  206.4370  146.3640 N   0  0  0  0  0  2  0  0  0  0  0  0
  162.1030  205.8970  152.1510 C   0  0  2  0  0  3  0  0  0  0  0  0
  161.3650  205.6690  149.9630 C   0  0  0  0  0  0  0  0  0  0  0  0
  161.4170  207.0020  150.1790 C   0  0  0  0  0  0  0  0  0  0  0  0
  162.0330  203.7640  146.7880 O   0  0  0  0  0  0  0  0  0  0  0  0
  161.2450  205.5630  153.3660 C   0  0  0  0  0  2  0  0  0  0  0  0
  161.6580  203.8510  148.1520 C   0  0  1  0  0  3  0  0  0  0  0  0
  160.9170  204.0940  146.0020 C   0  0  1  0  0  3  0  0  0  0  0  0
  161.4080  205.2770  148.6130 C   0  0  0  0  0  0  0  0  0  0  0  0
  161.5710  207.8190  148.7260 S   0  0  0  0  0  0  0  0  0  0  0  0
  160.7560  204.1420  153.1400 C   0  0  0  0  0  2  0  0  0  0  0  0
  161.4510  206.4190  147.7840 C   0  0  0  0  0  0  0  0  0  0  0  0
  161.2430  208.2590  153.7220 N   0  0  0  0  0  2  0  0  0  0  0  0
  160.7330  210.5110  153.0350 C   0  0  0  0  0  2  0  0  0  0  0  0
  160.7660  209.5470  154.2090 C   0  0  2  0  0  3  0  0  0  0  0  0
  160.9110  208.2310  152.3050 C   0  0  1  0  0  3  0  0  0  0  0  0
  160.9710  209.6630  151.8130 C   0  0  0  0  0  2  0  0  0  0  0  0
  162.1320  208.9960  156.0790 F   0  0  0  0  0  0  0  0  0  0  0  0
  161.6630  210.0610  155.3320 C   0  0  0  0  0  0  0  0  0  0  0  0
  162.7430  210.7340  154.7890 F   0  0  0  0  0  0  0  0  0  0  0  0
  160.9610  210.9220  156.1560 F   0  0  0  0  0  0  0  0  0  0  0  0
  160.8730  201.5830  148.0600 C   0  0  0  0  0  2  0  0  0  0  0  0
  161.0840  201.9630  149.4420 C   0  0  0  0  0  2  0  0  0  0  0  0
  160.5450  202.9560  148.4970 N   0  0  0  0  0  0  0  0  0  0  0  0
  1  9  1  6  0  0  0
  1  7  1  0  0  0  0
  1 21  1  0  0  0  0
  2  3  1  0  0  0  0
  2  7  1  0  0  0  0
  3 16  1  0  0  0  0
  4 13  1  0  0  0  0
  4  6  1  0  0  0  0
  6 17  1  0  0  0  0
  7 11  1  1  0  0  0
  8  9  2  0  0  0  0
  8  2  1  0  0  0  0
 10 12  1  0  0  0  0
 12 29  1  6  0  0  0
 12 14  1  0  0  0  0
 13  5  1  6  0  0  0
 13 10  1  0  0  0  0
 14  8  1  0  0  0  0
 15  9  1  0  0  0  0
 16 11  1  0  0  0  0
 17 14  2  0  0  0  0
 17 15  1  0  0  0  0
 18 20  1  0  0  0  0
 19 20  1  0  0  0  0
 20 24  1  1  0  0  0
 21 22  1  6  0  0  0
 21 18  1  0  0  0  0
 22 19  1  0  0  0  0
 24 23  1  0  0  0  0
 24 26  1  0  0  0  0
 25 24  1  0  0  0  0
 27 29  1  0  0  0  0
 27 28  1  0  0  0  0
 29 28  1  0  0  0  0
M  END
>  <MODEL>
1

>  <REMARK>
 VINA RESULT:      -9.2      0.000      0.000
  Name = 
  3 active torsions:
  status: ('A' for Active; 'I' for Inactive)
    1  A    between atoms: C_1  and  C_12
    2  A    between atoms: C_7  and  C_9
    3  A    between atoms: C_20  and  N_29
                            x       y       z     vdW  Elec       q    Type
                         _______ _______ _______ _____ _____    ______ ____

>  <TORSDO>
F 3

$$$$
=
 OpenBabel11072414013D

 29 34  0  0  1  0  0  0  0  0999 V2000
  160.6140  206.8190  151.3260 C   0  0  1  0  0  3  0  0  0  0  0  0
  161.1690  206.4570  148.9800 N   0  0  0  0  0  0  0  0  0  0  0  0
  162.2690  206.8910  148.1440 C   0  0  0  0  0  2  0  0  0  0  0  0
  160.9710  200.6970  149.3000 C   0  0  0  0  0  2  0  0  0  0  0  0
  161.6280  200.2600  147.0080 N   0  0  0  0  0  1  0  0  0  0  0  0
  160.3730  201.6820  150.1960 N   0  0  0  0  0  2  0  0  0  0  0  0
  160.7450  207.4950  149.9170 C   0  0  2  0  0  3  0  0  0  0  0  0
  161.2290  205.2360  149.6940 C   0  0  0  0  0  0  0  0  0  0  0  0
  160.9690  205.4120  151.0080 C   0  0  0  0  0  0  0  0  0  0  0  0
  160.5160  202.2470  147.5230 O   0  0  0  0  0  0  0  0  0  0  0  0
  161.7950  208.5940  149.8050 C   0  0  0  0  0  2  0  0  0  0  0  0
  161.0380  203.5450  147.7520 C   0  0  1  0  0  3  0  0  0  0  0  0
  161.4470  201.3080  147.9950 C   0  0  1  0  0  3  0  0  0  0  0  0
  161.0870  203.9180  149.2230 C   0  0  0  0  0  0  0  0  0  0  0  0
  160.4890  203.9650  151.7010 S   0  0  0  0  0  0  0  0  0  0  0  0
  162.4970  208.3530  148.4800 C   0  0  0  0  0  2  0  0  0  0  0  0
  160.7370  203.0640  150.2910 C   0  0  0  0  0  0  0  0  0  0  0  0
  161.1300  208.7820  152.7060 N   0  0  0  0  0  2  0  0  0  0  0  0
  161.5160  207.6770  154.8110 C   0  0  0  0  0  2  0  0  0  0  0  0
  161.5040  209.0160  154.0950 C   0  0  2  0  0  3  0  0  0  0  0  0
  161.5130  207.4060  152.4250 C   0  0  1  0  0  3  0  0  0  0  0  0
  161.3770  206.6400  153.7270 C   0  0  0  0  0  2  0  0  0  0  0  0
  161.2310  211.0990  155.2150 F   0  0  0  0  0  0  0  0  0  0  0  0
  160.5360  209.9960  154.7530 C   0  0  0  0  0  0  0  0  0  0  0  0
  159.6020  210.4170  153.8240 F   0  0  0  0  0  0  0  0  0  0  0  0
  159.8820  209.3930  155.8120 F   0  0  0  0  0  0  0  0  0  0  0  0
  162.1590  203.5760  145.6270 C   0  0  0  0  0  2  0  0  0  0  0  0
  162.1370  204.9150  146.1790 C   0  0  0  0  0  2  0  0  0  0  0  0
  162.3270  203.7670  147.0820 N   0  0  0  0  0  0  0  0  0  0  0  0
  1  9  1  6  0  0  0
  1 21  1  0  0  0  0
  2  8  1  0  0  0  0
  2  7  1  0  0  0  0
  3 16  1  0  0  0  0
  3  2  1  0  0  0  0
  4  6  1  0  0  0  0
  6 17  1  0  0  0  0
  7 11  1  1  0  0  0
  7  1  1  0  0  0  0
  8  9  2  0  0  0  0
  9 15  1  0  0  0  0
 10 12  1  0  0  0  0
 10 13  1  0  0  0  0
 12 29  1  1  0  0  0
 12 14  1  0  0  0  0
 13  5  1  6  0  0  0
 13  4  1  0  0  0  0
 14  8  1  0  0  0  0
 14 17  2  0  0  0  0
 16 11  1  0  0  0  0
 17 15  1  0  0  0  0
 18 20  1  0  0  0  0
 20 24  1  1  0  0  0
 20 19  1  0  0  0  0
 21 18  1  0  0  0  0
 21 22  1  1  0  0  0
 22 19  1  0  0  0  0
 24 23  1  0  0  0  0
 24 26  1  0  0  0  0
 25 24  1  0  0  0  0
 27 28  1  0  0  0  0
 27 29  1  0  0  0  0
 28 29  1  0  0  0  0
M  END
>  <MODEL>
2

>  <REMARK>
 VINA RESULT:      -8.2      1.887      3.480
  Name = 
  3 active torsions:
  status: ('A' for Active; 'I' for Inactive)
    1  A    between atoms: C_1  and  C_12
    2  A    between atoms: C_7  and  C_9
    3  A    between atoms: C_20  and  N_29
                            x       y       z     vdW  Elec       q    Type
                         _______ _______ _______ _____ _____    ______ ____

>  <TORSDO>
F 3

$$$$
=
 OpenBabel11072414013D

 29 34  0  0  1  0  0  0  0  0999 V2000
  162.1370  206.5520  150.3540 C   0  0  1  0  0  3  0  0  0  0  0  0
  161.9920  208.8260  151.2220 N   0  0  0  0  0  0  0  0  0  0  0  0
  161.3430  210.0290  150.7430 C   0  0  0  0  0  2  0  0  0  0  0  0
  159.9050  207.2680  156.3730 C   0  0  0  0  0  2  0  0  0  0  0  0
  159.6290  209.5070  157.2590 N   0  0  0  0  0  1  0  0  0  0  0  0
  160.6320  206.4580  155.3990 N   0  0  0  0  0  2  0  0  0  0  0  0
  162.5730  208.0420  150.1330 C   0  0  2  0  0  3  0  0  0  0  0  0
  161.3220  207.9270  152.0850 C   0  0  0  0  0  0  0  0  0  0  0  0
  161.3470  206.6630  151.6080 C   0  0  0  0  0  0  0  0  0  0  0  0
  161.2800  209.1030  155.6580 O   0  0  0  0  0  0  0  0  0  0  0  0
  162.0700  208.6960  148.8520 C   0  0  0  0  0  2  0  0  0  0  0  0
  161.2570  209.3210  154.2580 C   0  0  1  0  0  3  0  0  0  0  0  0
  159.9840  208.7530  156.0720 C   0  0  1  0  0  3  0  0  0  0  0  0
  161.0460  208.0460  153.4590 C   0  0  0  0  0  0  0  0  0  0  0  0
  161.0820  205.5710  152.8490 S   0  0  0  0  0  0  0  0  0  0  0  0
  161.6250  210.0920  149.2530 C   0  0  0  0  0  2  0  0  0  0  0  0
  160.8110  206.7690  154.0130 C   0  0  0  0  0  0  0  0  0  0  0  0
  161.9270  206.2480  147.9280 N   0  0  0  0  0  2  0  0  0  0  0  0
  161.2950  203.9240  147.8890 C   0  0  0  0  0  2  0  0  0  0  0  0
  161.5580  205.1550  147.0380 C   0  0  2  0  0  3  0  0  0  0  0  0
  161.3210  205.9270  149.2120 C   0  0  1  0  0  3  0  0  0  0  0  0
  161.2860  204.4150  149.3130 C   0  0  0  0  0  2  0  0  0  0  0  0
  162.3690  203.7640  145.2840 F   0  0  0  0  0  0  0  0  0  0  0  0
  162.6610  204.9030  146.0130 C   0  0  0  0  0  0  0  0  0  0  0  0
  162.7390  205.9780  145.1460 F   0  0  0  0  0  0  0  0  0  0  0  0
  163.8810  204.7400  146.6440 F   0  0  0  0  0  0  0  0  0  0  0  0
  160.6200  211.6070  154.6310 C   0  0  0  0  0  2  0  0  0  0  0  0
  161.1380  211.4650  153.2860 C   0  0  0  0  0  2  0  0  0  0  0  0
  160.3220  210.3830  153.8610 N   0  0  0  0  0  0  0  0  0  0  0  0
  1  9  1  1  0  0  0
  2  8  1  0  0  0  0
  3  2  1  0  0  0  0
  6  4  1  0  0  0  0
  7 11  1  6  0  0  0
  7  1  1  0  0  0  0
  7  2  1  0  0  0  0
  8 14  1  0  0  0  0
  9  8  2  0  0  0  0
  9 15  1  0  0  0  0
 10 13  1  0  0  0  0
 11 16  1  0  0  0  0
 12 29  1  1  0  0  0
 12 10  1  0  0  0  0
 13  4  1  0  0  0  0
 13  5  1  1  0  0  0
 14 17  2  0  0  0  0
 14 12  1  0  0  0  0
 15 17  1  0  0  0  0
 16  3  1  0  0  0  0
 17  6  1  0  0  0  0
 18 21  1  0  0  0  0
 19 22  1  0  0  0  0
 20 24  1  6  0  0  0
 20 19  1  0  0  0  0
 20 18  1  0  0  0  0
 21 22  1  1  0  0  0
 21  1  1  0  0  0  0
 23 24  1  0  0  0  0
 24 26  1  0  0  0  0
 25 24  1  0  0  0  0
 28 29  1  0  0  0  0
 28 27  1  0  0  0  0
 29 27  1  0  0  0  0
M  END
>  <MODEL>
3

>  <REMARK>
 VINA RESULT:      -8.0      4.468      8.355
  Name = 
  3 active torsions:
  status: ('A' for Active; 'I' for Inactive)
    1  A    between atoms: C_1  and  C_12
    2  A    between atoms: C_7  and  C_9
    3  A    between atoms: C_20  and  N_29
                            x       y       z     vdW  Elec       q    Type
                         _______ _______ _______ _____ _____    ______ ____

>  <TORSDO>
F 3

$$$$
=
 OpenBabel11072414013D

 29 34  0  0  1  0  0  0  0  0999 V2000
  160.6570  205.1290  148.8800 C   0  0  1  0  0  3  0  0  0  0  0  0
  160.4680  205.1650  151.3110 N   0  0  0  0  0  0  0  0  0  0  0  0
  161.0220  204.3330  152.3590 C   0  0  0  0  0  2  0  0  0  0  0  0
  162.2340  210.6320  151.8720 C   0  0  0  0  0  2  0  0  0  0  0  0
  162.1780  210.7030  154.2950 N   0  0  0  0  0  1  0  0  0  0  0  0
  161.6940  209.9630  150.6920 N   0  0  0  0  0  2  0  0  0  0  0  0
  160.0810  204.3870  150.1360 C   0  0  2  0  0  3  0  0  0  0  0  0
  161.1520  206.3170  150.8540 C   0  0  0  0  0  0  0  0  0  0  0  0
  161.3110  206.3050  149.5120 C   0  0  0  0  0  0  0  0  0  0  0  0
  160.7360  209.2620  153.1570 O   0  0  0  0  0  0  0  0  0  0  0  0
  160.6230  202.9850  150.3820 C   0  0  0  0  0  2  0  0  0  0  0  0
  160.8630  207.8760  152.8920 C   0  0  1  0  0  3  0  0  0  0  0  0
  162.0190  209.8330  153.1450 C   0  0  1  0  0  3  0  0  0  0  0  0
  161.2860  207.5770  151.4640 C   0  0  0  0  0  0  0  0  0  0  0  0
  161.5810  207.8570  148.9470 S   0  0  0  0  0  0  0  0  0  0  0  0
  160.8730  202.9000  151.8780 C   0  0  0  0  0  2  0  0  0  0  0  0
  161.6100  208.5480  150.4910 C   0  0  0  0  0  0  0  0  0  0  0  0
  161.2060  202.9260  147.9490 N   0  0  0  0  0  2  0  0  0  0  0  0
  161.9000  203.6060  145.7450 C   0  0  0  0  0  2  0  0  0  0  0  0
  161.7220  202.4240  146.6820 C   0  0  2  0  0  3  0  0  0  0  0  0
  161.6380  204.3140  148.0250 C   0  0  1  0  0  3  0  0  0  0  0  0
  161.7000  204.8300  146.6010 C   0  0  0  0  0  2  0  0  0  0  0  0
  161.3820  200.1350  146.1250 F   0  0  0  0  0  0  0  0  0  0  0  0
  160.7780  201.3780  146.0950 C   0  0  0  0  0  0  0  0  0  0  0  0
  159.6190  201.3280  146.8470 F   0  0  0  0  0  0  0  0  0  0  0  0
  160.4560  201.6970  144.7880 F   0  0  0  0  0  0  0  0  0  0  0  0
  161.2100  207.4740  155.2350 C   0  0  0  0  0  2  0  0  0  0  0  0
  160.8310  206.2360  154.5850 C   0  0  0  0  0  2  0  0  0  0  0  0
  161.7070  207.1820  153.8750 N   0  0  0  0  0  0  0  0  0  0  0  0
  1  9  1  1  0  0  0
  1  7  1  0  0  0  0
  2  3  1  0  0  0  0
  4 13  1  0  0  0  0
  6  4  1  0  0  0  0
  7 11  1  1  0  0  0
  7  2  1  0  0  0  0
  8  2  1  0  0  0  0
  8 14  1  0  0  0  0
  9  8  2  0  0  0  0
 11 16  1  0  0  0  0
 12 10  1  0  0  0  0
 12 29  1  1  0  0  0
 13 10  1  0  0  0  0
 13  5  1  1  0  0  0
 14 12  1  0  0  0  0
 15  9  1  0  0  0  0
 15 17  1  0  0  0  0
 16  3  1  0  0  0  0
 17  6  1  0  0  0  0
 17 14  2  0  0  0  0
 18 21  1  0  0  0  0
 19 22  1  0  0  0  0
 19 20  1  0  0  0  0
 20 24  1  6  0  0  0
 20 18  1  0  0  0  0
 21 22  1  6  0  0  0
 21  1  1  0  0  0  0
 24 23  1  0  0  0  0
 24 25  1  0  0  0  0
 26 24  1  0  0  0  0
 28 27  1  0  0  0  0
 29 28  1  0  0  0  0
 29 27  1  0  0  0  0
M  END
>  <MODEL>
4

>  <REMARK>
 VINA RESULT:      -7.9      4.709      7.812
  Name = 
  3 active torsions:
  status: ('A' for Active; 'I' for Inactive)
    1  A    between atoms: C_1  and  C_12
    2  A    between atoms: C_7  and  C_9
    3  A    between atoms: C_20  and  N_29
                            x       y       z     vdW  Elec       q    Type
                         _______ _______ _______ _____ _____    ______ ____

>  <TORSDO>
F 3

$$$$
=
 OpenBabel11072414013D

 29 34  0  0  1  0  0  0  0  0999 V2000
  161.0260  210.3890  155.1590 C   0  0  1  0  0  3  0  0  0  0  0  0
  161.2760  208.0160  154.6580 N   0  0  0  0  0  0  0  0  0  0  0  0
  160.4690  206.8510  154.9580 C   0  0  0  0  0  2  0  0  0  0  0  0
  161.7840  208.7550  148.9560 C   0  0  0  0  0  2  0  0  0  0  0  0
  161.9240  206.4060  148.3740 N   0  0  0  0  0  1  0  0  0  0  0  0
  161.9920  209.7270  150.0250 N   0  0  0  0  0  2  0  0  0  0  0  0
  161.3010  208.9690  155.7650 C   0  0  2  0  0  3  0  0  0  0  0  0
  161.0810  208.7530  153.4650 C   0  0  0  0  0  0  0  0  0  0  0  0
  160.8960  210.0680  153.7140 C   0  0  0  0  0  0  0  0  0  0  0  0
  162.6650  207.1140  150.4720 O   0  0  0  0  0  0  0  0  0  0  0  0
  160.2630  208.4630  156.7600 C   0  0  0  0  0  2  0  0  0  0  0  0
  162.0030  207.0830  151.7250 C   0  0  1  0  0  3  0  0  0  0  0  0
  161.7040  207.3300  149.4710 C   0  0  1  0  0  3  0  0  0  0  0  0
  161.4610  208.4370  152.1490 C   0  0  0  0  0  0  0  0  0  0  0  0
  161.2350  210.9690  152.3440 S   0  0  0  0  0  0  0  0  0  0  0  0
  160.0390  207.0020  156.4060 C   0  0  0  0  0  2  0  0  0  0  0  0
  161.5160  209.6140  151.3710 C   0  0  0  0  0  0  0  0  0  0  0  0
  159.6790  212.4400  155.1200 N   0  0  0  0  0  2  0  0  0  0  0  0
  157.4820  211.4510  155.1150 C   0  0  0  0  0  2  0  0  0  0  0  0
  158.2570  212.7580  155.1290 C   0  0  2  0  0  3  0  0  0  0  0  0
  159.7850  211.1100  155.7040 C   0  0  1  0  0  3  0  0  0  0  0  0
  158.5090  210.3730  155.3470 C   0  0  0  0  0  2  0  0  0  0  0  0
  156.8290  214.4530  154.2590 F   0  0  0  0  0  0  0  0  0  0  0  0
  157.8960  213.6370  153.9330 C   0  0  0  0  0  0  0  0  0  0  0  0
  158.9790  214.4310  153.6020 F   0  0  0  0  0  0  0  0  0  0  0  0
  157.5570  212.8550  152.8430 F   0  0  0  0  0  0  0  0  0  0  0  0
  161.5710  204.7460  151.3730 C   0  0  0  0  0  2  0  0  0  0  0  0
  161.4690  205.0460  152.7870 C   0  0  0  0  0  2  0  0  0  0  0  0
  160.9820  206.0290  151.8040 N   0  0  0  0  0  0  0  0  0  0  0  0
  1  9  1  6  0  0  0
  1 21  1  0  0  0  0
  1  7  1  0  0  0  0
  2  3  1  0  0  0  0
  2  7  1  0  0  0  0
  3 16  1  0  0  0  0
  4 13  1  0  0  0  0
  4  6  1  0  0  0  0
  6 17  1  0  0  0  0
  7 11  1  1  0  0  0
  8  9  2  0  0  0  0
  8  2  1  0  0  0  0
 10 12  1  0  0  0  0
 12 29  1  6  0  0  0
 12 14  1  0  0  0  0
 13  5  1  6  0  0  0
 13 10  1  0  0  0  0
 14  8  1  0  0  0  0
 15  9  1  0  0  0  0
 16 11  1  0  0  0  0
 17 14  2  0  0  0  0
 17 15  1  0  0  0  0
 18 20  1  0  0  0  0
 18 21  1  0  0  0  0
 19 20  1  0  0  0  0
 19 22  1  0  0  0  0
 20 24  1  6  0  0  0
 21 22  1  6  0  0  0
 24 23  1  0  0  0  0
 25 24  1  0  0  0  0
 26 24  1  0  0  0  0
 27 29  1  0  0  0  0
 27 28  1  0  0  0  0
 29 28  1  0  0  0  0
M  END
>  <MODEL>
5

>  <REMARK>
 VINA RESULT:      -7.6      3.210      4.874
  Name = 
  3 active torsions:
  status: ('A' for Active; 'I' for Inactive)
    1  A    between atoms: C_1  and  C_12
    2  A    between atoms: C_7  and  C_9
    3  A    between atoms: C_20  and  N_29
                            x       y       z     vdW  Elec       q    Type
                         _______ _______ _______ _____ _____    ______ ____

>  <TORSDO>
F 3

$$$$
=
 OpenBabel11072414013D

 29 34  0  0  1  0  0  0  0  0999 V2000
  160.6470  205.8820  149.1570 C   0  0  1  0  0  3  0  0  0  0  0  0
  160.5410  205.5420  151.5700 N   0  0  0  0  0  0  0  0  0  0  0  0
  161.2040  204.6210  152.4690 C   0  0  0  0  0  2  0  0  0  0  0  0
  161.8250  211.0100  152.9040 C   0  0  0  0  0  2  0  0  0  0  0  0
  161.8480  210.7190  155.3100 N   0  0  0  0  0  1  0  0  0  0  0  0
  161.3070  210.4730  151.6480 N   0  0  0  0  0  2  0  0  0  0  0  0
  160.1850  204.9120  150.3000 C   0  0  2  0  0  3  0  0  0  0  0  0
  161.1020  206.8080  151.2750 C   0  0  0  0  0  0  0  0  0  0  0  0
  161.2150  207.0080  149.9430 C   0  0  0  0  0  0  0  0  0  0  0  0
  160.5030  209.3310  154.0000 O   0  0  0  0  0  0  0  0  0  0  0  0
  160.8590  203.5460  150.3220 C   0  0  0  0  0  2  0  0  0  0  0  0
  160.7450  208.0170  153.5280 C   0  0  1  0  0  3  0  0  0  0  0  0
  161.7280  210.0160  154.0470 C   0  0  1  0  0  3  0  0  0  0  0  0
  161.1430  207.9720  152.0630 C   0  0  0  0  0  0  0  0  0  0  0  0
  161.3230  208.6450  149.6110 S   0  0  0  0  0  0  0  0  0  0  0  0
  161.1670  203.2670  151.7840 C   0  0  0  0  0  2  0  0  0  0  0  0
  161.3440  209.1010  151.2400 C   0  0  0  0  0  0  0  0  0  0  0  0
  160.9910  204.4710  147.1790 N   0  0  0  0  0  2  0  0  0  0  0  0
  162.6230  205.8190  146.0290 C   0  0  0  0  0  2  0  0  0  0  0  0
  161.8290  204.5250  145.9880 C   0  0  2  0  0  3  0  0  0  0  0  0
  161.6670  205.2970  148.1690 C   0  0  1  0  0  3  0  0  0  0  0  0
  162.3940  206.3860  147.4060 C   0  0  0  0  0  2  0  0  0  0  0  0
  160.5480  203.1280  144.5470 F   0  0  0  0  0  0  0  0  0  0  0  0
  160.9740  204.4310  144.7260 C   0  0  0  0  0  0  0  0  0  0  0  0
  159.8650  205.2470  144.8590 F   0  0  0  0  0  0  0  0  0  0  0  0
  161.7000  204.8300  143.6190 F   0  0  0  0  0  0  0  0  0  0  0  0
  161.3100  207.4580  155.7960 C   0  0  0  0  0  2  0  0  0  0  0  0
  160.8820  206.2620  155.0980 C   0  0  0  0  0  2  0  0  0  0  0  0
  161.6820  207.2690  154.3790 N   0  0  0  0  0  0  0  0  0  0  0  0
  1  9  1  1  0  0  0
  1  7  1  0  0  0  0
  2  3  1  0  0  0  0
  4 13  1  0  0  0  0
  6  4  1  0  0  0  0
  7 11  1  6  0  0  0
  7  2  1  0  0  0  0
  8  2  1  0  0  0  0
  8 14  1  0  0  0  0
  9  8  2  0  0  0  0
 10 13  1  0  0  0  0
 11 16  1  0  0  0  0
 12 10  1  0  0  0  0
 12 29  1  1  0  0  0
 13  5  1  1  0  0  0
 14 12  1  0  0  0  0
 15  9  1  0  0  0  0
 15 17  1  0  0  0  0
 16  3  1  0  0  0  0
 17  6  1  0  0  0  0
 17 14  2  0  0  0  0
 18 21  1  0  0  0  0
 19 22  1  0  0  0  0
 20 24  1  6  0  0  0
 20 19  1  0  0  0  0
 20 18  1  0  0  0  0
 21 22  1  6  0  0  0
 21  1  1  0  0  0  0
 23 24  1  0  0  0  0
 24 25  1  0  0  0  0
 26 24  1  0  0  0  0
 28 27  1  0  0  0  0
 29 28  1  0  0  0  0
 29 27  1  0  0  0  0
M  END
>  <MODEL>
6

>  <REMARK>
 VINA RESULT:      -7.5      4.580      7.749
  Name = 
  3 active torsions:
  status: ('A' for Active; 'I' for Inactive)
    1  A    between atoms: C_1  and  C_12
    2  A    between atoms: C_7  and  C_9
    3  A    between atoms: C_20  and  N_29
                            x       y       z     vdW  Elec       q    Type
                         _______ _______ _______ _____ _____    ______ ____

>  <TORSDO>
F 3

$$$$
=
 OpenBabel11072414013D

 29 34  0  0  1  0  0  0  0  0999 V2000
  161.8010  205.0260  151.3410 C   0  0  1  0  0  3  0  0  0  0  0  0
  161.7960  207.3710  150.6700 N   0  0  0  0  0  0  0  0  0  0  0  0
  161.0830  208.1050  149.6450 C   0  0  0  0  0  2  0  0  0  0  0  0
  160.5140  209.3930  155.9230 C   0  0  0  0  0  2  0  0  0  0  0  0
  160.3810  211.7330  155.3040 N   0  0  0  0  0  1  0  0  0  0  0  0
  161.0820  208.0990  155.5560 N   0  0  0  0  0  2  0  0  0  0  0  0
  162.2010  206.0430  150.2150 C   0  0  2  0  0  3  0  0  0  0  0  0
  161.2630  207.2310  151.9740 C   0  0  0  0  0  0  0  0  0  0  0  0
  161.2120  205.9360  152.3580 C   0  0  0  0  0  0  0  0  0  0  0  0
  161.7680  210.3030  154.0870 O   0  0  0  0  0  0  0  0  0  0  0  0
  161.5110  205.8470  148.8710 C   0  0  0  0  0  2  0  0  0  0  0  0
  161.5320  209.6430  152.8540 C   0  0  1  0  0  3  0  0  0  0  0  0
  160.5490  210.3910  154.7790 C   0  0  1  0  0  3  0  0  0  0  0  0
  161.1990  208.1700  153.0190 C   0  0  0  0  0  0  0  0  0  0  0  0
  161.1360  205.8300  154.0270 S   0  0  0  0  0  0  0  0  0  0  0  0
  161.1350  207.2410  148.3990 C   0  0  0  0  0  2  0  0  0  0  0  0
  161.0480  207.5040  154.2540 C   0  0  0  0  0  0  0  0  0  0  0  0
  160.8290  203.7740  149.4680 N   0  0  0  0  0  2  0  0  0  0  0  0
  160.8330  201.5700  150.4400 C   0  0  0  0  0  2  0  0  0  0  0  0
  160.4580  202.3880  149.2160 C   0  0  2  0  0  3  0  0  0  0  0  0
  160.8200  203.9240  150.9160 C   0  0  1  0  0  3  0  0  0  0  0  0
  161.2060  202.5780  151.4970 C   0  0  0  0  0  2  0  0  0  0  0  0
  161.9590  202.8540  147.4280 F   0  0  0  0  0  0  0  0  0  0  0  0
  161.1510  201.8660  147.9590 C   0  0  0  0  0  0  0  0  0  0  0  0
  161.9370  200.7760  148.2850 F   0  0  0  0  0  0  0  0  0  0  0  0
  160.2150  201.4850  147.0140 F   0  0  0  0  0  0  0  0  0  0  0  0
  160.8330  211.7900  152.0340 C   0  0  0  0  0  2  0  0  0  0  0  0
  161.3100  210.9850  150.9280 C   0  0  0  0  0  2  0  0  0  0  0  0
  160.5500  210.3410  152.0130 N   0  0  0  0  0  0  0  0  0  0  0  0
  1  9  1  1  0  0  0
  2  8  1  0  0  0  0
  3  2  1  0  0  0  0
  6  4  1  0  0  0  0
  7 11  1  6  0  0  0
  7  2  1  0  0  0  0
  7  1  1  0  0  0  0
  8  9  2  0  0  0  0
  8 14  1  0  0  0  0
  9 15  1  0  0  0  0
 10 13  1  0  0  0  0
 12 29  1  1  0  0  0
 12 14  1  0  0  0  0
 12 10  1  0  0  0  0
 13  5  1  1  0  0  0
 13  4  1  0  0  0  0
 14 17  2  0  0  0  0
 15 17  1  0  0  0  0
 16 11  1  0  0  0  0
 16  3  1  0  0  0  0
 17  6  1  0  0  0  0
 18 21  1  0  0  0  0
 19 22  1  0  0  0  0
 20 24  1  6  0  0  0
 20 18  1  0  0  0  0
 20 19  1  0  0  0  0
 21  1  1  0  0  0  0
 21 22  1  1  0  0  0
 23 24  1  0  0  0  0
 24 25  1  0  0  0  0
 26 24  1  0  0  0  0
 28 29  1  0  0  0  0
 28 27  1  0  0  0  0
 29 27  1  0  0  0  0
M  END
>  <MODEL>
7

>  <REMARK>
 VINA RESULT:      -7.3      4.517      8.225
  Name = 
  3 active torsions:
  status: ('A' for Active; 'I' for Inactive)
    1  A    between atoms: C_1  and  C_12
    2  A    between atoms: C_7  and  C_9
    3  A    between atoms: C_20  and  N_29
                            x       y       z     vdW  Elec       q    Type
                         _______ _______ _______ _____ _____    ______ ____

>  <TORSDO>
F 3

$$$$
=
 OpenBabel11072414013D

 29 34  0  0  1  0  0  0  0  0999 V2000
  160.7990  207.9280  153.1290 C   0  0  1  0  0  3  0  0  0  0  0  0
  161.0630  207.8980  150.7050 N   0  0  0  0  0  0  0  0  0  0  0  0
  162.0350  208.4890  149.8080 C   0  0  0  0  0  2  0  0  0  0  0  0
  161.0930  202.1420  150.2720 C   0  0  0  0  0  2  0  0  0  0  0  0
  161.4680  202.0370  147.8790 N   0  0  0  0  0  1  0  0  0  0  0  0
  160.5810  202.9740  151.3570 N   0  0  0  0  0  2  0  0  0  0  0  0
  160.7290  208.7850  151.8180 C   0  0  2  0  0  3  0  0  0  0  0  0
  161.2530  206.6000  151.2360 C   0  0  0  0  0  0  0  0  0  0  0  0
  161.1550  206.5920  152.5840 C   0  0  0  0  0  0  0  0  0  0  0  0
  160.3670  203.8850  148.7870 O   0  0  0  0  0  0  0  0  0  0  0  0
  161.7200  209.9390  151.7280 C   0  0  0  0  0  2  0  0  0  0  0  0
  160.8720  205.1670  149.1230 C   0  0  1  0  0  3  0  0  0  0  0  0
  161.3800  202.9390  149.0120 C   0  0  1  0  0  3  0  0  0  0  0  0
  161.0950  205.3490  150.6140 C   0  0  0  0  0  0  0  0  0  0  0  0
  160.8140  205.0460  153.1300 S   0  0  0  0  0  0  0  0  0  0  0  0
  162.2570  209.9060  150.3070 C   0  0  0  0  0  2  0  0  0  0  0  0
  160.9100  204.3480  151.5920 C   0  0  0  0  0  0  0  0  0  0  0  0
  161.6290  209.8330  154.4340 N   0  0  0  0  0  2  0  0  0  0  0  0
  161.9390  208.7340  156.5550 C   0  0  0  0  0  2  0  0  0  0  0  0
  162.0830  210.0450  155.8020 C   0  0  2  0  0  3  0  0  0  0  0  0
  161.8090  208.4110  154.1800 C   0  0  1  0  0  3  0  0  0  0  0  0
  161.6180  207.7020  155.5060 C   0  0  0  0  0  2  0  0  0  0  0  0
  160.6900  211.9510  155.4960 F   0  0  0  0  0  0  0  0  0  0  0  0
  161.2840  211.1640  156.4650 C   0  0  0  0  0  0  0  0  0  0  0  0
  160.2940  210.6150  157.2600 F   0  0  0  0  0  0  0  0  0  0  0  0
  162.1100  211.9510  157.2480 F   0  0  0  0  0  0  0  0  0  0  0  0
  161.7630  205.3670  146.9010 C   0  0  0  0  0  2  0  0  0  0  0  0
  161.6660  206.6820  147.5010 C   0  0  0  0  0  2  0  0  0  0  0  0
  162.0590  205.5360  148.3380 N   0  0  0  0  0  0  0  0  0  0  0  0
  1  9  1  6  0  0  0
  1 21  1  0  0  0  0
  2  8  1  0  0  0  0
  2  7  1  0  0  0  0
  3 16  1  0  0  0  0
  3  2  1  0  0  0  0
  4  6  1  0  0  0  0
  6 17  1  0  0  0  0
  7 11  1  1  0  0  0
  7  1  1  0  0  0  0
  8  9  2  0  0  0  0
  9 15  1  0  0  0  0
 10 13  1  0  0  0  0
 10 12  1  0  0  0  0
 12 29  1  6  0  0  0
 12 14  1  0  0  0  0
 13  5  1  6  0  0  0
 13  4  1  0  0  0  0
 14  8  1  0  0  0  0
 14 17  2  0  0  0  0
 16 11  1  0  0  0  0
 17 15  1  0  0  0  0
 18 20  1  0  0  0  0
 20 24  1  1  0  0  0
 20 19  1  0  0  0  0
 21 18  1  0  0  0  0
 21 22  1  1  0  0  0
 22 19  1  0  0  0  0
 23 24  1  0  0  0  0
 24 26  1  0  0  0  0
 24 25  1  0  0  0  0
 27 28  1  0  0  0  0
 27 29  1  0  0  0  0
 28 29  1  0  0  0  0
M  END
>  <MODEL>
8

>  <REMARK>
 VINA RESULT:      -7.1      1.885      3.745
  Name = 
  3 active torsions:
  status: ('A' for Active; 'I' for Inactive)
    1  A    between atoms: C_1  and  C_12
    2  A    between atoms: C_7  and  C_9
    3  A    between atoms: C_20  and  N_29
                            x       y       z     vdW  Elec       q    Type
                         _______ _______ _______ _____ _____    ______ ____

>  <TORSDO>
F 3

$$$$
=
 OpenBabel11072414013D

 29 34  0  0  1  0  0  0  0  0999 V2000
  161.6750  209.8250  152.8550 C   0  0  1  0  0  3  0  0  0  0  0  0
  161.5220  207.4000  153.0540 N   0  0  0  0  0  0  0  0  0  0  0  0
  160.6160  206.5200  153.7630 C   0  0  0  0  0  2  0  0  0  0  0  0
  161.2960  206.4420  147.3660 C   0  0  0  0  0  2  0  0  0  0  0  0
  161.0280  204.0360  147.4910 N   0  0  0  0  0  1  0  0  0  0  0  0
  161.7870  207.6200  148.0750 N   0  0  0  0  0  2  0  0  0  0  0  0
  161.8380  208.6020  153.8230 C   0  0  2  0  0  3  0  0  0  0  0  0
  161.2590  207.8020  151.7220 C   0  0  0  0  0  0  0  0  0  0  0  0
  161.2940  209.1460  151.5890 C   0  0  0  0  0  0  0  0  0  0  0  0
  162.1540  205.1550  149.2030 O   0  0  0  0  0  0  0  0  0  0  0  0
  160.8960  208.5760  155.0200 C   0  0  0  0  0  2  0  0  0  0  0  0
  161.6830  205.5850  150.4690 C   0  0  1  0  0  3  0  0  0  0  0  0
  161.0970  205.2500  148.2840 C   0  0  1  0  0  3  0  0  0  0  0  0
  161.3990  207.0760  150.5260 C   0  0  0  0  0  0  0  0  0  0  0  0
  161.5520  209.5630  149.9880 S   0  0  0  0  0  0  0  0  0  0  0  0
  160.4250  207.1360  155.1370 C   0  0  0  0  0  2  0  0  0  0  0  0
  161.5000  207.9650  149.4350 C   0  0  0  0  0  0  0  0  0  0  0  0
  160.8420  212.1140  152.5530 N   0  0  0  0  0  2  0  0  0  0  0  0
  158.4750  211.6660  152.6020 C   0  0  0  0  0  2  0  0  0  0  0  0
  159.5320  212.7500  152.4890 C   0  0  2  0  0  3  0  0  0  0  0  0
  160.6360  210.8720  153.2840 C   0  0  1  0  0  3  0  0  0  0  0  0
  159.2230  210.4140  152.9800 C   0  0  0  0  0  2  0  0  0  0  0  0
  159.0960  212.6870  150.1490 F   0  0  0  0  0  0  0  0  0  0  0  0
  159.3850  213.5460  151.1940 C   0  0  0  0  0  0  0  0  0  0  0  0
  158.3480  214.4520  151.3240 F   0  0  0  0  0  0  0  0  0  0  0  0
  160.5530  214.2310  150.9110 F   0  0  0  0  0  0  0  0  0  0  0  0
  160.8810  203.3520  150.8470 C   0  0  0  0  0  2  0  0  0  0  0  0
  161.0400  204.0280  152.1190 C   0  0  0  0  0  2  0  0  0  0  0  0
  160.5490  204.7870  150.9560 N   0  0  0  0  0  0  0  0  0  0  0  0
  1  9  1  6  0  0  0
  1 21  1  0  0  0  0
  1  7  1  0  0  0  0
  2  3  1  0  0  0  0
  2  7  1  0  0  0  0
  3 16  1  0  0  0  0
  4  6  1  0  0  0  0
  4 13  1  0  0  0  0
  6 17  1  0  0  0  0
  7 11  1  1  0  0  0
  8  2  1  0  0  0  0
  9  8  2  0  0  0  0
 10 12  1  0  0  0  0
 11 16  1  0  0  0  0
 12 14  1  0  0  0  0
 12 29  1  6  0  0  0
 13  5  1  6  0  0  0
 13 10  1  0  0  0  0
 14  8  1  0  0  0  0
 15  9  1  0  0  0  0
 17 15  1  0  0  0  0
 17 14  2  0  0  0  0
 18 21  1  0  0  0  0
 19 22  1  0  0  0  0
 20 24  1  6  0  0  0
 20 18  1  0  0  0  0
 20 19  1  0  0  0  0
 21 22  1  6  0  0  0
 23 24  1  0  0  0  0
 24 25  1  0  0  0  0
 26 24  1  0  0  0  0
 27 29  1  0  0  0  0
 27 28  1  0  0  0  0
 29 28  1  0  0  0  0
M  END
>  <MODEL>
9

>  <REMARK>
 VINA RESULT:      -6.5      2.623      3.683
  Name = 
  3 active torsions:
  status: ('A' for Active; 'I' for Inactive)
    1  A    between atoms: C_1  and  C_12
    2  A    between atoms: C_7  and  C_9
    3  A    between atoms: C_20  and  N_29
                            x       y       z     vdW  Elec       q    Type
                         _______ _______ _______ _____ _____    ______ ____

>  <TORSDO>
F 3

$$$$
