=
 OpenBabel11072413133D

 34 37  0  0  1  0  0  0  0  0999 V2000
  161.9440  209.3050  149.9750 N   0  0  0  0  0  0  0  0  0  0  0  0
  161.8670  206.9320  150.2180 C   0  0  0  0  0  3  0  0  0  0  0  0
  161.7450  209.4770  151.3090 C   0  0  0  0  0  3  0  0  0  0  0  0
  161.5710  208.3700  152.1510 C   0  0  0  0  0  0  0  0  0  0  0  0
  161.6540  207.0770  151.5940 C   0  0  0  0  0  0  0  0  0  0  0  0
  161.1230  206.0370  153.7370 C   0  0  0  0  0  3  0  0  0  0  0  0
  161.5320  205.8910  152.4740 C   0  0  0  0  0  0  0  0  0  0  0  0
  162.0050  208.0660  149.4180 C   0  0  0  0  0  3  0  0  0  0  0  0
  160.6420  207.3650  154.2490 C   0  0  0  0  0  2  0  0  0  0  0  0
  161.4470  208.5270  153.6530 C   0  0  2  0  0  3  0  0  0  0  0  0
  161.9580  204.5390  152.0090 C   0  0  0  0  0  2  0  0  0  0  0  0
  160.8870  203.8980  151.3820 O   0  0  0  0  0  0  0  0  0  0  0  0
  160.7400  203.6480  149.0290 C   0  0  2  0  0  3  0  0  0  0  0  0
  161.4610  203.2360  150.2980 C   0  0  2  0  0  3  0  0  0  0  0  0
  160.4360  202.3120  149.6740 C   0  0  0  0  0  2  0  0  0  0  0  0
  161.6240  203.4460  147.8960 N   0  0  0  0  0  2  0  0  0  0  0  0
  161.5500  204.6470  147.0860 C   0  0  2  0  0  3  0  0  0  0  0  0
  161.7690  204.3020  145.6640 C   0  0  2  0  0  3  0  0  0  0  0  0
  162.7900  204.8590  146.4580 O   0  0  0  0  0  0  0  0  0  0  0  0
  160.1970  206.1980  145.2650 O   0  0  0  0  0  1  0  0  0  0  0  0
  161.5780  205.4660  143.5890 O   0  0  0  0  0  0  0  0  0  0  0  0
  161.1900  205.3560  144.7820 C   0  0  0  0  0  0  0  0  0  0  0  0
  160.7960  209.8540  154.0470 C   0  0  0  0  0  2  0  0  0  0  0  0
  161.0200  211.0580  156.2900 N   0  0  0  0  0  2  0  0  0  0  0  0
  161.6080  210.5860  155.0730 C   0  0  0  0  0  0  0  0  0  0  0  0
  162.8520  210.7000  154.9140 O   0  0  0  0  0  0  0  0  0  0  0  0
  159.6390  211.2130  156.5050 N   0  0  0  0  0  2  0  0  0  0  0  0
  158.9590  212.4720  156.4670 C   0  0  0  0  0  0  0  0  0  0  0  0
  159.6060  213.5510  156.4950 O   0  0  0  0  0  0  0  0  0  0  0  0
  157.4680  212.5130  156.5110 C   0  0  0  0  0  2  0  0  0  0  0  0
  156.5410  212.4970  154.2580 N   0  0  0  0  0  1  0  0  0  0  0  0
  156.8530  211.6640  155.4060 C   0  0  2  0  0  3  0  0  0  0  0  0
  155.1760  210.0120  155.0140 O   0  0  0  0  0  1  0  0  0  0  0  0
  155.5810  211.0060  155.9050 C   0  0  0  0  0  2  0  0  0  0  0  0
  1  3  1  0  0  0  0
  2  5  2  0  0  0  0
  3  4  2  0  0  0  0
  4 10  1  0  0  0  0
  5  4  1  0  0  0  0
  5  7  1  0  0  0  0
  6  9  1  0  0  0  0
  7  6  2  0  0  0  0
  8  1  2  0  0  0  0
  8  2  1  0  0  0  0
 10 23  1  6  0  0  0
 10  9  1  0  0  0  0
 11  7  1  0  0  0  0
 12 11  1  0  0  0  0
 13 16  1  6  0  0  0
 13 15  1  0  0  0  0
 13 14  1  0  0  0  0
 14 12  1  1  0  0  0
 15 14  1  0  0  0  0
 17 16  1  1  0  0  0
 18 22  1  6  0  0  0
 18 19  1  0  0  0  0
 18 17  1  0  0  0  0
 19 17  1  0  0  0  0
 21 22  2  0  0  0  0
 22 20  1  0  0  0  0
 23 25  1  0  0  0  0
 24 27  1  0  0  0  0
 25 24  1  0  0  0  0
 26 25  2  0  0  0  0
 28 29  2  0  0  0  0
 28 27  1  0  0  0  0
 28 30  1  0  0  0  0
 32 31  1  6  0  0  0
 32 34  1  0  0  0  0
 32 30  1  0  0  0  0
 33 34  1  0  0  0  0
M  END
>  <MODEL>
1

>  <REMARK>
 VINA RESULT:      -7.6      0.000      0.000
  Name = 
  12 active torsions:
  status: ('A' for Active; 'I' for Inactive)
    1  A    between atoms: O_2  and  C_17
    2  A    between atoms: O_2  and  C_22
    3  A    between atoms: N_8  and  N_19
    4  A    between atoms: C_10  and  C_14
    5  A    between atoms: C_10  and  C_28
    6  A    between atoms: C_12  and  C_14
    7  A    between atoms: C_13  and  N_27
    8  A    between atoms: C_15  and  N_27
    9  A    between atoms: C_17  and  C_31
   10  A    between atoms: C_18  and  C_26
   11  A    between atoms: C_18  and  C_34
   12  A    between atoms: C_20  and  C_21
                            x       y       z     vdW  Elec       q    Type
                         _______ _______ _______ _____ _____    ______ ____

>  <TORSDO>
F 12

$$$$
=
 OpenBabel11072413133D

 34 37  0  0  1  0  0  0  0  0999 V2000
  160.9370  202.9470  150.6370 N   0  0  0  0  0  0  0  0  0  0  0  0
  160.8790  204.0070  152.7760 C   0  0  0  0  0  3  0  0  0  0  0  0
  161.1020  204.1450  150.0160 C   0  0  0  0  0  3  0  0  0  0  0  0
  161.1340  205.3330  150.7580 C   0  0  0  0  0  0  0  0  0  0  0  0
  161.0400  205.2550  152.1640 C   0  0  0  0  0  0  0  0  0  0  0  0
  161.0750  207.6860  152.3760 C   0  0  0  0  0  3  0  0  0  0  0  0
  161.1310  206.4930  152.9730 C   0  0  0  0  0  0  0  0  0  0  0  0
  160.8230  202.8560  151.9890 C   0  0  0  0  0  3  0  0  0  0  0  0
  160.7740  207.8070  150.9090 C   0  0  0  0  0  2  0  0  0  0  0  0
  161.4160  206.6700  150.1040 C   0  0  2  0  0  3  0  0  0  0  0  0
  161.3910  206.4360  154.4420 C   0  0  0  0  0  2  0  0  0  0  0  0
  161.5910  207.7270  154.9340 O   0  0  0  0  0  0  0  0  0  0  0  0
  160.3540  209.5720  155.7650 C   0  0  2  0  0  3  0  0  0  0  0  0
  160.3670  208.0780  155.5030 C   0  0  2  0  0  3  0  0  0  0  0  0
  160.5970  208.6050  156.9040 C   0  0  0  0  0  2  0  0  0  0  0  0
  158.9780  210.0320  155.8090 N   0  0  0  0  0  2  0  0  0  0  0  0
  158.9580  211.3540  155.2100 C   0  0  2  0  0  3  0  0  0  0  0  0
  157.8090  211.4620  154.2840 C   0  0  2  0  0  3  0  0  0  0  0  0
  159.1180  211.2350  153.8190 O   0  0  0  0  0  0  0  0  0  0  0  0
  156.9230  213.6370  155.1270 O   0  0  0  0  0  1  0  0  0  0  0  0
  157.5870  213.4240  152.9440 O   0  0  0  0  0  0  0  0  0  0  0  0
  157.4460  212.8940  154.0780 C   0  0  0  0  0  0  0  0  0  0  0  0
  160.9200  206.7260  148.6580 C   0  0  0  0  0  2  0  0  0  0  0  0
  161.9770  206.5530  146.3380 N   0  0  0  0  0  2  0  0  0  0  0  0
  162.0400  206.9940  147.6980 C   0  0  0  0  0  0  0  0  0  0  0  0
  163.0110  207.7100  148.0610 O   0  0  0  0  0  0  0  0  0  0  0  0
  161.0960  205.5690  145.8550 N   0  0  0  0  0  2  0  0  0  0  0  0
  161.5060  204.2620  145.4390 C   0  0  0  0  0  0  0  0  0  0  0  0
  162.7210  204.0040  145.2380 O   0  0  0  0  0  0  0  0  0  0  0  0
  160.4790  203.2240  145.1300 C   0  0  0  0  0  2  0  0  0  0  0  0
  160.0650  200.8250  145.0520 N   0  0  0  0  0  1  0  0  0  0  0  0
  160.8950  201.8550  145.6520 C   0  0  2  0  0  3  0  0  0  0  0  0
  161.2890  200.6250  147.6590 O   0  0  0  0  0  1  0  0  0  0  0  0
  160.7380  201.8060  147.1600 C   0  0  0  0  0  2  0  0  0  0  0  0
  1  8  1  0  0  0  0
  3  1  2  0  0  0  0
  3  4  1  0  0  0  0
  4  5  2  0  0  0  0
  5  2  1  0  0  0  0
  5  7  1  0  0  0  0
  6  7  2  0  0  0  0
  7 11  1  0  0  0  0
  8  2  2  0  0  0  0
  9  6  1  0  0  0  0
 10 23  1  6  0  0  0
 10  4  1  0  0  0  0
 10  9  1  0  0  0  0
 11 12  1  0  0  0  0
 13 16  1  1  0  0  0
 13 15  1  0  0  0  0
 14 12  1  6  0  0  0
 14 13  1  0  0  0  0
 14 15  1  0  0  0  0
 17 16  1  1  0  0  0
 18 22  1  6  0  0  0
 18 17  1  0  0  0  0
 19 18  1  0  0  0  0
 19 17  1  0  0  0  0
 21 22  2  0  0  0  0
 22 20  1  0  0  0  0
 24 25  1  0  0  0  0
 25 26  2  0  0  0  0
 25 23  1  0  0  0  0
 27 24  1  0  0  0  0
 28 27  1  0  0  0  0
 29 28  2  0  0  0  0
 30 28  1  0  0  0  0
 30 32  1  0  0  0  0
 32 31  1  6  0  0  0
 32 34  1  0  0  0  0
 34 33  1  0  0  0  0
M  END
>  <MODEL>
2

>  <REMARK>
 VINA RESULT:      -7.3      2.385      9.833
  Name = 
  12 active torsions:
  status: ('A' for Active; 'I' for Inactive)
    1  A    between atoms: O_2  and  C_17
    2  A    between atoms: O_2  and  C_22
    3  A    between atoms: N_8  and  N_19
    4  A    between atoms: C_10  and  C_14
    5  A    between atoms: C_10  and  C_28
    6  A    between atoms: C_12  and  C_14
    7  A    between atoms: C_13  and  N_27
    8  A    between atoms: C_15  and  N_27
    9  A    between atoms: C_17  and  C_31
   10  A    between atoms: C_18  and  C_26
   11  A    between atoms: C_18  and  C_34
   12  A    between atoms: C_20  and  C_21
                            x       y       z     vdW  Elec       q    Type
                         _______ _______ _______ _____ _____    ______ ____

>  <TORSDO>
F 12

$$$$
=
 OpenBabel11072413133D

 34 37  0  0  1  0  0  0  0  0999 V2000
  161.1790  205.5840  153.7280 N   0  0  0  0  0  0  0  0  0  0  0  0
  161.5790  207.6830  152.6630 C   0  0  0  0  0  3  0  0  0  0  0  0
  160.9830  204.9790  152.5270 C   0  0  0  0  0  3  0  0  0  0  0  0
  161.0530  205.7190  151.3380 C   0  0  0  0  0  0  0  0  0  0  0  0
  161.3760  207.0900  151.4120 C   0  0  0  0  0  0  0  0  0  0  0  0
  161.1150  207.3600  149.0010 C   0  0  0  0  0  3  0  0  0  0  0  0
  161.5130  207.8790  150.1650 C   0  0  0  0  0  0  0  0  0  0  0  0
  161.4690  206.9090  153.8190 C   0  0  0  0  0  3  0  0  0  0  0  0
  160.3940  206.0430  148.9430 C   0  0  0  0  0  2  0  0  0  0  0  0
  160.9380  205.0540  149.9810 C   0  0  2  0  0  3  0  0  0  0  0  0
  162.1860  209.2110  150.1660 C   0  0  0  0  0  2  0  0  0  0  0  0
  162.1690  209.7460  148.8770 O   0  0  0  0  0  0  0  0  0  0  0  0
  161.4030  211.6980  147.7700 C   0  0  2  0  0  3  0  0  0  0  0  0
  161.9220  211.1060  149.0650 C   0  0  2  0  0  3  0  0  0  0  0  0
  162.8450  211.9110  148.1760 C   0  0  0  0  0  2  0  0  0  0  0  0
  160.6360  212.8930  148.0700 N   0  0  0  0  0  2  0  0  0  0  0  0
  160.0650  213.3520  146.8180 C   0  0  2  0  0  3  0  0  0  0  0  0
  158.6630  212.8900  146.7110 C   0  0  2  0  0  3  0  0  0  0  0  0
  159.7130  212.2410  146.0330 O   0  0  0  0  0  0  0  0  0  0  0  0
  158.3240  213.8530  144.4340 O   0  0  0  0  0  0  0  0  0  0  0  0
  156.9100  214.4090  146.1500 O   0  0  0  0  0  1  0  0  0  0  0  0
  157.9080  213.7510  145.7550 C   0  0  0  0  0  0  0  0  0  0  0  0
  160.0490  203.8100  150.0170 C   0  0  0  0  0  2  0  0  0  0  0  0
  161.6830  202.3910  148.6580 N   0  0  0  0  0  2  0  0  0  0  0  0
  160.8420  202.5550  149.8040 C   0  0  0  0  0  0  0  0  0  0  0  0
  160.8520  201.6690  150.6990 O   0  0  0  0  0  0  0  0  0  0  0  0
  161.6010  203.1660  147.4870 N   0  0  0  0  0  2  0  0  0  0  0  0
  161.0140  202.7100  146.2640 C   0  0  0  0  0  0  0  0  0  0  0  0
  160.7660  201.4880  146.0880 O   0  0  0  0  0  0  0  0  0  0  0  0
  160.7960  203.6670  145.1400 C   0  0  0  0  0  2  0  0  0  0  0  0
  160.2150  206.0270  144.9880 N   0  0  0  0  0  1  0  0  0  0  0  0
  161.1760  205.0880  145.5370 C   0  0  2  0  0  3  0  0  0  0  0  0
  163.5300  205.0440  145.9340 O   0  0  0  0  0  1  0  0  0  0  0  0
  162.5580  205.4210  145.0070 C   0  0  0  0  0  2  0  0  0  0  0  0
  1  8  1  0  0  0  0
  2  8  2  0  0  0  0
  3  1  2  0  0  0  0
  4  5  2  0  0  0  0
  4  3  1  0  0  0  0
  5  2  1  0  0  0  0
  6  7  2  0  0  0  0
  7 11  1  0  0  0  0
  7  5  1  0  0  0  0
  9  6  1  0  0  0  0
  9 10  1  0  0  0  0
 10 23  1  1  0  0  0
 10  4  1  0  0  0  0
 12 11  1  0  0  0  0
 13 16  1  1  0  0  0
 13 15  1  0  0  0  0
 13 14  1  0  0  0  0
 14 12  1  6  0  0  0
 15 14  1  0  0  0  0
 17 16  1  1  0  0  0
 18 22  1  6  0  0  0
 18 17  1  0  0  0  0
 19 18  1  0  0  0  0
 19 17  1  0  0  0  0
 20 22  2  0  0  0  0
 22 21  1  0  0  0  0
 24 25  1  0  0  0  0
 25 23  1  0  0  0  0
 25 26  2  0  0  0  0
 27 24  1  0  0  0  0
 28 27  1  0  0  0  0
 29 28  2  0  0  0  0
 30 32  1  0  0  0  0
 30 28  1  0  0  0  0
 32 31  1  6  0  0  0
 34 32  1  0  0  0  0
 34 33  1  0  0  0  0
M  END
>  <MODEL>
3

>  <REMARK>
 VINA RESULT:      -7.3      4.283      9.285
  Name = 
  12 active torsions:
  status: ('A' for Active; 'I' for Inactive)
    1  A    between atoms: O_2  and  C_17
    2  A    between atoms: O_2  and  C_22
    3  A    between atoms: N_8  and  N_19
    4  A    between atoms: C_10  and  C_14
    5  A    between atoms: C_10  and  C_28
    6  A    between atoms: C_12  and  C_14
    7  A    between atoms: C_13  and  N_27
    8  A    between atoms: C_15  and  N_27
    9  A    between atoms: C_17  and  C_31
   10  A    between atoms: C_18  and  C_26
   11  A    between atoms: C_18  and  C_34
   12  A    between atoms: C_20  and  C_21
                            x       y       z     vdW  Elec       q    Type
                         _______ _______ _______ _____ _____    ______ ____

>  <TORSDO>
F 12

$$$$
=
 OpenBabel11072413133D

 34 37  0  0  1  0  0  0  0  0999 V2000
  162.1820  208.0850  148.9720 N   0  0  0  0  0  0  0  0  0  0  0  0
  161.6610  209.5570  150.7780 C   0  0  0  0  0  3  0  0  0  0  0  0
  161.9330  206.9970  149.7480 C   0  0  0  0  0  3  0  0  0  0  0  0
  161.5600  207.1510  151.0900 C   0  0  0  0  0  0  0  0  0  0  0  0
  161.4040  208.4560  151.6040 C   0  0  0  0  0  0  0  0  0  0  0  0
  160.9150  207.6000  153.8360 C   0  0  0  0  0  3  0  0  0  0  0  0
  160.9540  208.6430  153.0030 C   0  0  0  0  0  0  0  0  0  0  0  0
  162.0580  209.3490  149.4570 C   0  0  0  0  0  3  0  0  0  0  0  0
  161.4570  206.2600  153.4290 C   0  0  0  0  0  2  0  0  0  0  0  0
  161.1790  205.9630  151.9500 C   0  0  2  0  0  3  0  0  0  0  0  0
  160.4400  209.9620  153.4780 C   0  0  0  0  0  2  0  0  0  0  0  0
  161.2110  210.4070  154.5540 O   0  0  0  0  0  0  0  0  0  0  0  0
  159.8980  212.1960  155.3880 C   0  0  2  0  0  3  0  0  0  0  0  0
  160.2800  210.7360  155.5380 C   0  0  2  0  0  3  0  0  0  0  0  0
  160.8760  211.7750  156.4640 C   0  0  0  0  0  2  0  0  0  0  0  0
  158.5900  212.4060  155.9810 N   0  0  0  0  0  2  0  0  0  0  0  0
  157.8290  213.2140  155.0460 C   0  0  2  0  0  3  0  0  0  0  0  0
  156.5080  212.5900  154.8100 C   0  0  2  0  0  3  0  0  0  0  0  0
  157.5660  212.4610  153.8890 O   0  0  0  0  0  0  0  0  0  0  0  0
  155.3820  213.8170  152.9510 O   0  0  0  0  0  0  0  0  0  0  0  0
  154.8790  214.3040  155.1340 O   0  0  0  0  0  1  0  0  0  0  0  0
  155.5380  213.6090  154.3160 C   0  0  0  0  0  0  0  0  0  0  0  0
  161.9170  204.6880  151.5380 C   0  0  0  0  0  2  0  0  0  0  0  0
  160.7660  202.9240  150.0910 N   0  0  0  0  0  0  0  0  0  0  0  0
  160.9760  203.5330  151.3690 C   0  0  0  0  0  0  0  0  0  0  0  0
  160.4360  203.0190  152.3840 O   0  0  0  0  0  0  0  0  0  0  0  0
  161.1020  203.5130  148.8590 N   0  0  0  0  0  0  0  0  0  0  0  0
  161.1590  202.7990  147.6190 C   0  0  0  0  0  0  0  0  0  0  0  0
  161.1640  201.5400  147.6030 O   0  0  0  0  0  0  0  0  0  0  0  0
  161.3300  203.5460  146.3380 C   0  0  0  0  0  2  0  0  0  0  0  0
  160.4360  205.6760  145.5660 N   0  0  0  0  0  1  0  0  0  0  0  0
  161.2910  205.0520  146.5600 C   0  0  2  0  0  3  0  0  0  0  0  0
  163.5660  204.6630  145.9520 O   0  0  0  0  0  1  0  0  0  0  0  0
  162.6890  205.6290  146.4470 C   0  0  0  0  0  2  0  0  0  0  0  0
  1  8  2  0  0  0  0
  1  3  1  0  0  0  0
  2  5  2  0  0  0  0
  3  4  2  0  0  0  0
  4  5  1  0  0  0  0
  4 10  1  0  0  0  0
  5  7  1  0  0  0  0
  7 11  1  0  0  0  0
  7  6  2  0  0  0  0
  8  2  1  0  0  0  0
  9  6  1  0  0  0  0
 10 23  1  6  0  0  0
 10  9  1  0  0  0  0
 11 12  1  0  0  0  0
 13 14  1  0  0  0  0
 13 16  1  1  0  0  0
 13 15  1  0  0  0  0
 14 12  1  6  0  0  0
 14 15  1  0  0  0  0
 17 16  1  1  0  0  0
 18 22  1  6  0  0  0
 18 17  1  0  0  0  0
 19 18  1  0  0  0  0
 19 17  1  0  0  0  0
 20 22  2  0  0  0  0
 22 21  1  0  0  0  0
 24 25  1  0  0  0  0
 25 23  1  0  0  0  0
 25 26  2  0  0  0  0
 27 24  2  0  0  0  0
 28 27  1  0  0  0  0
 29 28  2  0  0  0  0
 30 32  1  0  0  0  0
 30 28  1  0  0  0  0
 32 31  1  6  0  0  0
 33 34  1  0  0  0  0
 34 32  1  0  0  0  0
M  END
>  <MODEL>
4

>  <REMARK>
 VINA RESULT:      -7.3      1.933      9.861
  Name = 
  12 active torsions:
  status: ('A' for Active; 'I' for Inactive)
    1  A    between atoms: O_2  and  C_17
    2  A    between atoms: O_2  and  C_22
    3  A    between atoms: N_8  and  N_19
    4  A    between atoms: C_10  and  C_14
    5  A    between atoms: C_10  and  C_28
    6  A    between atoms: C_12  and  C_14
    7  A    between atoms: C_13  and  N_27
    8  A    between atoms: C_15  and  N_27
    9  A    between atoms: C_17  and  C_31
   10  A    between atoms: C_18  and  C_26
   11  A    between atoms: C_18  and  C_34
   12  A    between atoms: C_20  and  C_21
                            x       y       z     vdW  Elec       q    Type
                         _______ _______ _______ _____ _____    ______ ____

>  <TORSDO>
F 12

$$$$
=
 OpenBabel11072413133D

 34 37  0  0  1  0  0  0  0  0999 V2000
  161.2050  205.4050  153.5030 N   0  0  0  0  0  0  0  0  0  0  0  0
  162.0940  206.2100  151.4390 C   0  0  0  0  0  3  0  0  0  0  0  0
  160.8870  206.6690  153.8920 C   0  0  0  0  0  3  0  0  0  0  0  0
  161.1900  207.7630  153.0710 C   0  0  0  0  0  0  0  0  0  0  0  0
  161.7860  207.5220  151.8150 C   0  0  0  0  0  0  0  0  0  0  0  0
  161.9580  209.9130  151.3530 C   0  0  0  0  0  3  0  0  0  0  0  0
  162.0610  208.6590  150.9050 C   0  0  0  0  0  0  0  0  0  0  0  0
  161.8000  205.1570  152.3060 C   0  0  0  0  0  3  0  0  0  0  0  0
  161.7090  210.1990  152.8070 C   0  0  0  0  0  2  0  0  0  0  0  0
  160.7590  209.1700  153.4320 C   0  0  2  0  0  3  0  0  0  0  0  0
  162.3530  208.4350  149.4580 C   0  0  0  0  0  2  0  0  0  0  0  0
  161.2040  207.9720  148.8140 O   0  0  0  0  0  0  0  0  0  0  0  0
  160.7110  206.5800  146.9590 C   0  0  2  0  0  3  0  0  0  0  0  0
  161.6170  206.8160  148.1520 C   0  0  2  0  0  3  0  0  0  0  0  0
  160.5190  205.7760  148.2270 C   0  0  0  0  0  2  0  0  0  0  0  0
  161.4180  205.7750  145.9800 N   0  0  0  0  0  2  0  0  0  0  0  0
  160.6360  204.5690  145.7830 C   0  0  2  0  0  3  0  0  0  0  0  0
  161.5420  203.4130  145.6020 C   0  0  2  0  0  3  0  0  0  0  0  0
  160.9120  204.0400  144.5110 O   0  0  0  0  0  0  0  0  0  0  0  0
  160.8480  201.6510  147.2280 O   0  0  0  0  0  1  0  0  0  0  0  0
  160.2370  201.5010  145.0240 O   0  0  0  0  0  0  0  0  0  0  0  0
  160.8300  202.1440  145.9290 C   0  0  0  0  0  0  0  0  0  0  0  0
  160.6950  209.3870  154.9450 C   0  0  0  0  0  2  0  0  0  0  0  0
  160.5980  211.8200  155.7230 N   0  0  0  0  0  2  0  0  0  0  0  0
  161.3620  210.6680  155.3500 C   0  0  0  0  0  0  0  0  0  0  0  0
  162.6150  210.7050  155.4650 O   0  0  0  0  0  0  0  0  0  0  0  0
  159.2360  212.0070  155.4290 N   0  0  0  0  0  2  0  0  0  0  0  0
  158.7440  212.4540  154.1610 C   0  0  0  0  0  0  0  0  0  0  0  0
  159.5250  212.9550  153.3110 O   0  0  0  0  0  0  0  0  0  0  0  0
  157.2780  212.4330  153.8830 C   0  0  0  0  0  2  0  0  0  0  0  0
  155.7570  211.7200  155.6470 N   0  0  0  0  0  1  0  0  0  0  0  0
  156.4720  212.8610  155.1020 C   0  0  2  0  0  3  0  0  0  0  0  0
  155.2350  213.8900  153.3390 O   0  0  0  0  0  1  0  0  0  0  0  0
  155.4750  213.9360  154.7130 C   0  0  0  0  0  2  0  0  0  0  0  0
  1  3  1  0  0  0  0
  2  5  2  0  0  0  0
  2  8  1  0  0  0  0
  4 10  1  0  0  0  0
  4  3  2  0  0  0  0
  5  4  1  0  0  0  0
  6  9  1  0  0  0  0
  7  6  2  0  0  0  0
  7  5  1  0  0  0  0
  8  1  2  0  0  0  0
  9 10  1  0  0  0  0
 10 23  1  1  0  0  0
 11  7  1  0  0  0  0
 12 11  1  0  0  0  0
 13 16  1  6  0  0  0
 13 14  1  0  0  0  0
 13 15  1  0  0  0  0
 14 15  1  0  0  0  0
 14 12  1  1  0  0  0
 17 16  1  6  0  0  0
 18 17  1  0  0  0  0
 18 22  1  1  0  0  0
 19 18  1  0  0  0  0
 19 17  1  0  0  0  0
 21 22  2  0  0  0  0
 22 20  1  0  0  0  0
 23 25  1  0  0  0  0
 25 26  2  0  0  0  0
 25 24  1  0  0  0  0
 27 24  1  0  0  0  0
 28 27  1  0  0  0  0
 29 28  2  0  0  0  0
 30 28  1  0  0  0  0
 30 32  1  0  0  0  0
 32 31  1  6  0  0  0
 33 34  1  0  0  0  0
 34 32  1  0  0  0  0
M  END
>  <MODEL>
5

>  <REMARK>
 VINA RESULT:      -7.0      2.253      3.136
  Name = 
  12 active torsions:
  status: ('A' for Active; 'I' for Inactive)
    1  A    between atoms: O_2  and  C_17
    2  A    between atoms: O_2  and  C_22
    3  A    between atoms: N_8  and  N_19
    4  A    between atoms: C_10  and  C_14
    5  A    between atoms: C_10  and  C_28
    6  A    between atoms: C_12  and  C_14
    7  A    between atoms: C_13  and  N_27
    8  A    between atoms: C_15  and  N_27
    9  A    between atoms: C_17  and  C_31
   10  A    between atoms: C_18  and  C_26
   11  A    between atoms: C_18  and  C_34
   12  A    between atoms: C_20  and  C_21
                            x       y       z     vdW  Elec       q    Type
                         _______ _______ _______ _____ _____    ______ ____

>  <TORSDO>
F 12

$$$$
=
 OpenBabel11072413133D

 34 37  0  0  1  0  0  0  0  0999 V2000
  160.0260  209.3160  156.8830 N   0  0  0  0  0  0  0  0  0  0  0  0
  160.9560  207.4690  155.6900 C   0  0  0  0  0  3  0  0  0  0  0  0
  159.9410  210.0490  155.7410 C   0  0  0  0  0  3  0  0  0  0  0  0
  160.3900  209.5210  154.5230 C   0  0  0  0  0  0  0  0  0  0  0  0
  160.8870  208.2020  154.4990 C   0  0  0  0  0  0  0  0  0  0  0  0
  161.4400  208.3720  152.1280 C   0  0  0  0  0  3  0  0  0  0  0  0
  161.3130  207.6030  153.2120 C   0  0  0  0  0  0  0  0  0  0  0  0
  160.5230  208.0500  156.8820 C   0  0  0  0  0  3  0  0  0  0  0  0
  161.3000  209.8650  152.2140 C   0  0  0  0  0  2  0  0  0  0  0  0
  160.2160  210.2750  153.2190 C   0  0  2  0  0  3  0  0  0  0  0  0
  161.5060  206.1290  153.0740 C   0  0  0  0  0  2  0  0  0  0  0  0
  160.6430  205.6320  152.0960 O   0  0  0  0  0  0  0  0  0  0  0  0
  160.7200  205.5820  149.7270 C   0  0  2  0  0  3  0  0  0  0  0  0
  161.4730  205.3270  151.0180 C   0  0  2  0  0  3  0  0  0  0  0  0
  160.8830  204.1680  150.2420 C   0  0  0  0  0  2  0  0  0  0  0  0
  161.6760  205.8200  148.6610 N   0  0  0  0  0  2  0  0  0  0  0  0
  161.0410  205.4010  147.4250 C   0  0  2  0  0  3  0  0  0  0  0  0
  161.9630  205.6280  146.2910 C   0  0  2  0  0  3  0  0  0  0  0  0
  160.9040  206.5120  146.5750 O   0  0  0  0  0  0  0  0  0  0  0  0
  161.6510  203.3730  145.2680 O   0  0  0  0  0  1  0  0  0  0  0  0
  161.2480  205.2670  144.0430 O   0  0  0  0  0  0  0  0  0  0  0  0
  161.5900  204.7550  145.1410 C   0  0  0  0  0  0  0  0  0  0  0  0
  160.2490  211.7910  153.4160 C   0  0  0  0  0  2  0  0  0  0  0  0
  158.9020  212.9150  151.5580 N   0  0  0  0  0  0  0  0  0  0  0  0
  158.9990  212.4430  152.9060 C   0  0  0  0  0  0  0  0  0  0  0  0
  157.9770  212.4860  153.6410 O   0  0  0  0  0  0  0  0  0  0  0  0
  159.9990  213.1480  150.7100 N   0  0  0  0  0  0  0  0  0  0  0  0
  159.9160  213.8540  149.4680 C   0  0  0  0  0  0  0  0  0  0  0  0
  158.7990  214.0870  148.9360 O   0  0  0  0  0  0  0  0  0  0  0  0
  161.1640  214.2220  148.7360 C   0  0  0  0  0  2  0  0  0  0  0  0
  163.0120  212.8360  147.9640 N   0  0  0  0  0  1  0  0  0  0  0  0
  161.5980  213.1150  147.7840 C   0  0  2  0  0  3  0  0  0  0  0  0
  162.4670  213.2430  145.5650 O   0  0  0  0  0  1  0  0  0  0  0  0
  161.3520  213.5410  146.3490 C   0  0  0  0  0  2  0  0  0  0  0  0
  2  8  2  0  0  0  0
  3  1  2  0  0  0  0
  4  3  1  0  0  0  0
  5  4  2  0  0  0  0
  5  2  1  0  0  0  0
  6  9  1  0  0  0  0
  6  7  2  0  0  0  0
  7  5  1  0  0  0  0
  8  1  1  0  0  0  0
  9 10  1  0  0  0  0
 10 23  1  1  0  0  0
 10  4  1  0  0  0  0
 11  7  1  0  0  0  0
 12 11  1  0  0  0  0
 13 16  1  6  0  0  0
 13 15  1  0  0  0  0
 13 14  1  0  0  0  0
 14 12  1  1  0  0  0
 15 14  1  0  0  0  0
 17 16  1  1  0  0  0
 18 22  1  6  0  0  0
 18 19  1  0  0  0  0
 18 17  1  0  0  0  0
 19 17  1  0  0  0  0
 21 22  2  0  0  0  0
 22 20  1  0  0  0  0
 24 25  1  0  0  0  0
 25 23  1  0  0  0  0
 25 26  2  0  0  0  0
 27 24  2  0  0  0  0
 28 27  1  0  0  0  0
 29 28  2  0  0  0  0
 30 28  1  0  0  0  0
 32 31  1  6  0  0  0
 32 30  1  0  0  0  0
 33 34  1  0  0  0  0
 34 32  1  0  0  0  0
M  END
>  <MODEL>
6

>  <REMARK>
 VINA RESULT:      -7.0      3.256      5.444
  Name = 
  12 active torsions:
  status: ('A' for Active; 'I' for Inactive)
    1  A    between atoms: O_2  and  C_17
    2  A    between atoms: O_2  and  C_22
    3  A    between atoms: N_8  and  N_19
    4  A    between atoms: C_10  and  C_14
    5  A    between atoms: C_10  and  C_28
    6  A    between atoms: C_12  and  C_14
    7  A    between atoms: C_13  and  N_27
    8  A    between atoms: C_15  and  N_27
    9  A    between atoms: C_17  and  C_31
   10  A    between atoms: C_18  and  C_26
   11  A    between atoms: C_18  and  C_34
   12  A    between atoms: C_20  and  C_21
                            x       y       z     vdW  Elec       q    Type
                         _______ _______ _______ _____ _____    ______ ____

>  <TORSDO>
F 12

$$$$
=
 OpenBabel11072413133D

 34 37  0  0  1  0  0  0  0  0999 V2000
  161.2090  207.5350  148.6320 N   0  0  0  0  0  0  0  0  0  0  0  0
  161.2850  205.2790  149.4090 C   0  0  0  0  0  3  0  0  0  0  0  0
  161.2570  208.0060  149.9060 C   0  0  0  0  0  3  0  0  0  0  0  0
  161.2950  207.1200  150.9910 C   0  0  0  0  0  0  0  0  0  0  0  0
  161.3290  205.7340  150.7320 C   0  0  0  0  0  0  0  0  0  0  0  0
  161.2590  205.2100  153.1140 C   0  0  0  0  0  3  0  0  0  0  0  0
  161.4280  204.7800  151.8620 C   0  0  0  0  0  0  0  0  0  0  0  0
  161.2180  206.2020  148.3650 C   0  0  0  0  0  3  0  0  0  0  0  0
  160.8240  206.6190  153.4000 C   0  0  0  0  0  2  0  0  0  0  0  0
  161.4500  207.6150  152.4150 C   0  0  2  0  0  3  0  0  0  0  0  0
  161.8180  203.3570  151.6370 C   0  0  0  0  0  2  0  0  0  0  0  0
  160.7170  202.6360  151.1710 O   0  0  0  0  0  0  0  0  0  0  0  0
  160.1610  201.8350  149.0090 C   0  0  2  0  0  3  0  0  0  0  0  0
  161.2130  201.8930  150.1000 C   0  0  2  0  0  3  0  0  0  0  0  0
  160.3720  200.6460  149.9220 C   0  0  0  0  0  2  0  0  0  0  0  0
  160.8120  201.5870  147.7360 N   0  0  0  0  0  2  0  0  0  0  0  0
  160.6300  202.7800  146.9310 C   0  0  2  0  0  3  0  0  0  0  0  0
  160.8310  202.4520  145.5030 C   0  0  2  0  0  3  0  0  0  0  0  0
  161.8330  203.0800  146.2680 O   0  0  0  0  0  0  0  0  0  0  0  0
  160.7480  204.6990  144.4200 O   0  0  0  0  0  1  0  0  0  0  0  0
  159.0280  203.2100  144.1360 O   0  0  0  0  0  0  0  0  0  0  0  0
  160.1530  203.4630  144.6410 C   0  0  0  0  0  0  0  0  0  0  0  0
  160.8270  208.9960  152.6210 C   0  0  0  0  0  2  0  0  0  0  0  0
  161.9490  210.5860  154.2780 N   0  0  0  0  0  2  0  0  0  0  0  0
  161.8630  210.0250  152.9630 C   0  0  0  0  0  0  0  0  0  0  0  0
  162.7410  210.3290  152.1130 O   0  0  0  0  0  0  0  0  0  0  0  0
  160.9270  210.5280  155.2420 N   0  0  0  0  0  2  0  0  0  0  0  0
  159.7650  211.3640  155.2290 C   0  0  0  0  0  0  0  0  0  0  0  0
  159.7170  212.3840  154.4920 O   0  0  0  0  0  0  0  0  0  0  0  0
  158.6450  211.0960  156.1780 C   0  0  0  0  0  2  0  0  0  0  0  0
  157.3080  212.9990  156.9000 N   0  0  0  0  0  1  0  0  0  0  0  0
  157.4380  211.9750  155.8790 C   0  0  2  0  0  3  0  0  0  0  0  0
  155.5200  211.2890  154.6340 O   0  0  0  0  0  1  0  0  0  0  0  0
  156.1770  211.1320  155.8550 C   0  0  0  0  0  2  0  0  0  0  0  0
  1  3  1  0  0  0  0
  2  5  2  0  0  0  0
  3  4  2  0  0  0  0
  4 10  1  0  0  0  0
  5  4  1  0  0  0  0
  5  7  1  0  0  0  0
  6  9  1  0  0  0  0
  7  6  2  0  0  0  0
  8  1  2  0  0  0  0
  8  2  1  0  0  0  0
 10 23  1  6  0  0  0
 10  9  1  0  0  0  0
 11  7  1  0  0  0  0
 12 11  1  0  0  0  0
 13 16  1  6  0  0  0
 13 15  1  0  0  0  0
 13 14  1  0  0  0  0
 14 12  1  1  0  0  0
 15 14  1  0  0  0  0
 17 16  1  1  0  0  0
 18 22  1  6  0  0  0
 18 19  1  0  0  0  0
 18 17  1  0  0  0  0
 19 17  1  0  0  0  0
 20 22  1  0  0  0  0
 21 22  2  0  0  0  0
 23 25  1  0  0  0  0
 24 27  1  0  0  0  0
 25 24  1  0  0  0  0
 26 25  2  0  0  0  0
 28 27  1  0  0  0  0
 28 30  1  0  0  0  0
 29 28  2  0  0  0  0
 32 30  1  0  0  0  0
 32 31  1  1  0  0  0
 33 34  1  0  0  0  0
 34 32  1  0  0  0  0
M  END
>  <MODEL>
7

>  <REMARK>
 VINA RESULT:      -6.9      1.722      1.930
  Name = 
  12 active torsions:
  status: ('A' for Active; 'I' for Inactive)
    1  A    between atoms: O_2  and  C_17
    2  A    between atoms: O_2  and  C_22
    3  A    between atoms: N_8  and  N_19
    4  A    between atoms: C_10  and  C_14
    5  A    between atoms: C_10  and  C_28
    6  A    between atoms: C_12  and  C_14
    7  A    between atoms: C_13  and  N_27
    8  A    between atoms: C_15  and  N_27
    9  A    between atoms: C_17  and  C_31
   10  A    between atoms: C_18  and  C_26
   11  A    between atoms: C_18  and  C_34
   12  A    between atoms: C_20  and  C_21
                            x       y       z     vdW  Elec       q    Type
                         _______ _______ _______ _____ _____    ______ ____

>  <TORSDO>
F 12

$$$$
=
 OpenBabel11072413133D

 34 37  0  0  1  0  0  0  0  0999 V2000
  161.1780  205.7570  153.6450 N   0  0  0  0  0  0  0  0  0  0  0  0
  161.2600  205.1690  151.3320 C   0  0  0  0  0  3  0  0  0  0  0  0
  161.2040  207.0810  153.3390 C   0  0  0  0  0  3  0  0  0  0  0  0
  161.2870  207.5010  152.0040 C   0  0  0  0  0  0  0  0  0  0  0  0
  161.2950  206.5250  150.9870 C   0  0  0  0  0  0  0  0  0  0  0  0
  161.5660  208.2230  149.2550 C   0  0  0  0  0  3  0  0  0  0  0  0
  161.3230  206.9470  149.5670 C   0  0  0  0  0  0  0  0  0  0  0  0
  161.2070  204.8020  152.6770 C   0  0  0  0  0  3  0  0  0  0  0  0
  161.9580  209.2190  150.3090 C   0  0  0  0  0  2  0  0  0  0  0  0
  161.2170  208.9680  151.6280 C   0  0  2  0  0  3  0  0  0  0  0  0
  160.9800  205.9920  148.4720 C   0  0  0  0  0  2  0  0  0  0  0  0
  161.5230  206.4440  147.2670 O   0  0  0  0  0  0  0  0  0  0  0  0
  161.9280  204.5900  145.8460 C   0  0  2  0  0  3  0  0  0  0  0  0
  160.9310  205.6410  146.2930 C   0  0  2  0  0  3  0  0  0  0  0  0
  161.6740  205.8090  144.9850 C   0  0  0  0  0  2  0  0  0  0  0  0
  161.2060  203.4560  145.2990 N   0  0  0  0  0  2  0  0  0  0  0  0
  161.4220  202.3440  146.2060 C   0  0  2  0  0  3  0  0  0  0  0  0
  160.5650  201.2050  145.8090 C   0  0  2  0  0  3  0  0  0  0  0  0
  160.2220  202.0540  146.8780 O   0  0  0  0  0  0  0  0  0  0  0  0
  161.5810  199.8650  147.6530 O   0  0  0  0  0  1  0  0  0  0  0  0
  161.2070  198.9160  145.6010 O   0  0  0  0  0  0  0  0  0  0  0  0
  161.1230  199.9290  146.3430 C   0  0  0  0  0  0  0  0  0  0  0  0
  161.7910  209.8750  152.7170 C   0  0  0  0  0  2  0  0  0  0  0  0
  160.0280  211.7240  152.6730 N   0  0  0  0  0  0  0  0  0  0  0  0
  160.7220  210.6910  153.3800 C   0  0  0  0  0  0  0  0  0  0  0  0
  160.3510  210.3970  154.5470 O   0  0  0  0  0  0  0  0  0  0  0  0
  160.4740  212.3140  151.4770 N   0  0  0  0  0  0  0  0  0  0  0  0
  159.6830  213.2010  150.6780 C   0  0  0  0  0  0  0  0  0  0  0  0
  158.4430  213.3010  150.8670 O   0  0  0  0  0  0  0  0  0  0  0  0
  160.3080  213.9300  149.5350 C   0  0  0  0  0  2  0  0  0  0  0  0
  162.2410  213.1690  148.2630 N   0  0  0  0  0  1  0  0  0  0  0  0
  160.8180  212.9670  148.4710 C   0  0  2  0  0  3  0  0  0  0  0  0
  158.8360  213.7760  147.4140 O   0  0  0  0  0  1  0  0  0  0  0  0
  160.0840  213.2030  147.1650 C   0  0  0  0  0  2  0  0  0  0  0  0
  2  8  1  0  0  0  0
  3  1  1  0  0  0  0
  4  3  2  0  0  0  0
  5  2  2  0  0  0  0
  5  4  1  0  0  0  0
  6  7  2  0  0  0  0
  6  9  1  0  0  0  0
  7  5  1  0  0  0  0
  8  1  2  0  0  0  0
  9 10  1  0  0  0  0
 10  4  1  0  0  0  0
 10 23  1  1  0  0  0
 11  7  1  0  0  0  0
 12 11  1  0  0  0  0
 13 16  1  6  0  0  0
 13 14  1  0  0  0  0
 14 12  1  1  0  0  0
 15 13  1  0  0  0  0
 15 14  1  0  0  0  0
 17 16  1  6  0  0  0
 17 19  1  0  0  0  0
 18 17  1  0  0  0  0
 18 22  1  1  0  0  0
 18 19  1  0  0  0  0
 21 22  2  0  0  0  0
 22 20  1  0  0  0  0
 23 25  1  0  0  0  0
 24 25  1  0  0  0  0
 25 26  2  0  0  0  0
 27 24  2  0  0  0  0
 28 29  2  0  0  0  0
 28 27  1  0  0  0  0
 30 28  1  0  0  0  0
 32 31  1  6  0  0  0
 32 30  1  0  0  0  0
 34 33  1  0  0  0  0
 34 32  1  0  0  0  0
M  END
>  <MODEL>
8

>  <REMARK>
 VINA RESULT:      -6.8      3.504      5.151
  Name = 
  12 active torsions:
  status: ('A' for Active; 'I' for Inactive)
    1  A    between atoms: O_2  and  C_17
    2  A    between atoms: O_2  and  C_22
    3  A    between atoms: N_8  and  N_19
    4  A    between atoms: C_10  and  C_14
    5  A    between atoms: C_10  and  C_28
    6  A    between atoms: C_12  and  C_14
    7  A    between atoms: C_13  and  N_27
    8  A    between atoms: C_15  and  N_27
    9  A    between atoms: C_17  and  C_31
   10  A    between atoms: C_18  and  C_26
   11  A    between atoms: C_18  and  C_34
   12  A    between atoms: C_20  and  C_21
                            x       y       z     vdW  Elec       q    Type
                         _______ _______ _______ _____ _____    ______ ____

>  <TORSDO>
F 12

$$$$
=
 OpenBabel11072413133D

 34 37  0  0  1  0  0  0  0  0999 V2000
  160.9760  204.4830  151.3490 N   0  0  0  0  0  0  0  0  0  0  0  0
  161.4340  206.6570  152.2220 C   0  0  0  0  0  3  0  0  0  0  0  0
  161.1310  204.9300  150.0750 C   0  0  0  0  0  3  0  0  0  0  0  0
  161.4210  206.2790  149.8250 C   0  0  0  0  0  0  0  0  0  0  0  0
  161.5940  207.1480  150.9210 C   0  0  0  0  0  0  0  0  0  0  0  0
  161.9030  209.0680  149.4470 C   0  0  0  0  0  3  0  0  0  0  0  0
  161.9590  208.5650  150.6830 C   0  0  0  0  0  0  0  0  0  0  0  0
  161.1170  205.3130  152.4170 C   0  0  0  0  0  3  0  0  0  0  0  0
  161.3370  208.2700  148.3080 C   0  0  0  0  0  2  0  0  0  0  0  0
  161.6980  206.7840  148.4230 C   0  0  2  0  0  3  0  0  0  0  0  0
  162.4910  209.4200  151.7840 C   0  0  0  0  0  2  0  0  0  0  0  0
  161.5960  210.4590  152.0460 O   0  0  0  0  0  0  0  0  0  0  0  0
  160.4140  211.3120  153.9160 C   0  0  2  0  0  3  0  0  0  0  0  0
  160.9470  210.0750  153.2190 C   0  0  2  0  0  3  0  0  0  0  0  0
  161.6830  210.6510  154.4110 C   0  0  0  0  0  2  0  0  0  0  0  0
  159.3060  210.9310  154.7730 N   0  0  0  0  0  2  0  0  0  0  0  0
  158.4230  212.0800  154.8540 C   0  0  2  0  0  3  0  0  0  0  0  0
  157.0160  211.6230  154.8980 C   0  0  2  0  0  3  0  0  0  0  0  0
  157.6010  212.1140  153.7150 O   0  0  0  0  0  0  0  0  0  0  0  0
  155.7570  213.7720  154.7440 O   0  0  0  0  0  0  0  0  0  0  0  0
  155.8000  212.5920  156.7080 O   0  0  0  0  0  1  0  0  0  0  0  0
  156.1510  212.6770  155.5020 C   0  0  0  0  0  0  0  0  0  0  0  0
  160.9400  205.9900  147.3590 C   0  0  0  0  0  2  0  0  0  0  0  0
  162.0330  203.9500  146.2730 N   0  0  0  0  0  2  0  0  0  0  0  0
  161.8730  205.3700  146.3610 C   0  0  0  0  0  0  0  0  0  0  0  0
  162.4490  206.1010  145.5130 O   0  0  0  0  0  0  0  0  0  0  0  0
  161.6520  203.0380  147.2730 N   0  0  0  0  0  2  0  0  0  0  0  0
  161.0460  201.7680  147.0110 C   0  0  0  0  0  0  0  0  0  0  0  0
  160.5800  201.5030  145.8720 O   0  0  0  0  0  0  0  0  0  0  0  0
  160.8590  200.7890  148.1220 C   0  0  0  0  0  2  0  0  0  0  0  0
  161.4270  201.2450  150.4460 N   0  0  0  0  0  1  0  0  0  0  0  0
  160.4360  201.4810  149.4110 C   0  0  2  0  0  3  0  0  0  0  0  0
  158.1190  201.2030  148.9090 O   0  0  0  0  0  1  0  0  0  0  0  0
  159.0950  200.9440  149.8720 C   0  0  0  0  0  2  0  0  0  0  0  0
  1  8  1  0  0  0  0
  2  8  2  0  0  0  0
  3  1  2  0  0  0  0
  4  3  1  0  0  0  0
  4  5  2  0  0  0  0
  5  2  1  0  0  0  0
  6  7  2  0  0  0  0
  7  5  1  0  0  0  0
  7 11  1  0  0  0  0
  9 10  1  0  0  0  0
  9  6  1  0  0  0  0
 10 23  1  6  0  0  0
 10  4  1  0  0  0  0
 11 12  1  0  0  0  0
 13 15  1  0  0  0  0
 13 16  1  1  0  0  0
 14 12  1  6  0  0  0
 14 13  1  0  0  0  0
 14 15  1  0  0  0  0
 17 16  1  6  0  0  0
 17 18  1  0  0  0  0
 18 22  1  1  0  0  0
 19 17  1  0  0  0  0
 19 18  1  0  0  0  0
 20 22  2  0  0  0  0
 22 21  1  0  0  0  0
 24 25  1  0  0  0  0
 24 27  1  0  0  0  0
 25 23  1  0  0  0  0
 26 25  2  0  0  0  0
 28 27  1  0  0  0  0
 28 30  1  0  0  0  0
 29 28  2  0  0  0  0
 30 32  1  0  0  0  0
 32 34  1  0  0  0  0
 32 31  1  1  0  0  0
 33 34  1  0  0  0  0
M  END
>  <MODEL>
9

>  <REMARK>
 VINA RESULT:      -6.4      2.166     10.131
  Name = 
  12 active torsions:
  status: ('A' for Active; 'I' for Inactive)
    1  A    between atoms: O_2  and  C_17
    2  A    between atoms: O_2  and  C_22
    3  A    between atoms: N_8  and  N_19
    4  A    between atoms: C_10  and  C_14
    5  A    between atoms: C_10  and  C_28
    6  A    between atoms: C_12  and  C_14
    7  A    between atoms: C_13  and  N_27
    8  A    between atoms: C_15  and  N_27
    9  A    between atoms: C_17  and  C_31
   10  A    between atoms: C_18  and  C_26
   11  A    between atoms: C_18  and  C_34
   12  A    between atoms: C_20  and  C_21
                            x       y       z     vdW  Elec       q    Type
                         _______ _______ _______ _____ _____    ______ ____

>  <TORSDO>
F 12

$$$$
