=
 OpenBabel11072412013D

 45 49  0  0  1  0  0  0  0  0999 V2000
  160.0830  209.1210  153.1600 C   0  0  2  0  0  3  0  0  0  0  0  0
  161.9250  207.8910  151.9790 C   0  0  0  0  0  0  0  0  0  0  0  0
  162.1480  209.0420  151.0310 C   0  0  0  0  0  2  0  0  0  0  0  0
  160.9460  207.9070  152.8970 C   0  0  0  0  0  3  0  0  0  0  0  0
  160.1640  210.1620  152.0390 C   0  0  0  0  0  2  0  0  0  0  0  0
  161.6050  210.3570  151.5800 C   0  0  0  0  0  2  0  0  0  0  0  0
  161.9630  209.3610  156.3640 C   0  0  0  0  0  2  0  0  0  0  0  0
  160.7010  207.6070  157.2550 C   0  0  0  0  0  1  0  0  0  0  0  0
  159.7470  208.9860  155.6030 C   0  0  2  0  0  3  0  0  0  0  0  0
  162.6600  210.5130  154.4110 O   0  0  0  0  0  0  0  0  0  0  0  0
  160.3920  209.7460  154.5230 C   0  0  1  0  0  0  0  0  0  0  0  0
  161.7790  209.9340  155.0250 C   0  0  0  0  0  0  0  0  0  0  0  0
  159.2330  210.3380  155.2380 N   0  0  0  0  0  0  0  0  0  0  0  0
  160.6210  208.9820  156.7960 N   0  0  0  0  0  0  0  0  0  0  0  0
  159.6490  211.4010  156.1560 C   0  0  0  0  0  2  0  0  0  0  0  0
  160.0290  212.7470  154.2230 F   0  0  0  0  0  0  0  0  0  0  0  0
  159.4770  212.7560  155.4920 C   0  0  1  0  0  3  0  0  0  0  0  0
  155.9100  213.2980  154.2590 C   0  0  0  0  0  3  0  0  0  0  0  0
  157.2650  212.9510  154.2660 C   0  0  0  0  0  0  0  0  0  0  0  0
  157.8230  212.4360  153.1420 F   0  0  0  0  0  0  0  0  0  0  0  0
  157.4240  213.6520  156.5830 C   0  0  0  0  0  3  0  0  0  0  0  0
  158.0290  213.1290  155.4350 C   0  0  0  0  0  0  0  0  0  0  0  0
  156.0710  213.9990  156.5710 C   0  0  0  0  0  3  0  0  0  0  0  0
  155.3150  213.8210  155.4100 C   0  0  0  0  0  3  0  0  0  0  0  0
  162.7970  206.6830  151.8760 C   0  0  0  0  0  2  0  0  0  0  0  0
  161.3040  204.8790  152.6280 C   0  0  0  0  0  0  0  0  0  0  0  0
  161.3810  205.3000  153.8140 O   0  0  0  0  0  0  0  0  0  0  0  0
  161.8860  205.0420  150.3370 C   0  0  0  0  0  3  0  0  0  0  0  0
  161.9830  205.5010  151.6160 N   0  0  0  0  0  0  0  0  0  0  0  0
  160.4250  203.3130  151.0670 N   0  0  0  0  0  0  0  0  0  0  0  0
  160.5150  203.7620  152.3450 C   0  0  0  0  0  3  0  0  0  0  0  0
  161.0860  203.9350  150.0520 C   0  0  0  0  0  0  0  0  0  0  0  0
  161.0010  203.4230  148.6390 C   0  0  2  0  0  3  0  0  0  0  0  0
  159.4230  201.5170  149.0480 C   0  0  0  0  0  1  0  0  0  0  0  0
  160.7880  201.9010  148.4920 C   0  0  2  0  0  0  0  0  0  0  0  0
  161.7660  201.2080  149.1850 F   0  0  0  0  0  0  0  0  0  0  0  0
  161.3430  200.1090  146.7930 C   0  0  0  0  0  1  0  0  0  0  0  0
  160.8430  201.5270  147.0100 C   0  0  0  0  0  2  0  0  0  0  0  0
  162.0690  203.9580  147.7820 N   0  0  0  0  0  2  0  0  0  0  0  0
  161.6290  205.1630  147.0900 C   0  0  1  0  0  3  0  0  0  0  0  0
  162.3400  206.2630  147.5690 O   0  0  0  0  0  1  0  0  0  0  0  0
  161.8590  205.0170  145.6610 N   0  0  0  0  0  2  0  0  0  0  0  0
  161.0370  205.6670  144.6920 C   0  0  0  0  0  0  0  0  0  0  0  0
  160.0300  206.3330  145.0500 O   0  0  0  0  0  0  0  0  0  0  0  0
  161.3370  205.5320  143.3080 N   0  0  0  0  0  1  0  0  0  0  0  0
  1  5  1  6  0  0  0
  1 11  1  0  0  0  0
  2  4  2  0  0  0  0
  3  6  1  0  0  0  0
  3  2  1  0  0  0  0
  4  1  1  0  0  0  0
  6  5  1  0  0  0  0
  7 14  1  0  0  0  0
  9 13  1  1  0  0  0
  9 14  1  0  0  0  0
 10 12  2  0  0  0  0
 11 12  1  1  0  0  0
 11 13  1  0  0  0  0
 11  9  1  0  0  0  0
 12  7  1  0  0  0  0
 13 15  1  0  0  0  0
 14  8  1  0  0  0  0
 17 16  1  6  0  0  0
 17 15  1  0  0  0  0
 18 19  2  0  0  0  0
 18 24  1  0  0  0  0
 19 22  1  0  0  0  0
 20 19  1  0  0  0  0
 22 17  1  0  0  0  0
 22 21  2  0  0  0  0
 23 21  1  0  0  0  0
 24 23  2  0  0  0  0
 25  2  1  0  0  0  0
 26 27  2  0  0  0  0
 28 29  1  0  0  0  0
 29 25  1  0  0  0  0
 29 26  1  0  0  0  0
 30 31  2  0  0  0  0
 31 26  1  0  0  0  0
 32 28  2  0  0  0  0
 32 30  1  0  0  0  0
 33 39  1  6  0  0  0
 33 32  1  0  0  0  0
 35 33  1  0  0  0  0
 35 34  1  1  0  0  0
 35 36  1  0  0  0  0
 37 38  1  0  0  0  0
 38 35  1  0  0  0  0
 40 41  1  1  0  0  0
 40 39  1  0  0  0  0
 42 40  1  0  0  0  0
 43 44  2  0  0  0  0
 43 42  1  0  0  0  0
 45 43  1  0  0  0  0
M  END
>  <MODEL>
1

>  <REMARK>
 VINA RESULT:      -7.9      0.000      0.000
  Name = 
  12 active torsions:
  status: ('A' for Active; 'I' for Inactive)
    1  A    between atoms: C_2  and  N_25
    2  A    between atoms: C_2  and  C_34
    3  A    between atoms: C_2  and  C_36
    4  A    between atoms: C_7  and  C_33
    5  A    between atoms: N_9  and  C_31
    6  A    between atoms: C_10  and  C_31
    7  A    between atoms: N_11  and  C_38
    8  A    between atoms: C_14  and  N_37
    9  A    between atoms: C_14  and  C_41
   10  A    between atoms: C_21  and  C_41
   11  A    between atoms: N_25  and  C_38
   12  A    between atoms: C_34  and  C_42
                            x       y       z     vdW  Elec       q    Type
                         _______ _______ _______ _____ _____    ______ ____

>  <TORSDO>
F 12

$$$$
=
 OpenBabel11072412013D

 45 49  0  0  1  0  0  0  0  0999 V2000
  159.7140  209.6430  153.7590 C   0  0  2  0  0  3  0  0  0  0  0  0
  161.4320  209.5690  151.9310 C   0  0  0  0  0  0  0  0  0  0  0  0
  161.0510  210.9480  151.4540 C   0  0  0  0  0  2  0  0  0  0  0  0
  160.7790  208.9570  152.9320 C   0  0  0  0  0  3  0  0  0  0  0  0
  159.1870  210.9240  153.1070 C   0  0  0  0  0  2  0  0  0  0  0  0
  160.3300  211.7520  152.5310 C   0  0  0  0  0  2  0  0  0  0  0  0
  161.9340  209.0430  156.6880 C   0  0  0  0  0  2  0  0  0  0  0  0
  160.6920  207.1470  157.2610 C   0  0  0  0  0  1  0  0  0  0  0  0
  159.6330  208.9110  156.1170 C   0  0  2  0  0  3  0  0  0  0  0  0
  162.4720  210.6310  155.0090 O   0  0  0  0  0  0  0  0  0  0  0  0
  160.1950  209.9030  155.1890 C   0  0  1  0  0  0  0  0  0  0  0  0
  161.6350  209.9340  155.5600 C   0  0  0  0  0  0  0  0  0  0  0  0
  159.1470  210.3200  156.1560 N   0  0  0  0  0  0  0  0  0  0  0  0
  160.6290  208.5940  157.1640 N   0  0  0  0  0  0  0  0  0  0  0  0
  159.7080  211.1140  157.2520 C   0  0  0  0  0  2  0  0  0  0  0  0
  160.4930  213.1440  156.2760 F   0  0  0  0  0  0  0  0  0  0  0  0
  159.4550  212.5910  157.0050 C   0  0  1  0  0  3  0  0  0  0  0  0
  156.8220  213.6820  154.4730 C   0  0  0  0  0  3  0  0  0  0  0  0
  158.0580  213.5380  155.1120 C   0  0  0  0  0  0  0  0  0  0  0  0
  159.1560  214.1200  154.5700 F   0  0  0  0  0  0  0  0  0  0  0  0
  157.0030  212.1880  156.8290 C   0  0  0  0  0  3  0  0  0  0  0  0
  158.1510  212.7860  156.2980 C   0  0  0  0  0  0  0  0  0  0  0  0
  155.7700  212.3360  156.1890 C   0  0  0  0  0  3  0  0  0  0  0  0
  155.6800  213.0830  155.0120 C   0  0  0  0  0  3  0  0  0  0  0  0
  162.5470  208.8450  151.2500 C   0  0  0  0  0  2  0  0  0  0  0  0
  161.8940  208.8290  148.8780 C   0  0  0  0  0  0  0  0  0  0  0  0
  162.1640  210.0570  148.7880 O   0  0  0  0  0  0  0  0  0  0  0  0
  161.7580  206.8320  150.1470 C   0  0  0  0  0  3  0  0  0  0  0  0
  162.0460  208.1610  150.0620 N   0  0  0  0  0  0  0  0  0  0  0  0
  161.1490  206.8170  147.8480 N   0  0  0  0  0  0  0  0  0  0  0  0
  161.4330  208.1420  147.7530 C   0  0  0  0  0  3  0  0  0  0  0  0
  161.3110  206.1430  149.0190 C   0  0  0  0  0  0  0  0  0  0  0  0
  160.9760  204.6790  149.1270 C   0  0  2  0  0  3  0  0  0  0  0  0
  160.8060  202.6290  150.5620 C   0  0  0  0  0  1  0  0  0  0  0  0
  160.7440  204.1510  150.5590 C   0  0  2  0  0  0  0  0  0  0  0  0
  159.5010  204.5490  151.0240 F   0  0  0  0  0  0  0  0  0  0  0  0
  161.3040  205.0500  152.8580 C   0  0  0  0  0  1  0  0  0  0  0  0
  161.8370  204.6950  151.4790 C   0  0  0  0  0  2  0  0  0  0  0  0
  161.8720  203.8360  148.3220 N   0  0  0  0  0  2  0  0  0  0  0  0
  161.4260  203.7770  146.9350 C   0  0  1  0  0  3  0  0  0  0  0  0
  162.4470  204.2270  146.0970 O   0  0  0  0  0  1  0  0  0  0  0  0
  161.0800  202.4080  146.5910 N   0  0  0  0  0  2  0  0  0  0  0  0
  160.4510  202.0740  145.3530 C   0  0  0  0  0  0  0  0  0  0  0  0
  160.1050  202.9770  144.5480 O   0  0  0  0  0  0  0  0  0  0  0  0
  160.1790  200.7130  145.0450 N   0  0  0  0  0  1  0  0  0  0  0  0
  1  4  1  6  0  0  0
  1 11  1  0  0  0  0
  2  4  2  0  0  0  0
  3  2  1  0  0  0  0
  3  6  1  0  0  0  0
  5  1  1  0  0  0  0
  6  5  1  0  0  0  0
  7 14  1  0  0  0  0
  9 13  1  1  0  0  0
  9 14  1  0  0  0  0
 10 12  2  0  0  0  0
 11 12  1  1  0  0  0
 11  9  1  0  0  0  0
 11 13  1  0  0  0  0
 12  7  1  0  0  0  0
 13 15  1  0  0  0  0
 14  8  1  0  0  0  0
 17 16  1  6  0  0  0
 17 15  1  0  0  0  0
 18 24  2  0  0  0  0
 18 19  1  0  0  0  0
 19 22  2  0  0  0  0
 20 19  1  0  0  0  0
 22 21  1  0  0  0  0
 22 17  1  0  0  0  0
 23 21  2  0  0  0  0
 24 23  1  0  0  0  0
 25  2  1  0  0  0  0
 26 29  1  0  0  0  0
 27 26  2  0  0  0  0
 29 28  1  0  0  0  0
 29 25  1  0  0  0  0
 30 32  1  0  0  0  0
 31 30  2  0  0  0  0
 31 26  1  0  0  0  0
 32 33  1  0  0  0  0
 32 28  2  0  0  0  0
 33 39  1  1  0  0  0
 33 35  1  0  0  0  0
 35 34  1  6  0  0  0
 35 36  1  0  0  0  0
 35 38  1  0  0  0  0
 38 37  1  0  0  0  0
 40 41  1  6  0  0  0
 40 39  1  0  0  0  0
 42 40  1  0  0  0  0
 43 42  1  0  0  0  0
 44 43  2  0  0  0  0
 45 43  1  0  0  0  0
M  END
>  <MODEL>
2

>  <REMARK>
 VINA RESULT:      -7.7      2.041      3.017
  Name = 
  12 active torsions:
  status: ('A' for Active; 'I' for Inactive)
    1  A    between atoms: C_2  and  N_25
    2  A    between atoms: C_2  and  C_34
    3  A    between atoms: C_2  and  C_36
    4  A    between atoms: C_7  and  C_33
    5  A    between atoms: N_9  and  C_31
    6  A    between atoms: C_10  and  C_31
    7  A    between atoms: N_11  and  C_38
    8  A    between atoms: C_14  and  N_37
    9  A    between atoms: C_14  and  C_41
   10  A    between atoms: C_21  and  C_41
   11  A    between atoms: N_25  and  C_38
   12  A    between atoms: C_34  and  C_42
                            x       y       z     vdW  Elec       q    Type
                         _______ _______ _______ _____ _____    ______ ____

>  <TORSDO>
F 12

$$$$
=
 OpenBabel11072412013D

 45 49  0  0  1  0  0  0  0  0999 V2000
  160.6200  206.6770  149.7040 C   0  0  2  0  0  3  0  0  0  0  0  0
  161.8460  208.7170  150.4980 C   0  0  0  0  0  0  0  0  0  0  0  0
  162.2820  208.0190  151.7610 C   0  0  0  0  0  2  0  0  0  0  0  0
  161.0390  208.1260  149.6030 C   0  0  0  0  0  3  0  0  0  0  0  0
  160.8670  206.0810  151.0920 C   0  0  0  0  0  2  0  0  0  0  0  0
  162.2310  206.5000  151.6300 C   0  0  0  0  0  2  0  0  0  0  0  0
  162.2840  206.1930  146.4080 C   0  0  0  0  0  2  0  0  0  0  0  0
  160.2170  206.3250  145.3260 C   0  0  0  0  0  1  0  0  0  0  0  0
  160.3060  205.5280  147.5400 C   0  0  2  0  0  3  0  0  0  0  0  0
  163.5200  206.6210  148.3880 O   0  0  0  0  0  0  0  0  0  0  0  0
  161.2690  205.8260  148.6090 C   0  0  1  0  0  0  0  0  0  0  0  0
  162.4780  206.2640  147.8620 C   0  0  0  0  0  0  0  0  0  0  0  0
  160.7410  204.4450  148.4670 N   0  0  0  0  0  0  0  0  0  0  0  0
  161.0040  205.5130  146.2350 N   0  0  0  0  0  0  0  0  0  0  0  0
  161.7420  203.5380  147.8980 C   0  0  0  0  0  2  0  0  0  0  0  0
  160.3580  202.0480  149.1460 F   0  0  0  0  0  0  0  0  0  0  0  0
  161.3720  202.0980  148.2050 C   0  0  1  0  0  3  0  0  0  0  0  0
  160.8790  199.4040  145.5530 C   0  0  0  0  0  3  0  0  0  0  0  0
  161.2940  200.0360  146.7290 C   0  0  0  0  0  0  0  0  0  0  0  0
  162.0030  199.3320  147.6460 F   0  0  0  0  0  0  0  0  0  0  0  0
  160.2220  202.0850  145.9940 C   0  0  0  0  0  3  0  0  0  0  0  0
  160.9640  201.3860  146.9530 C   0  0  0  0  0  0  0  0  0  0  0  0
  159.8110  201.4490  144.8200 C   0  0  0  0  0  3  0  0  0  0  0  0
  160.1400  200.1100  144.5990 C   0  0  0  0  0  3  0  0  0  0  0  0
  162.2970  210.1190  150.2480 C   0  0  0  0  0  2  0  0  0  0  0  0
  160.9720  212.1900  150.3120 C   0  0  0  0  0  0  0  0  0  0  0  0
  161.3280  212.4630  149.1340 O   0  0  0  0  0  0  0  0  0  0  0  0
  161.0180  210.7670  152.2060 C   0  0  0  0  0  3  0  0  0  0  0  0
  161.4160  211.0560  150.9360 N   0  0  0  0  0  0  0  0  0  0  0  0
  159.7210  212.7590  152.2550 N   0  0  0  0  0  0  0  0  0  0  0  0
  160.1110  213.0570  150.9890 C   0  0  0  0  0  3  0  0  0  0  0  0
  160.1480  211.6260  152.8770 C   0  0  0  0  0  0  0  0  0  0  0  0
  159.7300  211.3090  154.2880 C   0  0  2  0  0  3  0  0  0  0  0  0
  157.8210  211.0700  155.8970 C   0  0  0  0  0  1  0  0  0  0  0  0
  158.3610  211.8750  154.7230 C   0  0  2  0  0  0  0  0  0  0  0  0
  157.4560  211.8030  153.6770 F   0  0  0  0  0  0  0  0  0  0  0  0
  157.2100  213.9840  155.5180 C   0  0  0  0  0  1  0  0  0  0  0  0
  158.5340  213.3310  155.1560 C   0  0  0  0  0  2  0  0  0  0  0  0
  160.8060  211.5470  155.2600 N   0  0  0  0  0  2  0  0  0  0  0  0
  161.6640  210.3740  155.3880 C   0  0  1  0  0  3  0  0  0  0  0  0
  162.9420  210.7710  155.7790 O   0  0  0  0  0  1  0  0  0  0  0  0
  161.1080  209.4690  156.3810 N   0  0  0  0  0  2  0  0  0  0  0  0
  160.5930  208.1840  156.0300 C   0  0  0  0  0  0  0  0  0  0  0  0
  160.5350  207.8260  154.8250 O   0  0  0  0  0  0  0  0  0  0  0  0
  160.1080  207.3170  157.0470 N   0  0  0  0  0  1  0  0  0  0  0  0
  1  4  1  1  0  0  0
  1  5  1  0  0  0  0
  2  3  1  0  0  0  0
  4  2  2  0  0  0  0
  5  6  1  0  0  0  0
  6  3  1  0  0  0  0
  7 12  1  0  0  0  0
  8 14  1  0  0  0  0
  9 14  1  6  0  0  0
  9 13  1  0  0  0  0
  9 11  1  0  0  0  0
 11 12  1  6  0  0  0
 11  1  1  0  0  0  0
 12 10  2  0  0  0  0
 13 11  1  0  0  0  0
 14  7  1  0  0  0  0
 15 17  1  0  0  0  0
 15 13  1  0  0  0  0
 17 16  1  1  0  0  0
 18 19  1  0  0  0  0
 19 22  2  0  0  0  0
 19 20  1  0  0  0  0
 21 22  1  0  0  0  0
 22 17  1  0  0  0  0
 23 21  2  0  0  0  0
 24 23  1  0  0  0  0
 24 18  2  0  0  0  0
 25  2  1  0  0  0  0
 25 29  1  0  0  0  0
 26 29  1  0  0  0  0
 26 31  1  0  0  0  0
 27 26  2  0  0  0  0
 28 32  2  0  0  0  0
 29 28  1  0  0  0  0
 30 32  1  0  0  0  0
 31 30  2  0  0  0  0
 32 33  1  0  0  0  0
 33 35  1  0  0  0  0
 33 39  1  1  0  0  0
 35 38  1  0  0  0  0
 35 34  1  1  0  0  0
 36 35  1  0  0  0  0
 38 37  1  0  0  0  0
 39 40  1  0  0  0  0
 40 41  1  1  0  0  0
 40 42  1  0  0  0  0
 43 42  1  0  0  0  0
 43 45  1  0  0  0  0
 44 43  2  0  0  0  0
M  END
>  <MODEL>
3

>  <REMARK>
 VINA RESULT:      -6.8      1.996     10.988
  Name = 
  12 active torsions:
  status: ('A' for Active; 'I' for Inactive)
    1  A    between atoms: C_2  and  N_25
    2  A    between atoms: C_2  and  C_34
    3  A    between atoms: C_2  and  C_36
    4  A    between atoms: C_7  and  C_33
    5  A    between atoms: N_9  and  C_31
    6  A    between atoms: C_10  and  C_31
    7  A    between atoms: N_11  and  C_38
    8  A    between atoms: C_14  and  N_37
    9  A    between atoms: C_14  and  C_41
   10  A    between atoms: C_21  and  C_41
   11  A    between atoms: N_25  and  C_38
   12  A    between atoms: C_34  and  C_42
                            x       y       z     vdW  Elec       q    Type
                         _______ _______ _______ _____ _____    ______ ____

>  <TORSDO>
F 12

$$$$
=
 OpenBabel11072412013D

 45 49  0  0  1  0  0  0  0  0999 V2000
  160.1440  209.0270  153.2080 C   0  0  2  0  0  3  0  0  0  0  0  0
  161.9070  207.5340  152.2300 C   0  0  0  0  0  0  0  0  0  0  0  0
  162.4280  208.6460  151.3550 C   0  0  0  0  0  2  0  0  0  0  0  0
  160.8320  207.6940  153.0170 C   0  0  0  0  0  3  0  0  0  0  0  0
  160.5310  210.0550  152.1410 C   0  0  0  0  0  2  0  0  0  0  0  0
  162.0310  210.0240  151.8740 C   0  0  0  0  0  2  0  0  0  0  0  0
  161.7830  209.0580  156.5510 C   0  0  0  0  0  2  0  0  0  0  0  0
  160.4060  207.3080  157.2600 C   0  0  0  0  0  1  0  0  0  0  0  0
  159.6200  208.7920  155.6100 C   0  0  2  0  0  3  0  0  0  0  0  0
  162.6600  210.2730  154.7120 O   0  0  0  0  0  0  0  0  0  0  0  0
  160.3680  209.5780  154.6190 C   0  0  1  0  0  0  0  0  0  0  0  0
  161.7180  209.6960  155.2310 C   0  0  0  0  0  0  0  0  0  0  0  0
  159.1760  210.1750  155.2750 N   0  0  0  0  0  0  0  0  0  0  0  0
  160.4020  208.7040  156.8630 N   0  0  0  0  0  0  0  0  0  0  0  0
  159.5530  211.1810  156.2710 C   0  0  0  0  0  2  0  0  0  0  0  0
  160.0050  212.5800  154.3920 F   0  0  0  0  0  0  0  0  0  0  0  0
  159.4630  212.5700  155.6650 C   0  0  1  0  0  3  0  0  0  0  0  0
  156.2040  214.2300  154.5890 C   0  0  0  0  0  3  0  0  0  0  0  0
  157.5440  213.8310  154.5860 C   0  0  0  0  0  0  0  0  0  0  0  0
  158.3470  214.2100  153.5620 F   0  0  0  0  0  0  0  0  0  0  0  0
  157.1860  212.6490  156.6750 C   0  0  0  0  0  3  0  0  0  0  0  0
  158.0410  213.0350  155.6360 C   0  0  0  0  0  0  0  0  0  0  0  0
  155.8490  213.0520  156.6730 C   0  0  0  0  0  3  0  0  0  0  0  0
  155.3580  213.8420  155.6310 C   0  0  0  0  0  3  0  0  0  0  0  0
  162.5860  206.2030  152.1980 C   0  0  0  0  0  2  0  0  0  0  0  0
  161.1010  204.2880  151.7770 C   0  0  0  0  0  0  0  0  0  0  0  0
  160.9920  204.0900  153.0170 O   0  0  0  0  0  0  0  0  0  0  0  0
  161.9820  205.5140  149.9510 C   0  0  0  0  0  3  0  0  0  0  0  0
  161.8780  205.3050  151.2920 N   0  0  0  0  0  0  0  0  0  0  0  0
  160.5290  203.6750  149.5500 N   0  0  0  0  0  0  0  0  0  0  0  0
  160.4180  203.4580  150.8860 C   0  0  0  0  0  3  0  0  0  0  0  0
  161.2890  204.6930  149.0610 C   0  0  0  0  0  0  0  0  0  0  0  0
  161.4260  204.9190  147.5790 C   0  0  2  0  0  3  0  0  0  0  0  0
  160.3490  206.5710  146.0300 C   0  0  0  0  0  1  0  0  0  0  0  0
  161.3940  206.3940  147.1230 C   0  0  2  0  0  0  0  0  0  0  0  0
  162.6310  206.7710  146.6260 F   0  0  0  0  0  0  0  0  0  0  0  0
  161.7260  208.6270  148.2650 C   0  0  0  0  0  1  0  0  0  0  0  0
  161.0240  207.2800  148.3120 C   0  0  0  0  0  2  0  0  0  0  0  0
  160.5540  204.0350  146.7920 N   0  0  0  0  0  2  0  0  0  0  0  0
  161.3260  203.2690  145.8210 C   0  0  1  0  0  3  0  0  0  0  0  0
  162.5670  203.8760  145.6280 O   0  0  0  0  0  1  0  0  0  0  0  0
  161.5150  201.9130  146.3070 N   0  0  0  0  0  2  0  0  0  0  0  0
  160.8360  200.7990  145.7280 C   0  0  0  0  0  0  0  0  0  0  0  0
  159.9850  200.9720  144.8170 O   0  0  0  0  0  0  0  0  0  0  0  0
  161.0960  199.4860  146.2090 N   0  0  0  0  0  1  0  0  0  0  0  0
  1  5  1  6  0  0  0
  1 11  1  0  0  0  0
  2  4  2  0  0  0  0
  3  6  1  0  0  0  0
  3  2  1  0  0  0  0
  4  1  1  0  0  0  0
  6  5  1  0  0  0  0
  7 14  1  0  0  0  0
  9 13  1  1  0  0  0
  9 14  1  0  0  0  0
 10 12  2  0  0  0  0
 11 12  1  1  0  0  0
 11 13  1  0  0  0  0
 11  9  1  0  0  0  0
 12  7  1  0  0  0  0
 13 15  1  0  0  0  0
 14  8  1  0  0  0  0
 17 16  1  6  0  0  0
 17 15  1  0  0  0  0
 18 24  1  0  0  0  0
 19 18  2  0  0  0  0
 19 22  1  0  0  0  0
 20 19  1  0  0  0  0
 22 17  1  0  0  0  0
 22 21  2  0  0  0  0
 23 21  1  0  0  0  0
 24 23  2  0  0  0  0
 25  2  1  0  0  0  0
 26 27  2  0  0  0  0
 28 29  1  0  0  0  0
 29 26  1  0  0  0  0
 29 25  1  0  0  0  0
 30 31  2  0  0  0  0
 31 26  1  0  0  0  0
 32 30  1  0  0  0  0
 32 28  2  0  0  0  0
 33 39  1  6  0  0  0
 33 32  1  0  0  0  0
 35 34  1  6  0  0  0
 35 33  1  0  0  0  0
 35 38  1  0  0  0  0
 36 35  1  0  0  0  0
 37 38  1  0  0  0  0
 40 41  1  1  0  0  0
 40 42  1  0  0  0  0
 40 39  1  0  0  0  0
 43 45  1  0  0  0  0
 43 42  1  0  0  0  0
 44 43  2  0  0  0  0
M  END
>  <MODEL>
4

>  <REMARK>
 VINA RESULT:      -6.8      1.857      2.816
  Name = 
  12 active torsions:
  status: ('A' for Active; 'I' for Inactive)
    1  A    between atoms: C_2  and  N_25
    2  A    between atoms: C_2  and  C_34
    3  A    between atoms: C_2  and  C_36
    4  A    between atoms: C_7  and  C_33
    5  A    between atoms: N_9  and  C_31
    6  A    between atoms: C_10  and  C_31
    7  A    between atoms: N_11  and  C_38
    8  A    between atoms: C_14  and  N_37
    9  A    between atoms: C_14  and  C_41
   10  A    between atoms: C_21  and  C_41
   11  A    between atoms: N_25  and  C_38
   12  A    between atoms: C_34  and  C_42
                            x       y       z     vdW  Elec       q    Type
                         _______ _______ _______ _____ _____    ______ ____

>  <TORSDO>
F 12

$$$$
=
 OpenBabel11072412013D

 45 49  0  0  1  0  0  0  0  0999 V2000
  160.5150  206.4020  149.7960 C   0  0  2  0  0  3  0  0  0  0  0  0
  161.8400  208.0430  151.1550 C   0  0  0  0  0  0  0  0  0  0  0  0
  161.9580  207.0690  152.3010 C   0  0  0  0  0  2  0  0  0  0  0  0
  161.1310  207.7590  150.0520 C   0  0  0  0  0  3  0  0  0  0  0  0
  160.4400  205.5350  151.0560 C   0  0  0  0  0  2  0  0  0  0  0  0
  161.7330  205.6270  151.8580 C   0  0  0  0  0  2  0  0  0  0  0  0
  162.1690  206.2280  146.4640 C   0  0  0  0  0  2  0  0  0  0  0  0
  160.0820  206.2050  145.4120 C   0  0  0  0  0  1  0  0  0  0  0  0
  160.2820  205.3240  147.5860 C   0  0  2  0  0  3  0  0  0  0  0  0
  163.3870  206.6880  148.4480 O   0  0  0  0  0  0  0  0  0  0  0  0
  161.2280  205.6670  148.6570 C   0  0  1  0  0  0  0  0  0  0  0  0
  162.3770  206.2540  147.9170 C   0  0  0  0  0  0  0  0  0  0  0  0
  160.8350  204.2490  148.4590 N   0  0  0  0  0  0  0  0  0  0  0  0
  160.9590  205.4340  146.2750 N   0  0  0  0  0  0  0  0  0  0  0  0
  161.9100  203.4710  147.8390 C   0  0  0  0  0  2  0  0  0  0  0  0
  160.8290  201.7980  149.1530 F   0  0  0  0  0  0  0  0  0  0  0  0
  161.6860  201.9890  148.0830 C   0  0  1  0  0  3  0  0  0  0  0  0
  160.7670  199.3760  145.4630 C   0  0  0  0  0  3  0  0  0  0  0  0
  161.3020  199.9530  146.6200 C   0  0  0  0  0  0  0  0  0  0  0  0
  161.9580  199.1680  147.5100 F   0  0  0  0  0  0  0  0  0  0  0  0
  160.4550  202.1160  145.9210 C   0  0  0  0  0  3  0  0  0  0  0  0
  161.1450  201.3330  146.8520 C   0  0  0  0  0  0  0  0  0  0  0  0
  159.9240  201.5350  144.7660 C   0  0  0  0  0  3  0  0  0  0  0  0
  160.0800  200.1660  144.5380 C   0  0  0  0  0  3  0  0  0  0  0  0
  162.5060  209.3760  151.2620 C   0  0  0  0  0  2  0  0  0  0  0  0
  161.0270  211.3400  151.3380 C   0  0  0  0  0  0  0  0  0  0  0  0
  161.2010  211.5270  150.1030 O   0  0  0  0  0  0  0  0  0  0  0  0
  161.4450  210.1080  153.3180 C   0  0  0  0  0  3  0  0  0  0  0  0
  161.6460  210.3060  151.9860 N   0  0  0  0  0  0  0  0  0  0  0  0
  159.9990  211.9950  153.3810 N   0  0  0  0  0  0  0  0  0  0  0  0
  160.1920  212.2010  152.0520 C   0  0  0  0  0  3  0  0  0  0  0  0
  160.5990  210.9610  154.0290 C   0  0  0  0  0  0  0  0  0  0  0  0
  160.4000  210.7470  155.5060 C   0  0  2  0  0  3  0  0  0  0  0  0
  162.1460  210.0290  157.1560 C   0  0  0  0  0  1  0  0  0  0  0  0
  161.1490  209.5410  156.1140 C   0  0  2  0  0  0  0  0  0  0  0  0
  161.8320  208.8520  155.1270 F   0  0  0  0  0  0  0  0  0  0  0  0
  159.9190  207.3320  155.9980 C   0  0  0  0  0  1  0  0  0  0  0  0
  160.1400  208.6110  156.7890 C   0  0  0  0  0  2  0  0  0  0  0  0
  158.9850  210.8260  155.9000 N   0  0  0  0  0  2  0  0  0  0  0  0
  158.7300  212.0250  156.6900 C   0  0  1  0  0  3  0  0  0  0  0  0
  159.9290  212.7020  156.9130 O   0  0  0  0  0  1  0  0  0  0  0  0
  157.8050  212.8920  155.9780 N   0  0  0  0  0  2  0  0  0  0  0  0
  156.4050  212.6160  155.9140 C   0  0  0  0  0  0  0  0  0  0  0  0
  155.9380  211.5600  156.4140 O   0  0  0  0  0  0  0  0  0  0  0  0
  155.5380  213.5240  155.2470 N   0  0  0  0  0  1  0  0  0  0  0  0
  1  4  1  1  0  0  0
  1  5  1  0  0  0  0
  2 25  1  0  0  0  0
  2  3  1  0  0  0  0
  4  2  2  0  0  0  0
  5  6  1  0  0  0  0
  6  3  1  0  0  0  0
  7 12  1  0  0  0  0
  8 14  1  0  0  0  0
  9 14  1  6  0  0  0
  9 13  1  0  0  0  0
  9 11  1  0  0  0  0
 11 12  1  6  0  0  0
 11  1  1  0  0  0  0
 12 10  2  0  0  0  0
 13 11  1  0  0  0  0
 14  7  1  0  0  0  0
 15 17  1  0  0  0  0
 15 13  1  0  0  0  0
 17 16  1  1  0  0  0
 18 19  1  0  0  0  0
 19 22  2  0  0  0  0
 19 20  1  0  0  0  0
 21 22  1  0  0  0  0
 22 17  1  0  0  0  0
 23 21  2  0  0  0  0
 24 23  1  0  0  0  0
 24 18  2  0  0  0  0
 25 29  1  0  0  0  0
 26 29  1  0  0  0  0
 26 31  1  0  0  0  0
 27 26  2  0  0  0  0
 28 32  2  0  0  0  0
 29 28  1  0  0  0  0
 30 32  1  0  0  0  0
 31 30  2  0  0  0  0
 32 33  1  0  0  0  0
 33 39  1  6  0  0  0
 33 35  1  0  0  0  0
 35 38  1  0  0  0  0
 35 34  1  1  0  0  0
 36 35  1  0  0  0  0
 37 38  1  0  0  0  0
 39 40  1  0  0  0  0
 40 41  1  6  0  0  0
 42 40  1  0  0  0  0
 43 42  1  0  0  0  0
 43 44  2  0  0  0  0
 45 43  1  0  0  0  0
M  END
>  <MODEL>
5

>  <REMARK>
 VINA RESULT:      -6.4      2.336     10.996
  Name = 
  12 active torsions:
  status: ('A' for Active; 'I' for Inactive)
    1  A    between atoms: C_2  and  N_25
    2  A    between atoms: C_2  and  C_34
    3  A    between atoms: C_2  and  C_36
    4  A    between atoms: C_7  and  C_33
    5  A    between atoms: N_9  and  C_31
    6  A    between atoms: C_10  and  C_31
    7  A    between atoms: N_11  and  C_38
    8  A    between atoms: C_14  and  N_37
    9  A    between atoms: C_14  and  C_41
   10  A    between atoms: C_21  and  C_41
   11  A    between atoms: N_25  and  C_38
   12  A    between atoms: C_34  and  C_42
                            x       y       z     vdW  Elec       q    Type
                         _______ _______ _______ _____ _____    ______ ____

>  <TORSDO>
F 12

$$$$
=
 OpenBabel11072412013D

 45 49  0  0  1  0  0  0  0  0999 V2000
  160.3490  207.3660  152.0310 C   0  0  2  0  0  3  0  0  0  0  0  0
  161.4290  209.0730  153.5210 C   0  0  0  0  0  0  0  0  0  0  0  0
  161.6610  208.0490  154.6020 C   0  0  0  0  0  2  0  0  0  0  0  0
  160.7750  208.7730  152.3870 C   0  0  0  0  0  3  0  0  0  0  0  0
  160.3750  206.4150  153.2310 C   0  0  0  0  0  2  0  0  0  0  0  0
  161.6350  206.6220  154.0630 C   0  0  0  0  0  2  0  0  0  0  0  0
  163.1810  207.4350  149.6160 C   0  0  0  0  0  2  0  0  0  0  0  0
  162.0490  209.0080  148.3090 C   0  0  0  0  0  1  0  0  0  0  0  0
  160.8080  207.4860  149.6070 C   0  0  2  0  0  3  0  0  0  0  0  0
  163.3570  206.3660  151.7260 O   0  0  0  0  0  0  0  0  0  0  0  0
  161.1660  206.8090  150.8620 C   0  0  1  0  0  0  0  0  0  0  0  0
  162.6520  206.8240  150.8410 C   0  0  0  0  0  0  0  0  0  0  0  0
  160.3940  206.0710  149.8290 N   0  0  0  0  0  0  0  0  0  0  0  0
  162.0140  207.6300  148.7620 N   0  0  0  0  0  0  0  0  0  0  0  0
  161.2270  205.0890  149.1300 C   0  0  0  0  0  2  0  0  0  0  0  0
  159.8900  203.6620  150.4980 F   0  0  0  0  0  0  0  0  0  0  0  0
  161.0670  203.7230  149.7730 C   0  0  1  0  0  3  0  0  0  0  0  0
  161.2320  200.3160  148.0680 C   0  0  0  0  0  3  0  0  0  0  0  0
  161.2220  201.2890  149.0720 C   0  0  0  0  0  0  0  0  0  0  0  0
  161.3220  200.9050  150.3690 F   0  0  0  0  0  0  0  0  0  0  0  0
  160.9880  203.0170  147.3840 C   0  0  0  0  0  3  0  0  0  0  0  0
  161.0990  202.6500  148.7300 C   0  0  0  0  0  0  0  0  0  0  0  0
  161.0000  202.0410  146.3850 C   0  0  0  0  0  3  0  0  0  0  0  0
  161.1210  200.6920  146.7260 C   0  0  0  0  0  3  0  0  0  0  0  0
  161.9100  210.4720  153.7270 C   0  0  0  0  0  2  0  0  0  0  0  0
  161.8490  211.0250  156.1230 C   0  0  0  0  0  0  0  0  0  0  0  0
  162.9690  210.4710  156.2860 O   0  0  0  0  0  0  0  0  0  0  0  0
  160.0480  211.6670  154.7240 C   0  0  0  0  0  3  0  0  0  0  0  0
  161.2540  211.0580  154.8910 N   0  0  0  0  0  0  0  0  0  0  0  0
  160.0040  212.2190  157.0360 N   0  0  0  0  0  0  0  0  0  0  0  0
  161.2070  211.6150  157.2140 C   0  0  0  0  0  3  0  0  0  0  0  0
  159.4130  212.2670  155.8110 C   0  0  0  0  0  0  0  0  0  0  0  0
  158.0700  212.9200  155.6210 C   0  0  2  0  0  3  0  0  0  0  0  0
  156.9700  210.7310  156.1550 C   0  0  0  0  0  1  0  0  0  0  0  0
  156.9080  211.9670  155.2680 C   0  0  2  0  0  0  0  0  0  0  0  0
  156.9930  211.5730  153.9430 F   0  0  0  0  0  0  0  0  0  0  0  0
  155.2310  212.7700  156.9860 C   0  0  0  0  0  1  0  0  0  0  0  0
  155.5790  212.6840  155.5090 C   0  0  0  0  0  2  0  0  0  0  0  0
  158.1400  214.1120  154.7630 N   0  0  0  0  0  2  0  0  0  0  0  0
  157.8810  213.7700  153.3700 C   0  0  1  0  0  3  0  0  0  0  0  0
  156.7470  214.4500  152.9250 O   0  0  0  0  0  1  0  0  0  0  0  0
  159.0250  214.1420  152.5540 N   0  0  0  0  0  2  0  0  0  0  0  0
  159.1550  213.7230  151.1950 C   0  0  0  0  0  0  0  0  0  0  0  0
  158.3080  212.9450  150.6820 O   0  0  0  0  0  0  0  0  0  0  0  0
  160.2690  214.1570  150.4260 N   0  0  0  0  0  1  0  0  0  0  0  0
  1  4  1  1  0  0  0
  1  5  1  0  0  0  0
  2 25  1  0  0  0  0
  2  3  1  0  0  0  0
  4  2  2  0  0  0  0
  5  6  1  0  0  0  0
  6  3  1  0  0  0  0
  7 12  1  0  0  0  0
  8 14  1  0  0  0  0
  9 14  1  6  0  0  0
  9 13  1  0  0  0  0
  9 11  1  0  0  0  0
 11 12  1  1  0  0  0
 11  1  1  0  0  0  0
 12 10  2  0  0  0  0
 13 11  1  0  0  0  0
 14  7  1  0  0  0  0
 15 17  1  0  0  0  0
 15 13  1  0  0  0  0
 17 16  1  6  0  0  0
 18 19  1  0  0  0  0
 19 20  1  0  0  0  0
 21 22  1  0  0  0  0
 22 19  2  0  0  0  0
 22 17  1  0  0  0  0
 23 24  1  0  0  0  0
 23 21  2  0  0  0  0
 24 18  2  0  0  0  0
 25 29  1  0  0  0  0
 26 27  2  0  0  0  0
 26 31  1  0  0  0  0
 28 29  1  0  0  0  0
 28 32  2  0  0  0  0
 29 26  1  0  0  0  0
 30 31  2  0  0  0  0
 32 30  1  0  0  0  0
 33 39  1  6  0  0  0
 33 32  1  0  0  0  0
 35 38  1  0  0  0  0
 35 33  1  0  0  0  0
 35 34  1  1  0  0  0
 36 35  1  0  0  0  0
 38 37  1  0  0  0  0
 40 41  1  6  0  0  0
 40 39  1  0  0  0  0
 42 40  1  0  0  0  0
 43 42  1  0  0  0  0
 44 43  2  0  0  0  0
 45 43  1  0  0  0  0
M  END
>  <MODEL>
6

>  <REMARK>
 VINA RESULT:      -6.0      2.629     10.274
  Name = 
  12 active torsions:
  status: ('A' for Active; 'I' for Inactive)
    1  A    between atoms: C_2  and  N_25
    2  A    between atoms: C_2  and  C_34
    3  A    between atoms: C_2  and  C_36
    4  A    between atoms: C_7  and  C_33
    5  A    between atoms: N_9  and  C_31
    6  A    between atoms: C_10  and  C_31
    7  A    between atoms: N_11  and  C_38
    8  A    between atoms: C_14  and  N_37
    9  A    between atoms: C_14  and  C_41
   10  A    between atoms: C_21  and  C_41
   11  A    between atoms: N_25  and  C_38
   12  A    between atoms: C_34  and  C_42
                            x       y       z     vdW  Elec       q    Type
                         _______ _______ _______ _____ _____    ______ ____

>  <TORSDO>
F 12

$$$$
=
 OpenBabel11072412013D

 45 49  0  0  1  0  0  0  0  0999 V2000
  162.3120  205.9690  152.1720 C   0  0  2  0  0  3  0  0  0  0  0  0
  161.0810  207.4150  153.8120 C   0  0  0  0  0  0  0  0  0  0  0  0
  160.9610  208.5330  152.8070 C   0  0  0  0  0  2  0  0  0  0  0  0
  161.7510  206.2840  153.5400 C   0  0  0  0  0  3  0  0  0  0  0  0
  162.3910  207.2000  151.2630 C   0  0  0  0  0  2  0  0  0  0  0  0
  161.1240  208.0400  151.3730 C   0  0  0  0  0  2  0  0  0  0  0  0
  160.6160  202.6550  152.1460 C   0  0  0  0  0  2  0  0  0  0  0  0
  162.6870  201.5790  152.0100 C   0  0  0  0  0  1  0  0  0  0  0  0
  162.4560  203.7430  151.1130 C   0  0  2  0  0  3  0  0  0  0  0  0
  159.4500  204.6580  152.6510 O   0  0  0  0  0  0  0  0  0  0  0  0
  161.5440  204.8290  151.4980 C   0  0  1  0  0  0  0  0  0  0  0  0
  160.4250  204.1100  152.1640 C   0  0  0  0  0  0  0  0  0  0  0  0
  161.8480  204.6070  150.0610 N   0  0  0  0  0  0  0  0  0  0  0  0
  161.7740  202.4410  151.2830 N   0  0  0  0  0  0  0  0  0  0  0  0
  160.7210  203.9890  149.3590 C   0  0  0  0  0  2  0  0  0  0  0  0
  160.5160  202.0770  147.9450 F   0  0  0  0  0  0  0  0  0  0  0  0
  161.2170  203.2570  148.1240 C   0  0  1  0  0  3  0  0  0  0  0  0
  160.9580  204.4460  144.5110 C   0  0  0  0  0  3  0  0  0  0  0  0
  161.0910  203.5950  145.6130 C   0  0  0  0  0  0  0  0  0  0  0  0
  161.2060  202.2600  145.4100 F   0  0  0  0  0  0  0  0  0  0  0  0
  160.9640  205.5120  147.0950 C   0  0  0  0  0  3  0  0  0  0  0  0
  161.0940  204.1310  146.9150 C   0  0  0  0  0  0  0  0  0  0  0  0
  160.8330  206.3570  145.9910 C   0  0  0  0  0  3  0  0  0  0  0  0
  160.8300  205.8250  144.6990 C   0  0  0  0  0  3  0  0  0  0  0  0
  160.4650  207.5810  155.1630 C   0  0  0  0  0  2  0  0  0  0  0  0
  161.4490  209.4650  156.4010 C   0  0  0  0  0  0  0  0  0  0  0  0
  162.3260  208.6990  156.8840 O   0  0  0  0  0  0  0  0  0  0  0  0
  159.5500  209.8260  155.0300 C   0  0  0  0  0  3  0  0  0  0  0  0
  160.4880  208.9870  155.5520 N   0  0  0  0  0  0  0  0  0  0  0  0
  160.5190  211.6480  156.2120 N   0  0  0  0  0  0  0  0  0  0  0  0
  161.4590  210.8200  156.7370 C   0  0  0  0  0  3  0  0  0  0  0  0
  159.5690  211.1820  155.3560 C   0  0  0  0  0  0  0  0  0  0  0  0
  158.5150  212.0970  154.7900 C   0  0  2  0  0  3  0  0  0  0  0  0
  157.1010  213.7810  155.9950 C   0  0  0  0  0  1  0  0  0  0  0  0
  157.2650  212.3020  155.6720 C   0  0  2  0  0  0  0  0  0  0  0  0
  157.3910  211.5960  156.8570 F   0  0  0  0  0  0  0  0  0  0  0  0
  155.5660  210.4500  155.3810 C   0  0  0  0  0  1  0  0  0  0  0  0
  156.0290  211.8190  154.9120 C   0  0  0  0  0  2  0  0  0  0  0  0
  158.2070  211.7980  153.3840 N   0  0  0  0  0  2  0  0  0  0  0  0
  159.0200  212.6100  152.4870 C   0  0  1  0  0  3  0  0  0  0  0  0
  160.0920  211.8530  152.0140 O   0  0  0  0  0  1  0  0  0  0  0  0
  158.2100  213.0630  151.3680 N   0  0  0  0  0  2  0  0  0  0  0  0
  158.7800  213.7310  150.2420 C   0  0  0  0  0  0  0  0  0  0  0  0
  160.0050  214.0190  150.2220 O   0  0  0  0  0  0  0  0  0  0  0  0
  157.9490  214.1080  149.1510 N   0  0  0  0  0  1  0  0  0  0  0  0
  1  5  1  6  0  0  0
  1  4  1  0  0  0  0
  2 25  1  0  0  0  0
  3  2  1  0  0  0  0
  4  2  2  0  0  0  0
  5  6  1  0  0  0  0
  6  3  1  0  0  0  0
  7 12  1  0  0  0  0
  9 13  1  6  0  0  0
  9 14  1  0  0  0  0
  9 11  1  0  0  0  0
 11 12  1  1  0  0  0
 11  1  1  0  0  0  0
 12 10  2  0  0  0  0
 13 11  1  0  0  0  0
 14  8  1  0  0  0  0
 14  7  1  0  0  0  0
 15 13  1  0  0  0  0
 17 16  1  6  0  0  0
 17 15  1  0  0  0  0
 18 24  2  0  0  0  0
 18 19  1  0  0  0  0
 19 22  2  0  0  0  0
 20 19  1  0  0  0  0
 22 21  1  0  0  0  0
 22 17  1  0  0  0  0
 23 21  2  0  0  0  0
 24 23  1  0  0  0  0
 25 29  1  0  0  0  0
 26 31  1  0  0  0  0
 26 27  2  0  0  0  0
 28 32  2  0  0  0  0
 28 29  1  0  0  0  0
 29 26  1  0  0  0  0
 30 31  2  0  0  0  0
 32 30  1  0  0  0  0
 33 39  1  6  0  0  0
 33 32  1  0  0  0  0
 33 35  1  0  0  0  0
 35 34  1  1  0  0  0
 35 36  1  0  0  0  0
 38 37  1  0  0  0  0
 38 35  1  0  0  0  0
 40 41  1  6  0  0  0
 40 39  1  0  0  0  0
 42 40  1  0  0  0  0
 43 42  1  0  0  0  0
 44 43  2  0  0  0  0
 45 43  1  0  0  0  0
M  END
>  <MODEL>
7

>  <REMARK>
 VINA RESULT:      -5.7      2.570      9.836
  Name = 
  12 active torsions:
  status: ('A' for Active; 'I' for Inactive)
    1  A    between atoms: C_2  and  N_25
    2  A    between atoms: C_2  and  C_34
    3  A    between atoms: C_2  and  C_36
    4  A    between atoms: C_7  and  C_33
    5  A    between atoms: N_9  and  C_31
    6  A    between atoms: C_10  and  C_31
    7  A    between atoms: N_11  and  C_38
    8  A    between atoms: C_14  and  N_37
    9  A    between atoms: C_14  and  C_41
   10  A    between atoms: C_21  and  C_41
   11  A    between atoms: N_25  and  C_38
   12  A    between atoms: C_34  and  C_42
                            x       y       z     vdW  Elec       q    Type
                         _______ _______ _______ _____ _____    ______ ____

>  <TORSDO>
F 12

$$$$
=
 OpenBabel11072412013D

 45 49  0  0  1  0  0  0  0  0999 V2000
  160.5140  206.3150  147.9750 C   0  0  2  0  0  3  0  0  0  0  0  0
  161.9050  208.1850  148.9060 C   0  0  0  0  0  0  0  0  0  0  0  0
  161.9330  207.5450  150.2710 C   0  0  0  0  0  2  0  0  0  0  0  0
  161.2060  207.6570  147.8890 C   0  0  0  0  0  3  0  0  0  0  0  0
  160.3540  205.8200  149.4150 C   0  0  0  0  0  2  0  0  0  0  0  0
  161.6300  206.0520  150.2160 C   0  0  0  0  0  2  0  0  0  0  0  0
  162.8240  205.2460  145.2570 C   0  0  0  0  0  2  0  0  0  0  0  0
  161.2080  205.7760  143.6540 C   0  0  0  0  0  1  0  0  0  0  0  0
  160.5180  205.1280  145.8090 C   0  0  2  0  0  3  0  0  0  0  0  0
  163.5580  205.5110  147.4980 O   0  0  0  0  0  0  0  0  0  0  0  0
  161.2070  205.2680  147.0990 C   0  0  1  0  0  0  0  0  0  0  0  0
  162.6380  205.3670  146.7080 C   0  0  0  0  0  0  0  0  0  0  0  0
  160.4220  204.0380  146.8210 N   0  0  0  0  0  0  0  0  0  0  0  0
  161.5110  204.8670  144.7440 N   0  0  0  0  0  0  0  0  0  0  0  0
  161.2920  202.8910  146.5470 C   0  0  0  0  0  2  0  0  0  0  0  0
  161.5810  200.5700  147.0150 F   0  0  0  0  0  0  0  0  0  0  0  0
  160.7970  201.6720  147.3040 C   0  0  1  0  0  3  0  0  0  0  0  0
  159.6830  201.9570  150.9400 C   0  0  0  0  0  3  0  0  0  0  0  0
  159.6440  201.7080  149.5640 C   0  0  0  0  0  0  0  0  0  0  0  0
  158.5020  201.2340  149.0090 F   0  0  0  0  0  0  0  0  0  0  0  0
  161.9560  202.4200  149.3790 C   0  0  0  0  0  3  0  0  0  0  0  0
  160.7880  201.9400  148.7770 C   0  0  0  0  0  0  0  0  0  0  0  0
  161.9890  202.6680  150.7530 C   0  0  0  0  0  3  0  0  0  0  0  0
  160.8540  202.4370  151.5330 C   0  0  0  0  0  3  0  0  0  0  0  0
  162.6490  209.4610  148.6840 C   0  0  0  0  0  2  0  0  0  0  0  0
  161.7000  211.7300  148.6760 C   0  0  0  0  0  0  0  0  0  0  0  0
  162.0730  211.8900  147.4830 O   0  0  0  0  0  0  0  0  0  0  0  0
  161.5430  210.3980  150.6300 C   0  0  0  0  0  3  0  0  0  0  0  0
  161.9570  210.5630  149.3430 N   0  0  0  0  0  0  0  0  0  0  0  0
  160.6080  212.5850  150.6100 N   0  0  0  0  0  0  0  0  0  0  0  0
  161.0160  212.7590  149.3260 C   0  0  0  0  0  3  0  0  0  0  0  0
  160.8470  211.4210  151.2750 C   0  0  0  0  0  0  0  0  0  0  0  0
  160.4120  211.2380  152.7040 C   0  0  2  0  0  3  0  0  0  0  0  0
  161.5960  210.8180  154.8740 C   0  0  0  0  0  1  0  0  0  0  0  0
  161.2270  210.2160  153.5250 C   0  0  2  0  0  0  0  0  0  0  0  0
  162.3890  209.8760  152.8530 F   0  0  0  0  0  0  0  0  0  0  0  0
  161.2050  207.6910  153.6880 C   0  0  0  0  0  1  0  0  0  0  0  0
  160.3790  208.9650  153.7540 C   0  0  0  0  0  2  0  0  0  0  0  0
  158.9560  211.0760  152.8320 N   0  0  0  0  0  2  0  0  0  0  0  0
  158.3690  212.1910  153.5660 C   0  0  1  0  0  3  0  0  0  0  0  0
  158.0320  213.2100  152.6750 O   0  0  0  0  0  1  0  0  0  0  0  0
  157.1780  211.7410  154.2670 N   0  0  0  0  0  2  0  0  0  0  0  0
  157.0400  211.8640  155.6830 C   0  0  0  0  0  0  0  0  0  0  0  0
  157.9910  212.3020  156.3820 O   0  0  0  0  0  0  0  0  0  0  0  0
  155.8330  211.4540  156.3130 N   0  0  0  0  0  1  0  0  0  0  0  0
  1  4  1  1  0  0  0
  1  5  1  0  0  0  0
  2  3  1  0  0  0  0
  4  2  2  0  0  0  0
  5  6  1  0  0  0  0
  6  3  1  0  0  0  0
  7 12  1  0  0  0  0
  8 14  1  0  0  0  0
  9 14  1  6  0  0  0
  9 13  1  0  0  0  0
  9 11  1  0  0  0  0
 11 12  1  1  0  0  0
 11  1  1  0  0  0  0
 12 10  2  0  0  0  0
 13 11  1  0  0  0  0
 14  7  1  0  0  0  0
 15 13  1  0  0  0  0
 15 17  1  0  0  0  0
 17 16  1  1  0  0  0
 17 22  1  0  0  0  0
 18 24  1  0  0  0  0
 19 18  2  0  0  0  0
 20 19  1  0  0  0  0
 21 23  1  0  0  0  0
 22 21  2  0  0  0  0
 22 19  1  0  0  0  0
 23 24  2  0  0  0  0
 25  2  1  0  0  0  0
 25 29  1  0  0  0  0
 26 31  1  0  0  0  0
 26 29  1  0  0  0  0
 27 26  2  0  0  0  0
 28 32  2  0  0  0  0
 29 28  1  0  0  0  0
 30 32  1  0  0  0  0
 31 30  2  0  0  0  0
 32 33  1  0  0  0  0
 33 39  1  6  0  0  0
 33 35  1  0  0  0  0
 35 38  1  0  0  0  0
 35 34  1  1  0  0  0
 36 35  1  0  0  0  0
 37 38  1  0  0  0  0
 39 40  1  0  0  0  0
 40 41  1  6  0  0  0
 40 42  1  0  0  0  0
 42 43  1  0  0  0  0
 43 45  1  0  0  0  0
 43 44  2  0  0  0  0
M  END
>  <MODEL>
8

>  <REMARK>
 VINA RESULT:      -5.7      2.674     10.421
  Name = 
  12 active torsions:
  status: ('A' for Active; 'I' for Inactive)
    1  A    between atoms: C_2  and  N_25
    2  A    between atoms: C_2  and  C_34
    3  A    between atoms: C_2  and  C_36
    4  A    between atoms: C_7  and  C_33
    5  A    between atoms: N_9  and  C_31
    6  A    between atoms: C_10  and  C_31
    7  A    between atoms: N_11  and  C_38
    8  A    between atoms: C_14  and  N_37
    9  A    between atoms: C_14  and  C_41
   10  A    between atoms: C_21  and  C_41
   11  A    between atoms: N_25  and  C_38
   12  A    between atoms: C_34  and  C_42
                            x       y       z     vdW  Elec       q    Type
                         _______ _______ _______ _____ _____    ______ ____

>  <TORSDO>
F 12

$$$$
=
 OpenBabel11072412013D

 45 49  0  0  1  0  0  0  0  0999 V2000
  162.1390  208.2270  153.3290 C   0  0  2  0  0  3  0  0  0  0  0  0
  161.0960  207.1570  151.3120 C   0  0  0  0  0  0  0  0  0  0  0  0
  161.1090  205.7990  151.9690 C   0  0  0  0  0  2  0  0  0  0  0  0
  161.6240  208.2380  151.9070 C   0  0  0  0  0  3  0  0  0  0  0  0
  162.3630  206.8120  153.8690 C   0  0  0  0  0  2  0  0  0  0  0  0
  161.2080  205.8930  153.4880 C   0  0  0  0  0  2  0  0  0  0  0  0
  160.7740  209.1630  156.6640 C   0  0  0  0  0  2  0  0  0  0  0  0
  159.3550  207.3060  156.6230 C   0  0  0  0  0  1  0  0  0  0  0  0
  160.0160  208.2920  154.5900 C   0  0  2  0  0  3  0  0  0  0  0  0
  162.6990  210.2110  155.7560 O   0  0  0  0  0  0  0  0  0  0  0  0
  161.2370  209.0410  154.2600 C   0  0  1  0  0  0  0  0  0  0  0  0
  161.6920  209.5430  155.5840 C   0  0  0  0  0  0  0  0  0  0  0  0
  159.9380  209.4740  153.6840 N   0  0  0  0  0  0  0  0  0  0  0  0
  159.6190  208.5820  155.9850 N   0  0  0  0  0  0  0  0  0  0  0  0
  159.4360  210.6890  154.3310 C   0  0  0  0  0  2  0  0  0  0  0  0
  160.9890  211.5550  152.7400 F   0  0  0  0  0  0  0  0  0  0  0  0
  159.9980  211.9160  153.6360 C   0  0  1  0  0  3  0  0  0  0  0  0
  156.9700  214.1330  152.9620 C   0  0  0  0  0  3  0  0  0  0  0  0
  157.9650  213.4330  153.6530 C   0  0  0  0  0  0  0  0  0  0  0  0
  158.0140  213.5120  155.0050 F   0  0  0  0  0  0  0  0  0  0  0  0
  158.8390  212.6130  151.5430 C   0  0  0  0  0  3  0  0  0  0  0  0
  158.9070  212.6670  152.9400 C   0  0  0  0  0  0  0  0  0  0  0  0
  157.8420  213.3120  150.8580 C   0  0  0  0  0  3  0  0  0  0  0  0
  156.9090  214.0720  151.5670 C   0  0  0  0  0  3  0  0  0  0  0  0
  160.5090  207.2990  149.9470 C   0  0  0  0  0  2  0  0  0  0  0  0
  162.3680  206.8870  148.3890 C   0  0  0  0  0  0  0  0  0  0  0  0
  162.8170  208.0450  148.6070 O   0  0  0  0  0  0  0  0  0  0  0  0
  160.7570  205.1920  148.7670 C   0  0  0  0  0  3  0  0  0  0  0  0
  161.2280  206.4480  149.0040 N   0  0  0  0  0  0  0  0  0  0  0  0
  162.5680  204.7920  147.2800 N   0  0  0  0  0  0  0  0  0  0  0  0
  163.0470  206.0420  147.5090 C   0  0  0  0  0  3  0  0  0  0  0  0
  161.4420  204.3430  147.8980 C   0  0  0  0  0  0  0  0  0  0  0  0
  160.9030  202.9640  147.6270 C   0  0  2  0  0  3  0  0  0  0  0  0
  161.5770  200.7280  148.5420 C   0  0  0  0  0  1  0  0  0  0  0  0
  160.8340  202.0210  148.8480 C   0  0  2  0  0  0  0  0  0  0  0  0
  159.5160  201.7200  149.1490 F   0  0  0  0  0  0  0  0  0  0  0  0
  160.8470  202.3050  151.3620 C   0  0  0  0  0  1  0  0  0  0  0  0
  161.4950  202.7030  150.0460 C   0  0  0  0  0  2  0  0  0  0  0  0
  161.5050  202.3480  146.4360 N   0  0  0  0  0  2  0  0  0  0  0  0
  160.6700  202.5590  145.2590 C   0  0  1  0  0  3  0  0  0  0  0  0
  159.6490  201.6090  145.2350 O   0  0  0  0  0  1  0  0  0  0  0  0
  160.0950  203.8940  145.3010 N   0  0  0  0  0  2  0  0  0  0  0  0
  160.7380  205.0150  144.6940 C   0  0  0  0  0  0  0  0  0  0  0  0
  161.8730  204.8920  144.1640 O   0  0  0  0  0  0  0  0  0  0  0  0
  160.1070  206.2890  144.7200 N   0  0  0  0  0  1  0  0  0  0  0  0
  1  4  1  6  0  0  0
  1  5  1  0  0  0  0
  1 11  1  0  0  0  0
  2  4  2  0  0  0  0
  2  3  1  0  0  0  0
  3  6  1  0  0  0  0
  6  5  1  0  0  0  0
  9 13  1  6  0  0  0
  9 14  1  0  0  0  0
 11  9  1  0  0  0  0
 11 12  1  1  0  0  0
 12 10  2  0  0  0  0
 12  7  1  0  0  0  0
 13 11  1  0  0  0  0
 13 15  1  0  0  0  0
 14  8  1  0  0  0  0
 14  7  1  0  0  0  0
 17 16  1  6  0  0  0
 17 15  1  0  0  0  0
 18 19  1  0  0  0  0
 19 20  1  0  0  0  0
 21 22  1  0  0  0  0
 22 17  1  0  0  0  0
 22 19  2  0  0  0  0
 23 21  2  0  0  0  0
 23 24  1  0  0  0  0
 24 18  2  0  0  0  0
 25  2  1  0  0  0  0
 26 27  2  0  0  0  0
 26 29  1  0  0  0  0
 28 29  1  0  0  0  0
 29 25  1  0  0  0  0
 30 31  2  0  0  0  0
 30 32  1  0  0  0  0
 31 26  1  0  0  0  0
 32 28  2  0  0  0  0
 33 39  1  6  0  0  0
 33 32  1  0  0  0  0
 33 35  1  0  0  0  0
 35 34  1  6  0  0  0
 35 36  1  0  0  0  0
 35 38  1  0  0  0  0
 38 37  1  0  0  0  0
 40 41  1  1  0  0  0
 40 42  1  0  0  0  0
 40 39  1  0  0  0  0
 43 45  1  0  0  0  0
 43 42  1  0  0  0  0
 44 43  2  0  0  0  0
M  END
>  <MODEL>
9

>  <REMARK>
 VINA RESULT:      -5.5      2.042      3.151
  Name = 
  12 active torsions:
  status: ('A' for Active; 'I' for Inactive)
    1  A    between atoms: C_2  and  N_25
    2  A    between atoms: C_2  and  C_34
    3  A    between atoms: C_2  and  C_36
    4  A    between atoms: C_7  and  C_33
    5  A    between atoms: N_9  and  C_31
    6  A    between atoms: C_10  and  C_31
    7  A    between atoms: N_11  and  C_38
    8  A    between atoms: C_14  and  N_37
    9  A    between atoms: C_14  and  C_41
   10  A    between atoms: C_21  and  C_41
   11  A    between atoms: N_25  and  C_38
   12  A    between atoms: C_34  and  C_42
                            x       y       z     vdW  Elec       q    Type
                         _______ _______ _______ _____ _____    ______ ____

>  <TORSDO>
F 12

$$$$
