=
 OpenBabel11072414323D

 36 39  0  0  1  0  0  0  0  0999 V2000
  161.5570  207.6760  150.2300 N   0  0  0  0  0  2  0  0  0  0  0  0
  161.6480  208.6310  151.3040 C   0  0  0  0  0  0  0  0  0  0  0  0
  162.5760  209.4790  151.2670 O   0  0  0  0  0  0  0  0  0  0  0  0
  160.6660  208.7290  152.4380 C   0  0  2  0  0  3  0  0  0  0  0  0
  160.0820  210.1150  152.6240 C   0  0  0  0  0  1  0  0  0  0  0  0
  161.2140  208.1670  153.7390 C   0  0  0  0  0  2  0  0  0  0  0  0
  160.0530  209.8440  157.1020 N   0  0  0  0  0  2  0  0  0  0  0  0
  161.8070  210.2890  154.8070 C   0  0  0  0  0  3  0  0  0  0  0  0
  160.6850  212.1380  156.5670 C   0  0  2  0  0  3  0  0  0  0  0  0
  161.5970  211.1370  155.9150 N   0  0  0  0  0  0  0  0  0  0  0  0
  161.0830  209.1650  154.8400 C   0  0  0  0  0  0  0  0  0  0  0  0
  160.9850  210.9730  157.2570 C   0  0  2  0  0  3  0  0  0  0  0  0
  159.3900  207.9070  155.9700 O   0  0  0  0  0  0  0  0  0  0  0  0
  160.1400  208.9190  155.9860 C   0  0  0  0  0  0  0  0  0  0  0  0
  159.3360  212.1870  155.8940 C   0  0  0  0  0  0  0  0  0  0  0  0
  156.9380  211.9260  155.9890 C   0  0  0  0  0  3  0  0  0  0  0  0
  159.2070  212.6780  154.5890 C   0  0  0  0  0  3  0  0  0  0  0  0
  156.8400  212.3850  154.7120 N   0  0  0  0  0  0  0  0  0  0  0  0
  157.9410  212.7610  154.0080 C   0  0  0  0  0  3  0  0  0  0  0  0
  158.1860  211.8280  156.6050 C   0  0  0  0  0  3  0  0  0  0  0  0
  160.7310  206.4730  150.1240 C   0  0  2  0  0  3  0  0  0  0  0  0
  162.3390  205.4390  151.5840 O   0  0  0  0  0  1  0  0  0  0  0  0
  160.5220  204.1600  151.0340 O   0  0  0  0  0  0  0  0  0  0  0  0
  161.2470  205.3420  150.9610 C   0  0  0  0  0  0  0  0  0  0  0  0
  160.4490  206.1040  148.6740 C   0  0  0  0  0  2  0  0  0  0  0  0
  161.5680  206.5040  147.8380 N   0  0  0  0  0  2  0  0  0  0  0  0
  162.6360  205.9450  145.4840 O   0  0  0  0  0  0  0  0  0  0  0  0
  161.3990  205.7130  146.3060 S   0  0  0  0  0  0  0  0  0  0  0  0
  160.2150  206.2760  145.5690 O   0  0  0  0  0  0  0  0  0  0  0  0
  161.3550  202.0420  148.0000 C   0  0  0  0  0  3  0  0  0  0  0  0
  161.5100  203.4150  147.7910 C   0  0  0  0  0  3  0  0  0  0  0  0
  160.8780  201.2290  146.9700 C   0  0  0  0  0  3  0  0  0  0  0  0
  160.3800  203.7000  144.2780 O   0  0  0  0  0  1  0  0  0  0  0  0
  160.7080  203.1630  145.5180 C   0  0  0  0  0  0  0  0  0  0  0  0
  160.5540  201.7890  145.7310 C   0  0  0  0  0  3  0  0  0  0  0  0
  161.1910  203.9820  146.5510 C   0  0  0  0  0  0  0  0  0  0  0  0
  1  2  1  0  0  0  0
  2  4  1  0  0  0  0
  3  2  2  0  0  0  0
  4  5  1  1  0  0  0
  4  6  1  0  0  0  0
  6 11  1  0  0  0  0
  8 11  2  0  0  0  0
  8 10  1  0  0  0  0
  9 15  1  6  0  0  0
  9 12  1  0  0  0  0
 10  9  1  0  0  0  0
 10 12  1  0  0  0  0
 11 14  1  0  0  0  0
 12  7  1  6  0  0  0
 13 14  2  0  0  0  0
 14  7  1  0  0  0  0
 15 20  1  0  0  0  0
 16 20  2  0  0  0  0
 17 15  2  0  0  0  0
 18 16  1  0  0  0  0
 19 17  1  0  0  0  0
 19 18  2  0  0  0  0
 21 25  1  6  0  0  0
 21  1  1  0  0  0  0
 21 24  1  0  0  0  0
 24 23  2  0  0  0  0
 24 22  1  0  0  0  0
 26 25  1  0  0  0  0
 27 28  2  0  0  0  0
 28 36  1  0  0  0  0
 28 26  1  0  0  0  0
 29 28  2  0  0  0  0
 31 30  1  0  0  0  0
 32 30  2  0  0  0  0
 33 34  1  0  0  0  0
 34 35  2  0  0  0  0
 34 36  1  0  0  0  0
 35 32  1  0  0  0  0
 36 31  2  0  0  0  0
M  END
>  <MODEL>
1

>  <REMARK>
 VINA RESULT:      -7.9      0.000      0.000
  Name = 
  10 active torsions:
  status: ('A' for Active; 'I' for Inactive)
    1  A    between atoms: N_5  and  CA_26
    2  A    between atoms: C_6  and  C_12
    3  A    between atoms: C_9  and  C_19
    4  A    between atoms: C_9  and  C_27
    5  A    between atoms: S_10  and  N_13
    6  A    between atoms: S_10  and  C_32
    7  A    between atoms: N_13  and  C_30
    8  A    between atoms: C_20  and  C_27
    9  A    between atoms: CA_26  and  C_30
   10  A    between atoms: CA_26  and  C_34
                            x       y       z     vdW  Elec       q    Type
                         _______ _______ _______ _____ _____    ______ ____

>  <TORSDO>
F 10

$$$$
=
 OpenBabel11072414323D

 36 39  0  0  1  0  0  0  0  0999 V2000
  161.2380  206.4290  149.5610 N   0  0  0  0  0  2  0  0  0  0  0  0
  160.8390  206.2130  150.9270 C   0  0  0  0  0  0  0  0  0  0  0  0
  159.7830  205.5640  151.1420 O   0  0  0  0  0  0  0  0  0  0  0  0
  161.6380  206.6510  152.1230 C   0  0  2  0  0  3  0  0  0  0  0  0
  162.9160  205.8650  152.3280 C   0  0  0  0  0  1  0  0  0  0  0  0
  160.8040  206.7140  153.3930 C   0  0  0  0  0  2  0  0  0  0  0  0
  161.0870  209.2590  156.3790 N   0  0  0  0  0  2  0  0  0  0  0  0
  161.6680  209.0020  153.5260 C   0  0  0  0  0  3  0  0  0  0  0  0
  161.2940  211.3000  155.0590 C   0  0  2  0  0  3  0  0  0  0  0  0
  161.8990  210.1150  154.3610 N   0  0  0  0  0  0  0  0  0  0  0  0
  161.0940  207.9670  154.1500 C   0  0  0  0  0  0  0  0  0  0  0  0
  161.9270  210.3350  155.8290 C   0  0  2  0  0  3  0  0  0  0  0  0
  160.1210  207.1380  156.1720 O   0  0  0  0  0  0  0  0  0  0  0  0
  160.7460  208.0760  155.6090 C   0  0  0  0  0  0  0  0  0  0  0  0
  159.7860  211.2520  155.0380 C   0  0  0  0  0  0  0  0  0  0  0  0
  157.6730  211.2640  156.2060 C   0  0  0  0  0  3  0  0  0  0  0  0
  159.0890  211.2970  153.8240 C   0  0  0  0  0  3  0  0  0  0  0  0
  157.0180  211.2850  155.0140 N   0  0  0  0  0  0  0  0  0  0  0  0
  157.6930  211.3040  153.8340 C   0  0  0  0  0  3  0  0  0  0  0  0
  159.0680  211.2560  156.2390 C   0  0  0  0  0  3  0  0  0  0  0  0
  162.2780  207.3070  149.0240 C   0  0  2  0  0  3  0  0  0  0  0  0
  161.5000  209.4660  148.3020 O   0  0  0  0  0  0  0  0  0  0  0  0
  162.2380  209.3430  150.4650 O   0  0  0  0  0  1  0  0  0  0  0  0
  161.9730  208.7600  149.2330 C   0  0  0  0  0  0  0  0  0  0  0  0
  162.6460  206.9420  147.5920 C   0  0  0  0  0  2  0  0  0  0  0  0
  161.4960  206.3590  146.9210 N   0  0  0  0  0  2  0  0  0  0  0  0
  163.4890  204.7960  146.1610 O   0  0  0  0  0  0  0  0  0  0  0  0
  161.9890  204.8480  146.2330 S   0  0  0  0  0  0  0  0  0  0  0  0
  161.4320  204.7150  144.8420 O   0  0  0  0  0  0  0  0  0  0  0  0
  160.9590  202.6220  149.4480 C   0  0  0  0  0  3  0  0  0  0  0  0
  161.4050  203.6660  148.6330 C   0  0  0  0  0  3  0  0  0  0  0  0
  160.5210  201.4270  148.8720 C   0  0  0  0  0  3  0  0  0  0  0  0
  160.9710  202.1520  145.2840 O   0  0  0  0  0  1  0  0  0  0  0  0
  160.9730  202.3210  146.6650 C   0  0  0  0  0  0  0  0  0  0  0  0
  160.5270  201.2780  147.4820 C   0  0  0  0  0  3  0  0  0  0  0  0
  161.4170  203.5220  147.2410 C   0  0  0  0  0  0  0  0  0  0  0  0
  1  2  1  0  0  0  0
  2  3  2  0  0  0  0
  2  4  1  0  0  0  0
  4  5  1  1  0  0  0
  4  6  1  0  0  0  0
  6 11  1  0  0  0  0
  8 11  2  0  0  0  0
  8 10  1  0  0  0  0
  9 15  1  1  0  0  0
  9 12  1  0  0  0  0
 10  9  1  0  0  0  0
 10 12  1  0  0  0  0
 11 14  1  0  0  0  0
 12  7  1  1  0  0  0
 14 13  2  0  0  0  0
 14  7  1  0  0  0  0
 15 20  1  0  0  0  0
 16 20  2  0  0  0  0
 17 19  1  0  0  0  0
 17 15  2  0  0  0  0
 18 16  1  0  0  0  0
 19 18  2  0  0  0  0
 21 25  1  6  0  0  0
 21 24  1  0  0  0  0
 21  1  1  0  0  0  0
 22 24  2  0  0  0  0
 24 23  1  0  0  0  0
 26 25  1  0  0  0  0
 27 28  2  0  0  0  0
 28 26  1  0  0  0  0
 28 36  1  0  0  0  0
 29 28  2  0  0  0  0
 31 30  2  0  0  0  0
 32 30  1  0  0  0  0
 33 34  1  0  0  0  0
 34 36  2  0  0  0  0
 34 35  1  0  0  0  0
 35 32  2  0  0  0  0
 36 31  1  0  0  0  0
M  END
>  <MODEL>
2

>  <REMARK>
 VINA RESULT:      -7.3      1.501      2.391
  Name = 
  10 active torsions:
  status: ('A' for Active; 'I' for Inactive)
    1  A    between atoms: N_5  and  CA_26
    2  A    between atoms: C_6  and  C_12
    3  A    between atoms: C_9  and  C_19
    4  A    between atoms: C_9  and  C_27
    5  A    between atoms: S_10  and  N_13
    6  A    between atoms: S_10  and  C_32
    7  A    between atoms: N_13  and  C_30
    8  A    between atoms: C_20  and  C_27
    9  A    between atoms: CA_26  and  C_30
   10  A    between atoms: CA_26  and  C_34
                            x       y       z     vdW  Elec       q    Type
                         _______ _______ _______ _____ _____    ______ ____

>  <TORSDO>
F 10

$$$$
=
 OpenBabel11072414323D

 36 39  0  0  1  0  0  0  0  0999 V2000
  161.8150  208.5560  151.1440 N   0  0  0  0  0  2  0  0  0  0  0  0
  161.8850  209.4740  152.2500 C   0  0  0  0  0  0  0  0  0  0  0  0
  162.7570  210.3800  152.2160 O   0  0  0  0  0  0  0  0  0  0  0  0
  160.9370  209.4700  153.4170 C   0  0  2  0  0  3  0  0  0  0  0  0
  160.8290  208.1290  154.1140 C   0  0  0  0  0  1  0  0  0  0  0  0
  159.5710  210.0370  153.0650 C   0  0  0  0  0  2  0  0  0  0  0  0
  157.9080  212.2780  155.8370 N   0  0  0  0  0  2  0  0  0  0  0  0
  159.9500  212.3580  153.7480 C   0  0  0  0  0  3  0  0  0  0  0  0
  158.5440  214.4530  154.9340 C   0  0  2  0  0  3  0  0  0  0  0  0
  159.5650  213.3940  154.6240 N   0  0  0  0  0  0  0  0  0  0  0  0
  159.2600  211.2240  153.9140 C   0  0  0  0  0  0  0  0  0  0  0  0
  158.7770  213.4640  155.8800 C   0  0  2  0  0  3  0  0  0  0  0  0
  157.4640  210.1220  155.0450 O   0  0  0  0  0  0  0  0  0  0  0  0
  158.1760  211.1570  154.9530 C   0  0  0  0  0  0  0  0  0  0  0  0
  157.3000  214.2920  154.0960 C   0  0  0  0  0  0  0  0  0  0  0  0
  154.8970  214.1340  153.9220 C   0  0  0  0  0  3  0  0  0  0  0  0
  157.3770  214.3000  152.6980 C   0  0  0  0  0  3  0  0  0  0  0  0
  154.9990  214.1200  152.5660 N   0  0  0  0  0  0  0  0  0  0  0  0
  156.2060  214.2020  151.9450 C   0  0  0  0  0  3  0  0  0  0  0  0
  156.0450  214.2290  154.7110 C   0  0  0  0  0  3  0  0  0  0  0  0
  161.0610  207.3080  151.0180 C   0  0  2  0  0  3  0  0  0  0  0  0
  162.9060  206.1290  152.0140 O   0  0  0  0  0  0  0  0  0  0  0  0
  160.8420  205.1820  152.3040 O   0  0  0  0  0  1  0  0  0  0  0  0
  161.6630  206.1860  151.8090 C   0  0  0  0  0  0  0  0  0  0  0  0
  160.7700  206.9650  149.5630 C   0  0  0  0  0  2  0  0  0  0  0  0
  161.9930  206.5440  148.9020 N   0  0  0  0  0  2  0  0  0  0  0  0
  162.6850  205.6420  146.5140 O   0  0  0  0  0  0  0  0  0  0  0  0
  161.5540  205.6200  147.5030 S   0  0  0  0  0  0  0  0  0  0  0  0
  160.3350  206.2190  146.8590 O   0  0  0  0  0  0  0  0  0  0  0  0
  160.7800  202.3190  149.7070 C   0  0  0  0  0  3  0  0  0  0  0  0
  161.0310  203.6380  149.3200 C   0  0  0  0  0  3  0  0  0  0  0  0
  160.7280  201.3080  148.7460 C   0  0  0  0  0  3  0  0  0  0  0  0
  161.3700  203.2200  145.6580 O   0  0  0  0  0  1  0  0  0  0  0  0
  161.1770  202.9350  147.0050 C   0  0  0  0  0  0  0  0  0  0  0  0
  160.9250  201.6160  147.3960 C   0  0  0  0  0  3  0  0  0  0  0  0
  161.2330  203.9530  147.9710 C   0  0  0  0  0  0  0  0  0  0  0  0
  1  2  1  0  0  0  0
  2  4  1  0  0  0  0
  3  2  2  0  0  0  0
  4  5  1  6  0  0  0
  6  4  1  0  0  0  0
  6 11  1  0  0  0  0
  8 11  2  0  0  0  0
  8 10  1  0  0  0  0
  9 15  1  6  0  0  0
  9 12  1  0  0  0  0
 10  9  1  0  0  0  0
 10 12  1  0  0  0  0
 11 14  1  0  0  0  0
 12  7  1  6  0  0  0
 14 13  2  0  0  0  0
 14  7  1  0  0  0  0
 15 20  1  0  0  0  0
 16 20  2  0  0  0  0
 17 15  2  0  0  0  0
 18 16  1  0  0  0  0
 19 18  2  0  0  0  0
 19 17  1  0  0  0  0
 21 25  1  6  0  0  0
 21  1  1  0  0  0  0
 21 24  1  0  0  0  0
 24 22  2  0  0  0  0
 24 23  1  0  0  0  0
 26 25  1  0  0  0  0
 27 28  2  0  0  0  0
 28 36  1  0  0  0  0
 28 26  1  0  0  0  0
 29 28  2  0  0  0  0
 31 30  1  0  0  0  0
 32 30  2  0  0  0  0
 33 34  1  0  0  0  0
 34 35  2  0  0  0  0
 34 36  1  0  0  0  0
 35 32  1  0  0  0  0
 36 31  2  0  0  0  0
M  END
>  <MODEL>
3

>  <REMARK>
 VINA RESULT:      -7.3      1.754      2.405
  Name = 
  10 active torsions:
  status: ('A' for Active; 'I' for Inactive)
    1  A    between atoms: N_5  and  CA_26
    2  A    between atoms: C_6  and  C_12
    3  A    between atoms: C_9  and  C_19
    4  A    between atoms: C_9  and  C_27
    5  A    between atoms: S_10  and  N_13
    6  A    between atoms: S_10  and  C_32
    7  A    between atoms: N_13  and  C_30
    8  A    between atoms: C_20  and  C_27
    9  A    between atoms: CA_26  and  C_30
   10  A    between atoms: CA_26  and  C_34
                            x       y       z     vdW  Elec       q    Type
                         _______ _______ _______ _____ _____    ______ ____

>  <TORSDO>
F 10

$$$$
=
 OpenBabel11072414323D

 36 39  0  0  1  0  0  0  0  0999 V2000
  161.1440  206.8800  150.5760 N   0  0  0  0  0  2  0  0  0  0  0  0
  161.2530  208.2200  151.0920 C   0  0  0  0  0  0  0  0  0  0  0  0
  161.8490  209.0790  150.3920 O   0  0  0  0  0  0  0  0  0  0  0  0
  160.6400  208.6840  152.3840 C   0  0  2  0  0  3  0  0  0  0  0  0
  160.2230  210.1400  152.3760 C   0  0  0  0  0  1  0  0  0  0  0  0
  161.4980  208.3480  153.5930 C   0  0  0  0  0  2  0  0  0  0  0  0
  159.9980  209.8110  156.9220 N   0  0  0  0  0  2  0  0  0  0  0  0
  161.8560  210.4680  154.7650 C   0  0  0  0  0  3  0  0  0  0  0  0
  160.4850  212.1640  156.5030 C   0  0  2  0  0  3  0  0  0  0  0  0
  161.5110  211.2570  155.8820 N   0  0  0  0  0  0  0  0  0  0  0  0
  161.2200  209.2930  154.7140 C   0  0  0  0  0  0  0  0  0  0  0  0
  160.8280  210.9990  157.1750 C   0  0  2  0  0  3  0  0  0  0  0  0
  159.5590  207.8720  155.6880 O   0  0  0  0  0  0  0  0  0  0  0  0
  160.2270  208.9360  155.7860 C   0  0  0  0  0  0  0  0  0  0  0  0
  159.1820  212.1360  155.7430 C   0  0  0  0  0  0  0  0  0  0  0  0
  156.8210  211.6390  155.6510 C   0  0  0  0  0  3  0  0  0  0  0  0
  159.0850  212.7160  154.4720 C   0  0  0  0  0  3  0  0  0  0  0  0
  156.7580  212.1870  154.4080 N   0  0  0  0  0  0  0  0  0  0  0  0
  157.8560  212.7230  153.8120 C   0  0  0  0  0  3  0  0  0  0  0  0
  158.0330  211.6110  156.3440 C   0  0  0  0  0  3  0  0  0  0  0  0
  160.7040  205.6580  151.2490 C   0  0  2  0  0  3  0  0  0  0  0  0
  161.2680  204.5870  153.3280 O   0  0  0  0  0  1  0  0  0  0  0  0
  163.0230  205.4630  152.1470 O   0  0  0  0  0  0  0  0  0  0  0  0
  161.6690  205.1960  152.2990 C   0  0  0  0  0  0  0  0  0  0  0  0
  160.2920  204.5800  150.2560 C   0  0  0  0  0  2  0  0  0  0  0  0
  161.1000  203.3890  150.4580 N   0  0  0  0  0  2  0  0  0  0  0  0
  159.4650  201.8970  149.0110 O   0  0  0  0  0  0  0  0  0  0  0  0
  160.8920  202.3620  149.0780 S   0  0  0  0  0  0  0  0  0  0  0  0
  161.7890  201.1610  149.1970 O   0  0  0  0  0  0  0  0  0  0  0  0
  162.0610  205.2920  146.5480 C   0  0  0  0  0  3  0  0  0  0  0  0
  161.7590  204.5670  147.7030 C   0  0  0  0  0  3  0  0  0  0  0  0
  161.8800  204.7100  145.2920 C   0  0  0  0  0  3  0  0  0  0  0  0
  160.6170  201.3720  146.2240 O   0  0  0  0  0  1  0  0  0  0  0  0
  161.0950  202.6730  146.3460 C   0  0  0  0  0  0  0  0  0  0  0  0
  161.3990  203.4010  145.1910 C   0  0  0  0  0  3  0  0  0  0  0  0
  161.2730  203.2580  147.6100 C   0  0  0  0  0  0  0  0  0  0  0  0
  1  2  1  0  0  0  0
  1 21  1  0  0  0  0
  2  4  1  0  0  0  0
  3  2  2  0  0  0  0
  4  5  1  6  0  0  0
  4  6  1  0  0  0  0
  6 11  1  0  0  0  0
  8 10  1  0  0  0  0
  9 15  1  6  0  0  0
  9 12  1  0  0  0  0
 10  9  1  0  0  0  0
 10 12  1  0  0  0  0
 11  8  2  0  0  0  0
 11 14  1  0  0  0  0
 12  7  1  6  0  0  0
 13 14  2  0  0  0  0
 14  7  1  0  0  0  0
 15 20  1  0  0  0  0
 16 20  2  0  0  0  0
 17 15  2  0  0  0  0
 18 16  1  0  0  0  0
 19 18  2  0  0  0  0
 19 17  1  0  0  0  0
 21 25  1  6  0  0  0
 21 24  1  0  0  0  0
 23 24  2  0  0  0  0
 24 22  1  0  0  0  0
 25 26  1  0  0  0  0
 27 28  2  0  0  0  0
 28 29  2  0  0  0  0
 28 26  1  0  0  0  0
 30 31  1  0  0  0  0
 32 30  2  0  0  0  0
 33 34  1  0  0  0  0
 34 36  1  0  0  0  0
 35 32  1  0  0  0  0
 35 34  2  0  0  0  0
 36 31  2  0  0  0  0
 36 28  1  0  0  0  0
M  END
>  <MODEL>
4

>  <REMARK>
 VINA RESULT:      -7.0      1.767      2.295
  Name = 
  10 active torsions:
  status: ('A' for Active; 'I' for Inactive)
    1  A    between atoms: N_5  and  CA_26
    2  A    between atoms: C_6  and  C_12
    3  A    between atoms: C_9  and  C_19
    4  A    between atoms: C_9  and  C_27
    5  A    between atoms: S_10  and  N_13
    6  A    between atoms: S_10  and  C_32
    7  A    between atoms: N_13  and  C_30
    8  A    between atoms: C_20  and  C_27
    9  A    between atoms: CA_26  and  C_30
   10  A    between atoms: CA_26  and  C_34
                            x       y       z     vdW  Elec       q    Type
                         _______ _______ _______ _____ _____    ______ ____

>  <TORSDO>
F 10

$$$$
=
 OpenBabel11072414323D

 36 39  0  0  1  0  0  0  0  0999 V2000
  161.5590  207.3250  152.8790 N   0  0  0  0  0  2  0  0  0  0  0  0
  160.8640  207.4310  154.1350 C   0  0  0  0  0  0  0  0  0  0  0  0
  160.3320  206.3940  154.6090 O   0  0  0  0  0  0  0  0  0  0  0  0
  160.7870  208.6860  154.9590 C   0  0  2  0  0  3  0  0  0  0  0  0
  161.7400  208.7060  156.1370 C   0  0  0  0  0  1  0  0  0  0  0  0
  159.3650  209.0270  155.3760 C   0  0  0  0  0  2  0  0  0  0  0  0
  157.7110  212.5180  156.1190 N   0  0  0  0  0  2  0  0  0  0  0  0
  160.3040  211.2800  155.5810 C   0  0  0  0  0  3  0  0  0  0  0  0
  159.4980  213.9270  155.2410 C   0  0  2  0  0  3  0  0  0  0  0  0
  160.0260  212.6430  155.8160 N   0  0  0  0  0  0  0  0  0  0  0  0
  159.2200  210.4960  155.5950 C   0  0  0  0  0  0  0  0  0  0  0  0
  158.8680  213.3970  156.3570 C   0  0  2  0  0  3  0  0  0  0  0  0
  156.8360  210.3800  155.7510 O   0  0  0  0  0  0  0  0  0  0  0  0
  157.8640  211.1030  155.8310 C   0  0  0  0  0  0  0  0  0  0  0  0
  158.8090  213.7060  153.9170 C   0  0  0  0  0  0  0  0  0  0  0  0
  156.8950  214.0070  152.4760 C   0  0  0  0  0  3  0  0  0  0  0  0
  159.4950  213.1220  152.8450 C   0  0  0  0  0  3  0  0  0  0  0  0
  157.5740  213.4150  151.4570 N   0  0  0  0  0  0  0  0  0  0  0  0
  158.8510  212.9760  151.6160 C   0  0  0  0  0  3  0  0  0  0  0  0
  157.5040  214.1710  153.7220 C   0  0  0  0  0  3  0  0  0  0  0  0
  162.0760  208.3830  152.0100 C   0  0  2  0  0  3  0  0  0  0  0  0
  162.0630  210.6870  152.7010 O   0  0  0  0  0  1  0  0  0  0  0  0
  160.0540  209.8450  151.9990 O   0  0  0  0  0  0  0  0  0  0  0  0
  161.4120  209.7050  152.2520 C   0  0  0  0  0  0  0  0  0  0  0  0
  162.1070  207.9530  150.5490 C   0  0  0  0  0  2  0  0  0  0  0  0
  160.8670  207.2780  150.2080 N   0  0  0  0  0  2  0  0  0  0  0  0
  162.5470  206.5410  148.3040 O   0  0  0  0  0  0  0  0  0  0  0  0
  161.1720  206.2600  148.8400 S   0  0  0  0  0  0  0  0  0  0  0  0
  160.1630  206.5410  147.7600 O   0  0  0  0  0  0  0  0  0  0  0  0
  160.8040  202.9100  151.0750 C   0  0  0  0  0  3  0  0  0  0  0  0
  160.8730  204.2470  150.6720 C   0  0  0  0  0  3  0  0  0  0  0  0
  160.9410  201.8900  150.1320 C   0  0  0  0  0  3  0  0  0  0  0  0
  161.4180  203.8350  147.0350 O   0  0  0  0  0  1  0  0  0  0  0  0
  161.2150  203.5420  148.3790 C   0  0  0  0  0  0  0  0  0  0  0  0
  161.1440  202.2050  148.7860 C   0  0  0  0  0  3  0  0  0  0  0  0
  161.0810  204.5700  149.3270 C   0  0  0  0  0  0  0  0  0  0  0  0
  1  2  1  0  0  0  0
  2  3  2  0  0  0  0
  2  4  1  0  0  0  0
  4  6  1  0  0  0  0
  4  5  1  1  0  0  0
  6 11  1  0  0  0  0
  8 11  2  0  0  0  0
  8 10  1  0  0  0  0
  9 15  1  6  0  0  0
  9 10  1  0  0  0  0
  9 12  1  0  0  0  0
 10 12  1  0  0  0  0
 11 14  1  0  0  0  0
 12  7  1  6  0  0  0
 13 14  2  0  0  0  0
 14  7  1  0  0  0  0
 16 20  2  0  0  0  0
 17 15  2  0  0  0  0
 18 19  2  0  0  0  0
 18 16  1  0  0  0  0
 19 17  1  0  0  0  0
 20 15  1  0  0  0  0
 21 25  1  6  0  0  0
 21 24  1  0  0  0  0
 21  1  1  0  0  0  0
 23 24  2  0  0  0  0
 24 22  1  0  0  0  0
 26 25  1  0  0  0  0
 27 28  2  0  0  0  0
 28 36  1  0  0  0  0
 28 26  1  0  0  0  0
 29 28  2  0  0  0  0
 31 30  1  0  0  0  0
 32 30  2  0  0  0  0
 33 34  1  0  0  0  0
 34 35  2  0  0  0  0
 34 36  1  0  0  0  0
 35 32  1  0  0  0  0
 36 31  2  0  0  0  0
M  END
>  <MODEL>
5

>  <REMARK>
 VINA RESULT:      -6.8      2.041      3.312
  Name = 
  10 active torsions:
  status: ('A' for Active; 'I' for Inactive)
    1  A    between atoms: N_5  and  CA_26
    2  A    between atoms: C_6  and  C_12
    3  A    between atoms: C_9  and  C_19
    4  A    between atoms: C_9  and  C_27
    5  A    between atoms: S_10  and  N_13
    6  A    between atoms: S_10  and  C_32
    7  A    between atoms: N_13  and  C_30
    8  A    between atoms: C_20  and  C_27
    9  A    between atoms: CA_26  and  C_30
   10  A    between atoms: CA_26  and  C_34
                            x       y       z     vdW  Elec       q    Type
                         _______ _______ _______ _____ _____    ______ ____

>  <TORSDO>
F 10

$$$$
=
 OpenBabel11072414323D

 36 39  0  0  1  0  0  0  0  0999 V2000
  162.4750  208.4940  150.3780 N   0  0  0  0  0  2  0  0  0  0  0  0
  162.0490  209.2420  151.5310 C   0  0  0  0  0  0  0  0  0  0  0  0
  162.6540  210.3110  151.8020 O   0  0  0  0  0  0  0  0  0  0  0  0
  160.8810  208.8700  152.4010 C   0  0  2  0  0  3  0  0  0  0  0  0
  159.8570  209.9750  152.5590 C   0  0  0  0  0  1  0  0  0  0  0  0
  161.3080  208.2990  153.7430 C   0  0  0  0  0  2  0  0  0  0  0  0
  159.8230  209.8570  157.0360 N   0  0  0  0  0  2  0  0  0  0  0  0
  161.6810  210.4470  154.8580 C   0  0  0  0  0  3  0  0  0  0  0  0
  160.3240  212.1950  156.5540 C   0  0  2  0  0  3  0  0  0  0  0  0
  161.3430  211.2670  155.9550 N   0  0  0  0  0  0  0  0  0  0  0  0
  161.0380  209.2750  154.8390 C   0  0  0  0  0  0  0  0  0  0  0  0
  160.6620  211.0470  157.2550 C   0  0  2  0  0  3  0  0  0  0  0  0
  159.3710  207.8900  155.8540 O   0  0  0  0  0  0  0  0  0  0  0  0
  160.0450  208.9520  155.9220 C   0  0  0  0  0  0  0  0  0  0  0  0
  159.0190  212.1550  155.7970 C   0  0  0  0  0  0  0  0  0  0  0  0
  156.6700  211.6090  155.7020 C   0  0  0  0  0  3  0  0  0  0  0  0
  158.9050  212.7610  154.5400 C   0  0  0  0  0  3  0  0  0  0  0  0
  156.5890  212.1820  154.4720 N   0  0  0  0  0  0  0  0  0  0  0  0
  157.6730  212.7550  153.8850 C   0  0  0  0  0  3  0  0  0  0  0  0
  157.8840  211.5930  156.3910 C   0  0  0  0  0  3  0  0  0  0  0  0
  162.1030  207.1420  149.9580 C   0  0  2  0  0  3  0  0  0  0  0  0
  160.0690  206.5730  148.8060 O   0  0  0  0  0  1  0  0  0  0  0  0
  161.6160  207.7380  147.5850 O   0  0  0  0  0  0  0  0  0  0  0  0
  161.1980  207.1350  148.7640 C   0  0  0  0  0  0  0  0  0  0  0  0
  161.6090  206.3000  151.1270 C   0  0  0  0  0  2  0  0  0  0  0  0
  162.3080  205.0260  151.1460 N   0  0  0  0  0  2  0  0  0  0  0  0
  159.7610  204.3240  151.2740 O   0  0  0  0  0  0  0  0  0  0  0  0
  161.1280  203.7670  150.9880 S   0  0  0  0  0  0  0  0  0  0  0  0
  161.4190  202.6680  151.9730 O   0  0  0  0  0  0  0  0  0  0  0  0
  161.6040  203.4600  146.9840 C   0  0  0  0  0  3  0  0  0  0  0  0
  161.5810  203.9480  148.2930 C   0  0  0  0  0  3  0  0  0  0  0  0
  161.2030  202.1480  146.7220 C   0  0  0  0  0  3  0  0  0  0  0  0
  160.3320  200.9750  150.1090 O   0  0  0  0  0  1  0  0  0  0  0  0
  160.7560  201.8110  149.0810 C   0  0  0  0  0  0  0  0  0  0  0  0
  160.7810  201.3240  147.7700 C   0  0  0  0  0  3  0  0  0  0  0  0
  161.1550  203.1300  149.3460 C   0  0  0  0  0  0  0  0  0  0  0  0
  1  2  1  0  0  0  0
  2  3  2  0  0  0  0
  2  4  1  0  0  0  0
  4  5  1  1  0  0  0
  4  6  1  0  0  0  0
  6 11  1  0  0  0  0
  8 10  1  0  0  0  0
  9 15  1  6  0  0  0
  9 12  1  0  0  0  0
 10  9  1  0  0  0  0
 10 12  1  0  0  0  0
 11  8  2  0  0  0  0
 11 14  1  0  0  0  0
 12  7  1  6  0  0  0
 13 14  2  0  0  0  0
 14  7  1  0  0  0  0
 15 20  1  0  0  0  0
 16 20  2  0  0  0  0
 17 15  2  0  0  0  0
 18 16  1  0  0  0  0
 19 18  2  0  0  0  0
 19 17  1  0  0  0  0
 21  1  1  0  0  0  0
 21 25  1  1  0  0  0
 23 24  2  0  0  0  0
 24 22  1  0  0  0  0
 24 21  1  0  0  0  0
 25 26  1  0  0  0  0
 28 26  1  0  0  0  0
 28 27  2  0  0  0  0
 28 29  2  0  0  0  0
 30 31  1  0  0  0  0
 31 36  2  0  0  0  0
 32 30  2  0  0  0  0
 32 35  1  0  0  0  0
 34 36  1  0  0  0  0
 34 33  1  0  0  0  0
 35 34  2  0  0  0  0
 36 28  1  0  0  0  0
M  END
>  <MODEL>
6

>  <REMARK>
 VINA RESULT:      -6.7      1.727      2.766
  Name = 
  10 active torsions:
  status: ('A' for Active; 'I' for Inactive)
    1  A    between atoms: N_5  and  CA_26
    2  A    between atoms: C_6  and  C_12
    3  A    between atoms: C_9  and  C_19
    4  A    between atoms: C_9  and  C_27
    5  A    between atoms: S_10  and  N_13
    6  A    between atoms: S_10  and  C_32
    7  A    between atoms: N_13  and  C_30
    8  A    between atoms: C_20  and  C_27
    9  A    between atoms: CA_26  and  C_30
   10  A    between atoms: CA_26  and  C_34
                            x       y       z     vdW  Elec       q    Type
                         _______ _______ _______ _____ _____    ______ ____

>  <TORSDO>
F 10

$$$$
=
 OpenBabel11072414323D

 36 39  0  0  1  0  0  0  0  0999 V2000
  161.9900  207.9760  151.7460 N   0  0  0  0  0  2  0  0  0  0  0  0
  161.9900  209.4150  151.7290 C   0  0  0  0  0  0  0  0  0  0  0  0
  163.0730  210.0060  151.4820 O   0  0  0  0  0  0  0  0  0  0  0  0
  160.7650  210.2670  151.9170 C   0  0  2  0  0  3  0  0  0  0  0  0
  160.8480  211.6190  151.2390 C   0  0  0  0  0  1  0  0  0  0  0  0
  160.3550  210.3900  153.3750 C   0  0  0  0  0  2  0  0  0  0  0  0
  158.8750  213.6600  154.9850 N   0  0  0  0  0  2  0  0  0  0  0  0
  158.5690  211.9080  152.6650 C   0  0  0  0  0  3  0  0  0  0  0  0
  156.7390  213.6740  153.8070 C   0  0  2  0  0  3  0  0  0  0  0  0
  157.8370  213.0730  152.9750 N   0  0  0  0  0  0  0  0  0  0  0  0
  159.4930  211.5910  153.5790 C   0  0  0  0  0  0  0  0  0  0  0  0
  158.0170  214.2030  153.9200 C   0  0  2  0  0  3  0  0  0  0  0  0
  160.4580  212.0960  155.7090 O   0  0  0  0  0  0  0  0  0  0  0  0
  159.6540  212.4470  154.8050 C   0  0  0  0  0  0  0  0  0  0  0  0
  156.3020  212.7450  154.9120 C   0  0  0  0  0  0  0  0  0  0  0  0
  155.6620  212.3790  157.2110 C   0  0  0  0  0  3  0  0  0  0  0  0
  155.9880  211.4080  154.6360 C   0  0  0  0  0  3  0  0  0  0  0  0
  155.3860  211.0790  156.9240 N   0  0  0  0  0  0  0  0  0  0  0  0
  155.5360  210.5830  155.6670 C   0  0  0  0  0  3  0  0  0  0  0  0
  156.1170  213.2370  156.2090 C   0  0  0  0  0  3  0  0  0  0  0  0
  160.9510  207.0520  152.2020 C   0  0  2  0  0  3  0  0  0  0  0  0
  161.2170  205.2050  153.7200 O   0  0  0  0  0  0  0  0  0  0  0  0
  161.5670  207.2850  154.6080 O   0  0  0  0  0  1  0  0  0  0  0  0
  161.2570  206.4520  153.5410 C   0  0  0  0  0  0  0  0  0  0  0  0
  160.5820  206.0370  151.1280 C   0  0  0  0  0  2  0  0  0  0  0  0
  161.7640  205.6840  150.3590 N   0  0  0  0  0  2  0  0  0  0  0  0
  162.4620  206.5600  147.9640 O   0  0  0  0  0  0  0  0  0  0  0  0
  161.3670  205.8200  148.6780 S   0  0  0  0  0  0  0  0  0  0  0  0
  160.0810  206.5820  148.5170 O   0  0  0  0  0  0  0  0  0  0  0  0
  161.2070  202.7800  146.0160 C   0  0  0  0  0  3  0  0  0  0  0  0
  161.3350  204.0470  146.5910 C   0  0  0  0  0  3  0  0  0  0  0  0
  160.9540  201.6700  146.8250 C   0  0  0  0  0  3  0  0  0  0  0  0
  160.8320  203.2300  150.1650 O   0  0  0  0  0  1  0  0  0  0  0  0
  160.9580  203.0950  148.7870 C   0  0  0  0  0  0  0  0  0  0  0  0
  160.8310  201.8270  148.2090 C   0  0  0  0  0  3  0  0  0  0  0  0
  161.2090  204.2130  147.9750 C   0  0  0  0  0  0  0  0  0  0  0  0
  1 21  1  0  0  0  0
  2  1  1  0  0  0  0
  2  4  1  0  0  0  0
  3  2  2  0  0  0  0
  4  5  1  1  0  0  0
  4  6  1  0  0  0  0
  6 11  1  0  0  0  0
  8 10  1  0  0  0  0
  8 11  2  0  0  0  0
  9 12  1  0  0  0  0
  9 15  1  1  0  0  0
 10  9  1  0  0  0  0
 10 12  1  0  0  0  0
 11 14  1  0  0  0  0
 12  7  1  1  0  0  0
 14  7  1  0  0  0  0
 14 13  2  0  0  0  0
 15 20  1  0  0  0  0
 17 15  2  0  0  0  0
 17 19  1  0  0  0  0
 18 16  1  0  0  0  0
 19 18  2  0  0  0  0
 20 16  2  0  0  0  0
 21 25  1  6  0  0  0
 21 24  1  0  0  0  0
 24 22  2  0  0  0  0
 24 23  1  0  0  0  0
 26 25  1  0  0  0  0
 27 28  2  0  0  0  0
 28 26  1  0  0  0  0
 29 28  2  0  0  0  0
 30 31  2  0  0  0  0
 30 32  1  0  0  0  0
 31 36  1  0  0  0  0
 32 35  2  0  0  0  0
 34 33  1  0  0  0  0
 35 34  1  0  0  0  0
 36 28  1  0  0  0  0
 36 34  2  0  0  0  0
M  END
>  <MODEL>
7

>  <REMARK>
 VINA RESULT:      -6.4      2.187      3.214
  Name = 
  10 active torsions:
  status: ('A' for Active; 'I' for Inactive)
    1  A    between atoms: N_5  and  CA_26
    2  A    between atoms: C_6  and  C_12
    3  A    between atoms: C_9  and  C_19
    4  A    between atoms: C_9  and  C_27
    5  A    between atoms: S_10  and  N_13
    6  A    between atoms: S_10  and  C_32
    7  A    between atoms: N_13  and  C_30
    8  A    between atoms: C_20  and  C_27
    9  A    between atoms: CA_26  and  C_30
   10  A    between atoms: CA_26  and  C_34
                            x       y       z     vdW  Elec       q    Type
                         _______ _______ _______ _____ _____    ______ ____

>  <TORSDO>
F 10

$$$$
=
 OpenBabel11072414323D

 36 39  0  0  1  0  0  0  0  0999 V2000
  161.5510  206.1880  153.1690 N   0  0  0  0  0  2  0  0  0  0  0  0
  161.3710  207.3440  154.0070 C   0  0  0  0  0  0  0  0  0  0  0  0
  161.8430  207.3130  155.1730 O   0  0  0  0  0  0  0  0  0  0  0  0
  160.7150  208.6220  153.5610 C   0  0  2  0  0  3  0  0  0  0  0  0
  161.6020  209.4980  152.7010 C   0  0  0  0  0  1  0  0  0  0  0  0
  160.1000  209.3980  154.7140 C   0  0  0  0  0  2  0  0  0  0  0  0
  159.5150  213.2750  154.3910 N   0  0  0  0  0  2  0  0  0  0  0  0
  158.6840  210.7280  153.2220 C   0  0  0  0  0  3  0  0  0  0  0  0
  157.3820  213.1940  153.2110 C   0  0  2  0  0  3  0  0  0  0  0  0
  158.2620  212.0260  152.8640 N   0  0  0  0  0  0  0  0  0  0  0  0
  159.5550  210.7030  154.2370 C   0  0  0  0  0  0  0  0  0  0  0  0
  158.7530  213.3990  153.1390 C   0  0  2  0  0  3  0  0  0  0  0  0
  160.7230  211.9610  155.9030 O   0  0  0  0  0  0  0  0  0  0  0  0
  159.9770  211.9910  154.8890 C   0  0  0  0  0  0  0  0  0  0  0  0
  156.7990  213.0620  154.5960 C   0  0  0  0  0  0  0  0  0  0  0  0
  156.2200  214.0400  156.7260 C   0  0  0  0  0  3  0  0  0  0  0  0
  156.1610  211.8800  154.9910 C   0  0  0  0  0  3  0  0  0  0  0  0
  155.6270  212.8740  157.0960 N   0  0  0  0  0  0  0  0  0  0  0  0
  155.5850  211.8030  156.2600 C   0  0  0  0  0  3  0  0  0  0  0  0
  156.8090  214.1580  155.4660 C   0  0  0  0  0  3  0  0  0  0  0  0
  160.9390  205.8710  151.8780 C   0  0  2  0  0  3  0  0  0  0  0  0
  159.9720  203.8580  150.9820 O   0  0  0  0  0  0  0  0  0  0  0  0
  162.0070  203.6200  152.0020 O   0  0  0  0  0  1  0  0  0  0  0  0
  160.9380  204.4010  151.5840 C   0  0  0  0  0  0  0  0  0  0  0  0
  161.4980  206.7360  150.7570 C   0  0  0  0  0  2  0  0  0  0  0  0
  160.6560  206.6190  149.5790 N   0  0  0  0  0  2  0  0  0  0  0  0
  163.0770  206.9520  148.5690 O   0  0  0  0  0  0  0  0  0  0  0  0
  161.6230  206.9950  148.1920 S   0  0  0  0  0  0  0  0  0  0  0  0
  161.2910  208.3760  147.6970 O   0  0  0  0  0  0  0  0  0  0  0  0
  160.6430  205.3130  144.6470 C   0  0  0  0  0  3  0  0  0  0  0  0
  160.8890  206.2400  145.6630 C   0  0  0  0  0  3  0  0  0  0  0  0
  160.8350  203.9500  144.8860 C   0  0  0  0  0  3  0  0  0  0  0  0
  161.9570  203.9870  148.3980 O   0  0  0  0  0  1  0  0  0  0  0  0
  161.5210  204.4410  147.1580 C   0  0  0  0  0  0  0  0  0  0  0  0
  161.2750  203.5150  146.1390 C   0  0  0  0  0  3  0  0  0  0  0  0
  161.3250  205.8110  146.9220 C   0  0  0  0  0  0  0  0  0  0  0  0
  1  2  1  0  0  0  0
  2  3  2  0  0  0  0
  4  5  1  1  0  0  0
  4  2  1  0  0  0  0
  4  6  1  0  0  0  0
  7 14  1  0  0  0  0
  8 11  2  0  0  0  0
  9 15  1  1  0  0  0
 10 12  1  0  0  0  0
 10  9  1  0  0  0  0
 10  8  1  0  0  0  0
 11  6  1  0  0  0  0
 11 14  1  0  0  0  0
 12  9  1  0  0  0  0
 12  7  1  1  0  0  0
 14 13  2  0  0  0  0
 15 17  2  0  0  0  0
 15 20  1  0  0  0  0
 16 18  1  0  0  0  0
 17 19  1  0  0  0  0
 19 18  2  0  0  0  0
 20 16  2  0  0  0  0
 21 25  1  6  0  0  0
 21  1  1  0  0  0  0
 22 24  2  0  0  0  0
 24 21  1  0  0  0  0
 24 23  1  0  0  0  0
 26 25  1  0  0  0  0
 28 27  2  0  0  0  0
 28 26  1  0  0  0  0
 29 28  2  0  0  0  0
 30 32  2  0  0  0  0
 30 31  1  0  0  0  0
 31 36  2  0  0  0  0
 32 35  1  0  0  0  0
 34 33  1  0  0  0  0
 35 34  2  0  0  0  0
 36 34  1  0  0  0  0
 36 28  1  0  0  0  0
M  END
>  <MODEL>
8

>  <REMARK>
 VINA RESULT:      -6.4      2.195      3.204
  Name = 
  10 active torsions:
  status: ('A' for Active; 'I' for Inactive)
    1  A    between atoms: N_5  and  CA_26
    2  A    between atoms: C_6  and  C_12
    3  A    between atoms: C_9  and  C_19
    4  A    between atoms: C_9  and  C_27
    5  A    between atoms: S_10  and  N_13
    6  A    between atoms: S_10  and  C_32
    7  A    between atoms: N_13  and  C_30
    8  A    between atoms: C_20  and  C_27
    9  A    between atoms: CA_26  and  C_30
   10  A    between atoms: CA_26  and  C_34
                            x       y       z     vdW  Elec       q    Type
                         _______ _______ _______ _____ _____    ______ ____

>  <TORSDO>
F 10

$$$$
=
 OpenBabel11072414323D

 36 39  0  0  1  0  0  0  0  0999 V2000
  161.0540  208.1960  152.7900 N   0  0  0  0  0  2  0  0  0  0  0  0
  161.4710  206.8420  152.5360 C   0  0  0  0  0  0  0  0  0  0  0  0
  161.8320  206.1390  153.5150 O   0  0  0  0  0  0  0  0  0  0  0  0
  161.4390  206.1830  151.1850 C   0  0  2  0  0  3  0  0  0  0  0  0
  161.5960  204.6770  151.2340 C   0  0  0  0  0  1  0  0  0  0  0  0
  162.4030  206.8210  150.1990 C   0  0  0  0  0  2  0  0  0  0  0  0
  160.0800  206.1940  147.0870 N   0  0  0  0  0  2  0  0  0  0  0  0
  162.8960  206.4430  147.8300 C   0  0  0  0  0  3  0  0  0  0  0  0
  161.7500  205.1840  145.6230 C   0  0  2  0  0  3  0  0  0  0  0  0
  162.3550  206.1990  146.5500 N   0  0  0  0  0  0  0  0  0  0  0  0
  161.9760  206.5470  148.7950 C   0  0  0  0  0  0  0  0  0  0  0  0
  161.0040  206.3080  145.9470 C   0  0  2  0  0  3  0  0  0  0  0  0
  159.6620  206.3910  149.3800 O   0  0  0  0  0  0  0  0  0  0  0  0
  160.5200  206.3870  148.4580 C   0  0  0  0  0  0  0  0  0  0  0  0
  161.3870  203.9110  146.3480 C   0  0  0  0  0  0  0  0  0  0  0  0
  160.5220  201.6570  146.3170 C   0  0  0  0  0  3  0  0  0  0  0  0
  161.7120  203.7430  147.6990 C   0  0  0  0  0  3  0  0  0  0  0  0
  160.8260  201.5270  147.6370 N   0  0  0  0  0  0  0  0  0  0  0  0
  161.4120  202.5370  148.3330 C   0  0  0  0  0  3  0  0  0  0  0  0
  160.8050  202.8490  145.6480 C   0  0  0  0  0  3  0  0  0  0  0  0
  160.7940  209.2820  151.8430 C   0  0  2  0  0  3  0  0  0  0  0  0
  163.0610  210.0600  152.0380 O   0  0  0  0  0  1  0  0  0  0  0  0
  162.0980  210.2990  149.9750 O   0  0  0  0  0  0  0  0  0  0  0  0
  162.0510  209.8910  151.3020 C   0  0  0  0  0  0  0  0  0  0  0  0
  159.7930  210.2880  152.3940 C   0  0  0  0  0  2  0  0  0  0  0  0
  160.4780  211.2510  153.2400 N   0  0  0  0  0  2  0  0  0  0  0  0
  158.2560  211.1860  154.6720 O   0  0  0  0  0  0  0  0  0  0  0  0
  159.7520  211.1930  154.8120 S   0  0  0  0  0  0  0  0  0  0  0  0
  160.1600  212.4030  155.6070 O   0  0  0  0  0  0  0  0  0  0  0  0
  159.7170  207.5260  156.5150 C   0  0  0  0  0  3  0  0  0  0  0  0
  159.3340  208.6940  155.8520 C   0  0  0  0  0  3  0  0  0  0  0  0
  161.0280  207.3820  156.9730 C   0  0  0  0  0  3  0  0  0  0  0  0
  162.5150  210.5840  155.9070 O   0  0  0  0  0  1  0  0  0  0  0  0
  161.5760  209.5770  156.1030 C   0  0  0  0  0  0  0  0  0  0  0  0
  161.9570  208.4060  156.7660 C   0  0  0  0  0  3  0  0  0  0  0  0
  160.2570  209.7250  155.6450 C   0  0  0  0  0  0  0  0  0  0  0  0
  2  1  1  0  0  0  0
  2  3  2  0  0  0  0
  4  5  1  1  0  0  0
  4  2  1  0  0  0  0
  6  4  1  0  0  0  0
  7 14  1  0  0  0  0
  8 11  2  0  0  0  0
  9 12  1  0  0  0  0
  9 15  1  1  0  0  0
  9 10  1  0  0  0  0
 10  8  1  0  0  0  0
 11  6  1  0  0  0  0
 12 10  1  0  0  0  0
 12  7  1  1  0  0  0
 14 11  1  0  0  0  0
 14 13  2  0  0  0  0
 15 17  1  0  0  0  0
 16 18  2  0  0  0  0
 17 19  2  0  0  0  0
 18 19  1  0  0  0  0
 20 16  1  0  0  0  0
 20 15  2  0  0  0  0
 21 25  1  1  0  0  0
 21  1  1  0  0  0  0
 23 24  2  0  0  0  0
 24 21  1  0  0  0  0
 24 22  1  0  0  0  0
 25 26  1  0  0  0  0
 26 28  1  0  0  0  0
 27 28  2  0  0  0  0
 28 29  2  0  0  0  0
 28 36  1  0  0  0  0
 30 32  1  0  0  0  0
 31 30  2  0  0  0  0
 33 34  1  0  0  0  0
 34 35  1  0  0  0  0
 35 32  2  0  0  0  0
 36 31  1  0  0  0  0
 36 34  2  0  0  0  0
M  END
>  <MODEL>
9

>  <REMARK>
 VINA RESULT:      -6.2      3.064      9.747
  Name = 
  10 active torsions:
  status: ('A' for Active; 'I' for Inactive)
    1  A    between atoms: N_5  and  CA_26
    2  A    between atoms: C_6  and  C_12
    3  A    between atoms: C_9  and  C_19
    4  A    between atoms: C_9  and  C_27
    5  A    between atoms: S_10  and  N_13
    6  A    between atoms: S_10  and  C_32
    7  A    between atoms: N_13  and  C_30
    8  A    between atoms: C_20  and  C_27
    9  A    between atoms: CA_26  and  C_30
   10  A    between atoms: CA_26  and  C_34
                            x       y       z     vdW  Elec       q    Type
                         _______ _______ _______ _____ _____    ______ ____

>  <TORSDO>
F 10

$$$$
