=
 OpenBabel11072412563D

 70 77  0  0  1  0  0  0  0  0999 V2000
  160.9950  203.8270  144.9830 C   0  0  0  0  0  2  0  0  0  0  0  0
  161.6100  205.0430  145.6290 C   0  0  1  0  0  0  0  0  0  0  0  0
  160.5440  204.5580  143.8620 O   0  0  0  0  0  0  0  0  0  0  0  0
  163.1340  204.8900  145.6710 C   0  0  0  0  0  1  0  0  0  0  0  0
  161.0180  205.7560  144.4250 C   0  0  2  0  0  3  0  0  0  0  0  0
  161.6730  204.6710  148.0970 C   0  0  0  0  0  2  0  0  0  0  0  0
  160.9810  204.8110  149.2980 O   0  0  0  0  0  0  0  0  0  0  0  0
  161.7470  205.7120  150.0390 C   0  0  1  0  0  3  0  0  0  0  0  0
  161.6680  207.5470  148.4020 N   0  0  0  0  0  0  0  0  0  0  0  0
  161.0240  206.9780  147.2480 C   0  0  0  0  0  0  0  0  0  0  0  0
  161.3010  207.1350  149.7570 C   0  0  0  0  0  2  0  0  0  0  0  0
  161.0000  205.4760  146.9860 C   0  0  1  0  0  3  0  0  0  0  0  0
  160.4600  207.7460  146.4280 O   0  0  0  0  0  0  0  0  0  0  0  0
  162.5580  208.6920  148.2220 C   0  0  0  0  0  2  0  0  0  0  0  0
  161.4440  210.9220  148.6110 C   0  0  0  0  0  0  0  0  0  0  0  0
  162.1760  209.7890  149.1070 N   0  0  0  0  0  0  0  0  0  0  0  0
  161.3400  211.1140  147.3720 O   0  0  0  0  0  0  0  0  0  0  0  0
  162.4650  209.6520  150.5260 C   0  0  0  0  0  1  0  0  0  0  0  0
  160.6590  212.0820  149.7390 S   0  0  0  0  0  0  0  0  0  0  0  0
  160.0830  213.1760  148.4010 C   0  0  1  0  0  3  0  0  0  0  0  0
  158.2930  213.3540  148.2880 P   0  0  0  0  0  0  0  0  0  0  0  0
  160.8850  214.4050  148.0280 C   0  0  0  0  0  1  0  0  0  0  0  0
  159.5320  212.5410  147.3560 O   0  0  0  0  0  0  0  0  0  0  0  0
  157.3810  212.2820  148.8350 O   0  0  0  0  0  0  0  0  0  0  0  0
  157.5520  214.4520  147.2410 O   0  0  0  0  0  0  0  0  0  0  0  0
  161.6750  205.4070  151.4700 N   0  0  0  0  0  2  0  0  0  0  0  0
  161.2210  206.5750  152.2160 C   0  0  0  0  0  2  0  0  0  0  0  0
  161.0290  206.2140  153.6750 C   0  0  2  0  0  3  0  0  0  0  0  0
  159.6650  206.1830  153.9770 O   0  0  0  0  0  1  0  0  0  0  0  0
  161.7200  207.2490  154.5440 C   0  0  0  0  0  2  0  0  0  0  0  0
  160.9760  208.5050  154.5090 N   0  0  0  0  0  0  0  0  0  0  0  0
  161.6920  209.4050  153.7870 O   0  0  0  0  0  1  0  0  0  0  0  0
  160.8190  208.9960  155.8280 N   0  0  0  0  0  2  0  0  0  0  0  0
  158.6090  209.9970  155.9920 C   0  0  0  0  0  1  0  0  0  0  0  0
  160.0880  210.2690  155.8380 C   0  0  0  0  0  2  0  0  0  0  0  0
  161.9730  206.5190  143.4960 C   0  0  0  0  0  2  0  0  0  0  0  0
  161.3150  207.5900  142.6360 C   0  0  0  0  0  2  0  0  0  0  0  0
  161.2920  207.2170  141.2840 O   0  0  0  0  0  0  0  0  0  0  0  0
  163.0910  207.0510  139.7720 O   0  0  0  0  0  1  0  0  0  0  0  0
  162.3120  207.9030  140.5690 C   0  0  1  0  0  3  0  0  0  0  0  0
  162.9490  210.0590  139.6240 C   0  0  1  0  0  3  0  0  0  0  0  0
  161.8630  209.1000  139.8240 N   0  0  0  0  0  0  0  0  0  0  0  0
  163.1730  210.2870  138.2520 O   0  0  0  0  0  0  0  0  0  0  0  0
  161.4330  208.7200  138.4960 C   0  0  2  0  0  3  0  0  0  0  0  0
  162.1070  209.6940  137.5660 C   0  0  0  0  0  2  0  0  0  0  0  0
  159.9160  211.7920  139.6380 C   0  0  1  0  0  3  0  0  0  0  0  0
  162.8290  212.6340  139.5350 C   0  0  0  0  0  0  0  0  0  0  0  0
  158.4280  212.1010  139.4940 C   0  0  0  0  0  2  0  0  0  0  0  0
  160.5060  212.7280  138.6670 C   0  0  0  0  0  0  0  0  0  0  0  0
  161.5980  211.2800  141.3390 N   0  0  0  0  0  0  0  0  0  0  0  0
  161.7840  213.1200  138.6010 C   0  0  0  0  0  0  0  0  0  0  0  0
  163.9150  213.2690  139.5990 O   0  0  0  0  0  0  0  0  0  0  0  0
  158.2320  212.7660  138.1950 N   0  0  2  0  0  0  0  0  0  0  0  0
  159.4920  213.2770  137.8560 N   0  0  0  0  0  2  0  0  0  0  0  0
  160.4250  212.1050  141.0320 C   0  0  0  0  0  2  0  0  0  0  0  0
  162.7100  211.3750  140.3700 C   0  0  1  0  0  3  0  0  0  0  0  0
  162.1420  214.0750  137.6510 O   0  0  0  0  0  1  0  0  0  0  0  0
  157.3450  213.8980  138.4080 C   0  0  2  0  0  3  0  0  0  0  0  0
  155.9430  213.4700  138.2170 C   0  0  0  0  0  2  0  0  0  0  0  0
  156.6460  214.1720  137.2180 O   0  0  0  0  0  0  0  0  0  0  0  0
  162.0750  211.6860  142.5420 O   0  0  0  0  0  0  0  0  0  0  0  0
  161.1000  212.5620  143.0370 C   0  0  0  0  0  2  0  0  0  0  0  0
  162.2700  214.3150  144.3220 C   0  0  0  0  0  2  0  0  0  0  0  0
  160.8110  214.3440  144.7200 C   0  0  0  0  0  2  0  0  0  0  0  0
  161.4880  213.0210  144.4300 C   0  0  0  0  0  3  0  0  0  0  0  0
  159.1990  208.6350  137.2460 C   0  0  0  0  0  3  0  0  0  0  0  0
  159.1290  209.1040  139.3840 O   0  0  0  0  0  0  0  0  0  0  0  0
  157.9060  208.8230  137.5780 N   0  0  0  0  0  0  0  0  0  0  0  0
  159.9400  208.8110  138.3940 C   0  0  0  0  0  0  0  0  0  0  0  0
  157.9110  209.1100  138.8990 C   0  0  0  0  0  3  0  0  0  0  0  0
  1  2  1  0  0  0  0
  2  4  1  1  0  0  0
  2 12  1  0  0  0  0
  3  5  1  0  0  0  0
  3  1  1  0  0  0  0
  5 36  1  6  0  0  0
  5  2  1  0  0  0  0
  6  7  1  0  0  0  0
  7  8  1  0  0  0  0
  8 26  1  1  0  0  0
  9 11  1  0  0  0  0
 10  9  1  0  0  0  0
 11  8  1  0  0  0  0
 12 10  1  0  0  0  0
 12  6  1  1  0  0  0
 13 10  2  0  0  0  0
 14  9  1  0  0  0  0
 14 16  1  0  0  0  0
 15 16  1  0  0  0  0
 15 19  1  0  0  0  0
 16 18  1  0  0  0  0
 17 15  2  0  0  0  0
 20 22  1  6  0  0  0
 20 19  1  0  0  0  0
 21 24  2  0  0  0  0
 23 21  1  0  0  0  0
 23 20  1  0  0  0  0
 25 21  2  0  0  0  0
 26 27  1  0  0  0  0
 27 28  1  0  0  0  0
 28 29  1  1  0  0  0
 28 30  1  0  0  0  0
 31 30  1  0  0  0  0
 31 33  1  0  0  0  0
 32 31  1  0  0  0  0
 33 35  1  0  0  0  0
 35 34  1  0  0  0  0
 37 36  1  0  0  0  0
 38 37  1  0  0  0  0
 40 39  1  6  0  0  0
 40 38  1  0  0  0  0
 41 43  1  6  0  0  0
 41 42  1  0  0  0  0
 41 56  1  0  0  0  0
 42 40  1  0  0  0  0
 44 69  1  1  0  0  0
 44 42  1  0  0  0  0
 45 43  1  0  0  0  0
 45 44  1  0  0  0  0
 46 48  1  1  0  0  0
 46 55  1  0  0  0  0
 47 52  2  0  0  0  0
 49 46  1  0  0  0  0
 50 61  1  0  0  0  0
 51 49  2  0  0  0  0
 51 47  1  0  0  0  0
 53 58  1  0  0  0  0
 53 48  1  1  0  0  0
 54 53  1  0  0  0  0
 54 49  1  0  0  0  0
 55 50  1  0  0  0  0
 56 47  1  6  0  0  0
 56 50  1  0  0  0  0
 57 51  1  0  0  0  0
 58 59  1  1  0  0  0
 60 59  1  0  0  0  0
 60 58  1  0  0  0  0
 61 62  1  0  0  0  0
 62 65  1  0  0  0  0
 63 65  1  0  0  0  0
 63 64  1  0  0  0  0
 65 64  1  0  0  0  0
 66 68  1  0  0  0  0
 66 69  2  0  0  0  0
 68 70  2  0  0  0  0
 69 67  1  0  0  0  0
 70 67  1  0  0  0  0
M  END
>  <MODEL>
1

>  <REMARK>
 VINA RESULT:       0.2      0.000      0.000
  Name = 
  23 active torsions:
  status: ('A' for Active; 'I' for Inactive)
    1  A    between atoms: C_1  and  N_7
    2  A    between atoms: C_1  and  C_10
    3  A    between atoms: C_5  and  S_65
    4  A    between atoms: N_7  and  C_18
    5  A    between atoms: C_10  and  C_32
    6  A    between atoms: C_11  and  C_64
    7  A    between atoms: N_14  and  C_40
    8  A    between atoms: N_15  and  N_50
    9  A    between atoms: N_15  and  C_69
   10  A    between atoms: C_16  and  S_65
   11  A    between atoms: C_19  and  C_59
   12  A    between atoms: N_21  and  C_36
   13  A    between atoms: O_22  and  C_36
   14  A    between atoms: O_22  and  C_55
   15  A    between atoms: O_24  and  N_26
   16  A    between atoms: O_24  and  C_34
   17  A    between atoms: C_32  and  N_50
   18  A    between atoms: C_33  and  N_37
   19  A    between atoms: C_34  and  C_48
   20  A    between atoms: C_38  and  C_43
   21  A    between atoms: C_40  and  N_41
   22  A    between atoms: C_55  and  C_70
   23  A    between atoms: C_62  and  C_70
                            x       y       z     vdW  Elec       q    Type
                         _______ _______ _______ _____ _____    ______ ____

>  <TORSDO>
F 23

$$$$
