=
 OpenBabel11072411143D

 28 30  0  0  1  0  0  0  0  0999 V2000
  160.6850  209.5240  156.0610 C   0  0  0  0  0  2  0  0  0  0  0  0
  160.4420  210.9550  155.5620 C   0  0  2  0  0  0  0  0  0  0  0  0
  161.5170  208.6840  155.0890 C   0  0  0  0  0  2  0  0  0  0  0  0
  161.6230  211.4440  155.0180 F   0  0  0  0  0  0  0  0  0  0  0  0
  160.4580  206.6840  154.3190 O   0  0  0  0  0  1  0  0  0  0  0  0
  157.6690  211.6130  156.3450 C   0  0  0  0  0  0  0  0  0  0  0  0
  161.2460  208.2140  152.6560 C   0  0  0  0  0  0  0  0  0  0  0  0
  160.1160  211.8550  156.7610 C   0  0  0  0  0  2  0  0  0  0  0  0
  160.6430  208.0370  154.0250 C   0  0  2  0  0  3  0  0  0  0  0  0
  159.3090  210.9450  154.4930 C   0  0  1  0  0  3  0  0  0  0  0  0
  157.0120  211.5220  154.0750 O   0  0  0  0  0  0  0  0  0  0  0  0
  161.0130  209.4440  151.8820 C   0  0  0  0  0  3  0  0  0  0  0  0
  156.4900  211.7360  156.7670 O   0  0  0  0  0  0  0  0  0  0  0  0
  158.7620  211.6450  157.2570 N   0  0  0  0  0  2  0  0  0  0  0  0
  157.9400  211.4070  154.9200 C   0  0  0  0  0  0  0  0  0  0  0  0
  159.7150  211.3410  153.1060 C   0  0  0  0  0  0  0  0  0  0  0  0
  161.9830  207.3160  152.1680 O   0  0  0  0  0  0  0  0  0  0  0  0
  160.3600  210.4330  152.4270 C   0  0  0  0  0  0  0  0  0  0  0  0
  159.7280  212.7270  152.7340 N   0  0  0  0  0  2  0  0  0  0  0  0
  160.3370  213.8170  149.1920 C   0  0  2  0  0  3  0  0  0  0  0  0
  158.7410  213.5470  147.4590 O   0  0  0  0  0  0  0  0  0  0  0  0
  160.3210  214.1680  150.6870 C   0  0  0  0  0  2  0  0  0  0  0  0
  158.9350  213.6030  148.6620 C   0  0  0  0  0  0  0  0  0  0  0  0
  157.7630  213.5300  149.6030 C   0  0  0  0  0  2  0  0  0  0  0  0
  159.3740  213.2870  151.4630 C   0  0  0  0  0  0  0  0  0  0  0  0
  158.1860  212.9810  150.9350 C   0  0  0  0  0  3  0  0  0  0  0  0
  161.2020  212.5820  148.9650 C   0  0  0  0  0  2  0  0  0  0  0  0
  162.2600  212.8580  147.9130 C   0  0  0  0  0  1  0  0  0  0  0  0
  2  4  1  6  0  0  0
  2  1  1  0  0  0  0
  2  8  1  0  0  0  0
  3  1  1  0  0  0  0
  6 13  2  0  0  0  0
  6 14  1  0  0  0  0
  7  9  1  0  0  0  0
  8 14  1  0  0  0  0
  9  5  1  1  0  0  0
  9  3  1  0  0  0  0
 10 16  1  6  0  0  0
 10 15  1  0  0  0  0
 10  2  1  0  0  0  0
 11 15  2  0  0  0  0
 12 18  2  0  0  0  0
 12  7  1  0  0  0  0
 15  6  1  0  0  0  0
 17  7  2  0  0  0  0
 18 16  2  0  0  0  0
 19 16  1  0  0  0  0
 20 27  1  1  0  0  0
 20 22  1  0  0  0  0
 21 23  2  0  0  0  0
 22 25  1  0  0  0  0
 23 20  1  0  0  0  0
 23 24  1  0  0  0  0
 24 26  1  0  0  0  0
 25 19  1  0  0  0  0
 26 25  2  0  0  0  0
 28 27  1  0  0  0  0
M  END
>  <MODEL>
1

>  <REMARK>
 VINA RESULT:      -5.8      0.000      0.000
  Name = 
  3 active torsions:
  status: ('A' for Active; 'I' for Inactive)
    1  A    between atoms: C_1  and  C_2
    2  A    between atoms: N_6  and  C_18
    3  A    between atoms: N_6  and  C_26
                            x       y       z     vdW  Elec       q    Type
                         _______ _______ _______ _____ _____    ______ ____

>  <TORSDO>
F 3

$$$$
=
 OpenBabel11072411143D

 28 30  0  0  1  0  0  0  0  0999 V2000
  158.9350  211.4840  156.4010 C   0  0  0  0  0  2  0  0  0  0  0  0
  159.4840  210.2160  155.7320 C   0  0  2  0  0  0  0  0  0  0  0  0
  157.8560  212.1810  155.5690 C   0  0  0  0  0  2  0  0  0  0  0  0
  158.4230  209.5040  155.1900 F   0  0  0  0  0  0  0  0  0  0  0  0
  158.3370  214.4480  154.9830 O   0  0  0  0  0  1  0  0  0  0  0  0
  162.3820  210.2000  156.3090 C   0  0  0  0  0  0  0  0  0  0  0  0
  157.8290  212.9420  153.1950 C   0  0  0  0  0  0  0  0  0  0  0  0
  160.1060  209.3130  156.8060 C   0  0  0  0  0  2  0  0  0  0  0  0
  158.4670  213.1280  154.5470 C   0  0  2  0  0  3  0  0  0  0  0  0
  160.5010  210.6150  154.6210 C   0  0  1  0  0  3  0  0  0  0  0  0
  162.8330  210.6760  154.0380 O   0  0  0  0  0  0  0  0  0  0  0  0
  158.2990  211.8920  152.2770 C   0  0  0  0  0  3  0  0  0  0  0  0
  163.5840  210.3350  156.6620 O   0  0  0  0  0  0  0  0  0  0  0  0
  161.3990  209.8060  157.2610 N   0  0  0  0  0  2  0  0  0  0  0  0
  161.9680  210.4710  154.9320 C   0  0  0  0  0  0  0  0  0  0  0  0
  160.1050  210.2690  153.2180 C   0  0  0  0  0  0  0  0  0  0  0  0
  156.8620  213.6700  152.8460 O   0  0  0  0  0  0  0  0  0  0  0  0
  159.2110  211.0490  152.6760 C   0  0  0  0  0  0  0  0  0  0  0  0
  160.4050  208.9680  152.6930 N   0  0  0  0  0  2  0  0  0  0  0  0
  162.0130  206.7350  150.1360 C   0  0  2  0  0  3  0  0  0  0  0  0
  162.4900  207.4340  147.9200 O   0  0  0  0  0  0  0  0  0  0  0  0
  162.0470  207.3570  151.5400 C   0  0  0  0  0  2  0  0  0  0  0  0
  162.2530  207.7790  149.0660 C   0  0  0  0  0  0  0  0  0  0  0  0
  162.2720  209.2430  149.4140 C   0  0  0  0  0  2  0  0  0  0  0  0
  161.2790  208.6540  151.6010 C   0  0  0  0  0  0  0  0  0  0  0  0
  161.3800  209.5200  150.5900 C   0  0  0  0  0  3  0  0  0  0  0  0
  160.6800  206.0270  149.9210 C   0  0  0  0  0  2  0  0  0  0  0  0
  160.6870  204.6640  150.5860 C   0  0  0  0  0  1  0  0  0  0  0  0
  2  4  1  6  0  0  0
  2  1  1  0  0  0  0
  2  8  1  0  0  0  0
  3  1  1  0  0  0  0
  6 13  2  0  0  0  0
  6 14  1  0  0  0  0
  7  9  1  0  0  0  0
  8 14  1  0  0  0  0
  9  5  1  1  0  0  0
  9  3  1  0  0  0  0
 10 16  1  6  0  0  0
 10 15  1  0  0  0  0
 10  2  1  0  0  0  0
 11 15  2  0  0  0  0
 12 18  2  0  0  0  0
 12  7  1  0  0  0  0
 15  6  1  0  0  0  0
 17  7  2  0  0  0  0
 18 16  2  0  0  0  0
 19 16  1  0  0  0  0
 20 27  1  6  0  0  0
 20 22  1  0  0  0  0
 21 23  2  0  0  0  0
 22 25  1  0  0  0  0
 23 24  1  0  0  0  0
 23 20  1  0  0  0  0
 24 26  1  0  0  0  0
 25 19  1  0  0  0  0
 26 25  2  0  0  0  0
 27 28  1  0  0  0  0
M  END
>  <MODEL>
2

>  <REMARK>
 VINA RESULT:      -5.8      2.918      5.449
  Name = 
  3 active torsions:
  status: ('A' for Active; 'I' for Inactive)
    1  A    between atoms: C_1  and  C_2
    2  A    between atoms: N_6  and  C_18
    3  A    between atoms: N_6  and  C_26
                            x       y       z     vdW  Elec       q    Type
                         _______ _______ _______ _____ _____    ______ ____

>  <TORSDO>
F 3

$$$$
=
 OpenBabel11072411143D

 28 30  0  0  1  0  0  0  0  0999 V2000
  159.2540  210.7610  155.8990 C   0  0  0  0  0  2  0  0  0  0  0  0
  160.2010  209.7580  155.2250 C   0  0  2  0  0  0  0  0  0  0  0  0
  158.2890  211.4270  154.9160 C   0  0  0  0  0  2  0  0  0  0  0  0
  159.4760  209.0070  154.3100 F   0  0  0  0  0  0  0  0  0  0  0  0
  158.4140  213.8130  154.8360 O   0  0  0  0  0  1  0  0  0  0  0  0
  162.8100  210.0940  156.5730 C   0  0  0  0  0  0  0  0  0  0  0  0
  158.6820  212.6340  152.7710 C   0  0  0  0  0  0  0  0  0  0  0  0
  160.7170  208.7700  156.2800 C   0  0  0  0  0  2  0  0  0  0  0  0
  158.9180  212.6460  154.2580 C   0  0  2  0  0  3  0  0  0  0  0  0
  161.3510  210.5310  154.5130 C   0  0  1  0  0  3  0  0  0  0  0  0
  163.6900  211.0830  154.6140 O   0  0  0  0  0  0  0  0  0  0  0  0
  159.5690  211.8800  151.8710 C   0  0  0  0  0  3  0  0  0  0  0  0
  163.8340  210.3480  157.2610 O   0  0  0  0  0  0  0  0  0  0  0  0
  161.7290  209.3640  157.1440 N   0  0  0  0  0  2  0  0  0  0  0  0
  162.6960  210.5660  155.1920 C   0  0  0  0  0  0  0  0  0  0  0  0
  161.3890  210.4140  153.0190 C   0  0  0  0  0  0  0  0  0  0  0  0
  157.6980  213.2520  152.2820 O   0  0  0  0  0  0  0  0  0  0  0  0
  160.5120  211.1330  152.3750 C   0  0  0  0  0  0  0  0  0  0  0  0
  162.0730  209.3100  152.4070 N   0  0  0  0  0  2  0  0  0  0  0  0
  161.0030  206.6000  150.0370 C   0  0  2  0  0  3  0  0  0  0  0  0
  161.2720  204.2900  150.5030 O   0  0  0  0  0  0  0  0  0  0  0  0
  160.6450  207.8680  150.8260 C   0  0  0  0  0  2  0  0  0  0  0  0
  161.2110  205.4190  150.9610 C   0  0  0  0  0  0  0  0  0  0  0  0
  161.2730  205.6130  152.4520 C   0  0  0  0  0  2  0  0  0  0  0  0
  161.5170  208.0400  152.0450 C   0  0  0  0  0  0  0  0  0  0  0  0
  161.8180  206.9720  152.7870 C   0  0  0  0  0  3  0  0  0  0  0  0
  162.2440  206.8570  149.1900 C   0  0  0  0  0  2  0  0  0  0  0  0
  161.9730  206.5230  147.7350 C   0  0  0  0  0  1  0  0  0  0  0  0
  2  4  1  6  0  0  0
  2  1  1  0  0  0  0
  2  8  1  0  0  0  0
  3  1  1  0  0  0  0
  6 14  1  0  0  0  0
  6 13  2  0  0  0  0
  7  9  1  0  0  0  0
  8 14  1  0  0  0  0
  9  5  1  1  0  0  0
  9  3  1  0  0  0  0
 10 16  1  6  0  0  0
 10 15  1  0  0  0  0
 10  2  1  0  0  0  0
 11 15  2  0  0  0  0
 12 18  2  0  0  0  0
 12  7  1  0  0  0  0
 15  6  1  0  0  0  0
 17  7  2  0  0  0  0
 18 16  2  0  0  0  0
 19 16  1  0  0  0  0
 20 27  1  1  0  0  0
 20 22  1  0  0  0  0
 20 23  1  0  0  0  0
 21 23  2  0  0  0  0
 22 25  1  0  0  0  0
 23 24  1  0  0  0  0
 24 26  1  0  0  0  0
 25 19  1  0  0  0  0
 25 26  2  0  0  0  0
 28 27  1  0  0  0  0
M  END
>  <MODEL>
3

>  <REMARK>
 VINA RESULT:      -5.4      2.836      5.730
  Name = 
  3 active torsions:
  status: ('A' for Active; 'I' for Inactive)
    1  A    between atoms: C_1  and  C_2
    2  A    between atoms: N_6  and  C_18
    3  A    between atoms: N_6  and  C_26
                            x       y       z     vdW  Elec       q    Type
                         _______ _______ _______ _____ _____    ______ ____

>  <TORSDO>
F 3

$$$$
=
 OpenBabel11072411143D

 28 30  0  0  1  0  0  0  0  0999 V2000
  158.8000  212.4490  152.9890 C   0  0  0  0  0  2  0  0  0  0  0  0
  159.2180  211.0820  153.5500 C   0  0  2  0  0  0  0  0  0  0  0  0
  159.0160  212.5670  151.4790 C   0  0  0  0  0  2  0  0  0  0  0  0
  158.7790  210.0920  152.6820 F   0  0  0  0  0  0  0  0  0  0  0  0
  160.4540  214.3520  150.7990 O   0  0  0  0  0  1  0  0  0  0  0  0
  160.4680  211.6430  156.1690 C   0  0  0  0  0  0  0  0  0  0  0  0
  161.0190  212.1490  150.0540 C   0  0  0  0  0  0  0  0  0  0  0  0
  158.4890  210.8440  154.8800 C   0  0  0  0  0  2  0  0  0  0  0  0
  160.4370  213.0010  151.1520 C   0  0  2  0  0  3  0  0  0  0  0  0
  160.7680  211.0350  153.6990 C   0  0  1  0  0  3  0  0  0  0  0  0
  162.5820  211.0720  155.2780 O   0  0  0  0  0  0  0  0  0  0  0  0
  161.6470  210.8530  150.3570 C   0  0  0  0  0  3  0  0  0  0  0  0
  160.9460  212.0530  157.2600 O   0  0  0  0  0  0  0  0  0  0  0  0
  159.0580  211.6250  155.9690 N   0  0  0  0  0  2  0  0  0  0  0  0
  161.3440  211.2080  155.0800 C   0  0  0  0  0  0  0  0  0  0  0  0
  161.4780  210.0450  152.8260 C   0  0  0  0  0  0  0  0  0  0  0  0
  160.9480  212.5280  148.8540 O   0  0  0  0  0  0  0  0  0  0  0  0
  161.6110  210.3900  151.5750 C   0  0  0  0  0  0  0  0  0  0  0  0
  161.6330  208.6880  153.2670 N   0  0  0  0  0  2  0  0  0  0  0  0
  161.0770  206.5440  150.2340 C   0  0  2  0  0  3  0  0  0  0  0  0
  161.5530  204.2210  150.1830 O   0  0  0  0  0  0  0  0  0  0  0  0
  160.5150  207.5510  151.2480 C   0  0  0  0  0  2  0  0  0  0  0  0
  161.3300  205.1980  150.8790 C   0  0  0  0  0  0  0  0  0  0  0  0
  161.2390  205.0340  152.3720 C   0  0  0  0  0  2  0  0  0  0  0  0
  161.2520  207.4990  152.5630 C   0  0  0  0  0  0  0  0  0  0  0  0
  161.6010  206.3140  153.0690 C   0  0  0  0  0  3  0  0  0  0  0  0
  162.3520  207.1010  149.6110 C   0  0  0  0  0  2  0  0  0  0  0  0
  162.0430  207.8040  148.3030 C   0  0  0  0  0  1  0  0  0  0  0  0
  1  2  1  0  0  0  0
  2  4  1  6  0  0  0
  2 10  1  0  0  0  0
  2  8  1  0  0  0  0
  3  1  1  0  0  0  0
  6 13  2  0  0  0  0
  7 12  1  0  0  0  0
  7  9  1  0  0  0  0
  8 14  1  0  0  0  0
  9  5  1  6  0  0  0
  9  3  1  0  0  0  0
 10 16  1  1  0  0  0
 10 15  1  0  0  0  0
 12 18  2  0  0  0  0
 14  6  1  0  0  0  0
 15 11  2  0  0  0  0
 15  6  1  0  0  0  0
 16 19  1  0  0  0  0
 17  7  2  0  0  0  0
 18 16  2  0  0  0  0
 20 27  1  1  0  0  0
 20 23  1  0  0  0  0
 20 22  1  0  0  0  0
 21 23  2  0  0  0  0
 22 25  1  0  0  0  0
 23 24  1  0  0  0  0
 24 26  1  0  0  0  0
 25 26  2  0  0  0  0
 25 19  1  0  0  0  0
 28 27  1  0  0  0  0
M  END
>  <MODEL>
4

>  <REMARK>
 VINA RESULT:      -5.1      2.686      5.636
  Name = 
  3 active torsions:
  status: ('A' for Active; 'I' for Inactive)
    1  A    between atoms: C_1  and  C_2
    2  A    between atoms: N_6  and  C_18
    3  A    between atoms: N_6  and  C_26
                            x       y       z     vdW  Elec       q    Type
                         _______ _______ _______ _____ _____    ______ ____

>  <TORSDO>
F 3

$$$$
=
 OpenBabel11072411143D

 28 30  0  0  1  0  0  0  0  0999 V2000
  159.1110  212.2370  153.1280 C   0  0  0  0  0  2  0  0  0  0  0  0
  159.5960  210.8110  153.4270 C   0  0  2  0  0  0  0  0  0  0  0  0
  159.1060  212.5670  151.6330 C   0  0  0  0  0  2  0  0  0  0  0  0
  159.0280  209.9450  152.5020 F   0  0  0  0  0  0  0  0  0  0  0  0
  160.4430  214.4470  151.0080 O   0  0  0  0  0  1  0  0  0  0  0  0
  161.2170  211.0190  155.8890 C   0  0  0  0  0  0  0  0  0  0  0  0
  160.8780  212.3770  149.8890 C   0  0  0  0  0  0  0  0  0  0  0  0
  159.0660  210.3810  154.8010 C   0  0  0  0  0  2  0  0  0  0  0  0
  160.4680  213.0600  151.1680 C   0  0  2  0  0  3  0  0  0  0  0  0
  161.1500  210.7640  153.3410 C   0  0  1  0  0  3  0  0  0  0  0  0
  163.1750  210.6050  154.6300 O   0  0  0  0  0  0  0  0  0  0  0  0
  161.5330  211.0590  149.9150 C   0  0  0  0  0  3  0  0  0  0  0  0
  161.8510  211.2790  156.9450 O   0  0  0  0  0  0  0  0  0  0  0  0
  159.7930  211.0110  155.8950 N   0  0  0  0  0  2  0  0  0  0  0  0
  161.9220  210.7510  154.6350 C   0  0  0  0  0  0  0  0  0  0  0  0
  161.7190  209.9140  152.2460 C   0  0  0  0  0  0  0  0  0  0  0  0
  160.6360  212.9180  148.7770 O   0  0  0  0  0  0  0  0  0  0  0  0
  161.6710  210.4310  151.0490 C   0  0  0  0  0  0  0  0  0  0  0  0
  161.9260  208.5110  152.4660 N   0  0  0  0  0  2  0  0  0  0  0  0
  161.9570  204.9590  151.2480 C   0  0  2  0  0  3  0  0  0  0  0  0
  160.7380  204.2280  149.3480 O   0  0  0  0  0  0  0  0  0  0  0  0
  162.7460  206.2090  151.6600 C   0  0  0  0  0  2  0  0  0  0  0  0
  161.2230  205.1780  149.9420 C   0  0  0  0  0  0  0  0  0  0  0  0
  161.1430  206.5500  149.3280 C   0  0  0  0  0  2  0  0  0  0  0  0
  161.9390  207.4710  151.4800 C   0  0  0  0  0  0  0  0  0  0  0  0
  161.1780  207.6090  150.3910 C   0  0  0  0  0  3  0  0  0  0  0  0
  160.9900  204.5720  152.3610 C   0  0  0  0  0  2  0  0  0  0  0  0
  160.7780  203.0700  152.3850 C   0  0  0  0  0  1  0  0  0  0  0  0
  1  2  1  0  0  0  0
  2  4  1  6  0  0  0
  2  8  1  0  0  0  0
  3  1  1  0  0  0  0
  6 14  1  0  0  0  0
  6 13  2  0  0  0  0
  7 12  1  0  0  0  0
  7  9  1  0  0  0  0
  8 14  1  0  0  0  0
  9  5  1  6  0  0  0
  9  3  1  0  0  0  0
 10 16  1  1  0  0  0
 10  2  1  0  0  0  0
 10 15  1  0  0  0  0
 11 15  2  0  0  0  0
 12 18  2  0  0  0  0
 15  6  1  0  0  0  0
 16 19  1  0  0  0  0
 17  7  2  0  0  0  0
 18 16  2  0  0  0  0
 20 22  1  0  0  0  0
 20 27  1  1  0  0  0
 21 23  2  0  0  0  0
 23 20  1  0  0  0  0
 24 23  1  0  0  0  0
 24 26  1  0  0  0  0
 25 22  1  0  0  0  0
 25 19  1  0  0  0  0
 26 25  2  0  0  0  0
 27 28  1  0  0  0  0
M  END
>  <MODEL>
5

>  <REMARK>
 VINA RESULT:      -4.8      2.959      6.151
  Name = 
  3 active torsions:
  status: ('A' for Active; 'I' for Inactive)
    1  A    between atoms: C_1  and  C_2
    2  A    between atoms: N_6  and  C_18
    3  A    between atoms: N_6  and  C_26
                            x       y       z     vdW  Elec       q    Type
                         _______ _______ _______ _____ _____    ______ ____

>  <TORSDO>
F 3

$$$$
=
 OpenBabel11072411143D

 28 30  0  0  1  0  0  0  0  0999 V2000
  162.0340  209.2310  150.6140 C   0  0  0  0  0  2  0  0  0  0  0  0
  162.4690  207.7830  150.3470 C   0  0  2  0  0  0  0  0  0  0  0  0
  161.8790  209.5450  152.1040 C   0  0  0  0  0  2  0  0  0  0  0  0
  163.4560  207.4380  151.2610 F   0  0  0  0  0  0  0  0  0  0  0  0
  159.7090  210.3060  152.7560 O   0  0  0  0  0  1  0  0  0  0  0  0
  160.9780  206.9330  147.9410 C   0  0  0  0  0  0  0  0  0  0  0  0
  160.5920  208.4060  153.9110 C   0  0  0  0  0  0  0  0  0  0  0  0
  163.1190  207.7030  148.9600 C   0  0  0  0  0  2  0  0  0  0  0  0
  160.4960  209.1620  152.6110 C   0  0  2  0  0  3  0  0  0  0  0  0
  161.2380  206.8380  150.4880 C   0  0  1  0  0  3  0  0  0  0  0  0
  159.6610  205.4890  149.2720 O   0  0  0  0  0  0  0  0  0  0  0  0
  160.8310  206.9530  153.9220 C   0  0  0  0  0  3  0  0  0  0  0  0
  160.2880  206.7420  146.9050 O   0  0  0  0  0  0  0  0  0  0  0  0
  162.1370  207.7580  147.8850 N   0  0  0  0  0  2  0  0  0  0  0  0
  160.5910  206.3390  149.2220 C   0  0  0  0  0  0  0  0  0  0  0  0
  161.2980  205.8490  151.6110 C   0  0  0  0  0  0  0  0  0  0  0  0
  160.4960  209.0180  155.0080 O   0  0  0  0  0  0  0  0  0  0  0  0
  161.0610  206.3300  152.8000 C   0  0  0  0  0  0  0  0  0  0  0  0
  161.9460  204.5830  151.4130 N   0  0  0  0  0  2  0  0  0  0  0  0
  160.7930  202.5500  148.4740 C   0  0  2  0  0  3  0  0  0  0  0  0
  161.1750  200.2160  148.2810 O   0  0  0  0  0  0  0  0  0  0  0  0
  160.4520  203.5410  149.5950 C   0  0  0  0  0  2  0  0  0  0  0  0
  161.1100  201.1770  149.0300 C   0  0  0  0  0  0  0  0  0  0  0  0
  161.2780  200.9710  150.5110 C   0  0  0  0  0  2  0  0  0  0  0  0
  161.4080  203.4270  150.7580 C   0  0  0  0  0  0  0  0  0  0  0  0
  161.8010  202.2180  151.1640 C   0  0  0  0  0  3  0  0  0  0  0  0
  161.9560  203.0880  147.6490 C   0  0  0  0  0  2  0  0  0  0  0  0
  161.4810  203.5190  146.2740 C   0  0  0  0  0  1  0  0  0  0  0  0
  1  3  1  0  0  0  0
  2 10  1  0  0  0  0
  2  1  1  0  0  0  0
  2  4  1  1  0  0  0
  3  9  1  0  0  0  0
  6 15  1  0  0  0  0
  7 12  1  0  0  0  0
  7 17  2  0  0  0  0
  8  2  1  0  0  0  0
  9  5  1  1  0  0  0
  9  7  1  0  0  0  0
 10 15  1  6  0  0  0
 10 16  1  0  0  0  0
 13  6  2  0  0  0  0
 14  6  1  0  0  0  0
 14  8  1  0  0  0  0
 15 11  2  0  0  0  0
 16 18  2  0  0  0  0
 18 12  2  0  0  0  0
 19 16  1  0  0  0  0
 20 27  1  1  0  0  0
 20 23  1  0  0  0  0
 20 22  1  0  0  0  0
 21 23  2  0  0  0  0
 22 25  1  0  0  0  0
 23 24  1  0  0  0  0
 24 26  1  0  0  0  0
 25 26  2  0  0  0  0
 25 19  1  0  0  0  0
 28 27  1  0  0  0  0
M  END
>  <MODEL>
6

>  <REMARK>
 VINA RESULT:      -4.7      5.194      8.591
  Name = 
  3 active torsions:
  status: ('A' for Active; 'I' for Inactive)
    1  A    between atoms: C_1  and  C_2
    2  A    between atoms: N_6  and  C_18
    3  A    between atoms: N_6  and  C_26
                            x       y       z     vdW  Elec       q    Type
                         _______ _______ _______ _____ _____    ______ ____

>  <TORSDO>
F 3

$$$$
=
 OpenBabel11072411143D

 28 30  0  0  1  0  0  0  0  0999 V2000
  161.2730  202.3970  146.2250 C   0  0  0  0  0  2  0  0  0  0  0  0
  161.8730  202.7070  147.6030 C   0  0  2  0  0  0  0  0  0  0  0  0
  161.2960  203.5980  145.2770 C   0  0  0  0  0  2  0  0  0  0  0  0
  163.0250  203.4610  147.4280 F   0  0  0  0  0  0  0  0  0  0  0  0
  159.1590  204.2730  144.4460 O   0  0  0  0  0  1  0  0  0  0  0  0
  160.1830  201.2650  149.5520 C   0  0  0  0  0  0  0  0  0  0  0  0
  160.4780  205.9380  145.5490 C   0  0  0  0  0  0  0  0  0  0  0  0
  162.3140  201.3940  148.2640 C   0  0  0  0  0  2  0  0  0  0  0  0
  160.0770  204.4870  145.4760 C   0  0  2  0  0  3  0  0  0  0  0  0
  160.8310  203.4880  148.4580 C   0  0  1  0  0  3  0  0  0  0  0  0
  159.3090  203.3250  150.3130 O   0  0  0  0  0  0  0  0  0  0  0  0
  160.9290  206.5330  146.8170 C   0  0  0  0  0  3  0  0  0  0  0  0
  159.3820  200.5770  150.2390 O   0  0  0  0  0  0  0  0  0  0  0  0
  161.1850  200.6240  148.7700 N   0  0  0  0  0  2  0  0  0  0  0  0
  160.0840  202.7250  149.5210 C   0  0  0  0  0  0  0  0  0  0  0  0
  161.2050  204.8930  148.8200 C   0  0  0  0  0  0  0  0  0  0  0  0
  160.4560  206.6530  144.5110 O   0  0  0  0  0  0  0  0  0  0  0  0
  161.0790  205.7740  147.8660 C   0  0  0  0  0  0  0  0  0  0  0  0
  161.9970  205.1410  149.9920 N   0  0  0  0  0  2  0  0  0  0  0  0
  162.2320  208.7910  150.8440 C   0  0  2  0  0  3  0  0  0  0  0  0
  160.7450  209.8710  152.3440 O   0  0  0  0  0  0  0  0  0  0  0  0
  162.9210  207.4230  150.7400 C   0  0  0  0  0  2  0  0  0  0  0  0
  161.2160  208.8110  151.9670 C   0  0  0  0  0  0  0  0  0  0  0  0
  160.8310  207.5400  152.6750 C   0  0  0  0  0  2  0  0  0  0  0  0
  161.9360  206.2860  150.8530 C   0  0  0  0  0  0  0  0  0  0  0  0
  160.9520  206.3620  151.7510 C   0  0  0  0  0  3  0  0  0  0  0  0
  161.5810  209.1410  149.5110 C   0  0  0  0  0  2  0  0  0  0  0  0
  161.9560  210.5490  149.0880 C   0  0  0  0  0  1  0  0  0  0  0  0
  1  2  1  0  0  0  0
  2  4  1  6  0  0  0
  2  8  1  0  0  0  0
  2 10  1  0  0  0  0
  3  9  1  0  0  0  0
  3  1  1  0  0  0  0
  6 13  2  0  0  0  0
  7 12  1  0  0  0  0
  8 14  1  0  0  0  0
  9  5  1  6  0  0  0
  9  7  1  0  0  0  0
 10 16  1  1  0  0  0
 10 15  1  0  0  0  0
 12 18  2  0  0  0  0
 14  6  1  0  0  0  0
 15  6  1  0  0  0  0
 15 11  2  0  0  0  0
 16 19  1  0  0  0  0
 17  7  2  0  0  0  0
 18 16  2  0  0  0  0
 19 25  1  0  0  0  0
 20 27  1  6  0  0  0
 20 23  1  0  0  0  0
 22 20  1  0  0  0  0
 22 25  1  0  0  0  0
 23 21  2  0  0  0  0
 23 24  1  0  0  0  0
 25 26  2  0  0  0  0
 26 24  1  0  0  0  0
 28 27  1  0  0  0  0
M  END
>  <MODEL>
7

>  <REMARK>
 VINA RESULT:      -3.0      6.654      9.262
  Name = 
  3 active torsions:
  status: ('A' for Active; 'I' for Inactive)
    1  A    between atoms: C_1  and  C_2
    2  A    between atoms: N_6  and  C_18
    3  A    between atoms: N_6  and  C_26
                            x       y       z     vdW  Elec       q    Type
                         _______ _______ _______ _____ _____    ______ ____

>  <TORSDO>
F 3

$$$$
