=
 OpenBabel11072414373D

 26 30  0  0  1  0  0  0  0  0999 V2000
  162.4050  213.6590  139.5030 C   0  0  0  0  0  3  0  0  0  0  0  0
  160.6750  213.0450  141.6630 C   0  0  2  0  0  0  0  0  0  0  0  0
  161.3240  212.9060  143.8930 C   0  0  0  0  0  0  0  0  0  0  0  0
  162.4380  213.3400  146.0370 C   0  0  0  0  0  2  0  0  0  0  0  0
  160.3940  212.3720  140.3100 C   0  0  2  0  0  3  0  0  0  0  0  0
  160.1500  212.2730  146.0050 C   0  0  1  0  0  3  0  0  0  0  0  0
  161.2810  212.8750  145.2300 C   0  0  0  0  0  0  0  0  0  0  0  0
  160.2510  212.3850  142.9700 C   0  0  0  0  0  2  0  0  0  0  0  0
  161.5510  210.8390  137.7470 C   0  0  2  0  0  3  0  0  0  0  0  0
  162.3920  213.4390  143.1770 O   0  0  0  0  0  0  0  0  0  0  0  0
  160.4810  212.4070  147.4800 C   0  0  0  0  0  2  0  0  0  0  0  0
  162.7410  213.9490  140.8390 O   0  0  0  0  0  0  0  0  0  0  0  0
  160.2050  210.8480  140.3370 C   0  0  0  0  0  2  0  0  0  0  0  0
  161.4950  210.0250  140.2200 C   0  0  2  0  0  3  0  0  0  0  0  0
  161.1380  212.3260  137.8190 C   0  0  2  0  0  3  0  0  0  0  0  0
  160.0620  214.4460  141.6290 C   0  0  0  0  0  1  0  0  0  0  0  0
  162.1730  213.1040  141.8270 C   0  0  2  0  0  3  0  0  0  0  0  0
  162.2800  212.5900  147.6810 S   0  0  0  0  0  0  0  0  0  0  0  0
  162.3340  210.2990  138.9600 C   0  0  0  0  0  2  0  0  0  0  0  0
  162.4150  211.9070  137.1100 C   0  0  0  0  0  2  0  0  0  0  0  0
  161.3400  212.8700  139.2090 C   0  0  0  0  0  0  0  0  0  0  0  0
  157.7930  212.2920  145.6450 O   0  0  0  0  0  1  0  0  0  0  0  0
  158.8520  212.9670  145.7320 C   0  0  0  0  0  0  0  0  0  0  0  0
  158.8030  214.3490  145.5930 O   0  0  0  0  0  0  0  0  0  0  0  0
  162.3370  208.0120  139.8530 C   0  0  0  0  0  1  0  0  0  0  0  0
  161.1820  208.6660  140.2860 O   0  0  0  0  0  0  0  0  0  0  0  0
  1 12  1  0  0  0  0
  2 16  1  6  0  0  0
  2 17  1  0  0  0  0
  2  8  1  0  0  0  0
  3  7  2  0  0  0  0
  4 18  1  0  0  0  0
  5 13  1  1  0  0  0
  5  2  1  0  0  0  0
  6 23  1  1  0  0  0
  6 11  1  0  0  0  0
  7  6  1  0  0  0  0
  7  4  1  0  0  0  0
  8  3  1  0  0  0  0
  9 20  1  6  0  0  0
  9 15  1  0  0  0  0
  9 19  1  0  0  0  0
 10  3  1  0  0  0  0
 11 18  1  0  0  0  0
 14 26  1  6  0  0  0
 14 13  1  0  0  0  0
 15 20  1  6  0  0  0
 15 21  1  0  0  0  0
 17 12  1  6  0  0  0
 17 10  1  0  0  0  0
 19 14  1  0  0  0  0
 21  1  2  0  0  0  0
 21  5  1  0  0  0  0
 22 23  1  0  0  0  0
 24 23  2  0  0  0  0
 25 26  1  0  0  0  0
M  END
>  <MODEL>
1

>  <REMARK>
 VINA RESULT:      -4.7      0.000      0.000
  Name = 
  2 active torsions:
  status: ('A' for Active; 'I' for Inactive)
    1  A    between atoms: C_6  and  C_8
    2  A    between atoms: C_17  and  O_24
                            x       y       z     vdW  Elec       q    Type
                         _______ _______ _______ _____ _____    ______ ____

>  <TORSDO>
F 2

$$$$
=
 OpenBabel11072414373D

 26 30  0  0  1  0  0  0  0  0999 V2000
  159.6380  213.3480  155.7420 C   0  0  0  0  0  3  0  0  0  0  0  0
  159.8400  210.5920  155.1050 C   0  0  2  0  0  0  0  0  0  0  0  0
  160.6380  209.7440  153.0910 C   0  0  0  0  0  0  0  0  0  0  0  0
  161.9520  209.4290  151.0420 C   0  0  0  0  0  2  0  0  0  0  0  0
  158.6690  211.0350  155.9970 C   0  0  2  0  0  3  0  0  0  0  0  0
  160.8350  207.4460  152.1330 C   0  0  1  0  0  3  0  0  0  0  0  0
  161.1400  208.9120  152.1720 C   0  0  0  0  0  0  0  0  0  0  0  0
  159.7330  209.3480  154.2300 C   0  0  0  0  0  2  0  0  0  0  0  0
  156.3100  213.1320  156.5380 C   0  0  2  0  0  3  0  0  0  0  0  0
  160.9000  211.1120  153.1050 O   0  0  0  0  0  0  0  0  0  0  0  0
  161.5630  206.8570  150.9390 C   0  0  0  0  0  2  0  0  0  0  0  0
  160.4550  212.8770  154.6960 O   0  0  0  0  0  0  0  0  0  0  0  0
  157.2740  210.5510  155.5740 C   0  0  0  0  0  2  0  0  0  0  0  0
  156.5470  211.4490  154.5650 C   0  0  2  0  0  3  0  0  0  0  0  0
  157.6770  213.0810  157.2570 C   0  0  2  0  0  3  0  0  0  0  0  0
  161.0750  210.4310  155.9940 C   0  0  0  0  0  1  0  0  0  0  0  0
  160.0430  211.6720  154.0710 C   0  0  2  0  0  3  0  0  0  0  0  0
  161.9120  208.1730  149.7330 S   0  0  0  0  0  0  0  0  0  0  0  0
  156.3420  212.9070  155.0140 C   0  0  0  0  0  2  0  0  0  0  0  0
  157.0820  214.4050  156.8080 C   0  0  0  0  0  2  0  0  0  0  0  0
  158.7390  212.5280  156.3440 C   0  0  0  0  0  0  0  0  0  0  0  0
  162.4390  206.2380  153.4190 O   0  0  0  0  0  0  0  0  0  0  0  0
  161.2880  206.7450  153.3750 C   0  0  0  0  0  0  0  0  0  0  0  0
  160.4560  206.6660  154.4860 O   0  0  0  0  0  1  0  0  0  0  0  0
  155.0440  210.0000  155.2970 C   0  0  0  0  0  1  0  0  0  0  0  0
  155.3110  210.8820  154.2490 O   0  0  0  0  0  0  0  0  0  0  0  0
  1 21  2  0  0  0  0
  2 16  1  1  0  0  0
  2  5  1  0  0  0  0
  3 10  1  0  0  0  0
  3  8  1  0  0  0  0
  4  7  1  0  0  0  0
  5 13  1  6  0  0  0
  5 21  1  0  0  0  0
  6  7  1  0  0  0  0
  6 23  1  1  0  0  0
  7  3  2  0  0  0  0
  8  2  1  0  0  0  0
  9 19  1  6  0  0  0
  9 20  1  0  0  0  0
  9 15  1  0  0  0  0
 11  6  1  0  0  0  0
 12  1  1  0  0  0  0
 14 26  1  1  0  0  0
 14 19  1  0  0  0  0
 14 13  1  0  0  0  0
 15 20  1  6  0  0  0
 17 10  1  6  0  0  0
 17 12  1  0  0  0  0
 17  2  1  0  0  0  0
 18 11  1  0  0  0  0
 18  4  1  0  0  0  0
 21 15  1  0  0  0  0
 23 22  2  0  0  0  0
 23 24  1  0  0  0  0
 26 25  1  0  0  0  0
M  END
>  <MODEL>
2

>  <REMARK>
 VINA RESULT:      -4.4     10.300     13.902
  Name = 
  2 active torsions:
  status: ('A' for Active; 'I' for Inactive)
    1  A    between atoms: C_6  and  C_8
    2  A    between atoms: C_17  and  O_24
                            x       y       z     vdW  Elec       q    Type
                         _______ _______ _______ _____ _____    ______ ____

>  <TORSDO>
F 2

$$$$
=
 OpenBabel11072414373D

 26 30  0  0  1  0  0  0  0  0999 V2000
  161.2650  208.0810  152.9240 C   0  0  0  0  0  3  0  0  0  0  0  0
  162.2360  209.6080  150.7410 C   0  0  2  0  0  0  0  0  0  0  0  0
  161.1320  211.4180  149.7840 C   0  0  0  0  0  0  0  0  0  0  0  0
  159.7910  213.4540  149.4940 C   0  0  0  0  0  2  0  0  0  0  0  0
  162.5680  208.1070  150.7660 C   0  0  2  0  0  3  0  0  0  0  0  0
  161.5910  212.8880  147.8170 C   0  0  1  0  0  3  0  0  0  0  0  0
  160.8860  212.5360  149.0910 C   0  0  0  0  0  0  0  0  0  0  0  0
  162.1560  210.3720  149.4230 C   0  0  0  0  0  2  0  0  0  0  0  0
  161.5450  205.1090  151.2370 C   0  0  2  0  0  3  0  0  0  0  0  0
  160.4530  211.0810  150.9520 O   0  0  0  0  0  0  0  0  0  0  0  0
  161.0200  214.2060  147.3250 C   0  0  0  0  0  2  0  0  0  0  0  0
  160.7680  209.3640  152.6250 O   0  0  0  0  0  0  0  0  0  0  0  0
  162.2650  207.3250  149.4790 C   0  0  0  0  0  2  0  0  0  0  0  0
  160.8370  206.7760  149.3660 C   0  0  2  0  0  3  0  0  0  0  0  0
  162.3750  205.9630  152.2220 C   0  0  2  0  0  3  0  0  0  0  0  0
  163.2470  210.3280  151.6360 C   0  0  0  0  0  1  0  0  0  0  0  0
  160.8300  209.7610  151.2650 C   0  0  2  0  0  3  0  0  0  0  0  0
  159.3670  214.4530  148.0410 S   0  0  0  0  0  0  0  0  0  0  0  0
  160.4020  205.8420  150.5090 C   0  0  0  0  0  2  0  0  0  0  0  0
  161.2060  205.1250  152.7120 C   0  0  0  0  0  2  0  0  0  0  0  0
  162.0700  207.4270  152.0480 C   0  0  0  0  0  0  0  0  0  0  0  0
  163.8380  212.1030  147.6770 O   0  0  0  0  0  0  0  0  0  0  0  0
  163.0660  213.0380  148.0150 C   0  0  0  0  0  0  0  0  0  0  0  0
  163.5930  214.2080  148.5500 O   0  0  0  0  0  1  0  0  0  0  0  0
  161.8790  206.3720  147.4560 C   0  0  0  0  0  1  0  0  0  0  0  0
  160.6920  206.1150  148.1450 O   0  0  0  0  0  0  0  0  0  0  0  0
  2  5  1  0  0  0  0
  2 17  1  0  0  0  0
  2 16  1  1  0  0  0
  3 10  1  0  0  0  0
  5 13  1  6  0  0  0
  5 21  1  0  0  0  0
  6 23  1  1  0  0  0
  6  7  1  0  0  0  0
  7  4  1  0  0  0  0
  7  3  2  0  0  0  0
  8  3  1  0  0  0  0
  8  2  1  0  0  0  0
  9 19  1  6  0  0  0
  9 15  1  0  0  0  0
  9 20  1  0  0  0  0
 11  6  1  0  0  0  0
 11 18  1  0  0  0  0
 12  1  1  0  0  0  0
 14 26  1  6  0  0  0
 14 13  1  0  0  0  0
 14 19  1  0  0  0  0
 15 20  1  1  0  0  0
 17 10  1  1  0  0  0
 17 12  1  0  0  0  0
 18  4  1  0  0  0  0
 21 15  1  0  0  0  0
 21  1  2  0  0  0  0
 22 23  2  0  0  0  0
 23 24  1  0  0  0  0
 25 26  1  0  0  0  0
M  END
>  <MODEL>
3

>  <REMARK>
 VINA RESULT:      -4.0      6.659      9.947
  Name = 
  2 active torsions:
  status: ('A' for Active; 'I' for Inactive)
    1  A    between atoms: C_6  and  C_8
    2  A    between atoms: C_17  and  O_24
                            x       y       z     vdW  Elec       q    Type
                         _______ _______ _______ _____ _____    ______ ____

>  <TORSDO>
F 2

$$$$
=
 OpenBabel11072414373D

 26 30  0  0  1  0  0  0  0  0999 V2000
  158.4670  213.0210  145.6960 C   0  0  0  0  0  3  0  0  0  0  0  0
  160.4770  213.5330  143.7640 C   0  0  2  0  0  0  0  0  0  0  0  0
  161.1370  212.0450  142.1010 C   0  0  0  0  0  0  0  0  0  0  0  0
  161.0950  210.3310  140.3430 C   0  0  0  0  0  2  0  0  0  0  0  0
  160.6630  214.1380  145.1640 C   0  0  2  0  0  3  0  0  0  0  0  0
  162.9160  212.0800  140.3490 C   0  0  1  0  0  3  0  0  0  0  0  0
  161.6670  211.5470  140.9780 C   0  0  0  0  0  0  0  0  0  0  0  0
  161.6790  213.2170  142.8790 C   0  0  0  0  0  2  0  0  0  0  0  0
  160.5360  213.7280  148.3380 C   0  0  2  0  0  3  0  0  0  0  0  0
  159.9910  211.5260  142.6990 O   0  0  0  0  0  0  0  0  0  0  0  0
  163.2050  211.2400  139.1170 C   0  0  0  0  0  2  0  0  0  0  0  0
  158.5720  212.2740  144.5080 O   0  0  0  0  0  0  0  0  0  0  0  0
  162.0250  213.8940  145.8320 C   0  0  0  0  0  2  0  0  0  0  0  0
  162.1390  212.5890  146.6300 C   0  0  2  0  0  3  0  0  0  0  0  0
  159.4900  214.4530  147.4620 C   0  0  2  0  0  3  0  0  0  0  0  0
  159.5460  214.4530  142.9720 C   0  0  0  0  0  1  0  0  0  0  0  0
  159.8710  212.1640  143.9480 C   0  0  2  0  0  3  0  0  0  0  0  0
  162.3840  209.6250  139.2810 S   0  0  0  0  0  0  0  0  0  0  0  0
  161.1070  212.4190  147.7590 C   0  0  0  0  0  2  0  0  0  0  0  0
  159.0570  213.4980  148.5630 C   0  0  0  0  0  2  0  0  0  0  0  0
  159.4570  213.8690  146.0750 C   0  0  0  0  0  0  0  0  0  0  0  0
  161.6990  213.9030  139.4120 O   0  0  0  0  0  0  0  0  0  0  0  0
  162.7720  213.5120  139.9400 C   0  0  0  0  0  0  0  0  0  0  0  0
  163.8050  214.4170  140.1550 O   0  0  0  0  0  1  0  0  0  0  0  0
  163.2980  211.6190  148.2470 C   0  0  0  0  0  1  0  0  0  0  0  0
  163.4270  212.4820  147.1580 O   0  0  0  0  0  0  0  0  0  0  0  0
  1 21  2  0  0  0  0
  2 16  1  6  0  0  0
  2 17  1  0  0  0  0
  2  5  1  0  0  0  0
  3 10  1  0  0  0  0
  3  8  1  0  0  0  0
  4  7  1  0  0  0  0
  5 13  1  1  0  0  0
  5 21  1  0  0  0  0
  6 23  1  6  0  0  0
  6  7  1  0  0  0  0
  7  3  2  0  0  0  0
  8  2  1  0  0  0  0
  9 19  1  6  0  0  0
  9 20  1  0  0  0  0
 11 18  1  0  0  0  0
 11  6  1  0  0  0  0
 12  1  1  0  0  0  0
 13 14  1  0  0  0  0
 14 26  1  1  0  0  0
 14 19  1  0  0  0  0
 15  9  1  0  0  0  0
 15 20  1  1  0  0  0
 17 10  1  6  0  0  0
 17 12  1  0  0  0  0
 18  4  1  0  0  0  0
 21 15  1  0  0  0  0
 22 23  2  0  0  0  0
 23 24  1  0  0  0  0
 26 25  1  0  0  0  0
M  END
>  <MODEL>
4

>  <REMARK>
 VINA RESULT:      -4.0      2.482      7.109
  Name = 
  2 active torsions:
  status: ('A' for Active; 'I' for Inactive)
    1  A    between atoms: C_6  and  C_8
    2  A    between atoms: C_17  and  O_24
                            x       y       z     vdW  Elec       q    Type
                         _______ _______ _______ _____ _____    ______ ____

>  <TORSDO>
F 2

$$$$
=
 OpenBabel11072414373D

 26 30  0  0  1  0  0  0  0  0999 V2000
  162.6840  214.1140  143.9500 C   0  0  0  0  0  3  0  0  0  0  0  0
  160.9600  212.5440  142.3370 C   0  0  2  0  0  0  0  0  0  0  0  0
  159.9310  213.2760  140.3820 C   0  0  0  0  0  0  0  0  0  0  0  0
  159.5090  214.3920  138.2370 C   0  0  0  0  0  2  0  0  0  0  0  0
  160.9270  212.3080  143.8550 C   0  0  2  0  0  3  0  0  0  0  0  0
  158.2840  212.2590  138.8040 C   0  0  1  0  0  3  0  0  0  0  0  0
  159.3060  213.2790  139.1990 C   0  0  0  0  0  0  0  0  0  0  0  0
  159.7410  212.2490  141.4700 C   0  0  0  0  0  2  0  0  0  0  0  0
  160.8520  213.5710  146.7970 C   0  0  2  0  0  3  0  0  0  0  0  0
  160.8590  214.2440  140.7570 O   0  0  0  0  0  0  0  0  0  0  0  0
  157.7910  212.6170  137.4140 C   0  0  0  0  0  2  0  0  0  0  0  0
  162.3920  214.4520  142.6150 O   0  0  0  0  0  0  0  0  0  0  0  0
  159.5390  212.3160  144.5120 C   0  0  0  0  0  2  0  0  0  0  0  0
  159.0260  213.6960  144.9440 C   0  0  2  0  0  3  0  0  0  0  0  0
  162.0860  212.9740  146.0850 C   0  0  2  0  0  3  0  0  0  0  0  0
  162.1400  211.7570  141.7630 C   0  0  0  0  0  1  0  0  0  0  0  0
  161.1320  214.0270  142.1210 C   0  0  2  0  0  3  0  0  0  0  0  0
  158.0950  214.3830  137.1010 S   0  0  0  0  0  0  0  0  0  0  0  0
  159.9350  214.4530  145.9280 C   0  0  0  0  0  2  0  0  0  0  0  0
  162.1920  214.2710  146.8700 C   0  0  0  0  0  2  0  0  0  0  0  0
  161.9780  213.1490  144.5930 C   0  0  0  0  0  0  0  0  0  0  0  0
  158.1760  209.9150  139.2260 O   0  0  0  0  0  1  0  0  0  0  0  0
  158.8540  210.8750  138.7780 C   0  0  0  0  0  0  0  0  0  0  0  0
  160.1160  210.6400  138.2460 O   0  0  0  0  0  0  0  0  0  0  0  0
  157.7000  212.2460  145.9620 C   0  0  0  0  0  1  0  0  0  0  0  0
  157.7510  213.5620  145.4980 O   0  0  0  0  0  0  0  0  0  0  0  0
  1 21  2  0  0  0  0
  2 16  1  6  0  0  0
  2  5  1  0  0  0  0
  3 10  1  0  0  0  0
  3  8  1  0  0  0  0
  4  7  1  0  0  0  0
  5 13  1  1  0  0  0
  5 21  1  0  0  0  0
  6 23  1  6  0  0  0
  6  7  1  0  0  0  0
  7  3  2  0  0  0  0
  8  2  1  0  0  0  0
  9 19  1  6  0  0  0
  9 20  1  0  0  0  0
 11  6  1  0  0  0  0
 12  1  1  0  0  0  0
 13 14  1  0  0  0  0
 14 26  1  1  0  0  0
 14 19  1  0  0  0  0
 15  9  1  0  0  0  0
 15 20  1  1  0  0  0
 17 10  1  6  0  0  0
 17  2  1  0  0  0  0
 17 12  1  0  0  0  0
 18 11  1  0  0  0  0
 18  4  1  0  0  0  0
 21 15  1  0  0  0  0
 23 22  1  0  0  0  0
 24 23  2  0  0  0  0
 26 25  1  0  0  0  0
M  END
>  <MODEL>
5

>  <REMARK>
 VINA RESULT:      -4.0      3.049      6.840
  Name = 
  2 active torsions:
  status: ('A' for Active; 'I' for Inactive)
    1  A    between atoms: C_6  and  C_8
    2  A    between atoms: C_17  and  O_24
                            x       y       z     vdW  Elec       q    Type
                         _______ _______ _______ _____ _____    ______ ____

>  <TORSDO>
F 2

$$$$
=
 OpenBabel11072414373D

 26 30  0  0  1  0  0  0  0  0999 V2000
  155.7920  213.4080  138.6350 C   0  0  0  0  0  3  0  0  0  0  0  0
  158.2920  212.4640  139.5840 C   0  0  2  0  0  0  0  0  0  0  0  0
  160.3650  213.1090  138.7470 C   0  0  0  0  0  0  0  0  0  0  0  0
  162.1990  214.4520  137.8200 C   0  0  0  0  0  2  0  0  0  0  0  0
  157.1050  211.4870  139.6040 C   0  0  2  0  0  3  0  0  0  0  0  0
  162.7170  212.4150  139.2180 C   0  0  1  0  0  3  0  0  0  0  0  0
  161.6800  213.3270  138.6400 C   0  0  0  0  0  0  0  0  0  0  0  0
  159.7250  211.9560  139.4790 C   0  0  0  0  0  2  0  0  0  0  0  0
  154.5800  210.2500  138.0710 C   0  0  2  0  0  3  0  0  0  0  0  0
  159.4050  213.9450  138.1830 O   0  0  0  0  0  0  0  0  0  0  0  0
  164.0790  212.9840  138.8640 C   0  0  0  0  0  2  0  0  0  0  0  0
  156.9980  214.0850  138.3720 O   0  0  0  0  0  0  0  0  0  0  0  0
  157.3520  210.1080  138.9740 C   0  0  0  0  0  2  0  0  0  0  0  0
  157.1020  210.0240  137.4630 C   0  0  2  0  0  3  0  0  0  0  0  0
  154.5450  211.3210  139.1850 C   0  0  2  0  0  3  0  0  0  0  0  0
  158.2000  213.3430  140.8330 C   0  0  0  0  0  1  0  0  0  0  0  0
  158.1690  213.2850  138.3240 C   0  0  2  0  0  3  0  0  0  0  0  0
  163.9230  214.0650  137.4100 S   0  0  0  0  0  0  0  0  0  0  0  0
  155.6850  210.4190  137.0110 C   0  0  0  0  0  2  0  0  0  0  0  0
  153.6700  211.4530  137.9500 C   0  0  0  0  0  2  0  0  0  0  0  0
  155.7970  212.1570  139.1610 C   0  0  0  0  0  0  0  0  0  0  0  0
  162.7250  213.3410  141.4140 O   0  0  0  0  0  1  0  0  0  0  0  0
  162.6050  212.3080  140.7060 C   0  0  0  0  0  0  0  0  0  0  0  0
  162.3520  211.0820  141.3110 O   0  0  0  0  0  0  0  0  0  0  0  0
  158.7830  208.6560  137.0130 C   0  0  0  0  0  1  0  0  0  0  0  0
  157.3890  208.7310  137.0200 O   0  0  0  0  0  0  0  0  0  0  0  0
  1 21  2  0  0  0  0
  2  5  1  0  0  0  0
  2 16  1  1  0  0  0
  3  8  1  0  0  0  0
  4  7  1  0  0  0  0
  5 13  1  6  0  0  0
  6 23  1  1  0  0  0
  7  3  2  0  0  0  0
  7  6  1  0  0  0  0
  8  2  1  0  0  0  0
  9 19  1  6  0  0  0
  9 15  1  0  0  0  0
 10  3  1  0  0  0  0
 11  6  1  0  0  0  0
 12  1  1  0  0  0  0
 14 26  1  1  0  0  0
 14 13  1  0  0  0  0
 15 20  1  6  0  0  0
 17 10  1  1  0  0  0
 17 12  1  0  0  0  0
 17  2  1  0  0  0  0
 18  4  1  0  0  0  0
 18 11  1  0  0  0  0
 19 14  1  0  0  0  0
 20  9  1  0  0  0  0
 21 15  1  0  0  0  0
 21  5  1  0  0  0  0
 23 24  2  0  0  0  0
 23 22  1  0  0  0  0
 25 26  1  0  0  0  0
M  END
>  <MODEL>
6

>  <REMARK>
 VINA RESULT:      -3.5      4.328      6.317
  Name = 
  2 active torsions:
  status: ('A' for Active; 'I' for Inactive)
    1  A    between atoms: C_6  and  C_8
    2  A    between atoms: C_17  and  O_24
                            x       y       z     vdW  Elec       q    Type
                         _______ _______ _______ _____ _____    ______ ____

>  <TORSDO>
F 2

$$$$
=
 OpenBabel11072414373D

 26 30  0  0  1  0  0  0  0  0999 V2000
  155.3170  214.2000  137.5330 C   0  0  0  0  0  3  0  0  0  0  0  0
  157.1060  212.9890  139.3690 C   0  0  2  0  0  0  0  0  0  0  0  0
  159.3260  212.4590  138.9140 C   0  0  0  0  0  0  0  0  0  0  0  0
  161.6260  212.5500  138.0600 C   0  0  0  0  0  2  0  0  0  0  0  0
  155.6250  212.5850  139.4440 C   0  0  2  0  0  3  0  0  0  0  0  0
  161.1280  211.2950  140.1930 C   0  0  1  0  0  3  0  0  0  0  0  0
  160.6180  212.1500  139.0750 C   0  0  0  0  0  0  0  0  0  0  0  0
  158.2040  212.0360  139.8300 C   0  0  0  0  0  2  0  0  0  0  0  0
  152.9620  211.7320  137.8840 C   0  0  2  0  0  3  0  0  0  0  0  0
  158.8520  213.2300  137.8560 O   0  0  0  0  0  0  0  0  0  0  0  0
  162.6290  211.1530  140.0150 C   0  0  0  0  0  2  0  0  0  0  0  0
  156.7130  214.2400  137.3570 O   0  0  0  0  0  0  0  0  0  0  0  0
  155.3340  211.0770  139.4530 C   0  0  0  0  0  2  0  0  0  0  0  0
  155.2070  210.4250  138.0690 C   0  0  2  0  0  3  0  0  0  0  0  0
  153.2740  213.1250  138.4760 C   0  0  2  0  0  3  0  0  0  0  0  0
  157.2760  214.3010  140.1380 C   0  0  0  0  0  1  0  0  0  0  0  0
  157.4470  213.1590  137.9090 C   0  0  2  0  0  3  0  0  0  0  0  0
  163.0640  211.4670  138.2770 S   0  0  0  0  0  0  0  0  0  0  0  0
  154.1270  211.0330  137.1570 C   0  0  0  0  0  2  0  0  0  0  0  0
  152.6460  212.9860  137.0990 C   0  0  0  0  0  2  0  0  0  0  0  0
  154.7570  213.3880  138.4660 C   0  0  0  0  0  0  0  0  0  0  0  0
  160.4330  211.1700  142.4700 O   0  0  0  0  0  1  0  0  0  0  0  0
  160.8500  211.8990  141.5330 C   0  0  0  0  0  0  0  0  0  0  0  0
  161.0670  213.2540  141.7570 O   0  0  0  0  0  0  0  0  0  0  0  0
  154.9820  208.8470  139.6030 C   0  0  0  0  0  1  0  0  0  0  0  0
  154.9710  209.0580  138.2240 O   0  0  0  0  0  0  0  0  0  0  0  0
  1 21  2  0  0  0  0
  2  5  1  0  0  0  0
  2  8  1  0  0  0  0
  2 16  1  1  0  0  0
  3  7  2  0  0  0  0
  3  8  1  0  0  0  0
  4 18  1  0  0  0  0
  4  7  1  0  0  0  0
  5 13  1  6  0  0  0
  6 23  1  1  0  0  0
  7  6  1  0  0  0  0
  9 20  1  6  0  0  0
  9 15  1  0  0  0  0
 10 17  1  0  0  0  0
 10  3  1  0  0  0  0
 11  6  1  0  0  0  0
 12  1  1  0  0  0  0
 14 26  1  1  0  0  0
 14 13  1  0  0  0  0
 15 20  1  6  0  0  0
 17 12  1  1  0  0  0
 17  2  1  0  0  0  0
 18 11  1  0  0  0  0
 19  9  1  0  0  0  0
 19 14  1  0  0  0  0
 21 15  1  0  0  0  0
 21  5  1  0  0  0  0
 23 24  2  0  0  0  0
 23 22  1  0  0  0  0
 26 25  1  0  0  0  0
M  END
>  <MODEL>
7

>  <REMARK>
 VINA RESULT:      -3.4      5.133      6.639
  Name = 
  2 active torsions:
  status: ('A' for Active; 'I' for Inactive)
    1  A    between atoms: C_6  and  C_8
    2  A    between atoms: C_17  and  O_24
                            x       y       z     vdW  Elec       q    Type
                         _______ _______ _______ _____ _____    ______ ____

>  <TORSDO>
F 2

$$$$
=
 OpenBabel11072414373D

 26 30  0  0  1  0  0  0  0  0999 V2000
  161.8380  211.0740  155.7820 C   0  0  0  0  0  3  0  0  0  0  0  0
  160.9490  208.7880  154.3600 C   0  0  2  0  0  0  0  0  0  0  0  0
  161.4740  208.3080  152.1450 C   0  0  0  0  0  0  0  0  0  0  0  0
  162.6880  208.0890  150.0230 C   0  0  0  0  0  2  0  0  0  0  0  0
  159.9980  209.3920  155.4070 C   0  0  2  0  0  3  0  0  0  0  0  0
  160.7890  206.5130  150.5500 C   0  0  1  0  0  3  0  0  0  0  0  0
  161.6580  207.6470  150.9970 C   0  0  0  0  0  0  0  0  0  0  0  0
  160.4080  208.0060  153.1680 C   0  0  0  0  0  2  0  0  0  0  0  0
  158.6610  212.0160  156.6650 C   0  0  2  0  0  3  0  0  0  0  0  0
  162.2670  209.3810  152.5420 O   0  0  0  0  0  0  0  0  0  0  0  0
  161.2970  206.0490  149.1970 C   0  0  0  0  0  2  0  0  0  0  0  0
  162.4650  210.6350  154.6010 O   0  0  0  0  0  0  0  0  0  0  0  0
  158.5610  209.6640  154.9390 C   0  0  0  0  0  2  0  0  0  0  0  0
  158.3340  211.0300  154.2770 C   0  0  2  0  0  3  0  0  0  0  0  0
  159.8350  211.2070  157.2610 C   0  0  2  0  0  3  0  0  0  0  0  0
  161.9460  207.8890  155.0930 C   0  0  0  0  0  1  0  0  0  0  0  0
  161.6450  209.9380  153.6760 C   0  0  2  0  0  3  0  0  0  0  0  0
  162.2350  207.3940  148.4100 S   0  0  0  0  0  0  0  0  0  0  0  0
  158.7070  212.2460  155.1430 C   0  0  0  0  0  2  0  0  0  0  0  0
  159.8620  212.7260  157.2510 C   0  0  0  0  0  2  0  0  0  0  0  0
  160.6440  210.5570  156.1690 C   0  0  0  0  0  0  0  0  0  0  0  0
  159.9450  204.4690  151.4440 O   0  0  0  0  0  0  0  0  0  0  0  0
  160.8290  205.3630  151.5070 C   0  0  0  0  0  0  0  0  0  0  0  0
  161.8450  205.2640  152.4510 O   0  0  0  0  0  1  0  0  0  0  0  0
  156.6260  212.4350  154.2150 C   0  0  0  0  0  1  0  0  0  0  0  0
  157.0000  211.1330  153.8790 O   0  0  0  0  0  0  0  0  0  0  0  0
  1 21  2  0  0  0  0
  2 16  1  1  0  0  0
  2  5  1  0  0  0  0
  3 10  1  0  0  0  0
  3  8  1  0  0  0  0
  4  7  1  0  0  0  0
  5 13  1  6  0  0  0
  5 21  1  0  0  0  0
  6  7  1  0  0  0  0
  6 23  1  1  0  0  0
  7  3  2  0  0  0  0
  8  2  1  0  0  0  0
  9 19  1  6  0  0  0
  9 20  1  0  0  0  0
  9 15  1  0  0  0  0
 11  6  1  0  0  0  0
 12  1  1  0  0  0  0
 14 26  1  1  0  0  0
 14 13  1  0  0  0  0
 14 19  1  0  0  0  0
 15 20  1  6  0  0  0
 17 10  1  6  0  0  0
 17  2  1  0  0  0  0
 17 12  1  0  0  0  0
 18 11  1  0  0  0  0
 18  4  1  0  0  0  0
 21 15  1  0  0  0  0
 22 23  2  0  0  0  0
 23 24  1  0  0  0  0
 26 25  1  0  0  0  0
M  END
>  <MODEL>
8

>  <REMARK>
 VINA RESULT:      -3.3      9.943     13.550
  Name = 
  2 active torsions:
  status: ('A' for Active; 'I' for Inactive)
    1  A    between atoms: C_6  and  C_8
    2  A    between atoms: C_17  and  O_24
                            x       y       z     vdW  Elec       q    Type
                         _______ _______ _______ _____ _____    ______ ____

>  <TORSDO>
F 2

$$$$
=
 OpenBabel11072414373D

 26 30  0  0  1  0  0  0  0  0999 V2000
  161.6240  207.7090  153.1180 C   0  0  0  0  0  3  0  0  0  0  0  0
  162.0590  209.5720  151.0260 C   0  0  2  0  0  0  0  0  0  0  0  0
  160.6830  211.3860  150.5490 C   0  0  0  0  0  0  0  0  0  0  0  0
  159.1920  213.3210  150.7970 C   0  0  0  0  0  2  0  0  0  0  0  0
  162.4780  208.1130  150.7810 C   0  0  2  0  0  3  0  0  0  0  0  0
  160.6620  213.1230  148.7540 C   0  0  1  0  0  3  0  0  0  0  0  0
  160.2410  212.5570  150.0750 C   0  0  0  0  0  0  0  0  0  0  0  0
  161.6780  210.4840  149.8640 C   0  0  0  0  0  2  0  0  0  0  0  0
  161.7480  205.0040  151.0140 C   0  0  2  0  0  3  0  0  0  0  0  0
  160.2660  210.8500  151.7640 O   0  0  0  0  0  0  0  0  0  0  0  0
  159.9290  214.4380  148.5630 C   0  0  0  0  0  2  0  0  0  0  0  0
  161.0030  208.9720  153.0970 O   0  0  0  0  0  0  0  0  0  0  0  0
  161.9780  207.4740  149.4770 C   0  0  0  0  0  2  0  0  0  0  0  0
  160.5900  206.8240  149.5550 C   0  0  2  0  0  3  0  0  0  0  0  0
  162.7010  205.7950  151.9370 C   0  0  2  0  0  3  0  0  0  0  0  0
  163.1790  210.2580  151.8090 C   0  0  0  0  0  1  0  0  0  0  0  0
  160.7750  209.5380  151.8170 C   0  0  2  0  0  3  0  0  0  0  0  0
  158.4340  214.4530  149.6000 S   0  0  0  0  0  0  0  0  0  0  0  0
  160.4430  205.7220  150.6190 C   0  0  0  0  0  2  0  0  0  0  0  0
  161.7020  204.8070  152.5140 C   0  0  0  0  0  2  0  0  0  0  0  0
  162.2810  207.2390  152.0270 C   0  0  0  0  0  0  0  0  0  0  0  0
  162.6270  214.3480  149.3200 O   0  0  0  0  0  1  0  0  0  0  0  0
  162.1360  213.3730  148.6940 C   0  0  0  0  0  0  0  0  0  0  0  0
  162.9680  212.5270  147.9690 O   0  0  0  0  0  0  0  0  0  0  0  0
  161.3890  206.4990  147.5170 C   0  0  0  0  0  1  0  0  0  0  0  0
  160.2510  206.3100  148.3020 O   0  0  0  0  0  0  0  0  0  0  0  0
  2 16  1  1  0  0  0
  2 17  1  0  0  0  0
  3 10  1  0  0  0  0
  5 13  1  6  0  0  0
  5  2  1  0  0  0  0
  5 21  1  0  0  0  0
  6 23  1  1  0  0  0
  6  7  1  0  0  0  0
  7  3  2  0  0  0  0
  7  4  1  0  0  0  0
  8  3  1  0  0  0  0
  8  2  1  0  0  0  0
  9 19  1  1  0  0  0
  9 15  1  0  0  0  0
  9 20  1  0  0  0  0
 11  6  1  0  0  0  0
 11 18  1  0  0  0  0
 12  1  1  0  0  0  0
 13 14  1  0  0  0  0
 14 26  1  6  0  0  0
 14 19  1  0  0  0  0
 15 21  1  0  0  0  0
 15 20  1  1  0  0  0
 17 10  1  1  0  0  0
 17 12  1  0  0  0  0
 18  4  1  0  0  0  0
 21  1  2  0  0  0  0
 23 22  1  0  0  0  0
 24 23  2  0  0  0  0
 25 26  1  0  0  0  0
M  END
>  <MODEL>
9

>  <REMARK>
 VINA RESULT:      -3.1      7.286     10.141
  Name = 
  2 active torsions:
  status: ('A' for Active; 'I' for Inactive)
    1  A    between atoms: C_6  and  C_8
    2  A    between atoms: C_17  and  O_24
                            x       y       z     vdW  Elec       q    Type
                         _______ _______ _______ _____ _____    ______ ____

>  <TORSDO>
F 2

$$$$
