=
 OpenBabel11072412413D

 31 36  0  0  1  0  0  0  0  0999 V2000
  161.1530  204.9630  153.2200 N   0  0  0  0  0  0  0  0  0  0  0  0
  161.1300  206.2990  153.0100 C   0  0  0  0  0  3  0  0  0  0  0  0
  161.5910  205.2940  151.1070 C   0  0  0  0  0  0  0  0  0  0  0  0
  161.4980  202.9830  151.9190 N   0  0  0  0  0  1  0  0  0  0  0  0
  161.4030  206.5390  151.6690 C   0  0  0  0  0  0  0  0  0  0  0  0
  161.4320  204.3720  152.0710 N   0  0  0  0  0  0  0  0  0  0  0  0
  161.1280  207.9740  149.8000 O   0  0  0  0  0  0  0  0  0  0  0  0
  161.4710  207.8520  151.0050 C   0  0  0  0  0  0  0  0  0  0  0  0
  161.9290  209.0580  151.7610 C   0  0  0  0  0  2  0  0  0  0  0  0
  160.2630  210.8430  152.2650 C   0  0  0  0  0  2  0  0  0  0  0  0
  159.2650  210.8820  154.5170 N   0  0  2  0  0  0  0  0  0  0  0  0
  160.3640  210.1190  155.1470 C   0  0  2  0  0  3  0  0  0  0  0  0
  160.8660  209.5210  152.7460 C   0  0  2  0  0  3  0  0  0  0  0  0
  161.4470  209.6700  154.1510 C   0  0  0  0  0  2  0  0  0  0  0  0
  159.8060  208.8860  155.8370 C   0  0  0  0  0  1  0  0  0  0  0  0
  159.7880  211.7150  153.4300 C   0  0  0  0  0  2  0  0  0  0  0  0
  158.7310  211.7970  155.5230 C   0  0  1  0  0  3  0  0  0  0  0  0
  157.3360  213.7630  155.6850 O   0  0  0  0  0  1  0  0  0  0  0  0
  156.3390  211.7780  154.7440 C   0  0  0  0  0  2  0  0  0  0  0  0
  157.5860  212.6100  154.9440 C   0  0  1  0  0  0  0  0  0  0  0  0
  157.2970  211.4280  155.8600 C   0  0  2  0  0  3  0  0  0  0  0  0
  161.8810  205.0350  149.7280 N   0  0  0  0  0  2  0  0  0  0  0  0
  161.3450  204.8910  147.3890 C   0  0  0  0  0  0  0  0  0  0  0  0
  161.2950  202.6320  147.3880 N   0  0  0  0  0  0  0  0  0  0  0  0
  161.2810  203.9750  145.2750 N   0  0  0  0  0  0  0  0  0  0  0  0
  160.9900  205.3560  144.9170 C   0  0  0  0  0  3  0  0  0  0  0  0
  160.9360  202.9920  148.7520 C   0  0  0  0  0  2  0  0  0  0  0  0
  161.4920  203.8290  146.6660 C   0  0  0  0  0  0  0  0  0  0  0  0
  160.8380  201.5020  146.8010 O   0  0  0  0  0  1  0  0  0  0  0  0
  160.9080  206.3500  146.4660 S   0  0  0  0  0  0  0  0  0  0  0  0
  160.9110  204.5330  148.7680 C   0  0  1  0  0  3  0  0  0  0  0  0
  2  1  2  0  0  0  0
  3  5  2  0  0  0  0
  3  6  1  0  0  0  0
  4  6  1  0  0  0  0
  5  2  1  0  0  0  0
  6  1  1  0  0  0  0
  7  8  2  0  0  0  0
  8  5  1  0  0  0  0
  8  9  1  0  0  0  0
 10 13  1  0  0  0  0
 10 16  1  0  0  0  0
 11 16  1  6  0  0  0
 11 12  1  0  0  0  0
 12 15  1  6  0  0  0
 13  9  1  6  0  0  0
 13 14  1  0  0  0  0
 14 12  1  0  0  0  0
 17 11  1  6  0  0  0
 17 21  1  0  0  0  0
 19 20  1  0  0  0  0
 20 17  1  0  0  0  0
 20 18  1  1  0  0  0
 20 21  1  0  0  0  0
 21 19  1  6  0  0  0
 22  3  1  0  0  0  0
 23 31  1  0  0  0  0
 24 27  1  0  0  0  0
 25 28  1  0  0  0  0
 26 25  2  0  0  0  0
 26 30  1  0  0  0  0
 27 31  1  0  0  0  0
 28 24  1  0  0  0  0
 28 23  2  0  0  0  0
 29 24  1  0  0  0  0
 30 23  1  0  0  0  0
 31 22  1  1  0  0  0
M  END
>  <MODEL>
1

>  <REMARK>
 VINA RESULT:      -8.1      0.000      0.000
  Name = 
  6 active torsions:
  status: ('A' for Active; 'I' for Inactive)
    1  A    between atoms: C_1  and  N_7
    2  A    between atoms: C_12  and  C_13
    3  A    between atoms: C_12  and  C_31
    4  A    between atoms: C_17  and  N_22
    5  A    between atoms: N_22  and  C_30
    6  A    between atoms: C_25  and  C_31
                            x       y       z     vdW  Elec       q    Type
                         _______ _______ _______ _____ _____    ______ ____

>  <TORSDO>
F 6

$$$$
=
 OpenBabel11072412413D

 31 36  0  0  1  0  0  0  0  0999 V2000
  161.3360  205.0330  153.0700 N   0  0  0  0  0  0  0  0  0  0  0  0
  161.5390  206.3650  152.9650 C   0  0  0  0  0  3  0  0  0  0  0  0
  161.1010  205.5590  150.9640 C   0  0  0  0  0  0  0  0  0  0  0  0
  160.7760  203.2170  151.6120 N   0  0  0  0  0  1  0  0  0  0  0  0
  161.3920  206.7300  151.6320 C   0  0  0  0  0  0  0  0  0  0  0  0
  161.0740  204.5610  151.8630 N   0  0  0  0  0  0  0  0  0  0  0  0
  161.2470  208.3020  149.8610 O   0  0  0  0  0  0  0  0  0  0  0  0
  161.5220  208.0850  151.0710 C   0  0  0  0  0  0  0  0  0  0  0  0
  161.9630  209.2230  151.9350 C   0  0  0  0  0  2  0  0  0  0  0  0
  160.1810  210.9100  152.3720 C   0  0  0  0  0  2  0  0  0  0  0  0
  159.1470  210.9380  154.6080 N   0  0  2  0  0  0  0  0  0  0  0  0
  160.2810  210.2610  155.2710 C   0  0  2  0  0  3  0  0  0  0  0  0
  160.8580  209.6400  152.8930 C   0  0  2  0  0  3  0  0  0  0  0  0
  161.4060  209.8580  154.3020 C   0  0  0  0  0  2  0  0  0  0  0  0
  159.7900  209.0110  155.9830 C   0  0  0  0  0  1  0  0  0  0  0  0
  159.6340  211.7770  153.5090 C   0  0  0  0  0  2  0  0  0  0  0  0
  158.5400  211.8400  155.5840 C   0  0  1  0  0  3  0  0  0  0  0  0
  157.0450  213.7360  155.6760 O   0  0  0  0  0  1  0  0  0  0  0  0
  156.1740  211.6900  154.7420 C   0  0  0  0  0  2  0  0  0  0  0  0
  157.3730  212.5860  154.9610 C   0  0  1  0  0  0  0  0  0  0  0  0
  157.1180  211.4060  155.8890 C   0  0  2  0  0  3  0  0  0  0  0  0
  160.8460  205.4400  149.5600 N   0  0  0  0  0  2  0  0  0  0  0  0
  161.1030  203.8540  147.7710 C   0  0  0  0  0  0  0  0  0  0  0  0
  161.7670  205.4190  146.2820 N   0  0  0  0  0  0  0  0  0  0  0  0
  161.1480  203.0920  145.5960 N   0  0  0  0  0  0  0  0  0  0  0  0
  161.0040  201.8080  146.2690 C   0  0  0  0  0  3  0  0  0  0  0  0
  162.1830  205.9580  147.5680 C   0  0  0  0  0  2  0  0  0  0  0  0
  161.1620  204.1660  146.5170 C   0  0  0  0  0  0  0  0  0  0  0  0
  162.4380  205.6940  145.1390 O   0  0  0  0  0  1  0  0  0  0  0  0
  161.0060  202.1040  148.0870 S   0  0  0  0  0  0  0  0  0  0  0  0
  161.7880  204.8840  148.6010 C   0  0  1  0  0  3  0  0  0  0  0  0
  2  1  2  0  0  0  0
  3  5  2  0  0  0  0
  3  6  1  0  0  0  0
  4  6  1  0  0  0  0
  5  2  1  0  0  0  0
  6  1  1  0  0  0  0
  7  8  2  0  0  0  0
  8  5  1  0  0  0  0
  8  9  1  0  0  0  0
 10 13  1  0  0  0  0
 10 16  1  0  0  0  0
 11 16  1  6  0  0  0
 11 12  1  0  0  0  0
 12 15  1  6  0  0  0
 13  9  1  6  0  0  0
 13 14  1  0  0  0  0
 14 12  1  0  0  0  0
 17 11  1  6  0  0  0
 17 21  1  0  0  0  0
 19 20  1  0  0  0  0
 20 17  1  0  0  0  0
 20 18  1  1  0  0  0
 20 21  1  0  0  0  0
 21 19  1  6  0  0  0
 22  3  1  0  0  0  0
 23 30  1  0  0  0  0
 23 31  1  0  0  0  0
 24 28  1  0  0  0  0
 24 27  1  0  0  0  0
 25 26  2  0  0  0  0
 25 28  1  0  0  0  0
 26 30  1  0  0  0  0
 27 31  1  0  0  0  0
 28 23  2  0  0  0  0
 29 24  1  0  0  0  0
 31 22  1  1  0  0  0
M  END
>  <MODEL>
2

>  <REMARK>
 VINA RESULT:      -7.9      1.392      1.664
  Name = 
  6 active torsions:
  status: ('A' for Active; 'I' for Inactive)
    1  A    between atoms: C_1  and  N_7
    2  A    between atoms: C_12  and  C_13
    3  A    between atoms: C_12  and  C_31
    4  A    between atoms: C_17  and  N_22
    5  A    between atoms: N_22  and  C_30
    6  A    between atoms: C_25  and  C_31
                            x       y       z     vdW  Elec       q    Type
                         _______ _______ _______ _____ _____    ______ ____

>  <TORSDO>
F 6

$$$$
=
 OpenBabel11072412413D

 31 36  0  0  1  0  0  0  0  0999 V2000
  159.8880  207.7640  156.2520 N   0  0  0  0  0  0  0  0  0  0  0  0
  160.4560  206.9600  155.3250 C   0  0  0  0  0  3  0  0  0  0  0  0
  160.5040  209.0330  154.5860 C   0  0  0  0  0  0  0  0  0  0  0  0
  159.4480  210.1020  156.5230 N   0  0  0  0  0  1  0  0  0  0  0  0
  160.8620  207.7440  154.2520 C   0  0  0  0  0  0  0  0  0  0  0  0
  159.9220  209.0040  155.7970 N   0  0  0  0  0  0  0  0  0  0  0  0
  162.2150  206.2200  153.0370 O   0  0  0  0  0  0  0  0  0  0  0  0
  161.5330  207.2790  153.0260 C   0  0  0  0  0  0  0  0  0  0  0  0
  161.3970  208.0480  151.7510 C   0  0  0  0  0  2  0  0  0  0  0  0
  161.8990  207.9930  149.3100 C   0  0  0  0  0  2  0  0  0  0  0  0
  161.5320  205.8750  148.1070 N   0  0  2  0  0  0  0  0  0  0  0  0
  160.5770  205.3390  149.0990 C   0  0  2  0  0  3  0  0  0  0  0  0
  161.5940  207.1420  150.5450 C   0  0  2  0  0  3  0  0  0  0  0  0
  160.3650  206.2660  150.3090 C   0  0  0  0  0  2  0  0  0  0  0  0
  161.0640  203.9920  149.6070 C   0  0  0  0  0  1  0  0  0  0  0  0
  161.4040  207.3330  148.0200 C   0  0  0  0  0  2  0  0  0  0  0  0
  161.1520  205.3450  146.7990 C   0  0  1  0  0  3  0  0  0  0  0  0
  161.7960  205.5080  144.4760 O   0  0  0  0  0  1  0  0  0  0  0  0
  163.4570  204.7000  146.0260 C   0  0  0  0  0  2  0  0  0  0  0  0
  162.2590  205.5900  145.7880 C   0  0  1  0  0  0  0  0  0  0  0  0
  162.0780  204.2090  146.4030 C   0  0  2  0  0  3  0  0  0  0  0  0
  160.7390  210.1990  153.7880 N   0  0  0  0  0  2  0  0  0  0  0  0
  158.9850  211.8180  153.5030 C   0  0  0  0  0  0  0  0  0  0  0  0
  160.0370  212.8770  151.8060 N   0  0  0  0  0  0  0  0  0  0  0  0
  158.0290  213.8410  152.9490 N   0  0  0  0  0  0  0  0  0  0  0  0
  156.9630  213.3270  153.7980 C   0  0  0  0  0  3  0  0  0  0  0  0
  160.5240  211.5080  151.7230 C   0  0  0  0  0  2  0  0  0  0  0  0
  159.1180  212.9420  152.8750 C   0  0  0  0  0  0  0  0  0  0  0  0
  159.9270  213.6660  150.7120 O   0  0  0  0  0  1  0  0  0  0  0  0
  157.4320  211.6340  154.3550 S   0  0  0  0  0  0  0  0  0  0  0  0
  159.7820  210.7480  152.8400 C   0  0  1  0  0  3  0  0  0  0  0  0
  2  1  2  0  0  0  0
  3  6  1  0  0  0  0
  5  3  2  0  0  0  0
  5  2  1  0  0  0  0
  6  1  1  0  0  0  0
  6  4  1  0  0  0  0
  8  7  2  0  0  0  0
  8  5  1  0  0  0  0
  9  8  1  0  0  0  0
 10 13  1  0  0  0  0
 11 16  1  6  0  0  0
 11 12  1  0  0  0  0
 12 15  1  1  0  0  0
 12 14  1  0  0  0  0
 13  9  1  1  0  0  0
 14 13  1  0  0  0  0
 16 10  1  0  0  0  0
 17 11  1  1  0  0  0
 20 18  1  6  0  0  0
 20 19  1  0  0  0  0
 20 21  1  0  0  0  0
 20 17  1  0  0  0  0
 21 19  1  1  0  0  0
 21 17  1  0  0  0  0
 22  3  1  0  0  0  0
 23 30  1  0  0  0  0
 24 28  1  0  0  0  0
 25 26  2  0  0  0  0
 26 30  1  0  0  0  0
 27 24  1  0  0  0  0
 27 31  1  0  0  0  0
 28 25  1  0  0  0  0
 28 23  2  0  0  0  0
 29 24  1  0  0  0  0
 31 23  1  0  0  0  0
 31 22  1  1  0  0  0
M  END
>  <MODEL>
3

>  <REMARK>
 VINA RESULT:      -7.8      3.115      8.892
  Name = 
  6 active torsions:
  status: ('A' for Active; 'I' for Inactive)
    1  A    between atoms: C_1  and  N_7
    2  A    between atoms: C_12  and  C_13
    3  A    between atoms: C_12  and  C_31
    4  A    between atoms: C_17  and  N_22
    5  A    between atoms: N_22  and  C_30
    6  A    between atoms: C_25  and  C_31
                            x       y       z     vdW  Elec       q    Type
                         _______ _______ _______ _____ _____    ______ ____

>  <TORSDO>
F 6

$$$$
=
 OpenBabel11072412413D

 31 36  0  0  1  0  0  0  0  0999 V2000
  161.3320  205.9130  153.9170 N   0  0  0  0  0  0  0  0  0  0  0  0
  161.8290  205.7970  152.6650 C   0  0  0  0  0  3  0  0  0  0  0  0
  160.8450  207.7570  152.8540 C   0  0  0  0  0  0  0  0  0  0  0  0
  160.1530  207.5580  155.1970 N   0  0  0  0  0  1  0  0  0  0  0  0
  161.5350  206.9610  151.9650 C   0  0  0  0  0  0  0  0  0  0  0  0
  160.7440  207.0930  154.0180 N   0  0  0  0  0  0  0  0  0  0  0  0
  163.1050  207.3260  150.2230 O   0  0  0  0  0  0  0  0  0  0  0  0
  161.8960  207.2640  150.5690 C   0  0  0  0  0  0  0  0  0  0  0  0
  160.8300  207.4820  149.5430 C   0  0  0  0  0  2  0  0  0  0  0  0
  160.7150  204.9990  149.3610 C   0  0  0  0  0  2  0  0  0  0  0  0
  161.1090  203.9880  147.1490 N   0  0  2  0  0  0  0  0  0  0  0  0
  161.8540  205.1490  146.6190 C   0  0  2  0  0  3  0  0  0  0  0  0
  160.7580  206.3110  148.5750 C   0  0  2  0  0  3  0  0  0  0  0  0
  161.9420  206.3250  147.6080 C   0  0  0  0  0  2  0  0  0  0  0  0
  161.1960  205.6450  145.3420 C   0  0  0  0  0  1  0  0  0  0  0  0
  161.3560  203.8440  148.5860 C   0  0  0  0  0  2  0  0  0  0  0  0
  161.6490  202.7890  146.5110 C   0  0  1  0  0  3  0  0  0  0  0  0
  161.2070  200.4200  146.3450 O   0  0  0  0  0  1  0  0  0  0  0  0
  159.4860  201.9190  145.5660 C   0  0  0  0  0  2  0  0  0  0  0  0
  160.6220  201.6710  146.5330 C   0  0  1  0  0  0  0  0  0  0  0  0
  160.8620  202.4630  145.2540 C   0  0  2  0  0  3  0  0  0  0  0  0
  160.3480  209.0730  152.5850 N   0  0  0  0  0  2  0  0  0  0  0  0
  160.1760  210.9820  154.0380 C   0  0  0  0  0  0  0  0  0  0  0  0
  162.1220  210.5350  155.0970 N   0  0  0  0  0  0  0  0  0  0  0  0
  160.4920  212.2360  155.9450 N   0  0  0  0  0  0  0  0  0  0  0  0
  159.3700  212.9780  155.3870 C   0  0  0  0  0  3  0  0  0  0  0  0
  162.3030  209.9630  153.7710 C   0  0  0  0  0  2  0  0  0  0  0  0
  160.8420  211.1300  155.1370 C   0  0  0  0  0  0  0  0  0  0  0  0
  163.1620  211.0110  155.8210 O   0  0  0  0  0  1  0  0  0  0  0  0
  158.9250  212.2200  153.7680 S   0  0  0  0  0  0  0  0  0  0  0  0
  161.0070  210.2990  153.0070 C   0  0  1  0  0  3  0  0  0  0  0  0
  1  6  1  0  0  0  0
  2  1  2  0  0  0  0
  3  6  1  0  0  0  0
  5  2  1  0  0  0  0
  5  3  2  0  0  0  0
  6  4  1  0  0  0  0
  7  8  2  0  0  0  0
  8  5  1  0  0  0  0
  9  8  1  0  0  0  0
 11 16  1  1  0  0  0
 12 15  1  6  0  0  0
 12 11  1  0  0  0  0
 12 14  1  0  0  0  0
 13 10  1  0  0  0  0
 13  9  1  1  0  0  0
 14 13  1  0  0  0  0
 16 10  1  0  0  0  0
 17 20  1  0  0  0  0
 17 11  1  1  0  0  0
 19 20  1  0  0  0  0
 20 18  1  1  0  0  0
 21 19  1  1  0  0  0
 21 17  1  0  0  0  0
 21 20  1  0  0  0  0
 22  3  1  0  0  0  0
 23 28  2  0  0  0  0
 24 28  1  0  0  0  0
 24 29  1  0  0  0  0
 26 25  2  0  0  0  0
 27 24  1  0  0  0  0
 28 25  1  0  0  0  0
 30 23  1  0  0  0  0
 30 26  1  0  0  0  0
 31 22  1  1  0  0  0
 31 27  1  0  0  0  0
 31 23  1  0  0  0  0
M  END
>  <MODEL>
4

>  <REMARK>
 VINA RESULT:      -7.4      2.700      9.445
  Name = 
  6 active torsions:
  status: ('A' for Active; 'I' for Inactive)
    1  A    between atoms: C_1  and  N_7
    2  A    between atoms: C_12  and  C_13
    3  A    between atoms: C_12  and  C_31
    4  A    between atoms: C_17  and  N_22
    5  A    between atoms: N_22  and  C_30
    6  A    between atoms: C_25  and  C_31
                            x       y       z     vdW  Elec       q    Type
                         _______ _______ _______ _____ _____    ______ ____

>  <TORSDO>
F 6

$$$$
=
 OpenBabel11072412413D

 31 36  0  0  1  0  0  0  0  0999 V2000
  160.8530  206.9790  155.4280 N   0  0  0  0  0  0  0  0  0  0  0  0
  160.7520  207.0800  154.0830 C   0  0  0  0  0  3  0  0  0  0  0  0
  161.3490  209.0370  154.8950 C   0  0  0  0  0  0  0  0  0  0  0  0
  161.4420  208.4020  157.2610 N   0  0  0  0  0  1  0  0  0  0  0  0
  161.0670  208.3820  153.7140 C   0  0  0  0  0  0  0  0  0  0  0  0
  161.2100  208.1590  155.9030 N   0  0  0  0  0  0  0  0  0  0  0  0
  160.0740  209.4990  151.8720 O   0  0  0  0  0  0  0  0  0  0  0  0
  161.0910  208.9290  152.3470 C   0  0  0  0  0  0  0  0  0  0  0  0
  162.3290  208.8300  151.5150 C   0  0  0  0  0  2  0  0  0  0  0  0
  162.3700  208.2790  149.0840 C   0  0  0  0  0  2  0  0  0  0  0  0
  161.5820  206.0480  148.3970 N   0  0  2  0  0  0  0  0  0  0  0  0
  160.7760  205.8270  149.6160 C   0  0  2  0  0  3  0  0  0  0  0  0
  162.2130  207.7070  150.4950 C   0  0  2  0  0  3  0  0  0  0  0  0
  160.8800  206.9730  150.6370 C   0  0  0  0  0  2  0  0  0  0  0  0
  161.2110  204.5390  150.2950 C   0  0  0  0  0  1  0  0  0  0  0  0
  161.5850  207.4710  148.0470 C   0  0  0  0  0  2  0  0  0  0  0  0
  160.9200  205.3500  147.2970 C   0  0  1  0  0  3  0  0  0  0  0  0
  160.8780  205.3160  144.8820 O   0  0  0  0  0  1  0  0  0  0  0  0
  162.9820  204.8250  145.9550 C   0  0  0  0  0  2  0  0  0  0  0  0
  161.6710  205.5790  145.9980 C   0  0  1  0  0  0  0  0  0  0  0  0
  161.8240  204.2610  146.7460 C   0  0  2  0  0  3  0  0  0  0  0  0
  161.7460  210.4080  155.0150 N   0  0  0  0  0  2  0  0  0  0  0  0
  159.7480  211.5890  154.3880 C   0  0  0  0  0  0  0  0  0  0  0  0
  158.6920  211.1360  156.3350 N   0  0  0  0  0  0  0  0  0  0  0  0
  157.4990  212.0920  154.3520 N   0  0  0  0  0  0  0  0  0  0  0  0
  157.8890  212.7760  153.1270 C   0  0  0  0  0  3  0  0  0  0  0  0
  160.1040  211.1310  156.6890 C   0  0  0  0  0  2  0  0  0  0  0  0
  158.5960  211.4390  154.9590 C   0  0  0  0  0  0  0  0  0  0  0  0
  157.7320  211.4900  157.2200 O   0  0  0  0  0  1  0  0  0  0  0  0
  159.7110  212.5980  152.9210 S   0  0  0  0  0  0  0  0  0  0  0  0
  160.8480  211.4900  155.3870 C   0  0  1  0  0  3  0  0  0  0  0  0
  1  6  1  0  0  0  0
  2  1  2  0  0  0  0
  3 22  1  0  0  0  0
  3  6  1  0  0  0  0
  5  2  1  0  0  0  0
  5  3  2  0  0  0  0
  6  4  1  0  0  0  0
  7  8  2  0  0  0  0
  8  5  1  0  0  0  0
  9  8  1  0  0  0  0
 10 13  1  0  0  0  0
 11 16  1  6  0  0  0
 11 12  1  0  0  0  0
 12 15  1  1  0  0  0
 12 14  1  0  0  0  0
 13 14  1  0  0  0  0
 13  9  1  1  0  0  0
 16 10  1  0  0  0  0
 17 11  1  1  0  0  0
 19 20  1  0  0  0  0
 20 18  1  6  0  0  0
 20 21  1  0  0  0  0
 20 17  1  0  0  0  0
 21 19  1  1  0  0  0
 21 17  1  0  0  0  0
 23 28  2  0  0  0  0
 23 31  1  0  0  0  0
 24 27  1  0  0  0  0
 24 29  1  0  0  0  0
 25 28  1  0  0  0  0
 26 25  2  0  0  0  0
 28 24  1  0  0  0  0
 30 26  1  0  0  0  0
 30 23  1  0  0  0  0
 31 22  1  6  0  0  0
 31 27  1  0  0  0  0
M  END
>  <MODEL>
5

>  <REMARK>
 VINA RESULT:      -7.4      2.753      8.914
  Name = 
  6 active torsions:
  status: ('A' for Active; 'I' for Inactive)
    1  A    between atoms: C_1  and  N_7
    2  A    between atoms: C_12  and  C_13
    3  A    between atoms: C_12  and  C_31
    4  A    between atoms: C_17  and  N_22
    5  A    between atoms: N_22  and  C_30
    6  A    between atoms: C_25  and  C_31
                            x       y       z     vdW  Elec       q    Type
                         _______ _______ _______ _____ _____    ______ ____

>  <TORSDO>
F 6

$$$$
=
 OpenBabel11072412413D

 31 36  0  0  1  0  0  0  0  0999 V2000
  162.0710  209.9050  148.4690 N   0  0  0  0  0  0  0  0  0  0  0  0
  162.1080  208.5710  148.6880 C   0  0  0  0  0  3  0  0  0  0  0  0
  161.8810  209.5970  150.6220 C   0  0  0  0  0  0  0  0  0  0  0  0
  161.8240  211.8970  149.7760 N   0  0  0  0  0  1  0  0  0  0  0  0
  161.9860  208.3450  150.0540 C   0  0  0  0  0  0  0  0  0  0  0  0
  161.9350  210.5090  149.6370 N   0  0  0  0  0  0  0  0  0  0  0  0
  162.9920  206.6270  151.3440 O   0  0  0  0  0  0  0  0  0  0  0  0
  161.9710  207.0380  150.7320 C   0  0  0  0  0  0  0  0  0  0  0  0
  160.7370  206.1930  150.7190 C   0  0  0  0  0  2  0  0  0  0  0  0
  160.5650  203.8500  149.8840 C   0  0  0  0  0  2  0  0  0  0  0  0
  161.0550  203.4370  147.5060 N   0  0  2  0  0  0  0  0  0  0  0  0
  161.8600  204.6650  147.3360 C   0  0  2  0  0  3  0  0  0  0  0  0
  160.6880  205.3200  149.4740 C   0  0  2  0  0  3  0  0  0  0  0  0
  161.9240  205.5360  148.6030 C   0  0  0  0  0  2  0  0  0  0  0  0
  161.2890  205.5040  146.2050 C   0  0  0  0  0  1  0  0  0  0  0  0
  161.2160  202.9120  148.8650 C   0  0  0  0  0  2  0  0  0  0  0  0
  161.5970  202.4260  146.6010 C   0  0  1  0  0  3  0  0  0  0  0  0
  161.1640  200.1600  145.8820 O   0  0  0  0  0  1  0  0  0  0  0  0
  159.4330  201.7930  145.4840 C   0  0  0  0  0  2  0  0  0  0  0  0
  160.5740  201.3290  146.3610 C   0  0  1  0  0  0  0  0  0  0  0  0
  160.8060  202.4010  145.3050 C   0  0  2  0  0  3  0  0  0  0  0  0
  161.7170  209.8690  152.0190 N   0  0  0  0  0  2  0  0  0  0  0  0
  160.7850  208.9990  154.0580 C   0  0  0  0  0  0  0  0  0  0  0  0
  159.8280  210.9640  154.6320 N   0  0  0  0  0  0  0  0  0  0  0  0
  160.0050  209.0420  156.2260 N   0  0  0  0  0  0  0  0  0  0  0  0
  160.2400  207.6090  156.1130 C   0  0  0  0  0  3  0  0  0  0  0  0
  159.8780  211.0080  153.1780 C   0  0  0  0  0  2  0  0  0  0  0  0
  160.3680  209.7270  155.0430 C   0  0  0  0  0  0  0  0  0  0  0  0
  158.8630  211.6000  155.3360 O   0  0  0  0  0  1  0  0  0  0  0  0
  160.8260  207.2520  154.4030 S   0  0  0  0  0  0  0  0  0  0  0  0
  160.4810  209.6540  152.7550 C   0  0  1  0  0  3  0  0  0  0  0  0
  1  2  2  0  0  0  0
  1  6  1  0  0  0  0
  2  5  1  0  0  0  0
  3 22  1  0  0  0  0
  5  3  2  0  0  0  0
  5  8  1  0  0  0  0
  6  4  1  0  0  0  0
  6  3  1  0  0  0  0
  8  7  2  0  0  0  0
  9  8  1  0  0  0  0
 11 16  1  1  0  0  0
 12 15  1  6  0  0  0
 12 11  1  0  0  0  0
 12 14  1  0  0  0  0
 13 10  1  0  0  0  0
 13  9  1  1  0  0  0
 14 13  1  0  0  0  0
 16 10  1  0  0  0  0
 17 11  1  1  0  0  0
 19 20  1  0  0  0  0
 20 18  1  6  0  0  0
 20 17  1  0  0  0  0
 21 19  1  1  0  0  0
 21 20  1  0  0  0  0
 21 17  1  0  0  0  0
 23 30  1  0  0  0  0
 23 28  2  0  0  0  0
 24 28  1  0  0  0  0
 24 29  1  0  0  0  0
 26 25  2  0  0  0  0
 27 24  1  0  0  0  0
 28 25  1  0  0  0  0
 30 26  1  0  0  0  0
 31 22  1  6  0  0  0
 31 27  1  0  0  0  0
 31 23  1  0  0  0  0
M  END
>  <MODEL>
6

>  <REMARK>
 VINA RESULT:      -7.2      2.747      9.561
  Name = 
  6 active torsions:
  status: ('A' for Active; 'I' for Inactive)
    1  A    between atoms: C_1  and  N_7
    2  A    between atoms: C_12  and  C_13
    3  A    between atoms: C_12  and  C_31
    4  A    between atoms: C_17  and  N_22
    5  A    between atoms: N_22  and  C_30
    6  A    between atoms: C_25  and  C_31
                            x       y       z     vdW  Elec       q    Type
                         _______ _______ _______ _____ _____    ______ ____

>  <TORSDO>
F 6

$$$$
=
 OpenBabel11072412413D

 31 36  0  0  1  0  0  0  0  0999 V2000
  162.0030  208.6000  148.2610 N   0  0  0  0  0  0  0  0  0  0  0  0
  161.7720  208.8440  149.5710 C   0  0  0  0  0  3  0  0  0  0  0  0
  161.8810  206.6670  149.2670 C   0  0  0  0  0  0  0  0  0  0  0  0
  162.3310  206.6880  146.8580 N   0  0  0  0  0  1  0  0  0  0  0  0
  161.6930  207.6280  150.2380 C   0  0  0  0  0  0  0  0  0  0  0  0
  162.0650  207.2910  148.0920 N   0  0  0  0  0  0  0  0  0  0  0  0
  160.8310  206.4140  152.0860 O   0  0  0  0  0  0  0  0  0  0  0  0
  161.4580  207.4270  151.6780 C   0  0  0  0  0  0  0  0  0  0  0  0
  161.9790  208.4140  152.6740 C   0  0  0  0  0  2  0  0  0  0  0  0
  160.0810  210.0260  152.5690 C   0  0  0  0  0  2  0  0  0  0  0  0
  159.0340  210.7100  154.6910 N   0  0  2  0  0  0  0  0  0  0  0  0
  160.2090  210.3650  155.5200 C   0  0  2  0  0  3  0  0  0  0  0  0
  160.8420  209.0440  153.4630 C   0  0  2  0  0  3  0  0  0  0  0  0
  161.3650  209.7460  154.7150 C   0  0  0  0  0  2  0  0  0  0  0  0
  159.8030  209.3850  156.6070 C   0  0  0  0  0  1  0  0  0  0  0  0
  159.4680  211.1770  153.3710 C   0  0  0  0  0  2  0  0  0  0  0  0
  158.3600  211.8380  155.3310 C   0  0  1  0  0  3  0  0  0  0  0  0
  156.6460  213.4760  154.8680 O   0  0  0  0  0  1  0  0  0  0  0  0
  155.9990  211.1540  154.7960 C   0  0  0  0  0  2  0  0  0  0  0  0
  157.0850  212.1850  154.5830 C   0  0  1  0  0  0  0  0  0  0  0  0
  157.0160  211.4010  155.8870 C   0  0  2  0  0  3  0  0  0  0  0  0
  161.9010  205.2510  149.4860 N   0  0  0  0  0  2  0  0  0  0  0  0
  161.2430  203.4640  148.0190 C   0  0  0  0  0  0  0  0  0  0  0  0
  160.7780  202.0450  149.7150 N   0  0  0  0  0  0  0  0  0  0  0  0
  160.9170  201.2880  147.3330 N   0  0  0  0  0  0  0  0  0  0  0  0
  160.8690  201.9310  146.0270 C   0  0  0  0  0  3  0  0  0  0  0  0
  160.5520  203.3640  150.2870 C   0  0  0  0  0  2  0  0  0  0  0  0
  161.1590  202.2210  148.3680 C   0  0  0  0  0  0  0  0  0  0  0  0
  160.0950  200.9550  150.1360 O   0  0  0  0  0  1  0  0  0  0  0  0
  161.0410  203.7490  146.2730 S   0  0  0  0  0  0  0  0  0  0  0  0
  160.8130  204.3530  149.1340 C   0  0  1  0  0  3  0  0  0  0  0  0
  1  2  2  0  0  0  0
  2  5  1  0  0  0  0
  3 22  1  0  0  0  0
  3  5  2  0  0  0  0
  4  6  1  0  0  0  0
  5  8  1  0  0  0  0
  6  1  1  0  0  0  0
  6  3  1  0  0  0  0
  8  7  2  0  0  0  0
  8  9  1  0  0  0  0
 10 16  1  0  0  0  0
 10 13  1  0  0  0  0
 11 16  1  6  0  0  0
 11 12  1  0  0  0  0
 12 15  1  1  0  0  0
 13  9  1  6  0  0  0
 13 14  1  0  0  0  0
 14 12  1  0  0  0  0
 17 11  1  6  0  0  0
 17 21  1  0  0  0  0
 20 19  1  0  0  0  0
 20 18  1  1  0  0  0
 20 17  1  0  0  0  0
 20 21  1  0  0  0  0
 21 19  1  6  0  0  0
 23 28  2  0  0  0  0
 23 31  1  0  0  0  0
 24 29  1  0  0  0  0
 24 27  1  0  0  0  0
 25 28  1  0  0  0  0
 26 30  1  0  0  0  0
 26 25  2  0  0  0  0
 28 24  1  0  0  0  0
 30 23  1  0  0  0  0
 31 22  1  1  0  0  0
 31 27  1  0  0  0  0
M  END
>  <MODEL>
7

>  <REMARK>
 VINA RESULT:      -7.1      1.825      2.582
  Name = 
  6 active torsions:
  status: ('A' for Active; 'I' for Inactive)
    1  A    between atoms: C_1  and  N_7
    2  A    between atoms: C_12  and  C_13
    3  A    between atoms: C_12  and  C_31
    4  A    between atoms: C_17  and  N_22
    5  A    between atoms: N_22  and  C_30
    6  A    between atoms: C_25  and  C_31
                            x       y       z     vdW  Elec       q    Type
                         _______ _______ _______ _____ _____    ______ ____

>  <TORSDO>
F 6

$$$$
=
 OpenBabel11072412413D

 31 36  0  0  1  0  0  0  0  0999 V2000
  161.6880  208.1020  148.0790 N   0  0  0  0  0  0  0  0  0  0  0  0
  161.4780  208.0960  149.4150 C   0  0  0  0  0  3  0  0  0  0  0  0
  161.7830  206.0240  148.7410 C   0  0  0  0  0  0  0  0  0  0  0  0
  162.1490  206.4960  146.3640 N   0  0  0  0  0  1  0  0  0  0  0  0
  161.5370  206.7830  149.8650 C   0  0  0  0  0  0  0  0  0  0  0  0
  161.8690  206.8520  147.6870 N   0  0  0  0  0  0  0  0  0  0  0  0
  160.6230  205.3400  151.5120 O   0  0  0  0  0  0  0  0  0  0  0  0
  161.3710  206.3200  151.2530 C   0  0  0  0  0  0  0  0  0  0  0  0
  162.1030  206.9940  152.3690 C   0  0  0  0  0  2  0  0  0  0  0  0
  161.0670  209.2250  152.7780 C   0  0  0  0  0  2  0  0  0  0  0  0
  159.8860  209.5710  154.9120 N   0  0  2  0  0  0  0  0  0  0  0  0
  160.5950  208.4820  155.6170 C   0  0  2  0  0  3  0  0  0  0  0  0
  161.1450  207.7730  153.2570 C   0  0  2  0  0  3  0  0  0  0  0  0
  161.5780  207.7090  154.7210 C   0  0  0  0  0  2  0  0  0  0  0  0
  159.5890  207.4970  156.1870 C   0  0  0  0  0  1  0  0  0  0  0  0
  160.7740  210.1940  153.9260 C   0  0  0  0  0  2  0  0  0  0  0  0
  159.5690  210.6020  155.8980 C   0  0  1  0  0  3  0  0  0  0  0  0
  159.2390  212.9910  156.0390 O   0  0  0  0  0  1  0  0  0  0  0  0
  157.7560  211.7570  154.5910 C   0  0  0  0  0  2  0  0  0  0  0  0
  159.1330  211.8810  155.2040 C   0  0  1  0  0  0  0  0  0  0  0  0
  158.0950  210.9590  155.8300 C   0  0  2  0  0  3  0  0  0  0  0  0
  161.9440  204.6000  148.7140 N   0  0  0  0  0  2  0  0  0  0  0  0
  161.2050  202.6880  147.4580 C   0  0  0  0  0  0  0  0  0  0  0  0
  160.9280  201.4030  149.2960 N   0  0  0  0  0  0  0  0  0  0  0  0
  160.8770  200.4580  146.9780 N   0  0  0  0  0  0  0  0  0  0  0  0
  160.6980  200.9920  145.6350 C   0  0  0  0  0  3  0  0  0  0  0  0
  160.7200  202.7600  149.7800 C   0  0  0  0  0  2  0  0  0  0  0  0
  161.1850  201.4760  147.9100 C   0  0  0  0  0  0  0  0  0  0  0  0
  160.3130  200.3390  149.8610 O   0  0  0  0  0  1  0  0  0  0  0  0
  160.8440  202.8270  145.7190 S   0  0  0  0  0  0  0  0  0  0  0  0
  160.8520  203.6570  148.5330 C   0  0  1  0  0  3  0  0  0  0  0  0
  1  2  2  0  0  0  0
  2  5  1  0  0  0  0
  3  5  2  0  0  0  0
  4  6  1  0  0  0  0
  5  8  1  0  0  0  0
  6  1  1  0  0  0  0
  6  3  1  0  0  0  0
  8  7  2  0  0  0  0
  8  9  1  0  0  0  0
 10 13  1  0  0  0  0
 10 16  1  0  0  0  0
 11 16  1  6  0  0  0
 11 12  1  0  0  0  0
 12 15  1  6  0  0  0
 13  9  1  6  0  0  0
 13 14  1  0  0  0  0
 14 12  1  0  0  0  0
 17 11  1  6  0  0  0
 19 20  1  0  0  0  0
 20 21  1  0  0  0  0
 20 17  1  0  0  0  0
 20 18  1  1  0  0  0
 21 19  1  6  0  0  0
 21 17  1  0  0  0  0
 22  3  1  0  0  0  0
 23 28  2  0  0  0  0
 23 31  1  0  0  0  0
 24 27  1  0  0  0  0
 24 29  1  0  0  0  0
 25 28  1  0  0  0  0
 26 30  1  0  0  0  0
 26 25  2  0  0  0  0
 28 24  1  0  0  0  0
 30 23  1  0  0  0  0
 31 22  1  1  0  0  0
 31 27  1  0  0  0  0
M  END
>  <MODEL>
8

>  <REMARK>
 VINA RESULT:      -6.8      2.119      2.912
  Name = 
  6 active torsions:
  status: ('A' for Active; 'I' for Inactive)
    1  A    between atoms: C_1  and  N_7
    2  A    between atoms: C_12  and  C_13
    3  A    between atoms: C_12  and  C_31
    4  A    between atoms: C_17  and  N_22
    5  A    between atoms: N_22  and  C_30
    6  A    between atoms: C_25  and  C_31
                            x       y       z     vdW  Elec       q    Type
                         _______ _______ _______ _____ _____    ______ ____

>  <TORSDO>
F 6

$$$$
=
 OpenBabel11072412413D

 31 36  0  0  1  0  0  0  0  0999 V2000
  160.8390  202.5820  152.3610 N   0  0  0  0  0  0  0  0  0  0  0  0
  160.8330  203.9030  152.6500 C   0  0  0  0  0  3  0  0  0  0  0  0
  161.3210  203.6490  150.5190 C   0  0  0  0  0  0  0  0  0  0  0  0
  161.1890  201.2030  150.4350 N   0  0  0  0  0  1  0  0  0  0  0  0
  161.1350  204.6090  151.4920 C   0  0  0  0  0  0  0  0  0  0  0  0
  161.1340  202.4430  151.0800 N   0  0  0  0  0  0  0  0  0  0  0  0
  160.7180  206.8280  152.2200 O   0  0  0  0  0  0  0  0  0  0  0  0
  161.2280  206.0720  151.3510 C   0  0  0  0  0  0  0  0  0  0  0  0
  161.9470  206.6760  150.1870 C   0  0  0  0  0  2  0  0  0  0  0  0
  161.9570  208.6190  148.6260 C   0  0  0  0  0  2  0  0  0  0  0  0
  161.5600  210.8580  149.5730 N   0  0  2  0  0  0  0  0  0  0  0  0
  161.9610  210.4790  150.9450 C   0  0  2  0  0  3  0  0  0  0  0  0
  161.6020  208.1500  150.0390 C   0  0  2  0  0  3  0  0  0  0  0  0
  162.3290  208.9920  151.0870 C   0  0  0  0  0  2  0  0  0  0  0  0
  160.8350  210.7900  151.9160 C   0  0  0  0  0  1  0  0  0  0  0  0
  162.3420  210.1000  148.5920 C   0  0  0  0  0  2  0  0  0  0  0  0
  161.9070  212.2650  149.3850 C   0  0  1  0  0  3  0  0  0  0  0  0
  162.5130  213.8050  147.6250 O   0  0  0  0  0  1  0  0  0  0  0  0
  160.3610  212.7280  147.4560 C   0  0  0  0  0  2  0  0  0  0  0  0
  161.7990  212.6450  147.9190 C   0  0  1  0  0  0  0  0  0  0  0  0
  160.6990  213.0430  148.8950 C   0  0  2  0  0  3  0  0  0  0  0  0
  161.6350  203.9040  149.1450 N   0  0  0  0  0  2  0  0  0  0  0  0
  161.2080  204.5080  146.8570 C   0  0  0  0  0  0  0  0  0  0  0  0
  160.9920  202.3640  146.1770 N   0  0  0  0  0  0  0  0  0  0  0  0
  161.1840  204.2700  144.5650 N   0  0  0  0  0  0  0  0  0  0  0  0
  161.0130  205.7150  144.6300 C   0  0  0  0  0  3  0  0  0  0  0  0
  160.5920  202.3320  147.5750 C   0  0  0  0  0  2  0  0  0  0  0  0
  161.3130  203.7000  145.8520 C   0  0  0  0  0  0  0  0  0  0  0  0
  160.4830  201.5030  145.2650 O   0  0  0  0  0  1  0  0  0  0  0  0
  160.9260  206.2070  146.4040 S   0  0  0  0  0  0  0  0  0  0  0  0
  160.6800  203.7950  148.0530 C   0  0  1  0  0  3  0  0  0  0  0  0
  1  2  2  0  0  0  0
  3  6  1  0  0  0  0
  3  5  2  0  0  0  0
  4  6  1  0  0  0  0
  5  2  1  0  0  0  0
  6  1  1  0  0  0  0
  8  5  1  0  0  0  0
  8  7  2  0  0  0  0
  9  8  1  0  0  0  0
 10 13  1  0  0  0  0
 11 16  1  6  0  0  0
 11 12  1  0  0  0  0
 12 14  1  0  0  0  0
 12 15  1  1  0  0  0
 13  9  1  6  0  0  0
 13 14  1  0  0  0  0
 16 10  1  0  0  0  0
 17 11  1  6  0  0  0
 19 20  1  0  0  0  0
 20 18  1  6  0  0  0
 20 21  1  0  0  0  0
 20 17  1  0  0  0  0
 21 19  1  6  0  0  0
 21 17  1  0  0  0  0
 22  3  1  0  0  0  0
 23 31  1  0  0  0  0
 24 27  1  0  0  0  0
 25 26  2  0  0  0  0
 25 28  1  0  0  0  0
 26 30  1  0  0  0  0
 27 31  1  0  0  0  0
 28 24  1  0  0  0  0
 28 23  2  0  0  0  0
 29 24  1  0  0  0  0
 30 23  1  0  0  0  0
 31 22  1  1  0  0  0
M  END
>  <MODEL>
9

>  <REMARK>
 VINA RESULT:      -6.8      3.000      4.186
  Name = 
  6 active torsions:
  status: ('A' for Active; 'I' for Inactive)
    1  A    between atoms: C_1  and  N_7
    2  A    between atoms: C_12  and  C_13
    3  A    between atoms: C_12  and  C_31
    4  A    between atoms: C_17  and  N_22
    5  A    between atoms: N_22  and  C_30
    6  A    between atoms: C_25  and  C_31
                            x       y       z     vdW  Elec       q    Type
                         _______ _______ _______ _____ _____    ______ ____

>  <TORSDO>
F 6

$$$$
