=
 OpenBabel11072410013D

 54 60  0  0  1  0  0  0  0  0999 V2000
  162.7030  208.2380  148.8620 C   0  0  0  0  0  0  0  0  0  0  0  0
  160.5190  206.4260  152.9250 N   0  0  0  0  0  2  0  0  0  0  0  0
  160.5880  207.8750  152.7740 C   0  0  0  0  0  2  0  0  0  0  0  0
  162.8190  209.0440  147.9510 O   0  0  0  0  0  0  0  0  0  0  0  0
  161.3330  206.0200  150.6890 C   0  0  0  0  0  3  0  0  0  0  0  0
  162.0720  209.6010  152.3940 C   0  0  2  0  0  3  0  0  0  0  0  0
  161.9970  209.6040  150.8480 C   0  0  2  0  0  3  0  0  0  0  0  0
  162.2690  206.8150  148.5880 C   0  0  1  0  0  3  0  0  0  0  0  0
  161.9210  208.2980  152.9340 O   0  0  0  0  0  0  0  0  0  0  0  0
  160.1910  205.8380  151.6300 C   0  0  0  0  0  2  0  0  0  0  0  0
  163.0460  208.6550  150.2680 C   0  0  0  0  0  2  0  0  0  0  0  0
  161.1110  206.4700  149.4620 C   0  0  0  0  0  3  0  0  0  0  0  0
  162.2330  210.9860  150.2630 C   0  0  0  0  0  1  0  0  0  0  0  0
  159.7400  210.5630  152.7760 C   0  0  0  0  0  2  0  0  0  0  0  0
  162.0190  211.2800  156.6900 C   0  0  0  0  0  2  0  0  0  0  0  0
  163.0800  209.1260  156.9710 O   0  0  0  0  0  1  0  0  0  0  0  0
  161.9220  209.8490  157.2610 C   0  0  2  0  0  3  0  0  0  0  0  0
  159.8590  210.5510  155.1460 C   0  0  2  0  0  3  0  0  0  0  0  0
  161.2310  210.6840  153.1230 C   0  0  1  0  0  3  0  0  0  0  0  0
  159.0220  210.0390  154.0050 C   0  0  1  0  0  3  0  0  0  0  0  0
  161.2960  210.4700  154.6300 C   0  0  1  0  0  3  0  0  0  0  0  0
  160.6410  209.0700  156.8560 C   0  0  1  0  0  3  0  0  0  0  0  0
  162.1670  211.3700  155.2800 O   0  0  0  0  0  0  0  0  0  0  0  0
  159.5800  209.8860  156.3810 O   0  0  0  0  0  0  0  0  0  0  0  0
  160.8980  208.0030  155.9850 O   0  0  0  0  0  0  0  0  0  0  0  0
  160.0390  206.9870  156.4020 C   0  0  0  0  0  1  0  0  0  0  0  0
  157.6830  210.6020  154.0680 N   0  0  0  0  0  2  0  0  0  0  0  0
  156.4510  214.4050  156.2580 C   0  0  0  0  0  2  0  0  0  0  0  0
  154.2400  213.2840  156.7470 C   0  0  0  0  0  2  0  0  0  0  0  0
  157.4130  214.2890  155.0790 C   0  0  2  0  0  3  0  0  0  0  0  0
  157.7220  211.7210  154.9950 C   0  0  1  0  0  3  0  0  0  0  0  0
  154.9630  211.9830  157.0960 C   0  0  0  0  0  2  0  0  0  0  0  0
  155.0160  214.1880  155.7960 C   0  0  0  0  0  2  0  0  0  0  0  0
  157.2380  212.9890  154.2810 C   0  0  0  0  0  2  0  0  0  0  0  0
  158.7310  214.4330  155.5150 O   0  0  0  0  0  1  0  0  0  0  0  0
  156.9010  211.3790  156.2370 C   0  0  0  0  0  2  0  0  0  0  0  0
  155.5290  211.3850  155.9630 O   0  0  0  0  0  0  0  0  0  0  0  0
  161.8880  206.5870  147.1310 C   0  0  0  0  0  2  0  0  0  0  0  0
  160.6420  203.3550  144.8110 C   0  0  0  0  0  2  0  0  0  0  0  0
  160.4030  203.2750  146.1890 O   0  0  0  0  0  0  0  0  0  0  0  0
  161.3690  204.1050  146.7760 C   0  0  1  0  0  3  0  0  0  0  0  0
  159.7600  205.8930  146.1430 O   0  0  0  0  0  0  0  0  0  0  0  0
  160.7990  205.5230  147.0310 C   0  0  2  0  0  3  0  0  0  0  0  0
  159.8440  204.4940  144.1900 C   0  0  0  0  0  2  0  0  0  0  0  0
  160.2330  205.8300  144.8170 C   0  0  0  0  0  2  0  0  0  0  0  0
  161.7890  203.1870  150.4310 C   0  0  0  0  0  2  0  0  0  0  0  0
  162.0290  203.3740  147.9630 C   0  0  2  0  0  3  0  0  0  0  0  0
  161.4280  202.0760  148.3400 C   0  0  2  0  0  0  0  0  0  0  0  0
  160.9980  202.1740  151.2850 C   0  0  0  0  0  2  0  0  0  0  0  0
  161.1530  203.3170  149.1280 N   0  0  1  0  0  0  0  0  0  0  0  0
  162.3970  201.2180  148.8890 O   0  0  0  0  0  1  0  0  0  0  0  0
  159.5950  201.8360  150.7330 C   0  0  0  0  0  2  0  0  0  0  0  0
  159.6220  200.8410  149.5560 C   0  0  0  0  0  2  0  0  0  0  0  0
  160.0480  201.4480  148.2050 C   0  0  0  0  0  2  0  0  0  0  0  0
  1 11  1  0  0  0  0
  3  2  1  0  0  0  0
  3  9  1  0  0  0  0
  4  1  2  0  0  0  0
  5 10  1  0  0  0  0
  6  9  1  1  0  0  0
  6 19  1  0  0  0  0
  7 13  1  6  0  0  0
  7  6  1  0  0  0  0
  8 38  1  6  0  0  0
  8  1  1  0  0  0  0
  8 12  1  0  0  0  0
 10  2  1  0  0  0  0
 11  7  1  0  0  0  0
 12  5  2  0  0  0  0
 14 20  1  0  0  0  0
 15 17  1  0  0  0  0
 17 16  1  6  0  0  0
 18 24  1  1  0  0  0
 19 14  1  6  0  0  0
 19 21  1  0  0  0  0
 20 27  1  1  0  0  0
 20 18  1  0  0  0  0
 21 18  1  0  0  0  0
 21 23  1  1  0  0  0
 22 25  1  6  0  0  0
 22 17  1  0  0  0  0
 23 15  1  0  0  0  0
 24 22  1  0  0  0  0
 25 26  1  0  0  0  0
 29 32  1  0  0  0  0
 30 35  1  1  0  0  0
 30 28  1  0  0  0  0
 31 27  1  6  0  0  0
 31 36  1  0  0  0  0
 33 28  1  0  0  0  0
 33 29  1  0  0  0  0
 34 31  1  0  0  0  0
 34 30  1  0  0  0  0
 37 36  1  0  0  0  0
 37 32  1  0  0  0  0
 39 40  1  0  0  0  0
 41 40  1  1  0  0  0
 41 43  1  0  0  0  0
 42 43  1  0  0  0  0
 43 38  1  6  0  0  0
 44 39  1  0  0  0  0
 44 45  1  0  0  0  0
 45 42  1  0  0  0  0
 46 49  1  0  0  0  0
 47 41  1  6  0  0  0
 47 48  1  0  0  0  0
 47 50  1  0  0  0  0
 48 51  1  1  0  0  0
 48 50  1  0  0  0  0
 50 46  1  1  0  0  0
 52 49  1  0  0  0  0
 53 52  1  0  0  0  0
 54 48  1  0  0  0  0
 54 53  1  0  0  0  0
M  END
>  <MODEL>
1

>  <REMARK>
 VINA RESULT:      -1.4      0.000      0.000
  Name = 
  7 active torsions:
  status: ('A' for Active; 'I' for Inactive)
    1  A    between atoms: N_9  and  C_16
    2  A    between atoms: N_9  and  C_34
    3  A    between atoms: C_14  and  C_19
    4  A    between atoms: C_18  and  C_32
    5  A    between atoms: C_21  and  C_31
    6  A    between atoms: O_29  and  C_47
    7  A    between atoms: C_31  and  C_36
                            x       y       z     vdW  Elec       q    Type
                         _______ _______ _______ _____ _____    ______ ____

>  <TORSDO>
F 7

$$$$
=
 OpenBabel11072410013D

 54 60  0  0  1  0  0  0  0  0999 V2000
  162.0510  206.6480  149.7100 C   0  0  0  0  0  0  0  0  0  0  0  0
  160.8420  206.4210  154.5100 N   0  0  0  0  0  2  0  0  0  0  0  0
  160.8020  207.7230  153.8560 C   0  0  0  0  0  2  0  0  0  0  0  0
  161.9370  207.0820  148.5740 O   0  0  0  0  0  0  0  0  0  0  0  0
  161.2010  205.2400  152.4360 C   0  0  0  0  0  3  0  0  0  0  0  0
  162.0850  209.1730  152.6000 C   0  0  2  0  0  3  0  0  0  0  0  0
  161.6960  208.6380  151.2010 C   0  0  2  0  0  3  0  0  0  0  0  0
  161.6450  205.2300  150.0430 C   0  0  1  0  0  3  0  0  0  0  0  0
  162.1160  208.1450  153.5770 O   0  0  0  0  0  0  0  0  0  0  0  0
  160.2870  205.4250  153.5980 C   0  0  0  0  0  2  0  0  0  0  0  0
  162.6520  207.5220  150.7790 C   0  0  0  0  0  2  0  0  0  0  0  0
  160.7100  205.2380  151.2050 C   0  0  0  0  0  3  0  0  0  0  0  0
  161.7340  209.7220  150.1390 C   0  0  0  0  0  1  0  0  0  0  0  0
  159.8430  210.3710  152.8170 C   0  0  0  0  0  2  0  0  0  0  0  0
  162.3710  211.8520  156.3440 C   0  0  0  0  0  2  0  0  0  0  0  0
  163.3060  209.7590  157.1120 O   0  0  0  0  0  1  0  0  0  0  0  0
  162.2140  210.6150  157.2560 C   0  0  2  0  0  3  0  0  0  0  0  0
  160.0890  210.9310  155.1100 C   0  0  2  0  0  3  0  0  0  0  0  0
  161.3550  210.4620  153.0680 C   0  0  1  0  0  3  0  0  0  0  0  0
  159.1610  210.2200  154.1630 C   0  0  1  0  0  3  0  0  0  0  0  0
  161.4880  210.6190  154.5780 C   0  0  1  0  0  3  0  0  0  0  0  0
  160.8660  209.8600  157.1040 C   0  0  1  0  0  3  0  0  0  0  0  0
  162.4480  211.5830  154.9520 O   0  0  0  0  0  0  0  0  0  0  0  0
  159.8350  210.6120  156.4800 O   0  0  0  0  0  0  0  0  0  0  0  0
  161.0070  208.5960  156.5160 O   0  0  0  0  0  0  0  0  0  0  0  0
  160.0570  207.7970  157.1510 C   0  0  0  0  0  1  0  0  0  0  0  0
  157.8650  210.8800  154.1330 N   0  0  0  0  0  2  0  0  0  0  0  0
  157.2670  214.4470  151.3580 C   0  0  0  0  0  2  0  0  0  0  0  0
  154.8340  214.4400  152.0420 C   0  0  0  0  0  2  0  0  0  0  0  0
  158.2850  213.3220  151.2080 C   0  0  2  0  0  3  0  0  0  0  0  0
  158.0550  212.1860  153.5220 C   0  0  1  0  0  3  0  0  0  0  0  0
  155.2320  214.2190  153.5020 C   0  0  0  0  0  2  0  0  0  0  0  0
  155.8660  213.9430  151.0370 C   0  0  0  0  0  2  0  0  0  0  0  0
  157.9150  212.0590  152.0000 C   0  0  0  0  0  2  0  0  0  0  0  0
  159.5600  213.7730  151.5570 O   0  0  0  0  0  1  0  0  0  0  0  0
  157.0700  213.1800  154.1360 C   0  0  0  0  0  2  0  0  0  0  0  0
  155.7610  212.9380  153.7070 O   0  0  0  0  0  0  0  0  0  0  0  0
  160.9870  204.5160  148.8690 C   0  0  0  0  0  2  0  0  0  0  0  0
  160.0250  200.4650  148.6480 C   0  0  0  0  0  2  0  0  0  0  0  0
  161.0880  200.9080  147.8500 O   0  0  0  0  0  0  0  0  0  0  0  0
  160.8440  202.2730  147.6410 C   0  0  1  0  0  3  0  0  0  0  0  0
  161.8620  202.4780  149.9010 O   0  0  0  0  0  0  0  0  0  0  0  0
  161.6110  203.1370  148.6740 C   0  0  2  0  0  3  0  0  0  0  0  0
  160.3630  200.6120  150.1260 C   0  0  0  0  0  2  0  0  0  0  0  0
  160.6400  202.0720  150.4730 C   0  0  0  0  0  2  0  0  0  0  0  0
  160.2110  204.2580  144.4720 C   0  0  0  0  0  2  0  0  0  0  0  0
  161.0280  202.6110  146.1470 C   0  0  2  0  0  3  0  0  0  0  0  0
  162.0730  203.6090  145.8330 C   0  0  2  0  0  0  0  0  0  0  0  0
  160.8060  205.6100  144.0270 C   0  0  0  0  0  2  0  0  0  0  0  0
  160.6240  203.9780  145.8400 N   0  0  1  0  0  0  0  0  0  0  0  0
  162.6260  203.3720  144.5630 O   0  0  0  0  0  1  0  0  0  0  0  0
  161.3540  206.4750  145.1840 C   0  0  0  0  0  2  0  0  0  0  0  0
  162.7380  206.0190  145.6880 C   0  0  0  0  0  2  0  0  0  0  0  0
  162.7200  204.7650  146.5840 C   0  0  0  0  0  2  0  0  0  0  0  0
  1  8  1  0  0  0  0
  1 11  1  0  0  0  0
  3  2  1  0  0  0  0
  4  1  2  0  0  0  0
  5 10  1  0  0  0  0
  6 19  1  0  0  0  0
  6  9  1  1  0  0  0
  7 13  1  6  0  0  0
  7  6  1  0  0  0  0
  8 38  1  6  0  0  0
  8 12  1  0  0  0  0
  9  3  1  0  0  0  0
 10  2  1  0  0  0  0
 11  7  1  0  0  0  0
 12  5  2  0  0  0  0
 14 20  1  0  0  0  0
 15 17  1  0  0  0  0
 17 16  1  6  0  0  0
 18 24  1  1  0  0  0
 19 14  1  1  0  0  0
 19 21  1  0  0  0  0
 20 27  1  6  0  0  0
 20 18  1  0  0  0  0
 21 23  1  6  0  0  0
 21 18  1  0  0  0  0
 22 25  1  6  0  0  0
 22 17  1  0  0  0  0
 23 15  1  0  0  0  0
 24 22  1  0  0  0  0
 25 26  1  0  0  0  0
 29 32  1  0  0  0  0
 30 28  1  0  0  0  0
 30 35  1  1  0  0  0
 30 34  1  0  0  0  0
 31 27  1  1  0  0  0
 31 36  1  0  0  0  0
 32 37  1  0  0  0  0
 33 28  1  0  0  0  0
 33 29  1  0  0  0  0
 34 31  1  0  0  0  0
 37 36  1  0  0  0  0
 39 44  1  0  0  0  0
 40 39  1  0  0  0  0
 41 40  1  6  0  0  0
 41 43  1  0  0  0  0
 42 45  1  0  0  0  0
 43 38  1  1  0  0  0
 43 42  1  0  0  0  0
 44 45  1  0  0  0  0
 47 41  1  1  0  0  0
 48 51  1  6  0  0  0
 48 50  1  0  0  0  0
 48 47  1  0  0  0  0
 48 54  1  0  0  0  0
 49 46  1  0  0  0  0
 49 52  1  0  0  0  0
 50 46  1  6  0  0  0
 50 47  1  0  0  0  0
 52 53  1  0  0  0  0
 53 54  1  0  0  0  0
M  END
>  <MODEL>
2

>  <REMARK>
 VINA RESULT:      -1.1      1.712      3.469
  Name = 
  7 active torsions:
  status: ('A' for Active; 'I' for Inactive)
    1  A    between atoms: N_9  and  C_16
    2  A    between atoms: N_9  and  C_34
    3  A    between atoms: C_14  and  C_19
    4  A    between atoms: C_18  and  C_32
    5  A    between atoms: C_21  and  C_31
    6  A    between atoms: O_29  and  C_47
    7  A    between atoms: C_31  and  C_36
                            x       y       z     vdW  Elec       q    Type
                         _______ _______ _______ _____ _____    ______ ____

>  <TORSDO>
F 7

$$$$
=
 OpenBabel11072410013D

 54 60  0  0  1  0  0  0  0  0999 V2000
  162.7540  208.3030  148.9210 C   0  0  0  0  0  0  0  0  0  0  0  0
  160.5770  206.5690  153.0200 N   0  0  0  0  0  2  0  0  0  0  0  0
  160.6220  208.0130  152.8290 C   0  0  0  0  0  2  0  0  0  0  0  0
  162.8630  209.0840  147.9880 O   0  0  0  0  0  0  0  0  0  0  0  0
  161.4110  206.1130  150.8010 C   0  0  0  0  0  3  0  0  0  0  0  0
  162.0790  209.7530  152.4100 C   0  0  2  0  0  3  0  0  0  0  0  0
  162.0130  209.7110  150.8630 C   0  0  2  0  0  3  0  0  0  0  0  0
  162.3460  206.8660  148.6850 C   0  0  1  0  0  3  0  0  0  0  0  0
  161.9460  208.4630  152.9850 O   0  0  0  0  0  0  0  0  0  0  0  0
  160.2660  205.9390  151.7400 C   0  0  0  0  0  2  0  0  0  0  0  0
  163.0820  208.7650  150.3160 C   0  0  0  0  0  2  0  0  0  0  0  0
  161.1880  206.5250  149.5610 C   0  0  0  0  0  3  0  0  0  0  0  0
  162.2290  211.0800  150.2420 C   0  0  0  0  0  1  0  0  0  0  0  0
  159.7470  210.7600  152.6570 C   0  0  0  0  0  2  0  0  0  0  0  0
  161.7810  211.3560  156.7240 C   0  0  0  0  0  2  0  0  0  0  0  0
  162.7750  209.1740  157.0330 O   0  0  0  0  0  1  0  0  0  0  0  0
  161.6170  209.9170  157.2600 C   0  0  2  0  0  3  0  0  0  0  0  0
  159.7110  210.7030  155.0300 C   0  0  2  0  0  3  0  0  0  0  0  0
  161.2150  210.8420  153.1030 C   0  0  1  0  0  3  0  0  0  0  0  0
  158.9400  210.2300  153.8270 C   0  0  1  0  0  3  0  0  0  0  0  0
  161.1770  210.5990  154.6070 C   0  0  1  0  0  3  0  0  0  0  0  0
  160.3480  209.1750  156.7580 C   0  0  1  0  0  3  0  0  0  0  0  0
  162.0220  211.4680  155.3290 O   0  0  0  0  0  0  0  0  0  0  0  0
  159.3380  210.0230  156.2310 O   0  0  0  0  0  0  0  0  0  0  0  0
  160.6390  208.1180  155.8850 O   0  0  0  0  0  0  0  0  0  0  0  0
  160.3370  206.9640  156.6070 C   0  0  0  0  0  1  0  0  0  0  0  0
  157.6120  210.8230  153.8130 N   0  0  0  0  0  2  0  0  0  0  0  0
  156.7400  214.4530  151.1980 C   0  0  0  0  0  2  0  0  0  0  0  0
  154.3670  214.3780  152.0650 C   0  0  0  0  0  2  0  0  0  0  0  0
  157.7640  213.3530  150.9380 C   0  0  2  0  0  3  0  0  0  0  0  0
  157.7310  212.1480  153.2280 C   0  0  1  0  0  3  0  0  0  0  0  0
  154.8800  214.1240  153.4830 C   0  0  0  0  0  2  0  0  0  0  0  0
  155.3280  213.9300  150.9700 C   0  0  0  0  0  2  0  0  0  0  0  0
  157.4770  212.0620  151.7190 C   0  0  0  0  0  2  0  0  0  0  0  0
  159.0530  213.8190  151.2020 O   0  0  0  0  0  1  0  0  0  0  0  0
  156.7790  213.1060  153.9450 C   0  0  0  0  0  2  0  0  0  0  0  0
  155.4450  212.8490  153.6090 O   0  0  0  0  0  0  0  0  0  0  0  0
  161.9780  206.5900  147.2310 C   0  0  0  0  0  2  0  0  0  0  0  0
  160.5380  203.4250  144.9320 C   0  0  0  0  0  2  0  0  0  0  0  0
  160.3370  203.3450  146.3160 O   0  0  0  0  0  0  0  0  0  0  0  0
  161.3520  204.1320  146.8790 C   0  0  1  0  0  3  0  0  0  0  0  0
  159.7960  205.9860  146.3050 O   0  0  0  0  0  0  0  0  0  0  0  0
  160.8460  205.5700  147.1590 C   0  0  2  0  0  3  0  0  0  0  0  0
  159.7660  204.5980  144.3420 C   0  0  0  0  0  2  0  0  0  0  0  0
  160.2250  205.9140  144.9660 C   0  0  0  0  0  2  0  0  0  0  0  0
  161.8750  203.2050  150.5180 C   0  0  0  0  0  2  0  0  0  0  0  0
  162.0190  203.3690  148.0410 C   0  0  2  0  0  3  0  0  0  0  0  0
  161.3600  202.1090  148.4510 C   0  0  2  0  0  0  0  0  0  0  0  0
  161.0630  202.2430  151.4110 C   0  0  0  0  0  2  0  0  0  0  0  0
  161.1920  203.3670  149.2420 N   0  0  1  0  0  0  0  0  0  0  0  0
  162.3000  201.1980  148.9630 O   0  0  0  0  0  1  0  0  0  0  0  0
  159.6200  201.9860  150.9220 C   0  0  0  0  0  2  0  0  0  0  0  0
  159.5380  200.9870  149.7500 C   0  0  0  0  0  2  0  0  0  0  0  0
  159.9420  201.5620  148.3790 C   0  0  0  0  0  2  0  0  0  0  0  0
  1 11  1  0  0  0  0
  3  9  1  0  0  0  0
  3  2  1  0  0  0  0
  4  1  2  0  0  0  0
  5 10  1  0  0  0  0
  6  9  1  1  0  0  0
  6 19  1  0  0  0  0
  7 13  1  6  0  0  0
  7  6  1  0  0  0  0
  8 38  1  6  0  0  0
  8  1  1  0  0  0  0
  8 12  1  0  0  0  0
 10  2  1  0  0  0  0
 11  7  1  0  0  0  0
 12  5  2  0  0  0  0
 14 20  1  0  0  0  0
 15 17  1  0  0  0  0
 17 16  1  6  0  0  0
 18 24  1  1  0  0  0
 19 14  1  6  0  0  0
 19 21  1  0  0  0  0
 20 27  1  1  0  0  0
 20 18  1  0  0  0  0
 21 18  1  0  0  0  0
 21 23  1  1  0  0  0
 22 25  1  6  0  0  0
 22 17  1  0  0  0  0
 23 15  1  0  0  0  0
 24 22  1  0  0  0  0
 25 26  1  0  0  0  0
 29 32  1  0  0  0  0
 30 28  1  0  0  0  0
 30 35  1  1  0  0  0
 30 34  1  0  0  0  0
 31 27  1  1  0  0  0
 31 36  1  0  0  0  0
 32 37  1  0  0  0  0
 33 28  1  0  0  0  0
 33 29  1  0  0  0  0
 34 31  1  0  0  0  0
 37 36  1  0  0  0  0
 39 40  1  0  0  0  0
 41 40  1  1  0  0  0
 41 43  1  0  0  0  0
 42 43  1  0  0  0  0
 43 38  1  6  0  0  0
 44 39  1  0  0  0  0
 44 45  1  0  0  0  0
 45 42  1  0  0  0  0
 46 49  1  0  0  0  0
 47 41  1  6  0  0  0
 47 48  1  0  0  0  0
 47 50  1  0  0  0  0
 48 51  1  1  0  0  0
 48 50  1  0  0  0  0
 50 46  1  1  0  0  0
 52 49  1  0  0  0  0
 53 52  1  0  0  0  0
 54 48  1  0  0  0  0
 54 53  1  0  0  0  0
M  END
>  <MODEL>
3

>  <REMARK>
 VINA RESULT:      -1.1      1.342      1.698
  Name = 
  7 active torsions:
  status: ('A' for Active; 'I' for Inactive)
    1  A    between atoms: N_9  and  C_16
    2  A    between atoms: N_9  and  C_34
    3  A    between atoms: C_14  and  C_19
    4  A    between atoms: C_18  and  C_32
    5  A    between atoms: C_21  and  C_31
    6  A    between atoms: O_29  and  C_47
    7  A    between atoms: C_31  and  C_36
                            x       y       z     vdW  Elec       q    Type
                         _______ _______ _______ _____ _____    ______ ____

>  <TORSDO>
F 7

$$$$
=
 OpenBabel11072410013D

 54 60  0  0  1  0  0  0  0  0999 V2000
  161.9410  206.7270  149.7040 C   0  0  0  0  0  0  0  0  0  0  0  0
  160.9710  206.4670  154.5560 N   0  0  0  0  0  2  0  0  0  0  0  0
  160.8700  207.7690  153.9070 C   0  0  0  0  0  2  0  0  0  0  0  0
  161.7620  207.1590  148.5750 O   0  0  0  0  0  0  0  0  0  0  0  0
  161.2580  205.2970  152.4640 C   0  0  0  0  0  3  0  0  0  0  0  0
  162.0550  209.2500  152.5940 C   0  0  2  0  0  3  0  0  0  0  0  0
  161.6120  208.7060  151.2140 C   0  0  2  0  0  3  0  0  0  0  0  0
  161.5850  205.2990  150.0530 C   0  0  1  0  0  3  0  0  0  0  0  0
  162.1580  208.2210  153.5660 O   0  0  0  0  0  0  0  0  0  0  0  0
  160.3970  205.4590  153.6700 C   0  0  0  0  0  2  0  0  0  0  0  0
  162.5720  207.6140  150.7440 C   0  0  0  0  0  2  0  0  0  0  0  0
  160.7080  205.2840  151.2590 C   0  0  0  0  0  3  0  0  0  0  0  0
  161.5730  209.7930  150.1530 C   0  0  0  0  0  1  0  0  0  0  0  0
  159.8010  210.4070  152.8910 C   0  0  0  0  0  2  0  0  0  0  0  0
  162.4080  211.8870  156.3610 C   0  0  0  0  0  2  0  0  0  0  0  0
  163.4000  209.8010  157.0750 O   0  0  0  0  0  1  0  0  0  0  0  0
  162.2990  210.6370  157.2610 C   0  0  2  0  0  3  0  0  0  0  0  0
  160.1060  210.9430  155.1830 C   0  0  2  0  0  3  0  0  0  0  0  0
  161.3190  210.5200  153.0990 C   0  0  1  0  0  3  0  0  0  0  0  0
  159.1620  210.2280  154.2550 C   0  0  1  0  0  3  0  0  0  0  0  0
  161.4930  210.6610  154.6060 C   0  0  1  0  0  3  0  0  0  0  0  0
  160.9590  209.8610  157.1390 C   0  0  1  0  0  3  0  0  0  0  0  0
  162.4480  211.6360  154.9640 O   0  0  0  0  0  0  0  0  0  0  0  0
  159.8980  210.6030  156.5560 O   0  0  0  0  0  0  0  0  0  0  0  0
  161.1030  208.6070  156.5320 O   0  0  0  0  0  0  0  0  0  0  0  0
  160.1880  207.7850  157.1870 C   0  0  0  0  0  1  0  0  0  0  0  0
  157.8550  210.8670  154.2710 N   0  0  0  0  0  2  0  0  0  0  0  0
  156.6240  214.4530  156.8000 C   0  0  0  0  0  2  0  0  0  0  0  0
  154.3380  213.3940  157.0040 C   0  0  0  0  0  2  0  0  0  0  0  0
  157.6630  214.4240  155.6850 C   0  0  2  0  0  3  0  0  0  0  0  0
  157.8730  211.8710  155.3220 C   0  0  1  0  0  3  0  0  0  0  0  0
  154.9790  212.0280  157.2470 C   0  0  0  0  0  2  0  0  0  0  0  0
  155.2190  214.3610  156.2200 C   0  0  0  0  0  2  0  0  0  0  0  0
  157.4950  213.2330  154.7300 C   0  0  0  0  0  2  0  0  0  0  0  0
  158.9510  214.4530  156.2230 O   0  0  0  0  0  1  0  0  0  0  0  0
  156.9490  211.4310  156.4580 C   0  0  0  0  0  2  0  0  0  0  0  0
  155.6020  211.5350  156.0930 O   0  0  0  0  0  0  0  0  0  0  0  0
  160.8880  204.5700  148.9100 C   0  0  0  0  0  2  0  0  0  0  0  0
  160.1280  200.4830  148.6090 C   0  0  0  0  0  2  0  0  0  0  0  0
  161.1260  201.0040  147.7760 O   0  0  0  0  0  0  0  0  0  0  0  0
  160.8010  202.3600  147.6210 C   0  0  1  0  0  3  0  0  0  0  0  0
  161.9170  202.5530  149.8360 O   0  0  0  0  0  0  0  0  0  0  0  0
  161.5730  203.2330  148.6430 C   0  0  2  0  0  3  0  0  0  0  0  0
  160.5290  200.6050  150.0740 C   0  0  0  0  0  2  0  0  0  0  0  0
  160.7480  202.0670  150.4520 C   0  0  0  0  0  2  0  0  0  0  0  0
  160.1680  204.5810  144.6140 C   0  0  0  0  0  2  0  0  0  0  0  0
  160.8940  202.7500  146.1320 C   0  0  2  0  0  3  0  0  0  0  0  0
  162.0370  203.6100  145.7570 C   0  0  2  0  0  0  0  0  0  0  0  0
  160.9060  205.8610  144.1680 C   0  0  0  0  0  2  0  0  0  0  0  0
  160.6610  204.1740  145.9220 N   0  0  1  0  0  0  0  0  0  0  0  0
  162.4320  203.3680  144.4300 O   0  0  0  0  0  1  0  0  0  0  0  0
  161.6750  206.5780  145.2990 C   0  0  0  0  0  2  0  0  0  0  0  0
  163.0200  205.9100  145.6460 C   0  0  0  0  0  2  0  0  0  0  0  0
  162.9070  204.6240  146.4870 C   0  0  0  0  0  2  0  0  0  0  0  0
  1  8  1  0  0  0  0
  1 11  1  0  0  0  0
  3  2  1  0  0  0  0
  4  1  2  0  0  0  0
  5 10  1  0  0  0  0
  6 19  1  0  0  0  0
  6  9  1  1  0  0  0
  7 13  1  6  0  0  0
  7  6  1  0  0  0  0
  8 38  1  6  0  0  0
  8 12  1  0  0  0  0
  9  3  1  0  0  0  0
 10  2  1  0  0  0  0
 11  7  1  0  0  0  0
 12  5  2  0  0  0  0
 14 20  1  0  0  0  0
 15 17  1  0  0  0  0
 17 16  1  6  0  0  0
 18 24  1  1  0  0  0
 19 14  1  1  0  0  0
 19 21  1  0  0  0  0
 20 27  1  6  0  0  0
 20 18  1  0  0  0  0
 21 23  1  6  0  0  0
 21 18  1  0  0  0  0
 22 25  1  6  0  0  0
 22 17  1  0  0  0  0
 23 15  1  0  0  0  0
 24 22  1  0  0  0  0
 25 26  1  0  0  0  0
 29 32  1  0  0  0  0
 30 35  1  1  0  0  0
 30 28  1  0  0  0  0
 31 27  1  6  0  0  0
 31 36  1  0  0  0  0
 33 28  1  0  0  0  0
 33 29  1  0  0  0  0
 34 31  1  0  0  0  0
 34 30  1  0  0  0  0
 37 36  1  0  0  0  0
 37 32  1  0  0  0  0
 39 44  1  0  0  0  0
 40 39  1  0  0  0  0
 41 40  1  6  0  0  0
 41 43  1  0  0  0  0
 42 45  1  0  0  0  0
 43 38  1  1  0  0  0
 43 42  1  0  0  0  0
 44 45  1  0  0  0  0
 47 41  1  1  0  0  0
 48 51  1  6  0  0  0
 48 50  1  0  0  0  0
 48 47  1  0  0  0  0
 48 54  1  0  0  0  0
 49 46  1  0  0  0  0
 49 52  1  0  0  0  0
 50 46  1  6  0  0  0
 50 47  1  0  0  0  0
 52 53  1  0  0  0  0
 53 54  1  0  0  0  0
M  END
>  <MODEL>
4

>  <REMARK>
 VINA RESULT:      -0.8      1.246      3.058
  Name = 
  7 active torsions:
  status: ('A' for Active; 'I' for Inactive)
    1  A    between atoms: N_9  and  C_16
    2  A    between atoms: N_9  and  C_34
    3  A    between atoms: C_14  and  C_19
    4  A    between atoms: C_18  and  C_32
    5  A    between atoms: C_21  and  C_31
    6  A    between atoms: O_29  and  C_47
    7  A    between atoms: C_31  and  C_36
                            x       y       z     vdW  Elec       q    Type
                         _______ _______ _______ _____ _____    ______ ____

>  <TORSDO>
F 7

$$$$
