=
 OpenBabel11072414373D

 26 29  0  0  1  0  0  0  0  0999 V2000
  160.9250  205.0220  151.3940 C   0  0  0  0  0  0  0  0  0  0  0  0
  160.6790  205.3400  148.5700 C   0  0  2  0  0  3  0  0  0  0  0  0
  161.4580  207.0790  153.1320 N   0  0  0  0  0  0  0  0  0  0  0  0
  161.2870  204.7280  152.7050 C   0  0  0  0  0  3  0  0  0  0  0  0
  161.0980  207.3860  151.8540 C   0  0  0  0  0  0  0  0  0  0  0  0
  160.8350  206.3550  150.9400 C   0  0  0  0  0  0  0  0  0  0  0  0
  161.6040  206.2010  147.7250 C   0  0  2  0  0  3  0  0  0  0  0  0
  161.5600  205.7920  153.5690 C   0  0  0  0  0  3  0  0  0  0  0  0
  160.4080  206.5890  149.4800 C   0  0  1  0  0  3  0  0  0  0  0  0
  161.4080  207.3900  148.6650 C   0  0  0  0  0  2  0  0  0  0  0  0
  161.2320  202.9830  149.6070 C   0  0  2  0  0  3  0  0  0  0  0  0
  160.5450  204.0120  150.3730 C   0  0  2  0  0  3  0  0  0  0  0  0
  160.9870  208.7510  151.4630 N   0  0  0  0  0  1  0  0  0  0  0  0
  161.5170  204.3910  149.3120 N   0  0  2  0  0  0  0  0  0  0  0  0
  160.4870  205.2200  145.8610 O   0  0  0  0  0  0  0  0  0  0  0  0
  161.9880  205.4670  145.0000 P   0  0  0  0  0  0  0  0  0  0  0  0
  161.6420  205.7130  143.5500 O   0  0  0  0  0  0  0  0  0  0  0  0
  162.9320  204.0910  145.2810 O   0  0  0  0  0  0  0  0  0  0  0  0
  161.0670  206.3550  146.2870 C   0  0  0  0  0  2  0  0  0  0  0  0
  160.3000  202.3800  148.5590 C   0  0  2  0  0  3  0  0  0  0  0  0
  159.4250  201.4920  149.1900 O   0  0  0  0  0  1  0  0  0  0  0  0
  161.0910  201.6470  147.4700 C   0  0  2  0  0  3  0  0  0  0  0  0
  160.2030  201.3150  146.2780 C   0  0  0  0  0  2  0  0  0  0  0  0
  160.5440  202.1160  145.1890 O   0  0  0  0  0  1  0  0  0  0  0  0
  161.6120  200.4550  147.9840 O   0  0  0  0  0  0  0  0  0  0  0  0
  161.6060  199.5670  146.9070 C   0  0  0  0  0  1  0  0  0  0  0  0
  1  4  1  0  0  0  0
  2 14  1  0  0  0  0
  2  9  1  0  0  0  0
  3  8  1  0  0  0  0
  4  8  2  0  0  0  0
  5  3  2  0  0  0  0
  6  1  2  0  0  0  0
  6  5  1  0  0  0  0
  7  2  1  0  0  0  0
  7 10  1  0  0  0  0
  9  6  1  0  0  0  0
 10  9  1  0  0  0  0
 11 12  1  0  0  0  0
 12  1  1  0  0  0  0
 13  5  1  0  0  0  0
 14 11  1  0  0  0  0
 14 12  1  0  0  0  0
 15 19  1  0  0  0  0
 16 18  2  0  0  0  0
 16 15  1  0  0  0  0
 17 16  2  0  0  0  0
 19  7  1  0  0  0  0
 20 21  1  0  0  0  0
 20 11  1  0  0  0  0
 22 25  1  0  0  0  0
 22 20  1  0  0  0  0
 23 22  1  0  0  0  0
 24 23  1  0  0  0  0
 26 25  1  0  0  0  0
M  END
>  <MODEL>
1

>  <REMARK>
 VINA RESULT:      -8.1      0.000      0.000
  Name = 
  5 active torsions:
  status: ('A' for Active; 'I' for Inactive)
    1  A    between atoms: C_3  and  C_18
    2  A    between atoms: C_3  and  C_19
    3  A    between atoms: C_10  and  C_18
    4  A    between atoms: C_12  and  C_23
    5  A    between atoms: O_15  and  C_18
                            x       y       z     vdW  Elec       q    Type
                         _______ _______ _______ _____ _____    ______ ____

>  <TORSDO>
F 5

$$$$
=
 OpenBabel11072414373D

 26 29  0  0  1  0  0  0  0  0999 V2000
  161.1140  208.5250  151.8970 C   0  0  0  0  0  0  0  0  0  0  0  0
  161.5740  205.7400  151.4890 C   0  0  2  0  0  3  0  0  0  0  0  0
  160.4830  209.6390  154.3260 N   0  0  0  0  0  0  0  0  0  0  0  0
  160.6510  209.8360  151.9440 C   0  0  0  0  0  3  0  0  0  0  0  0
  160.9420  208.3560  154.2990 C   0  0  0  0  0  0  0  0  0  0  0  0
  161.2570  207.7560  153.0710 C   0  0  0  0  0  0  0  0  0  0  0  0
  160.7270  204.6360  152.1020 C   0  0  2  0  0  3  0  0  0  0  0  0
  160.3300  210.3790  153.1910 C   0  0  0  0  0  3  0  0  0  0  0  0
  161.7960  206.3210  152.9290 C   0  0  1  0  0  3  0  0  0  0  0  0
  160.8700  205.2560  153.4930 C   0  0  0  0  0  2  0  0  0  0  0  0
  160.9100  207.2950  149.4690 C   0  0  2  0  0  3  0  0  0  0  0  0
  161.5540  207.8260  150.6620 C   0  0  2  0  0  3  0  0  0  0  0  0
  161.1020  207.6410  155.5210 N   0  0  0  0  0  1  0  0  0  0  0  0
  160.6690  206.6330  150.7550 N   0  0  2  0  0  0  0  0  0  0  0  0
  162.2440  203.2740  150.8660 O   0  0  0  0  0  0  0  0  0  0  0  0
  160.8330  202.3480  150.4100 P   0  0  0  0  0  0  0  0  0  0  0  0
  161.2730  200.9140  150.2260 O   0  0  0  0  0  0  0  0  0  0  0  0
  160.2090  203.0830  149.0190 O   0  0  0  0  0  0  0  0  0  0  0  0
  161.3720  203.2510  151.8880 C   0  0  0  0  0  2  0  0  0  0  0  0
  161.9090  206.5090  148.6240 C   0  0  2  0  0  3  0  0  0  0  0  0
  162.8530  207.3940  148.0970 O   0  0  0  0  0  1  0  0  0  0  0  0
  161.2050  205.7610  147.4870 C   0  0  2  0  0  3  0  0  0  0  0  0
  162.2110  205.2220  146.4800 C   0  0  0  0  0  2  0  0  0  0  0  0
  162.6060  203.9340  146.8400 O   0  0  0  0  0  1  0  0  0  0  0  0
  160.3290  206.6250  146.8240 O   0  0  0  0  0  0  0  0  0  0  0  0
  160.3340  206.1910  145.4970 C   0  0  0  0  0  1  0  0  0  0  0  0
  1  4  2  0  0  0  0
  1  6  1  0  0  0  0
  2  7  1  0  0  0  0
  2  9  1  0  0  0  0
  4  8  1  0  0  0  0
  5  3  1  0  0  0  0
  5 13  1  0  0  0  0
  6  5  2  0  0  0  0
  7 10  1  0  0  0  0
  8  3  2  0  0  0  0
  9  6  1  0  0  0  0
  9 10  1  0  0  0  0
 11 12  1  0  0  0  0
 11 14  1  0  0  0  0
 12 14  1  0  0  0  0
 12  1  1  0  0  0  0
 14  2  1  0  0  0  0
 15 19  1  0  0  0  0
 16 15  1  0  0  0  0
 17 16  2  0  0  0  0
 18 16  2  0  0  0  0
 19  7  1  0  0  0  0
 20 11  1  0  0  0  0
 21 20  1  0  0  0  0
 22 20  1  0  0  0  0
 23 24  1  0  0  0  0
 23 22  1  0  0  0  0
 25 22  1  0  0  0  0
 26 25  1  0  0  0  0
M  END
>  <MODEL>
2

>  <REMARK>
 VINA RESULT:      -7.1      2.739      4.902
  Name = 
  5 active torsions:
  status: ('A' for Active; 'I' for Inactive)
    1  A    between atoms: C_3  and  C_18
    2  A    between atoms: C_3  and  C_19
    3  A    between atoms: C_10  and  C_18
    4  A    between atoms: C_12  and  C_23
    5  A    between atoms: O_15  and  C_18
                            x       y       z     vdW  Elec       q    Type
                         _______ _______ _______ _____ _____    ______ ____

>  <TORSDO>
F 5

$$$$
=
 OpenBabel11072414373D

 26 29  0  0  1  0  0  0  0  0999 V2000
  162.1100  208.2280  148.8390 C   0  0  0  0  0  0  0  0  0  0  0  0
  161.7330  205.5480  149.7400 C   0  0  2  0  0  3  0  0  0  0  0  0
  161.9010  210.4370  150.4550 N   0  0  0  0  0  0  0  0  0  0  0  0
  162.0480  209.4910  148.2590 C   0  0  0  0  0  3  0  0  0  0  0  0
  161.9680  209.2080  151.0410 C   0  0  0  0  0  0  0  0  0  0  0  0
  162.0600  208.0610  150.2390 C   0  0  0  0  0  0  0  0  0  0  0  0
  160.6230  205.1130  150.6820 C   0  0  2  0  0  3  0  0  0  0  0  0
  161.9340  210.5990  149.1020 C   0  0  0  0  0  3  0  0  0  0  0  0
  162.1560  206.6280  150.7950 C   0  0  1  0  0  3  0  0  0  0  0  0
  160.9800  206.2260  151.6680 C   0  0  0  0  0  2  0  0  0  0  0  0
  161.4880  206.1470  147.1870 C   0  0  2  0  0  3  0  0  0  0  0  0
  162.2920  206.9590  148.0880 C   0  0  2  0  0  3  0  0  0  0  0  0
  161.9510  209.1040  152.4610 N   0  0  0  0  0  1  0  0  0  0  0  0
  161.1040  206.2240  148.6000 N   0  0  2  0  0  0  0  0  0  0  0  0
  161.9020  203.1040  150.5710 O   0  0  0  0  0  0  0  0  0  0  0  0
  160.4410  202.3640  149.9590 P   0  0  0  0  0  0  0  0  0  0  0  0
  160.4410  200.9220  150.4090 O   0  0  0  0  0  0  0  0  0  0  0  0
  160.4620  202.5840  148.2810 O   0  0  0  0  0  0  0  0  0  0  0  0
  160.8330  203.6620  151.1640 C   0  0  0  0  0  2  0  0  0  0  0  0
  162.1910  204.8270  146.8800 C   0  0  2  0  0  3  0  0  0  0  0  0
  163.5710  205.0120  146.9950 O   0  0  0  0  0  1  0  0  0  0  0  0
  161.8470  204.3300  145.4720 C   0  0  2  0  0  3  0  0  0  0  0  0
  160.7860  205.2100  144.8250 C   0  0  0  0  0  2  0  0  0  0  0  0
  161.3220  205.8760  143.7230 O   0  0  0  0  0  1  0  0  0  0  0  0
  161.3630  203.0210  145.5370 O   0  0  0  0  0  0  0  0  0  0  0  0
  160.1690  203.0440  144.8120 C   0  0  0  0  0  1  0  0  0  0  0  0
  1  6  1  0  0  0  0
  2  7  1  0  0  0  0
  2  9  1  0  0  0  0
  3  5  1  0  0  0  0
  4  1  2  0  0  0  0
  4  8  1  0  0  0  0
  5 13  1  0  0  0  0
  6  9  1  0  0  0  0
  6  5  2  0  0  0  0
  7 19  1  0  0  0  0
  7 10  1  0  0  0  0
  8  3  2  0  0  0  0
  9 10  1  0  0  0  0
 11 12  1  0  0  0  0
 11 14  1  0  0  0  0
 12 14  1  0  0  0  0
 12  1  1  0  0  0  0
 14  2  1  0  0  0  0
 15 19  1  0  0  0  0
 16 17  2  0  0  0  0
 16 15  1  0  0  0  0
 18 16  2  0  0  0  0
 20 21  1  0  0  0  0
 20 11  1  0  0  0  0
 22 25  1  0  0  0  0
 22 20  1  0  0  0  0
 23 22  1  0  0  0  0
 24 23  1  0  0  0  0
 26 25  1  0  0  0  0
M  END
>  <MODEL>
3

>  <REMARK>
 VINA RESULT:      -6.6      2.250      4.429
  Name = 
  5 active torsions:
  status: ('A' for Active; 'I' for Inactive)
    1  A    between atoms: C_3  and  C_18
    2  A    between atoms: C_3  and  C_19
    3  A    between atoms: C_10  and  C_18
    4  A    between atoms: C_12  and  C_23
    5  A    between atoms: O_15  and  C_18
                            x       y       z     vdW  Elec       q    Type
                         _______ _______ _______ _____ _____    ______ ____

>  <TORSDO>
F 5

$$$$
=
 OpenBabel11072414373D

 26 29  0  0  1  0  0  0  0  0999 V2000
  161.4240  205.1700  149.8350 C   0  0  0  0  0  0  0  0  0  0  0  0
  162.1210  207.9220  150.1150 C   0  0  2  0  0  3  0  0  0  0  0  0
  161.3140  203.8500  147.4310 N   0  0  0  0  0  0  0  0  0  0  0  0
  160.8220  203.9170  149.7740 C   0  0  0  0  0  3  0  0  0  0  0  0
  161.9130  205.0730  147.4730 C   0  0  0  0  0  0  0  0  0  0  0  0
  161.9700  205.7770  148.6840 C   0  0  0  0  0  0  0  0  0  0  0  0
  161.6170  209.0270  149.2010 C   0  0  2  0  0  3  0  0  0  0  0  0
  160.7720  203.2680  148.5380 C   0  0  0  0  0  3  0  0  0  0  0  0
  162.6350  207.1560  148.8470 C   0  0  1  0  0  3  0  0  0  0  0  0
  162.0380  208.2360  147.9620 C   0  0  0  0  0  2  0  0  0  0  0  0
  160.7520  206.6900  151.9990 C   0  0  2  0  0  3  0  0  0  0  0  0
  161.6110  205.9600  151.0790 C   0  0  2  0  0  3  0  0  0  0  0  0
  162.4800  205.6190  146.2850 N   0  0  0  0  0  1  0  0  0  0  0  0
  160.9460  207.2190  150.6450 N   0  0  2  0  0  0  0  0  0  0  0  0
  161.5110  211.3070  149.8900 O   0  0  0  0  0  0  0  0  0  0  0  0
  162.0500  211.6830  148.2700 P   0  0  0  0  0  0  0  0  0  0  0  0
  162.8750  212.9460  148.3490 O   0  0  0  0  0  0  0  0  0  0  0  0
  160.6550  211.8050  147.3190 O   0  0  0  0  0  0  0  0  0  0  0  0
  162.3580  210.3540  149.4650 C   0  0  0  0  0  2  0  0  0  0  0  0
  161.5880  207.4630  153.0160 C   0  0  2  0  0  3  0  0  0  0  0  0
  162.1530  206.5590  153.9190 O   0  0  0  0  0  1  0  0  0  0  0  0
  160.7330  208.4880  153.7710 C   0  0  2  0  0  3  0  0  0  0  0  0
  160.8330  209.8640  153.1280 C   0  0  0  0  0  2  0  0  0  0  0  0
  162.1720  210.2150  152.9520 O   0  0  0  0  0  1  0  0  0  0  0  0
  161.1680  208.5820  155.0960 O   0  0  0  0  0  0  0  0  0  0  0  0
  159.9990  208.7260  155.8470 C   0  0  0  0  0  1  0  0  0  0  0  0
  1 12  1  0  0  0  0
  2 14  1  0  0  0  0
  3  5  2  0  0  0  0
  3  8  1  0  0  0  0
  4  1  1  0  0  0  0
  5  6  1  0  0  0  0
  6  9  1  0  0  0  0
  6  1  2  0  0  0  0
  7 19  1  0  0  0  0
  7  2  1  0  0  0  0
  8  4  2  0  0  0  0
  9  2  1  0  0  0  0
 10  9  1  0  0  0  0
 10  7  1  0  0  0  0
 11 20  1  0  0  0  0
 12 11  1  0  0  0  0
 13  5  1  0  0  0  0
 14 12  1  0  0  0  0
 14 11  1  0  0  0  0
 16 17  2  0  0  0  0
 16 15  1  0  0  0  0
 18 16  2  0  0  0  0
 19 15  1  0  0  0  0
 20 22  1  0  0  0  0
 20 21  1  0  0  0  0
 22 25  1  0  0  0  0
 23 22  1  0  0  0  0
 24 23  1  0  0  0  0
 25 26  1  0  0  0  0
M  END
>  <MODEL>
4

>  <REMARK>
 VINA RESULT:      -6.2      4.467      6.852
  Name = 
  5 active torsions:
  status: ('A' for Active; 'I' for Inactive)
    1  A    between atoms: C_3  and  C_18
    2  A    between atoms: C_3  and  C_19
    3  A    between atoms: C_10  and  C_18
    4  A    between atoms: C_12  and  C_23
    5  A    between atoms: O_15  and  C_18
                            x       y       z     vdW  Elec       q    Type
                         _______ _______ _______ _____ _____    ______ ____

>  <TORSDO>
F 5

$$$$
=
 OpenBabel11072414373D

 26 29  0  0  1  0  0  0  0  0999 V2000
  160.9650  203.4270  150.0370 C   0  0  0  0  0  0  0  0  0  0  0  0
  161.7520  206.0010  149.0920 C   0  0  2  0  0  3  0  0  0  0  0  0
  160.2960  201.3270  148.3990 N   0  0  0  0  0  0  0  0  0  0  0  0
  160.3460  202.3080  150.5850 C   0  0  0  0  0  3  0  0  0  0  0  0
  160.9090  202.4120  147.8470 C   0  0  0  0  0  0  0  0  0  0  0  0
  161.2480  203.5050  148.6570 C   0  0  0  0  0  0  0  0  0  0  0  0
  161.0730  206.7330  147.9460 C   0  0  2  0  0  3  0  0  0  0  0  0
  160.0080  201.2550  149.7300 C   0  0  0  0  0  3  0  0  0  0  0  0
  161.9550  204.7720  148.1390 C   0  0  1  0  0  3  0  0  0  0  0  0
  161.1920  205.5010  147.0470 C   0  0  0  0  0  2  0  0  0  0  0  0
  160.8220  205.7010  151.5380 C   0  0  2  0  0  3  0  0  0  0  0  0
  161.4410  204.5990  150.8160 C   0  0  2  0  0  3  0  0  0  0  0  0
  161.2040  202.4180  146.4530 N   0  0  0  0  0  1  0  0  0  0  0  0
  160.7150  205.6670  150.0760 N   0  0  2  0  0  0  0  0  0  0  0  0
  162.9930  208.1110  148.2610 O   0  0  0  0  0  0  0  0  0  0  0  0
  161.8570  209.3660  148.6970 P   0  0  0  0  0  0  0  0  0  0  0  0
  162.4600  210.6870  148.2800 O   0  0  0  0  0  0  0  0  0  0  0  0
  161.5810  209.2040  150.3580 O   0  0  0  0  0  0  0  0  0  0  0  0
  161.8760  207.9810  147.5250 C   0  0  0  0  0  2  0  0  0  0  0  0
  161.8780  206.7070  151.9890 C   0  0  2  0  0  3  0  0  0  0  0  0
  163.1060  206.0530  152.1090 O   0  0  0  0  0  1  0  0  0  0  0  0
  161.4960  207.3470  153.3290 C   0  0  2  0  0  3  0  0  0  0  0  0
  160.8310  206.3340  154.2500 C   0  0  0  0  0  2  0  0  0  0  0  0
  160.4400  206.9510  155.4380 O   0  0  0  0  0  1  0  0  0  0  0  0
  160.6070  208.4040  153.1120 O   0  0  0  0  0  0  0  0  0  0  0  0
  161.2210  209.5140  153.6960 C   0  0  0  0  0  1  0  0  0  0  0  0
  1  4  1  0  0  0  0
  1 12  1  0  0  0  0
  2 14  1  0  0  0  0
  3  8  1  0  0  0  0
  5  3  2  0  0  0  0
  5  6  1  0  0  0  0
  6  1  2  0  0  0  0
  7  2  1  0  0  0  0
  8  4  2  0  0  0  0
  9  6  1  0  0  0  0
  9  2  1  0  0  0  0
 10  7  1  0  0  0  0
 10  9  1  0  0  0  0
 11 20  1  0  0  0  0
 12 11  1  0  0  0  0
 13  5  1  0  0  0  0
 14 12  1  0  0  0  0
 14 11  1  0  0  0  0
 15 16  1  0  0  0  0
 16 18  2  0  0  0  0
 17 16  2  0  0  0  0
 19  7  1  0  0  0  0
 19 15  1  0  0  0  0
 20 21  1  0  0  0  0
 20 22  1  0  0  0  0
 22 23  1  0  0  0  0
 23 24  1  0  0  0  0
 25 22  1  0  0  0  0
 25 26  1  0  0  0  0
M  END
>  <MODEL>
5

>  <REMARK>
 VINA RESULT:      -6.2      3.707      6.243
  Name = 
  5 active torsions:
  status: ('A' for Active; 'I' for Inactive)
    1  A    between atoms: C_3  and  C_18
    2  A    between atoms: C_3  and  C_19
    3  A    between atoms: C_10  and  C_18
    4  A    between atoms: C_12  and  C_23
    5  A    between atoms: O_15  and  C_18
                            x       y       z     vdW  Elec       q    Type
                         _______ _______ _______ _____ _____    ______ ____

>  <TORSDO>
F 5

$$$$
=
 OpenBabel11072414373D

 26 29  0  0  1  0  0  0  0  0999 V2000
  161.2520  205.6690  150.8320 C   0  0  0  0  0  0  0  0  0  0  0  0
  162.0440  208.4050  150.6730 C   0  0  2  0  0  3  0  0  0  0  0  0
  161.0310  204.0040  148.6610 N   0  0  0  0  0  0  0  0  0  0  0  0
  160.6100  204.4440  150.9780 C   0  0  0  0  0  3  0  0  0  0  0  0
  161.6700  205.1970  148.5020 C   0  0  0  0  0  0  0  0  0  0  0  0
  161.7840  206.0740  149.5900 C   0  0  0  0  0  0  0  0  0  0  0  0
  161.5490  209.3760  149.6130 C   0  0  2  0  0  3  0  0  0  0  0  0
  160.5030  203.6160  149.8570 C   0  0  0  0  0  3  0  0  0  0  0  0
  162.4970  207.4370  149.5240 C   0  0  1  0  0  3  0  0  0  0  0  0
  161.9090  208.3920  148.4990 C   0  0  0  0  0  2  0  0  0  0  0  0
  160.6920  207.5230  152.7540 C   0  0  2  0  0  3  0  0  0  0  0  0
  161.5010  206.6320  151.9360 C   0  0  2  0  0  3  0  0  0  0  0  0
  162.2200  205.5360  147.2320 N   0  0  0  0  0  1  0  0  0  0  0  0
  160.8630  207.8330  151.3310 N   0  0  2  0  0  0  0  0  0  0  0  0
  161.5300  211.7420  149.9080 O   0  0  0  0  0  0  0  0  0  0  0  0
  162.0790  211.8200  148.2500 P   0  0  0  0  0  0  0  0  0  0  0  0
  162.9510  213.0470  148.1200 O   0  0  0  0  0  0  0  0  0  0  0  0
  160.6880  211.8320  147.2860 O   0  0  0  0  0  0  0  0  0  0  0  0
  162.3400  210.7000  149.6530 C   0  0  0  0  0  2  0  0  0  0  0  0
  161.5810  208.4120  153.6210 C   0  0  2  0  0  3  0  0  0  0  0  0
  161.5220  207.9600  154.9420 O   0  0  0  0  0  1  0  0  0  0  0  0
  161.1360  209.8760  153.5520 C   0  0  2  0  0  3  0  0  0  0  0  0
  161.3970  210.5910  154.8710 C   0  0  0  0  0  2  0  0  0  0  0  0
  162.7690  210.7530  155.0640 O   0  0  0  0  0  1  0  0  0  0  0  0
  159.7680  209.9430  153.2710 O   0  0  0  0  0  0  0  0  0  0  0  0
  159.5660  211.2330  152.7760 C   0  0  0  0  0  1  0  0  0  0  0  0
  1  4  1  0  0  0  0
  1 12  1  0  0  0  0
  2 14  1  0  0  0  0
  3  8  1  0  0  0  0
  5  3  2  0  0  0  0
  5  6  1  0  0  0  0
  6  1  2  0  0  0  0
  7 19  1  0  0  0  0
  7  2  1  0  0  0  0
  8  4  2  0  0  0  0
  9  6  1  0  0  0  0
  9  2  1  0  0  0  0
 10  9  1  0  0  0  0
 10  7  1  0  0  0  0
 11 20  1  0  0  0  0
 12 11  1  0  0  0  0
 13  5  1  0  0  0  0
 14 12  1  0  0  0  0
 14 11  1  0  0  0  0
 16 15  1  0  0  0  0
 17 16  2  0  0  0  0
 18 16  2  0  0  0  0
 19 15  1  0  0  0  0
 20 21  1  0  0  0  0
 22 20  1  0  0  0  0
 22 23  1  0  0  0  0
 23 24  1  0  0  0  0
 25 22  1  0  0  0  0
 26 25  1  0  0  0  0
M  END
>  <MODEL>
6

>  <REMARK>
 VINA RESULT:      -6.2      4.789      7.248
  Name = 
  5 active torsions:
  status: ('A' for Active; 'I' for Inactive)
    1  A    between atoms: C_3  and  C_18
    2  A    between atoms: C_3  and  C_19
    3  A    between atoms: C_10  and  C_18
    4  A    between atoms: C_12  and  C_23
    5  A    between atoms: O_15  and  C_18
                            x       y       z     vdW  Elec       q    Type
                         _______ _______ _______ _____ _____    ______ ____

>  <TORSDO>
F 5

$$$$
=
 OpenBabel11072414373D

 26 29  0  0  1  0  0  0  0  0999 V2000
  161.3270  207.0500  150.6180 C   0  0  0  0  0  0  0  0  0  0  0  0
  161.4020  204.3130  149.8210 C   0  0  2  0  0  3  0  0  0  0  0  0
  160.9110  207.8880  153.1990 N   0  0  0  0  0  0  0  0  0  0  0  0
  161.0440  208.3910  150.8610 C   0  0  0  0  0  3  0  0  0  0  0  0
  161.1940  206.5730  152.9810 C   0  0  0  0  0  0  0  0  0  0  0  0
  161.3950  206.1140  151.6720 C   0  0  0  0  0  0  0  0  0  0  0  0
  160.4310  203.2530  150.3160 C   0  0  2  0  0  3  0  0  0  0  0  0
  160.8290  208.7920  152.1820 C   0  0  0  0  0  3  0  0  0  0  0  0
  161.7340  204.6550  151.3150 C   0  0  1  0  0  3  0  0  0  0  0  0
  160.6900  203.6510  151.7700 C   0  0  0  0  0  2  0  0  0  0  0  0
  160.9020  206.2050  148.0590 C   0  0  2  0  0  3  0  0  0  0  0  0
  161.6390  206.4780  149.2840 C   0  0  2  0  0  3  0  0  0  0  0  0
  161.2870  205.6820  154.0890 N   0  0  0  0  0  1  0  0  0  0  0  0
  160.6060  205.4080  149.2530 N   0  0  2  0  0  0  0  0  0  0  0  0
  162.0690  201.8750  149.2640 O   0  0  0  0  0  0  0  0  0  0  0  0
  160.8110  201.4900  148.1120 P   0  0  0  0  0  0  0  0  0  0  0  0
  161.0550  200.0780  147.6330 O   0  0  0  0  0  0  0  0  0  0  0  0
  160.8910  202.6720  146.9050 O   0  0  0  0  0  0  0  0  0  0  0  0
  160.8800  201.8390  149.8910 C   0  0  0  0  0  2  0  0  0  0  0  0
  161.7660  205.4220  147.0740 C   0  0  2  0  0  3  0  0  0  0  0  0
  163.1070  205.5520  147.4450 O   0  0  0  0  0  1  0  0  0  0  0  0
  161.5700  205.9280  145.6410 C   0  0  2  0  0  3  0  0  0  0  0  0
  160.1210  206.3260  145.3940 C   0  0  0  0  0  2  0  0  0  0  0  0
  159.3580  205.1960  145.1030 O   0  0  0  0  0  1  0  0  0  0  0  0
  161.9190  204.9250  144.7320 O   0  0  0  0  0  0  0  0  0  0  0  0
  161.7780  205.5150  143.4750 C   0  0  0  0  0  1  0  0  0  0  0  0
  1  4  2  0  0  0  0
  1  6  1  0  0  0  0
  2  7  1  0  0  0  0
  2  9  1  0  0  0  0
  4  8  1  0  0  0  0
  5  3  1  0  0  0  0
  5 13  1  0  0  0  0
  6  5  2  0  0  0  0
  7 10  1  0  0  0  0
  8  3  2  0  0  0  0
  9  6  1  0  0  0  0
  9 10  1  0  0  0  0
 11 14  1  0  0  0  0
 11 12  1  0  0  0  0
 12  1  1  0  0  0  0
 14 12  1  0  0  0  0
 14  2  1  0  0  0  0
 15 19  1  0  0  0  0
 16 15  1  0  0  0  0
 17 16  2  0  0  0  0
 18 16  2  0  0  0  0
 19  7  1  0  0  0  0
 20 21  1  0  0  0  0
 20 11  1  0  0  0  0
 22 20  1  0  0  0  0
 23 22  1  0  0  0  0
 24 23  1  0  0  0  0
 25 22  1  0  0  0  0
 26 25  1  0  0  0  0
M  END
>  <MODEL>
7

>  <REMARK>
 VINA RESULT:      -5.8      1.970      4.188
  Name = 
  5 active torsions:
  status: ('A' for Active; 'I' for Inactive)
    1  A    between atoms: C_3  and  C_18
    2  A    between atoms: C_3  and  C_19
    3  A    between atoms: C_10  and  C_18
    4  A    between atoms: C_12  and  C_23
    5  A    between atoms: O_15  and  C_18
                            x       y       z     vdW  Elec       q    Type
                         _______ _______ _______ _____ _____    ______ ____

>  <TORSDO>
F 5

$$$$
=
 OpenBabel11072414373D

 26 29  0  0  1  0  0  0  0  0999 V2000
  161.2520  204.6690  151.0010 C   0  0  0  0  0  0  0  0  0  0  0  0
  161.5040  205.8830  148.4310 C   0  0  2  0  0  3  0  0  0  0  0  0
  160.7160  202.0060  151.3960 N   0  0  0  0  0  0  0  0  0  0  0  0
  160.8880  204.2310  152.2700 C   0  0  0  0  0  3  0  0  0  0  0  0
  161.0780  202.4170  150.1480 C   0  0  0  0  0  0  0  0  0  0  0  0
  161.3430  203.7740  149.9140 C   0  0  0  0  0  0  0  0  0  0  0  0
  160.5800  205.5970  147.2580 C   0  0  2  0  0  3  0  0  0  0  0  0
  160.6130  202.8720  152.4450 C   0  0  0  0  0  3  0  0  0  0  0  0
  161.7730  204.3420  148.5490 C   0  0  1  0  0  3  0  0  0  0  0  0
  160.7740  204.0900  147.4330 C   0  0  0  0  0  2  0  0  0  0  0  0
  160.9500  207.3440  150.5520 C   0  0  2  0  0  3  0  0  0  0  0  0
  161.6350  206.0650  150.6640 C   0  0  2  0  0  3  0  0  0  0  0  0
  161.1890  201.4610  149.0980 N   0  0  0  0  0  1  0  0  0  0  0  0
  160.6650  206.3020  149.5610 N   0  0  2  0  0  0  0  0  0  0  0  0
  160.1220  206.4900  145.0960 O   0  0  0  0  0  0  0  0  0  0  0  0
  161.0720  205.1540  144.4890 P   0  0  0  0  0  0  0  0  0  0  0  0
  161.7490  205.6200  143.2210 O   0  0  0  0  0  0  0  0  0  0  0  0
  160.0010  203.8590  144.2860 O   0  0  0  0  0  0  0  0  0  0  0  0
  161.1200  206.2210  145.9550 C   0  0  0  0  0  2  0  0  0  0  0  0
  161.8840  208.4060  149.9790 C   0  0  2  0  0  3  0  0  0  0  0  0
  163.1080  207.8110  149.6650 O   0  0  0  0  0  1  0  0  0  0  0  0
  162.1020  209.5490  150.9780 C   0  0  2  0  0  3  0  0  0  0  0  0
  161.4200  209.2520  152.3070 C   0  0  0  0  0  2  0  0  0  0  0  0
  160.3980  210.1730  152.5360 O   0  0  0  0  0  1  0  0  0  0  0  0
  161.5760  210.7360  150.4610 O   0  0  0  0  0  0  0  0  0  0  0  0
  162.1320  210.8490  149.1850 C   0  0  0  0  0  1  0  0  0  0  0  0
  1  4  1  0  0  0  0
  2  9  1  0  0  0  0
  2 14  1  0  0  0  0
  3  8  1  0  0  0  0
  4  8  2  0  0  0  0
  5  3  2  0  0  0  0
  6  5  1  0  0  0  0
  6  1  2  0  0  0  0
  7 10  1  0  0  0  0
  7  2  1  0  0  0  0
  9  6  1  0  0  0  0
 10  9  1  0  0  0  0
 11 12  1  0  0  0  0
 12  1  1  0  0  0  0
 13  5  1  0  0  0  0
 14 11  1  0  0  0  0
 14 12  1  0  0  0  0
 15 19  1  0  0  0  0
 16 15  1  0  0  0  0
 17 16  2  0  0  0  0
 18 16  2  0  0  0  0
 19  7  1  0  0  0  0
 20 11  1  0  0  0  0
 20 22  1  0  0  0  0
 21 20  1  0  0  0  0
 22 23  1  0  0  0  0
 23 24  1  0  0  0  0
 25 22  1  0  0  0  0
 26 25  1  0  0  0  0
M  END
>  <MODEL>
8

>  <REMARK>
 VINA RESULT:      -5.7      2.930      5.672
  Name = 
  5 active torsions:
  status: ('A' for Active; 'I' for Inactive)
    1  A    between atoms: C_3  and  C_18
    2  A    between atoms: C_3  and  C_19
    3  A    between atoms: C_10  and  C_18
    4  A    between atoms: C_12  and  C_23
    5  A    between atoms: O_15  and  C_18
                            x       y       z     vdW  Elec       q    Type
                         _______ _______ _______ _____ _____    ______ ____

>  <TORSDO>
F 5

$$$$
=
 OpenBabel11072414373D

 26 29  0  0  1  0  0  0  0  0999 V2000
  161.0500  206.4780  152.5350 C   0  0  0  0  0  0  0  0  0  0  0  0
  161.2040  206.5370  149.6870 C   0  0  2  0  0  3  0  0  0  0  0  0
  161.4210  208.6750  154.1390 N   0  0  0  0  0  0  0  0  0  0  0  0
  161.2170  206.2990  153.9040 C   0  0  0  0  0  3  0  0  0  0  0  0
  161.2510  208.8690  152.8010 C   0  0  0  0  0  0  0  0  0  0  0  0
  161.0750  207.7650  151.9560 C   0  0  0  0  0  0  0  0  0  0  0  0
  162.2690  207.2890  148.9050 C   0  0  2  0  0  3  0  0  0  0  0  0
  161.4120  207.4320  154.6990 C   0  0  0  0  0  3  0  0  0  0  0  0
  160.8600  207.8720  150.4340 C   0  0  1  0  0  3  0  0  0  0  0  0
  161.9930  208.5670  149.6990 C   0  0  0  0  0  2  0  0  0  0  0  0
  161.5180  204.2730  150.9970 C   0  0  2  0  0  3  0  0  0  0  0  0
  160.7730  205.3870  151.5650 C   0  0  2  0  0  3  0  0  0  0  0  0
  161.2480  210.1950  152.2790 N   0  0  0  0  0  1  0  0  0  0  0  0
  161.8950  205.6390  150.6210 N   0  0  2  0  0  0  0  0  0  0  0  0
  160.8820  206.5420  147.1160 O   0  0  0  0  0  0  0  0  0  0  0  0
  162.3340  205.8130  146.4710 P   0  0  0  0  0  0  0  0  0  0  0  0
  162.2170  205.8280  144.9640 O   0  0  0  0  0  0  0  0  0  0  0  0
  162.4410  204.2710  147.1590 O   0  0  0  0  0  0  0  0  0  0  0  0
  161.9390  207.3220  147.3990 C   0  0  0  0  0  2  0  0  0  0  0  0
  160.7140  203.5990  149.8880 C   0  0  2  0  0  3  0  0  0  0  0  0
  159.3880  203.4620  150.3080 O   0  0  0  0  0  1  0  0  0  0  0  0
  161.2950  202.2250  149.5400 C   0  0  2  0  0  3  0  0  0  0  0  0
  160.3710  201.4610  148.6010 C   0  0  0  0  0  2  0  0  0  0  0  0
  160.8600  201.5180  147.2960 O   0  0  0  0  0  1  0  0  0  0  0  0
  161.4660  201.4730  150.7060 O   0  0  0  0  0  0  0  0  0  0  0  0
  160.5830  200.4000  150.5740 C   0  0  0  0  0  1  0  0  0  0  0  0
  1  4  1  0  0  0  0
  2  9  1  0  0  0  0
  2 14  1  0  0  0  0
  3  8  1  0  0  0  0
  4  8  2  0  0  0  0
  5  3  2  0  0  0  0
  6  1  2  0  0  0  0
  6  5  1  0  0  0  0
  7  2  1  0  0  0  0
  7 10  1  0  0  0  0
  9  6  1  0  0  0  0
 10  9  1  0  0  0  0
 11 12  1  0  0  0  0
 12  1  1  0  0  0  0
 13  5  1  0  0  0  0
 14 11  1  0  0  0  0
 14 12  1  0  0  0  0
 15 19  1  0  0  0  0
 16 15  1  0  0  0  0
 16 18  2  0  0  0  0
 17 16  2  0  0  0  0
 19  7  1  0  0  0  0
 20 21  1  0  0  0  0
 20 11  1  0  0  0  0
 22 20  1  0  0  0  0
 22 25  1  0  0  0  0
 23 22  1  0  0  0  0
 24 23  1  0  0  0  0
 26 25  1  0  0  0  0
M  END
>  <MODEL>
9

>  <REMARK>
 VINA RESULT:      -5.5      1.569      2.039
  Name = 
  5 active torsions:
  status: ('A' for Active; 'I' for Inactive)
    1  A    between atoms: C_3  and  C_18
    2  A    between atoms: C_3  and  C_19
    3  A    between atoms: C_10  and  C_18
    4  A    between atoms: C_12  and  C_23
    5  A    between atoms: O_15  and  C_18
                            x       y       z     vdW  Elec       q    Type
                         _______ _______ _______ _____ _____    ______ ____

>  <TORSDO>
F 5

$$$$
