=
 OpenBabel11072412423D

 66 70  0  0  1  0  0  0  0  0999 V2000
  160.8590  206.9420  149.9150 C   0  0  0  0  0  0  0  0  0  0  0  0
  161.3600  206.7350  151.2120 C   0  0  0  0  0  0  0  0  0  0  0  0
  161.4720  205.4360  151.7190 C   0  0  0  0  0  3  0  0  0  0  0  0
  160.4580  205.8390  149.1450 C   0  0  0  0  0  3  0  0  0  0  0  0
  161.0700  204.3430  150.9470 C   0  0  0  0  0  3  0  0  0  0  0  0
  160.5620  204.5430  149.6590 C   0  0  0  0  0  0  0  0  0  0  0  0
  160.7670  208.2450  149.4150 O   0  0  0  0  0  0  0  0  0  0  0  0
  161.6170  208.7560  148.3930 C   0  0  2  0  0  3  0  0  0  0  0  0
  163.6560  207.3530  148.7130 O   0  0  0  0  0  1  0  0  0  0  0  0
  162.5570  207.6840  147.9330 C   0  0  0  0  0  0  0  0  0  0  0  0
  162.3560  207.0760  146.8490 O   0  0  0  0  0  0  0  0  0  0  0  0
  162.3810  209.9490  148.9430 C   0  0  0  0  0  2  0  0  0  0  0  0
  162.6090  211.0110  147.8690 C   0  0  0  0  0  2  0  0  0  0  0  0
  161.7040  213.0900  146.7620 C   0  0  0  0  0  0  0  0  0  0  0  0
  161.3500  214.4440  148.9680 S   0  0  0  0  0  0  0  0  0  0  0  0
  160.7540  212.0870  150.0090 O   0  0  0  0  0  0  0  0  0  0  0  0
  161.1410  212.6750  149.0110 C   0  0  0  0  0  0  0  0  0  0  0  0
  161.4270  211.9770  147.7280 C   0  0  2  0  0  3  0  0  0  0  0  0
  161.6970  214.2920  147.2410 N   0  0  0  0  0  0  0  0  0  0  0  0
  162.0060  212.8530  145.3430 C   0  0  0  0  0  0  0  0  0  0  0  0
  163.2010  212.8690  144.9380 O   0  0  0  0  0  0  0  0  0  0  0  0
  160.9560  212.6370  144.4460 O   0  0  0  0  0  0  0  0  0  0  0  0
  160.1800  213.6990  143.8980 C   0  0  2  0  0  3  0  0  0  0  0  0
  158.9480  213.9560  144.7490 C   0  0  0  0  0  1  0  0  0  0  0  0
  158.0580  213.3180  140.7840 C   0  0  0  0  0  3  0  0  0  0  0  0
  158.4640  213.6370  142.0840 C   0  0  0  0  0  3  0  0  0  0  0  0
  160.6790  212.7820  141.6010 C   0  0  0  0  0  3  0  0  0  0  0  0
  160.2740  212.4650  140.3010 C   0  0  0  0  0  3  0  0  0  0  0  0
  158.9640  212.7350  139.8930 C   0  0  0  0  0  3  0  0  0  0  0  0
  159.7770  213.3790  142.4950 C   0  0  0  0  0  0  0  0  0  0  0  0
  160.1050  203.3830  148.8400 C   0  0  0  0  0  2  0  0  0  0  0  0
  161.9710  203.0790  146.9830 C   0  0  2  0  0  3  0  0  0  0  0  0
  161.5140  201.3140  148.6030 O   0  0  0  0  0  1  0  0  0  0  0  0
  161.2890  202.6370  148.2240 C   0  0  2  0  0  0  0  0  0  0  0  0
  162.4740  203.3920  148.2670 O   0  0  0  0  0  0  0  0  0  0  0  0
  161.3370  204.3190  146.3650 C   0  0  0  0  0  2  0  0  0  0  0  0
  161.1140  204.8730  143.9470 O   0  0  0  0  0  0  0  0  0  0  0  0
  160.8320  204.0100  145.0000 C   0  0  0  0  0  0  0  0  0  0  0  0
  160.1690  202.9600  144.7950 O   0  0  0  0  0  1  0  0  0  0  0  0
  161.8320  207.8860  152.0340 C   0  0  0  0  0  2  0  0  0  0  0  0
  160.9540  208.0360  153.2630 C   0  0  0  0  0  2  0  0  0  0  0  0
  160.8960  209.4940  153.7190 C   0  0  2  0  0  3  0  0  0  0  0  0
  162.7380  210.6090  153.2600 O   0  0  0  0  0  1  0  0  0  0  0  0
  162.1260  209.9560  154.2320 O   0  0  0  0  0  0  0  0  0  0  0  0
  159.6860  209.8210  154.6160 C   0  0  1  0  0  3  0  0  0  0  0  0
  160.0450  207.0050  157.2580 C   0  0  0  0  0  1  0  0  0  0  0  0
  160.0100  207.6900  155.9390 C   0  0  0  0  0  0  0  0  0  0  0  0
  160.2320  207.0330  154.8890 O   0  0  0  0  0  0  0  0  0  0  0  0
  159.7030  209.0820  155.8750 N   0  0  0  0  0  2  0  0  0  0  0  0
  159.4930  211.3300  154.8390 C   0  0  1  0  0  3  0  0  0  0  0  0
  157.0420  213.6920  153.5650 C   0  0  0  0  0  3  0  0  0  0  0  0
  157.8480  212.5010  153.1570 C   0  0  2  0  0  3  0  0  0  0  0  0
  157.4620  212.6630  155.4760 N   0  0  0  0  0  0  0  0  0  0  0  0
  156.8630  213.7480  154.8370 N   0  0  0  0  0  0  0  0  0  0  0  0
  158.0410  211.7450  154.5010 C   0  0  2  0  0  3  0  0  0  0  0  0
  159.0530  213.8680  151.4270 O   0  0  0  0  0  0  0  0  0  0  0  0
  160.2190  212.5550  152.8940 O   0  0  0  0  0  1  0  0  0  0  0  0
  159.1050  212.9710  152.4880 C   0  0  0  0  0  0  0  0  0  0  0  0
  157.0550  210.8970  156.9670 O   0  0  0  0  0  1  0  0  0  0  0  0
  157.1050  212.2860  156.8410 C   0  0  2  0  0  3  0  0  0  0  0  0
  155.7780  212.9160  157.2550 C   0  0  0  0  0  2  0  0  0  0  0  0
  154.6260  211.9210  157.1950 C   0  0  0  0  0  2  0  0  0  0  0  0
  154.7210  211.0830  155.9340 C   0  0  0  0  0  2  0  0  0  0  0  0
  154.1490  209.7000  156.1750 C   0  0  0  0  0  1  0  0  0  0  0  0
  160.8380  212.8970  156.2230 C   0  0  0  0  0  1  0  0  0  0  0  0
  159.8820  211.7220  156.2610 C   0  0  0  0  0  2  0  0  0  0  0  0
  1  2  1  0  0  0  0
  2  3  2  0  0  0  0
  2 40  1  0  0  0  0
  4  6  1  0  0  0  0
  4  1  2  0  0  0  0
  5  3  1  0  0  0  0
  6  5  2  0  0  0  0
  7  1  1  0  0  0  0
  8 12  1  1  0  0  0
  8  7  1  0  0  0  0
 10  8  1  0  0  0  0
 10  9  1  0  0  0  0
 11 10  2  0  0  0  0
 13 12  1  0  0  0  0
 14 19  2  0  0  0  0
 14 18  1  0  0  0  0
 15 17  1  0  0  0  0
 17 16  2  0  0  0  0
 18 13  1  1  0  0  0
 18 17  1  0  0  0  0
 19 15  1  0  0  0  0
 20 14  1  0  0  0  0
 21 20  2  0  0  0  0
 22 20  1  0  0  0  0
 23 22  1  0  0  0  0
 23 24  1  1  0  0  0
 25 26  1  0  0  0  0
 26 30  2  0  0  0  0
 27 30  1  0  0  0  0
 28 27  2  0  0  0  0
 29 28  1  0  0  0  0
 29 25  2  0  0  0  0
 30 23  1  0  0  0  0
 31  6  1  0  0  0  0
 32 36  1  1  0  0  0
 32 34  1  0  0  0  0
 32 35  1  0  0  0  0
 34 35  1  0  0  0  0
 34 33  1  1  0  0  0
 34 31  1  0  0  0  0
 37 38  2  0  0  0  0
 38 36  1  0  0  0  0
 39 38  1  0  0  0  0
 40 41  1  0  0  0  0
 42 41  1  1  0  0  0
 42 44  1  0  0  0  0
 42 45  1  0  0  0  0
 43 44  1  0  0  0  0
 45 50  1  0  0  0  0
 45 49  1  1  0  0  0
 47 46  1  0  0  0  0
 48 47  2  0  0  0  0
 49 47  1  0  0  0  0
 50 66  1  1  0  0  0
 51 54  2  0  0  0  0
 52 58  1  1  0  0  0
 52 51  1  0  0  0  0
 52 55  1  0  0  0  0
 53 60  1  0  0  0  0
 54 53  1  0  0  0  0
 55 50  1  1  0  0  0
 55 53  1  0  0  0  0
 56 58  2  0  0  0  0
 58 57  1  0  0  0  0
 60 59  1  6  0  0  0
 60 61  1  0  0  0  0
 62 61  1  0  0  0  0
 63 64  1  0  0  0  0
 63 62  1  0  0  0  0
 65 66  1  0  0  0  0
M  END
>  <MODEL>
1

>  <REMARK>
 VINA RESULT:      -3.7      0.000      0.000
  Name = 
  28 active torsions:
  status: ('A' for Active; 'I' for Inactive)
    1  A    between atoms: C_1  and  C_55
    2  A    between atoms: C_3  and  C_14
    3  A    between atoms: C_3  and  C_24
    4  A    between atoms: O_4  and  C_10
    5  A    between atoms: O_4  and  C_63
    6  A    between atoms: C_7  and  C_53
    7  A    between atoms: C_7  and  C_66
    8  A    between atoms: C_8  and  C_62
    9  A    between atoms: C_11  and  C_61
   10  A    between atoms: C_12  and  C_28
   11  A    between atoms: C_12  and  C_52
   12  A    between atoms: C_13  and  N_23
   13  A    between atoms: C_13  and  C_57
   14  A    between atoms: C_14  and  C_27
   15  A    between atoms: C_14  and  O_37
   16  A    between atoms: C_15  and  O_41
   17  A    between atoms: C_15  and  C_48
   18  A    between atoms: C_16  and  C_58
   19  A    between atoms: C_16  and  C_63
   20  A    between atoms: C_20  and  C_35
   21  A    between atoms: C_20  and  C_57
   22  A    between atoms: C_24  and  C_26
   23  A    between atoms: C_27  and  N_46
   24  A    between atoms: C_27  and  C_62
   25  A    between atoms: C_38  and  C_62
   26  A    between atoms: O_41  and  C_55
   27  A    between atoms: C_45  and  C_58
   28  A    between atoms: C_60  and  C_63
                            x       y       z     vdW  Elec       q    Type
                         _______ _______ _______ _____ _____    ______ ____

>  <TORSDO>
F 28

$$$$
=
 OpenBabel11072412423D

 66 70  0  0  1  0  0  0  0  0999 V2000
  161.6080  210.7690  150.7550 C   0  0  0  0  0  0  0  0  0  0  0  0
  161.3640  209.4050  150.5160 C   0  0  0  0  0  0  0  0  0  0  0  0
  160.9490  208.5750  151.5620 C   0  0  0  0  0  3  0  0  0  0  0  0
  161.4470  211.2820  152.0520 C   0  0  0  0  0  3  0  0  0  0  0  0
  160.7930  209.0920  152.8500 C   0  0  0  0  0  3  0  0  0  0  0  0
  161.0430  210.4470  153.0970 C   0  0  0  0  0  0  0  0  0  0  0  0
  162.0070  211.5920  149.6960 O   0  0  0  0  0  0  0  0  0  0  0  0
  161.2490  212.7070  149.2390 C   0  0  2  0  0  3  0  0  0  0  0  0
  160.4820  214.1260  151.1430 O   0  0  0  0  0  1  0  0  0  0  0  0
  160.2270  213.0800  150.2670 C   0  0  0  0  0  0  0  0  0  0  0  0
  159.1330  212.4590  150.3410 O   0  0  0  0  0  0  0  0  0  0  0  0
  160.5850  212.3390  147.9220 C   0  0  0  0  0  2  0  0  0  0  0  0
  159.9300  213.5540  147.2680 C   0  0  0  0  0  2  0  0  0  0  0  0
  160.4590  213.3960  144.8050 C   0  0  0  0  0  0  0  0  0  0  0  0
  162.9970  212.8530  145.1040 S   0  0  0  0  0  0  0  0  0  0  0  0
  162.8240  214.4510  147.2040 O   0  0  0  0  0  0  0  0  0  0  0  0
  162.2050  213.9060  146.3020 C   0  0  0  0  0  0  0  0  0  0  0  0
  160.7450  214.1090  146.0930 C   0  0  2  0  0  3  0  0  0  0  0  0
  161.4480  212.7680  144.2560 N   0  0  0  0  0  0  0  0  0  0  0  0
  159.1230  213.3680  144.1930 C   0  0  0  0  0  0  0  0  0  0  0  0
  158.1160  213.7480  144.8520 O   0  0  0  0  0  0  0  0  0  0  0  0
  158.9780  212.8920  142.8880 O   0  0  0  0  0  0  0  0  0  0  0  0
  159.0730  213.7360  141.7440 C   0  0  2  0  0  3  0  0  0  0  0  0
  157.7560  214.4530  141.4970 C   0  0  0  0  0  1  0  0  0  0  0  0
  160.8430  211.2210  139.5320 C   0  0  0  0  0  3  0  0  0  0  0  0
  160.4490  211.9580  140.6550 C   0  0  0  0  0  3  0  0  0  0  0  0
  158.8740  213.1920  139.2880 C   0  0  0  0  0  3  0  0  0  0  0  0
  159.2670  212.4550  138.1680 C   0  0  0  0  0  3  0  0  0  0  0  0
  160.2500  211.4680  138.2910 C   0  0  0  0  0  3  0  0  0  0  0  0
  159.4570  212.9400  140.5390 C   0  0  0  0  0  0  0  0  0  0  0  0
  160.9050  211.0000  154.4760 C   0  0  0  0  0  2  0  0  0  0  0  0
  161.5600  209.2800  156.3840 C   0  0  2  0  0  3  0  0  0  0  0  0
  163.1000  211.0440  155.7010 O   0  0  0  0  0  1  0  0  0  0  0  0
  161.9140  210.3630  155.4320 C   0  0  2  0  0  0  0  0  0  0  0  0
  162.1550  209.0110  155.1290 O   0  0  0  0  0  0  0  0  0  0  0  0
  160.0830  208.9090  156.3400 C   0  0  0  0  0  2  0  0  0  0  0  0
  159.3430  206.8270  155.1900 O   0  0  0  0  0  0  0  0  0  0  0  0
  159.9270  207.4300  156.2980 C   0  0  0  0  0  0  0  0  0  0  0  0
  160.3420  206.7240  157.2540 O   0  0  0  0  0  1  0  0  0  0  0  0
  161.4860  208.8450  149.1380 C   0  0  0  0  0  2  0  0  0  0  0  0
  161.6610  207.3390  149.2090 C   0  0  0  0  0  2  0  0  0  0  0  0
  162.3240  206.8060  147.9400 C   0  0  2  0  0  3  0  0  0  0  0  0
  161.4810  208.3480  146.6130 O   0  0  0  0  0  1  0  0  0  0  0  0
  162.6270  207.8240  147.0110 O   0  0  0  0  0  0  0  0  0  0  0  0
  161.6020  205.5940  147.3190 C   0  0  1  0  0  3  0  0  0  0  0  0
  161.0420  205.5020  143.4830 C   0  0  0  0  0  1  0  0  0  0  0  0
  160.7500  205.5840  144.9380 C   0  0  0  0  0  0  0  0  0  0  0  0
  159.5610  205.7190  145.3290 O   0  0  0  0  0  0  0  0  0  0  0  0
  161.8180  205.4860  145.8790 N   0  0  0  0  0  2  0  0  0  0  0  0
  161.9100  204.2740  148.0450 C   0  0  1  0  0  3  0  0  0  0  0  0
  159.8430  201.9080  149.8740 C   0  0  0  0  0  3  0  0  0  0  0  0
  160.0530  203.3750  149.6740 C   0  0  2  0  0  3  0  0  0  0  0  0
  160.7810  202.0360  147.8770 N   0  0  0  0  0  0  0  0  0  0  0  0
  160.2630  201.2140  148.8760 N   0  0  0  0  0  0  0  0  0  0  0  0
  160.6170  203.4420  148.2270 C   0  0  2  0  0  3  0  0  0  0  0  0
  160.4860  204.7500  151.7320 O   0  0  0  0  0  1  0  0  0  0  0  0
  162.1650  203.5270  150.7730 O   0  0  0  0  0  0  0  0  0  0  0  0
  160.9620  203.8870  150.7520 C   0  0  0  0  0  0  0  0  0  0  0  0
  159.9160  201.9440  145.6960 O   0  0  0  0  0  1  0  0  0  0  0  0
  160.9790  201.5520  146.5130 C   0  0  2  0  0  3  0  0  0  0  0  0
  161.1490  200.0360  146.4880 C   0  0  0  0  0  2  0  0  0  0  0  0
  160.5400  199.4080  145.2410 C   0  0  0  0  0  2  0  0  0  0  0  0
  161.3250  198.1730  144.8380 C   0  0  0  0  0  2  0  0  0  0  0  0
  162.5200  197.9880  145.7530 C   0  0  0  0  0  1  0  0  0  0  0  0
  163.7280  204.4080  146.3550 C   0  0  0  0  0  1  0  0  0  0  0  0
  162.9930  203.4900  147.3110 C   0  0  0  0  0  2  0  0  0  0  0  0
  1  4  1  0  0  0  0
  2  1  2  0  0  0  0
  2  3  1  0  0  0  0
  3  5  2  0  0  0  0
  4  6  2  0  0  0  0
  5  6  1  0  0  0  0
  6 31  1  0  0  0  0
  7  1  1  0  0  0  0
  8 12  1  6  0  0  0
  8  7  1  0  0  0  0
  8 10  1  0  0  0  0
 10 11  2  0  0  0  0
 10  9  1  0  0  0  0
 13 12  1  0  0  0  0
 14 18  1  0  0  0  0
 15 17  1  0  0  0  0
 17 16  2  0  0  0  0
 18 17  1  0  0  0  0
 18 13  1  1  0  0  0
 19 14  2  0  0  0  0
 19 15  1  0  0  0  0
 20 14  1  0  0  0  0
 20 21  2  0  0  0  0
 22 20  1  0  0  0  0
 23 24  1  6  0  0  0
 23 22  1  0  0  0  0
 25 26  1  0  0  0  0
 27 30  1  0  0  0  0
 28 29  1  0  0  0  0
 28 27  2  0  0  0  0
 29 25  2  0  0  0  0
 30 26  2  0  0  0  0
 30 23  1  0  0  0  0
 31 34  1  0  0  0  0
 32 36  1  6  0  0  0
 34 33  1  1  0  0  0
 34 32  1  0  0  0  0
 35 34  1  0  0  0  0
 35 32  1  0  0  0  0
 37 38  2  0  0  0  0
 38 36  1  0  0  0  0
 38 39  1  0  0  0  0
 40 41  1  0  0  0  0
 40  2  1  0  0  0  0
 42 41  1  1  0  0  0
 43 44  1  0  0  0  0
 44 42  1  0  0  0  0
 45 49  1  6  0  0  0
 45 42  1  0  0  0  0
 45 50  1  0  0  0  0
 46 47  1  0  0  0  0
 47 48  2  0  0  0  0
 47 49  1  0  0  0  0
 50 66  1  6  0  0  0
 52 51  1  0  0  0  0
 52 58  1  1  0  0  0
 53 55  1  0  0  0  0
 53 54  1  0  0  0  0
 54 51  2  0  0  0  0
 55 50  1  1  0  0  0
 55 52  1  0  0  0  0
 58 57  2  0  0  0  0
 58 56  1  0  0  0  0
 60 59  1  6  0  0  0
 60 53  1  0  0  0  0
 61 60  1  0  0  0  0
 62 61  1  0  0  0  0
 63 62  1  0  0  0  0
 63 64  1  0  0  0  0
 65 66  1  0  0  0  0
M  END
>  <MODEL>
2

>  <REMARK>
 VINA RESULT:      -2.3      3.466      9.248
  Name = 
  28 active torsions:
  status: ('A' for Active; 'I' for Inactive)
    1  A    between atoms: C_1  and  C_55
    2  A    between atoms: C_3  and  C_14
    3  A    between atoms: C_3  and  C_24
    4  A    between atoms: O_4  and  C_10
    5  A    between atoms: O_4  and  C_63
    6  A    between atoms: C_7  and  C_53
    7  A    between atoms: C_7  and  C_66
    8  A    between atoms: C_8  and  C_62
    9  A    between atoms: C_11  and  C_61
   10  A    between atoms: C_12  and  C_28
   11  A    between atoms: C_12  and  C_52
   12  A    between atoms: C_13  and  N_23
   13  A    between atoms: C_13  and  C_57
   14  A    between atoms: C_14  and  C_27
   15  A    between atoms: C_14  and  O_37
   16  A    between atoms: C_15  and  O_41
   17  A    between atoms: C_15  and  C_48
   18  A    between atoms: C_16  and  C_58
   19  A    between atoms: C_16  and  C_63
   20  A    between atoms: C_20  and  C_35
   21  A    between atoms: C_20  and  C_57
   22  A    between atoms: C_24  and  C_26
   23  A    between atoms: C_27  and  N_46
   24  A    between atoms: C_27  and  C_62
   25  A    between atoms: C_38  and  C_62
   26  A    between atoms: O_41  and  C_55
   27  A    between atoms: C_45  and  C_58
   28  A    between atoms: C_60  and  C_63
                            x       y       z     vdW  Elec       q    Type
                         _______ _______ _______ _____ _____    ______ ____

>  <TORSDO>
F 28

$$$$
