=
 OpenBabel11072410453D

 38 43  0  0  1  0  0  0  0  0999 V2000
  156.8450  213.4310  153.9350 C   0  0  0  0  0  2  0  0  0  0  0  0
  157.8910  212.3210  153.6410 C   0  0  0  0  0  2  0  0  0  0  0  0
  158.7590  212.6620  152.4450 C   0  0  0  0  0  0  0  0  0  0  0  0
  156.1770  214.0280  152.7520 N   0  0  0  0  0  2  0  0  0  0  0  0
  156.7650  213.5700  151.4950 C   0  0  2  0  0  3  0  0  0  0  0  0
  158.2500  213.7250  151.5230 C   0  0  2  0  0  3  0  0  0  0  0  0
  156.3820  214.3850  150.3000 C   0  0  0  0  0  2  0  0  0  0  0  0
  157.5760  214.1810  149.3640 C   0  0  1  0  0  3  0  0  0  0  0  0
  159.9080  212.1120  152.2430 N   0  0  0  0  0  0  0  0  0  0  0  0
  158.6760  213.5890  150.1380 N   0  0  0  0  0  0  0  0  0  0  0  0
  161.9060  206.2520  150.2820 O   0  0  0  0  0  0  0  0  0  0  0  0
  161.7730  208.3240  151.3950 C   0  0  0  0  0  3  0  0  0  0  0  0
  161.3110  208.8820  155.2100 C   0  0  1  0  0  3  0  0  0  0  0  0
  160.4630  211.0910  153.0980 C   0  0  1  0  0  3  0  0  0  0  0  0
  161.0640  206.1230  152.5110 C   0  0  0  0  0  2  0  0  0  0  0  0
  161.6480  210.9650  156.8770 O   0  0  0  0  0  0  0  0  0  0  0  0
  160.6630  206.2260  155.0480 C   0  0  0  0  0  2  0  0  0  0  0  0
  159.5980  207.0660  155.7670 C   0  0  0  0  0  2  0  0  0  0  0  0
  160.0090  208.5420  155.9430 C   0  0  0  0  0  2  0  0  0  0  0  0
  161.0920  206.9230  153.7860 C   0  0  0  0  0  0  0  0  0  0  0  0
  161.3650  208.2490  153.8230 C   0  0  0  0  0  0  0  0  0  0  0  0
  161.6280  208.9890  152.5420 C   0  0  0  0  0  0  0  0  0  0  0  0
  163.2550  210.7300  155.0510 O   0  0  0  0  0  0  0  0  0  0  0  0
  161.6940  210.4770  152.4480 C   0  0  0  0  0  2  0  0  0  0  0  0
  161.6240  206.8700  151.3410 C   0  0  0  0  0  0  0  0  0  0  0  0
  160.8290  211.7040  154.4390 C   0  0  0  0  0  2  0  0  0  0  0  0
  161.8070  210.5880  155.4310 S   0  0  0  0  0  0  0  0  0  0  0  0
  159.8340  214.4510  149.9540 C   0  0  0  0  0  2  0  0  0  0  0  0
  161.0420  212.3350  149.3940 C   0  0  0  0  0  3  0  0  0  0  0  0
  162.2180  210.3300  148.8750 F   0  0  0  0  0  0  0  0  0  0  0  0
  162.7570  213.7560  147.7410 C   0  0  0  0  0  3  0  0  0  0  0  0
  161.7550  214.3910  148.4050 N   0  0  0  0  0  0  0  0  0  0  0  0
  162.9300  212.3780  147.8860 C   0  0  0  0  0  3  0  0  0  0  0  0
  162.0650  211.6670  148.7190 C   0  0  0  0  0  0  0  0  0  0  0  0
  160.8960  213.7140  149.2160 C   0  0  0  0  0  0  0  0  0  0  0  0
  157.2070  213.2790  148.2850 N   0  0  0  0  0  2  0  0  0  0  0  0
  158.1080  213.5080  147.2370 N   0  0  0  0  0  2  0  0  0  0  0  0
  157.6930  212.6550  146.1380 C   0  0  0  0  0  1  0  0  0  0  0  0
  2  1  1  0  0  0  0
  3  2  1  0  0  0  0
  4  1  1  0  0  0  0
  5  7  1  6  0  0  0
  5  6  1  0  0  0  0
  5  4  1  0  0  0  0
  6  3  1  1  0  0  0
  8 36  1  6  0  0  0
  8 10  1  0  0  0  0
  8  7  1  0  0  0  0
  9  3  2  0  0  0  0
 10  6  1  0  0  0  0
 11 25  2  0  0  0  0
 12 22  2  0  0  0  0
 13 27  1  0  0  0  0
 13 19  1  6  0  0  0
 14  9  1  6  0  0  0
 14 26  1  0  0  0  0
 15 20  1  0  0  0  0
 17 18  1  0  0  0  0
 18 19  1  0  0  0  0
 20 21  2  0  0  0  0
 20 17  1  0  0  0  0
 21 13  1  0  0  0  0
 22 21  1  0  0  0  0
 23 27  2  0  0  0  0
 24 22  1  0  0  0  0
 24 14  1  0  0  0  0
 25 12  1  0  0  0  0
 25 15  1  0  0  0  0
 26 27  1  0  0  0  0
 27 16  2  0  0  0  0
 28 10  1  0  0  0  0
 31 33  2  0  0  0  0
 31 32  1  0  0  0  0
 32 35  2  0  0  0  0
 33 34  1  0  0  0  0
 34 30  1  0  0  0  0
 34 29  2  0  0  0  0
 35 29  1  0  0  0  0
 35 28  1  0  0  0  0
 37 36  1  0  0  0  0
 38 37  1  0  0  0  0
M  END
>  <MODEL>
1

>  <REMARK>
 VINA RESULT:      -7.5      0.000      0.000
  Name = 
  5 active torsions:
  status: ('A' for Active; 'I' for Inactive)
    1  A    between atoms: C_6  and  N_34
    2  A    between atoms: C_11  and  N_35
    3  A    between atoms: C_11  and  C_37
    4  A    between atoms: N_16  and  N_25
    5  A    between atoms: N_16  and  C_33
                            x       y       z     vdW  Elec       q    Type
                         _______ _______ _______ _____ _____    ______ ____

>  <TORSDO>
F 5

$$$$
=
 OpenBabel11072410453D

 38 43  0  0  1  0  0  0  0  0999 V2000
  162.8050  207.5390  148.5790 C   0  0  0  0  0  2  0  0  0  0  0  0
  161.9590  208.8420  148.6090 C   0  0  0  0  0  2  0  0  0  0  0  0
  161.9330  209.4700  149.9890 C   0  0  0  0  0  0  0  0  0  0  0  0
  162.6460  206.6320  149.7430 N   0  0  0  0  0  2  0  0  0  0  0  0
  161.8350  207.2270  150.8030 C   0  0  2  0  0  3  0  0  0  0  0  0
  162.3310  208.5960  151.1370 C   0  0  2  0  0  3  0  0  0  0  0  0
  161.9270  206.5240  152.1210 C   0  0  0  0  0  2  0  0  0  0  0  0
  161.6190  207.6470  153.1150 C   0  0  1  0  0  3  0  0  0  0  0  0
  161.6380  210.7110  150.1800 N   0  0  0  0  0  0  0  0  0  0  0  0
  161.7050  208.9310  152.4070 N   0  0  0  0  0  0  0  0  0  0  0  0
  156.3300  214.4520  150.1490 O   0  0  0  0  0  0  0  0  0  0  0  0
  158.5420  213.6880  149.8770 C   0  0  0  0  0  3  0  0  0  0  0  0
  160.4430  213.2390  146.5220 C   0  0  1  0  0  3  0  0  0  0  0  0
  161.2590  211.6110  149.1190 C   0  0  1  0  0  3  0  0  0  0  0  0
  156.8820  213.8030  147.9210 C   0  0  0  0  0  2  0  0  0  0  0  0
  163.0240  212.9390  145.8300 O   0  0  0  0  0  0  0  0  0  0  0  0
  157.8880  213.5040  145.5740 C   0  0  0  0  0  2  0  0  0  0  0  0
  158.6030  212.2540  145.0430 C   0  0  0  0  0  2  0  0  0  0  0  0
  160.0730  212.1580  145.5000 C   0  0  0  0  0  2  0  0  0  0  0  0
  158.1020  213.6200  147.0580 C   0  0  0  0  0  0  0  0  0  0  0  0
  159.3460  213.4380  147.5630 C   0  0  0  0  0  0  0  0  0  0  0  0
  159.5430  213.3830  149.0510 C   0  0  0  0  0  0  0  0  0  0  0  0
  162.5390  214.4490  147.6880 O   0  0  0  0  0  0  0  0  0  0  0  0
  160.8150  212.9460  149.6990 C   0  0  0  0  0  2  0  0  0  0  0  0
  157.2150  214.0290  149.3630 C   0  0  0  0  0  0  0  0  0  0  0  0
  162.4410  211.8130  148.1860 C   0  0  0  0  0  2  0  0  0  0  0  0
  162.1550  213.1490  147.0380 S   0  0  0  0  0  0  0  0  0  0  0  0
  162.6440  209.7610  153.1470 C   0  0  0  0  0  2  0  0  0  0  0  0
  160.7080  211.1560  153.8920 C   0  0  0  0  0  3  0  0  0  0  0  0
  158.8820  212.5100  154.6050 F   0  0  0  0  0  0  0  0  0  0  0  0
  161.8370  211.3680  156.4170 C   0  0  0  0  0  3  0  0  0  0  0  0
  162.4550  210.6510  155.4420 N   0  0  0  0  0  0  0  0  0  0  0  0
  160.6220  212.0060  156.1530 C   0  0  0  0  0  3  0  0  0  0  0  0
  160.0580  211.8960  154.8810 C   0  0  0  0  0  0  0  0  0  0  0  0
  161.9170  210.5260  154.1980 C   0  0  0  0  0  0  0  0  0  0  0  0
  160.2770  207.4790  153.6480 N   0  0  0  0  0  2  0  0  0  0  0  0
  160.4130  207.1660  155.0060 N   0  0  0  0  0  2  0  0  0  0  0  0
  159.6460  208.1560  155.7400 C   0  0  0  0  0  1  0  0  0  0  0  0
  1  2  1  0  0  0  0
  1  4  1  0  0  0  0
  2  3  1  0  0  0  0
  3  9  2  0  0  0  0
  4  5  1  0  0  0  0
  5  6  1  0  0  0  0
  5  7  1  1  0  0  0
  6  3  1  6  0  0  0
  6 10  1  0  0  0  0
  7  8  1  0  0  0  0
  8 36  1  6  0  0  0
 10  8  1  0  0  0  0
 10 28  1  0  0  0  0
 13 19  1  1  0  0  0
 13 27  1  0  0  0  0
 13 21  1  0  0  0  0
 14 24  1  0  0  0  0
 14  9  1  1  0  0  0
 15 25  1  0  0  0  0
 16 27  2  0  0  0  0
 17 20  1  0  0  0  0
 18 19  1  0  0  0  0
 18 17  1  0  0  0  0
 20 21  2  0  0  0  0
 20 15  1  0  0  0  0
 21 22  1  0  0  0  0
 22 24  1  0  0  0  0
 22 12  2  0  0  0  0
 25 12  1  0  0  0  0
 25 11  2  0  0  0  0
 26 14  1  0  0  0  0
 27 23  2  0  0  0  0
 27 26  1  0  0  0  0
 28 35  1  0  0  0  0
 29 35  2  0  0  0  0
 29 34  1  0  0  0  0
 30 34  1  0  0  0  0
 32 31  2  0  0  0  0
 33 31  1  0  0  0  0
 34 33  2  0  0  0  0
 35 32  1  0  0  0  0
 36 37  1  0  0  0  0
 37 38  1  0  0  0  0
M  END
>  <MODEL>
2

>  <REMARK>
 VINA RESULT:      -6.0      3.845      8.406
  Name = 
  5 active torsions:
  status: ('A' for Active; 'I' for Inactive)
    1  A    between atoms: C_6  and  N_34
    2  A    between atoms: C_11  and  N_35
    3  A    between atoms: C_11  and  C_37
    4  A    between atoms: N_16  and  N_25
    5  A    between atoms: N_16  and  C_33
                            x       y       z     vdW  Elec       q    Type
                         _______ _______ _______ _____ _____    ______ ____

>  <TORSDO>
F 5

$$$$
=
 OpenBabel11072410453D

 38 43  0  0  1  0  0  0  0  0999 V2000
  162.5820  210.8430  150.1760 C   0  0  0  0  0  2  0  0  0  0  0  0
  161.7480  210.1980  151.3170 C   0  0  0  0  0  2  0  0  0  0  0  0
  161.7520  208.6840  151.2370 C   0  0  0  0  0  0  0  0  0  0  0  0
  162.4350  210.2260  148.8340 N   0  0  0  0  0  2  0  0  0  0  0  0
  161.6480  208.9960  148.8710 C   0  0  2  0  0  3  0  0  0  0  0  0
  162.1620  208.0770  149.9320 C   0  0  2  0  0  3  0  0  0  0  0  0
  161.7570  208.1530  147.6400 C   0  0  0  0  0  2  0  0  0  0  0  0
  161.4770  206.7470  148.1770 C   0  0  1  0  0  3  0  0  0  0  0  0
  161.4710  207.9350  152.2500 N   0  0  0  0  0  0  0  0  0  0  0  0
  161.5620  206.7840  149.6430 N   0  0  0  0  0  0  0  0  0  0  0  0
  158.2060  213.4600  153.2410 O   0  0  0  0  0  0  0  0  0  0  0  0
  158.9520  211.2310  153.4030 C   0  0  0  0  0  3  0  0  0  0  0  0
  160.6500  209.5730  156.4750 C   0  0  1  0  0  3  0  0  0  0  0  0
  161.0810  208.4540  153.5380 C   0  0  1  0  0  3  0  0  0  0  0  0
  159.6750  213.0430  155.0730 C   0  0  0  0  0  2  0  0  0  0  0  0
  161.1290  207.0390  157.2400 O   0  0  0  0  0  0  0  0  0  0  0  0
  160.8580  212.2060  157.1960 C   0  0  0  0  0  2  0  0  0  0  0  0
  162.1960  211.4550  157.2570 C   0  0  0  0  0  2  0  0  0  0  0  0
  162.0590  209.9510  156.9450 C   0  0  0  0  0  2  0  0  0  0  0  0
  160.1530  211.8840  155.9080 C   0  0  0  0  0  0  0  0  0  0  0  0
  160.0830  210.5960  155.4960 C   0  0  0  0  0  0  0  0  0  0  0  0
  159.5340  210.2800  154.1340 C   0  0  0  0  0  0  0  0  0  0  0  0
  159.0160  207.4750  156.0920 O   0  0  0  0  0  0  0  0  0  0  0  0
  159.6390  208.9360  153.4930 C   0  0  0  0  0  2  0  0  0  0  0  0
  158.8820  212.6130  153.8780 C   0  0  0  0  0  0  0  0  0  0  0  0
  161.2360  207.3630  154.5850 C   0  0  0  0  0  2  0  0  0  0  0  0
  160.4780  207.8230  156.1350 S   0  0  0  0  0  0  0  0  0  0  0  0
  162.5200  205.7630  150.0370 C   0  0  0  0  0  2  0  0  0  0  0  0
  161.2860  203.6230  149.6500 C   0  0  0  0  0  3  0  0  0  0  0  0
  160.0850  201.5980  149.2910 F   0  0  0  0  0  0  0  0  0  0  0  0
  160.9090  203.3500  152.3840 C   0  0  0  0  0  3  0  0  0  0  0  0
  161.5930  204.4130  151.8840 N   0  0  0  0  0  0  0  0  0  0  0  0
  160.3900  202.3820  151.5200 C   0  0  0  0  0  3  0  0  0  0  0  0
  160.5830  202.5240  150.1450 C   0  0  0  0  0  0  0  0  0  0  0  0
  161.7980  204.5650  150.5480 C   0  0  0  0  0  0  0  0  0  0  0  0
  160.1430  206.3260  147.7810 N   0  0  0  0  0  2  0  0  0  0  0  0
  160.1630  206.1570  146.3910 N   0  0  0  0  0  2  0  0  0  0  0  0
  161.0910  205.0750  146.1170 C   0  0  0  0  0  1  0  0  0  0  0  0
  1  2  1  0  0  0  0
  3  2  1  0  0  0  0
  3  9  2  0  0  0  0
  4  5  1  0  0  0  0
  4  1  1  0  0  0  0
  5  7  1  6  0  0  0
  5  6  1  0  0  0  0
  6  3  1  1  0  0  0
  7  8  1  0  0  0  0
  8 36  1  1  0  0  0
  8 10  1  0  0  0  0
 10  6  1  0  0  0  0
 10 28  1  0  0  0  0
 11 25  2  0  0  0  0
 12 25  1  0  0  0  0
 12 22  2  0  0  0  0
 13 19  1  6  0  0  0
 14  9  1  6  0  0  0
 14 26  1  0  0  0  0
 15 20  1  0  0  0  0
 17 18  1  0  0  0  0
 19 18  1  0  0  0  0
 20 17  1  0  0  0  0
 21 20  2  0  0  0  0
 21 13  1  0  0  0  0
 22 21  1  0  0  0  0
 23 27  2  0  0  0  0
 24 14  1  0  0  0  0
 24 22  1  0  0  0  0
 25 15  1  0  0  0  0
 26 27  1  0  0  0  0
 27 13  1  0  0  0  0
 27 16  2  0  0  0  0
 28 35  1  0  0  0  0
 29 34  2  0  0  0  0
 29 35  1  0  0  0  0
 30 34  1  0  0  0  0
 32 31  1  0  0  0  0
 33 31  2  0  0  0  0
 34 33  1  0  0  0  0
 35 32  2  0  0  0  0
 37 36  1  0  0  0  0
 38 37  1  0  0  0  0
M  END
>  <MODEL>
3

>  <REMARK>
 VINA RESULT:      -5.3      3.925      7.024
  Name = 
  5 active torsions:
  status: ('A' for Active; 'I' for Inactive)
    1  A    between atoms: C_6  and  N_34
    2  A    between atoms: C_11  and  N_35
    3  A    between atoms: C_11  and  C_37
    4  A    between atoms: N_16  and  N_25
    5  A    between atoms: N_16  and  C_33
                            x       y       z     vdW  Elec       q    Type
                         _______ _______ _______ _____ _____    ______ ____

>  <TORSDO>
F 5

$$$$
