=
 OpenBabel11072412033D

 45 50  0  0  1  0  0  0  0  0999 V2000
  158.6690  212.3170  156.4830 C   0  0  1  0  0  3  0  0  0  0  0  0
  156.4970  213.0400  154.7850 C   0  0  2  0  0  3  0  0  0  0  0  0
  160.3850  209.9080  155.9330 C   0  0  1  0  0  0  0  0  0  0  0  0
  156.1410  210.6200  155.1720 C   0  0  0  0  0  1  0  0  0  0  0  0
  157.5370  214.1430  155.0340 C   0  0  1  0  0  3  0  0  0  0  0  0
  158.9760  210.0600  155.3240 C   0  0  0  0  0  2  0  0  0  0  0  0
  160.0680  212.1660  157.0690 C   0  0  0  0  0  2  0  0  0  0  0  0
  158.3970  213.8140  156.2660 C   0  0  0  0  0  2  0  0  0  0  0  0
  160.4240  210.6930  157.2610 C   0  0  0  0  0  2  0  0  0  0  0  0
  158.5290  211.5210  155.1750 C   0  0  1  0  0  3  0  0  0  0  0  0
  157.1050  211.6440  154.5850 C   0  0  2  0  0  3  0  0  0  0  0  0
  155.6520  213.3650  153.7190 O   0  0  0  0  0  1  0  0  0  0  0  0
  161.7180  207.7880  155.3030 C   0  0  0  0  0  2  0  0  0  0  0  0
  159.6940  206.5150  155.0000 C   0  0  0  0  0  2  0  0  0  0  0  0
  160.6730  208.4060  156.2330 C   0  0  2  0  0  3  0  0  0  0  0  0
  159.4290  207.5230  156.1050 C   0  0  0  0  0  2  0  0  0  0  0  0
  160.9220  207.0130  154.2770 C   0  0  2  0  0  3  0  0  0  0  0  0
  161.7180  205.8820  153.6350 C   0  0  0  0  0  2  0  0  0  0  0  0
  160.9530  205.1820  152.6680 O   0  0  0  0  0  0  0  0  0  0  0  0
  161.5930  204.3100  146.6620 C   0  0  0  0  0  1  0  0  0  0  0  0
  160.7950  202.2480  149.7890 C   0  0  0  0  0  0  0  0  0  0  0  0
  161.6430  203.9210  148.1200 C   0  0  2  0  0  3  0  0  0  0  0  0
  160.9850  204.6140  150.4080 C   0  0  0  0  0  0  0  0  0  0  0  0
  160.8790  202.6120  148.3310 C   0  0  0  0  0  2  0  0  0  0  0  0
  160.6490  200.9180  150.1480 O   0  0  0  0  0  1  0  0  0  0  0  0
  161.0460  205.0330  148.9700 C   0  0  0  0  0  2  0  0  0  0  0  0
  160.8210  203.1820  150.7420 C   0  0  0  0  0  3  0  0  0  0  0  0
  161.0380  205.5150  151.3360 N   0  0  0  0  0  0  0  0  0  0  0  0
  161.4430  210.4940  154.9620 C   0  0  2  0  0  3  0  0  0  0  0  0
  162.2840  211.4360  155.5610 O   0  0  0  0  0  1  0  0  0  0  0  0
  160.8830  210.9580  153.6090 C   0  0  0  0  0  2  0  0  0  0  0  0
  160.9900  209.5800  151.5830 C   0  0  0  0  0  2  0  0  0  0  0  0
  161.0750  211.0220  151.1110 C   0  0  1  0  0  3  0  0  0  0  0  0
  161.7490  210.5960  152.4080 C   0  0  1  0  0  3  0  0  0  0  0  0
  162.0420  211.0540  149.9230 C   0  0  0  0  0  2  0  0  0  0  0  0
  161.7480  212.1490  148.9380 C   0  0  0  0  0  0  0  0  0  0  0  0
  162.3850  213.4800  147.0090 C   0  0  0  0  0  3  0  0  0  0  0  0
  162.6740  212.4650  147.9270 C   0  0  0  0  0  0  0  0  0  0  0  0
  163.8500  211.7970  147.8350 F   0  0  0  0  0  0  0  0  0  0  0  0
  160.5430  212.8550  149.0220 C   0  0  0  0  0  3  0  0  0  0  0  0
  160.2560  213.8690  148.1030 C   0  0  0  0  0  3  0  0  0  0  0  0
  161.1780  214.1810  147.0940 C   0  0  0  0  0  3  0  0  0  0  0  0
  158.4330  214.3960  153.8210 C   0  0  0  0  0  2  0  0  0  0  0  0
  157.6170  214.4530  152.5370 C   0  0  0  0  0  2  0  0  0  0  0  0
  158.2090  213.6490  151.5650 O   0  0  0  0  0  1  0  0  0  0  0  0
  1  8  1  6  0  0  0
  1  7  1  0  0  0  0
  2 12  1  6  0  0  0
  2  5  1  0  0  0  0
  3 29  1  6  0  0  0
  3 15  1  0  0  0  0
  3  9  1  0  0  0  0
  5 43  1  6  0  0  0
  5  8  1  0  0  0  0
  6  3  1  0  0  0  0
  7  9  1  0  0  0  0
 10  6  1  1  0  0  0
 10  1  1  0  0  0  0
 11  2  1  0  0  0  0
 11  4  1  1  0  0  0
 11 10  1  0  0  0  0
 14 16  1  0  0  0  0
 15 13  1  6  0  0  0
 16 15  1  0  0  0  0
 17 18  1  1  0  0  0
 17 14  1  0  0  0  0
 17 13  1  0  0  0  0
 19 18  1  0  0  0  0
 21 25  1  0  0  0  0
 21 27  2  0  0  0  0
 22 20  1  6  0  0  0
 22 24  1  0  0  0  0
 22 26  1  0  0  0  0
 23 27  1  0  0  0  0
 23 28  2  0  0  0  0
 24 21  1  0  0  0  0
 26 23  1  0  0  0  0
 28 19  1  0  0  0  0
 29 30  1  1  0  0  0
 31 29  1  0  0  0  0
 32 34  1  0  0  0  0
 33 35  1  6  0  0  0
 33 32  1  0  0  0  0
 33 34  1  0  0  0  0
 34 31  1  1  0  0  0
 36 40  1  0  0  0  0
 36 35  1  0  0  0  0
 37 42  2  0  0  0  0
 37 38  1  0  0  0  0
 38 36  2  0  0  0  0
 39 38  1  0  0  0  0
 41 40  2  0  0  0  0
 42 41  1  0  0  0  0
 44 43  1  0  0  0  0
 45 44  1  0  0  0  0
M  END
>  <MODEL>
1

>  <REMARK>
 VINA RESULT:      -7.1      0.000      0.000
  Name = 
  11 active torsions:
  status: ('A' for Active; 'I' for Inactive)
    1  A    between atoms: C_3  and  C_8
    2  A    between atoms: C_3  and  C_23
    3  A    between atoms: C_4  and  C_7
    4  A    between atoms: C_6  and  C_8
    5  A    between atoms: C_6  and  C_28
    6  A    between atoms: C_7  and  C_25
    7  A    between atoms: O_10  and  C_31
    8  A    between atoms: O_10  and  N_43
    9  A    between atoms: C_15  and  C_26
   10  A    between atoms: C_16  and  C_26
   11  A    between atoms: C_29  and  C_31
                            x       y       z     vdW  Elec       q    Type
                         _______ _______ _______ _____ _____    ______ ____

>  <TORSDO>
F 11

$$$$
=
 OpenBabel11072412033D

 45 50  0  0  1  0  0  0  0  0999 V2000
  158.5910  213.0080  155.6880 C   0  0  1  0  0  3  0  0  0  0  0  0
  155.9560  213.3400  154.6550 C   0  0  2  0  0  3  0  0  0  0  0  0
  160.0700  210.3970  155.4720 C   0  0  1  0  0  0  0  0  0  0  0  0
  155.8050  211.2300  155.9440 C   0  0  0  0  0  1  0  0  0  0  0  0
  156.9940  214.3550  154.1550 C   0  0  1  0  0  3  0  0  0  0  0  0
  158.5340  210.4770  155.3430 C   0  0  0  0  0  2  0  0  0  0  0  0
  160.1090  212.9230  155.7990 C   0  0  0  0  0  2  0  0  0  0  0  0
  158.2290  214.3690  155.0720 C   0  0  0  0  0  2  0  0  0  0  0  0
  160.5410  211.5680  156.3580 C   0  0  0  0  0  2  0  0  0  0  0  0
  158.0310  211.8430  154.8560 C   0  0  1  0  0  3  0  0  0  0  0  0
  156.4900  211.9030  154.7600 C   0  0  2  0  0  3  0  0  0  0  0  0
  154.7910  213.3750  153.8810 O   0  0  0  0  0  1  0  0  0  0  0  0
  161.3810  208.1800  155.2940 C   0  0  0  0  0  2  0  0  0  0  0  0
  159.3990  206.8840  155.7400 C   0  0  0  0  0  2  0  0  0  0  0  0
  160.4740  209.0580  156.1570 C   0  0  2  0  0  3  0  0  0  0  0  0
  159.2700  208.1830  156.5160 C   0  0  0  0  0  2  0  0  0  0  0  0
  160.4670  207.1310  154.7020 C   0  0  2  0  0  3  0  0  0  0  0  0
  161.2010  205.8550  154.3060 C   0  0  0  0  0  2  0  0  0  0  0  0
  161.1330  205.6200  152.9090 O   0  0  0  0  0  0  0  0  0  0  0  0
  160.7580  201.1520  148.7690 C   0  0  0  0  0  1  0  0  0  0  0  0
  161.0600  204.9690  148.8480 C   0  0  0  0  0  0  0  0  0  0  0  0
  160.5610  202.5500  149.3030 C   0  0  2  0  0  3  0  0  0  0  0  0
  161.1650  204.1020  151.1410 C   0  0  0  0  0  0  0  0  0  0  0  0
  161.1200  203.5670  148.3050 C   0  0  0  0  0  2  0  0  0  0  0  0
  160.9940  206.0360  147.9660 O   0  0  0  0  0  1  0  0  0  0  0  0
  161.2540  202.6890  150.6520 C   0  0  0  0  0  2  0  0  0  0  0  0
  161.1040  205.2080  150.1600 C   0  0  0  0  0  3  0  0  0  0  0  0
  161.1800  204.3370  152.4130 N   0  0  0  0  0  0  0  0  0  0  0  0
  160.7200  210.5230  154.0700 C   0  0  2  0  0  3  0  0  0  0  0  0
  162.0020  211.0810  154.1000 O   0  0  0  0  0  1  0  0  0  0  0  0
  159.8160  211.1470  152.9960 C   0  0  0  0  0  2  0  0  0  0  0  0
  160.9620  211.5110  150.8590 C   0  0  0  0  0  2  0  0  0  0  0  0
  159.7290  212.3970  150.8260 C   0  0  1  0  0  3  0  0  0  0  0  0
  160.4970  212.1960  152.1260 C   0  0  1  0  0  3  0  0  0  0  0  0
  160.1190  213.6900  150.1010 C   0  0  0  0  0  2  0  0  0  0  0  0
  160.1160  213.5630  148.6040 C   0  0  0  0  0  0  0  0  0  0  0  0
  161.3130  213.3060  146.5060 C   0  0  0  0  0  3  0  0  0  0  0  0
  161.3270  213.4350  147.8990 C   0  0  0  0  0  0  0  0  0  0  0  0
  162.5130  213.4390  148.5560 F   0  0  0  0  0  0  0  0  0  0  0  0
  158.9030  213.5640  147.9070 C   0  0  0  0  0  3  0  0  0  0  0  0
  158.8910  213.4360  146.5160 C   0  0  0  0  0  3  0  0  0  0  0  0
  160.0970  213.3050  145.8140 C   0  0  0  0  0  3  0  0  0  0  0  0
  157.4180  214.1040  152.7070 C   0  0  0  0  0  2  0  0  0  0  0  0
  156.2970  214.4530  151.7390 C   0  0  0  0  0  2  0  0  0  0  0  0
  156.6090  213.9790  150.4660 O   0  0  0  0  0  1  0  0  0  0  0  0
  1  8  1  6  0  0  0
  1  7  1  0  0  0  0
  2 12  1  6  0  0  0
  2 11  1  0  0  0  0
  3 29  1  6  0  0  0
  3 15  1  0  0  0  0
  3  9  1  0  0  0  0
  5 43  1  6  0  0  0
  5  2  1  0  0  0  0
  5  8  1  0  0  0  0
  6  3  1  0  0  0  0
  7  9  1  0  0  0  0
 10  6  1  1  0  0  0
 10  1  1  0  0  0  0
 11 10  1  0  0  0  0
 11  4  1  1  0  0  0
 14 16  1  0  0  0  0
 15 13  1  6  0  0  0
 15 16  1  0  0  0  0
 17 18  1  1  0  0  0
 17 13  1  0  0  0  0
 17 14  1  0  0  0  0
 19 18  1  0  0  0  0
 21 27  2  0  0  0  0
 22 20  1  6  0  0  0
 22 26  1  0  0  0  0
 23 28  2  0  0  0  0
 24 21  1  0  0  0  0
 24 22  1  0  0  0  0
 25 21  1  0  0  0  0
 26 23  1  0  0  0  0
 27 23  1  0  0  0  0
 28 19  1  0  0  0  0
 29 30  1  1  0  0  0
 31 29  1  0  0  0  0
 32 34  1  0  0  0  0
 33 35  1  6  0  0  0
 33 32  1  0  0  0  0
 33 34  1  0  0  0  0
 34 31  1  1  0  0  0
 36 35  1  0  0  0  0
 37 38  1  0  0  0  0
 38 39  1  0  0  0  0
 38 36  2  0  0  0  0
 40 36  1  0  0  0  0
 41 40  2  0  0  0  0
 42 37  2  0  0  0  0
 42 41  1  0  0  0  0
 44 43  1  0  0  0  0
 45 44  1  0  0  0  0
M  END
>  <MODEL>
2

>  <REMARK>
 VINA RESULT:      -6.7      1.386      1.856
  Name = 
  11 active torsions:
  status: ('A' for Active; 'I' for Inactive)
    1  A    between atoms: C_3  and  C_8
    2  A    between atoms: C_3  and  C_23
    3  A    between atoms: C_4  and  C_7
    4  A    between atoms: C_6  and  C_8
    5  A    between atoms: C_6  and  C_28
    6  A    between atoms: C_7  and  C_25
    7  A    between atoms: O_10  and  C_31
    8  A    between atoms: O_10  and  N_43
    9  A    between atoms: C_15  and  C_26
   10  A    between atoms: C_16  and  C_26
   11  A    between atoms: C_29  and  C_31
                            x       y       z     vdW  Elec       q    Type
                         _______ _______ _______ _____ _____    ______ ____

>  <TORSDO>
F 11

$$$$
=
 OpenBabel11072412033D

 45 50  0  0  1  0  0  0  0  0999 V2000
  161.3620  210.6120  155.2040 C   0  0  1  0  0  3  0  0  0  0  0  0
  159.0040  211.2230  156.6830 C   0  0  2  0  0  3  0  0  0  0  0  0
  161.2500  209.6480  152.3560 C   0  0  1  0  0  0  0  0  0  0  0  0
  158.5020  209.0090  155.6940 C   0  0  0  0  0  1  0  0  0  0  0  0
  160.0520  212.3440  156.6180 C   0  0  1  0  0  3  0  0  0  0  0  0
  160.0320  209.5500  153.2980 C   0  0  0  0  0  2  0  0  0  0  0  0
  162.5560  210.7190  154.2630 C   0  0  0  0  0  2  0  0  0  0  0  0
  161.4210  211.7860  156.1930 C   0  0  0  0  0  2  0  0  0  0  0  0
  162.5290  209.6060  153.2160 C   0  0  0  0  0  2  0  0  0  0  0  0
  160.0390  210.5980  154.4200 C   0  0  1  0  0  3  0  0  0  0  0  0
  158.8220  210.4620  155.3620 C   0  0  2  0  0  3  0  0  0  0  0  0
  157.7740  211.6990  157.1490 O   0  0  0  0  0  1  0  0  0  0  0  0
  160.4800  207.2270  151.8970 C   0  0  0  0  0  2  0  0  0  0  0  0
  162.7510  206.4840  151.5850 C   0  0  0  0  0  2  0  0  0  0  0  0
  161.2640  208.4340  151.3810 C   0  0  2  0  0  3  0  0  0  0  0  0
  162.6750  207.9180  151.0890 C   0  0  0  0  0  2  0  0  0  0  0  0
  161.5260  206.2830  152.4450 C   0  0  2  0  0  3  0  0  0  0  0  0
  161.0640  204.8290  152.4680 C   0  0  0  0  0  2  0  0  0  0  0  0
  161.4590  204.1330  151.2980 O   0  0  0  0  0  0  0  0  0  0  0  0
  161.3120  204.4740  145.2060 C   0  0  0  0  0  1  0  0  0  0  0  0
  161.1790  201.7850  147.9310 C   0  0  0  0  0  0  0  0  0  0  0  0
  161.6100  203.8310  146.5390 C   0  0  2  0  0  3  0  0  0  0  0  0
  161.2220  204.0020  148.9820 C   0  0  0  0  0  0  0  0  0  0  0  0
  161.0160  202.4210  146.5760 C   0  0  0  0  0  2  0  0  0  0  0  0
  161.2180  200.4040  148.0320 O   0  0  0  0  0  1  0  0  0  0  0  0
  161.0340  204.6840  147.6610 C   0  0  0  0  0  2  0  0  0  0  0  0
  161.2500  202.5240  149.0410 C   0  0  0  0  0  3  0  0  0  0  0  0
  161.3190  204.7150  150.0580 N   0  0  0  0  0  0  0  0  0  0  0  0
  161.2030  210.9880  151.5760 C   0  0  2  0  0  3  0  0  0  0  0  0
  159.9890  211.6670  151.7130 O   0  0  0  0  0  1  0  0  0  0  0  0
  161.6860  210.9010  150.1210 C   0  0  0  0  0  2  0  0  0  0  0  0
  162.6670  212.3720  148.4220 C   0  0  0  0  0  2  0  0  0  0  0  0
  161.3830  211.8340  147.8150 C   0  0  1  0  0  3  0  0  0  0  0  0
  161.4530  212.1630  149.3000 C   0  0  1  0  0  3  0  0  0  0  0  0
  160.7640  212.9630  146.9840 C   0  0  0  0  0  2  0  0  0  0  0  0
  161.0370  212.8450  145.5120 C   0  0  0  0  0  0  0  0  0  0  0  0
  160.2900  212.3090  143.2640 C   0  0  0  0  0  3  0  0  0  0  0  0
  160.0290  212.4050  144.6350 C   0  0  0  0  0  0  0  0  0  0  0  0
  158.8030  212.0680  145.1050 F   0  0  0  0  0  0  0  0  0  0  0  0
  162.2980  213.1810  145.0080 C   0  0  0  0  0  3  0  0  0  0  0  0
  162.5570  213.0840  143.6380 C   0  0  0  0  0  3  0  0  0  0  0  0
  161.5520  212.6490  142.7640 C   0  0  0  0  0  3  0  0  0  0  0  0
  159.6390  213.4860  155.6880 C   0  0  0  0  0  2  0  0  0  0  0  0
  158.5450  214.3370  156.3150 C   0  0  0  0  0  2  0  0  0  0  0  0
  157.4720  214.4530  155.4330 O   0  0  0  0  0  1  0  0  0  0  0  0
  1  7  1  6  0  0  0
  1  8  1  0  0  0  0
  2 12  1  6  0  0  0
  3 29  1  6  0  0  0
  3  9  1  0  0  0  0
  3  6  1  0  0  0  0
  5 43  1  6  0  0  0
  5  2  1  0  0  0  0
  8  5  1  0  0  0  0
  9  7  1  0  0  0  0
 10  6  1  6  0  0  0
 10  1  1  0  0  0  0
 10 11  1  0  0  0  0
 11  4  1  1  0  0  0
 11  2  1  0  0  0  0
 13 17  1  0  0  0  0
 14 17  1  0  0  0  0
 15 16  1  1  0  0  0
 15 13  1  0  0  0  0
 15  3  1  0  0  0  0
 16 14  1  0  0  0  0
 17 18  1  6  0  0  0
 19 18  1  0  0  0  0
 21 25  1  0  0  0  0
 21 27  2  0  0  0  0
 22 20  1  6  0  0  0
 22 24  1  0  0  0  0
 22 26  1  0  0  0  0
 23 27  1  0  0  0  0
 23 28  2  0  0  0  0
 24 21  1  0  0  0  0
 26 23  1  0  0  0  0
 28 19  1  0  0  0  0
 29 30  1  6  0  0  0
 31 29  1  0  0  0  0
 32 34  1  0  0  0  0
 33 35  1  6  0  0  0
 33 32  1  0  0  0  0
 33 34  1  0  0  0  0
 34 31  1  1  0  0  0
 36 35  1  0  0  0  0
 37 38  1  0  0  0  0
 38 39  1  0  0  0  0
 38 36  2  0  0  0  0
 40 36  1  0  0  0  0
 41 40  2  0  0  0  0
 42 37  2  0  0  0  0
 42 41  1  0  0  0  0
 43 44  1  0  0  0  0
 45 44  1  0  0  0  0
M  END
>  <MODEL>
3

>  <REMARK>
 VINA RESULT:      -6.1      2.109      3.543
  Name = 
  11 active torsions:
  status: ('A' for Active; 'I' for Inactive)
    1  A    between atoms: C_3  and  C_8
    2  A    between atoms: C_3  and  C_23
    3  A    between atoms: C_4  and  C_7
    4  A    between atoms: C_6  and  C_8
    5  A    between atoms: C_6  and  C_28
    6  A    between atoms: C_7  and  C_25
    7  A    between atoms: O_10  and  C_31
    8  A    between atoms: O_10  and  N_43
    9  A    between atoms: C_15  and  C_26
   10  A    between atoms: C_16  and  C_26
   11  A    between atoms: C_29  and  C_31
                            x       y       z     vdW  Elec       q    Type
                         _______ _______ _______ _____ _____    ______ ____

>  <TORSDO>
F 11

$$$$
=
 OpenBabel11072412033D

 45 50  0  0  1  0  0  0  0  0999 V2000
  161.3190  212.3450  141.8820 C   0  0  1  0  0  3  0  0  0  0  0  0
  163.3470  213.6110  140.3300 C   0  0  2  0  0  3  0  0  0  0  0  0
  159.7620  213.8310  143.9850 C   0  0  1  0  0  0  0  0  0  0  0  0
  163.9000  214.2790  142.6500 C   0  0  0  0  0  1  0  0  0  0  0  0
  162.2410  212.9090  139.5270 C   0  0  1  0  0  3  0  0  0  0  0  0
  161.1250  214.3390  143.4690 C   0  0  0  0  0  2  0  0  0  0  0  0
  159.9660  211.8580  142.3860 C   0  0  0  0  0  2  0  0  0  0  0  0
  161.4690  211.9170  140.4140 C   0  0  0  0  0  2  0  0  0  0  0  0
  159.7290  212.2970  143.8310 C   0  0  0  0  0  2  0  0  0  0  0  0
  161.4550  213.8680  142.0460 C   0  0  1  0  0  3  0  0  0  0  0  0
  162.8350  214.3700  141.5640 C   0  0  2  0  0  3  0  0  0  0  0  0
  164.1130  214.4530  139.5180 O   0  0  0  0  0  1  0  0  0  0  0  0
  160.9140  214.1260  146.2760 C   0  0  0  0  0  2  0  0  0  0  0  0
  159.4270  212.5380  147.3130 C   0  0  0  0  0  2  0  0  0  0  0  0
  159.6020  214.1850  145.4930 C   0  0  2  0  0  3  0  0  0  0  0  0
  158.6380  213.2500  146.2270 C   0  0  0  0  0  2  0  0  0  0  0  0
  160.8800  212.7990  147.0000 C   0  0  2  0  0  3  0  0  0  0  0  0
  161.7560  212.7790  148.2490 C   0  0  0  0  0  2  0  0  0  0  0  0
  162.2600  211.4810  148.5160 O   0  0  0  0  0  0  0  0  0  0  0  0
  161.1360  207.2360  152.7550 C   0  0  0  0  0  1  0  0  0  0  0  0
  161.7620  207.4240  148.9810 C   0  0  0  0  0  0  0  0  0  0  0  0
  161.1070  207.8360  151.3700 C   0  0  2  0  0  3  0  0  0  0  0  0
  162.0030  209.6630  149.9530 C   0  0  0  0  0  0  0  0  0  0  0  0
  161.6550  206.8270  150.3590 C   0  0  0  0  0  2  0  0  0  0  0  0
  161.7060  206.5910  147.8750 O   0  0  0  0  0  1  0  0  0  0  0  0
  161.9290  209.1170  151.3470 C   0  0  0  0  0  2  0  0  0  0  0  0
  161.9460  208.7340  148.8040 C   0  0  0  0  0  3  0  0  0  0  0  0
  162.1540  210.9360  149.7760 N   0  0  0  0  0  0  0  0  0  0  0  0
  158.6180  214.4530  143.1420 C   0  0  2  0  0  3  0  0  0  0  0  0
  157.3430  214.1600  143.6350 O   0  0  0  0  0  1  0  0  0  0  0  0
  158.7450  214.2340  141.6270 C   0  0  0  0  0  2  0  0  0  0  0  0
  157.7190  214.2750  139.4000 C   0  0  0  0  0  2  0  0  0  0  0  0
  157.3250  212.9430  140.0150 C   0  0  1  0  0  3  0  0  0  0  0  0
  157.4170  214.1930  140.8800 C   0  0  1  0  0  3  0  0  0  0  0  0
  155.8940  212.6390  139.5620 C   0  0  0  0  0  2  0  0  0  0  0  0
  155.6800  211.2050  139.1690 C   0  0  0  0  0  0  0  0  0  0  0  0
  154.3010  209.2050  139.1510 C   0  0  0  0  0  3  0  0  0  0  0  0
  154.4950  210.5370  139.5310 C   0  0  0  0  0  0  0  0  0  0  0  0
  153.5370  211.1710  140.2510 F   0  0  0  0  0  0  0  0  0  0  0  0
  156.6600  210.5300  138.4330 C   0  0  0  0  0  3  0  0  0  0  0  0
  156.4640  209.1990  138.0550 C   0  0  0  0  0  3  0  0  0  0  0  0
  155.2830  208.5360  138.4130 C   0  0  0  0  0  3  0  0  0  0  0  0
  161.2710  213.8930  138.8710 C   0  0  0  0  0  2  0  0  0  0  0  0
  161.0610  213.5600  137.4010 C   0  0  0  0  0  2  0  0  0  0  0  0
  160.1100  212.5490  137.2780 O   0  0  0  0  0  1  0  0  0  0  0  0
  1  8  1  6  0  0  0
  1 10  1  0  0  0  0
  1  7  1  0  0  0  0
  2 12  1  6  0  0  0
  2 11  1  0  0  0  0
  3 29  1  6  0  0  0
  3 15  1  0  0  0  0
  5 43  1  1  0  0  0
  5  2  1  0  0  0  0
  5  8  1  0  0  0  0
  6  3  1  0  0  0  0
  7  9  1  0  0  0  0
  9  3  1  0  0  0  0
 10  6  1  1  0  0  0
 11 10  1  0  0  0  0
 11  4  1  1  0  0  0
 13 17  1  0  0  0  0
 15 16  1  1  0  0  0
 15 13  1  0  0  0  0
 16 14  1  0  0  0  0
 17 14  1  0  0  0  0
 17 18  1  1  0  0  0
 18 19  1  0  0  0  0
 19 28  1  0  0  0  0
 21 24  1  0  0  0  0
 22 20  1  1  0  0  0
 23 26  1  0  0  0  0
 24 22  1  0  0  0  0
 25 21  1  0  0  0  0
 26 22  1  0  0  0  0
 27 21  2  0  0  0  0
 27 23  1  0  0  0  0
 28 23  2  0  0  0  0
 29 30  1  1  0  0  0
 31 29  1  0  0  0  0
 32 33  1  0  0  0  0
 32 34  1  0  0  0  0
 33 35  1  6  0  0  0
 33 34  1  0  0  0  0
 34 31  1  1  0  0  0
 36 38  1  0  0  0  0
 36 35  1  0  0  0  0
 37 38  2  0  0  0  0
 38 39  1  0  0  0  0
 40 36  2  0  0  0  0
 41 42  2  0  0  0  0
 41 40  1  0  0  0  0
 42 37  1  0  0  0  0
 44 43  1  0  0  0  0
 45 44  1  0  0  0  0
M  END
>  <MODEL>
4

>  <REMARK>
 VINA RESULT:      -6.0      7.125     11.959
  Name = 
  11 active torsions:
  status: ('A' for Active; 'I' for Inactive)
    1  A    between atoms: C_3  and  C_8
    2  A    between atoms: C_3  and  C_23
    3  A    between atoms: C_4  and  C_7
    4  A    between atoms: C_6  and  C_8
    5  A    between atoms: C_6  and  C_28
    6  A    between atoms: C_7  and  C_25
    7  A    between atoms: O_10  and  C_31
    8  A    between atoms: O_10  and  N_43
    9  A    between atoms: C_15  and  C_26
   10  A    between atoms: C_16  and  C_26
   11  A    between atoms: C_29  and  C_31
                            x       y       z     vdW  Elec       q    Type
                         _______ _______ _______ _____ _____    ______ ____

>  <TORSDO>
F 11

$$$$
=
 OpenBabel11072412033D

 45 50  0  0  1  0  0  0  0  0999 V2000
  161.4520  210.3570  153.3010 C   0  0  1  0  0  3  0  0  0  0  0  0
  159.0920  210.7110  154.8590 C   0  0  2  0  0  3  0  0  0  0  0  0
  161.8370  207.9640  151.5170 C   0  0  1  0  0  0  0  0  0  0  0  0
  159.7460  208.3700  155.3330 C   0  0  0  0  0  1  0  0  0  0  0  0
  159.4550  211.8820  153.9340 C   0  0  1  0  0  3  0  0  0  0  0  0
  160.8210  207.9600  152.6780 C   0  0  0  0  0  2  0  0  0  0  0  0
  162.4420  210.3580  152.1420 C   0  0  0  0  0  2  0  0  0  0  0  0
  160.9230  211.7880  153.4840 C   0  0  0  0  0  2  0  0  0  0  0  0
  162.9700  208.9500  151.8710 C   0  0  0  0  0  2  0  0  0  0  0  0
  160.3090  209.3580  153.0490 C   0  0  1  0  0  3  0  0  0  0  0  0
  159.3130  209.3270  154.2300 C   0  0  2  0  0  3  0  0  0  0  0  0
  157.7860  210.8270  155.3450 O   0  0  0  0  0  1  0  0  0  0  0  0
  161.5580  205.5870  150.5490 C   0  0  0  0  0  2  0  0  0  0  0  0
  161.8710  204.5860  152.7190 C   0  0  0  0  0  2  0  0  0  0  0  0
  162.4490  206.5420  151.3430 C   0  0  2  0  0  3  0  0  0  0  0  0
  162.7220  205.8430  152.6780 C   0  0  0  0  0  2  0  0  0  0  0  0
  160.8780  204.7260  151.5900 C   0  0  2  0  0  3  0  0  0  0  0  0
  160.4240  203.3760  151.0440 C   0  0  0  0  0  2  0  0  0  0  0  0
  161.4420  202.7470  150.2840 O   0  0  0  0  0  0  0  0  0  0  0  0
  160.0550  201.0960  144.5750 C   0  0  0  0  0  1  0  0  0  0  0  0
  161.5720  204.1010  146.4010 C   0  0  0  0  0  0  0  0  0  0  0  0
  160.2710  202.0680  145.7100 C   0  0  2  0  0  3  0  0  0  0  0  0
  161.1570  202.3000  148.0140 C   0  0  0  0  0  0  0  0  0  0  0  0
  161.2270  203.1760  145.2650 C   0  0  0  0  0  2  0  0  0  0  0  0
  161.9460  205.4060  146.1240 O   0  0  0  0  0  1  0  0  0  0  0  0
  160.8310  201.3310  146.9190 C   0  0  0  0  0  2  0  0  0  0  0  0
  161.5590  203.6800  147.6680 C   0  0  0  0  0  3  0  0  0  0  0  0
  161.1190  201.9040  149.2460 N   0  0  0  0  0  0  0  0  0  0  0  0
  161.1410  208.4330  150.2130 C   0  0  2  0  0  3  0  0  0  0  0  0
  160.4550  207.4110  149.5510 O   0  0  0  0  0  1  0  0  0  0  0  0
  162.0270  209.2700  149.2770 C   0  0  0  0  0  2  0  0  0  0  0  0
  162.9360  211.4560  148.6400 C   0  0  0  0  0  2  0  0  0  0  0  0
  161.5720  211.3620  147.9760 C   0  0  1  0  0  3  0  0  0  0  0  0
  161.7960  210.7730  149.3620 C   0  0  1  0  0  3  0  0  0  0  0  0
  160.9500  212.7620  148.0190 C   0  0  0  0  0  2  0  0  0  0  0  0
  159.6230  212.8510  147.3200 C   0  0  0  0  0  0  0  0  0  0  0  0
  157.2550  213.3900  147.3490 C   0  0  0  0  0  3  0  0  0  0  0  0
  158.4840  213.3010  148.0120 C   0  0  0  0  0  0  0  0  0  0  0  0
  158.5610  213.6470  149.3210 F   0  0  0  0  0  0  0  0  0  0  0  0
  159.5210  212.4910  145.9720 C   0  0  0  0  0  3  0  0  0  0  0  0
  158.2920  212.5810  145.3120 C   0  0  0  0  0  3  0  0  0  0  0  0
  157.1580  213.0320  146.0000 C   0  0  0  0  0  3  0  0  0  0  0  0
  158.5370  211.9770  152.7140 C   0  0  0  0  0  2  0  0  0  0  0  0
  157.8870  213.3490  152.6210 C   0  0  0  0  0  2  0  0  0  0  0  0
  156.9630  213.5050  153.6530 O   0  0  0  0  0  1  0  0  0  0  0  0
  1  7  1  6  0  0  0
  1  8  1  0  0  0  0
  2 12  1  6  0  0  0
  3 29  1  6  0  0  0
  3  9  1  0  0  0  0
  3  6  1  0  0  0  0
  5 43  1  6  0  0  0
  5  2  1  0  0  0  0
  8  5  1  0  0  0  0
  9  7  1  0  0  0  0
 10  6  1  1  0  0  0
 10  1  1  0  0  0  0
 10 11  1  0  0  0  0
 11  2  1  0  0  0  0
 11  4  1  1  0  0  0
 13 17  1  0  0  0  0
 15 13  1  6  0  0  0
 15  3  1  0  0  0  0
 15 16  1  0  0  0  0
 16 14  1  0  0  0  0
 17 18  1  6  0  0  0
 17 14  1  0  0  0  0
 19 18  1  0  0  0  0
 21 27  2  0  0  0  0
 22 20  1  6  0  0  0
 22 26  1  0  0  0  0
 23 28  2  0  0  0  0
 24 22  1  0  0  0  0
 24 21  1  0  0  0  0
 25 21  1  0  0  0  0
 26 23  1  0  0  0  0
 27 23  1  0  0  0  0
 28 19  1  0  0  0  0
 29 30  1  6  0  0  0
 31 29  1  0  0  0  0
 32 34  1  0  0  0  0
 33 35  1  1  0  0  0
 33 32  1  0  0  0  0
 33 34  1  0  0  0  0
 34 31  1  6  0  0  0
 36 38  1  0  0  0  0
 36 35  1  0  0  0  0
 37 38  2  0  0  0  0
 38 39  1  0  0  0  0
 40 36  2  0  0  0  0
 41 40  1  0  0  0  0
 41 42  2  0  0  0  0
 42 37  1  0  0  0  0
 44 43  1  0  0  0  0
 44 45  1  0  0  0  0
M  END
>  <MODEL>
5

>  <REMARK>
 VINA RESULT:      -5.3      2.406      4.228
  Name = 
  11 active torsions:
  status: ('A' for Active; 'I' for Inactive)
    1  A    between atoms: C_3  and  C_8
    2  A    between atoms: C_3  and  C_23
    3  A    between atoms: C_4  and  C_7
    4  A    between atoms: C_6  and  C_8
    5  A    between atoms: C_6  and  C_28
    6  A    between atoms: C_7  and  C_25
    7  A    between atoms: O_10  and  C_31
    8  A    between atoms: O_10  and  N_43
    9  A    between atoms: C_15  and  C_26
   10  A    between atoms: C_16  and  C_26
   11  A    between atoms: C_29  and  C_31
                            x       y       z     vdW  Elec       q    Type
                         _______ _______ _______ _____ _____    ______ ____

>  <TORSDO>
F 11

$$$$
=
 OpenBabel11072412033D

 45 50  0  0  1  0  0  0  0  0999 V2000
  161.3580  214.1210  145.6850 C   0  0  1  0  0  3  0  0  0  0  0  0
  159.0680  213.9130  144.0010 C   0  0  2  0  0  3  0  0  0  0  0  0
  161.5070  212.7290  148.3490 C   0  0  1  0  0  0  0  0  0  0  0  0
  158.1020  214.4520  146.2170 C   0  0  0  0  0  1  0  0  0  0  0  0
  160.4060  213.5330  143.3480 C   0  0  1  0  0  3  0  0  0  0  0  0
  160.1600  213.0050  147.6480 C   0  0  0  0  0  2  0  0  0  0  0  0
  162.6840  213.8310  146.3770 C   0  0  0  0  0  2  0  0  0  0  0  0
  161.5870  214.0810  144.1660 C   0  0  0  0  0  2  0  0  0  0  0  0
  162.5160  213.8040  147.8950 C   0  0  0  0  0  2  0  0  0  0  0  0
  160.2760  213.1190  146.1210 C   0  0  1  0  0  3  0  0  0  0  0  0
  158.9180  213.4200  145.4480 C   0  0  2  0  0  3  0  0  0  0  0  0
  157.9830  213.4950  143.2240 O   0  0  0  0  0  1  0  0  0  0  0  0
  160.0860  212.1090  150.4130 C   0  0  0  0  0  2  0  0  0  0  0  0
  159.8450  214.4240  151.0370 C   0  0  0  0  0  2  0  0  0  0  0  0
  161.3300  212.8300  149.8930 C   0  0  2  0  0  3  0  0  0  0  0  0
  161.2100  214.2740  150.3870 C   0  0  0  0  0  2  0  0  0  0  0  0
  159.0610  213.1990  150.6310 C   0  0  2  0  0  3  0  0  0  0  0  0
  157.9980  212.8220  151.6580 C   0  0  0  0  0  2  0  0  0  0  0  0
  158.5020  212.8840  152.9820 O   0  0  0  0  0  0  0  0  0  0  0  0
  159.7160  207.7960  156.1270 C   0  0  0  0  0  1  0  0  0  0  0  0
  161.6200  210.4690  154.1530 C   0  0  0  0  0  0  0  0  0  0  0  0
  159.9400  208.8350  155.0550 C   0  0  2  0  0  3  0  0  0  0  0  0
  159.2450  211.0760  154.2520 C   0  0  0  0  0  0  0  0  0  0  0  0
  161.3820  209.3420  155.1210 C   0  0  0  0  0  2  0  0  0  0  0  0
  162.9000  210.6920  153.6730 O   0  0  0  0  0  1  0  0  0  0  0  0
  158.9600  209.9850  155.2390 C   0  0  0  0  0  2  0  0  0  0  0  0
  160.6300  211.2800  153.7740 C   0  0  0  0  0  3  0  0  0  0  0  0
  158.2830  211.8480  153.8610 N   0  0  0  0  0  0  0  0  0  0  0  0
  162.0330  211.3300  147.9380 C   0  0  2  0  0  3  0  0  0  0  0  0
  161.1920  210.6600  147.0440 O   0  0  0  0  0  1  0  0  0  0  0  0
  162.4930  210.4480  149.1090 C   0  0  0  0  0  2  0  0  0  0  0  0
  162.3510  208.0130  149.3610 C   0  0  0  0  0  2  0  0  0  0  0  0
  161.9930  208.5930  150.7180 C   0  0  1  0  0  3  0  0  0  0  0  0
  161.5530  209.2950  149.4410 C   0  0  1  0  0  3  0  0  0  0  0  0
  160.8960  207.7050  151.3160 C   0  0  0  0  0  2  0  0  0  0  0  0
  161.1150  206.2380  151.0800 C   0  0  0  0  0  0  0  0  0  0  0  0
  160.8390  204.2580  149.7010 C   0  0  0  0  0  3  0  0  0  0  0  0
  160.6200  205.6230  149.9160 C   0  0  0  0  0  0  0  0  0  0  0  0
  159.9260  206.3390  148.9980 F   0  0  0  0  0  0  0  0  0  0  0  0
  161.8230  205.4800  152.0200 C   0  0  0  0  0  3  0  0  0  0  0  0
  162.0400  204.1170  151.8030 C   0  0  0  0  0  3  0  0  0  0  0  0
  161.5490  203.5050  150.6420 C   0  0  0  0  0  3  0  0  0  0  0  0
  160.5590  212.0250  143.1490 C   0  0  0  0  0  2  0  0  0  0  0  0
  160.5950  211.6660  141.6710 C   0  0  0  0  0  2  0  0  0  0  0  0
  161.6490  212.3340  141.0490 O   0  0  0  0  0  1  0  0  0  0  0  0
  1  8  1  6  0  0  0
  1 10  1  0  0  0  0
  1  7  1  0  0  0  0
  2 12  1  6  0  0  0
  2 11  1  0  0  0  0
  3 29  1  6  0  0  0
  3 15  1  0  0  0  0
  5 43  1  1  0  0  0
  5  2  1  0  0  0  0
  5  8  1  0  0  0  0
  6  3  1  0  0  0  0
  7  9  1  0  0  0  0
  9  3  1  0  0  0  0
 10  6  1  1  0  0  0
 11 10  1  0  0  0  0
 11  4  1  1  0  0  0
 13 17  1  0  0  0  0
 15 16  1  6  0  0  0
 15 13  1  0  0  0  0
 16 14  1  0  0  0  0
 17 14  1  0  0  0  0
 17 18  1  1  0  0  0
 18 19  1  0  0  0  0
 19 28  1  0  0  0  0
 21 24  1  0  0  0  0
 22 24  1  0  0  0  0
 22 26  1  0  0  0  0
 22 20  1  1  0  0  0
 23 26  1  0  0  0  0
 25 21  1  0  0  0  0
 27 21  2  0  0  0  0
 27 23  1  0  0  0  0
 28 23  2  0  0  0  0
 29 30  1  1  0  0  0
 29 31  1  0  0  0  0
 32 34  1  0  0  0  0
 32 33  1  0  0  0  0
 33 35  1  1  0  0  0
 34 31  1  6  0  0  0
 34 33  1  0  0  0  0
 36 35  1  0  0  0  0
 36 40  1  0  0  0  0
 37 38  1  0  0  0  0
 37 42  2  0  0  0  0
 38 36  2  0  0  0  0
 39 38  1  0  0  0  0
 41 40  2  0  0  0  0
 42 41  1  0  0  0  0
 44 43  1  0  0  0  0
 45 44  1  0  0  0  0
M  END
>  <MODEL>
6

>  <REMARK>
 VINA RESULT:      -5.0      3.406      8.942
  Name = 
  11 active torsions:
  status: ('A' for Active; 'I' for Inactive)
    1  A    between atoms: C_3  and  C_8
    2  A    between atoms: C_3  and  C_23
    3  A    between atoms: C_4  and  C_7
    4  A    between atoms: C_6  and  C_8
    5  A    between atoms: C_6  and  C_28
    6  A    between atoms: C_7  and  C_25
    7  A    between atoms: O_10  and  C_31
    8  A    between atoms: O_10  and  N_43
    9  A    between atoms: C_15  and  C_26
   10  A    between atoms: C_16  and  C_26
   11  A    between atoms: C_29  and  C_31
                            x       y       z     vdW  Elec       q    Type
                         _______ _______ _______ _____ _____    ______ ____

>  <TORSDO>
F 11

$$$$
=
 OpenBabel11072412033D

 45 50  0  0  1  0  0  0  0  0999 V2000
  159.8330  214.2250  149.0060 C   0  0  1  0  0  3  0  0  0  0  0  0
  158.8000  213.5190  146.4450 C   0  0  2  0  0  3  0  0  0  0  0  0
  158.4850  213.3720  151.5580 C   0  0  1  0  0  0  0  0  0  0  0  0
  156.8140  214.3820  147.6470 C   0  0  0  0  0  1  0  0  0  0  0  0
  160.2660  213.1350  146.6960 C   0  0  1  0  0  3  0  0  0  0  0  0
  157.7340  213.4020  150.2100 C   0  0  0  0  0  2  0  0  0  0  0  0
  160.5710  214.1790  150.3390 C   0  0  0  0  0  2  0  0  0  0  0  0
  160.8410  213.9210  147.8870 C   0  0  0  0  0  2  0  0  0  0  0  0
  159.6130  214.4230  151.5040 C   0  0  0  0  0  2  0  0  0  0  0  0
  158.6550  213.2370  148.9920 C   0  0  1  0  0  3  0  0  0  0  0  0
  157.8810  213.2940  147.6560 C   0  0  2  0  0  3  0  0  0  0  0  0
  158.2880  212.8760  145.3140 O   0  0  0  0  0  1  0  0  0  0  0  0
  158.1970  214.4360  153.8920 C   0  0  0  0  0  2  0  0  0  0  0  0
  157.1960  212.4260  154.7680 C   0  0  0  0  0  2  0  0  0  0  0  0
  157.5100  213.7450  152.7140 C   0  0  2  0  0  3  0  0  0  0  0  0
  156.7940  212.5290  153.3060 C   0  0  0  0  0  2  0  0  0  0  0  0
  158.3750  213.3540  154.9340 C   0  0  2  0  0  3  0  0  0  0  0  0
  158.4880  213.9040  156.3520 C   0  0  0  0  0  2  0  0  0  0  0  0
  159.0110  212.9390  157.2500 O   0  0  0  0  0  0  0  0  0  0  0  0
  160.3700  207.2430  155.5300 C   0  0  0  0  0  1  0  0  0  0  0  0
  162.2050  210.4940  156.3880 C   0  0  0  0  0  0  0  0  0  0  0  0
  160.5800  208.7350  155.6310 C   0  0  2  0  0  3  0  0  0  0  0  0
  159.7990  210.8010  156.7580 C   0  0  0  0  0  0  0  0  0  0  0  0
  161.9900  209.0230  156.1510 C   0  0  0  0  0  2  0  0  0  0  0  0
  163.4890  211.0100  156.3260 O   0  0  0  0  0  1  0  0  0  0  0  0
  159.5340  209.3400  156.5580 C   0  0  0  0  0  2  0  0  0  0  0  0
  161.1890  211.3040  156.6910 C   0  0  0  0  0  3  0  0  0  0  0  0
  158.8130  211.5960  157.0250 N   0  0  0  0  0  0  0  0  0  0  0  0
  159.1040  211.9690  151.7820 C   0  0  2  0  0  3  0  0  0  0  0  0
  158.2310  211.0690  152.4010 O   0  0  0  0  0  1  0  0  0  0  0  0
  160.5060  211.9780  152.4100 C   0  0  0  0  0  2  0  0  0  0  0  0
  162.1680  210.1970  152.6900 C   0  0  0  0  0  2  0  0  0  0  0  0
  161.1380  209.6550  151.7150 C   0  0  1  0  0  3  0  0  0  0  0  0
  161.5340  211.1250  151.6780 C   0  0  1  0  0  3  0  0  0  0  0  0
  161.8920  208.8110  150.6820 C   0  0  0  0  0  2  0  0  0  0  0  0
  161.4610  207.3720  150.6530 C   0  0  0  0  0  0  0  0  0  0  0  0
  161.1630  205.2350  151.7690 C   0  0  0  0  0  3  0  0  0  0  0  0
  161.5770  206.5720  151.8040 C   0  0  0  0  0  0  0  0  0  0  0  0
  162.0910  207.0800  152.9510 F   0  0  0  0  0  0  0  0  0  0  0  0
  160.9360  206.8260  149.4770 C   0  0  0  0  0  3  0  0  0  0  0  0
  160.5230  205.4910  149.4440 C   0  0  0  0  0  3  0  0  0  0  0  0
  160.6360  204.6950  150.5910 C   0  0  0  0  0  3  0  0  0  0  0  0
  160.4540  211.6330  146.9180 C   0  0  0  0  0  2  0  0  0  0  0  0
  161.5990  211.3590  147.8820 C   0  0  0  0  0  2  0  0  0  0  0  0
  162.7430  212.0330  147.4590 O   0  0  0  0  0  1  0  0  0  0  0  0
  1  8  1  6  0  0  0
  1  7  1  0  0  0  0
  2 12  1  6  0  0  0
  2  5  1  0  0  0  0
  2 11  1  0  0  0  0
  3 29  1  1  0  0  0
  3 15  1  0  0  0  0
  5 43  1  1  0  0  0
  5  8  1  0  0  0  0
  6  3  1  0  0  0  0
  7  9  1  0  0  0  0
  9  3  1  0  0  0  0
 10  1  1  0  0  0  0
 10  6  1  1  0  0  0
 11  4  1  1  0  0  0
 11 10  1  0  0  0  0
 13 17  1  0  0  0  0
 14 17  1  0  0  0  0
 15 16  1  1  0  0  0
 15 13  1  0  0  0  0
 16 14  1  0  0  0  0
 17 18  1  1  0  0  0
 18 19  1  0  0  0  0
 21 27  2  0  0  0  0
 22 20  1  1  0  0  0
 22 24  1  0  0  0  0
 22 26  1  0  0  0  0
 23 28  2  0  0  0  0
 24 21  1  0  0  0  0
 25 21  1  0  0  0  0
 26 23  1  0  0  0  0
 27 23  1  0  0  0  0
 28 19  1  0  0  0  0
 29 30  1  1  0  0  0
 29 31  1  0  0  0  0
 33 35  1  6  0  0  0
 33 32  1  0  0  0  0
 34 33  1  0  0  0  0
 34 31  1  1  0  0  0
 34 32  1  0  0  0  0
 36 35  1  0  0  0  0
 36 38  1  0  0  0  0
 37 38  2  0  0  0  0
 38 39  1  0  0  0  0
 40 36  2  0  0  0  0
 41 40  1  0  0  0  0
 41 42  2  0  0  0  0
 42 37  1  0  0  0  0
 43 44  1  0  0  0  0
 45 44  1  0  0  0  0
M  END
>  <MODEL>
7

>  <REMARK>
 VINA RESULT:      -4.9      2.951      7.620
  Name = 
  11 active torsions:
  status: ('A' for Active; 'I' for Inactive)
    1  A    between atoms: C_3  and  C_8
    2  A    between atoms: C_3  and  C_23
    3  A    between atoms: C_4  and  C_7
    4  A    between atoms: C_6  and  C_8
    5  A    between atoms: C_6  and  C_28
    6  A    between atoms: C_7  and  C_25
    7  A    between atoms: O_10  and  C_31
    8  A    between atoms: O_10  and  N_43
    9  A    between atoms: C_15  and  C_26
   10  A    between atoms: C_16  and  C_26
   11  A    between atoms: C_29  and  C_31
                            x       y       z     vdW  Elec       q    Type
                         _______ _______ _______ _____ _____    ______ ____

>  <TORSDO>
F 11

$$$$
=
 OpenBabel11072412033D

 45 50  0  0  1  0  0  0  0  0999 V2000
  161.4700  210.6500  155.2390 C   0  0  1  0  0  3  0  0  0  0  0  0
  158.9600  210.5310  156.5840 C   0  0  2  0  0  3  0  0  0  0  0  0
  161.8820  209.4200  152.5240 C   0  0  1  0  0  0  0  0  0  0  0  0
  159.3310  208.1930  155.8550 C   0  0  0  0  0  1  0  0  0  0  0  0
  159.5490  211.9380  156.4080 C   0  0  1  0  0  3  0  0  0  0  0  0
  160.7190  208.9930  153.4440 C   0  0  0  0  0  2  0  0  0  0  0  0
  162.6060  211.0780  154.3180 C   0  0  0  0  0  2  0  0  0  0  0  0
  161.0510  211.8650  156.0820 C   0  0  0  0  0  2  0  0  0  0  0  0
  163.0380  209.9260  153.4110 C   0  0  0  0  0  2  0  0  0  0  0  0
  160.2880  210.0850  154.4340 C   0  0  1  0  0  3  0  0  0  0  0  0
  159.1400  209.6220  155.3590 C   0  0  2  0  0  3  0  0  0  0  0  0
  157.6150  210.5830  156.9640 O   0  0  0  0  0  1  0  0  0  0  0  0
  161.8710  208.1800  150.2600 C   0  0  0  0  0  2  0  0  0  0  0  0
  161.0780  206.1510  151.2890 C   0  0  0  0  0  2  0  0  0  0  0  0
  162.3820  208.1970  151.7010 C   0  0  2  0  0  3  0  0  0  0  0  0
  161.9590  206.8560  152.3070 C   0  0  0  0  0  2  0  0  0  0  0  0
  160.7220  207.1970  150.2610 C   0  0  2  0  0  3  0  0  0  0  0  0
  160.4530  206.5930  148.8860 C   0  0  0  0  0  2  0  0  0  0  0  0
  161.5890  205.9120  148.3790 O   0  0  0  0  0  0  0  0  0  0  0  0
  161.2090  199.9790  147.0020 C   0  0  0  0  0  1  0  0  0  0  0  0
  160.9930  202.2220  150.0980 C   0  0  0  0  0  0  0  0  0  0  0  0
  161.5150  201.1680  147.8790 C   0  0  2  0  0  3  0  0  0  0  0  0
  161.2440  203.6240  148.1000 C   0  0  0  0  0  0  0  0  0  0  0  0
  160.8200  201.0030  149.2330 C   0  0  0  0  0  2  0  0  0  0  0  0
  160.9350  202.0900  151.4760 O   0  0  0  0  0  1  0  0  0  0  0  0
  161.0510  202.4470  147.1940 C   0  0  0  0  0  2  0  0  0  0  0  0
  161.1660  203.4340  149.5650 C   0  0  0  0  0  3  0  0  0  0  0  0
  161.4390  204.7960  147.5880 N   0  0  0  0  0  0  0  0  0  0  0  0
  161.4160  210.5670  151.5900 C   0  0  2  0  0  3  0  0  0  0  0  0
  160.0330  210.7760  151.6140 O   0  0  0  0  0  1  0  0  0  0  0  0
  161.9920  210.5100  150.1670 C   0  0  0  0  0  2  0  0  0  0  0  0
  163.0810  211.8240  148.4060 C   0  0  0  0  0  2  0  0  0  0  0  0
  161.6510  211.6090  147.9410 C   0  0  1  0  0  3  0  0  0  0  0  0
  161.9550  211.8350  149.4160 C   0  0  1  0  0  3  0  0  0  0  0  0
  161.2100  212.8880  147.2220 C   0  0  0  0  0  2  0  0  0  0  0  0
  159.7480  212.9110  146.8800 C   0  0  0  0  0  0  0  0  0  0  0  0
  157.4380  213.3080  147.5180 C   0  0  0  0  0  3  0  0  0  0  0  0
  158.7970  213.2790  147.8500 C   0  0  0  0  0  0  0  0  0  0  0  0
  159.1830  213.6030  149.1090 F   0  0  0  0  0  0  0  0  0  0  0  0
  159.3290  212.5740  145.5890 C   0  0  0  0  0  3  0  0  0  0  0  0
  157.9710  212.6030  145.2600 C   0  0  0  0  0  3  0  0  0  0  0  0
  157.0240  212.9720  146.2250 C   0  0  0  0  0  3  0  0  0  0  0  0
  158.8200  212.7550  155.3400 C   0  0  0  0  0  2  0  0  0  0  0  0
  158.1400  213.9730  155.9490 C   0  0  0  0  0  2  0  0  0  0  0  0
  156.8450  214.0900  155.4470 O   0  0  0  0  0  1  0  0  0  0  0  0
  1  7  1  6  0  0  0
  1  8  1  0  0  0  0
  2 12  1  6  0  0  0
  3 29  1  6  0  0  0
  3  9  1  0  0  0  0
  3  6  1  0  0  0  0
  5 43  1  6  0  0  0
  5  2  1  0  0  0  0
  8  5  1  0  0  0  0
  9  7  1  0  0  0  0
 10  6  1  1  0  0  0
 10  1  1  0  0  0  0
 10 11  1  0  0  0  0
 11  4  1  1  0  0  0
 11  2  1  0  0  0  0
 13 17  1  0  0  0  0
 14 16  1  0  0  0  0
 15 13  1  6  0  0  0
 15 16  1  0  0  0  0
 15  3  1  0  0  0  0
 17 18  1  6  0  0  0
 17 14  1  0  0  0  0
 19 18  1  0  0  0  0
 21 25  1  0  0  0  0
 22 20  1  6  0  0  0
 22 24  1  0  0  0  0
 23 27  1  0  0  0  0
 24 21  1  0  0  0  0
 26 22  1  0  0  0  0
 26 23  1  0  0  0  0
 27 21  2  0  0  0  0
 28 23  2  0  0  0  0
 28 19  1  0  0  0  0
 29 30  1  6  0  0  0
 31 29  1  0  0  0  0
 32 34  1  0  0  0  0
 33 35  1  6  0  0  0
 33 32  1  0  0  0  0
 33 34  1  0  0  0  0
 34 31  1  1  0  0  0
 36 35  1  0  0  0  0
 36 38  1  0  0  0  0
 37 38  2  0  0  0  0
 38 39  1  0  0  0  0
 40 36  2  0  0  0  0
 41 40  1  0  0  0  0
 41 42  2  0  0  0  0
 42 37  1  0  0  0  0
 43 44  1  0  0  0  0
 45 44  1  0  0  0  0
M  END
>  <MODEL>
8

>  <REMARK>
 VINA RESULT:      -4.9      2.206      3.742
  Name = 
  11 active torsions:
  status: ('A' for Active; 'I' for Inactive)
    1  A    between atoms: C_3  and  C_8
    2  A    between atoms: C_3  and  C_23
    3  A    between atoms: C_4  and  C_7
    4  A    between atoms: C_6  and  C_8
    5  A    between atoms: C_6  and  C_28
    6  A    between atoms: C_7  and  C_25
    7  A    between atoms: O_10  and  C_31
    8  A    between atoms: O_10  and  N_43
    9  A    between atoms: C_15  and  C_26
   10  A    between atoms: C_16  and  C_26
   11  A    between atoms: C_29  and  C_31
                            x       y       z     vdW  Elec       q    Type
                         _______ _______ _______ _____ _____    ______ ____

>  <TORSDO>
F 11

$$$$
=
 OpenBabel11072412033D

 45 50  0  0  1  0  0  0  0  0999 V2000
  162.6570  205.5820  146.8060 C   0  0  1  0  0  3  0  0  0  0  0  0
  160.9680  204.2490  144.9360 C   0  0  2  0  0  3  0  0  0  0  0  0
  161.5490  207.3540  148.9710 C   0  0  1  0  0  0  0  0  0  0  0  0
  160.1260  206.5780  144.9120 C   0  0  0  0  0  1  0  0  0  0  0  0
  161.9420  203.3460  145.7080 C   0  0  1  0  0  3  0  0  0  0  0  0
  160.7340  207.0010  147.7100 C   0  0  0  0  0  2  0  0  0  0  0  0
  163.4510  205.9220  148.0620 C   0  0  0  0  0  2  0  0  0  0  0  0
  163.0710  204.1760  146.3410 C   0  0  0  0  0  2  0  0  0  0  0  0
  163.0480  207.2910  148.6090 C   0  0  0  0  0  2  0  0  0  0  0  0
  161.1440  205.6680  147.0680 C   0  0  1  0  0  3  0  0  0  0  0  0
  160.3280  205.3520  145.7940 C   0  0  2  0  0  3  0  0  0  0  0  0
  159.9830  203.5010  144.2840 O   0  0  0  0  0  1  0  0  0  0  0  0
  161.5190  209.8680  148.3830 C   0  0  0  0  0  2  0  0  0  0  0  0
  162.8400  210.4140  150.3240 C   0  0  0  0  0  2  0  0  0  0  0  0
  161.2080  208.8010  149.4340 C   0  0  2  0  0  3  0  0  0  0  0  0
  161.9730  209.2220  150.6910 C   0  0  0  0  0  2  0  0  0  0  0  0
  162.8360  210.4740  148.8150 C   0  0  2  0  0  3  0  0  0  0  0  0
  163.0410  211.8900  148.2880 C   0  0  0  0  0  2  0  0  0  0  0  0
  161.8550  212.4160  147.7170 O   0  0  0  0  0  0  0  0  0  0  0  0
  159.7800  213.9230  142.1790 C   0  0  0  0  0  1  0  0  0  0  0  0
  158.3830  212.6960  145.5270 C   0  0  0  0  0  0  0  0  0  0  0  0
  159.7740  213.1800  143.4930 C   0  0  2  0  0  3  0  0  0  0  0  0
  160.7960  213.0820  145.7500 C   0  0  0  0  0  0  0  0  0  0  0  0
  158.4010  213.3160  144.1560 C   0  0  0  0  0  2  0  0  0  0  0  0
  157.1850  212.2360  146.0480 O   0  0  0  0  0  1  0  0  0  0  0  0
  160.8640  213.7320  144.4020 C   0  0  0  0  0  2  0  0  0  0  0  0
  159.4910  212.6140  146.2670 C   0  0  0  0  0  3  0  0  0  0  0  0
  161.8730  212.9750  146.4600 N   0  0  0  0  0  0  0  0  0  0  0  0
  161.2510  206.3260  150.0920 C   0  0  2  0  0  3  0  0  0  0  0  0
  159.9030  205.9620  150.1680 O   0  0  0  0  0  1  0  0  0  0  0  0
  161.8610  206.6720  151.4590 C   0  0  0  0  0  2  0  0  0  0  0  0
  161.2050  205.5210  153.5230 C   0  0  0  0  0  2  0  0  0  0  0  0
  161.5760  206.9350  153.9350 C   0  0  1  0  0  3  0  0  0  0  0  0
  160.8650  206.6800  152.6130 C   0  0  1  0  0  3  0  0  0  0  0  0
  160.6160  207.3480  155.0550 C   0  0  0  0  0  2  0  0  0  0  0  0
  160.7020  208.8040  155.4140 C   0  0  0  0  0  0  0  0  0  0  0  0
  161.7860  210.6250  156.6010 C   0  0  0  0  0  3  0  0  0  0  0  0
  161.7080  209.2650  156.2820 C   0  0  0  0  0  0  0  0  0  0  0  0
  162.6060  208.4020  156.8190 F   0  0  0  0  0  0  0  0  0  0  0  0
  159.7800  209.7090  154.8760 C   0  0  0  0  0  3  0  0  0  0  0  0
  159.8590  211.0670  155.1960 C   0  0  0  0  0  3  0  0  0  0  0  0
  160.8640  211.5260  156.0580 C   0  0  0  0  0  3  0  0  0  0  0  0
  161.2460  202.5040  146.7780 C   0  0  0  0  0  2  0  0  0  0  0  0
  160.8310  201.1470  146.2270 C   0  0  0  0  0  2  0  0  0  0  0  0
  161.5800  200.1420  146.8360 O   0  0  0  0  0  1  0  0  0  0  0  0
  1  8  1  1  0  0  0
  1 10  1  0  0  0  0
  1  7  1  0  0  0  0
  2 12  1  1  0  0  0
  2  5  1  0  0  0  0
  2 11  1  0  0  0  0
  3 15  1  0  0  0  0
  3 29  1  1  0  0  0
  5  8  1  0  0  0  0
  5 43  1  1  0  0  0
  6  3  1  0  0  0  0
  7  9  1  0  0  0  0
  9  3  1  0  0  0  0
 10  6  1  6  0  0  0
 11  4  1  6  0  0  0
 11 10  1  0  0  0  0
 13 17  1  0  0  0  0
 14 16  1  0  0  0  0
 15 13  1  6  0  0  0
 15 16  1  0  0  0  0
 17 18  1  1  0  0  0
 17 14  1  0  0  0  0
 19 18  1  0  0  0  0
 21 25  1  0  0  0  0
 21 27  2  0  0  0  0
 22 20  1  6  0  0  0
 22 24  1  0  0  0  0
 22 26  1  0  0  0  0
 23 27  1  0  0  0  0
 23 28  2  0  0  0  0
 24 21  1  0  0  0  0
 26 23  1  0  0  0  0
 28 19  1  0  0  0  0
 29 30  1  1  0  0  0
 29 31  1  0  0  0  0
 32 33  1  0  0  0  0
 33 35  1  1  0  0  0
 34 31  1  6  0  0  0
 34 32  1  0  0  0  0
 34 33  1  0  0  0  0
 35 36  1  0  0  0  0
 36 38  1  0  0  0  0
 38 37  2  0  0  0  0
 38 39  1  0  0  0  0
 40 41  1  0  0  0  0
 40 36  2  0  0  0  0
 41 42  2  0  0  0  0
 42 37  1  0  0  0  0
 44 43  1  0  0  0  0
 44 45  1  0  0  0  0
M  END
>  <MODEL>
9

>  <REMARK>
 VINA RESULT:      -4.6      3.490     10.021
  Name = 
  11 active torsions:
  status: ('A' for Active; 'I' for Inactive)
    1  A    between atoms: C_3  and  C_8
    2  A    between atoms: C_3  and  C_23
    3  A    between atoms: C_4  and  C_7
    4  A    between atoms: C_6  and  C_8
    5  A    between atoms: C_6  and  C_28
    6  A    between atoms: C_7  and  C_25
    7  A    between atoms: O_10  and  C_31
    8  A    between atoms: O_10  and  N_43
    9  A    between atoms: C_15  and  C_26
   10  A    between atoms: C_16  and  C_26
   11  A    between atoms: C_29  and  C_31
                            x       y       z     vdW  Elec       q    Type
                         _______ _______ _______ _____ _____    ______ ____

>  <TORSDO>
F 11

$$$$
