=
 OpenBabel11072414023D

 61 63  0  0  1  0  0  0  0  0999 V2000
  163.1760  206.9380  152.4100 O   0  0  0  0  0  1  0  0  0  0  0  0
  161.4940  209.3760  150.9700 C   0  0  2  0  0  3  0  0  0  0  0  0
  160.6520  208.9570  152.1940 C   0  0  1  0  0  3  0  0  0  0  0  0
  162.5670  207.4030  147.8850 C   0  0  0  0  0  2  0  0  0  0  0  0
  161.9880  206.9260  153.1420 C   0  0  1  0  0  3  0  0  0  0  0  0
  161.9250  208.2040  150.0680 C   0  0  1  0  0  3  0  0  0  0  0  0
  161.4410  208.3410  153.3830 C   0  0  2  0  0  3  0  0  0  0  0  0
  161.3570  206.6090  148.3630 C   0  0  1  0  0  3  0  0  0  0  0  0
  160.9650  205.9330  152.5760 C   0  0  1  0  0  3  0  0  0  0  0  0
  161.1780  205.7060  151.2110 O   0  0  0  0  0  0  0  0  0  0  0  0
  160.6280  208.3100  154.6720 C   0  0  0  0  0  1  0  0  0  0  0  0
  160.7660  207.3780  149.5280 C   0  0  1  0  0  3  0  0  0  0  0  0
  162.7260  208.5880  148.8230 C   0  0  2  0  0  3  0  0  0  0  0  0
  162.1610  209.8230  148.1270 C   0  0  0  0  0  1  0  0  0  0  0  0
  160.1720  206.4250  150.5620 C   0  0  0  0  0  2  0  0  0  0  0  0
  159.7750  210.1030  152.5980 C   0  0  0  0  0  0  0  0  0  0  0  0
  158.6380  210.2230  152.0740 O   0  0  0  0  0  0  0  0  0  0  0  0
  160.2390  211.0400  153.5220 O   0  0  0  0  0  0  0  0  0  0  0  0
  159.3930  211.5990  154.5180 C   0  0  1  0  0  3  0  0  0  0  0  0
  160.2000  212.5330  155.4270 C   0  0  0  0  0  2  0  0  0  0  0  0
  160.0970  212.1630  156.8780 C   0  0  0  0  0  3  0  0  0  0  0  0
  160.2430  211.0060  157.2400 O   0  0  0  0  0  0  0  0  0  0  0  0
  158.2130  212.3050  153.8600 C   0  0  0  0  0  2  0  0  0  0  0  0
  157.0600  212.4460  154.8410 C   0  0  0  0  0  2  0  0  0  0  0  0
  156.2830  211.1440  154.9300 C   0  0  0  0  0  2  0  0  0  0  0  0
  155.1120  211.2100  156.3230 S   0  0  0  0  0  0  0  0  0  0  0  0
  156.0220  212.5690  157.1130 C   0  0  0  0  0  1  0  0  0  0  0  0
  161.0680  204.6200  153.3350 C   0  0  0  0  0  2  0  0  0  0  0  0
  160.8180  203.4540  152.3970 C   0  0  0  0  0  1  0  0  0  0  0  0
  162.6070  210.3960  151.2700 C   0  0  0  0  0  2  0  0  0  0  0  0
  162.5420  211.5950  150.3830 C   0  0  0  0  0  3  0  0  0  0  0  0
  161.3850  212.1890  150.1190 C   0  0  0  0  0  3  0  0  0  0  0  0
  161.3340  213.4090  149.2460 C   0  0  1  0  0  3  0  0  0  0  0  0
  163.3670  214.4260  148.4080 O   0  0  0  0  0  1  0  0  0  0  0  0
  162.4280  213.4200  148.1670 C   0  0  0  0  0  2  0  0  0  0  0  0
  159.9230  213.6190  148.6850 C   0  0  1  0  0  3  0  0  0  0  0  0
  159.0110  214.2690  149.7260 C   0  0  0  0  0  2  0  0  0  0  0  0
  157.6540  213.6440  149.7270 C   0  0  0  0  0  0  0  0  0  0  0  0
  157.3190  212.8770  148.7870 O   0  0  0  0  0  0  0  0  0  0  0  0
  156.7670  213.8910  150.7700 O   0  0  0  0  0  1  0  0  0  0  0  0
  159.9700  214.4160  147.5050 O   0  0  0  0  0  0  0  0  0  0  0  0
  158.1560  214.4090  146.0710 O   0  0  0  0  0  0  0  0  0  0  0  0
  159.3390  214.0470  146.3130 C   0  0  0  0  0  0  0  0  0  0  0  0
  161.4420  213.7650  145.1550 N   0  0  0  0  0  1  0  0  0  0  0  0
  160.0870  213.2480  145.2910 C   0  0  2  0  0  3  0  0  0  0  0  0
  159.5410  211.9900  143.2990 O   0  0  0  0  0  1  0  0  0  0  0  0
  159.3880  213.2280  143.9300 C   0  0  2  0  0  3  0  0  0  0  0  0
  159.9080  214.3370  143.0310 C   0  0  0  0  0  1  0  0  0  0  0  0
  160.3350  206.4570  147.2490 C   0  0  0  0  0  2  0  0  0  0  0  0
  161.0060  206.2960  146.0070 O   0  0  0  0  0  0  0  0  0  0  0  0
  161.6600  205.1130  145.6550 C   0  0  0  0  0  0  0  0  0  0  0  0
  162.8970  204.9850  145.8680 O   0  0  0  0  0  0  0  0  0  0  0  0
  160.8360  203.9920  145.0610 C   0  0  0  0  0  2  0  0  0  0  0  0
  161.1730  202.9960  147.2420 C   0  0  0  0  0  2  0  0  0  0  0  0
  160.3840  202.9570  146.0000 N   0  0  0  0  0  0  0  0  0  0  0  0
  160.4980  201.6240  145.4140 C   0  0  0  0  0  2  0  0  0  0  0  0
  161.5220  201.5720  147.6480 C   0  0  2  0  0  3  0  0  0  0  0  0
  161.3010  199.5890  146.3400 O   0  0  0  0  0  0  0  0  0  0  0  0
  161.1190  200.7910  146.4590 C   0  0  0  0  0  0  0  0  0  0  0  0
  160.1890  202.3200  149.4810 O   0  0  0  0  0  1  0  0  0  0  0  0
  160.6930  201.1770  148.8610 C   0  0  0  0  0  2  0  0  0  0  0  0
  2 30  1  1  0  0  0
  2  3  1  0  0  0  0
  3 16  1  1  0  0  0
  3  7  1  0  0  0  0
  4  8  1  0  0  0  0
  4 13  1  0  0  0  0
  5  1  1  6  0  0  0
  5  7  1  0  0  0  0
  6  2  1  0  0  0  0
  7 11  1  0  0  0  0
  8 12  1  0  0  0  0
  9  5  1  0  0  0  0
  9 28  1  0  0  0  0
 10  9  1  0  0  0  0
 12  6  1  0  0  0  0
 12 15  1  0  0  0  0
 13  6  1  0  0  0  0
 14 13  1  0  0  0  0
 15 10  1  0  0  0  0
 16 18  1  0  0  0  0
 17 16  2  0  0  0  0
 18 19  1  0  0  0  0
 19 20  1  0  0  0  0
 20 21  1  0  0  0  0
 21 22  2  0  0  0  0
 23 19  1  0  0  0  0
 23 24  1  0  0  0  0
 24 25  1  0  0  0  0
 25 26  1  0  0  0  0
 26 27  1  0  0  0  0
 29 28  1  0  0  0  0
 31 30  1  0  0  0  0
 32 31  2  0  0  0  0
 33 32  1  0  0  0  0
 35 34  1  0  0  0  0
 35 33  1  0  0  0  0
 36 33  1  0  0  0  0
 36 37  1  0  0  0  0
 37 38  1  0  0  0  0
 38 40  1  0  0  0  0
 39 38  2  0  0  0  0
 41 36  1  0  0  0  0
 42 43  2  0  0  0  0
 43 41  1  0  0  0  0
 44 45  1  0  0  0  0
 45 43  1  0  0  0  0
 46 47  1  0  0  0  0
 47 45  1  0  0  0  0
 48 47  1  0  0  0  0
 49  8  1  0  0  0  0
 50 49  1  0  0  0  0
 51 52  2  0  0  0  0
 51 50  1  0  0  0  0
 53 51  1  0  0  0  0
 53 55  1  0  0  0  0
 54 57  1  0  0  0  0
 55 54  1  0  0  0  0
 56 55  1  0  0  0  0
 56 59  1  0  0  0  0
 57 61  1  0  0  0  0
 58 59  2  0  0  0  0
 59 57  1  0  0  0  0
 61 60  1  0  0  0  0
M  END
>  <MODEL>
1

>  <REMARK>
 VINA RESULT:      -2.8      0.000      0.000
  Name = 
  27 active torsions:
  status: ('A' for Active; 'I' for Inactive)
    1  A    between atoms: O_2  and  C_4
    2  A    between atoms: O_2  and  C_27
    3  A    between atoms: C_3  and  C_43
    4  A    between atoms: C_4  and  C_28
    5  A    between atoms: C_5  and  C_61
    6  A    between atoms: C_7  and  C_24
    7  A    between atoms: C_8  and  C_43
    8  A    between atoms: N_9  and  C_21
    9  A    between atoms: C_10  and  C_46
   10  A    between atoms: C_17  and  C_33
   11  A    between atoms: C_18  and  C_22
   12  A    between atoms: C_18  and  O_35
   13  A    between atoms: C_18  and  C_61
   14  A    between atoms: S_19  and  C_32
   15  A    between atoms: C_21  and  C_27
   16  A    between atoms: C_22  and  C_47
   17  A    between atoms: C_22  and  C_56
   18  A    between atoms: C_24  and  C_41
   19  A    between atoms: C_31  and  C_41
   20  A    between atoms: C_31  and  C_44
   21  A    between atoms: C_32  and  C_44
   22  A    between atoms: O_35  and  C_37
   23  A    between atoms: C_37  and  C_48
   24  A    between atoms: C_40  and  C_52
   25  A    between atoms: C_41  and  O_57
   26  A    between atoms: C_46  and  O_57
   27  A    between atoms: C_48  and  C_53
                            x       y       z     vdW  Elec       q    Type
                         _______ _______ _______ _____ _____    ______ ____

>  <TORSDO>
F 27

$$$$
