=
 OpenBabel11072413213D

 44 50  0  0  1  0  0  0  0  0999 V2000
  158.9290  212.9330  154.6380 C   0  0  1  0  0  0  0  0  0  0  0  0
  161.4430  210.7290  148.3770 C   0  0  0  0  0  2  0  0  0  0  0  0
  161.2670  209.8070  155.4780 C   0  0  0  0  0  2  0  0  0  0  0  0
  157.4410  212.4900  154.6070 C   0  0  2  0  0  0  0  0  0  0  0  0
  162.2020  208.4930  148.8070 O   0  0  0  0  0  0  0  0  0  0  0  0
  159.8030  211.1740  153.1250 O   0  0  0  0  0  0  0  0  0  0  0  0
  161.1790  212.0770  150.4250 O   0  0  0  0  0  0  0  0  0  0  0  0
  161.8200  209.5940  149.2830 C   0  0  0  0  0  0  0  0  0  0  0  0
  159.8890  207.3660  155.7410 C   0  0  1  0  0  3  0  0  0  0  0  0
  161.1430  210.8920  152.7460 C   0  0  2  0  0  3  0  0  0  0  0  0
  161.5200  208.8150  154.3440 C   0  0  2  0  0  3  0  0  0  0  0  0
  159.4180  211.1320  156.5200 C   0  0  0  0  0  2  0  0  0  0  0  0
  161.7720  208.8380  151.8060 C   0  0  0  0  0  0  0  0  0  0  0  0
  161.6680  212.0820  149.0760 C   0  0  2  0  0  3  0  0  0  0  0  0
  160.5850  213.5520  152.7800 C   0  0  0  0  0  1  0  0  0  0  0  0
  156.9650  211.4640  155.4210 O   0  0  0  0  0  1  0  0  0  0  0  0
  161.3190  210.9470  151.2400 C   0  0  0  0  0  0  0  0  0  0  0  0
  158.9240  214.4510  154.8600 C   0  0  0  0  0  1  0  0  0  0  0  0
  161.4540  209.4770  153.0370 N   0  0  0  0  0  0  0  0  0  0  0  0
  159.7670  209.9160  155.6960 C   0  0  2  0  0  3  0  0  0  0  0  0
  160.8940  206.7940  156.7240 C   0  0  0  0  0  1  0  0  0  0  0  0
  159.8210  212.4090  155.7870 C   0  0  0  0  0  2  0  0  0  0  0  0
  159.2320  208.6290  156.3250 C   0  0  0  0  0  2  0  0  0  0  0  0
  158.2260  212.8040  152.3540 C   0  0  2  0  0  3  0  0  0  0  0  0
  159.4720  212.5730  153.2160 C   0  0  2  0  0  0  0  0  0  0  0  0
  157.0570  212.2540  153.1560 C   0  0  2  0  0  3  0  0  0  0  0  0
  161.6550  209.7800  150.7280 C   0  0  0  0  0  0  0  0  0  0  0  0
  162.1110  207.6300  151.6970 O   0  0  0  0  0  0  0  0  0  0  0  0
  156.3790  213.3550  153.9480 C   0  0  0  0  0  2  0  0  0  0  0  0
  160.5500  207.6090  154.3730 C   0  0  0  0  0  2  0  0  0  0  0  0
  158.2890  212.1470  150.9800 C   0  0  0  0  0  2  0  0  0  0  0  0
  158.2430  213.1290  149.9520 O   0  0  0  0  0  0  0  0  0  0  0  0
  155.9870  213.5800  150.1190 O   0  0  0  0  0  0  0  0  0  0  0  0
  157.0390  213.6090  149.4250 C   0  0  0  0  0  0  0  0  0  0  0  0
  156.9760  214.1270  148.1280 O   0  0  0  0  0  0  0  0  0  0  0  0
  157.2350  213.3950  146.9620 C   0  0  0  0  0  0  0  0  0  0  0  0
  157.7470  212.2430  147.0150 O   0  0  0  0  0  0  0  0  0  0  0  0
  155.6020  214.4040  145.4040 O   0  0  0  0  0  1  0  0  0  0  0  0
  156.9000  213.9800  145.6610 C   0  0  0  0  0  0  0  0  0  0  0  0
  157.7830  214.1030  144.7710 O   0  0  0  0  0  0  0  0  0  0  0  0
  161.0000  213.1890  148.2810 C   0  0  0  0  0  2  0  0  0  0  0  0
  161.7850  213.4730  147.0140 C   0  0  0  0  0  3  0  0  0  0  0  0
  160.9940  212.9790  145.8200 C   0  0  0  0  0  2  0  0  0  0  0  0
  161.0070  214.4530  146.1620 C   0  0  0  0  0  2  0  0  0  0  0  0
  1 18  1  1  0  0  0
  1 22  1  0  0  0  0
  2 14  1  0  0  0  0
  2  8  1  0  0  0  0
  4  1  1  0  0  0  0
  4 16  1  1  0  0  0
  5  8  2  0  0  0  0
  6 25  1  0  0  0  0
  7 17  1  0  0  0  0
  8 27  1  0  0  0  0
  9 23  1  0  0  0  0
  9 21  1  1  0  0  0
 10 17  1  6  0  0  0
 10 19  1  0  0  0  0
 10  6  1  0  0  0  0
 11 30  1  6  0  0  0
 11  3  1  0  0  0  0
 13 19  1  0  0  0  0
 14 41  1  6  0  0  0
 14  7  1  0  0  0  0
 19 11  1  0  0  0  0
 20  3  1  1  0  0  0
 20 23  1  0  0  0  0
 20 12  1  0  0  0  0
 22 12  1  0  0  0  0
 24 31  1  6  0  0  0
 24 26  1  0  0  0  0
 24 25  1  0  0  0  0
 25 15  1  6  0  0  0
 25  1  1  0  0  0  0
 26 29  1  6  0  0  0
 26  4  1  0  0  0  0
 27 17  2  0  0  0  0
 27 13  1  0  0  0  0
 28 13  2  0  0  0  0
 29  4  1  0  0  0  0
 30  9  1  0  0  0  0
 32 31  1  0  0  0  0
 34 32  1  0  0  0  0
 34 33  2  0  0  0  0
 35 34  1  0  0  0  0
 36 37  2  0  0  0  0
 36 35  1  0  0  0  0
 38 39  1  0  0  0  0
 39 36  1  0  0  0  0
 40 39  2  0  0  0  0
 42 41  1  0  0  0  0
 43 44  1  0  0  0  0
 43 42  1  0  0  0  0
 44 42  1  0  0  0  0
M  END
>  <MODEL>
1

>  <REMARK>
 VINA RESULT:      -1.4      0.000      0.000
  Name = 
  8 active torsions:
  status: ('A' for Active; 'I' for Inactive)
    1  A    between atoms: C_4  and  C_33
    2  A    between atoms: C_5  and  O_18
    3  A    between atoms: C_5  and  C_37
    4  A    between atoms: O_13  and  C_21
    5  A    between atoms: O_13  and  C_29
    6  A    between atoms: O_18  and  C_29
    7  A    between atoms: C_19  and  C_33
    8  A    between atoms: C_21  and  C_35
                            x       y       z     vdW  Elec       q    Type
                         _______ _______ _______ _____ _____    ______ ____

>  <TORSDO>
F 8

$$$$
=
 OpenBabel11072413213D

 44 50  0  0  1  0  0  0  0  0999 V2000
  161.6670  213.0480  148.4890 C   0  0  1  0  0  0  0  0  0  0  0  0
  157.2520  213.6050  154.0180 C   0  0  0  0  0  2  0  0  0  0  0  0
  158.2500  214.4530  146.9760 C   0  0  0  0  0  2  0  0  0  0  0  0
  161.7620  211.5170  148.2540 C   0  0  2  0  0  0  0  0  0  0  0  0
  155.0740  213.7240  153.0170 O   0  0  0  0  0  0  0  0  0  0  0  0
  159.3980  213.0650  149.4860 O   0  0  0  0  0  0  0  0  0  0  0  0
  159.0750  214.1340  152.4450 O   0  0  0  0  0  0  0  0  0  0  0  0
  156.3210  213.7830  152.8540 C   0  0  0  0  0  0  0  0  0  0  0  0
  156.5680  212.4780  145.8810 C   0  0  1  0  0  3  0  0  0  0  0  0
  158.5930  214.1660  149.8840 C   0  0  2  0  0  3  0  0  0  0  0  0
  156.9810  214.1870  147.7840 C   0  0  2  0  0  3  0  0  0  0  0  0
  160.3390  213.3080  146.2110 C   0  0  0  0  0  2  0  0  0  0  0  0
  156.2820  213.9700  150.2270 C   0  0  0  0  0  0  0  0  0  0  0  0
  158.5780  214.3490  153.7740 C   0  0  2  0  0  3  0  0  0  0  0  0
  161.2040  214.4480  150.5880 C   0  0  0  0  0  1  0  0  0  0  0  0
  161.1970  210.9110  147.1340 O   0  0  0  0  0  1  0  0  0  0  0  0
  158.2070  214.0740  151.3490 C   0  0  0  0  0  0  0  0  0  0  0  0
  163.1010  213.5400  148.7260 C   0  0  0  0  0  1  0  0  0  0  0  0
  157.2770  214.0860  149.2170 N   0  0  0  0  0  0  0  0  0  0  0  0
  158.9120  213.1200  146.6660 C   0  0  2  0  0  3  0  0  0  0  0  0
  155.9540  213.4270  144.8670 C   0  0  0  0  0  1  0  0  0  0  0  0
  161.1770  213.9350  147.3220 C   0  0  0  0  0  2  0  0  0  0  0  0
  158.0830  212.3480  145.6400 C   0  0  0  0  0  2  0  0  0  0  0  0
  161.2180  211.9370  150.5610 C   0  0  2  0  0  3  0  0  0  0  0  0
  160.8010  213.1910  149.7840 C   0  0  2  0  0  0  0  0  0  0  0  0
  161.3150  210.8230  149.5300 C   0  0  2  0  0  3  0  0  0  0  0  0
  156.9060  213.9470  151.5210 C   0  0  0  0  0  0  0  0  0  0  0  0
  155.0440  213.9050  150.0050 O   0  0  0  0  0  0  0  0  0  0  0  0
  162.7410  210.6620  149.0420 C   0  0  0  0  0  2  0  0  0  0  0  0
  156.2230  212.9220  147.3130 C   0  0  0  0  0  2  0  0  0  0  0  0
  160.2570  211.5490  151.6790 C   0  0  0  0  0  2  0  0  0  0  0  0
  160.9350  210.8140  152.6900 O   0  0  0  0  0  0  0  0  0  0  0  0
  160.6000  209.0710  154.1620 O   0  0  0  0  0  0  0  0  0  0  0  0
  160.6420  209.4750  152.9700 C   0  0  0  0  0  0  0  0  0  0  0  0
  160.3900  208.5620  151.9400 O   0  0  0  0  0  0  0  0  0  0  0  0
  161.2800  207.5630  151.5240 C   0  0  0  0  0  0  0  0  0  0  0  0
  162.2970  207.2670  152.2100 O   0  0  0  0  0  0  0  0  0  0  0  0
  161.1660  207.5070  149.0550 O   0  0  0  0  0  0  0  0  0  0  0  0
  161.0190  206.8500  150.2710 C   0  0  0  0  0  0  0  0  0  0  0  0
  160.6600  205.6430  150.2870 O   0  0  0  0  0  1  0  0  0  0  0  0
  159.6090  213.9110  154.7960 C   0  0  0  0  0  2  0  0  0  0  0  0
  158.9310  213.2080  155.9580 C   0  0  0  0  0  3  0  0  0  0  0  0
  159.7170  211.9610  156.3090 C   0  0  0  0  0  2  0  0  0  0  0  0
  159.8660  213.2110  157.1490 C   0  0  0  0  0  2  0  0  0  0  0  0
  1 18  1  1  0  0  0
  1 25  1  0  0  0  0
  4 16  1  6  0  0  0
  4  1  1  0  0  0  0
  4 29  1  0  0  0  0
  4 26  1  0  0  0  0
  6 25  1  0  0  0  0
  7 14  1  0  0  0  0
  8  5  2  0  0  0  0
  8  2  1  0  0  0  0
  9 21  1  6  0  0  0
  9 30  1  0  0  0  0
 10  6  1  6  0  0  0
 10 17  1  0  0  0  0
 11  3  1  6  0  0  0
 11 19  1  0  0  0  0
 12 20  1  0  0  0  0
 12 22  1  0  0  0  0
 13 27  1  0  0  0  0
 14  2  1  0  0  0  0
 14 41  1  1  0  0  0
 17 27  2  0  0  0  0
 17  7  1  0  0  0  0
 19 10  1  0  0  0  0
 19 13  1  0  0  0  0
 20 23  1  6  0  0  0
 20  3  1  0  0  0  0
 22  1  1  0  0  0  0
 23  9  1  0  0  0  0
 24 31  1  1  0  0  0
 25 24  1  0  0  0  0
 25 15  1  1  0  0  0
 26 29  1  1  0  0  0
 26 24  1  0  0  0  0
 27  8  1  0  0  0  0
 28 13  2  0  0  0  0
 30 11  1  0  0  0  0
 31 32  1  0  0  0  0
 32 34  1  0  0  0  0
 34 33  2  0  0  0  0
 35 34  1  0  0  0  0
 36 35  1  0  0  0  0
 36 37  2  0  0  0  0
 38 39  2  0  0  0  0
 39 40  1  0  0  0  0
 39 36  1  0  0  0  0
 41 42  1  0  0  0  0
 42 43  1  0  0  0  0
 42 44  1  0  0  0  0
 43 44  1  0  0  0  0
M  END
>  <MODEL>
2

>  <REMARK>
 VINA RESULT:      -0.9      2.400      8.241
  Name = 
  8 active torsions:
  status: ('A' for Active; 'I' for Inactive)
    1  A    between atoms: C_4  and  C_33
    2  A    between atoms: C_5  and  O_18
    3  A    between atoms: C_5  and  C_37
    4  A    between atoms: O_13  and  C_21
    5  A    between atoms: O_13  and  C_29
    6  A    between atoms: O_18  and  C_29
    7  A    between atoms: C_19  and  C_33
    8  A    between atoms: C_21  and  C_35
                            x       y       z     vdW  Elec       q    Type
                         _______ _______ _______ _____ _____    ______ ____

>  <TORSDO>
F 8

$$$$
=
 OpenBabel11072413213D

 44 50  0  0  1  0  0  0  0  0999 V2000
  160.8410  205.1100  145.9900 C   0  0  1  0  0  0  0  0  0  0  0  0
  161.5560  207.4020  152.6700 C   0  0  0  0  0  2  0  0  0  0  0  0
  159.8620  201.9950  148.2880 C   0  0  0  0  0  2  0  0  0  0  0  0
  162.3060  204.9680  145.4980 C   0  0  2  0  0  0  0  0  0  0  0  0
  161.6910  205.3870  153.9670 O   0  0  0  0  0  0  0  0  0  0  0  0
  161.2890  204.7330  148.3990 O   0  0  0  0  0  0  0  0  0  0  0  0
  160.5860  207.0530  150.4310 O   0  0  0  0  0  0  0  0  0  0  0  0
  161.4160  205.9200  152.8600 C   0  0  0  0  0  0  0  0  0  0  0  0
  161.9640  200.1740  148.7290 C   0  0  1  0  0  3  0  0  0  0  0  0
  160.3780  204.6330  149.4840 C   0  0  2  0  0  3  0  0  0  0  0  0
  160.4080  201.9960  149.7150 C   0  0  2  0  0  3  0  0  0  0  0  0
  160.5730  202.4740  145.9380 C   0  0  0  0  0  2  0  0  0  0  0  0
  160.9770  203.6820  151.5410 C   0  0  0  0  0  0  0  0  0  0  0  0
  160.5880  207.9060  151.5840 C   0  0  2  0  0  3  0  0  0  0  0  0
  159.7500  206.6280  147.7470 C   0  0  0  0  0  1  0  0  0  0  0  0
  162.8810  203.7200  145.2600 O   0  0  0  0  0  1  0  0  0  0  0  0
  160.6760  205.6620  150.5590 C   0  0  0  0  0  0  0  0  0  0  0  0
  160.1510  206.0790  145.0210 C   0  0  0  0  0  1  0  0  0  0  0  0
  160.6020  203.3640  150.2070 N   0  0  0  0  0  0  0  0  0  0  0  0
  161.0330  202.0930  147.3240 C   0  0  2  0  0  3  0  0  0  0  0  0
  161.0300  198.9860  148.8810 C   0  0  0  0  0  1  0  0  0  0  0  0
  159.9330  203.8600  145.9490 C   0  0  0  0  0  2  0  0  0  0  0  0
  161.8230  200.7840  147.3230 C   0  0  0  0  0  2  0  0  0  0  0  0
  162.2100  206.6200  147.2450 C   0  0  2  0  0  3  0  0  0  0  0  0
  160.9690  205.7370  147.4180 C   0  0  2  0  0  0  0  0  0  0  0  0
  163.1870  205.8060  146.4100 C   0  0  2  0  0  3  0  0  0  0  0  0
  161.0280  205.1090  151.7030 C   0  0  0  0  0  0  0  0  0  0  0  0
  161.2190  202.8300  152.4370 O   0  0  0  0  0  0  0  0  0  0  0  0
  163.0660  206.1600  144.9410 C   0  0  0  0  0  2  0  0  0  0  0  0
  161.7250  201.1950  149.8540 C   0  0  0  0  0  2  0  0  0  0  0  0
  162.8570  207.0480  148.5580 C   0  0  0  0  0  2  0  0  0  0  0  0
  163.2380  208.4180  148.5050 O   0  0  0  0  0  0  0  0  0  0  0  0
  161.1870  209.2540  147.8640 O   0  0  0  0  0  0  0  0  0  0  0  0
  162.3030  209.4540  148.4140 C   0  0  0  0  0  0  0  0  0  0  0  0
  162.5840  210.7250  148.9250 O   0  0  0  0  0  0  0  0  0  0  0  0
  162.4210  211.9240  148.2190 C   0  0  0  0  0  0  0  0  0  0  0  0
  163.3760  212.4350  147.5710 O   0  0  0  0  0  0  0  0  0  0  0  0
  160.2600  212.4640  147.1470 O   0  0  0  0  0  0  0  0  0  0  0  0
  161.1160  212.5900  148.2340 C   0  0  0  0  0  0  0  0  0  0  0  0
  160.7640  213.2800  149.2280 O   0  0  0  0  0  1  0  0  0  0  0  0
  160.9530  209.3230  151.1870 C   0  0  0  0  0  2  0  0  0  0  0  0
  161.1270  210.1870  152.4220 C   0  0  0  0  0  3  0  0  0  0  0  0
  160.5580  211.5640  152.1490 C   0  0  0  0  0  2  0  0  0  0  0  0
  159.7610  210.5630  152.9570 C   0  0  0  0  0  2  0  0  0  0  0  0
  1 18  1  6  0  0  0
  1 25  1  0  0  0  0
  2  8  1  0  0  0  0
  4 16  1  6  0  0  0
  4  1  1  0  0  0  0
  4 26  1  0  0  0  0
  7 17  1  0  0  0  0
  7 14  1  0  0  0  0
  8  5  2  0  0  0  0
  9 21  1  6  0  0  0
  9 30  1  0  0  0  0
 10  6  1  6  0  0  0
 10 19  1  0  0  0  0
 10 17  1  0  0  0  0
 11  3  1  6  0  0  0
 11 30  1  0  0  0  0
 11 19  1  0  0  0  0
 12 22  1  0  0  0  0
 13 27  1  0  0  0  0
 13 28  2  0  0  0  0
 14 41  1  6  0  0  0
 14  2  1  0  0  0  0
 17 27  2  0  0  0  0
 19 13  1  0  0  0  0
 20 12  1  6  0  0  0
 20  3  1  0  0  0  0
 22  1  1  0  0  0  0
 23 20  1  0  0  0  0
 23  9  1  0  0  0  0
 24 25  1  0  0  0  0
 24 31  1  1  0  0  0
 25 15  1  1  0  0  0
 25  6  1  0  0  0  0
 26 29  1  6  0  0  0
 26 24  1  0  0  0  0
 27  8  1  0  0  0  0
 29  4  1  0  0  0  0
 32 31  1  0  0  0  0
 33 34  2  0  0  0  0
 34 32  1  0  0  0  0
 34 35  1  0  0  0  0
 36 39  1  0  0  0  0
 36 35  1  0  0  0  0
 37 36  2  0  0  0  0
 38 39  2  0  0  0  0
 39 40  1  0  0  0  0
 41 42  1  0  0  0  0
 42 44  1  0  0  0  0
 43 42  1  0  0  0  0
 43 44  1  0  0  0  0
M  END
>  <MODEL>
3

>  <REMARK>
 VINA RESULT:       1.2      4.989      8.648
  Name = 
  8 active torsions:
  status: ('A' for Active; 'I' for Inactive)
    1  A    between atoms: C_4  and  C_33
    2  A    between atoms: C_5  and  O_18
    3  A    between atoms: C_5  and  C_37
    4  A    between atoms: O_13  and  C_21
    5  A    between atoms: O_13  and  C_29
    6  A    between atoms: O_18  and  C_29
    7  A    between atoms: C_19  and  C_33
    8  A    between atoms: C_21  and  C_35
                            x       y       z     vdW  Elec       q    Type
                         _______ _______ _______ _____ _____    ______ ____

>  <TORSDO>
F 8

$$$$
