=
 OpenBabel11072410353D

 54 58  0  0  1  0  0  0  0  0999 V2000
  161.1520  207.2760  150.2650 C   0  0  2  0  0  3  0  0  0  0  0  0
  161.6150  207.8140  148.9080 C   0  0  1  0  0  3  0  0  0  0  0  0
  162.2260  211.2520  148.0550 C   0  0  0  0  0  3  0  0  0  0  0  0
  162.6460  208.8820  149.0620 C   0  0  0  0  0  3  0  0  0  0  0  0
  162.4350  210.0660  148.5650 C   0  0  0  0  0  0  0  0  0  0  0  0
  160.1340  214.1910  147.6230 C   0  0  2  0  0  3  0  0  0  0  0  0
  159.8660  213.8080  149.0610 C   0  0  0  0  0  2  0  0  0  0  0  0
  158.8180  214.4520  146.9070 C   0  0  0  0  0  2  0  0  0  0  0  0
  160.7150  212.6700  149.3820 N   0  0  0  0  0  2  0  0  0  0  0  0
  160.7880  212.9660  146.9980 C   0  0  2  0  0  3  0  0  0  0  0  0
  159.8650  212.4290  145.9130 C   0  0  0  0  0  2  0  0  0  0  0  0
  157.7530  213.2710  145.0810 N   0  0  0  0  0  2  0  0  0  0  0  0
  158.7160  213.3570  145.9200 C   0  0  0  0  0  0  0  0  0  0  0  0
  160.9020  211.9570  148.1220 C   0  0  1  0  0  3  0  0  0  0  0  0
  162.1270  206.7690  148.1350 O   0  0  0  0  0  0  0  0  0  0  0  0
  160.0540  206.7560  146.9400 C   0  0  0  0  0  1  0  0  0  0  0  0
  161.5630  206.9370  146.8670 C   0  0  2  0  0  3  0  0  0  0  0  0
  162.2390  205.9950  145.8560 C   0  0  2  0  0  3  0  0  0  0  0  0
  161.3690  205.4760  144.7470 C   0  0  0  0  0  0  0  0  0  0  0  0
  160.4690  204.6360  145.0060 O   0  0  0  0  0  1  0  0  0  0  0  0
  161.5320  205.9280  143.4440 O   0  0  0  0  0  0  0  0  0  0  0  0
  163.1460  205.0560  146.3990 O   0  0  0  0  0  0  0  0  0  0  0  0
  163.7230  204.3150  145.3570 C   0  0  0  0  0  1  0  0  0  0  0  0
  160.3160  206.1360  150.1040 O   0  0  0  0  0  0  0  0  0  0  0  0
  161.5660  204.2010  149.0830 C   0  0  0  0  0  2  0  0  0  0  0  0
  160.7650  202.9530  152.0060 N   0  0  0  0  0  2  0  0  0  0  0  0
  161.1190  202.8980  148.5690 N   0  0  0  0  0  0  0  0  0  0  0  0
  161.0190  201.9600  149.5990 C   0  0  0  0  0  0  0  0  0  0  0  0
  160.5460  204.3000  151.5200 C   0  0  0  0  0  3  0  0  0  0  0  0
  160.9640  200.7680  150.3230 C   0  0  0  0  0  2  0  0  0  0  0  0
  160.7690  204.8230  150.2680 C   0  0  0  0  0  0  0  0  0  0  0  0
  160.8810  201.9860  151.0000 C   0  0  0  0  0  0  0  0  0  0  0  0
  161.3530  202.5040  147.1890 C   0  0  0  0  0  2  0  0  0  0  0  0
  160.0540  201.3440  145.3980 C   0  0  0  0  0  1  0  0  0  0  0  0
  160.5340  201.2710  146.8340 C   0  0  0  0  0  3  0  0  0  0  0  0
  161.3920  200.0350  147.0080 C   0  0  0  0  0  1  0  0  0  0  0  0
  160.4730  208.2620  150.9900 O   0  0  0  0  0  0  0  0  0  0  0  0
  162.0690  207.0420  152.8730 O   0  0  0  0  0  1  0  0  0  0  0  0
  162.5190  209.4930  152.0820 O   0  0  0  0  0  0  0  0  0  0  0  0
  161.4020  208.5190  152.3870 P   0  0  1  0  0  0  0  0  0  0  0  0
  160.4060  209.1330  153.6210 O   0  0  0  0  0  0  0  0  0  0  0  0
  161.1270  210.1710  154.2270 C   0  0  1  0  0  3  0  0  0  0  0  0
  160.1720  212.0800  152.8990 C   0  0  0  0  0  2  0  0  0  0  0  0
  158.8670  211.1540  154.6170 C   0  0  0  0  0  0  0  0  0  0  0  0
  157.9710  211.4120  153.5590 N   0  0  0  0  0  2  0  0  0  0  0  0
  158.4790  210.7350  155.7370 O   0  0  0  0  0  0  0  0  0  0  0  0
  158.1910  213.1800  151.9940 N   0  0  0  0  0  1  0  0  0  0  0  0
  160.2810  211.4520  154.2920 C   0  0  1  0  0  3  0  0  0  0  0  0
  158.7260  211.9000  152.4220 C   0  0  1  0  0  3  0  0  0  0  0  0
  161.5730  209.7410  155.5980 C   0  0  0  0  0  0  0  0  0  0  0  0
  162.1480  210.6140  156.4350 C   0  0  0  0  0  2  0  0  0  0  0  0
  162.3350  207.9550  156.9720 O   0  0  0  0  0  1  0  0  0  0  0  0
  161.4100  208.3010  155.9850 C   0  0  1  0  0  3  0  0  0  0  0  0
  160.0000  208.0140  156.4700 C   0  0  0  0  0  1  0  0  0  0  0  0
  1 24  1  6  0  0  0
  1 37  1  0  0  0  0
  2  4  1  1  0  0  0
  2  1  1  0  0  0  0
  3  5  2  0  0  0  0
  5  4  2  0  0  0  0
  6  8  1  6  0  0  0
  6  7  1  0  0  0  0
  7  9  1  0  0  0  0
 10 11  1  6  0  0  0
 10  6  1  0  0  0  0
 10 14  1  0  0  0  0
 11 13  1  0  0  0  0
 12 13  2  0  0  0  0
 13  8  1  0  0  0  0
 14  3  1  1  0  0  0
 14  9  1  0  0  0  0
 15  2  1  0  0  0  0
 17 16  1  1  0  0  0
 17 15  1  0  0  0  0
 18 19  1  1  0  0  0
 18 22  1  0  0  0  0
 18 17  1  0  0  0  0
 19 20  1  0  0  0  0
 21 19  2  0  0  0  0
 23 22  1  0  0  0  0
 24 31  1  0  0  0  0
 25 31  1  0  0  0  0
 27 25  1  0  0  0  0
 27 28  1  0  0  0  0
 28 30  1  0  0  0  0
 28 32  2  0  0  0  0
 29 26  1  0  0  0  0
 30 32  1  0  0  0  0
 31 29  2  0  0  0  0
 32 26  1  0  0  0  0
 33 27  1  0  0  0  0
 34 35  1  0  0  0  0
 35 36  1  0  0  0  0
 35 33  1  0  0  0  0
 37 40  1  0  0  0  0
 40 39  2  6  0  0  0
 40 38  1  0  0  0  0
 40 41  1  0  0  0  0
 42 41  1  1  0  0  0
 42 50  1  0  0  0  0
 43 48  1  0  0  0  0
 44 46  2  0  0  0  0
 45 44  1  0  0  0  0
 48 42  1  6  0  0  0
 48 44  1  0  0  0  0
 49 47  1  1  0  0  0
 49 43  1  0  0  0  0
 49 45  1  0  0  0  0
 50 53  1  0  0  0  0
 50 51  2  0  0  0  0
 53 54  1  1  0  0  0
 53 52  1  0  0  0  0
M  END
>  <MODEL>
1

>  <REMARK>
 VINA RESULT:      -6.0      0.000      0.000
  Name = 
  19 active torsions:
  status: ('A' for Active; 'I' for Inactive)
    1  A    between atoms: O_3  and  C_45
    2  A    between atoms: O_3  and  C_52
    3  A    between atoms: O_4  and  C_22
    4  A    between atoms: O_4  and  P_50
    5  A    between atoms: N_13  and  C_30
    6  A    between atoms: C_14  and  C_49
    7  A    between atoms: C_15  and  O_21
    8  A    between atoms: C_15  and  C_32
    9  A    between atoms: C_15  and  C_53
   10  A    between atoms: C_20  and  C_48
   11  A    between atoms: O_21  and  P_50
   12  A    between atoms: C_22  and  O_39
   13  A    between atoms: C_22  and  C_45
   14  A    between atoms: C_24  and  C_32
   15  A    between atoms: O_27  and  C_48
   16  A    between atoms: C_28  and  C_45
   17  A    between atoms: C_30  and  C_35
   18  A    between atoms: C_33  and  O_39
   19  A    between atoms: C_48  and  C_52
                            x       y       z     vdW  Elec       q    Type
                         _______ _______ _______ _____ _____    ______ ____

>  <TORSDO>
F 19

$$$$
=
 OpenBabel11072410353D

 54 58  0  0  1  0  0  0  0  0999 V2000
  161.8380  209.6020  150.2380 C   0  0  2  0  0  3  0  0  0  0  0  0
  161.9910  208.0800  150.2900 C   0  0  1  0  0  3  0  0  0  0  0  0
  160.6640  205.0380  151.6710 C   0  0  0  0  0  3  0  0  0  0  0  0
  161.4680  207.5180  151.5700 C   0  0  0  0  0  3  0  0  0  0  0  0
  161.0720  206.2800  151.6240 C   0  0  0  0  0  0  0  0  0  0  0  0
  160.8490  201.6100  150.4820 C   0  0  2  0  0  3  0  0  0  0  0  0
  162.0810  201.7210  151.3510 C   0  0  0  0  0  2  0  0  0  0  0  0
  161.2150  200.9750  149.1490 C   0  0  0  0  0  2  0  0  0  0  0  0
  162.0800  203.0450  151.9540 N   0  0  0  0  0  2  0  0  0  0  0  0
  160.4090  203.0450  150.2270 C   0  0  2  0  0  3  0  0  0  0  0  0
  160.5360  203.3300  148.7370 C   0  0  0  0  0  2  0  0  0  0  0  0
  161.1840  201.8840  146.9060 N   0  0  0  0  0  2  0  0  0  0  0  0
  161.0240  202.0590  148.1640 C   0  0  0  0  0  0  0  0  0  0  0  0
  161.3860  203.9060  151.0000 C   0  0  1  0  0  3  0  0  0  0  0  0
  161.3210  207.5000  149.2100 O   0  0  0  0  0  0  0  0  0  0  0  0
  163.3990  207.5570  148.0250 C   0  0  0  0  0  1  0  0  0  0  0  0
  162.2720  206.6960  148.5750 C   0  0  2  0  0  3  0  0  0  0  0  0
  161.5970  205.8220  147.5040 C   0  0  2  0  0  3  0  0  0  0  0  0
  162.4640  205.3910  146.3550 C   0  0  0  0  0  0  0  0  0  0  0  0
  163.3970  204.5710  146.5550 O   0  0  0  0  0  1  0  0  0  0  0  0
  162.2350  205.8710  145.0720 O   0  0  0  0  0  0  0  0  0  0  0  0
  160.2750  206.1830  147.1560 O   0  0  0  0  0  0  0  0  0  0  0  0
  160.2420  206.5740  145.8090 C   0  0  0  0  0  1  0  0  0  0  0  0
  162.5600  210.1500  149.1400 O   0  0  0  0  0  0  0  0  0  0  0  0
  160.7980  211.6710  148.1790 C   0  0  0  0  0  2  0  0  0  0  0  0
  163.4490  213.5890  147.9870 N   0  0  0  0  0  2  0  0  0  0  0  0
  160.5400  212.1430  146.8100 N   0  0  0  0  0  0  0  0  0  0  0  0
  161.3120  213.2690  146.5130 C   0  0  0  0  0  0  0  0  0  0  0  0
  163.3400  212.2730  148.5840 C   0  0  0  0  0  3  0  0  0  0  0  0
  161.7910  214.4520  145.9490 C   0  0  0  0  0  2  0  0  0  0  0  0
  162.2770  211.4020  148.5840 C   0  0  0  0  0  0  0  0  0  0  0  0
  162.4930  213.8590  147.0000 C   0  0  0  0  0  0  0  0  0  0  0  0
  159.2780  211.8750  146.1390 C   0  0  0  0  0  2  0  0  0  0  0  0
  158.0350  213.6020  144.8300 C   0  0  0  0  0  1  0  0  0  0  0  0
  158.3580  213.0850  146.2180 C   0  0  0  0  0  3  0  0  0  0  0  0
  157.0710  212.6890  146.9120 C   0  0  0  0  0  1  0  0  0  0  0  0
  162.2730  210.1910  151.4310 O   0  0  0  0  0  0  0  0  0  0  0  0
  160.3970  212.2050  151.3430 O   0  0  0  0  0  0  0  0  0  0  0  0
  159.7650  209.7810  152.0910 O   0  0  0  0  0  1  0  0  0  0  0  0
  160.8740  210.8070  152.1690 P   0  0  1  0  0  0  0  0  0  0  0  0
  161.2130  211.1860  153.7920 O   0  0  0  0  0  0  0  0  0  0  0  0
  160.0470  210.8980  154.5130 C   0  0  1  0  0  3  0  0  0  0  0  0
  159.5430  209.0030  156.0870 C   0  0  0  0  0  2  0  0  0  0  0  0
  161.7690  209.7180  155.8800 C   0  0  0  0  0  0  0  0  0  0  0  0
  161.8300  208.3110  155.9540 N   0  0  0  0  0  2  0  0  0  0  0  0
  162.8040  210.4330  155.8530 O   0  0  0  0  0  0  0  0  0  0  0  0
  160.3080  206.9490  157.1590 N   0  0  0  0  0  1  0  0  0  0  0  0
  160.3910  210.2600  155.8680 C   0  0  1  0  0  3  0  0  0  0  0  0
  160.4780  207.7910  155.9890 C   0  0  1  0  0  3  0  0  0  0  0  0
  159.2410  212.1560  154.6910 C   0  0  0  0  0  0  0  0  0  0  0  0
  159.7050  213.1640  155.4400 C   0  0  0  0  0  2  0  0  0  0  0  0
  156.8880  212.0460  155.0190 O   0  0  0  0  0  1  0  0  0  0  0  0
  157.8830  212.2320  154.0590 C   0  0  1  0  0  3  0  0  0  0  0  0
  157.6780  213.5580  153.3470 C   0  0  0  0  0  1  0  0  0  0  0  0
  1 24  1  6  0  0  0
  1  2  1  0  0  0  0
  1 37  1  0  0  0  0
  2  4  1  1  0  0  0
  4  5  2  0  0  0  0
  5  3  2  0  0  0  0
  6  8  1  6  0  0  0
  6  7  1  0  0  0  0
  7  9  1  0  0  0  0
 10 11  1  6  0  0  0
 10  6  1  0  0  0  0
 10 14  1  0  0  0  0
 12 13  2  0  0  0  0
 13 11  1  0  0  0  0
 13  8  1  0  0  0  0
 14  3  1  1  0  0  0
 14  9  1  0  0  0  0
 15  2  1  0  0  0  0
 17 16  1  6  0  0  0
 17 15  1  0  0  0  0
 18 19  1  6  0  0  0
 18 17  1  0  0  0  0
 19 20  1  0  0  0  0
 21 19  2  0  0  0  0
 22 18  1  0  0  0  0
 23 22  1  0  0  0  0
 25 31  1  0  0  0  0
 26 29  1  0  0  0  0
 27 25  1  0  0  0  0
 28 27  1  0  0  0  0
 28 32  2  0  0  0  0
 30 28  1  0  0  0  0
 30 32  1  0  0  0  0
 31 29  2  0  0  0  0
 31 24  1  0  0  0  0
 32 26  1  0  0  0  0
 33 35  1  0  0  0  0
 33 27  1  0  0  0  0
 34 35  1  0  0  0  0
 35 36  1  0  0  0  0
 37 40  1  0  0  0  0
 39 40  1  0  0  0  0
 40 38  2  6  0  0  0
 40 41  1  0  0  0  0
 42 41  1  1  0  0  0
 42 50  1  0  0  0  0
 44 45  1  0  0  0  0
 45 49  1  0  0  0  0
 46 44  2  0  0  0  0
 48 42  1  6  0  0  0
 48 44  1  0  0  0  0
 48 43  1  0  0  0  0
 49 43  1  0  0  0  0
 49 47  1  1  0  0  0
 50 51  2  0  0  0  0
 53 54  1  1  0  0  0
 53 50  1  0  0  0  0
 53 52  1  0  0  0  0
M  END
>  <MODEL>
2

>  <REMARK>
 VINA RESULT:      -5.3      1.987      7.753
  Name = 
  19 active torsions:
  status: ('A' for Active; 'I' for Inactive)
    1  A    between atoms: O_3  and  C_45
    2  A    between atoms: O_3  and  C_52
    3  A    between atoms: O_4  and  C_22
    4  A    between atoms: O_4  and  P_50
    5  A    between atoms: N_13  and  C_30
    6  A    between atoms: C_14  and  C_49
    7  A    between atoms: C_15  and  O_21
    8  A    between atoms: C_15  and  C_32
    9  A    between atoms: C_15  and  C_53
   10  A    between atoms: C_20  and  C_48
   11  A    between atoms: O_21  and  P_50
   12  A    between atoms: C_22  and  O_39
   13  A    between atoms: C_22  and  C_45
   14  A    between atoms: C_24  and  C_32
   15  A    between atoms: O_27  and  C_48
   16  A    between atoms: C_28  and  C_45
   17  A    between atoms: C_30  and  C_35
   18  A    between atoms: C_33  and  O_39
   19  A    between atoms: C_48  and  C_52
                            x       y       z     vdW  Elec       q    Type
                         _______ _______ _______ _____ _____    ______ ____

>  <TORSDO>
F 19

$$$$
=
 OpenBabel11072410353D

 54 58  0  0  1  0  0  0  0  0999 V2000
  161.6800  209.1610  150.2200 C   0  0  2  0  0  3  0  0  0  0  0  0
  162.2160  207.7290  150.3030 C   0  0  1  0  0  3  0  0  0  0  0  0
  161.1650  204.7130  151.9500 C   0  0  0  0  0  3  0  0  0  0  0  0
  162.0400  207.1550  151.6680 C   0  0  0  0  0  3  0  0  0  0  0  0
  161.6080  205.9350  151.8100 C   0  0  0  0  0  0  0  0  0  0  0  0
  160.5730  201.5530  150.2550 C   0  0  2  0  0  3  0  0  0  0  0  0
  161.8070  201.2580  151.0760 C   0  0  0  0  0  2  0  0  0  0  0  0
  160.7750  201.0690  148.8280 C   0  0  0  0  0  2  0  0  0  0  0  0
  162.1070  202.4410  151.8690 N   0  0  0  0  0  2  0  0  0  0  0  0
  160.4590  203.0720  150.2370 C   0  0  2  0  0  3  0  0  0  0  0  0
  160.6310  203.5500  148.8020 C   0  0  0  0  0  2  0  0  0  0  0  0
  160.9240  202.3000  146.7490 N   0  0  0  0  0  2  0  0  0  0  0  0
  160.8190  202.3080  148.0250 C   0  0  0  0  0  0  0  0  0  0  0  0
  161.6110  203.5690  151.0860 C   0  0  1  0  0  3  0  0  0  0  0  0
  161.5660  206.9260  149.3630 O   0  0  0  0  0  0  0  0  0  0  0  0
  163.5420  207.6750  148.2410 C   0  0  0  0  0  1  0  0  0  0  0  0
  162.5600  206.5340  148.4620 C   0  0  2  0  0  3  0  0  0  0  0  0
  161.9230  206.0190  147.1600 C   0  0  2  0  0  3  0  0  0  0  0  0
  162.7850  205.1360  146.3030 C   0  0  0  0  0  0  0  0  0  0  0  0
  163.9070  204.7600  146.7300 O   0  0  0  0  0  1  0  0  0  0  0  0
  162.3480  204.7110  145.0550 O   0  0  0  0  0  0  0  0  0  0  0  0
  161.1270  206.9500  146.4530 O   0  0  0  0  0  0  0  0  0  0  0  0
  159.9970  206.2950  145.9400 C   0  0  0  0  0  1  0  0  0  0  0  0
  160.6330  209.3700  151.1610 O   0  0  0  0  0  0  0  0  0  0  0  0
  161.7460  209.9840  153.3360 C   0  0  0  0  0  2  0  0  0  0  0  0
  159.6970  212.5130  152.9480 N   0  0  0  0  0  2  0  0  0  0  0  0
  161.2620  209.9960  154.7250 N   0  0  0  0  0  0  0  0  0  0  0  0
  160.6030  211.1930  155.0160 C   0  0  0  0  0  0  0  0  0  0  0  0
  159.9500  211.4200  152.0310 C   0  0  0  0  0  3  0  0  0  0  0  0
  160.0450  212.2860  155.6810 C   0  0  0  0  0  2  0  0  0  0  0  0
  160.7170  210.2930  152.2080 C   0  0  0  0  0  0  0  0  0  0  0  0
  159.9720  212.2200  154.2890 C   0  0  0  0  0  0  0  0  0  0  0  0
  161.8970  209.1940  155.7580 C   0  0  0  0  0  2  0  0  0  0  0  0
  159.5750  208.6430  156.4970 C   0  0  0  0  0  1  0  0  0  0  0  0
  160.9630  208.0910  156.2350 C   0  0  0  0  0  3  0  0  0  0  0  0
  160.8780  207.0160  155.1720 C   0  0  0  0  0  1  0  0  0  0  0  0
  161.2200  209.4490  148.9290 O   0  0  0  0  0  0  0  0  0  0  0  0
  161.9710  211.8400  150.0680 O   0  0  0  0  0  1  0  0  0  0  0  0
  163.0650  210.9780  147.8560 O   0  0  0  0  0  0  0  0  0  0  0  0
  161.7490  211.0280  148.6010 P   0  0  1  0  0  0  0  0  0  0  0  0
  160.5760  211.8330  147.6700 O   0  0  0  0  0  0  0  0  0  0  0  0
  160.8230  213.2040  147.8290 C   0  0  1  0  0  3  0  0  0  0  0  0
  162.4170  214.2680  146.2030 C   0  0  0  0  0  2  0  0  0  0  0  0
  160.6640  212.9590  145.3510 C   0  0  0  0  0  0  0  0  0  0  0  0
  161.7870  212.6480  144.5580 N   0  0  0  0  0  2  0  0  0  0  0  0
  159.5220  212.4940  145.1060 O   0  0  0  0  0  0  0  0  0  0  0  0
  163.5430  214.1570  144.0410 N   0  0  0  0  0  1  0  0  0  0  0  0
  160.9540  213.8930  146.4630 C   0  0  1  0  0  3  0  0  0  0  0  0
  162.9380  213.3540  145.0870 C   0  0  1  0  0  3  0  0  0  0  0  0
  159.7220  213.8220  148.6490 C   0  0  0  0  0  0  0  0  0  0  0  0
  159.9740  214.3190  149.8660 C   0  0  0  0  0  2  0  0  0  0  0  0
  157.9290  212.5130  147.7940 O   0  0  0  0  0  1  0  0  0  0  0  0
  158.3280  213.8170  148.0950 C   0  0  1  0  0  3  0  0  0  0  0  0
  157.3450  214.4510  149.0630 C   0  0  0  0  0  1  0  0  0  0  0  0
  1 37  1  6  0  0  0
  1  2  1  0  0  0  0
  1 24  1  0  0  0  0
  2  4  1  1  0  0  0
  4  5  2  0  0  0  0
  5  3  2  0  0  0  0
  6  8  1  6  0  0  0
  6  7  1  0  0  0  0
  7  9  1  0  0  0  0
 10 11  1  6  0  0  0
 10  6  1  0  0  0  0
 10 14  1  0  0  0  0
 12 13  2  0  0  0  0
 13 11  1  0  0  0  0
 13  8  1  0  0  0  0
 14  9  1  0  0  0  0
 14  3  1  1  0  0  0
 15  2  1  0  0  0  0
 17 16  1  6  0  0  0
 17 15  1  0  0  0  0
 18 19  1  6  0  0  0
 18 17  1  0  0  0  0
 19 20  1  0  0  0  0
 21 19  2  0  0  0  0
 22 18  1  0  0  0  0
 23 22  1  0  0  0  0
 24 31  1  0  0  0  0
 25 27  1  0  0  0  0
 26 32  1  0  0  0  0
 27 28  1  0  0  0  0
 27 33  1  0  0  0  0
 28 30  1  0  0  0  0
 29 31  2  0  0  0  0
 29 26  1  0  0  0  0
 31 25  1  0  0  0  0
 32 28  2  0  0  0  0
 32 30  1  0  0  0  0
 33 35  1  0  0  0  0
 35 34  1  0  0  0  0
 36 35  1  0  0  0  0
 40 39  2  6  0  0  0
 40 37  1  0  0  0  0
 40 38  1  0  0  0  0
 41 40  1  0  0  0  0
 42 41  1  6  0  0  0
 42 50  1  0  0  0  0
 43 48  1  0  0  0  0
 44 48  1  0  0  0  0
 45 49  1  0  0  0  0
 45 44  1  0  0  0  0
 46 44  2  0  0  0  0
 48 42  1  1  0  0  0
 49 47  1  6  0  0  0
 49 43  1  0  0  0  0
 50 51  2  0  0  0  0
 52 53  1  0  0  0  0
 53 50  1  0  0  0  0
 53 54  1  1  0  0  0
M  END
>  <MODEL>
3

>  <REMARK>
 VINA RESULT:      -4.5      2.434      8.436
  Name = 
  19 active torsions:
  status: ('A' for Active; 'I' for Inactive)
    1  A    between atoms: O_3  and  C_45
    2  A    between atoms: O_3  and  C_52
    3  A    between atoms: O_4  and  C_22
    4  A    between atoms: O_4  and  P_50
    5  A    between atoms: N_13  and  C_30
    6  A    between atoms: C_14  and  C_49
    7  A    between atoms: C_15  and  O_21
    8  A    between atoms: C_15  and  C_32
    9  A    between atoms: C_15  and  C_53
   10  A    between atoms: C_20  and  C_48
   11  A    between atoms: O_21  and  P_50
   12  A    between atoms: C_22  and  O_39
   13  A    between atoms: C_22  and  C_45
   14  A    between atoms: C_24  and  C_32
   15  A    between atoms: O_27  and  C_48
   16  A    between atoms: C_28  and  C_45
   17  A    between atoms: C_30  and  C_35
   18  A    between atoms: C_33  and  O_39
   19  A    between atoms: C_48  and  C_52
                            x       y       z     vdW  Elec       q    Type
                         _______ _______ _______ _____ _____    ______ ____

>  <TORSDO>
F 19

$$$$
=
 OpenBabel11072410353D

 54 58  0  0  1  0  0  0  0  0999 V2000
  161.5040  209.0830  149.5400 C   0  0  2  0  0  3  0  0  0  0  0  0
  161.2610  210.5550  149.1960 C   0  0  1  0  0  3  0  0  0  0  0  0
  160.6990  213.9220  150.3200 C   0  0  0  0  0  3  0  0  0  0  0  0
  161.5100  211.4430  150.3690 C   0  0  0  0  0  3  0  0  0  0  0  0
  161.1020  212.6780  150.3480 C   0  0  0  0  0  0  0  0  0  0  0  0
  157.4290  213.1930  148.9150 C   0  0  2  0  0  3  0  0  0  0  0  0
  158.0190  214.1390  147.8950 C   0  0  0  0  0  2  0  0  0  0  0  0
  156.0130  213.6270  149.2610 C   0  0  0  0  0  2  0  0  0  0  0  0
  159.3780  214.4510  148.3130 N   0  0  0  0  0  2  0  0  0  0  0  0
  158.2970  213.3500  150.1570 C   0  0  2  0  0  3  0  0  0  0  0  0
  157.4390  213.9230  151.2750 C   0  0  0  0  0  2  0  0  0  0  0  0
  155.0760  214.4530  151.3350 N   0  0  0  0  0  2  0  0  0  0  0  0
  156.0990  214.0650  150.6690 C   0  0  0  0  0  0  0  0  0  0  0  0
  159.3690  214.3480  149.7690 C   0  0  1  0  0  3  0  0  0  0  0  0
  162.0850  210.9330  148.1320 O   0  0  0  0  0  0  0  0  0  0  0  0
  160.2980  211.4150  146.6140 C   0  0  0  0  0  1  0  0  0  0  0  0
  161.4060  211.9760  147.4940 C   0  0  2  0  0  3  0  0  0  0  0  0
  162.4000  212.8630  146.7260 C   0  0  2  0  0  3  0  0  0  0  0  0
  162.0000  213.2580  145.3320 C   0  0  0  0  0  0  0  0  0  0  0  0
  162.6790  214.1140  144.7090 O   0  0  0  0  0  0  0  0  0  0  0  0
  160.9010  212.6720  144.7160 O   0  0  0  0  0  1  0  0  0  0  0  0
  163.7680  212.5440  146.8900 O   0  0  0  0  0  0  0  0  0  0  0  0
  164.1250  212.7180  148.2350 C   0  0  0  0  0  1  0  0  0  0  0  0
  162.1930  208.9560  150.7790 O   0  0  0  0  0  0  0  0  0  0  0  0
  160.5710  209.4300  152.6470 C   0  0  0  0  0  2  0  0  0  0  0  0
  161.5560  206.4030  153.4300 N   0  0  0  0  0  2  0  0  0  0  0  0
  160.7660  209.7040  154.0790 N   0  0  0  0  0  0  0  0  0  0  0  0
  160.8660  208.5170  154.8080 C   0  0  0  0  0  0  0  0  0  0  0  0
  161.8940  207.1760  152.2520 C   0  0  0  0  0  3  0  0  0  0  0  0
  160.8480  207.5710  155.8350 C   0  0  0  0  0  2  0  0  0  0  0  0
  161.5880  208.4800  151.9470 C   0  0  0  0  0  0  0  0  0  0  0  0
  161.1810  207.1720  154.5390 C   0  0  0  0  0  0  0  0  0  0  0  0
  160.3090  210.9450  154.6850 C   0  0  0  0  0  2  0  0  0  0  0  0
  158.5610  211.0150  156.4690 C   0  0  0  0  0  1  0  0  0  0  0  0
  158.8170  210.8820  154.9800 C   0  0  0  0  0  3  0  0  0  0  0  0
  158.1170  212.0110  154.2540 C   0  0  0  0  0  1  0  0  0  0  0  0
  162.2290  208.4440  148.5270 O   0  0  0  0  0  0  0  0  0  0  0  0
  159.8500  207.1220  148.9460 O   0  0  0  0  0  1  0  0  0  0  0  0
  161.0800  207.0250  146.6410 O   0  0  0  0  0  0  0  0  0  0  0  0
  161.3330  207.0590  148.1320 P   0  0  1  0  0  0  0  0  0  0  0  0
  162.1940  205.6740  148.6150 O   0  0  0  0  0  0  0  0  0  0  0  0
  161.2970  204.6010  148.5210 C   0  0  1  0  0  3  0  0  0  0  0  0
  160.7860  202.4780  147.2760 C   0  0  0  0  0  2  0  0  0  0  0  0
  162.3180  203.9840  146.3300 C   0  0  0  0  0  0  0  0  0  0  0  0
  161.5450  203.5060  145.2520 N   0  0  0  0  0  2  0  0  0  0  0  0
  163.3020  204.7490  146.1610 O   0  0  0  0  0  0  0  0  0  0  0  0
  160.5840  201.3410  145.1270 N   0  0  0  0  0  1  0  0  0  0  0  0
  161.8840  203.4780  147.6520 C   0  0  1  0  0  3  0  0  0  0  0  0
  160.5090  202.6370  145.7760 C   0  0  1  0  0  3  0  0  0  0  0  0
  160.9590  204.1050  149.9010 C   0  0  0  0  0  0  0  0  0  0  0  0
  160.0520  204.7400  150.6530 C   0  0  0  0  0  2  0  0  0  0  0  0
  162.1420  203.1630  151.7370 O   0  0  0  0  0  1  0  0  0  0  0  0
  161.7020  202.9160  150.4350 C   0  0  1  0  0  3  0  0  0  0  0  0
  160.8410  201.6660  150.4050 C   0  0  0  0  0  1  0  0  0  0  0  0
  1 37  1  6  0  0  0
  1 24  1  0  0  0  0
  2  1  1  0  0  0  0
  2  4  1  1  0  0  0
  3  5  2  0  0  0  0
  5  4  2  0  0  0  0
  6  7  1  6  0  0  0
  6  8  1  0  0  0  0
  6 10  1  0  0  0  0
  7  9  1  0  0  0  0
  8 13  1  0  0  0  0
  9 14  1  0  0  0  0
 10 11  1  1  0  0  0
 13 11  1  0  0  0  0
 13 12  2  0  0  0  0
 14 10  1  0  0  0  0
 14  3  1  6  0  0  0
 15  2  1  0  0  0  0
 17 16  1  6  0  0  0
 17 15  1  0  0  0  0
 18 19  1  6  0  0  0
 18 22  1  0  0  0  0
 18 17  1  0  0  0  0
 20 19  2  0  0  0  0
 21 19  1  0  0  0  0
 22 23  1  0  0  0  0
 24 31  1  0  0  0  0
 25 27  1  0  0  0  0
 26 32  1  0  0  0  0
 27 33  1  0  0  0  0
 27 28  1  0  0  0  0
 28 30  1  0  0  0  0
 29 26  1  0  0  0  0
 31 29  2  0  0  0  0
 31 25  1  0  0  0  0
 32 28  2  0  0  0  0
 32 30  1  0  0  0  0
 33 35  1  0  0  0  0
 35 34  1  0  0  0  0
 36 35  1  0  0  0  0
 40 39  2  6  0  0  0
 40 37  1  0  0  0  0
 40 41  1  0  0  0  0
 40 38  1  0  0  0  0
 42 41  1  1  0  0  0
 42 50  1  0  0  0  0
 43 48  1  0  0  0  0
 44 48  1  0  0  0  0
 45 49  1  0  0  0  0
 45 44  1  0  0  0  0
 46 44  2  0  0  0  0
 48 42  1  1  0  0  0
 49 47  1  6  0  0  0
 49 43  1  0  0  0  0
 50 53  1  0  0  0  0
 50 51  2  0  0  0  0
 53 54  1  1  0  0  0
 53 52  1  0  0  0  0
M  END
>  <MODEL>
4

>  <REMARK>
 VINA RESULT:      -3.9      2.724      7.763
  Name = 
  19 active torsions:
  status: ('A' for Active; 'I' for Inactive)
    1  A    between atoms: O_3  and  C_45
    2  A    between atoms: O_3  and  C_52
    3  A    between atoms: O_4  and  C_22
    4  A    between atoms: O_4  and  P_50
    5  A    between atoms: N_13  and  C_30
    6  A    between atoms: C_14  and  C_49
    7  A    between atoms: C_15  and  O_21
    8  A    between atoms: C_15  and  C_32
    9  A    between atoms: C_15  and  C_53
   10  A    between atoms: C_20  and  C_48
   11  A    between atoms: O_21  and  P_50
   12  A    between atoms: C_22  and  O_39
   13  A    between atoms: C_22  and  C_45
   14  A    between atoms: C_24  and  C_32
   15  A    between atoms: O_27  and  C_48
   16  A    between atoms: C_28  and  C_45
   17  A    between atoms: C_30  and  C_35
   18  A    between atoms: C_33  and  O_39
   19  A    between atoms: C_48  and  C_52
                            x       y       z     vdW  Elec       q    Type
                         _______ _______ _______ _____ _____    ______ ____

>  <TORSDO>
F 19

$$$$
