=
 OpenBabel11072412493D

 52 56  0  0  1  0  0  0  0  0999 V2000
  161.4050  210.5780  148.9460 C   0  0  2  0  0  3  0  0  0  0  0  0
  162.2900  209.3970  149.3210 C   0  0  0  0  0  2  0  0  0  0  0  0
  161.5380  208.0740  149.2490 C   0  0  2  0  0  3  0  0  0  0  0  0
  161.1010  207.6910  150.6670 C   0  0  1  0  0  3  0  0  0  0  0  0
  160.3390  205.3840  150.0730 C   0  0  0  0  0  3  0  0  0  0  0  0
  162.0400  205.6260  151.7780 C   0  0  0  0  0  3  0  0  0  0  0  0
  161.2770  203.4200  151.1380 C   0  0  0  0  0  3  0  0  0  0  0  0
  160.3970  203.9940  150.2140 C   0  0  0  0  0  3  0  0  0  0  0  0
  161.1560  206.2050  150.8550 C   0  0  0  0  0  0  0  0  0  0  0  0
  162.0970  204.2370  151.9210 C   0  0  0  0  0  3  0  0  0  0  0  0
  161.8880  208.3300  151.6340 O   0  0  0  0  0  0  0  0  0  0  0  0
  161.5040  210.7080  154.0960 O   0  0  0  0  0  0  0  0  0  0  0  0
  160.9250  208.4770  153.7750 C   0  0  0  0  0  0  0  0  0  0  0  0
  160.9830  209.0470  152.4280 C   0  0  1  0  0  3  0  0  0  0  0  0
  161.3710  209.4780  154.7690 C   0  0  2  0  0  3  0  0  0  0  0  0
  160.7880  207.1750  154.0330 C   0  0  0  0  0  2  0  0  0  0  0  0
  161.5400  210.4320  152.7090 C   0  0  0  0  0  2  0  0  0  0  0  0
  160.6430  209.0650  157.1350 O   0  0  0  0  0  1  0  0  0  0  0  0
  159.3000  210.2250  155.6780 O   0  0  0  0  0  0  0  0  0  0  0  0
  160.3870  209.6240  155.8850 C   0  0  0  0  0  0  0  0  0  0  0  0
  162.3800  207.0910  148.7100 O   0  0  0  0  0  0  0  0  0  0  0  0
  162.2170  207.1750  147.3660 N   0  0  0  0  0  0  0  0  0  0  0  0
  162.8840  206.0150  146.7770 C   0  0  0  0  0  2  0  0  0  0  0  0
  160.5420  205.5480  146.8120 C   0  0  0  0  0  2  0  0  0  0  0  0
  160.7930  207.0080  147.0980 C   0  0  0  0  0  2  0  0  0  0  0  0
  161.8350  205.0780  146.2140 C   0  0  0  0  0  2  0  0  0  0  0  0
  161.1230  210.6120  147.5460 O   0  0  0  0  0  0  0  0  0  0  0  0
  158.8960  212.6790  147.4070 O   0  0  0  0  0  1  0  0  0  0  0  0
  162.2210  214.4530  145.1410 O   0  0  0  0  0  0  0  0  0  0  0  0
  161.4850  213.5600  145.6380 C   0  0  0  0  0  0  0  0  0  0  0  0
  159.6600  212.2750  146.3130 C   0  0  2  0  0  3  0  0  0  0  0  0
  160.9890  211.7810  146.7890 C   0  0  0  0  0  0  0  0  0  0  0  0
  160.0130  213.4960  145.4590 C   0  0  2  0  0  3  0  0  0  0  0  0
  161.9950  212.5020  146.4240 N   0  0  0  0  0  0  0  0  0  0  0  0
  159.6850  213.2320  143.9930 C   0  0  0  0  0  2  0  0  0  0  0  0
  160.5590  212.1340  143.3880 C   0  0  0  0  0  2  0  0  0  0  0  0
  160.3120  211.9790  141.8910 C   0  0  1  0  0  3  0  0  0  0  0  0
  158.3310  212.8870  140.6760 C   0  0  0  0  0  1  0  0  0  0  0  0
  159.6460  213.2340  141.3460 C   0  0  0  0  0  2  0  0  0  0  0  0
  161.6440  211.7710  141.1880 C   0  0  0  0  0  2  0  0  0  0  0  0
  163.6190  211.8110  139.2540 N   0  0  0  0  0  1  0  0  0  0  0  0
  161.9280  209.5900  140.3150 C   0  0  0  0  0  2  0  0  0  0  0  0
  161.5500  208.6130  139.1970 C   0  0  0  0  0  2  0  0  0  0  0  0
  161.3520  209.3140  137.8520 C   0  0  0  0  0  2  0  0  0  0  0  0
  161.4720  210.9440  139.9910 N   0  0  0  0  0  0  0  0  0  0  0  0
  162.2570  211.4820  138.8490 C   0  0  1  0  0  0  0  0  0  0  0  0
  161.5840  212.7400  138.3220 C   0  0  0  0  0  1  0  0  0  0  0  0
  162.3360  210.4730  137.6870 C   0  0  0  0  0  2  0  0  0  0  0  0
  162.0470  211.8780  149.4120 C   0  0  0  0  0  2  0  0  0  0  0  0
  161.1080  214.2830  149.3810 C   0  0  0  0  0  1  0  0  0  0  0  0
  161.0110  212.8700  149.8380 C   0  0  0  0  0  0  0  0  0  0  0  0
  160.0730  212.5210  150.5400 O   0  0  0  0  0  0  0  0  0  0  0  0
  1  2  1  6  0  0  0
  1 49  1  0  0  0  0
  3  2  1  1  0  0  0
  3  4  1  0  0  0  0
  4  9  1  0  0  0  0
  4 11  1  1  0  0  0
  5  8  2  0  0  0  0
  5  9  1  0  0  0  0
  6 10  1  0  0  0  0
  7 10  2  0  0  0  0
  8  7  1  0  0  0  0
  9  6  2  0  0  0  0
 12 15  1  0  0  0  0
 13 16  2  0  0  0  0
 13 15  1  0  0  0  0
 14 11  1  6  0  0  0
 14 17  1  0  0  0  0
 14 13  1  0  0  0  0
 15 20  1  1  0  0  0
 17 12  1  0  0  0  0
 19 20  2  0  0  0  0
 20 18  1  0  0  0  0
 21  3  1  0  0  0  0
 22 21  1  0  0  0  0
 23 22  1  0  0  0  0
 24 25  1  0  0  0  0
 25 22  1  0  0  0  0
 26 23  1  0  0  0  0
 26 24  1  0  0  0  0
 27  1  1  0  0  0  0
 29 30  2  0  0  0  0
 30 34  1  0  0  0  0
 31 32  1  0  0  0  0
 31 28  1  1  0  0  0
 32 27  1  0  0  0  0
 33 35  1  6  0  0  0
 33 30  1  0  0  0  0
 33 31  1  0  0  0  0
 34 32  2  0  0  0  0
 36 35  1  0  0  0  0
 37 40  1  6  0  0  0
 37 36  1  0  0  0  0
 38 39  1  0  0  0  0
 39 37  1  0  0  0  0
 43 42  1  0  0  0  0
 44 43  1  0  0  0  0
 45 42  1  0  0  0  0
 45 40  1  0  0  0  0
 46 47  1  6  0  0  0
 46 41  1  0  0  0  0
 46 45  1  0  0  0  0
 48 44  1  0  0  0  0
 48 46  1  0  0  0  0
 49 51  1  0  0  0  0
 50 51  1  0  0  0  0
 51 52  2  0  0  0  0
M  END
>  <MODEL>
1

>  <REMARK>
 VINA RESULT:      -5.9      0.000      0.000
  Name = 
  19 active torsions:
  status: ('A' for Active; 'I' for Inactive)
    1  A    between atoms: C_3  and  C_8
    2  A    between atoms: C_3  and  C_29
    3  A    between atoms: N_4  and  O_21
    4  A    between atoms: C_8  and  O_39
    5  A    between atoms: C_8  and  C_42
    6  A    between atoms: C_16  and  C_19
    7  A    between atoms: C_16  and  C_38
    8  A    between atoms: C_19  and  C_37
    9  A    between atoms: O_21  and  C_33
   10  A    between atoms: C_22  and  C_33
   11  A    between atoms: C_22  and  C_48
   12  A    between atoms: C_22  and  O_51
   13  A    between atoms: N_24  and  C_44
   14  A    between atoms: C_33  and  C_42
   15  A    between atoms: C_34  and  O_39
   16  A    between atoms: C_35  and  O_51
   17  A    between atoms: C_36  and  C_37
   18  A    between atoms: C_37  and  C_44
   19  A    between atoms: C_46  and  C_47
                            x       y       z     vdW  Elec       q    Type
                         _______ _______ _______ _____ _____    ______ ____

>  <TORSDO>
F 19

$$$$
=
 OpenBabel11072412493D

 52 56  0  0  1  0  0  0  0  0999 V2000
  161.0550  209.7150  153.4860 C   0  0  2  0  0  3  0  0  0  0  0  0
  160.0790  210.8360  153.1530 C   0  0  0  0  0  2  0  0  0  0  0  0
  159.5490  211.5230  154.4050 C   0  0  2  0  0  3  0  0  0  0  0  0
  158.5030  212.5590  153.9810 C   0  0  1  0  0  3  0  0  0  0  0  0
  156.4670  211.6090  155.0780 C   0  0  0  0  0  3  0  0  0  0  0  0
  157.3130  213.7330  155.8740 C   0  0  0  0  0  3  0  0  0  0  0  0
  155.3610  212.7440  156.9100 C   0  0  0  0  0  3  0  0  0  0  0  0
  155.4480  211.6570  156.0340 C   0  0  0  0  0  3  0  0  0  0  0  0
  157.4010  212.6460  154.9920 C   0  0  0  0  0  0  0  0  0  0  0  0
  156.2930  213.7820  156.8290 C   0  0  0  0  0  3  0  0  0  0  0  0
  159.0820  213.8210  153.7890 O   0  0  0  0  0  0  0  0  0  0  0  0
  156.8540  213.2420  151.2270 O   0  0  0  0  0  0  0  0  0  0  0  0
  159.0780  213.8960  151.4370 C   0  0  0  0  0  0  0  0  0  0  0  0
  158.4330  214.3560  152.6690 C   0  0  1  0  0  3  0  0  0  0  0  0
  158.1230  213.1070  150.6300 C   0  0  2  0  0  3  0  0  0  0  0  0
  160.3950  213.9230  151.2260 C   0  0  0  0  0  2  0  0  0  0  0  0
  157.0530  213.7360  152.5370 C   0  0  0  0  0  2  0  0  0  0  0  0
  156.8660  213.5550  148.5030 O   0  0  0  0  0  0  0  0  0  0  0  0
  159.1140  213.9990  148.6560 O   0  0  0  0  0  1  0  0  0  0  0  0
  158.0620  213.5920  149.2160 C   0  0  0  0  0  0  0  0  0  0  0  0
  160.6110  212.1430  155.0790 O   0  0  0  0  0  0  0  0  0  0  0  0
  160.3480  211.9720  156.3990 N   0  0  0  0  0  0  0  0  0  0  0  0
  159.7180  210.6610  156.5460 C   0  0  0  0  0  2  0  0  0  0  0  0
  162.0040  210.4290  157.1960 C   0  0  0  0  0  2  0  0  0  0  0  0
  161.6340  211.8870  157.0820 C   0  0  0  0  0  2  0  0  0  0  0  0
  160.6780  209.7310  157.2600 C   0  0  0  0  0  2  0  0  0  0  0  0
  162.1100  209.6220  152.5280 O   0  0  0  0  0  0  0  0  0  0  0  0
  160.4380  207.7090  150.8560 O   0  0  0  0  0  1  0  0  0  0  0  0
  161.7750  210.8020  148.0290 O   0  0  0  0  0  0  0  0  0  0  0  0
  161.7940  210.0480  149.0380 C   0  0  0  0  0  0  0  0  0  0  0  0
  161.6800  208.2090  150.4670 C   0  0  2  0  0  3  0  0  0  0  0  0
  161.9230  209.5200  151.1450 C   0  0  0  0  0  0  0  0  0  0  0  0
  161.6420  208.5720  148.9810 C   0  0  2  0  0  3  0  0  0  0  0  0
  161.9730  210.5370  150.3520 N   0  0  0  0  0  0  0  0  0  0  0  0
  162.8360  207.9620  148.2540 C   0  0  0  0  0  2  0  0  0  0  0  0
  162.9200  206.4460  148.4370 C   0  0  0  0  0  2  0  0  0  0  0  0
  161.8300  205.7240  147.6540 C   0  0  1  0  0  3  0  0  0  0  0  0
  162.6010  205.1570  145.3490 C   0  0  0  0  0  1  0  0  0  0  0  0
  162.4540  204.6520  146.7710 C   0  0  0  0  0  2  0  0  0  0  0  0
  160.8670  205.0710  148.6330 C   0  0  0  0  0  2  0  0  0  0  0  0
  159.5970  203.6630  150.6460 N   0  0  0  0  0  1  0  0  0  0  0  0
  160.4050  202.8750  147.8810 C   0  0  0  0  0  2  0  0  0  0  0  0
  160.8820  201.4190  147.8470 C   0  0  0  0  0  2  0  0  0  0  0  0
  161.6050  201.0140  149.1330 C   0  0  0  0  0  2  0  0  0  0  0  0
  161.2060  203.6580  148.8250 N   0  0  0  0  0  0  0  0  0  0  0  0
  160.9190  203.2200  150.2160 C   0  0  1  0  0  0  0  0  0  0  0  0
  161.9620  203.8060  151.1550 C   0  0  0  0  0  1  0  0  0  0  0  0
  160.9750  201.6870  150.3540 C   0  0  0  0  0  2  0  0  0  0  0  0
  160.3060  208.3950  153.6140 C   0  0  0  0  0  2  0  0  0  0  0  0
  161.0210  205.9300  153.8980 C   0  0  0  0  0  1  0  0  0  0  0  0
  161.1470  207.3600  154.2910 C   0  0  0  0  0  0  0  0  0  0  0  0
  161.9550  207.6860  155.1500 O   0  0  0  0  0  0  0  0  0  0  0  0
  1  2  1  6  0  0  0
  1 49  1  0  0  0  0
  3  2  1  6  0  0  0
  3 21  1  0  0  0  0
  4 11  1  1  0  0  0
  4  3  1  0  0  0  0
  4  9  1  0  0  0  0
  5  8  1  0  0  0  0
  6 10  2  0  0  0  0
  8  7  2  0  0  0  0
  9  5  2  0  0  0  0
  9  6  1  0  0  0  0
 10  7  1  0  0  0  0
 12 17  1  0  0  0  0
 13 14  1  0  0  0  0
 14 11  1  1  0  0  0
 15 20  1  6  0  0  0
 15 12  1  0  0  0  0
 15 13  1  0  0  0  0
 16 13  2  0  0  0  0
 17 14  1  0  0  0  0
 18 20  2  0  0  0  0
 19 20  1  0  0  0  0
 21 22  1  0  0  0  0
 22 23  1  0  0  0  0
 22 25  1  0  0  0  0
 23 26  1  0  0  0  0
 24 26  1  0  0  0  0
 25 24  1  0  0  0  0
 27  1  1  0  0  0  0
 29 30  2  0  0  0  0
 30 34  1  0  0  0  0
 31 28  1  1  0  0  0
 31 32  1  0  0  0  0
 32 27  1  0  0  0  0
 33 35  1  6  0  0  0
 33 30  1  0  0  0  0
 33 31  1  0  0  0  0
 34 32  2  0  0  0  0
 35 36  1  0  0  0  0
 37 39  1  6  0  0  0
 37 36  1  0  0  0  0
 37 40  1  0  0  0  0
 38 39  1  0  0  0  0
 40 45  1  0  0  0  0
 42 45  1  0  0  0  0
 43 42  1  0  0  0  0
 43 44  1  0  0  0  0
 44 48  1  0  0  0  0
 45 46  1  0  0  0  0
 46 48  1  0  0  0  0
 46 41  1  0  0  0  0
 46 47  1  1  0  0  0
 49 51  1  0  0  0  0
 50 51  1  0  0  0  0
 51 52  2  0  0  0  0
M  END
>  <MODEL>
2

>  <REMARK>
 VINA RESULT:      -4.6      4.823      9.243
  Name = 
  19 active torsions:
  status: ('A' for Active; 'I' for Inactive)
    1  A    between atoms: C_3  and  C_8
    2  A    between atoms: C_3  and  C_29
    3  A    between atoms: N_4  and  O_21
    4  A    between atoms: C_8  and  O_39
    5  A    between atoms: C_8  and  C_42
    6  A    between atoms: C_16  and  C_19
    7  A    between atoms: C_16  and  C_38
    8  A    between atoms: C_19  and  C_37
    9  A    between atoms: O_21  and  C_33
   10  A    between atoms: C_22  and  C_33
   11  A    between atoms: C_22  and  C_48
   12  A    between atoms: C_22  and  O_51
   13  A    between atoms: N_24  and  C_44
   14  A    between atoms: C_33  and  C_42
   15  A    between atoms: C_34  and  O_39
   16  A    between atoms: C_35  and  O_51
   17  A    between atoms: C_36  and  C_37
   18  A    between atoms: C_37  and  C_44
   19  A    between atoms: C_46  and  C_47
                            x       y       z     vdW  Elec       q    Type
                         _______ _______ _______ _____ _____    ______ ____

>  <TORSDO>
F 19

$$$$
=
 OpenBabel11072412493D

 52 56  0  0  1  0  0  0  0  0999 V2000
  161.0510  209.8990  151.5250 C   0  0  2  0  0  3  0  0  0  0  0  0
  161.2590  209.7980  153.0300 C   0  0  0  0  0  2  0  0  0  0  0  0
  160.1240  210.4510  153.8090 C   0  0  2  0  0  3  0  0  0  0  0  0
  160.3230  211.9700  153.7670 C   0  0  1  0  0  3  0  0  0  0  0  0
  158.3080  212.0700  152.2890 C   0  0  0  0  0  3  0  0  0  0  0  0
  160.0980  213.6520  151.8960 C   0  0  0  0  0  3  0  0  0  0  0  0
  158.1090  213.7110  150.5180 C   0  0  0  0  0  3  0  0  0  0  0  0
  157.5780  212.6360  151.2390 C   0  0  0  0  0  3  0  0  0  0  0  0
  159.5700  212.5720  152.6190 C   0  0  0  0  0  0  0  0  0  0  0  0
  159.3690  214.2170  150.8450 C   0  0  0  0  0  3  0  0  0  0  0  0
  159.9290  212.5710  154.9700 O   0  0  0  0  0  0  0  0  0  0  0  0
  157.2520  214.4520  156.0460 O   0  0  0  0  0  0  0  0  0  0  0  0
  157.7850  212.1940  155.8620 C   0  0  0  0  0  0  0  0  0  0  0  0
  158.5660  212.8510  154.8110 C   0  0  1  0  0  3  0  0  0  0  0  0
  157.0890  213.2070  156.6850 C   0  0  2  0  0  3  0  0  0  0  0  0
  157.9250  210.9130  156.2090 C   0  0  0  0  0  2  0  0  0  0  0  0
  158.3090  214.3160  155.1160 C   0  0  0  0  0  2  0  0  0  0  0  0
  154.7130  213.9200  157.0700 O   0  0  0  0  0  1  0  0  0  0  0  0
  155.2380  211.7080  156.7420 O   0  0  0  0  0  0  0  0  0  0  0  0
  155.6310  212.9020  156.8180 C   0  0  0  0  0  0  0  0  0  0  0  0
  160.1450  209.9890  155.1330 O   0  0  0  0  0  0  0  0  0  0  0  0
  160.7020  208.7530  155.0730 N   0  0  0  0  0  0  0  0  0  0  0  0
  161.8720  208.7640  155.9500 C   0  0  0  0  0  2  0  0  0  0  0  0
  160.1080  207.6720  157.1310 C   0  0  0  0  0  2  0  0  0  0  0  0
  159.7490  207.8260  155.6740 C   0  0  0  0  0  2  0  0  0  0  0  0
  161.5920  207.8920  157.1560 C   0  0  0  0  0  2  0  0  0  0  0  0
  160.8930  208.6160  150.9190 O   0  0  0  0  0  0  0  0  0  0  0  0
  163.3430  206.8230  150.7410 O   0  0  0  0  0  1  0  0  0  0  0  0
  160.9800  205.1750  154.0640 O   0  0  0  0  0  0  0  0  0  0  0  0
  161.2250  205.7710  152.9830 C   0  0  0  0  0  0  0  0  0  0  0  0
  162.0360  206.3530  150.8760 C   0  0  2  0  0  3  0  0  0  0  0  0
  161.1980  207.3990  151.5400 C   0  0  0  0  0  0  0  0  0  0  0  0
  162.0120  205.1880  151.8670 C   0  0  2  0  0  3  0  0  0  0  0  0
  160.7620  207.0780  152.7100 N   0  0  0  0  0  0  0  0  0  0  0  0
  161.2590  204.0010  151.2740 C   0  0  0  0  0  2  0  0  0  0  0  0
  161.0010  204.1620  149.7760 C   0  0  0  0  0  2  0  0  0  0  0  0
  161.3360  202.8890  149.0070 C   0  0  1  0  0  3  0  0  0  0  0  0
  159.8410  200.9940  149.6390 C   0  0  0  0  0  1  0  0  0  0  0  0
  160.0550  202.1390  148.6690 C   0  0  0  0  0  2  0  0  0  0  0  0
  162.0540  203.2620  147.7200 C   0  0  0  0  0  2  0  0  0  0  0  0
  162.8640  204.6720  145.4830 N   0  0  0  0  0  1  0  0  0  0  0  0
  161.1070  202.2770  145.7880 C   0  0  0  0  0  2  0  0  0  0  0  0
  159.9530  202.3160  144.7800 C   0  0  0  0  0  2  0  0  0  0  0  0
  159.4710  203.7420  144.5030 C   0  0  0  0  0  2  0  0  0  0  0  0
  161.0920  203.4720  146.6350 N   0  0  0  0  0  0  0  0  0  0  0  0
  161.4460  204.6680  145.8260 C   0  0  1  0  0  0  0  0  0  0  0  0
  161.1300  205.9260  146.6210 C   0  0  0  0  0  1  0  0  0  0  0  0
  160.6390  204.7290  144.5160 C   0  0  0  0  0  2  0  0  0  0  0  0
  162.2000  210.6720  150.8910 C   0  0  0  0  0  2  0  0  0  0  0  0
  161.6300  212.1560  148.8570 C   0  0  0  0  0  1  0  0  0  0  0  0
  161.9990  210.8280  149.4170 C   0  0  0  0  0  0  0  0  0  0  0  0
  162.1600  209.8750  148.6670 O   0  0  0  0  0  0  0  0  0  0  0  0
  1 49  1  6  0  0  0
  1  2  1  0  0  0  0
  3  2  1  6  0  0  0
  3 21  1  0  0  0  0
  4  3  1  0  0  0  0
  4 11  1  1  0  0  0
  5  9  1  0  0  0  0
  6  9  2  0  0  0  0
  7 10  2  0  0  0  0
  7  8  1  0  0  0  0
  8  5  2  0  0  0  0
  9  4  1  0  0  0  0
 10  6  1  0  0  0  0
 12 15  1  0  0  0  0
 13 16  2  0  0  0  0
 13 15  1  0  0  0  0
 14 11  1  1  0  0  0
 14 17  1  0  0  0  0
 14 13  1  0  0  0  0
 15 20  1  6  0  0  0
 17 12  1  0  0  0  0
 19 20  2  0  0  0  0
 20 18  1  0  0  0  0
 22 21  1  0  0  0  0
 22 25  1  0  0  0  0
 22 23  1  0  0  0  0
 23 26  1  0  0  0  0
 24 26  1  0  0  0  0
 25 24  1  0  0  0  0
 27  1  1  0  0  0  0
 27 32  1  0  0  0  0
 30 29  2  0  0  0  0
 31 28  1  1  0  0  0
 31 32  1  0  0  0  0
 31 33  1  0  0  0  0
 32 34  2  0  0  0  0
 33 35  1  6  0  0  0
 33 30  1  0  0  0  0
 34 30  1  0  0  0  0
 36 35  1  0  0  0  0
 37 40  1  6  0  0  0
 37 36  1  0  0  0  0
 39 37  1  0  0  0  0
 39 38  1  0  0  0  0
 41 46  1  0  0  0  0
 42 45  1  0  0  0  0
 43 42  1  0  0  0  0
 44 48  1  0  0  0  0
 44 43  1  0  0  0  0
 45 40  1  0  0  0  0
 46 47  1  1  0  0  0
 46 45  1  0  0  0  0
 48 46  1  0  0  0  0
 50 51  1  0  0  0  0
 51 49  1  0  0  0  0
 52 51  2  0  0  0  0
M  END
>  <MODEL>
3

>  <REMARK>
 VINA RESULT:      -4.4      4.670      8.443
  Name = 
  19 active torsions:
  status: ('A' for Active; 'I' for Inactive)
    1  A    between atoms: C_3  and  C_8
    2  A    between atoms: C_3  and  C_29
    3  A    between atoms: N_4  and  O_21
    4  A    between atoms: C_8  and  O_39
    5  A    between atoms: C_8  and  C_42
    6  A    between atoms: C_16  and  C_19
    7  A    between atoms: C_16  and  C_38
    8  A    between atoms: C_19  and  C_37
    9  A    between atoms: O_21  and  C_33
   10  A    between atoms: C_22  and  C_33
   11  A    between atoms: C_22  and  C_48
   12  A    between atoms: C_22  and  O_51
   13  A    between atoms: N_24  and  C_44
   14  A    between atoms: C_33  and  C_42
   15  A    between atoms: C_34  and  O_39
   16  A    between atoms: C_35  and  O_51
   17  A    between atoms: C_36  and  C_37
   18  A    between atoms: C_37  and  C_44
   19  A    between atoms: C_46  and  C_47
                            x       y       z     vdW  Elec       q    Type
                         _______ _______ _______ _____ _____    ______ ____

>  <TORSDO>
F 19

$$$$
=
 OpenBabel11072412493D

 52 56  0  0  1  0  0  0  0  0999 V2000
  161.0110  208.1580  153.4170 C   0  0  2  0  0  3  0  0  0  0  0  0
  159.7610  208.9140  153.8470 C   0  0  0  0  0  2  0  0  0  0  0  0
  160.0700  210.3550  154.2350 C   0  0  2  0  0  3  0  0  0  0  0  0
  159.2020  211.2810  153.3760 C   0  0  1  0  0  3  0  0  0  0  0  0
  156.9750  211.2110  154.5120 C   0  0  0  0  0  3  0  0  0  0  0  0
  158.3000  213.2270  154.7090 C   0  0  0  0  0  3  0  0  0  0  0  0
  156.1470  213.0840  155.8050 C   0  0  0  0  0  3  0  0  0  0  0  0
  155.9810  211.7870  155.3080 C   0  0  0  0  0  3  0  0  0  0  0  0
  158.1360  211.9280  154.2060 C   0  0  0  0  0  0  0  0  0  0  0  0
  157.3060  213.8040  155.5040 C   0  0  0  0  0  3  0  0  0  0  0  0
  159.9760  212.2580  152.7360 O   0  0  0  0  0  0  0  0  0  0  0  0
  161.2460  212.7510  149.5730 O   0  0  0  0  0  0  0  0  0  0  0  0
  159.2620  213.2010  150.7030 C   0  0  0  0  0  0  0  0  0  0  0  0
  159.8110  212.0170  151.3660 C   0  0  1  0  0  3  0  0  0  0  0  0
  160.2180  213.7070  149.6950 C   0  0  2  0  0  3  0  0  0  0  0  0
  158.2090  213.8900  151.1490 C   0  0  0  0  0  2  0  0  0  0  0  0
  161.1720  211.9040  150.7020 C   0  0  0  0  0  2  0  0  0  0  0  0
  158.2830  214.4470  148.2770 O   0  0  0  0  0  1  0  0  0  0  0  0
  160.1650  213.5460  147.3190 O   0  0  0  0  0  0  0  0  0  0  0  0
  159.5640  213.9080  148.3640 C   0  0  0  0  0  0  0  0  0  0  0  0
  161.4310  210.6120  154.0140 O   0  0  0  0  0  0  0  0  0  0  0  0
  161.8240  211.3850  155.0590 N   0  0  0  0  0  0  0  0  0  0  0  0
  160.8500  211.1870  156.1310 C   0  0  0  0  0  2  0  0  0  0  0  0
  162.7720  209.8740  156.6630 C   0  0  0  0  0  2  0  0  0  0  0  0
  163.0850  210.8360  155.5440 C   0  0  0  0  0  2  0  0  0  0  0  0
  161.5100  210.4240  157.2610 C   0  0  0  0  0  2  0  0  0  0  0  0
  160.7580  207.2910  152.3110 O   0  0  0  0  0  0  0  0  0  0  0  0
  159.5760  206.2970  149.6900 O   0  0  0  0  0  1  0  0  0  0  0  0
  162.2350  209.6070  148.5420 O   0  0  0  0  0  0  0  0  0  0  0  0
  161.7890  208.6410  149.2150 C   0  0  0  0  0  0  0  0  0  0  0  0
  160.9290  206.5790  149.8830 C   0  0  2  0  0  3  0  0  0  0  0  0
  161.0750  207.5860  150.9800 C   0  0  0  0  0  0  0  0  0  0  0  0
  161.4800  207.3020  148.6520 C   0  0  2  0  0  3  0  0  0  0  0  0
  161.5400  208.7290  150.6040 N   0  0  0  0  0  0  0  0  0  0  0  0
  162.7670  206.6360  148.1770 C   0  0  0  0  0  2  0  0  0  0  0  0
  162.6270  206.0210  146.7840 C   0  0  0  0  0  2  0  0  0  0  0  0
  161.5510  204.9410  146.7530 C   0  0  1  0  0  3  0  0  0  0  0  0
  160.7220  205.9400  144.6220 C   0  0  0  0  0  1  0  0  0  0  0  0
  161.1460  204.6590  145.3130 C   0  0  0  0  0  2  0  0  0  0  0  0
  162.1080  203.6700  147.3760 C   0  0  0  0  0  2  0  0  0  0  0  0
  162.2770  200.9770  147.9820 N   0  0  0  0  0  1  0  0  0  0  0  0
  161.6640  203.3570  149.6790 C   0  0  0  0  0  2  0  0  0  0  0  0
  160.6030  203.0160  150.7320 C   0  0  0  0  0  2  0  0  0  0  0  0
  159.5780  202.0030  150.2170 C   0  0  0  0  0  2  0  0  0  0  0  0
  161.1520  203.1030  148.3300 N   0  0  0  0  0  0  0  0  0  0  0  0
  160.9850  201.6400  148.1210 C   0  0  1  0  0  0  0  0  0  0  0  0
  160.1730  201.4020  146.8570 C   0  0  0  0  0  1  0  0  0  0  0  0
  160.2330  200.9790  149.2910 C   0  0  0  0  0  2  0  0  0  0  0  0
  161.5890  207.3910  154.5990 C   0  0  0  0  0  2  0  0  0  0  0  0
  160.9700  206.6630  156.9980 C   0  0  0  0  0  1  0  0  0  0  0  0
  160.5610  207.1890  155.6670 C   0  0  0  0  0  0  0  0  0  0  0  0
  159.3900  207.4760  155.4600 O   0  0  0  0  0  0  0  0  0  0  0  0
  1  2  1  1  0  0  0
  1 49  1  0  0  0  0
  3  2  1  6  0  0  0
  4 11  1  1  0  0  0
  4  9  1  0  0  0  0
  4  3  1  0  0  0  0
  5  8  1  0  0  0  0
  6 10  2  0  0  0  0
  8  7  2  0  0  0  0
  9  5  2  0  0  0  0
  9  6  1  0  0  0  0
 10  7  1  0  0  0  0
 12 15  1  0  0  0  0
 12 17  1  0  0  0  0
 13 16  2  0  0  0  0
 13 14  1  0  0  0  0
 14 11  1  1  0  0  0
 15 20  1  6  0  0  0
 15 13  1  0  0  0  0
 17 14  1  0  0  0  0
 18 20  1  0  0  0  0
 19 20  2  0  0  0  0
 21  3  1  0  0  0  0
 21 22  1  0  0  0  0
 22 25  1  0  0  0  0
 22 23  1  0  0  0  0
 23 26  1  0  0  0  0
 24 26  1  0  0  0  0
 25 24  1  0  0  0  0
 27  1  1  0  0  0  0
 29 30  2  0  0  0  0
 30 34  1  0  0  0  0
 31 28  1  6  0  0  0
 31 32  1  0  0  0  0
 32 27  1  0  0  0  0
 33 35  1  1  0  0  0
 33 30  1  0  0  0  0
 33 31  1  0  0  0  0
 34 32  2  0  0  0  0
 36 35  1  0  0  0  0
 37 39  1  6  0  0  0
 37 36  1  0  0  0  0
 37 40  1  0  0  0  0
 38 39  1  0  0  0  0
 40 45  1  0  0  0  0
 41 46  1  0  0  0  0
 42 43  1  0  0  0  0
 44 43  1  0  0  0  0
 45 42  1  0  0  0  0
 46 47  1  6  0  0  0
 46 45  1  0  0  0  0
 46 48  1  0  0  0  0
 48 44  1  0  0  0  0
 49 51  1  0  0  0  0
 51 50  1  0  0  0  0
 52 51  2  0  0  0  0
M  END
>  <MODEL>
4

>  <REMARK>
 VINA RESULT:      -4.0      4.450      9.051
  Name = 
  19 active torsions:
  status: ('A' for Active; 'I' for Inactive)
    1  A    between atoms: C_3  and  C_8
    2  A    between atoms: C_3  and  C_29
    3  A    between atoms: N_4  and  O_21
    4  A    between atoms: C_8  and  O_39
    5  A    between atoms: C_8  and  C_42
    6  A    between atoms: C_16  and  C_19
    7  A    between atoms: C_16  and  C_38
    8  A    between atoms: C_19  and  C_37
    9  A    between atoms: O_21  and  C_33
   10  A    between atoms: C_22  and  C_33
   11  A    between atoms: C_22  and  C_48
   12  A    between atoms: C_22  and  O_51
   13  A    between atoms: N_24  and  C_44
   14  A    between atoms: C_33  and  C_42
   15  A    between atoms: C_34  and  O_39
   16  A    between atoms: C_35  and  O_51
   17  A    between atoms: C_36  and  C_37
   18  A    between atoms: C_37  and  C_44
   19  A    between atoms: C_46  and  C_47
                            x       y       z     vdW  Elec       q    Type
                         _______ _______ _______ _____ _____    ______ ____

>  <TORSDO>
F 19

$$$$
=
 OpenBabel11072412493D

 52 56  0  0  1  0  0  0  0  0999 V2000
  161.8210  206.9270  148.9490 C   0  0  2  0  0  3  0  0  0  0  0  0
  161.5060  208.4090  149.1090 C   0  0  0  0  0  2  0  0  0  0  0  0
  162.2240  209.0190  150.3070 C   0  0  2  0  0  3  0  0  0  0  0  0
  161.2290  209.1100  151.4700 C   0  0  1  0  0  3  0  0  0  0  0  0
  162.3380  206.9620  152.1110 C   0  0  0  0  0  3  0  0  0  0  0  0
  160.4590  207.7220  153.4350 C   0  0  0  0  0  3  0  0  0  0  0  0
  161.5940  205.6650  154.0170 C   0  0  0  0  0  3  0  0  0  0  0  0
  162.4690  205.8440  152.9400 C   0  0  0  0  0  3  0  0  0  0  0  0
  161.3330  207.9030  152.3520 C   0  0  0  0  0  0  0  0  0  0  0  0
  160.5890  206.6030  154.2630 C   0  0  0  0  0  3  0  0  0  0  0  0
  161.4270  210.2760  152.2210 O   0  0  0  0  0  0  0  0  0  0  0  0
  158.9460  212.3860  153.3430 O   0  0  0  0  0  0  0  0  0  0  0  0
  160.6030  211.0480  154.2840 C   0  0  0  0  0  0  0  0  0  0  0  0
  160.2770  210.4020  153.0110 C   0  0  1  0  0  3  0  0  0  0  0  0
  159.8690  212.3270  154.4060 C   0  0  2  0  0  3  0  0  0  0  0  0
  161.6260  210.6940  155.0650 C   0  0  0  0  0  2  0  0  0  0  0  0
  159.3400  211.4210  152.3860 C   0  0  0  0  0  2  0  0  0  0  0  0
  158.2610  211.4130  156.1040 O   0  0  0  0  0  0  0  0  0  0  0  0
  159.2850  213.4430  156.4270 O   0  0  0  0  0  1  0  0  0  0  0  0
  159.1360  212.4210  155.7070 C   0  0  0  0  0  0  0  0  0  0  0  0
  162.6970  210.2940  149.9640 O   0  0  0  0  0  0  0  0  0  0  0  0
  161.9570  210.6740  148.8910 N   0  0  0  0  0  0  0  0  0  0  0  0
  161.2070  211.8660  149.2870 C   0  0  0  0  0  2  0  0  0  0  0  0
  163.0700  212.5960  147.9840 C   0  0  0  0  0  2  0  0  0  0  0  0
  162.8930  211.1040  147.8590 C   0  0  0  0  0  2  0  0  0  0  0  0
  161.7570  213.0630  148.5400 C   0  0  0  0  0  2  0  0  0  0  0  0
  162.4920  206.6530  147.7190 O   0  0  0  0  0  0  0  0  0  0  0  0
  163.3540  204.6700  145.5810 O   0  0  0  0  0  1  0  0  0  0  0  0
  159.1440  205.5510  144.6680 O   0  0  0  0  0  0  0  0  0  0  0  0
  160.3120  205.7320  145.1000 C   0  0  0  0  0  0  0  0  0  0  0  0
  162.6310  205.8340  145.3240 C   0  0  2  0  0  3  0  0  0  0  0  0
  161.8620  206.2220  146.5470 C   0  0  0  0  0  0  0  0  0  0  0  0
  161.5420  205.5410  144.2900 C   0  0  2  0  0  3  0  0  0  0  0  0
  160.5800  206.1520  146.4220 N   0  0  0  0  0  0  0  0  0  0  0  0
  161.5820  206.5730  143.1680 C   0  0  0  0  0  2  0  0  0  0  0  0
  161.7740  205.9340  141.7920 C   0  0  0  0  0  2  0  0  0  0  0  0
  162.3580  206.9230  140.7890 C   0  0  1  0  0  3  0  0  0  0  0  0
  162.3340  206.1780  138.4080 C   0  0  0  0  0  1  0  0  0  0  0  0
  163.1170  206.1700  139.7060 C   0  0  0  0  0  2  0  0  0  0  0  0
  161.2230  207.7100  140.1530 C   0  0  0  0  0  2  0  0  0  0  0  0
  159.4780  209.7260  139.4200 N   0  0  0  0  0  1  0  0  0  0  0  0
  162.3080  209.8020  140.3730 C   0  0  0  0  0  2  0  0  0  0  0  0
  163.0940  210.9040  139.6550 C   0  0  0  0  0  2  0  0  0  0  0  0
  162.6400  211.0950  138.2070 C   0  0  0  0  0  2  0  0  0  0  0  0
  161.7470  208.8560  139.4050 N   0  0  0  0  0  0  0  0  0  0  0  0
  160.6760  209.5170  138.6140 C   0  0  1  0  0  0  0  0  0  0  0  0
  160.3190  208.6450  137.4200 C   0  0  0  0  0  1  0  0  0  0  0  0
  161.1310  210.8860  138.0720 C   0  0  0  0  0  2  0  0  0  0  0  0
  160.5440  206.1070  149.0760 C   0  0  0  0  0  2  0  0  0  0  0  0
  160.6830  204.2430  150.8570 C   0  0  0  0  0  1  0  0  0  0  0  0
  160.8460  204.6900  149.4470 C   0  0  0  0  0  0  0  0  0  0  0  0
  161.2030  203.8910  148.5930 O   0  0  0  0  0  0  0  0  0  0  0  0
  1 49  1  6  0  0  0
  1  2  1  0  0  0  0
  3  2  1  6  0  0  0
  3  4  1  0  0  0  0
  4 11  1  1  0  0  0
  4  9  1  0  0  0  0
  5  9  2  0  0  0  0
  5  8  1  0  0  0  0
  6 10  2  0  0  0  0
  7 10  1  0  0  0  0
  8  7  2  0  0  0  0
  9  6  1  0  0  0  0
 12 15  1  0  0  0  0
 13 15  1  0  0  0  0
 13 16  2  0  0  0  0
 14 11  1  6  0  0  0
 14 13  1  0  0  0  0
 15 20  1  1  0  0  0
 17 14  1  0  0  0  0
 17 12  1  0  0  0  0
 20 18  2  0  0  0  0
 20 19  1  0  0  0  0
 21  3  1  0  0  0  0
 22 23  1  0  0  0  0
 22 21  1  0  0  0  0
 24 26  1  0  0  0  0
 25 24  1  0  0  0  0
 25 22  1  0  0  0  0
 26 23  1  0  0  0  0
 27  1  1  0  0  0  0
 29 30  2  0  0  0  0
 30 34  1  0  0  0  0
 31 28  1  1  0  0  0
 31 32  1  0  0  0  0
 32 27  1  0  0  0  0
 33 35  1  6  0  0  0
 33 30  1  0  0  0  0
 33 31  1  0  0  0  0
 34 32  2  0  0  0  0
 36 35  1  0  0  0  0
 37 39  1  6  0  0  0
 37 36  1  0  0  0  0
 38 39  1  0  0  0  0
 40 37  1  0  0  0  0
 43 42  1  0  0  0  0
 44 43  1  0  0  0  0
 45 40  1  0  0  0  0
 45 42  1  0  0  0  0
 46 47  1  6  0  0  0
 46 45  1  0  0  0  0
 46 41  1  0  0  0  0
 48 44  1  0  0  0  0
 48 46  1  0  0  0  0
 49 51  1  0  0  0  0
 51 50  1  0  0  0  0
 52 51  2  0  0  0  0
M  END
>  <MODEL>
5

>  <REMARK>
 VINA RESULT:      -3.7      2.474      5.308
  Name = 
  19 active torsions:
  status: ('A' for Active; 'I' for Inactive)
    1  A    between atoms: C_3  and  C_8
    2  A    between atoms: C_3  and  C_29
    3  A    between atoms: N_4  and  O_21
    4  A    between atoms: C_8  and  O_39
    5  A    between atoms: C_8  and  C_42
    6  A    between atoms: C_16  and  C_19
    7  A    between atoms: C_16  and  C_38
    8  A    between atoms: C_19  and  C_37
    9  A    between atoms: O_21  and  C_33
   10  A    between atoms: C_22  and  C_33
   11  A    between atoms: C_22  and  C_48
   12  A    between atoms: C_22  and  O_51
   13  A    between atoms: N_24  and  C_44
   14  A    between atoms: C_33  and  C_42
   15  A    between atoms: C_34  and  O_39
   16  A    between atoms: C_35  and  O_51
   17  A    between atoms: C_36  and  C_37
   18  A    between atoms: C_37  and  C_44
   19  A    between atoms: C_46  and  C_47
                            x       y       z     vdW  Elec       q    Type
                         _______ _______ _______ _____ _____    ______ ____

>  <TORSDO>
F 19

$$$$
=
 OpenBabel11072412493D

 52 56  0  0  1  0  0  0  0  0999 V2000
  161.8530  208.2610  149.5870 C   0  0  2  0  0  3  0  0  0  0  0  0
  161.0050  207.1780  148.9350 C   0  0  0  0  0  2  0  0  0  0  0  0
  161.3520  205.7890  149.4560 C   0  0  2  0  0  3  0  0  0  0  0  0
  160.9540  204.7610  148.3920 C   0  0  1  0  0  3  0  0  0  0  0  0
  162.4840  205.3680  146.5090 C   0  0  0  0  0  3  0  0  0  0  0  0
  160.1080  205.7250  146.2160 C   0  0  0  0  0  3  0  0  0  0  0  0
  161.6410  206.2680  144.4230 C   0  0  0  0  0  3  0  0  0  0  0  0
  162.7150  205.8480  145.2160 C   0  0  0  0  0  3  0  0  0  0  0  0
  161.1820  205.3080  147.0150 C   0  0  0  0  0  0  0  0  0  0  0  0
  160.3380  206.2080  144.9240 C   0  0  0  0  0  3  0  0  0  0  0  0
  161.6540  203.5580  148.5560 O   0  0  0  0  0  0  0  0  0  0  0  0
  161.0760  200.1730  148.3000 O   0  0  0  0  0  0  0  0  0  0  0  0
  161.2180  201.9930  146.8560 C   0  0  0  0  0  0  0  0  0  0  0  0
  160.7710  202.5590  148.1300 C   0  0  1  0  0  3  0  0  0  0  0  0
  161.5210  200.5540  147.0190 C   0  0  2  0  0  3  0  0  0  0  0  0
  161.5880  202.7210  145.8000 C   0  0  0  0  0  2  0  0  0  0  0  0
  160.8810  201.3560  149.0500 C   0  0  0  0  0  2  0  0  0  0  0  0
  159.6420  200.1590  145.4010 O   0  0  0  0  0  0  0  0  0  0  0  0
  161.3090  198.6030  145.6690 O   0  0  0  0  0  1  0  0  0  0  0  0
  160.8300  199.7240  145.9840 C   0  0  0  0  0  0  0  0  0  0  0  0
  160.6550  205.5550  150.6510 O   0  0  0  0  0  0  0  0  0  0  0  0
  161.5150  204.8600  151.4380 N   0  0  0  0  0  0  0  0  0  0  0  0
  162.6590  205.7310  151.7000 C   0  0  0  0  0  2  0  0  0  0  0  0
  161.2680  205.7790  153.6400 C   0  0  0  0  0  2  0  0  0  0  0  0
  160.8510  204.6590  152.7210 C   0  0  0  0  0  2  0  0  0  0  0  0
  162.6430  206.1390  153.1590 C   0  0  0  0  0  2  0  0  0  0  0  0
  161.0820  209.0970  150.4520 O   0  0  0  0  0  0  0  0  0  0  0  0
  160.1580  208.2390  153.2190 O   0  0  0  0  0  1  0  0  0  0  0  0
  163.7320  210.6980  153.9370 O   0  0  0  0  0  0  0  0  0  0  0  0
  162.6950  210.2790  153.3610 C   0  0  0  0  0  0  0  0  0  0  0  0
  160.5340  209.5400  152.8870 C   0  0  2  0  0  3  0  0  0  0  0  0
  161.4810  209.5040  151.7300 C   0  0  0  0  0  0  0  0  0  0  0  0
  161.3730  210.1350  154.0210 C   0  0  2  0  0  3  0  0  0  0  0  0
  162.6780  209.9010  151.9990 N   0  0  0  0  0  0  0  0  0  0  0  0
  160.8420  211.5110  154.4100 C   0  0  0  0  0  2  0  0  0  0  0  0
  160.4920  211.6040  155.8950 C   0  0  0  0  0  2  0  0  0  0  0  0
  159.3660  210.6460  156.2690 C   0  0  1  0  0  3  0  0  0  0  0  0
  159.7840  208.1950  156.4820 C   0  0  0  0  0  1  0  0  0  0  0  0
  159.9060  209.5420  157.1670 C   0  0  0  0  0  2  0  0  0  0  0  0
  158.2870  211.4160  157.0140 C   0  0  0  0  0  2  0  0  0  0  0  0
  155.8590  210.6260  155.9530 N   0  0  0  0  0  1  0  0  0  0  0  0
  156.8290  213.2780  156.9250 C   0  0  0  0  0  2  0  0  0  0  0  0
  156.2720  214.4120  156.0590 C   0  0  0  0  0  2  0  0  0  0  0  0
  156.1230  214.0050  154.5920 C   0  0  0  0  0  2  0  0  0  0  0  0
  157.5870  212.3280  156.1060 N   0  0  0  0  0  0  0  0  0  0  0  0
  156.6630  211.5880  155.2070 C   0  0  1  0  0  0  0  0  0  0  0  0
  157.4710  210.8420  154.1570 C   0  0  0  0  0  1  0  0  0  0  0  0
  155.7030  212.5400  154.4680 C   0  0  0  0  0  2  0  0  0  0  0  0
  162.5640  209.0800  148.5180 C   0  0  0  0  0  2  0  0  0  0  0  0
  162.6200  211.6510  148.7440 C   0  0  0  0  0  1  0  0  0  0  0  0
  161.9080  210.4110  148.3300 C   0  0  0  0  0  0  0  0  0  0  0  0
  160.8010  210.4880  147.8170 O   0  0  0  0  0  0  0  0  0  0  0  0
  1 49  1  6  0  0  0
  1 27  1  0  0  0  0
  2  1  1  0  0  0  0
  3  2  1  6  0  0  0
  3 21  1  0  0  0  0
  4 11  1  1  0  0  0
  4  3  1  0  0  0  0
  5  9  1  0  0  0  0
  6  9  2  0  0  0  0
  7 10  2  0  0  0  0
  7  8  1  0  0  0  0
  8  5  2  0  0  0  0
  9  4  1  0  0  0  0
 10  6  1  0  0  0  0
 12 17  1  0  0  0  0
 13 15  1  0  0  0  0
 13 14  1  0  0  0  0
 14 11  1  1  0  0  0
 14 17  1  0  0  0  0
 15 20  1  6  0  0  0
 15 12  1  0  0  0  0
 16 13  2  0  0  0  0
 18 20  2  0  0  0  0
 19 20  1  0  0  0  0
 21 22  1  0  0  0  0
 22 23  1  0  0  0  0
 22 25  1  0  0  0  0
 23 26  1  0  0  0  0
 25 24  1  0  0  0  0
 26 24  1  0  0  0  0
 27 32  1  0  0  0  0
 30 29  2  0  0  0  0
 30 33  1  0  0  0  0
 31 28  1  1  0  0  0
 31 33  1  0  0  0  0
 32 34  2  0  0  0  0
 32 31  1  0  0  0  0
 33 35  1  6  0  0  0
 34 30  1  0  0  0  0
 35 36  1  0  0  0  0
 37 36  1  1  0  0  0
 37 40  1  0  0  0  0
 37 39  1  0  0  0  0
 38 39  1  0  0  0  0
 43 42  1  0  0  0  0
 44 43  1  0  0  0  0
 45 42  1  0  0  0  0
 45 40  1  0  0  0  0
 46 47  1  6  0  0  0
 46 41  1  0  0  0  0
 46 45  1  0  0  0  0
 48 44  1  0  0  0  0
 48 46  1  0  0  0  0
 51 49  1  0  0  0  0
 51 50  1  0  0  0  0
 52 51  2  0  0  0  0
M  END
>  <MODEL>
6

>  <REMARK>
 VINA RESULT:      -2.9      4.705     10.744
  Name = 
  19 active torsions:
  status: ('A' for Active; 'I' for Inactive)
    1  A    between atoms: C_3  and  C_8
    2  A    between atoms: C_3  and  C_29
    3  A    between atoms: N_4  and  O_21
    4  A    between atoms: C_8  and  O_39
    5  A    between atoms: C_8  and  C_42
    6  A    between atoms: C_16  and  C_19
    7  A    between atoms: C_16  and  C_38
    8  A    between atoms: C_19  and  C_37
    9  A    between atoms: O_21  and  C_33
   10  A    between atoms: C_22  and  C_33
   11  A    between atoms: C_22  and  C_48
   12  A    between atoms: C_22  and  O_51
   13  A    between atoms: N_24  and  C_44
   14  A    between atoms: C_33  and  C_42
   15  A    between atoms: C_34  and  O_39
   16  A    between atoms: C_35  and  O_51
   17  A    between atoms: C_36  and  C_37
   18  A    between atoms: C_37  and  C_44
   19  A    between atoms: C_46  and  C_47
                            x       y       z     vdW  Elec       q    Type
                         _______ _______ _______ _____ _____    ______ ____

>  <TORSDO>
F 19

$$$$
