=
 OpenBabel11072411063D

 46 52  0  0  1  0  0  0  0  0999 V2000
  160.7950  212.5160  151.5070 C   0  0  2  0  0  3  0  0  0  0  0  0
  155.9340  213.5820  150.1980 O   0  0  0  0  0  1  0  0  0  0  0  0
  159.0950  212.0970  149.4700 C   0  0  0  0  0  2  0  0  0  0  0  0
  159.1830  214.4120  151.9230 C   0  0  0  0  0  2  0  0  0  0  0  0
  157.2500  213.3450  150.6140 C   0  0  2  0  0  3  0  0  0  0  0  0
  157.6870  214.4410  151.6010 C   0  0  1  0  0  3  0  0  0  0  0  0
  161.6120  212.0000  149.1050 C   0  0  0  0  0  2  0  0  0  0  0  0
  161.3210  213.4860  149.1740 C   0  0  2  0  0  3  0  0  0  0  0  0
  159.6360  213.0240  152.3590 C   0  0  0  0  0  2  0  0  0  0  0  0
  158.1480  213.2940  149.3880 C   0  0  0  0  0  2  0  0  0  0  0  0
  160.4880  212.4970  149.9880 C   0  0  2  0  0  0  0  0  0  0  0  0
  160.2010  210.1940  152.4180 C   0  0  0  0  0  2  0  0  0  0  0  0
  160.8320  208.8170  152.2780 C   0  0  2  0  0  3  0  0  0  0  0  0
  161.0310  208.2620  153.5400 O   0  0  0  0  0  1  0  0  0  0  0  0
  162.2720  210.4780  151.1890 C   0  0  0  0  0  2  0  0  0  0  0  0
  161.2980  211.1910  152.0980 C   0  0  1  0  0  3  0  0  0  0  0  0
  162.1790  209.0160  151.5910 C   0  0  2  0  0  3  0  0  0  0  0  0
  161.7550  207.7130  148.2570 C   0  0  0  0  0  2  0  0  0  0  0  0
  161.7600  205.3450  149.1570 C   0  0  1  0  0  3  0  0  0  0  0  0
  159.8120  206.3030  148.0740 O   0  0  0  0  0  1  0  0  0  0  0  0
  162.3620  208.0710  150.4000 C   0  0  2  0  0  3  0  0  0  0  0  0
  161.3130  208.2490  149.4780 O   0  0  0  0  0  0  0  0  0  0  0  0
  161.2140  206.2950  148.0730 C   0  0  1  0  0  3  0  0  0  0  0  0
  162.5110  206.5980  150.8410 C   0  0  0  0  0  2  0  0  0  0  0  0
  161.4160  205.8210  150.4310 O   0  0  0  0  0  0  0  0  0  0  0  0
  160.4920  201.8470  149.9240 C   0  0  0  0  0  3  0  0  0  0  0  0
  161.3540  203.8970  148.9250 C   0  0  0  0  0  0  0  0  0  0  0  0
  160.8760  201.9450  147.5450 C   0  0  0  0  0  3  0  0  0  0  0  0
  160.4750  201.2330  148.6730 C   0  0  0  0  0  3  0  0  0  0  0  0
  161.3120  203.2760  147.6470 C   0  0  0  0  0  0  0  0  0  0  0  0
  160.9190  203.1680  150.0450 C   0  0  0  0  0  3  0  0  0  0  0  0
  161.6990  203.9850  146.4630 N   0  0  0  0  0  2  0  0  0  0  0  0
  161.5490  203.4600  145.1110 C   0  0  0  0  0  2  0  0  0  0  0  0
  160.5350  204.1580  144.4470 O   0  0  0  0  0  1  0  0  0  0  0  0
  156.9050  214.3380  152.8420 C   0  0  0  0  0  0  0  0  0  0  0  0
  156.2620  214.2310  153.8580 C   0  0  0  0  0  0  0  0  0  0  0  0
  155.4940  214.0810  155.0620 C   0  0  0  0  0  0  0  0  0  0  0  0
  153.7910  214.1850  156.5170 N   0  0  0  0  0  0  0  0  0  0  0  0
  156.0020  213.5210  156.3400 C   0  0  0  0  0  2  0  0  0  0  0  0
  154.7750  213.6710  157.1820 C   0  0  0  0  0  3  0  0  0  0  0  0
  154.2310  214.4440  155.1900 C   0  0  0  0  0  3  0  0  0  0  0  0
  160.6710  213.8770  147.9990 O   0  0  0  0  0  0  0  0  0  0  0  0
  162.5330  214.4200  146.6250 C   0  0  0  0  0  2  0  0  0  0  0  0
  161.4770  213.3890  146.9660 C   0  0  2  0  0  3  0  0  0  0  0  0
  161.7070  213.4930  144.5030 C   0  0  0  0  0  1  0  0  0  0  0  0
  161.3150  214.2730  145.7420 C   0  0  2  0  0  3  0  0  0  0  0  0
  1 16  1  0  0  0  0
  1  9  1  1  0  0  0
  3 11  1  0  0  0  0
  4  9  1  0  0  0  0
  5  2  1  6  0  0  0
  5  6  1  0  0  0  0
  6  4  1  0  0  0  0
  6 35  1  1  0  0  0
  7  8  1  0  0  0  0
  8 42  1  6  0  0  0
  8 11  1  0  0  0  0
 10  3  1  0  0  0  0
 10  5  1  0  0  0  0
 11  7  1  6  0  0  0
 11  1  1  0  0  0  0
 13 12  1  0  0  0  0
 13 14  1  1  0  0  0
 16 15  1  6  0  0  0
 16 12  1  0  0  0  0
 17 15  1  6  0  0  0
 17 13  1  0  0  0  0
 18 22  1  0  0  0  0
 19 27  1  6  0  0  0
 19 25  1  0  0  0  0
 21 24  1  1  0  0  0
 21 17  1  0  0  0  0
 22 21  1  0  0  0  0
 23 20  1  1  0  0  0
 23 18  1  0  0  0  0
 23 19  1  0  0  0  0
 25 24  1  0  0  0  0
 26 31  1  0  0  0  0
 27 31  2  0  0  0  0
 28 30  2  0  0  0  0
 28 29  1  0  0  0  0
 29 26  2  0  0  0  0
 30 27  1  0  0  0  0
 32 30  1  0  0  0  0
 33 32  1  0  0  0  0
 34 33  1  0  0  0  0
 35 36  3  0  0  0  0
 36 37  1  0  0  0  0
 37 41  2  0  0  0  0
 37 39  1  0  0  0  0
 38 40  2  0  0  0  0
 39 40  1  0  0  0  0
 41 38  1  0  0  0  0
 43 44  1  0  0  0  0
 44 42  1  1  0  0  0
 46 45  1  6  0  0  0
 46 43  1  0  0  0  0
 46 44  1  0  0  0  0
M  END
>  <MODEL>
1

>  <REMARK>
 VINA RESULT:      -5.7      0.000      0.000
  Name = 
  9 active torsions:
  status: ('A' for Active; 'I' for Inactive)
    1  A    between atoms: C_1  and  C_21
    2  A    between atoms: C_2  and  C_42
    3  A    between atoms: C_8  and  C_16
    4  A    between atoms: C_13  and  C_15
    5  A    between atoms: C_14  and  N_37
    6  A    between atoms: C_20  and  N_37
    7  A    between atoms: O_24  and  C_28
    8  A    between atoms: O_24  and  C_32
    9  A    between atoms: C_25  and  C_46
                            x       y       z     vdW  Elec       q    Type
                         _______ _______ _______ _____ _____    ______ ____

>  <TORSDO>
F 9

$$$$
=
 OpenBabel11072411063D

 46 52  0  0  1  0  0  0  0  0999 V2000
  159.6300  209.4020  154.0790 C   0  0  2  0  0  3  0  0  0  0  0  0
  159.9130  214.4520  153.1340 O   0  0  0  0  0  1  0  0  0  0  0  0
  160.4190  211.6620  155.2990 C   0  0  0  0  0  2  0  0  0  0  0  0
  158.2810  211.0730  152.7560 C   0  0  0  0  0  2  0  0  0  0  0  0
  159.7890  213.0710  153.3270 C   0  0  2  0  0  3  0  0  0  0  0  0
  158.6590  212.5230  152.4390 C   0  0  1  0  0  3  0  0  0  0  0  0
  159.7920  209.6020  156.6560 C   0  0  0  0  0  2  0  0  0  0  0  0
  158.4510  210.1750  156.2410 C   0  0  2  0  0  3  0  0  0  0  0  0
  159.5040  210.1650  152.7650 C   0  0  0  0  0  2  0  0  0  0  0  0
  159.5330  212.8040  154.8010 C   0  0  0  0  0  2  0  0  0  0  0  0
  159.6680  210.3190  155.3290 C   0  0  2  0  0  0  0  0  0  0  0  0
  160.3490  206.9450  153.9400 C   0  0  0  0  0  2  0  0  0  0  0  0
  161.4020  206.2030  153.1310 C   0  0  2  0  0  3  0  0  0  0  0  0
  162.2010  205.4440  153.9840 O   0  0  0  0  0  1  0  0  0  0  0  0
  161.6180  208.6110  152.7160 C   0  0  0  0  0  2  0  0  0  0  0  0
  160.7850  208.3980  153.9590 C   0  0  1  0  0  3  0  0  0  0  0  0
  162.2570  207.2600  152.4410 C   0  0  2  0  0  3  0  0  0  0  0  0
  161.7060  207.6140  148.8960 C   0  0  0  0  0  2  0  0  0  0  0  0
  161.8690  205.1040  148.5980 C   0  0  1  0  0  3  0  0  0  0  0  0
  159.8220  206.3210  148.1380 O   0  0  0  0  0  1  0  0  0  0  0  0
  162.4160  206.9840  150.9430 C   0  0  2  0  0  3  0  0  0  0  0  0
  161.3100  207.4970  150.2390 O   0  0  0  0  0  0  0  0  0  0  0  0
  161.2200  206.4080  148.0930 C   0  0  1  0  0  3  0  0  0  0  0  0
  162.6560  205.4870  150.6480 C   0  0  0  0  0  2  0  0  0  0  0  0
  161.5750  204.9160  149.9570 O   0  0  0  0  0  0  0  0  0  0  0  0
  160.6150  201.6370  147.6790 C   0  0  0  0  0  3  0  0  0  0  0  0
  161.5160  203.9020  147.7340 C   0  0  0  0  0  0  0  0  0  0  0  0
  161.2030  202.7380  145.6150 C   0  0  0  0  0  3  0  0  0  0  0  0
  160.7200  201.6180  146.2900 C   0  0  0  0  0  3  0  0  0  0  0  0
  161.5990  203.8880  146.3150 C   0  0  0  0  0  0  0  0  0  0  0  0
  161.0010  202.7710  148.3910 C   0  0  0  0  0  3  0  0  0  0  0  0
  162.0730  205.0290  145.5870 N   0  0  0  0  0  2  0  0  0  0  0  0
  161.3210  205.6900  144.5260 C   0  0  0  0  0  2  0  0  0  0  0  0
  159.9790  205.8030  144.9020 O   0  0  0  0  0  1  0  0  0  0  0  0
  159.0300  212.6460  151.0220 C   0  0  0  0  0  0  0  0  0  0  0  0
  159.3570  212.7470  149.8650 C   0  0  0  0  0  0  0  0  0  0  0  0
  159.7670  212.8710  148.4940 C   0  0  0  0  0  0  0  0  0  0  0  0
  161.0690  213.1050  146.6830 N   0  0  0  0  0  0  0  0  0  0  0  0
  158.8520  212.9370  147.3270 C   0  0  0  0  0  3  0  0  0  0  0  0
  159.8570  213.0990  146.2310 C   0  0  0  0  0  3  0  0  0  0  0  0
  161.0240  212.9620  148.0970 C   0  0  0  0  0  2  0  0  0  0  0  0
  158.2070  211.3400  156.9770 O   0  0  0  0  0  0  0  0  0  0  0  0
  156.2100  211.5580  155.7080 C   0  0  0  0  0  2  0  0  0  0  0  0
  156.8150  211.4070  157.0880 C   0  0  2  0  0  3  0  0  0  0  0  0
  154.9800  213.0650  157.2120 C   0  0  0  0  0  1  0  0  0  0  0  0
  156.3380  212.7660  156.6080 C   0  0  2  0  0  3  0  0  0  0  0  0
  1  9  1  6  0  0  0
  1 11  1  0  0  0  0
  4  9  1  0  0  0  0
  5  2  1  1  0  0  0
  5 10  1  0  0  0  0
  6 35  1  6  0  0  0
  6  4  1  0  0  0  0
  6  5  1  0  0  0  0
  8  7  1  0  0  0  0
  8 42  1  1  0  0  0
 10  3  1  0  0  0  0
 11  3  1  6  0  0  0
 11  8  1  0  0  0  0
 11  7  1  0  0  0  0
 12 16  1  0  0  0  0
 13 12  1  0  0  0  0
 13 14  1  1  0  0  0
 16 15  1  6  0  0  0
 16  1  1  0  0  0  0
 17 15  1  6  0  0  0
 17 13  1  0  0  0  0
 18 22  1  0  0  0  0
 19 27  1  6  0  0  0
 19 25  1  0  0  0  0
 21 24  1  1  0  0  0
 21 17  1  0  0  0  0
 22 21  1  0  0  0  0
 23 20  1  1  0  0  0
 23 19  1  0  0  0  0
 23 18  1  0  0  0  0
 25 24  1  0  0  0  0
 26 31  1  0  0  0  0
 27 31  2  0  0  0  0
 28 29  1  0  0  0  0
 28 30  2  0  0  0  0
 29 26  2  0  0  0  0
 30 27  1  0  0  0  0
 32 30  1  0  0  0  0
 33 34  1  0  0  0  0
 33 32  1  0  0  0  0
 36 35  3  0  0  0  0
 37 36  1  0  0  0  0
 38 41  1  0  0  0  0
 39 37  2  0  0  0  0
 40 38  2  0  0  0  0
 40 39  1  0  0  0  0
 41 37  1  0  0  0  0
 43 46  1  0  0  0  0
 43 44  1  0  0  0  0
 44 42  1  6  0  0  0
 46 44  1  0  0  0  0
 46 45  1  1  0  0  0
M  END
>  <MODEL>
2

>  <REMARK>
 VINA RESULT:      -5.5      2.637      6.080
  Name = 
  9 active torsions:
  status: ('A' for Active; 'I' for Inactive)
    1  A    between atoms: C_1  and  C_21
    2  A    between atoms: C_2  and  C_42
    3  A    between atoms: C_8  and  C_16
    4  A    between atoms: C_13  and  C_15
    5  A    between atoms: C_14  and  N_37
    6  A    between atoms: C_20  and  N_37
    7  A    between atoms: O_24  and  C_28
    8  A    between atoms: O_24  and  C_32
    9  A    between atoms: C_25  and  C_46
                            x       y       z     vdW  Elec       q    Type
                         _______ _______ _______ _____ _____    ______ ____

>  <TORSDO>
F 9

$$$$
=
 OpenBabel11072411063D

 46 52  0  0  1  0  0  0  0  0999 V2000
  159.3730  212.6480  146.8210 C   0  0  2  0  0  3  0  0  0  0  0  0
  164.1620  212.1580  148.6370 O   0  0  0  0  0  1  0  0  0  0  0  0
  161.6920  214.0040  146.8440 C   0  0  0  0  0  2  0  0  0  0  0  0
  160.9620  210.7350  147.2400 C   0  0  0  0  0  2  0  0  0  0  0  0
  162.8480  212.2140  148.1600 C   0  0  2  0  0  3  0  0  0  0  0  0
  162.2980  210.7880  147.9870 C   0  0  1  0  0  3  0  0  0  0  0  0
  159.9410  214.4530  145.0520 C   0  0  0  0  0  2  0  0  0  0  0  0
  160.5870  213.1580  144.6000 C   0  0  2  0  0  3  0  0  0  0  0  0
  159.9380  211.6800  147.8550 C   0  0  0  0  0  2  0  0  0  0  0  0
  162.8350  212.9890  146.8520 C   0  0  0  0  0  2  0  0  0  0  0  0
  160.4580  213.4790  146.0890 C   0  0  2  0  0  0  0  0  0  0  0  0
  157.0540  212.6310  147.9130 C   0  0  0  0  0  2  0  0  0  0  0  0
  156.4420  213.3730  149.0910 C   0  0  2  0  0  3  0  0  0  0  0  0
  155.2510  213.9790  148.6970 O   0  0  0  0  0  1  0  0  0  0  0  0
  158.7020  214.2330  148.6840 C   0  0  0  0  0  2  0  0  0  0  0  0
  158.2440  213.4600  147.4700 C   0  0  1  0  0  3  0  0  0  0  0  0
  157.4430  214.4440  149.5090 C   0  0  2  0  0  3  0  0  0  0  0  0
  159.2170  213.7640  152.5730 C   0  0  0  0  0  2  0  0  0  0  0  0
  157.0370  213.2140  153.7390 C   0  0  1  0  0  3  0  0  0  0  0  0
  158.7710  211.5510  153.4070 O   0  0  0  0  0  1  0  0  0  0  0  0
  157.7210  214.4160  151.0150 C   0  0  2  0  0  3  0  0  0  0  0  0
  158.6990  213.4460  151.3070 O   0  0  0  0  0  0  0  0  0  0  0  0
  158.5460  212.9120  153.6500 C   0  0  1  0  0  3  0  0  0  0  0  0
  156.4320  214.2160  151.8430 C   0  0  0  0  0  2  0  0  0  0  0  0
  156.4260  212.9750  152.4990 O   0  0  0  0  0  0  0  0  0  0  0  0
  155.1160  210.5110  155.5960 C   0  0  0  0  0  3  0  0  0  0  0  0
  156.3620  212.4860  154.8930 C   0  0  0  0  0  0  0  0  0  0  0  0
  155.7870  212.1460  157.2370 C   0  0  0  0  0  3  0  0  0  0  0  0
  155.1410  210.9540  156.9170 C   0  0  0  0  0  3  0  0  0  0  0  0
  156.4070  212.9220  156.2450 C   0  0  0  0  0  0  0  0  0  0  0  0
  155.7290  211.2670  154.5970 C   0  0  0  0  0  3  0  0  0  0  0  0
  157.0790  214.1340  156.6130 N   0  0  0  0  0  2  0  0  0  0  0  0
  158.3910  214.1790  157.2480 C   0  0  0  0  0  2  0  0  0  0  0  0
  159.1870  213.1420  156.7520 O   0  0  0  0  0  1  0  0  0  0  0  0
  162.1650  210.1400  149.3000 C   0  0  0  0  0  0  0  0  0  0  0  0
  162.0410  209.6240  150.3840 C   0  0  0  0  0  0  0  0  0  0  0  0
  161.8820  209.0290  151.6810 C   0  0  0  0  0  0  0  0  0  0  0  0
  161.6030  208.8130  153.8960 N   0  0  0  0  0  0  0  0  0  0  0  0
  161.9370  207.5730  151.9700 C   0  0  0  0  0  3  0  0  0  0  0  0
  161.7490  207.6070  153.4540 C   0  0  0  0  0  3  0  0  0  0  0  0
  161.6840  209.7100  152.7950 C   0  0  0  0  0  2  0  0  0  0  0  0
  161.8690  213.4350  144.1130 O   0  0  0  0  0  0  0  0  0  0  0  0
  162.2190  212.2240  142.0980 C   0  0  0  0  0  2  0  0  0  0  0  0
  161.7150  213.5070  142.7250 C   0  0  2  0  0  3  0  0  0  0  0  0
  162.9920  214.0790  140.6830 C   0  0  0  0  0  1  0  0  0  0  0  0
  163.0810  213.4650  142.0660 C   0  0  2  0  0  3  0  0  0  0  0  0
  1 16  1  0  0  0  0
  1  9  1  1  0  0  0
  3 10  1  0  0  0  0
  4  9  1  0  0  0  0
  4  6  1  0  0  0  0
  5  2  1  6  0  0  0
  6  5  1  0  0  0  0
  6 35  1  1  0  0  0
  8 42  1  6  0  0  0
  8  7  1  0  0  0  0
  8 11  1  0  0  0  0
 10  5  1  0  0  0  0
 11  7  1  6  0  0  0
 11  1  1  0  0  0  0
 11  3  1  0  0  0  0
 12 13  1  0  0  0  0
 13 14  1  6  0  0  0
 13 17  1  0  0  0  0
 16 12  1  1  0  0  0
 16 15  1  0  0  0  0
 17 15  1  6  0  0  0
 17 21  1  0  0  0  0
 18 23  1  0  0  0  0
 19 27  1  1  0  0  0
 21 22  1  0  0  0  0
 21 24  1  1  0  0  0
 22 18  1  0  0  0  0
 23 20  1  6  0  0  0
 23 19  1  0  0  0  0
 24 25  1  0  0  0  0
 25 19  1  0  0  0  0
 26 29  1  0  0  0  0
 27 30  2  0  0  0  0
 29 28  2  0  0  0  0
 30 32  1  0  0  0  0
 30 28  1  0  0  0  0
 31 27  1  0  0  0  0
 31 26  2  0  0  0  0
 32 33  1  0  0  0  0
 34 33  1  0  0  0  0
 35 36  3  0  0  0  0
 36 37  1  0  0  0  0
 37 39  2  0  0  0  0
 37 41  1  0  0  0  0
 39 40  1  0  0  0  0
 40 38  2  0  0  0  0
 41 38  1  0  0  0  0
 43 44  1  0  0  0  0
 44 42  1  1  0  0  0
 46 45  1  6  0  0  0
 46 43  1  0  0  0  0
 46 44  1  0  0  0  0
M  END
>  <MODEL>
3

>  <REMARK>
 VINA RESULT:      -3.5      3.969      8.876
  Name = 
  9 active torsions:
  status: ('A' for Active; 'I' for Inactive)
    1  A    between atoms: C_1  and  C_21
    2  A    between atoms: C_2  and  C_42
    3  A    between atoms: C_8  and  C_16
    4  A    between atoms: C_13  and  C_15
    5  A    between atoms: C_14  and  N_37
    6  A    between atoms: C_20  and  N_37
    7  A    between atoms: O_24  and  C_28
    8  A    between atoms: O_24  and  C_32
    9  A    between atoms: C_25  and  C_46
                            x       y       z     vdW  Elec       q    Type
                         _______ _______ _______ _____ _____    ______ ____

>  <TORSDO>
F 9

$$$$
=
 OpenBabel11072411063D

 46 52  0  0  1  0  0  0  0  0999 V2000
  160.9930  211.3130  149.8850 C   0  0  2  0  0  3  0  0  0  0  0  0
  161.5640  209.4860  154.6610 O   0  0  0  0  0  1  0  0  0  0  0  0
  162.7720  209.9140  151.3320 C   0  0  0  0  0  2  0  0  0  0  0  0
  159.4570  210.4300  151.6800 C   0  0  0  0  0  2  0  0  0  0  0  0
  161.3320  209.9970  153.3790 C   0  0  2  0  0  3  0  0  0  0  0  0
  159.8180  210.1160  153.1350 C   0  0  1  0  0  3  0  0  0  0  0  0
  162.7520  209.7590  148.7910 C   0  0  0  0  0  2  0  0  0  0  0  0
  161.5790  208.8920  149.2090 C   0  0  2  0  0  3  0  0  0  0  0  0
  160.2240  211.6390  151.1610 C   0  0  0  0  0  2  0  0  0  0  0  0
  162.0020  209.0880  152.3610 C   0  0  0  0  0  2  0  0  0  0  0  0
  161.9680  210.1180  150.0350 C   0  0  2  0  0  0  0  0  0  0  0  0
  162.8470  212.3950  148.4840 C   0  0  0  0  0  2  0  0  0  0  0  0
  162.8790  213.5530  147.4980 C   0  0  2  0  0  3  0  0  0  0  0  0
  163.8810  214.4510  147.8610 O   0  0  0  0  0  1  0  0  0  0  0  0
  160.6430  213.4070  148.4960 C   0  0  0  0  0  2  0  0  0  0  0  0
  161.6110  212.6070  149.3370 C   0  0  1  0  0  3  0  0  0  0  0  0
  161.5230  214.2440  147.5820 C   0  0  2  0  0  3  0  0  0  0  0  0
  159.0340  214.0920  144.9780 C   0  0  0  0  0  2  0  0  0  0  0  0
  160.8360  213.6530  143.2520 C   0  0  1  0  0  3  0  0  0  0  0  0
  159.1200  212.0160  143.7630 O   0  0  0  0  0  1  0  0  0  0  0  0
  160.8960  214.4530  146.2000 C   0  0  2  0  0  3  0  0  0  0  0  0
  159.8140  213.5700  146.0240 O   0  0  0  0  0  0  0  0  0  0  0  0
  159.3730  213.3910  143.6630 C   0  0  1  0  0  3  0  0  0  0  0  0
  161.9370  214.3380  145.0640 C   0  0  0  0  0  2  0  0  0  0  0  0
  161.7040  213.2110  144.2610 O   0  0  0  0  0  0  0  0  0  0  0  0
  162.4970  211.4790  140.6160 C   0  0  0  0  0  3  0  0  0  0  0  0
  161.1690  213.0870  141.8800 C   0  0  0  0  0  0  0  0  0  0  0  0
  160.8530  212.8270  139.4760 C   0  0  0  0  0  3  0  0  0  0  0  0
  161.8510  211.8540  139.4400 C   0  0  0  0  0  3  0  0  0  0  0  0
  160.4940  213.4490  140.6820 C   0  0  0  0  0  0  0  0  0  0  0  0
  162.1520  212.0840  141.8230 C   0  0  0  0  0  3  0  0  0  0  0  0
  159.4500  214.4320  140.6860 N   0  0  0  0  0  2  0  0  0  0  0  0
  158.0690  214.1580  140.3020 C   0  0  0  0  0  2  0  0  0  0  0  0
  157.6670  212.9320  140.8410 O   0  0  0  0  0  1  0  0  0  0  0  0
  159.2460  211.1350  154.0250 C   0  0  0  0  0  0  0  0  0  0  0  0
  158.7570  211.9600  154.7580 C   0  0  0  0  0  0  0  0  0  0  0  0
  158.1540  212.9320  155.6270 C   0  0  0  0  0  0  0  0  0  0  0  0
  156.6840  214.4010  156.4710 N   0  0  0  0  0  0  0  0  0  0  0  0
  158.7890  213.5100  156.8390 C   0  0  0  0  0  2  0  0  0  0  0  0
  157.7070  214.4530  157.2610 C   0  0  0  0  0  3  0  0  0  0  0  0
  156.9540  213.4510  155.4470 C   0  0  0  0  0  3  0  0  0  0  0  0
  162.0680  207.7060  149.7680 O   0  0  0  0  0  0  0  0  0  0  0  0
  160.2100  206.2270  149.8600 C   0  0  0  0  0  2  0  0  0  0  0  0
  161.4150  206.6870  149.0680 C   0  0  2  0  0  3  0  0  0  0  0  0
  161.2950  204.2170  148.9500 C   0  0  0  0  0  1  0  0  0  0  0  0
  161.4770  205.4040  149.8760 C   0  0  2  0  0  3  0  0  0  0  0  0
  1 11  1  0  0  0  0
  1  9  1  1  0  0  0
  3 10  1  0  0  0  0
  4  6  1  0  0  0  0
  5  2  1  1  0  0  0
  6  5  1  0  0  0  0
  6 35  1  1  0  0  0
  7  8  1  0  0  0  0
  8 42  1  1  0  0  0
  8 11  1  0  0  0  0
  9  4  1  0  0  0  0
 10  5  1  0  0  0  0
 11  7  1  6  0  0  0
 11  3  1  0  0  0  0
 13 17  1  0  0  0  0
 13 14  1  1  0  0  0
 13 12  1  0  0  0  0
 15 16  1  0  0  0  0
 16 12  1  6  0  0  0
 16  1  1  0  0  0  0
 17 15  1  1  0  0  0
 18 22  1  0  0  0  0
 19 27  1  6  0  0  0
 19 23  1  0  0  0  0
 19 25  1  0  0  0  0
 21 24  1  6  0  0  0
 21 17  1  0  0  0  0
 22 21  1  0  0  0  0
 23 20  1  1  0  0  0
 23 18  1  0  0  0  0
 25 24  1  0  0  0  0
 26 31  1  0  0  0  0
 28 30  2  0  0  0  0
 29 28  1  0  0  0  0
 29 26  2  0  0  0  0
 30 32  1  0  0  0  0
 30 27  1  0  0  0  0
 31 27  2  0  0  0  0
 33 32  1  0  0  0  0
 33 34  1  0  0  0  0
 35 36  3  0  0  0  0
 36 37  1  0  0  0  0
 37 39  1  0  0  0  0
 38 40  2  0  0  0  0
 39 40  1  0  0  0  0
 41 37  2  0  0  0  0
 41 38  1  0  0  0  0
 43 46  1  0  0  0  0
 44 42  1  1  0  0  0
 44 43  1  0  0  0  0
 44 46  1  0  0  0  0
 46 45  1  6  0  0  0
M  END
>  <MODEL>
4

>  <REMARK>
 VINA RESULT:      -3.0      3.267      7.946
  Name = 
  9 active torsions:
  status: ('A' for Active; 'I' for Inactive)
    1  A    between atoms: C_1  and  C_21
    2  A    between atoms: C_2  and  C_42
    3  A    between atoms: C_8  and  C_16
    4  A    between atoms: C_13  and  C_15
    5  A    between atoms: C_14  and  N_37
    6  A    between atoms: C_20  and  N_37
    7  A    between atoms: O_24  and  C_28
    8  A    between atoms: O_24  and  C_32
    9  A    between atoms: C_25  and  C_46
                            x       y       z     vdW  Elec       q    Type
                         _______ _______ _______ _____ _____    ______ ____

>  <TORSDO>
F 9

$$$$
