=
 OpenBabel11072410433D

 50 54  0  0  1  0  0  0  0  0999 V2000
  160.6140  202.7640  144.8720 N   0  0  0  0  0  0  0  0  0  0  0  0
  161.5830  203.4210  146.9120 C   0  0  2  0  0  3  0  0  0  0  0  0
  161.2000  203.7420  145.4910 C   0  0  0  0  0  0  0  0  0  0  0  0
  162.2260  205.9240  145.4830 O   0  0  0  0  0  1  0  0  0  0  0  0
  160.5230  201.6400  145.6960 N   0  0  0  0  0  2  0  0  0  0  0  0
  161.4610  205.0000  144.8560 N   0  0  0  0  0  0  0  0  0  0  0  0
  161.2740  201.2040  147.8860 O   0  0  0  0  0  0  0  0  0  0  0  0
  161.1350  202.0010  146.9210 C   0  0  0  0  0  0  0  0  0  0  0  0
  160.9450  203.7600  149.2900 C   0  0  0  0  0  2  0  0  0  0  0  0
  161.5940  205.0390  148.8070 C   0  0  1  0  0  3  0  0  0  0  0  0
  160.7190  204.2300  147.8670 C   0  0  1  0  0  3  0  0  0  0  0  0
  160.3510  207.0570  148.2290 O   0  0  0  0  0  0  0  0  0  0  0  0
  160.7940  206.2480  149.3050 C   0  0  2  0  0  3  0  0  0  0  0  0
  161.4470  207.7710  147.6870 C   0  0  0  0  0  2  0  0  0  0  0  0
  162.6590  207.7340  149.7640 O   0  0  0  0  0  0  0  0  0  0  0  0
  162.1560  208.5940  148.7730 C   0  0  0  0  0  2  0  0  0  0  0  0
  161.5420  207.1100  150.3490 C   0  0  2  0  0  3  0  0  0  0  0  0
  161.9550  206.3120  151.5770 C   0  0  0  0  0  2  0  0  0  0  0  0
  161.1910  206.7880  152.8030 C   0  0  1  0  0  3  0  0  0  0  0  0
  161.5810  206.0550  153.9260 O   0  0  0  0  0  1  0  0  0  0  0  0
  161.4290  208.2480  153.0510 C   0  0  0  0  0  0  0  0  0  0  0  0
  160.7850  208.9260  154.1490 N   0  0  0  0  0  0  0  0  0  0  0  0
  162.2480  208.8690  152.3150 O   0  0  0  0  0  0  0  0  0  0  0  0
  160.9420  210.3810  154.2750 C   0  0  2  0  0  3  0  0  0  0  0  0
  162.1820  210.7210  155.0820 C   0  0  0  0  0  1  0  0  0  0  0  0
  159.7100  211.0970  154.8340 C   0  0  0  0  0  2  0  0  0  0  0  0
  158.9980  211.7450  153.8180 O   0  0  0  0  0  1  0  0  0  0  0  0
  159.8830  208.1820  155.0290 C   0  0  0  0  0  2  0  0  0  0  0  0
  160.3940  208.2170  156.4600 C   0  0  0  0  0  2  0  0  0  0  0  0
  160.1580  206.8640  157.1060 C   0  0  0  0  0  1  0  0  0  0  0  0
  161.0450  205.2380  143.5360 N   0  0  0  0  0  2  0  0  0  0  0  0
  161.9750  206.0390  142.9600 O   0  0  0  0  0  0  0  0  0  0  0  0
  162.6100  205.8110  140.6880 C   0  0  0  0  0  2  0  0  0  0  0  0
  161.5270  206.2300  141.6550 C   0  0  2  0  0  3  0  0  0  0  0  0
  162.3870  207.2830  140.9780 C   0  0  2  0  0  3  0  0  0  0  0  0
  161.6610  207.8960  139.8740 N   0  0  0  0  0  0  0  0  0  0  0  0
  161.3770  209.2520  139.7390 C   0  0  0  0  0  0  0  0  0  0  0  0
  161.5360  207.2790  138.6100 N   0  0  0  0  0  0  0  0  0  0  0  0
  161.0980  208.2870  137.6920 N   0  0  0  0  0  0  0  0  0  0  0  0
  161.4580  210.1160  140.6530 O   0  0  0  0  0  0  0  0  0  0  0  0
  161.0340  209.4990  138.4120 N   0  0  0  0  0  0  0  0  0  0  0  0
  160.5760  210.7800  137.8640 C   0  0  2  0  0  3  0  0  0  0  0  0
  161.7030  211.8050  137.8210 C   0  0  0  0  0  2  0  0  0  0  0  0
  162.9070  211.1750  137.4740 O   0  0  0  0  0  1  0  0  0  0  0  0
  159.3670  211.3100  138.6370 C   0  0  0  0  0  2  0  0  0  0  0  0
  159.4420  212.7540  138.8070 N   0  0  0  0  0  2  0  0  0  0  0  0
  158.6460  213.0660  139.9870 C   0  0  0  0  0  2  0  0  0  0  0  0
  159.4760  213.7970  141.0340 C   0  0  2  0  0  3  0  0  0  0  0  0
  160.8090  213.3920  140.9740 O   0  0  0  0  0  1  0  0  0  0  0  0
  158.9270  213.5560  142.4290 C   0  0  0  0  0  1  0  0  0  0  0  0
  1  3  2  0  0  0  0
  1  5  1  0  0  0  0
  2  3  1  6  0  0  0
  2  8  1  0  0  0  0
  2 11  1  0  0  0  0
  5  8  1  0  0  0  0
  6  4  1  0  0  0  0
  6  3  1  0  0  0  0
  8  7  2  0  0  0  0
 10  9  1  1  0  0  0
 10 13  1  0  0  0  0
 11 10  1  0  0  0  0
 11  9  1  1  0  0  0
 13 12  1  6  0  0  0
 13 17  1  0  0  0  0
 14 12  1  0  0  0  0
 14 16  1  0  0  0  0
 15 17  1  0  0  0  0
 16 15  1  0  0  0  0
 17 18  1  1  0  0  0
 18 19  1  0  0  0  0
 19 21  1  0  0  0  0
 19 20  1  1  0  0  0
 21 22  1  0  0  0  0
 22 24  1  0  0  0  0
 22 28  1  0  0  0  0
 23 21  2  0  0  0  0
 24 26  1  0  0  0  0
 24 25  1  1  0  0  0
 27 26  1  0  0  0  0
 28 29  1  0  0  0  0
 29 30  1  0  0  0  0
 31  6  1  0  0  0  0
 32 31  1  0  0  0  0
 33 35  1  0  0  0  0
 33 34  1  0  0  0  0
 34 32  1  1  0  0  0
 35 36  1  6  0  0  0
 35 34  1  0  0  0  0
 37 36  1  0  0  0  0
 37 40  2  0  0  0  0
 38 36  1  0  0  0  0
 39 41  1  0  0  0  0
 39 38  2  0  0  0  0
 41 37  1  0  0  0  0
 42 43  1  1  0  0  0
 42 41  1  0  0  0  0
 42 45  1  0  0  0  0
 44 43  1  0  0  0  0
 45 46  1  0  0  0  0
 46 47  1  0  0  0  0
 47 48  1  0  0  0  0
 48 50  1  1  0  0  0
 49 48  1  0  0  0  0
M  END
>  <MODEL>
1

>  <REMARK>
 VINA RESULT:      -5.8      0.000      0.000
  Name = 
  19 active torsions:
  status: ('A' for Active; 'I' for Inactive)
    1  A    between atoms: C_1  and  C_45
    2  A    between atoms: N_4  and  C_32
    3  A    between atoms: C_5  and  C_13
    4  A    between atoms: C_9  and  O_10
    5  A    between atoms: O_10  and  N_50
    6  A    between atoms: C_12  and  C_28
    7  A    between atoms: C_13  and  C_48
    8  A    between atoms: C_14  and  C_20
    9  A    between atoms: C_14  and  N_21
   10  A    between atoms: C_15  and  C_35
   11  A    between atoms: C_16  and  C_25
   12  A    between atoms: C_18  and  C_26
   13  A    between atoms: N_19  and  C_22
   14  A    between atoms: N_19  and  C_45
   15  A    between atoms: N_21  and  C_25
   16  A    between atoms: C_22  and  C_35
   17  A    between atoms: C_35  and  N_44
   18  A    between atoms: N_38  and  N_50
   19  A    between atoms: C_47  and  C_48
                            x       y       z     vdW  Elec       q    Type
                         _______ _______ _______ _____ _____    ______ ____

>  <TORSDO>
F 19

$$$$
=
 OpenBabel11072410433D

 50 54  0  0  1  0  0  0  0  0999 V2000
  160.6670  202.6660  144.9600 N   0  0  0  0  0  0  0  0  0  0  0  0
  161.5930  203.3720  147.0030 C   0  0  2  0  0  3  0  0  0  0  0  0
  161.2510  203.6550  145.5640 C   0  0  0  0  0  0  0  0  0  0  0  0
  162.3090  205.8210  145.5160 O   0  0  0  0  0  1  0  0  0  0  0  0
  160.5390  201.5700  145.8150 N   0  0  0  0  0  2  0  0  0  0  0  0
  161.5460  204.8890  144.8980 N   0  0  0  0  0  0  0  0  0  0  0  0
  161.2280  201.1900  148.0360 O   0  0  0  0  0  0  0  0  0  0  0  0
  161.1250  201.9600  147.0440 C   0  0  0  0  0  0  0  0  0  0  0  0
  161.0390  203.9240  149.3610 C   0  0  0  0  0  2  0  0  0  0  0  0
  161.5750  205.1830  148.7140 C   0  0  1  0  0  3  0  0  0  0  0  0
  160.7180  204.2210  147.9110 C   0  0  1  0  0  3  0  0  0  0  0  0
  160.5570  207.2990  148.0530 O   0  0  0  0  0  0  0  0  0  0  0  0
  160.7140  206.3840  149.1230 C   0  0  2  0  0  3  0  0  0  0  0  0
  161.7680  208.0020  147.8440 C   0  0  0  0  0  2  0  0  0  0  0  0
  162.4610  207.7360  150.1320 O   0  0  0  0  0  0  0  0  0  0  0  0
  162.2270  208.6980  149.1340 C   0  0  0  0  0  2  0  0  0  0  0  0
  161.2220  207.1200  150.3850 C   0  0  2  0  0  3  0  0  0  0  0  0
  161.3140  206.2060  151.5980 C   0  0  0  0  0  2  0  0  0  0  0  0
  162.0600  206.8950  152.7290 C   0  0  1  0  0  3  0  0  0  0  0  0
  162.4720  208.1670  152.3270 O   0  0  0  0  0  1  0  0  0  0  0  0
  161.1940  207.0120  153.9490 C   0  0  0  0  0  0  0  0  0  0  0  0
  160.8000  208.3040  154.4540 N   0  0  0  0  0  0  0  0  0  0  0  0
  160.7670  205.9590  154.5010 O   0  0  0  0  0  0  0  0  0  0  0  0
  160.0640  208.3770  155.7230 C   0  0  2  0  0  3  0  0  0  0  0  0
  159.2730  209.6680  155.8140 C   0  0  0  0  0  1  0  0  0  0  0  0
  160.9380  208.1790  156.9640 C   0  0  0  0  0  2  0  0  0  0  0  0
  162.1700  208.8280  156.8240 O   0  0  0  0  0  1  0  0  0  0  0  0
  161.2540  209.5170  153.7720 C   0  0  0  0  0  2  0  0  0  0  0  0
  160.2140  209.9770  152.7650 C   0  0  0  0  0  2  0  0  0  0  0  0
  160.2920  211.4870  152.6230 C   0  0  0  0  0  1  0  0  0  0  0  0
  161.1670  205.0930  143.5610 N   0  0  0  0  0  2  0  0  0  0  0  0
  161.9260  206.1060  143.0780 O   0  0  0  0  0  0  0  0  0  0  0  0
  162.7240  205.6860  140.8870 C   0  0  0  0  0  2  0  0  0  0  0  0
  161.5840  206.2030  141.7310 C   0  0  2  0  0  3  0  0  0  0  0  0
  162.5200  207.1800  141.0440 C   0  0  2  0  0  3  0  0  0  0  0  0
  161.8970  207.7200  139.8430 N   0  0  0  0  0  0  0  0  0  0  0  0
  161.5910  209.0590  139.6160 C   0  0  0  0  0  0  0  0  0  0  0  0
  161.9210  207.0440  138.6040 N   0  0  0  0  0  0  0  0  0  0  0  0
  161.5540  207.9950  137.5990 N   0  0  0  0  0  0  0  0  0  0  0  0
  161.5520  209.9650  140.4910 O   0  0  0  0  0  0  0  0  0  0  0  0
  161.3800  209.2360  138.2500 N   0  0  0  0  0  0  0  0  0  0  0  0
  160.9470  210.4750  137.5980 C   0  0  2  0  0  3  0  0  0  0  0  0
  162.1250  211.3980  137.3090 C   0  0  0  0  0  2  0  0  0  0  0  0
  161.7330  212.7350  137.4660 O   0  0  0  0  0  1  0  0  0  0  0  0
  159.8690  211.1840  138.4200 C   0  0  0  0  0  2  0  0  0  0  0  0
  158.5350  210.8390  137.9500 N   0  0  0  0  0  2  0  0  0  0  0  0
  157.6590  211.9180  138.3870 C   0  0  0  0  0  2  0  0  0  0  0  0
  156.5230  211.3900  139.2530 C   0  0  2  0  0  3  0  0  0  0  0  0
  156.2630  210.0520  138.9590 O   0  0  0  0  0  1  0  0  0  0  0  0
  155.2630  212.2140  139.0590 C   0  0  0  0  0  1  0  0  0  0  0  0
  1  3  2  0  0  0  0
  1  5  1  0  0  0  0
  2  3  1  6  0  0  0
  2  8  1  0  0  0  0
  2 11  1  0  0  0  0
  5  8  1  0  0  0  0
  6  4  1  0  0  0  0
  6  3  1  0  0  0  0
  8  7  2  0  0  0  0
 10 13  1  0  0  0  0
 10  9  1  1  0  0  0
 11 10  1  0  0  0  0
 11  9  1  1  0  0  0
 13 12  1  6  0  0  0
 13 17  1  0  0  0  0
 14 12  1  0  0  0  0
 14 16  1  0  0  0  0
 15 17  1  0  0  0  0
 16 15  1  0  0  0  0
 17 18  1  1  0  0  0
 18 19  1  0  0  0  0
 19 20  1  6  0  0  0
 19 21  1  0  0  0  0
 21 22  1  0  0  0  0
 21 23  2  0  0  0  0
 22 24  1  0  0  0  0
 24 25  1  1  0  0  0
 24 26  1  0  0  0  0
 27 26  1  0  0  0  0
 28 22  1  0  0  0  0
 29 28  1  0  0  0  0
 30 29  1  0  0  0  0
 31  6  1  0  0  0  0
 32 31  1  0  0  0  0
 33 35  1  0  0  0  0
 33 34  1  0  0  0  0
 34 32  1  1  0  0  0
 35 36  1  6  0  0  0
 35 34  1  0  0  0  0
 37 36  1  0  0  0  0
 37 40  2  0  0  0  0
 38 36  1  0  0  0  0
 39 41  1  0  0  0  0
 39 38  2  0  0  0  0
 41 37  1  0  0  0  0
 42 43  1  1  0  0  0
 42 41  1  0  0  0  0
 42 45  1  0  0  0  0
 43 44  1  0  0  0  0
 46 47  1  0  0  0  0
 46 45  1  0  0  0  0
 47 48  1  0  0  0  0
 48 50  1  6  0  0  0
 49 48  1  0  0  0  0
M  END
>  <MODEL>
2

>  <REMARK>
 VINA RESULT:      -4.7      1.472      2.224
  Name = 
  19 active torsions:
  status: ('A' for Active; 'I' for Inactive)
    1  A    between atoms: C_1  and  C_45
    2  A    between atoms: N_4  and  C_32
    3  A    between atoms: C_5  and  C_13
    4  A    between atoms: C_9  and  O_10
    5  A    between atoms: O_10  and  N_50
    6  A    between atoms: C_12  and  C_28
    7  A    between atoms: C_13  and  C_48
    8  A    between atoms: C_14  and  C_20
    9  A    between atoms: C_14  and  N_21
   10  A    between atoms: C_15  and  C_35
   11  A    between atoms: C_16  and  C_25
   12  A    between atoms: C_18  and  C_26
   13  A    between atoms: N_19  and  C_22
   14  A    between atoms: N_19  and  C_45
   15  A    between atoms: N_21  and  C_25
   16  A    between atoms: C_22  and  C_35
   17  A    between atoms: C_35  and  N_44
   18  A    between atoms: N_38  and  N_50
   19  A    between atoms: C_47  and  C_48
                            x       y       z     vdW  Elec       q    Type
                         _______ _______ _______ _____ _____    ______ ____

>  <TORSDO>
F 19

$$$$
=
 OpenBabel11072410433D

 50 54  0  0  1  0  0  0  0  0999 V2000
  160.4580  206.1250  150.5200 N   0  0  0  0  0  0  0  0  0  0  0  0
  162.4410  207.1660  151.2360 C   0  0  2  0  0  3  0  0  0  0  0  0
  161.5190  206.7540  150.1190 C   0  0  0  0  0  0  0  0  0  0  0  0
  162.9740  207.5120  148.3520 O   0  0  0  0  0  1  0  0  0  0  0  0
  160.4720  205.9660  151.9080 N   0  0  0  0  0  2  0  0  0  0  0  0
  161.7760  207.0090  148.7320 N   0  0  0  0  0  0  0  0  0  0  0  0
  162.0420  206.5490  153.5640 O   0  0  0  0  0  0  0  0  0  0  0  0
  161.6780  206.5540  152.3580 C   0  0  0  0  0  0  0  0  0  0  0  0
  161.1790  209.2450  150.7260 C   0  0  0  0  0  2  0  0  0  0  0  0
  161.2440  209.1110  152.2320 C   0  0  1  0  0  3  0  0  0  0  0  0
  162.4230  208.6800  151.3790 C   0  0  1  0  0  3  0  0  0  0  0  0
  162.0390  210.3310  154.1890 O   0  0  0  0  0  0  0  0  0  0  0  0
  161.5640  210.4720  152.8610 C   0  0  2  0  0  3  0  0  0  0  0  0
  160.9680  209.9790  155.0450 C   0  0  0  0  0  2  0  0  0  0  0  0
  159.3300  211.0320  153.6320 O   0  0  0  0  0  0  0  0  0  0  0  0
  159.8280  211.0040  154.9460 C   0  0  0  0  0  2  0  0  0  0  0  0
  160.3880  211.4760  152.8180 C   0  0  2  0  0  3  0  0  0  0  0  0
  159.9010  211.7440  151.4020 C   0  0  0  0  0  2  0  0  0  0  0  0
  159.1610  213.0700  151.3360 C   0  0  1  0  0  3  0  0  0  0  0  0
  160.0440  214.1250  151.5760 O   0  0  0  0  0  1  0  0  0  0  0  0
  158.5120  213.2570  149.9960 C   0  0  0  0  0  0  0  0  0  0  0  0
  159.3080  213.4730  148.8130 N   0  0  0  0  0  0  0  0  0  0  0  0
  157.2550  213.1670  149.9050 O   0  0  0  0  0  0  0  0  0  0  0  0
  158.6300  213.7830  147.5470 C   0  0  2  0  0  3  0  0  0  0  0  0
  157.9620  212.5450  146.9780 C   0  0  0  0  0  1  0  0  0  0  0  0
  159.5280  214.4510  146.5040 C   0  0  0  0  0  2  0  0  0  0  0  0
  159.5520  213.7180  145.3120 O   0  0  0  0  0  1  0  0  0  0  0  0
  160.7670  213.5190  148.9210 C   0  0  0  0  0  2  0  0  0  0  0  0
  161.3780  212.2510  148.3470 C   0  0  0  0  0  2  0  0  0  0  0  0
  162.4410  212.6280  147.3310 C   0  0  0  0  0  1  0  0  0  0  0  0
  160.8530  206.6230  147.7470 N   0  0  0  0  0  2  0  0  0  0  0  0
  161.3890  206.9460  146.5450 O   0  0  0  0  0  0  0  0  0  0  0  0
  161.4550  205.8800  144.4300 C   0  0  0  0  0  2  0  0  0  0  0  0
  161.6370  205.7250  145.9210 C   0  0  2  0  0  3  0  0  0  0  0  0
  160.3630  205.2320  145.2580 C   0  0  2  0  0  3  0  0  0  0  0  0
  160.4080  203.7870  145.0860 N   0  0  0  0  0  0  0  0  0  0  0  0
  161.2530  202.9120  145.7640 C   0  0  0  0  0  0  0  0  0  0  0  0
  159.3310  203.0500  144.5480 N   0  0  0  0  0  0  0  0  0  0  0  0
  159.5670  201.6730  144.8580 N   0  0  0  0  0  0  0  0  0  0  0  0
  162.2770  203.2380  146.4210 O   0  0  0  0  0  0  0  0  0  0  0  0
  160.7470  201.6210  145.6300 N   0  0  0  0  0  0  0  0  0  0  0  0
  161.3820  200.3920  146.1150 C   0  0  2  0  0  3  0  0  0  0  0  0
  160.8000  199.1560  145.4380 C   0  0  0  0  0  2  0  0  0  0  0  0
  161.7970  198.1820  145.2860 O   0  0  0  0  0  1  0  0  0  0  0  0
  161.2940  200.2890  147.6390 C   0  0  0  0  0  2  0  0  0  0  0  0
  160.3220  201.2310  148.1760 N   0  0  0  0  0  2  0  0  0  0  0  0
  160.5270  201.2480  149.6180 C   0  0  0  0  0  2  0  0  0  0  0  0
  160.5850  202.6730  150.1500 C   0  0  2  0  0  3  0  0  0  0  0  0
  161.2300  203.5110  149.2410 O   0  0  0  0  0  1  0  0  0  0  0  0
  161.2960  202.7260  151.4910 C   0  0  0  0  0  1  0  0  0  0  0  0
  1  5  1  0  0  0  0
  2  3  1  6  0  0  0
  2 11  1  0  0  0  0
  2  8  1  0  0  0  0
  3  1  2  0  0  0  0
  4  6  1  0  0  0  0
  5  8  1  0  0  0  0
  6  3  1  0  0  0  0
  8  7  2  0  0  0  0
 10  9  1  6  0  0  0
 10 13  1  0  0  0  0
 11  9  1  6  0  0  0
 11 10  1  0  0  0  0
 12 14  1  0  0  0  0
 13 12  1  1  0  0  0
 15 16  1  0  0  0  0
 16 14  1  0  0  0  0
 17 18  1  6  0  0  0
 17 13  1  0  0  0  0
 17 15  1  0  0  0  0
 19 18  1  0  0  0  0
 19 20  1  6  0  0  0
 21 19  1  0  0  0  0
 22 28  1  0  0  0  0
 22 21  1  0  0  0  0
 23 21  2  0  0  0  0
 24 25  1  6  0  0  0
 24 22  1  0  0  0  0
 26 24  1  0  0  0  0
 27 26  1  0  0  0  0
 29 28  1  0  0  0  0
 30 29  1  0  0  0  0
 31  6  1  0  0  0  0
 32 31  1  0  0  0  0
 33 34  1  0  0  0  0
 34 32  1  1  0  0  0
 35 33  1  6  0  0  0
 35 34  1  0  0  0  0
 36 35  1  0  0  0  0
 36 37  1  0  0  0  0
 37 40  2  0  0  0  0
 38 39  2  0  0  0  0
 38 36  1  0  0  0  0
 39 41  1  0  0  0  0
 41 37  1  0  0  0  0
 41 42  1  0  0  0  0
 42 43  1  6  0  0  0
 42 45  1  0  0  0  0
 44 43  1  0  0  0  0
 45 46  1  0  0  0  0
 46 47  1  0  0  0  0
 47 48  1  0  0  0  0
 48 50  1  1  0  0  0
 49 48  1  0  0  0  0
M  END
>  <MODEL>
3

>  <REMARK>
 VINA RESULT:      -4.3      4.455      8.919
  Name = 
  19 active torsions:
  status: ('A' for Active; 'I' for Inactive)
    1  A    between atoms: C_1  and  C_45
    2  A    between atoms: N_4  and  C_32
    3  A    between atoms: C_5  and  C_13
    4  A    between atoms: C_9  and  O_10
    5  A    between atoms: O_10  and  N_50
    6  A    between atoms: C_12  and  C_28
    7  A    between atoms: C_13  and  C_48
    8  A    between atoms: C_14  and  C_20
    9  A    between atoms: C_14  and  N_21
   10  A    between atoms: C_15  and  C_35
   11  A    between atoms: C_16  and  C_25
   12  A    between atoms: C_18  and  C_26
   13  A    between atoms: N_19  and  C_22
   14  A    between atoms: N_19  and  C_45
   15  A    between atoms: N_21  and  C_25
   16  A    between atoms: C_22  and  C_35
   17  A    between atoms: C_35  and  N_44
   18  A    between atoms: N_38  and  N_50
   19  A    between atoms: C_47  and  C_48
                            x       y       z     vdW  Elec       q    Type
                         _______ _______ _______ _____ _____    ______ ____

>  <TORSDO>
F 19

$$$$
=
 OpenBabel11072410433D

 50 54  0  0  1  0  0  0  0  0999 V2000
  160.6600  206.2020  151.1630 N   0  0  0  0  0  0  0  0  0  0  0  0
  162.1210  207.8810  151.9210 C   0  0  2  0  0  3  0  0  0  0  0  0
  161.4120  207.1910  150.7870 C   0  0  0  0  0  0  0  0  0  0  0  0
  162.4750  208.4840  149.0520 O   0  0  0  0  0  1  0  0  0  0  0  0
  160.7380  206.0190  152.5450 N   0  0  0  0  0  2  0  0  0  0  0  0
  161.5490  207.5630  149.4100 N   0  0  0  0  0  0  0  0  0  0  0  0
  161.9890  207.0920  154.2280 O   0  0  0  0  0  0  0  0  0  0  0  0
  161.6430  206.9990  153.0200 C   0  0  0  0  0  0  0  0  0  0  0  0
  160.0660  209.1860  152.4230 C   0  0  0  0  0  2  0  0  0  0  0  0
  161.0580  209.4550  153.5340 C   0  0  1  0  0  3  0  0  0  0  0  0
  161.5450  209.2770  152.1080 C   0  0  1  0  0  3  0  0  0  0  0  0
  161.6950  211.1970  155.1190 O   0  0  0  0  0  0  0  0  0  0  0  0
  161.0660  210.9500  153.8730 C   0  0  2  0  0  3  0  0  0  0  0  0
  160.8500  210.7730  156.1730 C   0  0  0  0  0  2  0  0  0  0  0  0
  158.8550  211.0930  154.8670 O   0  0  0  0  0  0  0  0  0  0  0  0
  159.4740  211.4500  156.0770 C   0  0  0  0  0  2  0  0  0  0  0  0
  159.6670  211.6090  153.8410 C   0  0  2  0  0  3  0  0  0  0  0  0
  158.9830  211.4630  152.4900 C   0  0  0  0  0  2  0  0  0  0  0  0
  158.8300  212.8190  151.8210 C   0  0  1  0  0  3  0  0  0  0  0  0
  159.0330  213.8400  152.7530 O   0  0  0  0  0  1  0  0  0  0  0  0
  159.8050  212.9740  150.6910 C   0  0  0  0  0  0  0  0  0  0  0  0
  159.4810  213.7810  149.5400 N   0  0  0  0  0  0  0  0  0  0  0  0
  160.9410  212.4290  150.7830 O   0  0  0  0  0  0  0  0  0  0  0  0
  160.4070  213.7980  148.4000 C   0  0  2  0  0  3  0  0  0  0  0  0
  159.7580  214.4430  147.1890 C   0  0  0  0  0  1  0  0  0  0  0  0
  160.9890  212.4270  148.0470 C   0  0  0  0  0  2  0  0  0  0  0  0
  161.6450  212.4590  146.8120 O   0  0  0  0  0  1  0  0  0  0  0  0
  158.1830  214.4530  149.4710 C   0  0  0  0  0  2  0  0  0  0  0  0
  157.1060  213.4770  149.0260 C   0  0  0  0  0  2  0  0  0  0  0  0
  155.8560  213.7020  149.8580 C   0  0  0  0  0  1  0  0  0  0  0  0
  160.8300  206.8920  148.4080 N   0  0  0  0  0  2  0  0  0  0  0  0
  161.4340  207.1680  147.2260 O   0  0  0  0  0  0  0  0  0  0  0  0
  162.2980  206.0940  145.2990 C   0  0  0  0  0  2  0  0  0  0  0  0
  161.8230  205.9290  146.7220 C   0  0  2  0  0  3  0  0  0  0  0  0
  160.9110  205.5460  145.5710 C   0  0  2  0  0  3  0  0  0  0  0  0
  160.9100  204.1010  145.3850 N   0  0  0  0  0  0  0  0  0  0  0  0
  161.5540  203.1740  146.2000 C   0  0  0  0  0  0  0  0  0  0  0  0
  159.9210  203.4320  144.6320 N   0  0  0  0  0  0  0  0  0  0  0  0
  160.0150  202.0410  144.9560 N   0  0  0  0  0  0  0  0  0  0  0  0
  162.4440  203.4360  147.0520 O   0  0  0  0  0  0  0  0  0  0  0  0
  161.0140  201.9150  145.9450 N   0  0  0  0  0  0  0  0  0  0  0  0
  161.4710  200.6480  146.5240 C   0  0  2  0  0  3  0  0  0  0  0  0
  160.6740  199.4660  145.9840 C   0  0  0  0  0  2  0  0  0  0  0  0
  161.4910  198.6780  145.1610 O   0  0  0  0  0  1  0  0  0  0  0  0
  161.4370  200.6950  148.0520 C   0  0  0  0  0  2  0  0  0  0  0  0
  160.2070  201.3090  148.5340 N   0  0  0  0  0  2  0  0  0  0  0  0
  160.3100  201.3380  149.9870 C   0  0  0  0  0  2  0  0  0  0  0  0
  160.4450  202.7650  150.5010 C   0  0  2  0  0  3  0  0  0  0  0  0
  161.1360  203.5550  149.5820 O   0  0  0  0  0  1  0  0  0  0  0  0
  161.1560  202.7960  151.8420 C   0  0  0  0  0  1  0  0  0  0  0  0
  1  5  1  0  0  0  0
  2  3  1  6  0  0  0
  2 11  1  0  0  0  0
  2  8  1  0  0  0  0
  3  1  2  0  0  0  0
  4  6  1  0  0  0  0
  5  8  1  0  0  0  0
  6  3  1  0  0  0  0
  8  7  2  0  0  0  0
 10  9  1  6  0  0  0
 10 13  1  0  0  0  0
 11  9  1  6  0  0  0
 11 10  1  0  0  0  0
 12 14  1  0  0  0  0
 13 12  1  1  0  0  0
 15 16  1  0  0  0  0
 16 14  1  0  0  0  0
 17 18  1  6  0  0  0
 17 13  1  0  0  0  0
 17 15  1  0  0  0  0
 19 18  1  0  0  0  0
 19 20  1  1  0  0  0
 21 23  2  0  0  0  0
 21 19  1  0  0  0  0
 22 21  1  0  0  0  0
 24 25  1  6  0  0  0
 24 22  1  0  0  0  0
 26 24  1  0  0  0  0
 27 26  1  0  0  0  0
 28 22  1  0  0  0  0
 29 28  1  0  0  0  0
 29 30  1  0  0  0  0
 31  6  1  0  0  0  0
 32 31  1  0  0  0  0
 33 34  1  0  0  0  0
 34 32  1  6  0  0  0
 35 33  1  6  0  0  0
 35 34  1  0  0  0  0
 36 35  1  0  0  0  0
 36 37  1  0  0  0  0
 37 40  2  0  0  0  0
 38 39  2  0  0  0  0
 38 36  1  0  0  0  0
 39 41  1  0  0  0  0
 41 37  1  0  0  0  0
 41 42  1  0  0  0  0
 42 43  1  6  0  0  0
 42 45  1  0  0  0  0
 44 43  1  0  0  0  0
 45 46  1  0  0  0  0
 46 47  1  0  0  0  0
 47 48  1  0  0  0  0
 48 50  1  1  0  0  0
 49 48  1  0  0  0  0
M  END
>  <MODEL>
4

>  <REMARK>
 VINA RESULT:      -4.1      4.753      9.048
  Name = 
  19 active torsions:
  status: ('A' for Active; 'I' for Inactive)
    1  A    between atoms: C_1  and  C_45
    2  A    between atoms: N_4  and  C_32
    3  A    between atoms: C_5  and  C_13
    4  A    between atoms: C_9  and  O_10
    5  A    between atoms: O_10  and  N_50
    6  A    between atoms: C_12  and  C_28
    7  A    between atoms: C_13  and  C_48
    8  A    between atoms: C_14  and  C_20
    9  A    between atoms: C_14  and  N_21
   10  A    between atoms: C_15  and  C_35
   11  A    between atoms: C_16  and  C_25
   12  A    between atoms: C_18  and  C_26
   13  A    between atoms: N_19  and  C_22
   14  A    between atoms: N_19  and  C_45
   15  A    between atoms: N_21  and  C_25
   16  A    between atoms: C_22  and  C_35
   17  A    between atoms: C_35  and  N_44
   18  A    between atoms: N_38  and  N_50
   19  A    between atoms: C_47  and  C_48
                            x       y       z     vdW  Elec       q    Type
                         _______ _______ _______ _____ _____    ______ ____

>  <TORSDO>
F 19

$$$$
=
 OpenBabel11072410433D

 50 54  0  0  1  0  0  0  0  0999 V2000
  161.5690  203.6670  152.2660 N   0  0  0  0  0  0  0  0  0  0  0  0
  160.4000  204.2210  150.3030 C   0  0  2  0  0  3  0  0  0  0  0  0
  161.0290  204.6430  151.6040 C   0  0  0  0  0  0  0  0  0  0  0  0
  160.3080  206.9390  151.4540 O   0  0  0  0  0  1  0  0  0  0  0  0
  161.3890  202.4550  151.5970 N   0  0  0  0  0  2  0  0  0  0  0  0
  161.0320  205.9900  152.0930 N   0  0  0  0  0  0  0  0  0  0  0  0
  160.2690  201.8850  149.6040 O   0  0  0  0  0  0  0  0  0  0  0  0
  160.6530  202.7590  150.4260 C   0  0  0  0  0  0  0  0  0  0  0  0
  161.7190  203.6430  148.2780 C   0  0  0  0  0  2  0  0  0  0  0  0
  160.5240  204.4550  147.8260 C   0  0  1  0  0  3  0  0  0  0  0  0
  161.2080  204.7780  149.1410 C   0  0  1  0  0  3  0  0  0  0  0  0
  160.8440  204.9690  145.4620 O   0  0  0  0  0  0  0  0  0  0  0  0
  160.9630  205.4840  146.7780 C   0  0  2  0  0  3  0  0  0  0  0  0
  161.8670  204.0190  145.2280 C   0  0  0  0  0  2  0  0  0  0  0  0
  163.3490  205.0360  146.8270 O   0  0  0  0  0  0  0  0  0  0  0  0
  163.2520  204.6310  145.4840 C   0  0  0  0  0  2  0  0  0  0  0  0
  162.3860  206.0460  147.0050 C   0  0  2  0  0  3  0  0  0  0  0  0
  162.5430  206.7040  148.3680 C   0  0  0  0  0  2  0  0  0  0  0  0
  162.3420  208.2070  148.2600 C   0  0  1  0  0  3  0  0  0  0  0  0
  161.1690  208.4850  147.5560 O   0  0  0  0  0  1  0  0  0  0  0  0
  162.2710  208.8380  149.6190 C   0  0  0  0  0  0  0  0  0  0  0  0
  161.8800  210.2170  149.7740 N   0  0  0  0  0  0  0  0  0  0  0  0
  162.5050  208.1270  150.6380 O   0  0  0  0  0  0  0  0  0  0  0  0
  161.9510  210.8300  151.1070 C   0  0  2  0  0  3  0  0  0  0  0  0
  162.7770  209.9740  152.0500 C   0  0  0  0  0  1  0  0  0  0  0  0
  160.5870  211.1620  151.7170 C   0  0  0  0  0  2  0  0  0  0  0  0
  160.0420  210.0510  152.3710 O   0  0  0  0  0  1  0  0  0  0  0  0
  161.5550  211.0140  148.5910 C   0  0  0  0  0  2  0  0  0  0  0  0
  162.1250  212.4160  148.7260 C   0  0  0  0  0  2  0  0  0  0  0  0
  163.1850  212.6280  147.6600 C   0  0  0  0  0  1  0  0  0  0  0  0
  161.6680  206.3150  153.3020 N   0  0  0  0  0  2  0  0  0  0  0  0
  160.7010  206.6660  154.1840 O   0  0  0  0  0  0  0  0  0  0  0  0
  161.3000  207.7640  156.1960 C   0  0  0  0  0  2  0  0  0  0  0  0
  161.1130  207.8910  154.7030 C   0  0  2  0  0  3  0  0  0  0  0  0
  160.0490  208.4210  155.6470 C   0  0  2  0  0  3  0  0  0  0  0  0
  160.1580  209.8670  155.7730 N   0  0  0  0  0  0  0  0  0  0  0  0
  159.0940  210.7550  155.9140 C   0  0  0  0  0  0  0  0  0  0  0  0
  161.3410  210.5070  156.2020 N   0  0  0  0  0  0  0  0  0  0  0  0
  160.9900  211.8500  156.5530 N   0  0  0  0  0  0  0  0  0  0  0  0
  157.8820  210.4940  155.6890 O   0  0  0  0  0  0  0  0  0  0  0  0
  159.5930  211.9660  156.3890 N   0  0  0  0  0  0  0  0  0  0  0  0
  158.8220  213.1970  156.5880 C   0  0  2  0  0  3  0  0  0  0  0  0
  157.4160  212.9000  157.1000 C   0  0  0  0  0  2  0  0  0  0  0  0
  156.4670  213.4560  156.2310 O   0  0  0  0  0  1  0  0  0  0  0  0
  158.7870  214.0390  155.3120 C   0  0  0  0  0  2  0  0  0  0  0  0
  159.0480  213.2240  154.1340 N   0  0  0  0  0  2  0  0  0  0  0  0
  158.8360  214.0920  152.9840 C   0  0  0  0  0  2  0  0  0  0  0  0
  157.6310  213.6420  152.1690 C   0  0  2  0  0  3  0  0  0  0  0  0
  157.8450  213.8710  150.8100 O   0  0  0  0  0  1  0  0  0  0  0  0
  156.3710  214.3590  152.6190 C   0  0  0  0  0  1  0  0  0  0  0  0
  2  8  1  6  0  0  0
  2  3  1  0  0  0  0
  3  6  1  0  0  0  0
  3  1  2  0  0  0  0
  4  6  1  0  0  0  0
  5  1  1  0  0  0  0
  6 31  1  0  0  0  0
  7  8  2  0  0  0  0
  8  5  1  0  0  0  0
 10  9  1  6  0  0  0
 10 11  1  0  0  0  0
 11  9  1  6  0  0  0
 11  2  1  0  0  0  0
 13 12  1  6  0  0  0
 13 17  1  0  0  0  0
 13 10  1  0  0  0  0
 14 12  1  0  0  0  0
 14 16  1  0  0  0  0
 15 17  1  0  0  0  0
 16 15  1  0  0  0  0
 17 18  1  1  0  0  0
 19 20  1  1  0  0  0
 19 18  1  0  0  0  0
 19 21  1  0  0  0  0
 21 22  1  0  0  0  0
 21 23  2  0  0  0  0
 22 24  1  0  0  0  0
 24 26  1  0  0  0  0
 24 25  1  1  0  0  0
 26 27  1  0  0  0  0
 28 29  1  0  0  0  0
 28 22  1  0  0  0  0
 30 29  1  0  0  0  0
 31 32  1  0  0  0  0
 34 32  1  6  0  0  0
 34 35  1  0  0  0  0
 34 33  1  0  0  0  0
 35 36  1  1  0  0  0
 35 33  1  0  0  0  0
 36 37  1  0  0  0  0
 36 38  1  0  0  0  0
 37 41  1  0  0  0  0
 38 39  2  0  0  0  0
 40 37  2  0  0  0  0
 41 39  1  0  0  0  0
 41 42  1  0  0  0  0
 42 45  1  6  0  0  0
 42 43  1  0  0  0  0
 44 43  1  0  0  0  0
 46 45  1  0  0  0  0
 47 46  1  0  0  0  0
 48 50  1  1  0  0  0
 48 47  1  0  0  0  0
 49 48  1  0  0  0  0
M  END
>  <MODEL>
5

>  <REMARK>
 VINA RESULT:      -3.1      5.948     10.600
  Name = 
  19 active torsions:
  status: ('A' for Active; 'I' for Inactive)
    1  A    between atoms: C_1  and  C_45
    2  A    between atoms: N_4  and  C_32
    3  A    between atoms: C_5  and  C_13
    4  A    between atoms: C_9  and  O_10
    5  A    between atoms: O_10  and  N_50
    6  A    between atoms: C_12  and  C_28
    7  A    between atoms: C_13  and  C_48
    8  A    between atoms: C_14  and  C_20
    9  A    between atoms: C_14  and  N_21
   10  A    between atoms: C_15  and  C_35
   11  A    between atoms: C_16  and  C_25
   12  A    between atoms: C_18  and  C_26
   13  A    between atoms: N_19  and  C_22
   14  A    between atoms: N_19  and  C_45
   15  A    between atoms: N_21  and  C_25
   16  A    between atoms: C_22  and  C_35
   17  A    between atoms: C_35  and  N_44
   18  A    between atoms: N_38  and  N_50
   19  A    between atoms: C_47  and  C_48
                            x       y       z     vdW  Elec       q    Type
                         _______ _______ _______ _____ _____    ______ ____

>  <TORSDO>
F 19

$$$$
=
 OpenBabel11072410433D

 50 54  0  0  1  0  0  0  0  0999 V2000
  160.5220  206.2290  151.1120 N   0  0  0  0  0  0  0  0  0  0  0  0
  162.2610  207.5660  151.9560 C   0  0  2  0  0  3  0  0  0  0  0  0
  161.4410  207.0850  150.7890 C   0  0  0  0  0  0  0  0  0  0  0  0
  162.7270  208.2660  149.1250 O   0  0  0  0  0  1  0  0  0  0  0  0
  160.5610  205.9520  152.4800 N   0  0  0  0  0  2  0  0  0  0  0  0
  161.6480  207.5080  149.4360 N   0  0  0  0  0  0  0  0  0  0  0  0
  161.9820  206.6780  154.2130 O   0  0  0  0  0  0  0  0  0  0  0  0
  161.6280  206.7210  153.0050 C   0  0  0  0  0  0  0  0  0  0  0  0
  160.4530  209.2160  152.3850 C   0  0  0  0  0  2  0  0  0  0  0  0
  161.3390  209.1840  153.6120 C   0  0  1  0  0  3  0  0  0  0  0  0
  161.9480  209.0290  152.2300 C   0  0  1  0  0  3  0  0  0  0  0  0
  162.8180  210.7050  154.8150 O   0  0  0  0  0  0  0  0  0  0  0  0
  161.5950  210.6120  154.1050 C   0  0  2  0  0  3  0  0  0  0  0  0
  162.6810  210.0930  156.0840 C   0  0  0  0  0  2  0  0  0  0  0  0
  160.3120  210.5050  156.1650 O   0  0  0  0  0  0  0  0  0  0  0  0
  161.5130  210.7100  156.8670 C   0  0  0  0  0  2  0  0  0  0  0  0
  160.4420  211.2020  154.9500 C   0  0  2  0  0  3  0  0  0  0  0  0
  159.1180  211.2220  154.1990 C   0  0  0  0  0  2  0  0  0  0  0  0
  158.5510  212.6310  154.1570 C   0  0  1  0  0  3  0  0  0  0  0  0
  159.4490  213.5280  154.7410 O   0  0  0  0  0  1  0  0  0  0  0  0
  158.2680  213.0550  152.7460 C   0  0  0  0  0  0  0  0  0  0  0  0
  157.1270  213.8800  152.4360 N   0  0  0  0  0  0  0  0  0  0  0  0
  159.0770  212.7230  151.8330 O   0  0  0  0  0  0  0  0  0  0  0  0
  156.8140  214.1600  151.0280 C   0  0  2  0  0  3  0  0  0  0  0  0
  155.3350  214.4530  150.8540 C   0  0  0  0  0  1  0  0  0  0  0  0
  157.2770  213.0720  150.0560 C   0  0  0  0  0  2  0  0  0  0  0  0
  157.8870  213.6300  148.9270 O   0  0  0  0  0  1  0  0  0  0  0  0
  156.2290  214.3050  153.5100 C   0  0  0  0  0  2  0  0  0  0  0  0
  155.9520  213.1480  154.4550 C   0  0  0  0  0  2  0  0  0  0  0  0
  155.0660  212.1340  153.7540 C   0  0  0  0  0  1  0  0  0  0  0  0
  160.8220  207.0400  148.4010 N   0  0  0  0  0  2  0  0  0  0  0  0
  161.4790  207.2500  147.2350 O   0  0  0  0  0  0  0  0  0  0  0  0
  162.5160  206.0960  145.4440 C   0  0  0  0  0  2  0  0  0  0  0  0
  161.8200  205.9790  146.7800 C   0  0  2  0  0  3  0  0  0  0  0  0
  161.0590  205.6820  145.5010 C   0  0  2  0  0  3  0  0  0  0  0  0
  160.9490  204.2440  145.2990 N   0  0  0  0  0  0  0  0  0  0  0  0
  161.4900  203.2610  146.1250 C   0  0  0  0  0  0  0  0  0  0  0  0
  159.9360  203.6610  144.5060 N   0  0  0  0  0  0  0  0  0  0  0  0
  159.9080  202.2650  144.8180 N   0  0  0  0  0  0  0  0  0  0  0  0
  162.3690  203.4440  147.0090 O   0  0  0  0  0  0  0  0  0  0  0  0
  160.8600  202.0520  145.8380 N   0  0  0  0  0  0  0  0  0  0  0  0
  161.1960  200.7480  146.4180 C   0  0  2  0  0  3  0  0  0  0  0  0
  160.8320  199.6060  145.4750 C   0  0  0  0  0  2  0  0  0  0  0  0
  161.7270  198.5410  145.6490 O   0  0  0  0  0  1  0  0  0  0  0  0
  160.5450  200.5690  147.7900 C   0  0  0  0  0  2  0  0  0  0  0  0
  160.8150  201.7100  148.6540 N   0  0  0  0  0  2  0  0  0  0  0  0
  160.9530  201.1750  150.0020 C   0  0  0  0  0  2  0  0  0  0  0  0
  160.7520  202.2620  151.0500 C   0  0  2  0  0  3  0  0  0  0  0  0
  160.0670  203.3480  150.5050 O   0  0  0  0  0  1  0  0  0  0  0  0
  162.0820  202.7240  151.6170 C   0  0  0  0  0  1  0  0  0  0  0  0
  1  5  1  0  0  0  0
  2  3  1  6  0  0  0
  2 11  1  0  0  0  0
  2  8  1  0  0  0  0
  3  1  2  0  0  0  0
  4  6  1  0  0  0  0
  5  8  1  0  0  0  0
  6  3  1  0  0  0  0
  8  7  2  0  0  0  0
 10  9  1  6  0  0  0
 10 13  1  0  0  0  0
 11  9  1  6  0  0  0
 11 10  1  0  0  0  0
 12 14  1  0  0  0  0
 13 12  1  1  0  0  0
 13 17  1  0  0  0  0
 14 16  1  0  0  0  0
 15 16  1  0  0  0  0
 17 18  1  6  0  0  0
 17 15  1  0  0  0  0
 19 18  1  0  0  0  0
 19 20  1  6  0  0  0
 21 19  1  0  0  0  0
 22 21  1  0  0  0  0
 22 28  1  0  0  0  0
 23 21  2  0  0  0  0
 24 25  1  1  0  0  0
 24 22  1  0  0  0  0
 26 24  1  0  0  0  0
 27 26  1  0  0  0  0
 28 29  1  0  0  0  0
 30 29  1  0  0  0  0
 31  6  1  0  0  0  0
 32 31  1  0  0  0  0
 33 35  1  0  0  0  0
 33 34  1  0  0  0  0
 34 32  1  6  0  0  0
 35 36  1  1  0  0  0
 35 34  1  0  0  0  0
 36 37  1  0  0  0  0
 37 40  2  0  0  0  0
 38 39  2  0  0  0  0
 38 36  1  0  0  0  0
 39 41  1  0  0  0  0
 41 37  1  0  0  0  0
 41 42  1  0  0  0  0
 42 43  1  6  0  0  0
 42 45  1  0  0  0  0
 43 44  1  0  0  0  0
 45 46  1  0  0  0  0
 46 47  1  0  0  0  0
 47 48  1  0  0  0  0
 48 50  1  6  0  0  0
 49 48  1  0  0  0  0
M  END
>  <MODEL>
6

>  <REMARK>
 VINA RESULT:      -3.0      5.134      8.864
  Name = 
  19 active torsions:
  status: ('A' for Active; 'I' for Inactive)
    1  A    between atoms: C_1  and  C_45
    2  A    between atoms: N_4  and  C_32
    3  A    between atoms: C_5  and  C_13
    4  A    between atoms: C_9  and  O_10
    5  A    between atoms: O_10  and  N_50
    6  A    between atoms: C_12  and  C_28
    7  A    between atoms: C_13  and  C_48
    8  A    between atoms: C_14  and  C_20
    9  A    between atoms: C_14  and  N_21
   10  A    between atoms: C_15  and  C_35
   11  A    between atoms: C_16  and  C_25
   12  A    between atoms: C_18  and  C_26
   13  A    between atoms: N_19  and  C_22
   14  A    between atoms: N_19  and  C_45
   15  A    between atoms: N_21  and  C_25
   16  A    between atoms: C_22  and  C_35
   17  A    between atoms: C_35  and  N_44
   18  A    between atoms: N_38  and  N_50
   19  A    between atoms: C_47  and  C_48
                            x       y       z     vdW  Elec       q    Type
                         _______ _______ _______ _____ _____    ______ ____

>  <TORSDO>
F 19

$$$$
=
 OpenBabel11072410433D

 50 54  0  0  1  0  0  0  0  0999 V2000
  161.6520  204.6770  149.9790 N   0  0  0  0  0  0  0  0  0  0  0  0
  160.9050  206.7110  149.0670 C   0  0  2  0  0  3  0  0  0  0  0  0
  161.2740  205.8840  150.2690 C   0  0  0  0  0  0  0  0  0  0  0  0
  160.6450  207.5620  151.8830 O   0  0  0  0  0  1  0  0  0  0  0  0
  161.5810  204.4540  148.6020 N   0  0  0  0  0  2  0  0  0  0  0  0
  161.2080  206.3590  151.6190 N   0  0  0  0  0  0  0  0  0  0  0  0
  160.8650  205.7950  146.8030 O   0  0  0  0  0  0  0  0  0  0  0  0
  161.0970  205.6570  148.0330 C   0  0  0  0  0  0  0  0  0  0  0  0
  161.6830  208.5250  147.5560 C   0  0  0  0  0  2  0  0  0  0  0  0
  161.2630  209.1680  148.8610 C   0  0  1  0  0  3  0  0  0  0  0  0
  161.9380  207.8090  148.8670 C   0  0  1  0  0  3  0  0  0  0  0  0
  162.7260  210.0430  150.6070 O   0  0  0  0  0  0  0  0  0  0  0  0
  162.2910  210.2290  149.2710 C   0  0  2  0  0  3  0  0  0  0  0  0
  161.6980  210.4250  151.5010 C   0  0  0  0  0  2  0  0  0  0  0  0
  160.7410  211.9780  149.9320 O   0  0  0  0  0  0  0  0  0  0  0  0
  161.2530  211.8720  151.2370 C   0  0  0  0  0  2  0  0  0  0  0  0
  161.8090  211.6840  149.0650 C   0  0  2  0  0  3  0  0  0  0  0  0
  161.4230  211.9730  147.6220 C   0  0  0  0  0  2  0  0  0  0  0  0
  161.5410  213.4600  147.3260 C   0  0  1  0  0  3  0  0  0  0  0  0
  162.6760  213.9850  147.9480 O   0  0  0  0  0  1  0  0  0  0  0  0
  161.6210  213.7090  145.8490 C   0  0  0  0  0  0  0  0  0  0  0  0
  160.5830  213.2420  144.9630 N   0  0  0  0  0  0  0  0  0  0  0  0
  162.5860  214.3840  145.3920 O   0  0  0  0  0  0  0  0  0  0  0  0
  160.7660  213.3900  143.5130 C   0  0  2  0  0  3  0  0  0  0  0  0
  159.6160  214.1710  142.9030 C   0  0  0  0  0  1  0  0  0  0  0  0
  160.9880  212.0690  142.7720 C   0  0  0  0  0  2  0  0  0  0  0  0
  159.9290  211.7950  141.8990 O   0  0  0  0  0  1  0  0  0  0  0  0
  159.4400  212.5100  145.5110 C   0  0  0  0  0  2  0  0  0  0  0  0
  158.3400  213.4760  145.9170 C   0  0  0  0  0  2  0  0  0  0  0  0
  157.7810  213.0570  147.2650 C   0  0  0  0  0  1  0  0  0  0  0  0
  161.6000  205.5390  152.6900 N   0  0  0  0  0  2  0  0  0  0  0  0
  160.7620  205.7980  153.7230 O   0  0  0  0  0  0  0  0  0  0  0  0
  161.5170  207.3620  155.3360 C   0  0  0  0  0  2  0  0  0  0  0  0
  160.9050  207.1620  153.9700 C   0  0  2  0  0  3  0  0  0  0  0  0
  160.0250  207.5550  155.1430 C   0  0  2  0  0  3  0  0  0  0  0  0
  159.7180  208.9780  155.0910 N   0  0  0  0  0  0  0  0  0  0  0  0
  160.0230  209.9140  156.0760 C   0  0  0  0  0  0  0  0  0  0  0  0
  159.4710  209.6600  153.8790 N   0  0  0  0  0  0  0  0  0  0  0  0
  159.5680  211.0600  154.1580 N   0  0  0  0  0  0  0  0  0  0  0  0
  160.3620  209.6520  157.2610 O   0  0  0  0  0  0  0  0  0  0  0  0
  159.9340  211.1860  155.5150 N   0  0  0  0  0  0  0  0  0  0  0  0
  160.0890  212.4560  156.2310 C   0  0  2  0  0  3  0  0  0  0  0  0
  161.3340  212.4540  157.1120 C   0  0  0  0  0  2  0  0  0  0  0  0
  162.3990  211.8520  156.4290 O   0  0  0  0  0  1  0  0  0  0  0  0
  158.8330  212.7910  157.0380 C   0  0  0  0  0  2  0  0  0  0  0  0
  158.0000  213.7590  156.3390 N   0  0  0  0  0  2  0  0  0  0  0  0
  156.7410  213.0830  156.0570 C   0  0  0  0  0  2  0  0  0  0  0  0
  156.3020  213.3110  154.6170 C   0  0  2  0  0  3  0  0  0  0  0  0
  157.0620  214.3210  154.0270 O   0  0  0  0  0  1  0  0  0  0  0  0
  154.8280  213.6690  154.5460 C   0  0  0  0  0  1  0  0  0  0  0  0
  1  3  2  0  0  0  0
  2  8  1  6  0  0  0
  2  3  1  0  0  0  0
  3  6  1  0  0  0  0
  5  1  1  0  0  0  0
  6  4  1  0  0  0  0
  6 31  1  0  0  0  0
  7  8  2  0  0  0  0
  8  5  1  0  0  0  0
 10  9  1  6  0  0  0
 10 11  1  0  0  0  0
 10 13  1  0  0  0  0
 11  9  1  6  0  0  0
 11  2  1  0  0  0  0
 12 14  1  0  0  0  0
 13 12  1  1  0  0  0
 15 16  1  0  0  0  0
 16 14  1  0  0  0  0
 17 18  1  6  0  0  0
 17 13  1  0  0  0  0
 17 15  1  0  0  0  0
 19 18  1  0  0  0  0
 19 20  1  1  0  0  0
 21 19  1  0  0  0  0
 22 28  1  0  0  0  0
 22 21  1  0  0  0  0
 23 21  2  0  0  0  0
 24 25  1  6  0  0  0
 24 22  1  0  0  0  0
 26 24  1  0  0  0  0
 27 26  1  0  0  0  0
 28 29  1  0  0  0  0
 29 30  1  0  0  0  0
 31 32  1  0  0  0  0
 34 32  1  1  0  0  0
 34 35  1  0  0  0  0
 34 33  1  0  0  0  0
 35 36  1  6  0  0  0
 35 33  1  0  0  0  0
 36 37  1  0  0  0  0
 37 40  2  0  0  0  0
 38 39  2  0  0  0  0
 38 36  1  0  0  0  0
 39 41  1  0  0  0  0
 41 37  1  0  0  0  0
 41 42  1  0  0  0  0
 42 45  1  1  0  0  0
 42 43  1  0  0  0  0
 44 43  1  0  0  0  0
 46 45  1  0  0  0  0
 47 46  1  0  0  0  0
 48 50  1  1  0  0  0
 48 47  1  0  0  0  0
 49 48  1  0  0  0  0
M  END
>  <MODEL>
7

>  <REMARK>
 VINA RESULT:      -2.8      3.940     11.643
  Name = 
  19 active torsions:
  status: ('A' for Active; 'I' for Inactive)
    1  A    between atoms: C_1  and  C_45
    2  A    between atoms: N_4  and  C_32
    3  A    between atoms: C_5  and  C_13
    4  A    between atoms: C_9  and  O_10
    5  A    between atoms: O_10  and  N_50
    6  A    between atoms: C_12  and  C_28
    7  A    between atoms: C_13  and  C_48
    8  A    between atoms: C_14  and  C_20
    9  A    between atoms: C_14  and  N_21
   10  A    between atoms: C_15  and  C_35
   11  A    between atoms: C_16  and  C_25
   12  A    between atoms: C_18  and  C_26
   13  A    between atoms: N_19  and  C_22
   14  A    between atoms: N_19  and  C_45
   15  A    between atoms: N_21  and  C_25
   16  A    between atoms: C_22  and  C_35
   17  A    between atoms: C_35  and  N_44
   18  A    between atoms: N_38  and  N_50
   19  A    between atoms: C_47  and  C_48
                            x       y       z     vdW  Elec       q    Type
                         _______ _______ _______ _____ _____    ______ ____

>  <TORSDO>
F 19

$$$$
