=
 OpenBabel11072409543D

 48 51  0  0  1  0  0  0  0  0999 V2000
  161.7870  204.7200  152.3210 N   0  0  0  0  0  2  0  0  0  0  0  0
  161.4530  207.0120  151.4030 C   0  0  2  0  0  3  0  0  0  0  0  0
  161.4950  206.6120  153.9030 C   0  0  2  0  0  3  0  0  0  0  0  0
  162.1620  207.3290  152.7240 C   0  0  0  0  0  2  0  0  0  0  0  0
  161.2210  205.5040  151.2210 C   0  0  0  0  0  2  0  0  0  0  0  0
  161.1620  205.1520  153.5710 C   0  0  0  0  0  2  0  0  0  0  0  0
  162.2560  207.5510  150.2290 C   0  0  0  0  0  2  0  0  0  0  0  0
  159.8870  206.7650  147.3640 C   0  0  0  0  0  3  0  0  0  0  0  0
  163.4640  206.7200  147.6920 O   0  0  0  0  0  0  0  0  0  0  0  0
  160.1360  207.2350  148.8060 C   0  0  0  0  0  3  0  0  0  0  0  0
  161.5760  207.2860  148.9690 N   0  0  0  0  0  0  0  0  0  0  0  0
  162.2120  206.8030  147.8080 C   0  0  0  0  0  0  0  0  0  0  0  0
  161.2520  206.4280  146.7490 C   0  0  1  0  0  3  0  0  0  0  0  0
  162.3780  202.5900  146.8950 C   0  0  0  0  0  2  0  0  0  0  0  0
  160.5070  200.0410  145.2350 C   0  0  0  0  0  0  0  0  0  0  0  0
  161.9740  203.9800  147.2990 C   0  0  0  0  0  0  0  0  0  0  0  0
  161.2810  201.5300  147.0880 C   0  0  2  0  0  3  0  0  0  0  0  0
  161.1970  198.9770  145.8130 O   0  0  0  0  0  1  0  0  0  0  0  0
  160.8630  204.6780  145.1540 C   0  0  0  0  0  3  0  0  0  0  0  0
  162.1930  204.3130  148.4960 O   0  0  0  0  0  0  0  0  0  0  0  0
  159.8070  202.4450  145.2390 C   0  0  0  0  0  2  0  0  0  0  0  0
  161.3580  204.9750  146.3650 C   0  0  0  0  0  0  0  0  0  0  0  0
  160.8040  203.3310  144.5130 C   0  0  0  0  0  2  0  0  0  0  0  0
  159.8770  199.8530  144.1600 O   0  0  0  0  0  0  0  0  0  0  0  0
  160.5110  201.3300  145.8600 N   0  0  0  0  0  0  0  0  0  0  0  0
  160.3740  201.7730  148.2960 C   0  0  0  0  0  2  0  0  0  0  0  0
  160.8610  201.0170  149.5230 C   0  0  0  0  0  2  0  0  0  0  0  0
  160.7950  201.9080  150.7520 C   0  0  0  0  0  1  0  0  0  0  0  0
  160.2170  207.3190  154.3330 C   0  0  0  0  0  2  0  0  0  0  0  0
  157.2890  211.9090  153.8390 O   0  0  0  0  0  1  0  0  0  0  0  0
  159.3220  210.7610  153.5860 N   0  0  0  0  0  0  0  0  0  0  0  0
  160.3380  210.3570  152.6160 C   0  0  0  0  0  2  0  0  0  0  0  0
  160.5550  208.8660  155.2410 P   0  0  1  0  0  4  0  0  0  0  0  0
  162.2080  209.4520  154.7180 C   0  0  0  0  0  2  0  0  0  0  0  0
  162.1750  210.9110  154.2830 C   0  0  0  0  0  2  0  0  0  0  0  0
  161.6560  211.0870  152.8580 C   0  0  0  0  0  2  0  0  0  0  0  0
  158.3170  211.6930  153.1420 C   0  0  0  0  0  0  0  0  0  0  0  0
  159.2090  210.0940  154.9000 C   0  0  1  0  0  3  0  0  0  0  0  0
  158.4660  212.3610  151.9320 O   0  0  0  0  0  0  0  0  0  0  0  0
  160.6230  208.4660  157.0160 C   0  0  0  0  0  2  0  0  0  0  0  0
  160.0840  207.0710  157.2610 C   0  0  0  0  0  1  0  0  0  0  0  0
  158.9880  211.0980  156.0470 C   0  0  1  0  0  3  0  0  0  0  0  0
  158.0950  210.5790  156.9870 O   0  0  0  0  0  0  0  0  0  0  0  0
  156.9090  211.2850  156.7800 C   0  0  0  0  0  1  0  0  0  0  0  0
  160.2350  211.4700  156.6950 N   0  0  0  0  0  2  0  0  0  0  0  0
  160.1240  212.8740  157.0510 C   0  0  0  0  0  2  0  0  0  0  0  0
  158.4410  214.4530  156.1590 C   0  0  0  0  0  1  0  0  0  0  0  0
  159.6950  213.6690  155.8340 C   0  0  0  0  0  2  0  0  0  0  0  0
  1  6  1  0  0  0  0
  2  7  1  6  0  0  0
  2  4  1  0  0  0  0
  3 29  1  6  0  0  0
  4  3  1  0  0  0  0
  5  2  1  0  0  0  0
  5  1  1  0  0  0  0
  6  3  1  0  0  0  0
  8 10  2  0  0  0  0
  9 12  2  0  0  0  0
 10 11  1  0  0  0  0
 11  7  1  0  0  0  0
 12 11  1  0  0  0  0
 13 22  1  1  0  0  0
 13  8  1  0  0  0  0
 13 12  1  0  0  0  0
 14 17  1  0  0  0  0
 14 16  1  0  0  0  0
 15 18  1  0  0  0  0
 15 25  1  0  0  0  0
 16 20  2  0  0  0  0
 17 26  1  1  0  0  0
 19 22  2  0  0  0  0
 21 25  1  0  0  0  0
 22 16  1  0  0  0  0
 23 19  1  0  0  0  0
 23 21  1  0  0  0  0
 24 15  2  0  0  0  0
 25 17  1  0  0  0  0
 26 27  1  0  0  0  0
 27 28  1  0  0  0  0
 31 38  1  0  0  0  0
 32 36  1  0  0  0  0
 32 31  1  0  0  0  0
 33 29  1  6  0  0  0
 33 40  1  0  0  0  0
 34 33  1  0  0  0  0
 35 34  1  0  0  0  0
 36 35  1  0  0  0  0
 37 31  1  0  0  0  0
 37 30  1  0  0  0  0
 38 33  1  0  0  0  0
 38 42  1  1  0  0  0
 39 37  2  0  0  0  0
 40 41  1  0  0  0  0
 42 45  1  1  0  0  0
 42 43  1  0  0  0  0
 44 43  1  0  0  0  0
 45 46  1  0  0  0  0
 48 47  1  0  0  0  0
 48 46  1  0  0  0  0
M  END
>  <MODEL>
1

>  <REMARK>
 VINA RESULT:      -1.9      0.000      0.000
  Name = 
  13 active torsions:
  status: ('A' for Active; 'I' for Inactive)
    1  A    between atoms: C_1  and  C_17
    2  A    between atoms: C_1  and  N_30
    3  A    between atoms: C_4  and  N_22
    4  A    between atoms: C_4  and  C_24
    5  A    between atoms: O_5  and  C_18
    6  A    between atoms: C_6  and  C_11
    7  A    between atoms: C_11  and  C_15
    8  A    between atoms: C_18  and  N_22
    9  A    between atoms: C_18  and  C_39
   10  A    between atoms: C_21  and  P_23
   11  A    between atoms: C_21  and  C_32
   12  A    between atoms: P_23  and  C_44
   13  A    between atoms: C_33  and  C_37
                            x       y       z     vdW  Elec       q    Type
                         _______ _______ _______ _____ _____    ______ ____

>  <TORSDO>
F 13

$$$$
=
 OpenBabel11072409543D

 48 51  0  0  1  0  0  0  0  0999 V2000
  161.5710  206.4390  153.8430 N   0  0  0  0  0  2  0  0  0  0  0  0
  161.1670  207.9350  151.8910 C   0  0  2  0  0  3  0  0  0  0  0  0
  160.8390  208.7760  154.2560 C   0  0  2  0  0  3  0  0  0  0  0  0
  161.6160  208.9500  152.9460 C   0  0  0  0  0  2  0  0  0  0  0  0
  161.1180  206.5040  152.4510 C   0  0  0  0  0  2  0  0  0  0  0  0
  160.7100  207.3000  154.6540 C   0  0  0  0  0  2  0  0  0  0  0  0
  162.0940  207.9790  150.6860 C   0  0  0  0  0  2  0  0  0  0  0  0
  159.7510  206.6340  148.0140 C   0  0  0  0  0  3  0  0  0  0  0  0
  163.3150  207.0440  148.1910 O   0  0  0  0  0  0  0  0  0  0  0  0
  159.9850  207.2740  149.3930 C   0  0  0  0  0  3  0  0  0  0  0  0
  161.4120  207.5100  149.4880 N   0  0  0  0  0  0  0  0  0  0  0  0
  162.0660  206.9900  148.3530 C   0  0  0  0  0  0  0  0  0  0  0  0
  161.1260  206.3990  147.3770 C   0  0  1  0  0  3  0  0  0  0  0  0
  162.1650  202.6070  148.1240 C   0  0  0  0  0  2  0  0  0  0  0  0
  161.1270  199.9410  145.9860 C   0  0  0  0  0  0  0  0  0  0  0  0
  161.6150  203.9970  148.2750 C   0  0  0  0  0  0  0  0  0  0  0  0
  161.0970  201.5200  147.9250 C   0  0  2  0  0  3  0  0  0  0  0  0
  161.5550  198.9220  146.8340 O   0  0  0  0  0  1  0  0  0  0  0  0
  161.4150  204.5820  145.8380 C   0  0  0  0  0  3  0  0  0  0  0  0
  161.3460  204.3800  149.4470 O   0  0  0  0  0  0  0  0  0  0  0  0
  160.4440  202.3200  145.6080 C   0  0  0  0  0  2  0  0  0  0  0  0
  161.3960  204.9380  147.1310 C   0  0  0  0  0  0  0  0  0  0  0  0
  161.6310  203.2110  145.2870 C   0  0  0  0  0  2  0  0  0  0  0  0
  160.9680  199.6950  144.7610 O   0  0  0  0  0  0  0  0  0  0  0  0
  160.8670  201.2520  146.5040 N   0  0  0  0  0  0  0  0  0  0  0  0
  159.7880  201.7770  148.6730 C   0  0  0  0  0  2  0  0  0  0  0  0
  159.8310  201.2160  150.0860 C   0  0  0  0  0  2  0  0  0  0  0  0
  161.2690  200.9840  150.5170 C   0  0  0  0  0  1  0  0  0  0  0  0
  159.4440  209.3800  154.1600 C   0  0  0  0  0  2  0  0  0  0  0  0
  155.1700  212.7840  154.0020 O   0  0  0  0  0  1  0  0  0  0  0  0
  157.4680  212.3970  153.7140 N   0  0  0  0  0  0  0  0  0  0  0  0
  158.5640  212.4490  152.7480 C   0  0  0  0  0  2  0  0  0  0  0  0
  159.2520  210.8500  155.2240 P   0  0  1  0  0  4  0  0  0  0  0  0
  160.6220  211.9950  154.8200 C   0  0  0  0  0  2  0  0  0  0  0  0
  160.1110  213.4000  154.5260 C   0  0  0  0  0  2  0  0  0  0  0  0
  159.5670  213.5410  153.1070 C   0  0  0  0  0  2  0  0  0  0  0  0
  156.2140  212.9900  153.3260 C   0  0  0  0  0  0  0  0  0  0  0  0
  157.5780  211.5990  154.9540 C   0  0  1  0  0  3  0  0  0  0  0  0
  156.1390  213.7900  152.1910 O   0  0  0  0  0  0  0  0  0  0  0  0
  159.4430  210.3150  156.9530 C   0  0  0  0  0  2  0  0  0  0  0  0
  160.8900  209.9680  157.2380 C   0  0  0  0  0  1  0  0  0  0  0  0
  157.0350  212.3520  156.1830 C   0  0  1  0  0  3  0  0  0  0  0  0
  157.3040  213.7190  156.0780 O   0  0  0  0  0  0  0  0  0  0  0  0
  157.9850  214.0390  157.2540 C   0  0  0  0  0  1  0  0  0  0  0  0
  155.6090  212.1360  156.3700 N   0  0  0  0  0  2  0  0  0  0  0  0
  155.4650  210.9120  157.1390 C   0  0  0  0  0  2  0  0  0  0  0  0
  154.8350  209.5610  155.1640 C   0  0  0  0  0  1  0  0  0  0  0  0
  154.3790  210.0540  156.5220 C   0  0  0  0  0  2  0  0  0  0  0  0
  1  6  1  0  0  0  0
  2  7  1  6  0  0  0
  2  5  1  0  0  0  0
  2  4  1  0  0  0  0
  3 29  1  6  0  0  0
  3  6  1  0  0  0  0
  4  3  1  0  0  0  0
  5  1  1  0  0  0  0
  8 10  2  0  0  0  0
  9 12  2  0  0  0  0
 10 11  1  0  0  0  0
 11  7  1  0  0  0  0
 12 11  1  0  0  0  0
 13 22  1  1  0  0  0
 13  8  1  0  0  0  0
 13 12  1  0  0  0  0
 14 16  1  0  0  0  0
 15 25  1  0  0  0  0
 15 18  1  0  0  0  0
 16 20  2  0  0  0  0
 17 14  1  0  0  0  0
 17 26  1  6  0  0  0
 19 22  2  0  0  0  0
 21 25  1  0  0  0  0
 22 16  1  0  0  0  0
 23 21  1  0  0  0  0
 23 19  1  0  0  0  0
 24 15  2  0  0  0  0
 25 17  1  0  0  0  0
 26 27  1  0  0  0  0
 27 28  1  0  0  0  0
 31 38  1  0  0  0  0
 32 36  1  0  0  0  0
 32 31  1  0  0  0  0
 33 29  1  6  0  0  0
 33 40  1  0  0  0  0
 34 33  1  0  0  0  0
 35 34  1  0  0  0  0
 36 35  1  0  0  0  0
 37 31  1  0  0  0  0
 37 30  1  0  0  0  0
 38 33  1  0  0  0  0
 38 42  1  1  0  0  0
 39 37  2  0  0  0  0
 40 41  1  0  0  0  0
 42 43  1  6  0  0  0
 42 45  1  0  0  0  0
 43 44  1  0  0  0  0
 45 46  1  0  0  0  0
 47 48  1  0  0  0  0
 48 46  1  0  0  0  0
M  END
>  <MODEL>
2

>  <REMARK>
 VINA RESULT:      -1.9      1.684      2.442
  Name = 
  13 active torsions:
  status: ('A' for Active; 'I' for Inactive)
    1  A    between atoms: C_1  and  C_17
    2  A    between atoms: C_1  and  N_30
    3  A    between atoms: C_4  and  N_22
    4  A    between atoms: C_4  and  C_24
    5  A    between atoms: O_5  and  C_18
    6  A    between atoms: C_6  and  C_11
    7  A    between atoms: C_11  and  C_15
    8  A    between atoms: C_18  and  N_22
    9  A    between atoms: C_18  and  C_39
   10  A    between atoms: C_21  and  P_23
   11  A    between atoms: C_21  and  C_32
   12  A    between atoms: P_23  and  C_44
   13  A    between atoms: C_33  and  C_37
                            x       y       z     vdW  Elec       q    Type
                         _______ _______ _______ _____ _____    ______ ____

>  <TORSDO>
F 13

$$$$
=
 OpenBabel11072409543D

 48 51  0  0  1  0  0  0  0  0999 V2000
  160.6740  207.5750  156.6030 N   0  0  0  0  0  2  0  0  0  0  0  0
  160.6520  207.4570  154.1150 C   0  0  2  0  0  3  0  0  0  0  0  0
  159.7380  209.4860  155.3230 C   0  0  2  0  0  3  0  0  0  0  0  0
  160.7870  208.9670  154.3320 C   0  0  0  0  0  2  0  0  0  0  0  0
  160.5530  206.6900  155.4430 C   0  0  0  0  0  2  0  0  0  0  0  0
  159.6020  208.5690  156.5450 C   0  0  0  0  0  2  0  0  0  0  0  0
  161.8300  206.9320  153.3080 C   0  0  0  0  0  2  0  0  0  0  0  0
  161.3920  203.7120  151.3370 C   0  0  0  0  0  3  0  0  0  0  0  0
  159.9790  207.0010  151.0360 O   0  0  0  0  0  0  0  0  0  0  0  0
  162.0100  204.4920  152.5090 C   0  0  0  0  0  3  0  0  0  0  0  0
  161.4240  205.8180  152.4620 N   0  0  0  0  0  0  0  0  0  0  0  0
  160.5960  205.9410  151.3280 C   0  0  0  0  0  0  0  0  0  0  0  0
  160.5210  204.6920  150.5420 C   0  0  1  0  0  3  0  0  0  0  0  0
  162.3910  203.8800  147.0980 C   0  0  0  0  0  2  0  0  0  0  0  0
  161.4880  205.5260  144.0600 C   0  0  0  0  0  0  0  0  0  0  0  0
  161.6250  203.7280  148.3820 C   0  0  0  0  0  0  0  0  0  0  0  0
  161.5320  203.7590  145.8290 C   0  0  2  0  0  3  0  0  0  0  0  0
  162.2590  204.7090  143.2360 O   0  0  0  0  0  0  0  0  0  0  0  0
  160.8480  206.1070  148.6310 C   0  0  0  0  0  3  0  0  0  0  0  0
  161.5200  202.5610  148.8490 O   0  0  0  0  0  0  0  0  0  0  0  0
  160.3020  205.9410  146.2260 C   0  0  0  0  0  2  0  0  0  0  0  0
  161.0120  204.8710  149.1290 C   0  0  0  0  0  0  0  0  0  0  0  0
  161.2110  206.5780  147.2620 C   0  0  0  0  0  2  0  0  0  0  0  0
  161.1440  206.6660  143.6480 O   0  0  0  0  0  1  0  0  0  0  0  0
  161.0880  205.0720  145.3590 N   0  0  0  0  0  0  0  0  0  0  0  0
  160.3690  202.7730  145.9450 C   0  0  0  0  0  2  0  0  0  0  0  0
  160.0780  202.0920  144.6180 C   0  0  0  0  0  2  0  0  0  0  0  0
  159.9690  200.5880  144.8090 C   0  0  0  0  0  1  0  0  0  0  0  0
  158.3730  209.6270  154.6630 C   0  0  0  0  0  2  0  0  0  0  0  0
  158.0610  213.9180  151.2910 O   0  0  0  0  0  0  0  0  0  0  0  0
  158.8350  212.9600  153.2910 N   0  0  0  0  0  0  0  0  0  0  0  0
  160.0360  212.6370  154.0590 C   0  0  0  0  0  2  0  0  0  0  0  0
  157.5660  211.2110  155.0750 P   0  0  1  0  0  4  0  0  0  0  0  0
  158.4880  211.9400  156.4790 C   0  0  0  0  0  2  0  0  0  0  0  0
  158.8870  213.3840  156.2000 C   0  0  0  0  0  2  0  0  0  0  0  0
  160.1300  213.4900  155.3210 C   0  0  0  0  0  2  0  0  0  0  0  0
  158.9990  213.7880  152.1240 C   0  0  0  0  0  0  0  0  0  0  0  0
  157.5410  212.3050  153.5790 C   0  0  1  0  0  3  0  0  0  0  0  0
  160.2010  214.4490  151.8970 O   0  0  0  0  0  1  0  0  0  0  0  0
  155.8710  210.8460  155.6310 C   0  0  0  0  0  2  0  0  0  0  0  0
  155.6190  211.4690  156.9890 C   0  0  0  0  0  1  0  0  0  0  0  0
  156.3670  213.3000  153.5640 C   0  0  1  0  0  3  0  0  0  0  0  0
  156.5460  214.2840  154.5400 O   0  0  0  0  0  0  0  0  0  0  0  0
  155.3160  214.3640  155.1960 C   0  0  0  0  0  1  0  0  0  0  0  0
  156.1900  213.9180  152.2600 N   0  0  0  0  0  2  0  0  0  0  0  0
  154.7730  214.2020  152.1160 C   0  0  0  0  0  2  0  0  0  0  0  0
  155.6510  213.9750  149.8150 C   0  0  0  0  0  1  0  0  0  0  0  0
  154.4090  214.2210  150.6450 C   0  0  0  0  0  2  0  0  0  0  0  0
  2  7  1  1  0  0  0
  2  4  1  0  0  0  0
  2  5  1  0  0  0  0
  3 29  1  6  0  0  0
  3  6  1  0  0  0  0
  4  3  1  0  0  0  0
  5  1  1  0  0  0  0
  6  1  1  0  0  0  0
  8 10  2  0  0  0  0
  9 12  2  0  0  0  0
 11 10  1  0  0  0  0
 11  7  1  0  0  0  0
 12 11  1  0  0  0  0
 13 22  1  6  0  0  0
 13 12  1  0  0  0  0
 13  8  1  0  0  0  0
 14 16  1  0  0  0  0
 15 25  1  0  0  0  0
 16 20  2  0  0  0  0
 16 22  1  0  0  0  0
 17 26  1  1  0  0  0
 17 14  1  0  0  0  0
 18 15  2  0  0  0  0
 19 22  2  0  0  0  0
 21 23  1  0  0  0  0
 23 19  1  0  0  0  0
 24 15  1  0  0  0  0
 25 17  1  0  0  0  0
 25 21  1  0  0  0  0
 27 28  1  0  0  0  0
 27 26  1  0  0  0  0
 30 37  2  0  0  0  0
 31 38  1  0  0  0  0
 31 32  1  0  0  0  0
 32 36  1  0  0  0  0
 33 29  1  6  0  0  0
 33 40  1  0  0  0  0
 33 34  1  0  0  0  0
 35 34  1  0  0  0  0
 36 35  1  0  0  0  0
 37 31  1  0  0  0  0
 38 42  1  1  0  0  0
 38 33  1  0  0  0  0
 39 37  1  0  0  0  0
 40 41  1  0  0  0  0
 42 45  1  6  0  0  0
 42 43  1  0  0  0  0
 43 44  1  0  0  0  0
 46 45  1  0  0  0  0
 47 48  1  0  0  0  0
 48 46  1  0  0  0  0
M  END
>  <MODEL>
3

>  <REMARK>
 VINA RESULT:      -1.1      2.490      4.466
  Name = 
  13 active torsions:
  status: ('A' for Active; 'I' for Inactive)
    1  A    between atoms: C_1  and  C_17
    2  A    between atoms: C_1  and  N_30
    3  A    between atoms: C_4  and  N_22
    4  A    between atoms: C_4  and  C_24
    5  A    between atoms: O_5  and  C_18
    6  A    between atoms: C_6  and  C_11
    7  A    between atoms: C_11  and  C_15
    8  A    between atoms: C_18  and  N_22
    9  A    between atoms: C_18  and  C_39
   10  A    between atoms: C_21  and  P_23
   11  A    between atoms: C_21  and  C_32
   12  A    between atoms: P_23  and  C_44
   13  A    between atoms: C_33  and  C_37
                            x       y       z     vdW  Elec       q    Type
                         _______ _______ _______ _____ _____    ______ ____

>  <TORSDO>
F 13

$$$$
=
 OpenBabel11072409543D

 48 51  0  0  1  0  0  0  0  0999 V2000
  161.1920  208.5560  151.2840 N   0  0  0  0  0  2  0  0  0  0  0  0
  161.0370  207.5590  153.5620 C   0  0  2  0  0  3  0  0  0  0  0  0
  160.2660  209.9320  153.1330 C   0  0  2  0  0  3  0  0  0  0  0  0
  159.8520  208.5280  153.5890 C   0  0  0  0  0  2  0  0  0  0  0  0
  161.8080  207.6270  152.2340 C   0  0  0  0  0  2  0  0  0  0  0  0
  161.1610  209.8880  151.8880 C   0  0  0  0  0  2  0  0  0  0  0  0
  160.5610  206.1340  153.8030 C   0  0  0  0  0  2  0  0  0  0  0  0
  163.0020  204.2450  151.5860 C   0  0  0  0  0  3  0  0  0  0  0  0
  159.6820  203.5390  152.7620 O   0  0  0  0  0  0  0  0  0  0  0  0
  162.6550  205.4530  152.4720 C   0  0  0  0  0  3  0  0  0  0  0  0
  161.3380  205.1860  153.0170 N   0  0  0  0  0  0  0  0  0  0  0  0
  160.8220  203.9930  152.4730 C   0  0  0  0  0  0  0  0  0  0  0  0
  161.7690  203.3340  151.5500 C   0  0  1  0  0  3  0  0  0  0  0  0
  160.3780  204.3880  147.9480 C   0  0  0  0  0  2  0  0  0  0  0  0
  160.3460  202.0810  145.2210 C   0  0  0  0  0  0  0  0  0  0  0  0
  161.1650  204.3630  149.2280 C   0  0  0  0  0  0  0  0  0  0  0  0
  161.1610  203.9150  146.7120 C   0  0  2  0  0  3  0  0  0  0  0  0
  160.0090  203.0270  144.2560 O   0  0  0  0  0  0  0  0  0  0  0  0
  160.7790  201.9580  149.8510 C   0  0  0  0  0  3  0  0  0  0  0  0
  161.8040  205.4100  149.5250 O   0  0  0  0  0  0  0  0  0  0  0  0
  161.2730  201.4990  147.4730 C   0  0  0  0  0  2  0  0  0  0  0  0
  161.2100  203.1910  150.1580 C   0  0  0  0  0  0  0  0  0  0  0  0
  160.2030  201.5060  148.5500 C   0  0  0  0  0  2  0  0  0  0  0  0
  160.1210  200.8630  144.9930 O   0  0  0  0  0  1  0  0  0  0  0  0
  160.9450  202.4900  146.4570 N   0  0  0  0  0  0  0  0  0  0  0  0
  162.6490  204.2700  146.7350 C   0  0  0  0  0  2  0  0  0  0  0  0
  162.9980  205.2880  145.6600 C   0  0  0  0  0  2  0  0  0  0  0  0
  161.7700  205.6210  144.8300 C   0  0  0  0  0  1  0  0  0  0  0  0
  161.0000  210.6810  154.2370 C   0  0  0  0  0  2  0  0  0  0  0  0
  155.7650  212.1960  153.8080 O   0  0  0  0  0  1  0  0  0  0  0  0
  157.9740  212.6830  154.4400 N   0  0  0  0  0  0  0  0  0  0  0  0
  159.0900  213.6030  154.2240 C   0  0  0  0  0  2  0  0  0  0  0  0
  159.9140  211.0640  155.6520 P   0  0  1  0  0  4  0  0  0  0  0  0
  160.6270  212.5200  156.5040 C   0  0  0  0  0  2  0  0  0  0  0  0
  159.5870  213.6120  156.7170 C   0  0  0  0  0  2  0  0  0  0  0  0
  159.3530  214.4520  155.4640 C   0  0  0  0  0  2  0  0  0  0  0  0
  156.7030  213.0370  153.8620 C   0  0  0  0  0  0  0  0  0  0  0  0
  158.1850  211.3530  155.0500 C   0  0  1  0  0  3  0  0  0  0  0  0
  156.4980  214.3120  153.3470 O   0  0  0  0  0  0  0  0  0  0  0  0
  159.9660  209.6490  156.7950 C   0  0  0  0  0  2  0  0  0  0  0  0
  161.1120  208.7250  156.4340 C   0  0  0  0  0  1  0  0  0  0  0  0
  157.1050  211.0120  156.0930 C   0  0  1  0  0  3  0  0  0  0  0  0
  157.2990  211.7560  157.2600 O   0  0  0  0  0  0  0  0  0  0  0  0
  156.4670  212.8680  157.1160 C   0  0  0  0  0  1  0  0  0  0  0  0
  155.7620  211.2290  155.5800 N   0  0  0  0  0  2  0  0  0  0  0  0
  155.1550  209.9190  155.4200 C   0  0  0  0  0  2  0  0  0  0  0  0
  153.5630  210.7930  157.0990 C   0  0  0  0  0  1  0  0  0  0  0  0
  154.3550  209.5790  156.6600 C   0  0  0  0  0  2  0  0  0  0  0  0
  1  6  1  0  0  0  0
  1  5  1  0  0  0  0
  2  4  1  0  0  0  0
  2  7  1  6  0  0  0
  3  4  1  0  0  0  0
  3 29  1  1  0  0  0
  5  2  1  0  0  0  0
  6  3  1  0  0  0  0
  8 10  2  0  0  0  0
 10 11  1  0  0  0  0
 11  7  1  0  0  0  0
 12  9  2  0  0  0  0
 12 11  1  0  0  0  0
 13 22  1  6  0  0  0
 13  8  1  0  0  0  0
 13 12  1  0  0  0  0
 14 16  1  0  0  0  0
 15 25  1  0  0  0  0
 16 20  2  0  0  0  0
 16 22  1  0  0  0  0
 17 26  1  1  0  0  0
 17 14  1  0  0  0  0
 18 15  2  0  0  0  0
 19 22  2  0  0  0  0
 21 23  1  0  0  0  0
 23 19  1  0  0  0  0
 24 15  1  0  0  0  0
 25 17  1  0  0  0  0
 25 21  1  0  0  0  0
 27 26  1  0  0  0  0
 28 27  1  0  0  0  0
 30 37  1  0  0  0  0
 31 38  1  0  0  0  0
 32 31  1  0  0  0  0
 32 36  1  0  0  0  0
 33 29  1  6  0  0  0
 33 34  1  0  0  0  0
 33 40  1  0  0  0  0
 34 35  1  0  0  0  0
 36 35  1  0  0  0  0
 37 31  1  0  0  0  0
 38 33  1  0  0  0  0
 38 42  1  1  0  0  0
 39 37  2  0  0  0  0
 41 40  1  0  0  0  0
 42 45  1  6  0  0  0
 42 43  1  0  0  0  0
 44 43  1  0  0  0  0
 46 45  1  0  0  0  0
 46 48  1  0  0  0  0
 48 47  1  0  0  0  0
M  END
>  <MODEL>
4

>  <REMARK>
 VINA RESULT:      -0.9      1.914      4.034
  Name = 
  13 active torsions:
  status: ('A' for Active; 'I' for Inactive)
    1  A    between atoms: C_1  and  C_17
    2  A    between atoms: C_1  and  N_30
    3  A    between atoms: C_4  and  N_22
    4  A    between atoms: C_4  and  C_24
    5  A    between atoms: O_5  and  C_18
    6  A    between atoms: C_6  and  C_11
    7  A    between atoms: C_11  and  C_15
    8  A    between atoms: C_18  and  N_22
    9  A    between atoms: C_18  and  C_39
   10  A    between atoms: C_21  and  P_23
   11  A    between atoms: C_21  and  C_32
   12  A    between atoms: P_23  and  C_44
   13  A    between atoms: C_33  and  C_37
                            x       y       z     vdW  Elec       q    Type
                         _______ _______ _______ _____ _____    ______ ____

>  <TORSDO>
F 13

$$$$
=
 OpenBabel11072409543D

 48 51  0  0  1  0  0  0  0  0999 V2000
  161.8650  208.7950  151.5390 N   0  0  0  0  0  2  0  0  0  0  0  0
  160.9090  207.5110  153.4480 C   0  0  2  0  0  3  0  0  0  0  0  0
  160.7340  210.0350  153.3690 C   0  0  2  0  0  3  0  0  0  0  0  0
  159.9600  208.7120  153.4030 C   0  0  0  0  0  2  0  0  0  0  0  0
  162.0150  207.6090  152.3850 C   0  0  0  0  0  2  0  0  0  0  0  0
  161.9130  209.9840  152.3890 C   0  0  0  0  0  2  0  0  0  0  0  0
  160.1340  206.2160  153.2600 C   0  0  0  0  0  2  0  0  0  0  0  0
  162.7600  204.0660  151.5500 C   0  0  0  0  0  3  0  0  0  0  0  0
  159.2300  204.5120  151.0540 O   0  0  0  0  0  0  0  0  0  0  0  0
  162.3540  205.0730  152.6390 C   0  0  0  0  0  3  0  0  0  0  0  0
  160.9190  205.2440  152.5130 N   0  0  0  0  0  0  0  0  0  0  0  0
  160.4410  204.5200  151.4020 C   0  0  0  0  0  0  0  0  0  0  0  0
  161.5090  203.7650  150.7140 C   0  0  1  0  0  3  0  0  0  0  0  0
  162.3660  203.5010  146.8130 C   0  0  0  0  0  2  0  0  0  0  0  0
  161.0290  205.8270  144.4560 C   0  0  0  0  0  0  0  0  0  0  0  0
  161.9120  203.1640  148.2060 C   0  0  0  0  0  0  0  0  0  0  0  0
  161.2230  203.7360  145.8130 C   0  0  2  0  0  3  0  0  0  0  0  0
  161.4500  205.1250  143.3290 O   0  0  0  0  0  0  0  0  0  0  0  0
  161.5850  205.5060  149.0630 C   0  0  0  0  0  3  0  0  0  0  0  0
  161.7450  201.9420  148.4710 O   0  0  0  0  0  0  0  0  0  0  0  0
  160.4670  205.9010  146.8950 C   0  0  0  0  0  2  0  0  0  0  0  0
  161.6740  204.1840  149.2760 C   0  0  0  0  0  0  0  0  0  0  0  0
  161.6810  206.2120  147.7520 C   0  0  0  0  0  2  0  0  0  0  0  0
  160.7740  207.0570  144.3550 O   0  0  0  0  0  1  0  0  0  0  0  0
  160.8840  205.1560  145.7140 N   0  0  0  0  0  0  0  0  0  0  0  0
  159.9850  202.8710  146.0550 C   0  0  0  0  0  2  0  0  0  0  0  0
  159.8950  201.7290  145.0540 C   0  0  0  0  0  2  0  0  0  0  0  0
  160.7040  200.5380  145.5380 C   0  0  0  0  0  1  0  0  0  0  0  0
  161.2600  210.4070  154.7480 C   0  0  0  0  0  2  0  0  0  0  0  0
  156.4990  212.4540  153.0070 O   0  0  0  0  0  1  0  0  0  0  0  0
  158.5540  212.7470  154.1050 N   0  0  0  0  0  0  0  0  0  0  0  0
  159.8000  213.5110  154.0960 C   0  0  0  0  0  2  0  0  0  0  0  0
  159.9440  211.0420  155.8420 P   0  0  1  0  0  4  0  0  0  0  0  0
  160.6320  212.4820  156.7390 C   0  0  0  0  0  2  0  0  0  0  0  0
  159.7230  213.6990  156.6300 C   0  0  0  0  0  2  0  0  0  0  0  0
  159.8880  214.4390  155.3050 C   0  0  0  0  0  2  0  0  0  0  0  0
  157.5020  213.1850  153.2240 C   0  0  0  0  0  0  0  0  0  0  0  0
  158.4470  211.4650  154.8340 C   0  0  1  0  0  3  0  0  0  0  0  0
  157.5870  214.4210  152.5930 O   0  0  0  0  0  0  0  0  0  0  0  0
  159.5530  209.7440  157.0560 C   0  0  0  0  0  2  0  0  0  0  0  0
  159.6890  208.3740  156.4220 C   0  0  0  0  0  1  0  0  0  0  0  0
  157.1260  211.3470  155.6160 C   0  0  1  0  0  3  0  0  0  0  0  0
  156.5850  210.0670  155.4760 O   0  0  0  0  0  0  0  0  0  0  0  0
  155.2590  210.2790  155.0960 C   0  0  0  0  0  1  0  0  0  0  0  0
  157.2940  211.6670  157.0250 N   0  0  0  0  0  2  0  0  0  0  0  0
  156.5960  212.9180  157.2600 C   0  0  0  0  0  2  0  0  0  0  0  0
  155.3050  214.4520  155.8110 C   0  0  0  0  0  1  0  0  0  0  0  0
  155.4220  213.0270  156.3080 C   0  0  0  0  0  2  0  0  0  0  0  0
  1  5  1  0  0  0  0
  1  6  1  0  0  0  0
  2  7  1  6  0  0  0
  3  4  1  0  0  0  0
  3 29  1  1  0  0  0
  4  2  1  0  0  0  0
  5  2  1  0  0  0  0
  6  3  1  0  0  0  0
  8 10  2  0  0  0  0
  9 12  2  0  0  0  0
 11 10  1  0  0  0  0
 11  7  1  0  0  0  0
 12 11  1  0  0  0  0
 13 22  1  6  0  0  0
 13 12  1  0  0  0  0
 13  8  1  0  0  0  0
 14 16  1  0  0  0  0
 15 25  1  0  0  0  0
 16 20  2  0  0  0  0
 16 22  1  0  0  0  0
 17 26  1  1  0  0  0
 17 14  1  0  0  0  0
 18 15  2  0  0  0  0
 19 22  2  0  0  0  0
 21 23  1  0  0  0  0
 23 19  1  0  0  0  0
 24 15  1  0  0  0  0
 25 17  1  0  0  0  0
 25 21  1  0  0  0  0
 27 28  1  0  0  0  0
 27 26  1  0  0  0  0
 30 37  1  0  0  0  0
 31 38  1  0  0  0  0
 32 31  1  0  0  0  0
 32 36  1  0  0  0  0
 33 29  1  6  0  0  0
 33 34  1  0  0  0  0
 33 40  1  0  0  0  0
 35 34  1  0  0  0  0
 36 35  1  0  0  0  0
 37 31  1  0  0  0  0
 38 42  1  1  0  0  0
 38 33  1  0  0  0  0
 39 37  2  0  0  0  0
 41 40  1  0  0  0  0
 42 43  1  1  0  0  0
 42 45  1  0  0  0  0
 44 43  1  0  0  0  0
 45 46  1  0  0  0  0
 47 48  1  0  0  0  0
 48 46  1  0  0  0  0
M  END
>  <MODEL>
5

>  <REMARK>
 VINA RESULT:       0.1      2.041      3.795
  Name = 
  13 active torsions:
  status: ('A' for Active; 'I' for Inactive)
    1  A    between atoms: C_1  and  C_17
    2  A    between atoms: C_1  and  N_30
    3  A    between atoms: C_4  and  N_22
    4  A    between atoms: C_4  and  C_24
    5  A    between atoms: O_5  and  C_18
    6  A    between atoms: C_6  and  C_11
    7  A    between atoms: C_11  and  C_15
    8  A    between atoms: C_18  and  N_22
    9  A    between atoms: C_18  and  C_39
   10  A    between atoms: C_21  and  P_23
   11  A    between atoms: C_21  and  C_32
   12  A    between atoms: P_23  and  C_44
   13  A    between atoms: C_33  and  C_37
                            x       y       z     vdW  Elec       q    Type
                         _______ _______ _______ _____ _____    ______ ____

>  <TORSDO>
F 13

$$$$
