=
 OpenBabel11072412523D

 41 45  0  0  1  0  0  0  0  0999 V2000
  160.3080  210.7750  151.9920 C   0  0  0  0  0  3  0  0  0  0  0  0
  160.0300  210.3370  155.6270 N   0  0  0  0  0  0  0  0  0  0  0  0
  159.8730  212.9140  153.0280 C   0  0  0  0  0  3  0  0  0  0  0  0
  159.6170  213.1120  155.4400 N   0  0  0  0  0  1  0  0  0  0  0  0
  160.0930  212.1530  151.8730 C   0  0  0  0  0  0  0  0  0  0  0  0
  160.2130  209.0020  155.7810 C   0  0  0  0  0  3  0  0  0  0  0  0
  160.5240  208.7570  153.3890 C   0  0  0  0  0  0  0  0  0  0  0  0
  160.4590  208.1960  154.6710 C   0  0  0  0  0  3  0  0  0  0  0  0
  159.8590  212.3130  154.2860 C   0  0  0  0  0  0  0  0  0  0  0  0
  160.3130  210.1500  153.2470 C   0  0  0  0  0  0  0  0  0  0  0  0
  160.0710  210.9310  154.4040 C   0  0  0  0  0  0  0  0  0  0  0  0
  161.6170  207.2210  150.1440 C   0  0  2  0  0  3  0  0  0  0  0  0
  161.0000  208.3720  150.9120 C   0  0  0  0  0  2  0  0  0  0  0  0
  161.1540  206.5020  152.4260 C   0  0  0  0  0  2  0  0  0  0  0  0
  160.7960  207.8960  152.2660 N   0  0  0  0  0  0  0  0  0  0  0  0
  161.5210  205.9970  151.0450 C   0  0  1  0  0  3  0  0  0  0  0  0
  163.0770  207.5260  149.8800 C   0  0  0  0  0  1  0  0  0  0  0  0
  160.5130  205.1510  150.5710 O   0  0  0  0  0  0  0  0  0  0  0  0
  161.1100  203.9450  150.3920 N   0  0  0  0  0  0  0  0  0  0  0  0
  161.5380  203.7550  147.9330 C   0  0  0  0  0  0  0  0  0  0  0  0
  160.2240  201.2690  147.9450 C   0  0  0  0  0  3  0  0  0  0  0  0
  160.9690  203.2580  149.1360 C   0  0  0  0  0  0  0  0  0  0  0  0
  160.2950  202.0280  149.1170 C   0  0  0  0  0  3  0  0  0  0  0  0
  160.8330  201.7320  146.7790 C   0  0  0  0  0  3  0  0  0  0  0  0
  161.4860  202.9690  146.7760 C   0  0  0  0  0  3  0  0  0  0  0  0
  162.1330  205.0190  147.8310 O   0  0  0  0  0  0  0  0  0  0  0  0
  162.0850  205.7990  146.6460 C   0  0  0  0  0  2  0  0  0  0  0  0
  160.7320  206.4690  146.5250 C   0  0  0  0  0  2  0  0  0  0  0  0
  160.1290  206.1390  145.2460 N   0  0  0  0  0  1  0  0  0  0  0  0
  160.7470  203.2840  152.6050 O   0  0  0  0  0  1  0  0  0  0  0  0
  161.6650  203.2610  151.5560 C   0  0  0  0  0  2  0  0  0  0  0  0
  159.1170  213.5160  150.1900 O   0  0  0  0  0  0  0  0  0  0  0  0
  160.0920  212.7930  150.5400 C   0  0  0  0  0  0  0  0  0  0  0  0
  159.7230  212.2120  146.6610 C   0  0  0  0  0  1  0  0  0  0  0  0
  161.2770  212.6410  149.6250 C   0  0  1  0  0  3  0  0  0  0  0  0
  161.0360  212.3750  147.2620 N   0  0  0  0  0  0  0  0  0  0  0  0
  162.0730  210.6480  148.5140 N   0  0  0  0  0  1  0  0  0  0  0  0
  161.0180  211.6450  148.5190 C   0  0  1  0  0  3  0  0  0  0  0  0
  162.1900  214.4470  146.7080 C   0  0  0  0  0  1  0  0  0  0  0  0
  161.5890  213.9120  148.9990 N   0  0  0  0  0  2  0  0  0  0  0  0
  161.1670  213.7850  147.6110 C   0  0  2  0  0  3  0  0  0  0  0  0
  1 10  1  0  0  0  0
  2  6  1  0  0  0  0
  3  9  2  0  0  0  0
  5  1  2  0  0  0  0
  5  3  1  0  0  0  0
  7  8  1  0  0  0  0
  8  6  2  0  0  0  0
  9 11  1  0  0  0  0
  9  4  1  0  0  0  0
 10  7  2  0  0  0  0
 10 11  1  0  0  0  0
 11  2  2  0  0  0  0
 12 17  1  1  0  0  0
 12 13  1  0  0  0  0
 12 16  1  0  0  0  0
 13 15  1  0  0  0  0
 15 14  1  0  0  0  0
 15  7  1  0  0  0  0
 16 18  1  6  0  0  0
 16 14  1  0  0  0  0
 19 18  1  0  0  0  0
 19 31  1  0  0  0  0
 20 22  1  0  0  0  0
 21 23  1  0  0  0  0
 22 19  1  0  0  0  0
 23 22  2  0  0  0  0
 24 21  2  0  0  0  0
 25 24  1  0  0  0  0
 25 20  2  0  0  0  0
 26 20  1  0  0  0  0
 27 26  1  0  0  0  0
 28 27  1  0  0  0  0
 29 28  1  0  0  0  0
 31 30  1  0  0  0  0
 32 33  2  0  0  0  0
 33  5  1  0  0  0  0
 34 36  1  0  0  0  0
 35 33  1  1  0  0  0
 36 41  1  0  0  0  0
 36 38  1  0  0  0  0
 38 37  1  6  0  0  0
 38 35  1  0  0  0  0
 40 35  1  0  0  0  0
 41 39  1  6  0  0  0
 41 40  1  0  0  0  0
M  END
>  <MODEL>
1

>  <REMARK>
 VINA RESULT:      -7.5      0.000      0.000
  Name = 
  10 active torsions:
  status: ('A' for Active; 'I' for Inactive)
    1  A    between atoms: C_2  and  C_39
    2  A    between atoms: C_3  and  O_20
    3  A    between atoms: C_11  and  C_32
    4  A    between atoms: C_12  and  C_32
    5  A    between atoms: C_16  and  N_22
    6  A    between atoms: O_20  and  C_39
    7  A    between atoms: C_21  and  N_26
    8  A    between atoms: N_22  and  O_28
    9  A    between atoms: N_22  and  C_29
   10  A    between atoms: O_28  and  C_36
                            x       y       z     vdW  Elec       q    Type
                         _______ _______ _______ _____ _____    ______ ____

>  <TORSDO>
F 10

$$$$
=
 OpenBabel11072412523D

 41 45  0  0  1  0  0  0  0  0999 V2000
  160.4150  210.7060  151.8210 C   0  0  0  0  0  3  0  0  0  0  0  0
  161.6810  212.2800  148.7550 N   0  0  0  0  0  0  0  0  0  0  0  0
  159.6940  213.0110  151.7450 C   0  0  0  0  0  3  0  0  0  0  0  0
  160.2970  214.4530  149.8810 N   0  0  0  0  0  1  0  0  0  0  0  0
  159.7290  211.7760  152.4060 C   0  0  0  0  0  0  0  0  0  0  0  0
  162.3730  211.2720  148.1670 C   0  0  0  0  0  3  0  0  0  0  0  0
  161.7600  209.7790  149.9760 C   0  0  0  0  0  0  0  0  0  0  0  0
  162.4250  210.0150  148.7660 C   0  0  0  0  0  3  0  0  0  0  0  0
  160.3380  213.1810  150.5200 C   0  0  0  0  0  0  0  0  0  0  0  0
  161.0580  210.8480  150.5830 C   0  0  0  0  0  0  0  0  0  0  0  0
  161.0280  212.1080  149.9360 C   0  0  0  0  0  0  0  0  0  0  0  0
  162.0520  206.7910  152.2280 C   0  0  2  0  0  3  0  0  0  0  0  0
  162.5470  208.1500  151.7750 C   0  0  0  0  0  2  0  0  0  0  0  0
  160.9540  207.3840  150.1350 C   0  0  0  0  0  2  0  0  0  0  0  0
  161.8230  208.4630  150.5590 N   0  0  0  0  0  0  0  0  0  0  0  0
  161.2090  206.2350  151.0890 C   0  0  1  0  0  3  0  0  0  0  0  0
  161.1760  206.9650  153.4520 C   0  0  0  0  0  1  0  0  0  0  0  0
  161.9240  205.2280  150.4320 O   0  0  0  0  0  0  0  0  0  0  0  0
  161.1240  204.1330  150.4720 N   0  0  0  0  0  0  0  0  0  0  0  0
  161.2230  203.6640  148.0150 C   0  0  0  0  0  0  0  0  0  0  0  0
  161.1120  200.9120  148.5850 C   0  0  0  0  0  3  0  0  0  0  0  0
  161.1050  203.2200  149.3600 C   0  0  0  0  0  0  0  0  0  0  0  0
  161.0250  201.8450  149.6230 C   0  0  0  0  0  3  0  0  0  0  0  0
  161.2850  201.3480  147.2710 C   0  0  0  0  0  3  0  0  0  0  0  0
  161.3420  202.7160  146.9910 C   0  0  0  0  0  3  0  0  0  0  0  0
  161.2020  205.0160  147.6480 O   0  0  0  0  0  0  0  0  0  0  0  0
  161.8220  205.5020  146.4680 C   0  0  0  0  0  2  0  0  0  0  0  0
  160.7660  205.9580  145.4820 C   0  0  0  0  0  2  0  0  0  0  0  0
  160.7400  205.0650  144.3360 N   0  0  0  0  0  1  0  0  0  0  0  0
  160.5980  203.2550  152.5750 O   0  0  0  0  0  1  0  0  0  0  0  0
  160.1200  204.0410  151.5270 C   0  0  0  0  0  2  0  0  0  0  0  0
  157.8510  211.2290  153.7540 O   0  0  0  0  0  0  0  0  0  0  0  0
  159.0570  211.6040  153.7120 C   0  0  0  0  0  0  0  0  0  0  0  0
  159.6570  208.7070  156.3140 C   0  0  0  0  0  1  0  0  0  0  0  0
  159.8220  211.8070  154.9910 C   0  0  1  0  0  3  0  0  0  0  0  0
  160.2490  210.0180  156.5180 N   0  0  0  0  0  0  0  0  0  0  0  0
  158.9750  211.8780  157.2540 N   0  0  0  0  0  1  0  0  0  0  0  0
  159.2480  210.9980  156.1320 C   0  0  1  0  0  3  0  0  0  0  0  0
  162.6710  210.1220  156.2740 C   0  0  0  0  0  1  0  0  0  0  0  0
  161.2020  211.3940  154.8190 N   0  0  0  0  0  2  0  0  0  0  0  0
  161.3370  210.1440  155.5540 C   0  0  2  0  0  3  0  0  0  0  0  0
  1  5  1  0  0  0  0
  2 11  1  0  0  0  0
  3  5  2  0  0  0  0
  4  9  1  0  0  0  0
  5 33  1  0  0  0  0
  6  2  2  0  0  0  0
  6  8  1  0  0  0  0
  7 15  1  0  0  0  0
  7 10  1  0  0  0  0
  8  7  2  0  0  0  0
  9  3  1  0  0  0  0
 10  1  2  0  0  0  0
 11  9  2  0  0  0  0
 11 10  1  0  0  0  0
 12 17  1  1  0  0  0
 13 12  1  0  0  0  0
 14 15  1  0  0  0  0
 14 16  1  0  0  0  0
 15 13  1  0  0  0  0
 16 18  1  6  0  0  0
 16 12  1  0  0  0  0
 18 19  1  0  0  0  0
 19 31  1  0  0  0  0
 20 22  1  0  0  0  0
 21 23  1  0  0  0  0
 22 23  2  0  0  0  0
 22 19  1  0  0  0  0
 24 21  2  0  0  0  0
 25 24  1  0  0  0  0
 25 20  2  0  0  0  0
 26 20  1  0  0  0  0
 27 26  1  0  0  0  0
 28 27  1  0  0  0  0
 29 28  1  0  0  0  0
 31 30  1  0  0  0  0
 33 32  2  0  0  0  0
 34 36  1  0  0  0  0
 35 33  1  6  0  0  0
 35 38  1  0  0  0  0
 38 36  1  0  0  0  0
 38 37  1  1  0  0  0
 40 35  1  0  0  0  0
 40 41  1  0  0  0  0
 41 39  1  1  0  0  0
 41 36  1  0  0  0  0
M  END
>  <MODEL>
2

>  <REMARK>
 VINA RESULT:      -7.2      1.610      4.799
  Name = 
  10 active torsions:
  status: ('A' for Active; 'I' for Inactive)
    1  A    between atoms: C_2  and  C_39
    2  A    between atoms: C_3  and  O_20
    3  A    between atoms: C_11  and  C_32
    4  A    between atoms: C_12  and  C_32
    5  A    between atoms: C_16  and  N_22
    6  A    between atoms: O_20  and  C_39
    7  A    between atoms: C_21  and  N_26
    8  A    between atoms: N_22  and  O_28
    9  A    between atoms: N_22  and  C_29
   10  A    between atoms: O_28  and  C_36
                            x       y       z     vdW  Elec       q    Type
                         _______ _______ _______ _____ _____    ______ ____

>  <TORSDO>
F 10

$$$$
=
 OpenBabel11072412523D

 41 45  0  0  1  0  0  0  0  0999 V2000
  160.5140  210.7420  151.9480 C   0  0  0  0  0  3  0  0  0  0  0  0
  161.6880  212.1890  148.7850 N   0  0  0  0  0  0  0  0  0  0  0  0
  159.9080  213.0800  151.8610 C   0  0  0  0  0  3  0  0  0  0  0  0
  160.4800  214.4530  149.9350 N   0  0  0  0  0  1  0  0  0  0  0  0
  159.9170  211.8580  152.5460 C   0  0  0  0  0  0  0  0  0  0  0  0
  162.2940  211.1350  148.1820 C   0  0  0  0  0  3  0  0  0  0  0  0
  161.7070  209.7120  150.0550 C   0  0  0  0  0  0  0  0  0  0  0  0
  162.3150  209.8890  148.8050 C   0  0  0  0  0  3  0  0  0  0  0  0
  160.4920  213.1930  150.5990 C   0  0  0  0  0  0  0  0  0  0  0  0
  161.0940  210.8270  150.6750 C   0  0  0  0  0  0  0  0  0  0  0  0
  161.0930  212.0750  150.0020 C   0  0  0  0  0  0  0  0  0  0  0  0
  161.8420  206.7630  152.3720 C   0  0  2  0  0  3  0  0  0  0  0  0
  162.3580  208.1200  151.9390 C   0  0  0  0  0  2  0  0  0  0  0  0
  160.9140  207.3100  150.1850 C   0  0  0  0  0  2  0  0  0  0  0  0
  161.7340  208.4060  150.6620 N   0  0  0  0  0  0  0  0  0  0  0  0
  161.1010  206.1790  151.1770 C   0  0  1  0  0  3  0  0  0  0  0  0
  160.8660  206.9450  153.5160 C   0  0  0  0  0  1  0  0  0  0  0  0
  161.8780  205.1710  150.5970 O   0  0  0  0  0  0  0  0  0  0  0  0
  161.1180  204.0480  150.6630 N   0  0  0  0  0  0  0  0  0  0  0  0
  161.2020  203.6550  148.1920 C   0  0  0  0  0  0  0  0  0  0  0  0
  160.8210  200.9090  148.6640 C   0  0  0  0  0  3  0  0  0  0  0  0
  161.0250  203.1800  149.5190 C   0  0  0  0  0  0  0  0  0  0  0  0
  160.8110  201.8110  149.7330 C   0  0  0  0  0  3  0  0  0  0  0  0
  161.0510  201.3710  147.3680 C   0  0  0  0  0  3  0  0  0  0  0  0
  161.2410  202.7360  147.1360 C   0  0  0  0  0  3  0  0  0  0  0  0
  161.3150  205.0150  147.8720 O   0  0  0  0  0  0  0  0  0  0  0  0
  162.0340  205.4810  146.7410 C   0  0  0  0  0  2  0  0  0  0  0  0
  161.0660  205.9290  145.6640 C   0  0  0  0  0  2  0  0  0  0  0  0
  161.3930  205.2830  144.4060 N   0  0  0  0  0  1  0  0  0  0  0  0
  160.8260  203.1000  152.7800 O   0  0  0  0  0  1  0  0  0  0  0  0
  160.2170  203.8810  151.7990 C   0  0  0  0  0  2  0  0  0  0  0  0
  159.6990  210.8420  154.6820 O   0  0  0  0  0  0  0  0  0  0  0  0
  159.3100  211.7460  153.8900 C   0  0  0  0  0  0  0  0  0  0  0  0
  155.6020  210.7320  154.7510 C   0  0  0  0  0  1  0  0  0  0  0  0
  158.2800  212.7440  154.3420 C   0  0  1  0  0  3  0  0  0  0  0  0
  156.0580  212.0980  154.9420 N   0  0  0  0  0  0  0  0  0  0  0  0
  156.3710  213.5910  153.1260 N   0  0  0  0  0  1  0  0  0  0  0  0
  156.9030  212.4240  153.8060 C   0  0  1  0  0  3  0  0  0  0  0  0
  156.2590  212.8180  157.2610 C   0  0  0  0  0  1  0  0  0  0  0  0
  158.1900  212.7470  155.7910 N   0  0  0  0  0  2  0  0  0  0  0  0
  156.9300  212.0910  156.1120 C   0  0  2  0  0  3  0  0  0  0  0  0
  1  5  1  0  0  0  0
  2 11  1  0  0  0  0
  3  5  2  0  0  0  0
  4  9  1  0  0  0  0
  5 33  1  0  0  0  0
  6  2  2  0  0  0  0
  6  8  1  0  0  0  0
  7 15  1  0  0  0  0
  7 10  1  0  0  0  0
  8  7  2  0  0  0  0
  9  3  1  0  0  0  0
 10  1  2  0  0  0  0
 11  9  2  0  0  0  0
 11 10  1  0  0  0  0
 12 17  1  1  0  0  0
 13 12  1  0  0  0  0
 14 15  1  0  0  0  0
 14 16  1  0  0  0  0
 15 13  1  0  0  0  0
 16 18  1  6  0  0  0
 16 12  1  0  0  0  0
 18 19  1  0  0  0  0
 19 31  1  0  0  0  0
 20 22  1  0  0  0  0
 21 23  1  0  0  0  0
 22 23  2  0  0  0  0
 22 19  1  0  0  0  0
 24 21  2  0  0  0  0
 25 24  1  0  0  0  0
 25 20  2  0  0  0  0
 26 20  1  0  0  0  0
 27 26  1  0  0  0  0
 28 27  1  0  0  0  0
 29 28  1  0  0  0  0
 31 30  1  0  0  0  0
 33 32  2  0  0  0  0
 34 36  1  0  0  0  0
 35 33  1  1  0  0  0
 35 40  1  0  0  0  0
 36 41  1  0  0  0  0
 38 37  1  1  0  0  0
 38 35  1  0  0  0  0
 38 36  1  0  0  0  0
 40 41  1  0  0  0  0
 41 39  1  1  0  0  0
M  END
>  <MODEL>
3

>  <REMARK>
 VINA RESULT:      -7.1      2.024      4.816
  Name = 
  10 active torsions:
  status: ('A' for Active; 'I' for Inactive)
    1  A    between atoms: C_2  and  C_39
    2  A    between atoms: C_3  and  O_20
    3  A    between atoms: C_11  and  C_32
    4  A    between atoms: C_12  and  C_32
    5  A    between atoms: C_16  and  N_22
    6  A    between atoms: O_20  and  C_39
    7  A    between atoms: C_21  and  N_26
    8  A    between atoms: N_22  and  O_28
    9  A    between atoms: N_22  and  C_29
   10  A    between atoms: O_28  and  C_36
                            x       y       z     vdW  Elec       q    Type
                         _______ _______ _______ _____ _____    ______ ____

>  <TORSDO>
F 10

$$$$
=
 OpenBabel11072412523D

 41 45  0  0  1  0  0  0  0  0999 V2000
  161.3410  208.9000  151.4290 C   0  0  0  0  0  3  0  0  0  0  0  0
  160.3810  209.2690  154.9540 N   0  0  0  0  0  0  0  0  0  0  0  0
  161.1770  211.2480  151.9750 C   0  0  0  0  0  3  0  0  0  0  0  0
  160.5690  211.9760  154.2150 N   0  0  0  0  0  1  0  0  0  0  0  0
  161.4300  210.2410  151.0350 C   0  0  0  0  0  0  0  0  0  0  0  0
  160.2650  207.9820  155.3670 C   0  0  0  0  0  3  0  0  0  0  0  0
  160.9140  207.2040  153.1640 C   0  0  0  0  0  0  0  0  0  0  0  0
  160.5260  206.9370  154.4830 C   0  0  0  0  0  3  0  0  0  0  0  0
  160.8340  210.9280  153.2880 C   0  0  0  0  0  0  0  0  0  0  0  0
  161.0130  208.5530  152.7470 C   0  0  0  0  0  0  0  0  0  0  0  0
  160.7430  209.5850  153.6810 C   0  0  0  0  0  0  0  0  0  0  0  0
  161.7330  203.8880  151.6100 C   0  0  2  0  0  3  0  0  0  0  0  0
  162.0080  204.9580  152.6470 C   0  0  0  0  0  2  0  0  0  0  0  0
  160.4660  205.8910  151.0460 C   0  0  0  0  0  2  0  0  0  0  0  0
  161.1910  206.0980  152.2830 N   0  0  0  0  0  0  0  0  0  0  0  0
  160.9260  204.5530  150.5040 C   0  0  1  0  0  3  0  0  0  0  0  0
  160.8990  202.7900  152.2390 C   0  0  0  0  0  1  0  0  0  0  0  0
  161.7450  204.7540  149.3890 O   0  0  0  0  0  0  0  0  0  0  0  0
  161.2030  203.9970  148.4020 N   0  0  0  0  0  0  0  0  0  0  0  0
  161.0240  203.6750  145.9250 C   0  0  0  0  0  0  0  0  0  0  0  0
  160.8950  206.4670  145.6210 C   0  0  0  0  0  3  0  0  0  0  0  0
  161.1220  204.5190  147.0630 C   0  0  0  0  0  0  0  0  0  0  0  0
  161.0810  205.9100  146.8890 C   0  0  0  0  0  3  0  0  0  0  0  0
  160.7410  205.6350  144.5110 C   0  0  0  0  0  3  0  0  0  0  0  0
  160.8050  204.2460  144.6660 C   0  0  0  0  0  3  0  0  0  0  0  0
  161.1620  202.2820  145.9890 O   0  0  0  0  0  0  0  0  0  0  0  0
  160.2120  201.3890  145.4280 C   0  0  0  0  0  2  0  0  0  0  0  0
  160.7610  199.9760  145.4460 C   0  0  0  0  0  2  0  0  0  0  0  0
  161.5060  199.7510  146.6720 N   0  0  0  0  0  1  0  0  0  0  0  0
  161.3910  201.7320  148.9510 O   0  0  0  0  0  1  0  0  0  0  0  0
  160.4890  202.7790  148.7700 C   0  0  0  0  0  2  0  0  0  0  0  0
  161.9100  209.6670  148.7810 O   0  0  0  0  0  0  0  0  0  0  0  0
  161.7790  210.5840  149.6400 C   0  0  0  0  0  0  0  0  0  0  0  0
  160.1530  212.0030  146.3440 C   0  0  0  0  0  1  0  0  0  0  0  0
  161.9120  212.0230  149.2240 C   0  0  1  0  0  3  0  0  0  0  0  0
  160.8480  212.8870  147.2650 N   0  0  0  0  0  0  0  0  0  0  0  0
  163.2140  212.9500  147.4110 N   0  0  0  0  0  1  0  0  0  0  0  0
  162.0280  212.1740  147.7240 C   0  0  1  0  0  3  0  0  0  0  0  0
  159.4320  214.4530  148.4800 C   0  0  0  0  0  1  0  0  0  0  0  0
  160.7440  212.7750  149.6450 N   0  0  0  0  0  2  0  0  0  0  0  0
  159.9840  213.0420  148.4310 C   0  0  2  0  0  3  0  0  0  0  0  0
  1 10  1  0  0  0  0
  2  6  1  0  0  0  0
  3  9  2  0  0  0  0
  5  1  2  0  0  0  0
  5  3  1  0  0  0  0
  7  8  1  0  0  0  0
  8  6  2  0  0  0  0
  9 11  1  0  0  0  0
  9  4  1  0  0  0  0
 10  7  2  0  0  0  0
 10 11  1  0  0  0  0
 11  2  2  0  0  0  0
 12 17  1  1  0  0  0
 12 13  1  0  0  0  0
 14 15  1  0  0  0  0
 15 13  1  0  0  0  0
 15  7  1  0  0  0  0
 16 18  1  6  0  0  0
 16 14  1  0  0  0  0
 16 12  1  0  0  0  0
 19 31  1  0  0  0  0
 19 18  1  0  0  0  0
 20 26  1  0  0  0  0
 20 22  1  0  0  0  0
 21 23  1  0  0  0  0
 22 19  1  0  0  0  0
 23 22  2  0  0  0  0
 24 25  1  0  0  0  0
 24 21  2  0  0  0  0
 25 20  2  0  0  0  0
 27 28  1  0  0  0  0
 27 26  1  0  0  0  0
 28 29  1  0  0  0  0
 31 30  1  0  0  0  0
 32 33  2  0  0  0  0
 33  5  1  0  0  0  0
 34 36  1  0  0  0  0
 35 33  1  6  0  0  0
 35 40  1  0  0  0  0
 36 38  1  0  0  0  0
 36 41  1  0  0  0  0
 38 37  1  1  0  0  0
 38 35  1  0  0  0  0
 41 39  1  1  0  0  0
 41 40  1  0  0  0  0
M  END
>  <MODEL>
4

>  <REMARK>
 VINA RESULT:      -7.0      1.954      3.185
  Name = 
  10 active torsions:
  status: ('A' for Active; 'I' for Inactive)
    1  A    between atoms: C_2  and  C_39
    2  A    between atoms: C_3  and  O_20
    3  A    between atoms: C_11  and  C_32
    4  A    between atoms: C_12  and  C_32
    5  A    between atoms: C_16  and  N_22
    6  A    between atoms: O_20  and  C_39
    7  A    between atoms: C_21  and  N_26
    8  A    between atoms: N_22  and  O_28
    9  A    between atoms: N_22  and  C_29
   10  A    between atoms: O_28  and  C_36
                            x       y       z     vdW  Elec       q    Type
                         _______ _______ _______ _____ _____    ______ ____

>  <TORSDO>
F 10

$$$$
=
 OpenBabel11072412523D

 41 45  0  0  1  0  0  0  0  0999 V2000
  161.1590  208.4670  150.8560 C   0  0  0  0  0  3  0  0  0  0  0  0
  160.8290  208.1050  154.4950 N   0  0  0  0  0  0  0  0  0  0  0  0
  161.7010  206.1990  151.4910 C   0  0  0  0  0  3  0  0  0  0  0  0
  161.6140  205.4920  153.8170 N   0  0  0  0  0  1  0  0  0  0  0  0
  161.5620  207.1750  150.4960 C   0  0  0  0  0  0  0  0  0  0  0  0
  160.4560  209.3500  154.8850 C   0  0  0  0  0  3  0  0  0  0  0  0
  160.4800  210.0930  152.5770 C   0  0  0  0  0  0  0  0  0  0  0  0
  160.2800  210.3570  153.9390 C   0  0  0  0  0  3  0  0  0  0  0  0
  161.4490  206.5030  152.8280 C   0  0  0  0  0  0  0  0  0  0  0  0
  160.8850  208.7930  152.1920 C   0  0  0  0  0  0  0  0  0  0  0  0
  161.0480  207.7980  153.1880 C   0  0  0  0  0  0  0  0  0  0  0  0
  159.5260  213.2340  150.7570 C   0  0  2  0  0  3  0  0  0  0  0  0
  159.1660  212.0880  151.6810 C   0  0  0  0  0  2  0  0  0  0  0  0
  161.2930  211.5570  150.6780 C   0  0  0  0  0  2  0  0  0  0  0  0
  160.2740  211.1550  151.6250 N   0  0  0  0  0  0  0  0  0  0  0  0
  160.7610  212.7950  149.9830 C   0  0  1  0  0  3  0  0  0  0  0  0
  159.8710  214.4520  151.5890 C   0  0  0  0  0  1  0  0  0  0  0  0
  160.3970  212.4760  148.6710 O   0  0  0  0  0  0  0  0  0  0  0  0
  160.8620  213.4990  147.9100 N   0  0  0  0  0  0  0  0  0  0  0  0
  159.3410  214.0730  146.0060 C   0  0  0  0  0  0  0  0  0  0  0  0
  161.3280  213.1990  144.2180 C   0  0  0  0  0  3  0  0  0  0  0  0
  160.5590  213.5380  146.5040 C   0  0  0  0  0  0  0  0  0  0  0  0
  161.5280  213.0840  145.5970 C   0  0  0  0  0  3  0  0  0  0  0  0
  160.1550  213.7780  143.7320 C   0  0  0  0  0  3  0  0  0  0  0  0
  159.1690  214.2130  144.6240 C   0  0  0  0  0  3  0  0  0  0  0  0
  158.2750  214.4520  146.8330 O   0  0  0  0  0  0  0  0  0  0  0  0
  157.2330  213.5600  147.2010 C   0  0  0  0  0  2  0  0  0  0  0  0
  156.2720  214.2540  148.1450 C   0  0  0  0  0  2  0  0  0  0  0  0
  156.2630  213.5740  149.4280 N   0  0  0  0  0  1  0  0  0  0  0  0
  163.1440  213.9610  148.1310 O   0  0  0  0  0  1  0  0  0  0  0  0
  161.8640  214.3930  148.4800 C   0  0  0  0  0  2  0  0  0  0  0  0
  162.9040  207.2780  148.5380 O   0  0  0  0  0  0  0  0  0  0  0  0
  161.8450  206.8530  149.0810 C   0  0  0  0  0  0  0  0  0  0  0  0
  163.0320  204.6870  146.0110 C   0  0  0  0  0  1  0  0  0  0  0  0
  160.9120  205.9650  148.3040 C   0  0  1  0  0  3  0  0  0  0  0  0
  161.6660  204.5930  146.4980 N   0  0  0  0  0  0  0  0  0  0  0  0
  160.0540  206.2780  146.0660 N   0  0  0  0  0  1  0  0  0  0  0  0
  161.2420  205.9430  146.8290 C   0  0  1  0  0  3  0  0  0  0  0  0
  161.0870  202.4920  147.5870 C   0  0  0  0  0  1  0  0  0  0  0  0
  161.0020  204.6000  148.7890 N   0  0  0  0  0  2  0  0  0  0  0  0
  161.7180  203.8600  147.7590 C   0  0  2  0  0  3  0  0  0  0  0  0
  1 10  1  0  0  0  0
  2  6  1  0  0  0  0
  3  9  2  0  0  0  0
  5  1  2  0  0  0  0
  5  3  1  0  0  0  0
  7  8  1  0  0  0  0
  8  6  2  0  0  0  0
  9 11  1  0  0  0  0
  9  4  1  0  0  0  0
 10  7  2  0  0  0  0
 10 11  1  0  0  0  0
 11  2  2  0  0  0  0
 12 17  1  1  0  0  0
 12 13  1  0  0  0  0
 14 15  1  0  0  0  0
 15 13  1  0  0  0  0
 15  7  1  0  0  0  0
 16 18  1  6  0  0  0
 16 14  1  0  0  0  0
 16 12  1  0  0  0  0
 19 31  1  0  0  0  0
 19 18  1  0  0  0  0
 20 22  1  0  0  0  0
 20 26  1  0  0  0  0
 21 23  1  0  0  0  0
 22 19  1  0  0  0  0
 23 22  2  0  0  0  0
 24 21  2  0  0  0  0
 24 25  1  0  0  0  0
 25 20  2  0  0  0  0
 26 27  1  0  0  0  0
 27 28  1  0  0  0  0
 28 29  1  0  0  0  0
 30 31  1  0  0  0  0
 32 33  2  0  0  0  0
 33  5  1  0  0  0  0
 34 36  1  0  0  0  0
 35 40  1  0  0  0  0
 35 33  1  1  0  0  0
 36 38  1  0  0  0  0
 36 41  1  0  0  0  0
 38 37  1  6  0  0  0
 38 35  1  0  0  0  0
 41 39  1  6  0  0  0
 41 40  1  0  0  0  0
M  END
>  <MODEL>
5

>  <REMARK>
 VINA RESULT:      -7.0      2.200      8.111
  Name = 
  10 active torsions:
  status: ('A' for Active; 'I' for Inactive)
    1  A    between atoms: C_2  and  C_39
    2  A    between atoms: C_3  and  O_20
    3  A    between atoms: C_11  and  C_32
    4  A    between atoms: C_12  and  C_32
    5  A    between atoms: C_16  and  N_22
    6  A    between atoms: O_20  and  C_39
    7  A    between atoms: C_21  and  N_26
    8  A    between atoms: N_22  and  O_28
    9  A    between atoms: N_22  and  C_29
   10  A    between atoms: O_28  and  C_36
                            x       y       z     vdW  Elec       q    Type
                         _______ _______ _______ _____ _____    ______ ____

>  <TORSDO>
F 10

$$$$
=
 OpenBabel11072412523D

 41 45  0  0  1  0  0  0  0  0999 V2000
  160.8780  209.8850  152.0850 C   0  0  0  0  0  3  0  0  0  0  0  0
  159.7980  210.1020  155.5870 N   0  0  0  0  0  0  0  0  0  0  0  0
  160.4370  212.1930  152.6480 C   0  0  0  0  0  3  0  0  0  0  0  0
  159.6970  212.8220  154.8790 N   0  0  0  0  0  1  0  0  0  0  0  0
  160.8250  211.2320  151.7050 C   0  0  0  0  0  0  0  0  0  0  0  0
  159.8190  208.8050  155.9850 C   0  0  0  0  0  3  0  0  0  0  0  0
  160.6040  208.1310  153.7930 C   0  0  0  0  0  0  0  0  0  0  0  0
  160.2170  207.8060  155.0990 C   0  0  0  0  0  3  0  0  0  0  0  0
  160.1020  211.8210  153.9490 C   0  0  0  0  0  0  0  0  0  0  0  0
  160.5600  209.4880  153.3910 C   0  0  0  0  0  0  0  0  0  0  0  0
  160.1530  210.4710  154.3270 C   0  0  0  0  0  0  0  0  0  0  0  0
  161.7100  204.9090  152.2180 C   0  0  2  0  0  3  0  0  0  0  0  0
  161.8150  205.9340  153.3290 C   0  0  0  0  0  2  0  0  0  0  0  0
  160.4770  206.9120  151.5780 C   0  0  0  0  0  2  0  0  0  0  0  0
  161.0240  207.0740  152.9090 N   0  0  0  0  0  0  0  0  0  0  0  0
  161.0400  205.6100  151.0440 C   0  0  1  0  0  3  0  0  0  0  0  0
  160.8290  203.7670  152.6800 C   0  0  0  0  0  1  0  0  0  0  0  0
  161.9950  205.8800  150.0590 O   0  0  0  0  0  0  0  0  0  0  0  0
  161.3620  205.6720  148.8760 N   0  0  0  0  0  0  0  0  0  0  0  0
  161.9540  203.9150  147.1940 C   0  0  0  0  0  0  0  0  0  0  0  0
  160.4010  202.0730  148.6440 C   0  0  0  0  0  3  0  0  0  0  0  0
  161.2490  204.3370  148.3530 C   0  0  0  0  0  0  0  0  0  0  0  0
  160.4590  203.4100  149.0480 C   0  0  0  0  0  3  0  0  0  0  0  0
  161.1400  201.6480  147.5390 C   0  0  0  0  0  3  0  0  0  0  0  0
  161.9120  202.5660  146.8210 C   0  0  0  0  0  3  0  0  0  0  0  0
  162.6800  204.7910  146.3760 O   0  0  0  0  0  0  0  0  0  0  0  0
  162.3150  205.0690  145.0330 C   0  0  0  0  0  2  0  0  0  0  0  0
  160.8270  204.8510  144.8480 C   0  0  0  0  0  2  0  0  0  0  0  0
  160.1320  206.1260  144.8900 N   0  0  0  0  0  1  0  0  0  0  0  0
  162.1890  207.5730  147.7950 O   0  0  0  0  0  1  0  0  0  0  0  0
  161.0380  206.8270  148.0460 C   0  0  0  0  0  2  0  0  0  0  0  0
  161.6460  210.7750  149.5230 O   0  0  0  0  0  0  0  0  0  0  0  0
  161.1660  211.6290  150.3230 C   0  0  0  0  0  0  0  0  0  0  0  0
  160.2980  212.4530  146.5690 C   0  0  0  0  0  1  0  0  0  0  0  0
  160.8830  213.0260  149.8430 C   0  0  1  0  0  3  0  0  0  0  0  0
  160.2740  213.4970  147.5800 N   0  0  0  0  0  0  0  0  0  0  0  0
  162.2610  214.4490  148.4580 N   0  0  0  0  0  1  0  0  0  0  0  0
  161.4160  213.2690  148.4500 C   0  0  1  0  0  3  0  0  0  0  0  0
  158.0660  214.3590  148.1410 C   0  0  0  0  0  1  0  0  0  0  0  0
  159.4510  213.2600  149.8050 N   0  0  0  0  0  2  0  0  0  0  0  0
  159.0870  213.2670  148.3950 C   0  0  2  0  0  3  0  0  0  0  0  0
  1 10  1  0  0  0  0
  2  6  1  0  0  0  0
  3  9  2  0  0  0  0
  5  1  2  0  0  0  0
  5  3  1  0  0  0  0
  7  8  1  0  0  0  0
  8  6  2  0  0  0  0
  9 11  1  0  0  0  0
  9  4  1  0  0  0  0
 10  7  2  0  0  0  0
 10 11  1  0  0  0  0
 11  2  2  0  0  0  0
 12 17  1  1  0  0  0
 12 13  1  0  0  0  0
 14 15  1  0  0  0  0
 15 13  1  0  0  0  0
 15  7  1  0  0  0  0
 16 18  1  6  0  0  0
 16 14  1  0  0  0  0
 16 12  1  0  0  0  0
 19 18  1  0  0  0  0
 20 22  1  0  0  0  0
 21 23  1  0  0  0  0
 22 19  1  0  0  0  0
 22 23  2  0  0  0  0
 24 21  2  0  0  0  0
 25 20  2  0  0  0  0
 25 24  1  0  0  0  0
 26 20  1  0  0  0  0
 27 26  1  0  0  0  0
 28 29  1  0  0  0  0
 28 27  1  0  0  0  0
 30 31  1  0  0  0  0
 31 19  1  0  0  0  0
 32 33  2  0  0  0  0
 33  5  1  0  0  0  0
 34 36  1  0  0  0  0
 35 33  1  6  0  0  0
 36 41  1  0  0  0  0
 36 38  1  0  0  0  0
 38 37  1  1  0  0  0
 38 35  1  0  0  0  0
 40 35  1  0  0  0  0
 41 39  1  1  0  0  0
 41 40  1  0  0  0  0
M  END
>  <MODEL>
6

>  <REMARK>
 VINA RESULT:      -6.7      1.558      2.319
  Name = 
  10 active torsions:
  status: ('A' for Active; 'I' for Inactive)
    1  A    between atoms: C_2  and  C_39
    2  A    between atoms: C_3  and  O_20
    3  A    between atoms: C_11  and  C_32
    4  A    between atoms: C_12  and  C_32
    5  A    between atoms: C_16  and  N_22
    6  A    between atoms: O_20  and  C_39
    7  A    between atoms: C_21  and  N_26
    8  A    between atoms: N_22  and  O_28
    9  A    between atoms: N_22  and  C_29
   10  A    between atoms: O_28  and  C_36
                            x       y       z     vdW  Elec       q    Type
                         _______ _______ _______ _____ _____    ______ ____

>  <TORSDO>
F 10

$$$$
=
 OpenBabel11072412523D

 41 45  0  0  1  0  0  0  0  0999 V2000
  160.2720  210.3300  153.0300 C   0  0  0  0  0  3  0  0  0  0  0  0
  160.9080  208.4010  156.0880 N   0  0  0  0  0  0  0  0  0  0  0  0
  159.9780  211.7590  154.9570 C   0  0  0  0  0  3  0  0  0  0  0  0
  160.3030  210.9060  157.2120 N   0  0  0  0  0  1  0  0  0  0  0  0
  159.9560  211.5840  153.5670 C   0  0  0  0  0  0  0  0  0  0  0  0
  161.2000  207.1670  155.6060 C   0  0  0  0  0  3  0  0  0  0  0  0
  160.9360  207.9780  153.3370 C   0  0  0  0  0  0  0  0  0  0  0  0
  161.2160  206.9370  154.2320 C   0  0  0  0  0  3  0  0  0  0  0  0
  160.3040  210.6990  155.8030 C   0  0  0  0  0  0  0  0  0  0  0  0
  160.6170  209.2540  153.8590 C   0  0  0  0  0  0  0  0  0  0  0  0
  160.6180  209.4430  155.2640 C   0  0  0  0  0  0  0  0  0  0  0  0
  161.3160  208.0940  149.6050 C   0  0  2  0  0  3  0  0  0  0  0  0
  160.8480  208.7270  150.8990 C   0  0  0  0  0  2  0  0  0  0  0  0
  161.4130  206.4340  151.3870 C   0  0  0  0  0  2  0  0  0  0  0  0
  160.9760  207.7080  151.9220 N   0  0  0  0  0  0  0  0  0  0  0  0
  161.4740  206.6050  149.8830 C   0  0  1  0  0  3  0  0  0  0  0  0
  162.6650  208.6720  149.2290 C   0  0  0  0  0  1  0  0  0  0  0  0
  160.4170  205.9080  149.2880 O   0  0  0  0  0  0  0  0  0  0  0  0
  160.9980  204.8990  148.5900 N   0  0  0  0  0  0  0  0  0  0  0  0
  160.9750  202.4230  148.2190 C   0  0  0  0  0  0  0  0  0  0  0  0
  160.8550  202.0560  151.0040 C   0  0  0  0  0  3  0  0  0  0  0  0
  160.9150  203.5500  149.0820 C   0  0  0  0  0  0  0  0  0  0  0  0
  160.8300  203.3470  150.4680 C   0  0  0  0  0  3  0  0  0  0  0  0
  160.9720  200.9530  150.1580 C   0  0  0  0  0  3  0  0  0  0  0  0
  161.0320  201.1390  148.7730 C   0  0  0  0  0  3  0  0  0  0  0  0
  160.9540  202.5260  146.8220 O   0  0  0  0  0  0  0  0  0  0  0  0
  160.8310  201.3970  145.9700 C   0  0  0  0  0  2  0  0  0  0  0  0
  159.8320  201.6890  144.8690 C   0  0  0  0  0  2  0  0  0  0  0  0
  159.8870  203.0960  144.5130 N   0  0  0  0  0  1  0  0  0  0  0  0
  161.1860  205.7760  146.4310 O   0  0  0  0  0  1  0  0  0  0  0  0
  161.9050  205.2390  147.4980 C   0  0  0  0  0  2  0  0  0  0  0  0
  160.0990  212.7750  151.5170 O   0  0  0  0  0  0  0  0  0  0  0  0
  159.5950  212.7060  152.6740 C   0  0  0  0  0  0  0  0  0  0  0  0
  156.3190  211.7430  154.6380 C   0  0  0  0  0  1  0  0  0  0  0  0
  158.5810  213.7270  153.1100 C   0  0  1  0  0  3  0  0  0  0  0  0
  156.6410  213.1360  154.3750 N   0  0  0  0  0  0  0  0  0  0  0  0
  156.3620  214.1130  152.2320 N   0  0  0  0  0  1  0  0  0  0  0  0
  157.1670  213.1990  153.0220 C   0  0  1  0  0  3  0  0  0  0  0  0
  157.2660  214.4500  156.3280 C   0  0  0  0  0  1  0  0  0  0  0  0
  158.8160  214.1050  154.4910 N   0  0  0  0  0  2  0  0  0  0  0  0
  157.7460  213.4860  155.2610 C   0  0  2  0  0  3  0  0  0  0  0  0
  1  5  2  0  0  0  0
  1 10  1  0  0  0  0
  3  9  2  0  0  0  0
  5  3  1  0  0  0  0
  6  2  1  0  0  0  0
  7 10  2  0  0  0  0
  7  8  1  0  0  0  0
  8  6  2  0  0  0  0
  9  4  1  0  0  0  0
 10 11  1  0  0  0  0
 11  9  1  0  0  0  0
 11  2  2  0  0  0  0
 12 17  1  1  0  0  0
 12 16  1  0  0  0  0
 12 13  1  0  0  0  0
 13 15  1  0  0  0  0
 14 15  1  0  0  0  0
 15  7  1  0  0  0  0
 16 18  1  6  0  0  0
 16 14  1  0  0  0  0
 19 22  1  0  0  0  0
 19 18  1  0  0  0  0
 20 25  2  0  0  0  0
 20 22  1  0  0  0  0
 22 23  2  0  0  0  0
 23 21  1  0  0  0  0
 24 21  2  0  0  0  0
 25 24  1  0  0  0  0
 26 20  1  0  0  0  0
 27 26  1  0  0  0  0
 28 27  1  0  0  0  0
 29 28  1  0  0  0  0
 30 31  1  0  0  0  0
 31 19  1  0  0  0  0
 32 33  2  0  0  0  0
 33  5  1  0  0  0  0
 35 33  1  1  0  0  0
 35 40  1  0  0  0  0
 36 34  1  0  0  0  0
 36 41  1  0  0  0  0
 38 37  1  6  0  0  0
 38 35  1  0  0  0  0
 38 36  1  0  0  0  0
 40 41  1  0  0  0  0
 41 39  1  1  0  0  0
M  END
>  <MODEL>
7

>  <REMARK>
 VINA RESULT:      -6.5      2.712      4.177
  Name = 
  10 active torsions:
  status: ('A' for Active; 'I' for Inactive)
    1  A    between atoms: C_2  and  C_39
    2  A    between atoms: C_3  and  O_20
    3  A    between atoms: C_11  and  C_32
    4  A    between atoms: C_12  and  C_32
    5  A    between atoms: C_16  and  N_22
    6  A    between atoms: O_20  and  C_39
    7  A    between atoms: C_21  and  N_26
    8  A    between atoms: N_22  and  O_28
    9  A    between atoms: N_22  and  C_29
   10  A    between atoms: O_28  and  C_36
                            x       y       z     vdW  Elec       q    Type
                         _______ _______ _______ _____ _____    ______ ____

>  <TORSDO>
F 10

$$$$
=
 OpenBabel11072412523D

 41 45  0  0  1  0  0  0  0  0999 V2000
  161.1710  209.4190  151.7740 C   0  0  0  0  0  3  0  0  0  0  0  0
  160.1050  209.4750  155.2880 N   0  0  0  0  0  0  0  0  0  0  0  0
  160.7990  211.7040  152.4640 C   0  0  0  0  0  3  0  0  0  0  0  0
  160.0820  212.2310  154.7290 N   0  0  0  0  0  1  0  0  0  0  0  0
  161.1560  210.7850  151.4690 C   0  0  0  0  0  0  0  0  0  0  0  0
  160.0890  208.1580  155.6150 C   0  0  0  0  0  3  0  0  0  0  0  0
  160.8490  207.5830  153.3850 C   0  0  0  0  0  0  0  0  0  0  0  0
  160.4550  207.1980  154.6740 C   0  0  0  0  0  3  0  0  0  0  0  0
  160.4550  211.2710  153.7440 C   0  0  0  0  0  0  0  0  0  0  0  0
  160.8440  208.9600  153.0580 C   0  0  0  0  0  0  0  0  0  0  0  0
  160.4680  209.9020  154.0480 C   0  0  0  0  0  0  0  0  0  0  0  0
  161.8070  204.4100  151.6230 C   0  0  2  0  0  3  0  0  0  0  0  0
  161.9320  205.3460  152.8090 C   0  0  0  0  0  2  0  0  0  0  0  0
  160.7360  206.5320  151.0840 C   0  0  0  0  0  2  0  0  0  0  0  0
  161.2360  206.5640  152.4430 N   0  0  0  0  0  0  0  0  0  0  0  0
  161.2350  205.2350  150.4790 C   0  0  1  0  0  3  0  0  0  0  0  0
  160.8340  203.3010  151.9670 C   0  0  0  0  0  1  0  0  0  0  0  0
  162.2470  205.5080  149.5530 O   0  0  0  0  0  0  0  0  0  0  0  0
  161.6080  205.9630  148.4450 N   0  0  0  0  0  0  0  0  0  0  0  0
  161.3850  203.7370  147.3190 C   0  0  0  0  0  0  0  0  0  0  0  0
  161.4920  205.0400  144.8300 C   0  0  0  0  0  3  0  0  0  0  0  0
  161.5630  205.1460  147.2610 C   0  0  0  0  0  0  0  0  0  0  0  0
  161.6390  205.7750  146.0100 C   0  0  0  0  0  3  0  0  0  0  0  0
  161.2610  203.6660  144.8900 C   0  0  0  0  0  3  0  0  0  0  0  0
  161.2070  203.0210  146.1300 C   0  0  0  0  0  3  0  0  0  0  0  0
  161.4050  203.0100  148.5170 O   0  0  0  0  0  0  0  0  0  0  0  0
  161.4340  201.5920  148.5550 C   0  0  0  0  0  2  0  0  0  0  0  0
  160.4240  201.0830  149.5620 C   0  0  0  0  0  2  0  0  0  0  0  0
  159.0770  201.3290  149.0790 N   0  0  0  0  0  1  0  0  0  0  0  0
  162.3310  208.1830  148.3210 O   0  0  0  0  0  1  0  0  0  0  0  0
  161.2050  207.3640  148.3980 C   0  0  0  0  0  2  0  0  0  0  0  0
  161.9560  210.4240  149.2620 O   0  0  0  0  0  0  0  0  0  0  0  0
  161.5050  211.2470  150.1090 C   0  0  0  0  0  0  0  0  0  0  0  0
  160.3660  212.2750  146.4810 C   0  0  0  0  0  1  0  0  0  0  0  0
  161.2640  212.6760  149.7080 C   0  0  1  0  0  3  0  0  0  0  0  0
  160.4910  213.2750  147.5270 N   0  0  0  0  0  0  0  0  0  0  0  0
  162.5990  214.0770  148.2600 N   0  0  0  0  0  1  0  0  0  0  0  0
  161.6880  212.9470  148.2830 C   0  0  1  0  0  3  0  0  0  0  0  0
  158.3940  214.2340  148.3140 C   0  0  0  0  0  1  0  0  0  0  0  0
  159.8510  212.9910  149.8070 N   0  0  0  0  0  2  0  0  0  0  0  0
  159.3670  213.0770  148.4360 C   0  0  2  0  0  3  0  0  0  0  0  0
  1 10  1  0  0  0  0
  2  6  1  0  0  0  0
  3  9  2  0  0  0  0
  5  1  2  0  0  0  0
  5  3  1  0  0  0  0
  7  8  1  0  0  0  0
  8  6  2  0  0  0  0
  9 11  1  0  0  0  0
  9  4  1  0  0  0  0
 10  7  2  0  0  0  0
 10 11  1  0  0  0  0
 11  2  2  0  0  0  0
 12 17  1  1  0  0  0
 12 13  1  0  0  0  0
 14 15  1  0  0  0  0
 15 13  1  0  0  0  0
 15  7  1  0  0  0  0
 16 18  1  6  0  0  0
 16 14  1  0  0  0  0
 16 12  1  0  0  0  0
 19 18  1  0  0  0  0
 20 26  1  0  0  0  0
 21 24  2  0  0  0  0
 21 23  1  0  0  0  0
 22 20  1  0  0  0  0
 22 19  1  0  0  0  0
 23 22  2  0  0  0  0
 24 25  1  0  0  0  0
 25 20  2  0  0  0  0
 26 27  1  0  0  0  0
 27 28  1  0  0  0  0
 29 28  1  0  0  0  0
 30 31  1  0  0  0  0
 31 19  1  0  0  0  0
 32 33  2  0  0  0  0
 33  5  1  0  0  0  0
 34 36  1  0  0  0  0
 35 40  1  0  0  0  0
 35 33  1  6  0  0  0
 36 38  1  0  0  0  0
 36 41  1  0  0  0  0
 38 37  1  1  0  0  0
 38 35  1  0  0  0  0
 41 39  1  1  0  0  0
 41 40  1  0  0  0  0
M  END
>  <MODEL>
8

>  <REMARK>
 VINA RESULT:      -6.4      1.757      3.103
  Name = 
  10 active torsions:
  status: ('A' for Active; 'I' for Inactive)
    1  A    between atoms: C_2  and  C_39
    2  A    between atoms: C_3  and  O_20
    3  A    between atoms: C_11  and  C_32
    4  A    between atoms: C_12  and  C_32
    5  A    between atoms: C_16  and  N_22
    6  A    between atoms: O_20  and  C_39
    7  A    between atoms: C_21  and  N_26
    8  A    between atoms: N_22  and  O_28
    9  A    between atoms: N_22  and  C_29
   10  A    between atoms: O_28  and  C_36
                            x       y       z     vdW  Elec       q    Type
                         _______ _______ _______ _____ _____    ______ ____

>  <TORSDO>
F 10

$$$$
=
 OpenBabel11072412523D

 41 45  0  0  1  0  0  0  0  0999 V2000
  160.7530  208.7140  152.5000 C   0  0  0  0  0  3  0  0  0  0  0  0
  160.0950  209.2700  156.0690 N   0  0  0  0  0  0  0  0  0  0  0  0
  161.2400  206.6930  153.7310 C   0  0  0  0  0  3  0  0  0  0  0  0
  160.9440  206.5910  156.1430 N   0  0  0  0  0  1  0  0  0  0  0  0
  161.1900  207.3850  152.5130 C   0  0  0  0  0  0  0  0  0  0  0  0
  159.6850  210.5630  156.0980 C   0  0  0  0  0  3  0  0  0  0  0  0
  159.9170  210.7040  153.6880 C   0  0  0  0  0  0  0  0  0  0  0  0
  159.5930  211.2960  154.9160 C   0  0  0  0  0  3  0  0  0  0  0  0
  160.8670  207.3170  154.9200 C   0  0  0  0  0  0  0  0  0  0  0  0
  160.3580  209.3590  153.6800 C   0  0  0  0  0  0  0  0  0  0  0  0
  160.4320  208.6500  154.9060 C   0  0  0  0  0  0  0  0  0  0  0  0
  158.9070  213.0710  150.9570 C   0  0  2  0  0  3  0  0  0  0  0  0
  158.5430  212.0310  151.9970 C   0  0  0  0  0  2  0  0  0  0  0  0
  160.9460  212.0280  151.7910 C   0  0  0  0  0  2  0  0  0  0  0  0
  159.7950  211.4870  152.4850 N   0  0  0  0  0  0  0  0  0  0  0  0
  160.3980  212.9160  150.6930 C   0  0  1  0  0  3  0  0  0  0  0  0
  158.6470  214.4510  151.5250 C   0  0  0  0  0  1  0  0  0  0  0  0
  160.5880  212.2990  149.4520 O   0  0  0  0  0  0  0  0  0  0  0  0
  160.4660  213.2910  148.5330 N   0  0  0  0  0  0  0  0  0  0  0  0
  160.0330  212.9150  146.0960 C   0  0  0  0  0  0  0  0  0  0  0  0
  157.2750  212.8620  146.6450 C   0  0  0  0  0  3  0  0  0  0  0  0
  159.5670  213.1280  147.4210 C   0  0  0  0  0  0  0  0  0  0  0  0
  158.1870  213.1240  147.6710 C   0  0  0  0  0  3  0  0  0  0  0  0
  157.7370  212.5960  145.3550 C   0  0  0  0  0  3  0  0  0  0  0  0
  159.1090  212.6220  145.0860 C   0  0  0  0  0  3  0  0  0  0  0  0
  161.3830  213.0080  145.7330 O   0  0  0  0  0  0  0  0  0  0  0  0
  161.8630  213.9620  144.7990 C   0  0  0  0  0  2  0  0  0  0  0  0
  162.7920  213.2910  143.8080 C   0  0  0  0  0  2  0  0  0  0  0  0
  162.0620  212.2920  143.0460 N   0  0  0  0  0  1  0  0  0  0  0  0
  162.7140  213.8950  148.3140 O   0  0  0  0  0  1  0  0  0  0  0  0
  161.4310  214.3850  148.5560 C   0  0  0  0  0  2  0  0  0  0  0  0
  162.8160  206.7290  150.9110 O   0  0  0  0  0  0  0  0  0  0  0  0
  161.6000  206.7240  151.2560 C   0  0  0  0  0  0  0  0  0  0  0  0
  162.5700  204.7710  147.9750 C   0  0  0  0  0  1  0  0  0  0  0  0
  160.5890  205.9890  150.4200 C   0  0  1  0  0  3  0  0  0  0  0  0
  161.2070  204.7380  148.4790 N   0  0  0  0  0  0  0  0  0  0  0  0
  159.7290  206.5770  148.2390 N   0  0  0  0  0  1  0  0  0  0  0  0
  160.8970  206.0800  148.9430 C   0  0  1  0  0  3  0  0  0  0  0  0
  160.4770  202.5960  149.3800 C   0  0  0  0  0  1  0  0  0  0  0  0
  160.5770  204.5820  150.7740 N   0  0  0  0  0  2  0  0  0  0  0  0
  161.2180  203.8880  149.6650 C   0  0  2  0  0  3  0  0  0  0  0  0
  1  5  2  0  0  0  0
  1 10  1  0  0  0  0
  2  6  1  0  0  0  0
  3  9  2  0  0  0  0
  5  3  1  0  0  0  0
  7  8  1  0  0  0  0
  8  6  2  0  0  0  0
  9  4  1  0  0  0  0
 10  7  2  0  0  0  0
 10 11  1  0  0  0  0
 11  9  1  0  0  0  0
 11  2  2  0  0  0  0
 12 17  1  1  0  0  0
 12 13  1  0  0  0  0
 13 15  1  0  0  0  0
 14 15  1  0  0  0  0
 15  7  1  0  0  0  0
 16 18  1  6  0  0  0
 16 12  1  0  0  0  0
 16 14  1  0  0  0  0
 19 31  1  0  0  0  0
 19 18  1  0  0  0  0
 20 22  1  0  0  0  0
 21 23  1  0  0  0  0
 22 23  2  0  0  0  0
 22 19  1  0  0  0  0
 24 21  2  0  0  0  0
 25 24  1  0  0  0  0
 25 20  2  0  0  0  0
 26 20  1  0  0  0  0
 27 26  1  0  0  0  0
 28 27  1  0  0  0  0
 29 28  1  0  0  0  0
 30 31  1  0  0  0  0
 32 33  2  0  0  0  0
 33  5  1  0  0  0  0
 34 36  1  0  0  0  0
 35 40  1  0  0  0  0
 35 33  1  1  0  0  0
 36 38  1  0  0  0  0
 36 41  1  0  0  0  0
 38 37  1  6  0  0  0
 38 35  1  0  0  0  0
 41 39  1  6  0  0  0
 41 40  1  0  0  0  0
M  END
>  <MODEL>
9

>  <REMARK>
 VINA RESULT:      -6.2      2.109      7.673
  Name = 
  10 active torsions:
  status: ('A' for Active; 'I' for Inactive)
    1  A    between atoms: C_2  and  C_39
    2  A    between atoms: C_3  and  O_20
    3  A    between atoms: C_11  and  C_32
    4  A    between atoms: C_12  and  C_32
    5  A    between atoms: C_16  and  N_22
    6  A    between atoms: O_20  and  C_39
    7  A    between atoms: C_21  and  N_26
    8  A    between atoms: N_22  and  O_28
    9  A    between atoms: N_22  and  C_29
   10  A    between atoms: O_28  and  C_36
                            x       y       z     vdW  Elec       q    Type
                         _______ _______ _______ _____ _____    ______ ____

>  <TORSDO>
F 10

$$$$
