=
 OpenBabel11072410593D

 42 45  0  0  1  0  0  0  0  0999 V2000
  161.9550  209.5350  150.5370 C   0  0  0  0  0  0  0  0  0  0  0  0
  161.4420  207.2820  151.2770 C   0  0  0  0  0  3  0  0  0  0  0  0
  161.2430  207.7490  152.5760 C   0  0  0  0  0  3  0  0  0  0  0  0
  161.7910  208.1620  150.2400 C   0  0  0  0  0  0  0  0  0  0  0  0
  161.7630  209.9950  151.8450 C   0  0  0  0  0  3  0  0  0  0  0  0
  162.3090  210.4480  149.5530 O   0  0  0  0  0  1  0  0  0  0  0  0
  161.4020  209.1080  152.8690 C   0  0  0  0  0  0  0  0  0  0  0  0
  159.3910  210.6280  155.7890 C   0  0  0  0  0  0  0  0  0  0  0  0
  159.8170  210.0950  154.5320 N   0  0  0  0  0  2  0  0  0  0  0  0
  161.1260  209.5990  154.2280 C   0  0  0  0  0  0  0  0  0  0  0  0
  160.1140  210.4940  156.8150 O   0  0  0  0  0  0  0  0  0  0  0  0
  162.0430  209.6230  155.0970 O   0  0  0  0  0  0  0  0  0  0  0  0
  156.0700  211.4820  156.9130 C   0  0  0  0  0  2  0  0  0  0  0  0
  157.4490  211.5750  154.4460 C   0  0  1  0  0  3  0  0  0  0  0  0
  159.4830  213.4110  155.6650 C   0  0  0  0  0  2  0  0  0  0  0  0
  155.2290  211.3540  155.6530 C   0  0  2  0  0  3  0  0  0  0  0  0
  154.9720  209.9550  155.3540 N   0  0  0  0  0  1  0  0  0  0  0  0
  158.1460  211.4990  155.8470 C   0  0  1  0  0  0  0  0  0  0  0  0
  157.2990  210.8130  156.7570 O   0  0  0  0  0  0  0  0  0  0  0  0
  157.9890  214.4530  152.5250 O   0  0  0  0  0  0  0  0  0  0  0  0
  155.9690  212.0140  154.5010 C   0  0  1  0  0  3  0  0  0  0  0  0
  159.4670  211.6780  153.1050 F   0  0  0  0  0  0  0  0  0  0  0  0
  158.4180  212.8010  156.3600 O   0  0  0  0  0  0  0  0  0  0  0  0
  158.9650  214.4100  154.6510 C   0  0  0  0  0  2  0  0  0  0  0  0
  158.3710  213.7490  153.4410 C   0  0  0  0  0  0  0  0  0  0  0  0
  155.8430  213.3960  154.6260 O   0  0  0  0  0  1  0  0  0  0  0  0
  158.2310  212.2570  153.3020 C   0  0  2  0  0  3  0  0  0  0  0  0
  163.0330  207.7080  148.2580 O   0  0  0  0  0  0  0  0  0  0  0  0
  160.8200  206.9830  148.2420 N   0  0  0  0  0  2  0  0  0  0  0  0
  161.9390  207.6150  148.8720 C   0  0  0  0  0  0  0  0  0  0  0  0
  160.8010  206.5770  146.8450 C   0  0  0  0  0  2  0  0  0  0  0  0
  160.8560  205.1270  146.7230 N   0  0  0  0  0  2  0  0  0  0  0  0
  162.9510  204.1880  147.0710 O   0  0  0  0  0  0  0  0  0  0  0  0
  161.7660  204.3290  147.4810 C   0  0  0  0  0  0  0  0  0  0  0  0
  160.5020  203.6520  151.0180 C   0  0  0  0  0  2  0  0  0  0  0  0
  161.3170  203.6300  148.7030 C   0  0  0  0  0  0  0  0  0  0  0  0
  161.3300  202.5320  151.2250 O   0  0  0  0  0  0  0  0  0  0  0  0
  161.4730  202.1240  148.8370 C   0  0  1  0  0  3  0  0  0  0  0  0
  160.9020  204.3530  149.7530 C   0  0  0  0  0  3  0  0  0  0  0  0
  160.9940  201.6170  150.2090 C   0  0  0  0  0  2  0  0  0  0  0  0
  160.6850  201.4070  147.7520 C   0  0  0  0  0  2  0  0  0  0  0  0
  161.3340  200.1520  147.4100 N   0  0  0  0  0  1  0  0  0  0  0  0
  1  5  1  0  0  0  0
  2  3  2  0  0  0  0
  3  7  1  0  0  0  0
  4  1  2  0  0  0  0
  4  2  1  0  0  0  0
  5  7  2  0  0  0  0
  6  1  1  0  0  0  0
  7 10  1  0  0  0  0
  8 18  1  0  0  0  0
  8 11  2  0  0  0  0
  9  8  1  0  0  0  0
 10  9  1  0  0  0  0
 10 12  2  0  0  0  0
 14 21  1  0  0  0  0
 14 18  1  0  0  0  0
 15 23  1  0  0  0  0
 16 13  1  0  0  0  0
 17 16  1  0  0  0  0
 18 23  1  0  0  0  0
 18 19  1  0  0  0  0
 19 13  1  0  0  0  0
 20 25  2  0  0  0  0
 21 26  1  0  0  0  0
 21 16  1  0  0  0  0
 22 27  1  0  0  0  0
 24 15  1  0  0  0  0
 25 24  1  0  0  0  0
 27 25  1  0  0  0  0
 27 14  1  0  0  0  0
 28 30  2  0  0  0  0
 29 30  1  0  0  0  0
 30  4  1  0  0  0  0
 31 29  1  0  0  0  0
 32 31  1  0  0  0  0
 32 34  1  0  0  0  0
 33 34  2  0  0  0  0
 34 36  1  0  0  0  0
 35 37  1  0  0  0  0
 36 38  1  0  0  0  0
 36 39  2  0  0  0  0
 38 40  1  0  0  0  0
 39 35  1  0  0  0  0
 40 37  1  0  0  0  0
 41 38  1  0  0  0  0
 42 41  1  0  0  0  0
M  END
>  <MODEL>
1

>  <REMARK>
 VINA RESULT:      -8.6      0.000      0.000
  Name = 
  7 active torsions:
  status: ('A' for Active; 'I' for Inactive)
    1  A    between atoms: C_2  and  N_3
    2  A    between atoms: C_2  and  N_36
    3  A    between atoms: C_5  and  C_16
    4  A    between atoms: C_6  and  C_40
    5  A    between atoms: C_15  and  C_33
    6  A    between atoms: C_19  and  C_23
    7  A    between atoms: C_24  and  C_41
                            x       y       z     vdW  Elec       q    Type
                         _______ _______ _______ _____ _____    ______ ____

>  <TORSDO>
F 7

$$$$
=
 OpenBabel11072410593D

 42 45  0  0  1  0  0  0  0  0999 V2000
  161.6540  207.1270  152.0520 C   0  0  0  0  0  0  0  0  0  0  0  0
  160.8390  205.8560  153.9520 C   0  0  0  0  0  3  0  0  0  0  0  0
  160.7910  207.0220  154.7160 C   0  0  0  0  0  3  0  0  0  0  0  0
  161.2610  205.8900  152.6130 C   0  0  0  0  0  0  0  0  0  0  0  0
  161.6110  208.2920  152.8280 C   0  0  0  0  0  3  0  0  0  0  0  0
  162.0890  207.2160  150.7360 O   0  0  0  0  0  1  0  0  0  0  0  0
  161.1760  208.2470  154.1600 C   0  0  0  0  0  0  0  0  0  0  0  0
  159.4680  211.2250  155.9200 C   0  0  0  0  0  0  0  0  0  0  0  0
  159.7560  210.0280  155.1930 N   0  0  0  0  0  2  0  0  0  0  0  0
  161.0580  209.4790  154.9550 C   0  0  0  0  0  0  0  0  0  0  0  0
  160.3680  211.7830  156.6080 O   0  0  0  0  0  0  0  0  0  0  0  0
  162.0930  210.0650  155.3810 O   0  0  0  0  0  0  0  0  0  0  0  0
  156.0270  211.9260  156.7510 C   0  0  0  0  0  2  0  0  0  0  0  0
  157.4770  211.5030  154.3600 C   0  0  1  0  0  3  0  0  0  0  0  0
  159.2240  213.8510  155.0190 C   0  0  0  0  0  2  0  0  0  0  0  0
  155.2570  211.3450  155.5750 C   0  0  2  0  0  3  0  0  0  0  0  0
  155.1850  209.8970  155.6810 N   0  0  0  0  0  1  0  0  0  0  0  0
  158.1250  211.9110  155.7280 C   0  0  1  0  0  0  0  0  0  0  0  0
  157.3340  211.4030  156.7920 O   0  0  0  0  0  0  0  0  0  0  0  0
  157.7350  213.7770  151.7090 O   0  0  0  0  0  0  0  0  0  0  0  0
  155.9550  211.7470  154.2860 C   0  0  1  0  0  3  0  0  0  0  0  0
  159.5180  211.4870  153.0490 F   0  0  0  0  0  0  0  0  0  0  0  0
  158.2160  213.3270  155.8550 O   0  0  0  0  0  0  0  0  0  0  0  0
  158.6260  214.4530  153.7650 C   0  0  0  0  0  2  0  0  0  0  0  0
  158.1650  213.4110  152.7870 C   0  0  0  0  0  0  0  0  0  0  0  0
  155.6560  213.0810  154.0180 O   0  0  0  0  0  1  0  0  0  0  0  0
  158.2140  211.9340  153.0730 C   0  0  2  0  0  3  0  0  0  0  0  0
  162.1310  203.7540  152.0130 O   0  0  0  0  0  0  0  0  0  0  0  0
  160.2090  204.4100  150.8730 N   0  0  0  0  0  2  0  0  0  0  0  0
  161.2430  204.6280  151.8380 C   0  0  0  0  0  0  0  0  0  0  0  0
  160.1990  203.2970  149.9350 C   0  0  0  0  0  2  0  0  0  0  0  0
  161.4080  203.2880  149.1230 N   0  0  0  0  0  2  0  0  0  0  0  0
  161.5200  201.5870  147.5460 O   0  0  0  0  0  0  0  0  0  0  0  0
  161.4190  202.8240  147.7730 C   0  0  0  0  0  0  0  0  0  0  0  0
  160.6460  204.4050  144.3850 C   0  0  0  0  0  2  0  0  0  0  0  0
  161.3640  203.7810  146.6480 C   0  0  0  0  0  0  0  0  0  0  0  0
  161.9110  205.0090  144.2480 O   0  0  0  0  0  0  0  0  0  0  0  0
  162.2230  205.0350  146.6550 C   0  0  1  0  0  3  0  0  0  0  0  0
  160.6570  203.4640  145.5550 C   0  0  0  0  0  3  0  0  0  0  0  0
  162.0510  205.8560  145.3640 C   0  0  0  0  0  2  0  0  0  0  0  0
  161.8720  205.9170  147.8420 C   0  0  0  0  0  2  0  0  0  0  0  0
  160.4680  206.2900  147.7900 N   0  0  0  0  0  1  0  0  0  0  0  0
  1  4  2  0  0  0  0
  1  5  1  0  0  0  0
  2  3  2  0  0  0  0
  4  2  1  0  0  0  0
  5  7  2  0  0  0  0
  6  1  1  0  0  0  0
  7  3  1  0  0  0  0
  7 10  1  0  0  0  0
  8 11  2  0  0  0  0
  9  8  1  0  0  0  0
 10  9  1  0  0  0  0
 10 12  2  0  0  0  0
 13 19  1  0  0  0  0
 14 18  1  0  0  0  0
 15 23  1  0  0  0  0
 16 17  1  0  0  0  0
 16 13  1  0  0  0  0
 18 23  1  0  0  0  0
 18  8  1  0  0  0  0
 18 19  1  0  0  0  0
 20 25  2  0  0  0  0
 21 14  1  0  0  0  0
 21 16  1  0  0  0  0
 22 27  1  0  0  0  0
 24 15  1  0  0  0  0
 25 27  1  0  0  0  0
 25 24  1  0  0  0  0
 26 21  1  0  0  0  0
 27 14  1  0  0  0  0
 29 30  1  0  0  0  0
 30 28  2  0  0  0  0
 30  4  1  0  0  0  0
 31 29  1  0  0  0  0
 32 31  1  0  0  0  0
 33 34  2  0  0  0  0
 34 32  1  0  0  0  0
 35 39  1  0  0  0  0
 36 38  1  0  0  0  0
 36 34  1  0  0  0  0
 37 35  1  0  0  0  0
 37 40  1  0  0  0  0
 38 41  1  0  0  0  0
 39 36  2  0  0  0  0
 40 38  1  0  0  0  0
 42 41  1  0  0  0  0
M  END
>  <MODEL>
2

>  <REMARK>
 VINA RESULT:      -8.5      1.619      3.105
  Name = 
  7 active torsions:
  status: ('A' for Active; 'I' for Inactive)
    1  A    between atoms: C_2  and  N_3
    2  A    between atoms: C_2  and  N_36
    3  A    between atoms: C_5  and  C_16
    4  A    between atoms: C_6  and  C_40
    5  A    between atoms: C_15  and  C_33
    6  A    between atoms: C_19  and  C_23
    7  A    between atoms: C_24  and  C_41
                            x       y       z     vdW  Elec       q    Type
                         _______ _______ _______ _____ _____    ______ ____

>  <TORSDO>
F 7

$$$$
=
 OpenBabel11072410593D

 42 45  0  0  1  0  0  0  0  0999 V2000
  161.3930  206.3520  152.5380 C   0  0  0  0  0  0  0  0  0  0  0  0
  161.1740  208.3480  151.1760 C   0  0  0  0  0  3  0  0  0  0  0  0
  160.9990  209.1180  152.3260 C   0  0  0  0  0  3  0  0  0  0  0  0
  161.3810  206.9620  151.2630 C   0  0  0  0  0  0  0  0  0  0  0  0
  161.2070  207.1300  153.6870 C   0  0  0  0  0  3  0  0  0  0  0  0
  161.5830  204.9840  152.6820 O   0  0  0  0  0  1  0  0  0  0  0  0
  161.0140  208.5150  153.5890 C   0  0  0  0  0  0  0  0  0  0  0  0
  159.3480  210.7940  156.2190 C   0  0  0  0  0  0  0  0  0  0  0  0
  159.6280  209.9420  155.1040 N   0  0  0  0  0  2  0  0  0  0  0  0
  160.8940  209.3470  154.7960 C   0  0  0  0  0  0  0  0  0  0  0  0
  160.1830  210.9050  157.1580 O   0  0  0  0  0  0  0  0  0  0  0  0
  161.9040  209.5660  155.5230 O   0  0  0  0  0  0  0  0  0  0  0  0
  156.0380  211.8080  157.2380 C   0  0  0  0  0  2  0  0  0  0  0  0
  157.4260  211.6380  154.7800 C   0  0  1  0  0  3  0  0  0  0  0  0
  159.4880  213.5490  155.8260 C   0  0  0  0  0  2  0  0  0  0  0  0
  155.1990  211.5720  155.9910 C   0  0  2  0  0  3  0  0  0  0  0  0
  154.9190  210.1550  155.8280 N   0  0  0  0  0  1  0  0  0  0  0  0
  158.1180  211.6860  156.1860 C   0  0  1  0  0  0  0  0  0  0  0  0
  157.2560  211.1060  157.1540 O   0  0  0  0  0  0  0  0  0  0  0  0
  158.0230  214.3060  152.5920 O   0  0  0  0  0  0  0  0  0  0  0  0
  155.9550  212.1040  154.7850 C   0  0  1  0  0  3  0  0  0  0  0  0
  159.4510  211.5770  153.4450 F   0  0  0  0  0  0  0  0  0  0  0  0
  158.4100  213.0270  156.5710 O   0  0  0  0  0  0  0  0  0  0  0  0
  158.9900  214.4530  154.7180 C   0  0  0  0  0  2  0  0  0  0  0  0
  158.3900  213.6880  153.5740 C   0  0  0  0  0  0  0  0  0  0  0  0
  155.8520  213.4940  154.7750 O   0  0  0  0  0  1  0  0  0  0  0  0
  158.2250  212.1920  153.5790 C   0  0  2  0  0  3  0  0  0  0  0  0
  161.5710  204.9480  150.0030 O   0  0  0  0  0  0  0  0  0  0  0  0
  161.8910  206.9170  148.8010 N   0  0  0  0  0  2  0  0  0  0  0  0
  161.6100  206.2050  150.0110 C   0  0  0  0  0  0  0  0  0  0  0  0
  162.3080  206.2750  147.5630 C   0  0  0  0  0  2  0  0  0  0  0  0
  161.2120  205.5220  146.9700 N   0  0  0  0  0  2  0  0  0  0  0  0
  161.7630  204.3200  145.0610 O   0  0  0  0  0  0  0  0  0  0  0  0
  161.4160  204.2920  146.2740 C   0  0  0  0  0  0  0  0  0  0  0  0
  160.9210  201.6410  148.9750 C   0  0  0  0  0  2  0  0  0  0  0  0
  161.1750  202.9980  146.9460 C   0  0  0  0  0  0  0  0  0  0  0  0
  161.6280  200.6380  148.2840 O   0  0  0  0  0  0  0  0  0  0  0  0
  161.1670  201.7020  146.1520 C   0  0  1  0  0  3  0  0  0  0  0  0
  161.1060  202.9610  148.2840 C   0  0  0  0  0  3  0  0  0  0  0  0
  160.9560  200.4760  147.0570 C   0  0  0  0  0  2  0  0  0  0  0  0
  160.0680  201.7260  145.1020 C   0  0  0  0  0  2  0  0  0  0  0  0
  159.8790  200.3970  144.5450 N   0  0  0  0  0  1  0  0  0  0  0  0
  1  6  1  0  0  0  0
  1  5  1  0  0  0  0
  2  4  1  0  0  0  0
  2  3  2  0  0  0  0
  3  7  1  0  0  0  0
  4  1  2  0  0  0  0
  7  5  2  0  0  0  0
  7 10  1  0  0  0  0
  8 11  2  0  0  0  0
  9  8  1  0  0  0  0
 10  9  1  0  0  0  0
 10 12  2  0  0  0  0
 14 21  1  0  0  0  0
 14 18  1  0  0  0  0
 15 23  1  0  0  0  0
 16 13  1  0  0  0  0
 17 16  1  0  0  0  0
 18  8  1  0  0  0  0
 18 23  1  0  0  0  0
 18 19  1  0  0  0  0
 19 13  1  0  0  0  0
 20 25  2  0  0  0  0
 21 16  1  0  0  0  0
 22 27  1  0  0  0  0
 24 15  1  0  0  0  0
 25 27  1  0  0  0  0
 25 24  1  0  0  0  0
 26 21  1  0  0  0  0
 27 14  1  0  0  0  0
 28 30  2  0  0  0  0
 29 30  1  0  0  0  0
 30  4  1  0  0  0  0
 31 29  1  0  0  0  0
 32 31  1  0  0  0  0
 33 34  2  0  0  0  0
 34 36  1  0  0  0  0
 34 32  1  0  0  0  0
 36 39  2  0  0  0  0
 37 35  1  0  0  0  0
 38 36  1  0  0  0  0
 38 40  1  0  0  0  0
 39 35  1  0  0  0  0
 40 37  1  0  0  0  0
 41 38  1  0  0  0  0
 42 41  1  0  0  0  0
M  END
>  <MODEL>
3

>  <REMARK>
 VINA RESULT:      -8.0      1.573      2.009
  Name = 
  7 active torsions:
  status: ('A' for Active; 'I' for Inactive)
    1  A    between atoms: C_2  and  N_3
    2  A    between atoms: C_2  and  N_36
    3  A    between atoms: C_5  and  C_16
    4  A    between atoms: C_6  and  C_40
    5  A    between atoms: C_15  and  C_33
    6  A    between atoms: C_19  and  C_23
    7  A    between atoms: C_24  and  C_41
                            x       y       z     vdW  Elec       q    Type
                         _______ _______ _______ _____ _____    ______ ____

>  <TORSDO>
F 7

$$$$
=
 OpenBabel11072410593D

 42 45  0  0  1  0  0  0  0  0999 V2000
  161.6150  207.7130  149.8640 C   0  0  0  0  0  0  0  0  0  0  0  0
  161.1240  205.3380  149.8690 C   0  0  0  0  0  3  0  0  0  0  0  0
  160.9290  205.3760  151.2490 C   0  0  0  0  0  3  0  0  0  0  0  0
  161.4610  206.5000  149.1560 C   0  0  0  0  0  0  0  0  0  0  0  0
  161.4270  207.7430  151.2510 C   0  0  0  0  0  3  0  0  0  0  0  0
  161.9570  208.8910  149.2110 O   0  0  0  0  0  1  0  0  0  0  0  0
  161.0790  206.5790  151.9500 C   0  0  0  0  0  0  0  0  0  0  0  0
  160.0640  208.0650  155.3620 C   0  0  0  0  0  0  0  0  0  0  0  0
  160.3500  207.8470  153.9780 N   0  0  0  0  0  2  0  0  0  0  0  0
  160.8070  206.6210  153.3940 C   0  0  0  0  0  0  0  0  0  0  0  0
  159.9900  207.0870  156.1570 O   0  0  0  0  0  0  0  0  0  0  0  0
  161.0150  205.6030  154.1130 O   0  0  0  0  0  0  0  0  0  0  0  0
  158.3950  211.0780  156.4370 C   0  0  0  0  0  2  0  0  0  0  0  0
  160.6980  210.4860  154.9060 C   0  0  1  0  0  3  0  0  0  0  0  0
  161.8690  209.0310  157.2530 C   0  0  0  0  0  2  0  0  0  0  0  0
  158.7990  212.0980  155.3830 C   0  0  2  0  0  3  0  0  0  0  0  0
  158.0420  211.8900  154.1590 N   0  0  0  0  0  1  0  0  0  0  0  0
  160.0140  209.4860  155.9000 C   0  0  1  0  0  0  0  0  0  0  0  0
  158.6250  209.7690  155.9710 O   0  0  0  0  0  0  0  0  0  0  0  0
  163.9570  211.5300  155.6490 O   0  0  0  0  0  0  0  0  0  0  0  0
  160.2880  211.9600  155.1140 C   0  0  1  0  0  3  0  0  0  0  0  0
  162.5300  209.0450  154.2330 F   0  0  0  0  0  0  0  0  0  0  0  0
  160.5760  209.5920  157.2060 O   0  0  0  0  0  0  0  0  0  0  0  0
  162.9280  210.1130  157.2000 C   0  0  0  0  0  2  0  0  0  0  0  0
  163.0830  210.7030  155.8280 C   0  0  0  0  0  0  0  0  0  0  0  0
  160.9850  212.5480  156.1670 O   0  0  0  0  0  1  0  0  0  0  0  0
  162.2140  210.3170  154.6620 C   0  0  2  0  0  3  0  0  0  0  0  0
  162.7130  206.6310  147.1330 O   0  0  0  0  0  0  0  0  0  0  0  0
  160.4670  206.0650  146.8870 N   0  0  0  0  0  2  0  0  0  0  0  0
  161.6060  206.4060  147.6860 C   0  0  0  0  0  0  0  0  0  0  0  0
  160.4530  206.1220  145.4320 C   0  0  0  0  0  2  0  0  0  0  0  0
  160.6800  204.8050  144.8560 N   0  0  0  0  0  2  0  0  0  0  0  0
  162.8690  204.0400  144.9840 O   0  0  0  0  0  0  0  0  0  0  0  0
  161.6720  203.9100  145.3610 C   0  0  0  0  0  0  0  0  0  0  0  0
  160.8990  201.9240  148.5280 C   0  0  0  0  0  2  0  0  0  0  0  0
  161.2980  202.8090  146.2740 C   0  0  0  0  0  0  0  0  0  0  0  0
  161.5030  200.7370  148.0710 O   0  0  0  0  0  0  0  0  0  0  0  0
  161.1620  201.3860  145.7580 C   0  0  1  0  0  3  0  0  0  0  0  0
  161.2200  203.0510  147.5900 C   0  0  0  0  0  3  0  0  0  0  0  0
  160.8240  200.3960  146.8870 C   0  0  0  0  0  2  0  0  0  0  0  0
  160.0760  201.3040  144.6970 C   0  0  0  0  0  2  0  0  0  0  0  0
  158.7880  201.6590  145.2710 N   0  0  0  0  0  1  0  0  0  0  0  0
  1  5  1  0  0  0  0
  2  3  2  0  0  0  0
  3  7  1  0  0  0  0
  4  1  2  0  0  0  0
  4  2  1  0  0  0  0
  5  7  2  0  0  0  0
  6  1  1  0  0  0  0
  7 10  1  0  0  0  0
  8 18  1  0  0  0  0
  8 11  2  0  0  0  0
  9  8  1  0  0  0  0
 10  9  1  0  0  0  0
 10 12  2  0  0  0  0
 14 21  1  0  0  0  0
 14 18  1  0  0  0  0
 16 13  1  0  0  0  0
 17 16  1  0  0  0  0
 18 19  1  0  0  0  0
 18 23  1  0  0  0  0
 19 13  1  0  0  0  0
 20 25  2  0  0  0  0
 21 16  1  0  0  0  0
 21 26  1  0  0  0  0
 22 27  1  0  0  0  0
 23 15  1  0  0  0  0
 24 15  1  0  0  0  0
 25 24  1  0  0  0  0
 27 14  1  0  0  0  0
 27 25  1  0  0  0  0
 28 30  2  0  0  0  0
 29 30  1  0  0  0  0
 30  4  1  0  0  0  0
 31 29  1  0  0  0  0
 32 34  1  0  0  0  0
 32 31  1  0  0  0  0
 33 34  2  0  0  0  0
 34 36  1  0  0  0  0
 36 39  2  0  0  0  0
 37 35  1  0  0  0  0
 38 36  1  0  0  0  0
 38 40  1  0  0  0  0
 39 35  1  0  0  0  0
 40 37  1  0  0  0  0
 41 42  1  0  0  0  0
 41 38  1  0  0  0  0
M  END
>  <MODEL>
4

>  <REMARK>
 VINA RESULT:      -8.0      2.323      3.496
  Name = 
  7 active torsions:
  status: ('A' for Active; 'I' for Inactive)
    1  A    between atoms: C_2  and  N_3
    2  A    between atoms: C_2  and  N_36
    3  A    between atoms: C_5  and  C_16
    4  A    between atoms: C_6  and  C_40
    5  A    between atoms: C_15  and  C_33
    6  A    between atoms: C_19  and  C_23
    7  A    between atoms: C_24  and  C_41
                            x       y       z     vdW  Elec       q    Type
                         _______ _______ _______ _____ _____    ______ ____

>  <TORSDO>
F 7

$$$$
=
 OpenBabel11072410593D

 42 45  0  0  1  0  0  0  0  0999 V2000
  159.0130  212.7220  146.0920 C   0  0  0  0  0  0  0  0  0  0  0  0
  161.3030  212.9740  145.3320 C   0  0  0  0  0  3  0  0  0  0  0  0
  160.8620  213.0460  144.0110 C   0  0  0  0  0  3  0  0  0  0  0  0
  160.3910  212.8190  146.3890 C   0  0  0  0  0  0  0  0  0  0  0  0
  158.5770  212.7860  144.7630 C   0  0  0  0  0  3  0  0  0  0  0  0
  158.0680  212.5590  147.0970 O   0  0  0  0  0  1  0  0  0  0  0  0
  159.4960  212.9530  143.7170 C   0  0  0  0  0  0  0  0  0  0  0  0
  159.1350  212.1460  139.9620 C   0  0  0  0  0  0  0  0  0  0  0  0
  159.4670  212.1380  141.3540 N   0  0  0  0  0  2  0  0  0  0  0  0
  159.0380  213.0970  142.3280 C   0  0  0  0  0  0  0  0  0  0  0  0
  158.2310  212.9120  139.5290 O   0  0  0  0  0  0  0  0  0  0  0  0
  158.3120  214.0760  141.9930 O   0  0  0  0  0  0  0  0  0  0  0  0
  160.1800  209.1430  138.2570 C   0  0  0  0  0  2  0  0  0  0  0  0
  161.4940  211.3590  139.4220 C   0  0  1  0  0  3  0  0  0  0  0  0
  160.0420  213.1920  137.5440 C   0  0  0  0  0  2  0  0  0  0  0  0
  161.5820  208.9030  138.7930 C   0  0  2  0  0  3  0  0  0  0  0  0
  161.5240  208.3470  140.1350 N   0  0  0  0  0  1  0  0  0  0  0  0
  159.9880  211.3510  138.9870 C   0  0  1  0  0  0  0  0  0  0  0  0
  159.4760  210.0310  139.0920 O   0  0  0  0  0  0  0  0  0  0  0  0
  163.6480  213.5560  137.7490 O   0  0  0  0  0  0  0  0  0  0  0  0
  162.3350  210.2230  138.8010 C   0  0  1  0  0  3  0  0  0  0  0  0
  161.5800  213.6600  140.1840 F   0  0  0  0  0  0  0  0  0  0  0  0
  159.8370  211.8000  137.6430 O   0  0  0  0  0  0  0  0  0  0  0  0
  161.4280  213.4970  137.0130 C   0  0  0  0  0  2  0  0  0  0  0  0
  162.5010  213.2720  138.0390 C   0  0  0  0  0  0  0  0  0  0  0  0
  162.7230  210.5200  137.4960 O   0  0  0  0  0  1  0  0  0  0  0  0
  162.2260  212.7190  139.4120 C   0  0  2  0  0  3  0  0  0  0  0  0
  161.6560  211.8600  148.1670 O   0  0  0  0  0  0  0  0  0  0  0  0
  160.5670  213.8560  148.6740 N   0  0  0  0  0  2  0  0  0  0  0  0
  160.9160  212.7990  147.7730 C   0  0  0  0  0  0  0  0  0  0  0  0
  160.8750  213.8420  150.0960 C   0  0  0  0  0  2  0  0  0  0  0  0
  159.7250  214.2650  150.8830 N   0  0  0  0  0  2  0  0  0  0  0  0
  157.7560  213.1160  150.4440 O   0  0  0  0  0  0  0  0  0  0  0  0
  158.6840  213.3640  151.2620 C   0  0  0  0  0  0  0  0  0  0  0  0
  157.5320  212.3080  154.7440 C   0  0  0  0  0  2  0  0  0  0  0  0
  158.6590  212.7670  152.6130 C   0  0  0  0  0  0  0  0  0  0  0  0
  158.7860  212.5160  155.3490 O   0  0  0  0  0  0  0  0  0  0  0  0
  159.9250  212.1950  153.2310 C   0  0  1  0  0  3  0  0  0  0  0  0
  157.5430  212.8610  153.3480 C   0  0  0  0  0  3  0  0  0  0  0  0
  159.6840  211.6790  154.6610 C   0  0  0  0  0  2  0  0  0  0  0  0
  160.4630  211.0510  152.3850 C   0  0  0  0  0  2  0  0  0  0  0  0
  160.1470  209.7770  153.0090 N   0  0  0  0  0  1  0  0  0  0  0  0
  1  4  1  0  0  0  0
  1  6  1  0  0  0  0
  2  4  2  0  0  0  0
  3  2  1  0  0  0  0
  4 30  1  0  0  0  0
  5  1  2  0  0  0  0
  7  3  2  0  0  0  0
  7  5  1  0  0  0  0
  8  9  1  0  0  0  0
  9 10  1  0  0  0  0
 10  7  1  0  0  0  0
 11  8  2  0  0  0  0
 12 10  2  0  0  0  0
 13 16  1  0  0  0  0
 13 19  1  0  0  0  0
 15 23  1  0  0  0  0
 16 21  1  0  0  0  0
 16 17  1  0  0  0  0
 18 19  1  0  0  0  0
 18 14  1  0  0  0  0
 18  8  1  0  0  0  0
 20 25  2  0  0  0  0
 21 14  1  0  0  0  0
 23 18  1  0  0  0  0
 24 15  1  0  0  0  0
 24 25  1  0  0  0  0
 25 27  1  0  0  0  0
 26 21  1  0  0  0  0
 27 14  1  0  0  0  0
 27 22  1  0  0  0  0
 29 31  1  0  0  0  0
 30 28  2  0  0  0  0
 30 29  1  0  0  0  0
 31 32  1  0  0  0  0
 32 34  1  0  0  0  0
 33 34  2  0  0  0  0
 34 36  1  0  0  0  0
 35 37  1  0  0  0  0
 36 38  1  0  0  0  0
 36 39  2  0  0  0  0
 38 40  1  0  0  0  0
 39 35  1  0  0  0  0
 40 37  1  0  0  0  0
 41 42  1  0  0  0  0
 41 38  1  0  0  0  0
M  END
>  <MODEL>
5

>  <REMARK>
 VINA RESULT:      -6.7      7.709     13.180
  Name = 
  7 active torsions:
  status: ('A' for Active; 'I' for Inactive)
    1  A    between atoms: C_2  and  N_3
    2  A    between atoms: C_2  and  N_36
    3  A    between atoms: C_5  and  C_16
    4  A    between atoms: C_6  and  C_40
    5  A    between atoms: C_15  and  C_33
    6  A    between atoms: C_19  and  C_23
    7  A    between atoms: C_24  and  C_41
                            x       y       z     vdW  Elec       q    Type
                         _______ _______ _______ _____ _____    ______ ____

>  <TORSDO>
F 7

$$$$
=
 OpenBabel11072410593D

 42 45  0  0  1  0  0  0  0  0999 V2000
  159.3050  212.8870  146.2350 C   0  0  0  0  0  0  0  0  0  0  0  0
  161.5920  212.9720  145.4270 C   0  0  0  0  0  3  0  0  0  0  0  0
  161.1290  213.0820  144.1160 C   0  0  0  0  0  3  0  0  0  0  0  0
  160.6930  212.8820  146.5030 C   0  0  0  0  0  0  0  0  0  0  0  0
  158.8480  212.9880  144.9150 C   0  0  0  0  0  3  0  0  0  0  0  0
  158.3730  212.7910  147.2590 O   0  0  0  0  0  1  0  0  0  0  0  0
  159.7550  213.0910  143.8510 C   0  0  0  0  0  0  0  0  0  0  0  0
  159.4070  212.4360  140.0650 C   0  0  0  0  0  0  0  0  0  0  0  0
  159.7500  212.3820  141.4530 N   0  0  0  0  0  2  0  0  0  0  0  0
  159.2790  213.2730  142.4720 C   0  0  0  0  0  0  0  0  0  0  0  0
  158.4610  213.1730  139.6720 O   0  0  0  0  0  0  0  0  0  0  0  0
  158.5020  214.2280  142.1850 O   0  0  0  0  0  0  0  0  0  0  0  0
  160.5490  209.5820  138.1750 C   0  0  0  0  0  2  0  0  0  0  0  0
  161.7920  211.7450  139.5070 C   0  0  1  0  0  3  0  0  0  0  0  0
  160.3180  213.6660  137.7360 C   0  0  0  0  0  2  0  0  0  0  0  0
  161.9500  209.3410  138.7150 C   0  0  2  0  0  3  0  0  0  0  0  0
  161.8890  208.6930  140.0140 N   0  0  0  0  0  1  0  0  0  0  0  0
  160.2920  211.7290  139.0500 C   0  0  1  0  0  0  0  0  0  0  0  0
  159.8120  210.3940  139.0590 O   0  0  0  0  0  0  0  0  0  0  0  0
  163.9100  214.1020  138.0180 O   0  0  0  0  0  0  0  0  0  0  0  0
  162.6690  210.6750  138.8220 C   0  0  1  0  0  3  0  0  0  0  0  0
  161.8090  213.9900  140.4250 F   0  0  0  0  0  0  0  0  0  0  0  0
  160.1470  212.2650  137.7380 O   0  0  0  0  0  0  0  0  0  0  0  0
  161.7010  214.0390  137.2480 C   0  0  0  0  0  2  0  0  0  0  0  0
  162.7670  213.7720  138.2710 C   0  0  0  0  0  0  0  0  0  0  0  0
  163.0660  211.0690  137.5460 O   0  0  0  0  0  1  0  0  0  0  0  0
  162.4890  213.1200  139.5990 C   0  0  2  0  0  3  0  0  0  0  0  0
  162.2870  213.4540  148.1800 O   0  0  0  0  0  0  0  0  0  0  0  0
  160.5870  212.0150  148.8610 N   0  0  0  0  0  2  0  0  0  0  0  0
  161.2440  212.8180  147.8760 C   0  0  0  0  0  0  0  0  0  0  0  0
  161.1390  211.7380  150.1790 C   0  0  0  0  0  2  0  0  0  0  0  0
  162.1600  210.7020  150.1100 N   0  0  0  0  0  2  0  0  0  0  0  0
  163.3180  210.3280  152.0880 O   0  0  0  0  0  0  0  0  0  0  0  0
  162.5020  209.8880  151.2320 C   0  0  0  0  0  0  0  0  0  0  0  0
  160.8310  206.7750  152.6790 C   0  0  0  0  0  2  0  0  0  0  0  0
  161.9490  208.5240  151.3690 C   0  0  0  0  0  0  0  0  0  0  0  0
  161.7100  205.8710  152.0530 O   0  0  0  0  0  0  0  0  0  0  0  0
  162.2040  207.4740  150.2990 C   0  0  1  0  0  3  0  0  0  0  0  0
  161.3420  208.1770  152.5120 C   0  0  0  0  0  3  0  0  0  0  0  0
  161.5870  206.1140  150.6720 C   0  0  0  0  0  2  0  0  0  0  0  0
  161.6280  207.9200  148.9650 C   0  0  0  0  0  2  0  0  0  0  0  0
  162.3000  207.2310  147.8750 N   0  0  0  0  0  1  0  0  0  0  0  0
  1  4  1  0  0  0  0
  1  6  1  0  0  0  0
  2  4  2  0  0  0  0
  3  2  1  0  0  0  0
  4 30  1  0  0  0  0
  5  1  2  0  0  0  0
  7  3  2  0  0  0  0
  7  5  1  0  0  0  0
  8  9  1  0  0  0  0
  9 10  1  0  0  0  0
 10  7  1  0  0  0  0
 11  8  2  0  0  0  0
 12 10  2  0  0  0  0
 13 16  1  0  0  0  0
 13 19  1  0  0  0  0
 14 27  1  0  0  0  0
 15 23  1  0  0  0  0
 16 21  1  0  0  0  0
 16 17  1  0  0  0  0
 18 19  1  0  0  0  0
 18 14  1  0  0  0  0
 18  8  1  0  0  0  0
 20 25  2  0  0  0  0
 21 14  1  0  0  0  0
 23 18  1  0  0  0  0
 24 15  1  0  0  0  0
 24 25  1  0  0  0  0
 25 27  1  0  0  0  0
 26 21  1  0  0  0  0
 27 22  1  0  0  0  0
 29 31  1  0  0  0  0
 30 28  2  0  0  0  0
 30 29  1  0  0  0  0
 32 31  1  0  0  0  0
 32 34  1  0  0  0  0
 34 36  1  0  0  0  0
 34 33  2  0  0  0  0
 36 39  2  0  0  0  0
 37 35  1  0  0  0  0
 38 40  1  0  0  0  0
 38 36  1  0  0  0  0
 39 35  1  0  0  0  0
 40 37  1  0  0  0  0
 41 38  1  0  0  0  0
 42 41  1  0  0  0  0
M  END
>  <MODEL>
6

>  <REMARK>
 VINA RESULT:      -6.4      7.691     12.311
  Name = 
  7 active torsions:
  status: ('A' for Active; 'I' for Inactive)
    1  A    between atoms: C_2  and  N_3
    2  A    between atoms: C_2  and  N_36
    3  A    between atoms: C_5  and  C_16
    4  A    between atoms: C_6  and  C_40
    5  A    between atoms: C_15  and  C_33
    6  A    between atoms: C_19  and  C_23
    7  A    between atoms: C_24  and  C_41
                            x       y       z     vdW  Elec       q    Type
                         _______ _______ _______ _____ _____    ______ ____

>  <TORSDO>
F 7

$$$$
=
 OpenBabel11072410593D

 42 45  0  0  1  0  0  0  0  0999 V2000
  158.9950  212.8060  146.6970 C   0  0  0  0  0  0  0  0  0  0  0  0
  161.3620  213.0340  146.2200 C   0  0  0  0  0  3  0  0  0  0  0  0
  161.0840  213.1070  144.8550 C   0  0  0  0  0  3  0  0  0  0  0  0
  160.3280  212.8910  147.1590 C   0  0  0  0  0  0  0  0  0  0  0  0
  158.7230  212.8710  145.3250 C   0  0  0  0  0  3  0  0  0  0  0  0
  157.9340  212.6550  147.5810 O   0  0  0  0  0  1  0  0  0  0  0  0
  159.7630  213.0260  144.3980 C   0  0  0  0  0  0  0  0  0  0  0  0
  160.2310  212.6070  140.5920 C   0  0  0  0  0  0  0  0  0  0  0  0
  160.3520  212.5450  142.0160 N   0  0  0  0  0  2  0  0  0  0  0  0
  159.4770  213.1710  142.9630 C   0  0  0  0  0  0  0  0  0  0  0  0
  159.1790  213.0610  140.0620 O   0  0  0  0  0  0  0  0  0  0  0  0
  158.5000  213.8720  142.5740 O   0  0  0  0  0  0  0  0  0  0  0  0
  163.3260  213.3760  138.9030 C   0  0  0  0  0  2  0  0  0  0  0  0
  160.9970  211.9020  138.2700 C   0  0  1  0  0  3  0  0  0  0  0  0
  161.4950  210.1240  140.6340 C   0  0  0  0  0  2  0  0  0  0  0  0
  162.9580  213.2750  137.4310 C   0  0  2  0  0  3  0  0  0  0  0  0
  162.2170  214.4530  137.0110 N   0  0  0  0  0  1  0  0  0  0  0  0
  161.4380  212.2800  139.7260 C   0  0  1  0  0  0  0  0  0  0  0  0
  162.1680  213.4960  139.6950 O   0  0  0  0  0  0  0  0  0  0  0  0
  160.9060  208.5000  137.4410 O   0  0  0  0  0  0  0  0  0  0  0  0
  162.1230  212.0220  137.2200 C   0  0  1  0  0  3  0  0  0  0  0  0
  159.0110  210.6440  138.8680 F   0  0  0  0  0  0  0  0  0  0  0  0
  162.2560  211.2630  140.2980 O   0  0  0  0  0  0  0  0  0  0  0  0
  161.6590  209.0390  139.5900 C   0  0  0  0  0  2  0  0  0  0  0  0
  160.9090  209.3380  138.3250 C   0  0  0  0  0  0  0  0  0  0  0  0
  162.9700  210.9170  137.2390 O   0  0  0  0  0  1  0  0  0  0  0  0
  160.1540  210.6190  138.0970 C   0  0  2  0  0  3  0  0  0  0  0  0
  161.6200  212.1450  149.0170 O   0  0  0  0  0  0  0  0  0  0  0  0
  159.9380  213.6760  149.5160 N   0  0  0  0  0  2  0  0  0  0  0  0
  160.6820  212.8700  148.5960 C   0  0  0  0  0  0  0  0  0  0  0  0
  160.0800  213.5950  150.9620 C   0  0  0  0  0  2  0  0  0  0  0  0
  158.8200  213.2230  151.5900 N   0  0  0  0  0  2  0  0  0  0  0  0
  158.7330  211.0530  152.4120 O   0  0  0  0  0  0  0  0  0  0  0  0
  158.7480  212.2880  152.6680 C   0  0  0  0  0  0  0  0  0  0  0  0
  159.6350  213.2430  156.2550 C   0  0  0  0  0  2  0  0  0  0  0  0
  158.6400  212.7570  154.0650 C   0  0  0  0  0  0  0  0  0  0  0  0
  158.4440  212.7360  156.8080 O   0  0  0  0  0  0  0  0  0  0  0  0
  157.2800  213.0070  154.6960 C   0  0  1  0  0  3  0  0  0  0  0  0
  159.7460  212.8250  154.8180 C   0  0  0  0  0  3  0  0  0  0  0  0
  157.4000  213.4330  156.1700 C   0  0  0  0  0  2  0  0  0  0  0  0
  156.5290  214.0890  153.9360 C   0  0  0  0  0  2  0  0  0  0  0  0
  155.1430  213.6960  153.7460 N   0  0  0  0  0  1  0  0  0  0  0  0
  1  4  1  0  0  0  0
  1  6  1  0  0  0  0
  2  4  2  0  0  0  0
  3  2  1  0  0  0  0
  4 30  1  0  0  0  0
  5  1  2  0  0  0  0
  7  3  2  0  0  0  0
  7  5  1  0  0  0  0
  8  9  1  0  0  0  0
  9 10  1  0  0  0  0
 10  7  1  0  0  0  0
 11  8  2  0  0  0  0
 12 10  2  0  0  0  0
 13 19  1  0  0  0  0
 14 18  1  0  0  0  0
 16 13  1  0  0  0  0
 17 16  1  0  0  0  0
 18 23  1  0  0  0  0
 18  8  1  0  0  0  0
 19 18  1  0  0  0  0
 20 25  2  0  0  0  0
 21 26  1  0  0  0  0
 21 16  1  0  0  0  0
 21 14  1  0  0  0  0
 23 15  1  0  0  0  0
 24 15  1  0  0  0  0
 25 24  1  0  0  0  0
 27 14  1  0  0  0  0
 27 25  1  0  0  0  0
 27 22  1  0  0  0  0
 29 31  1  0  0  0  0
 30 28  2  0  0  0  0
 30 29  1  0  0  0  0
 31 32  1  0  0  0  0
 32 34  1  0  0  0  0
 33 34  2  0  0  0  0
 34 36  1  0  0  0  0
 35 37  1  0  0  0  0
 36 38  1  0  0  0  0
 36 39  2  0  0  0  0
 38 40  1  0  0  0  0
 39 35  1  0  0  0  0
 40 37  1  0  0  0  0
 41 38  1  0  0  0  0
 42 41  1  0  0  0  0
M  END
>  <MODEL>
7

>  <REMARK>
 VINA RESULT:      -6.3      7.624     13.517
  Name = 
  7 active torsions:
  status: ('A' for Active; 'I' for Inactive)
    1  A    between atoms: C_2  and  N_3
    2  A    between atoms: C_2  and  N_36
    3  A    between atoms: C_5  and  C_16
    4  A    between atoms: C_6  and  C_40
    5  A    between atoms: C_15  and  C_33
    6  A    between atoms: C_19  and  C_23
    7  A    between atoms: C_24  and  C_41
                            x       y       z     vdW  Elec       q    Type
                         _______ _______ _______ _____ _____    ______ ____

>  <TORSDO>
F 7

$$$$
=
 OpenBabel11072410593D

 42 45  0  0  1  0  0  0  0  0999 V2000
  161.2060  206.4280  151.2050 C   0  0  0  0  0  0  0  0  0  0  0  0
  160.8860  204.9930  153.1350 C   0  0  0  0  0  3  0  0  0  0  0  0
  160.7750  206.1140  153.9560 C   0  0  0  0  0  3  0  0  0  0  0  0
  161.0940  205.1300  151.7530 C   0  0  0  0  0  0  0  0  0  0  0  0
  161.1030  207.5500  152.0380 C   0  0  0  0  0  3  0  0  0  0  0  0
  161.4210  206.6220  149.8470 O   0  0  0  0  0  1  0  0  0  0  0  0
  160.8820  207.4000  153.4140 C   0  0  0  0  0  0  0  0  0  0  0  0
  159.2450  210.6060  154.8010 C   0  0  0  0  0  0  0  0  0  0  0  0
  159.5580  209.4170  154.0690 N   0  0  0  0  0  2  0  0  0  0  0  0
  160.6980  208.5750  154.2790 C   0  0  0  0  0  0  0  0  0  0  0  0
  159.8680  210.8810  155.8630 O   0  0  0  0  0  0  0  0  0  0  0  0
  161.5560  208.8590  155.1620 O   0  0  0  0  0  0  0  0  0  0  0  0
  157.6770  212.4030  152.0930 C   0  0  0  0  0  2  0  0  0  0  0  0
  158.6250  213.0700  154.6720 C   0  0  1  0  0  3  0  0  0  0  0  0
  156.7190  211.0910  155.8720 C   0  0  0  0  0  2  0  0  0  0  0  0
  158.1490  213.8330  152.3000 C   0  0  2  0  0  3  0  0  0  0  0  0
  159.5250  213.9840  151.8540 N   0  0  0  0  0  1  0  0  0  0  0  0
  158.2760  211.6150  154.2060 C   0  0  1  0  0  0  0  0  0  0  0  0
  158.4920  211.5040  152.8080 O   0  0  0  0  0  0  0  0  0  0  0  0
  156.7000  214.4480  157.2530 O   0  0  0  0  0  0  0  0  0  0  0  0
  158.0310  214.1780  153.7760 C   0  0  1  0  0  3  0  0  0  0  0  0
  159.2350  212.5230  156.9550 F   0  0  0  0  0  0  0  0  0  0  0  0
  156.9170  211.2950  154.4910 O   0  0  0  0  0  0  0  0  0  0  0  0
  156.0940  212.3120  156.5140 C   0  0  0  0  0  2  0  0  0  0  0  0
  157.0710  213.4400  156.6800 C   0  0  0  0  0  0  0  0  0  0  0  0
  156.6910  214.4190  154.0690 O   0  0  0  0  0  1  0  0  0  0  0  0
  158.4880  213.3830  156.1790 C   0  0  2  0  0  3  0  0  0  0  0  0
  162.1710  203.1640  150.9440 O   0  0  0  0  0  0  0  0  0  0  0  0
  160.0420  203.5650  150.0880 N   0  0  0  0  0  2  0  0  0  0  0  0
  161.1530  203.9030  150.9250 C   0  0  0  0  0  0  0  0  0  0  0  0
  160.0670  202.4910  149.1060 C   0  0  0  0  0  2  0  0  0  0  0  0
  161.2740  202.5550  148.2930 N   0  0  0  0  0  2  0  0  0  0  0  0
  161.1900  201.3470  146.3120 O   0  0  0  0  0  0  0  0  0  0  0  0
  161.2410  202.4790  146.8670 C   0  0  0  0  0  0  0  0  0  0  0  0
  160.3420  205.2880  144.4450 C   0  0  0  0  0  2  0  0  0  0  0  0
  161.3180  203.7050  146.0460 C   0  0  0  0  0  0  0  0  0  0  0  0
  161.6280  205.3680  143.8770 O   0  0  0  0  0  0  0  0  0  0  0  0
  162.6340  204.4490  145.8850 C   0  0  1  0  0  3  0  0  0  0  0  0
  160.2500  204.0770  145.3270 C   0  0  0  0  0  3  0  0  0  0  0  0
  162.4980  205.6600  144.9450 C   0  0  0  0  0  2  0  0  0  0  0  0
  163.1410  204.9350  147.2340 C   0  0  0  0  0  2  0  0  0  0  0  0
  162.8640  206.3530  147.3900 N   0  0  0  0  0  1  0  0  0  0  0  0
  1  4  2  0  0  0  0
  1  5  1  0  0  0  0
  2  3  2  0  0  0  0
  4  2  1  0  0  0  0
  5  7  2  0  0  0  0
  6  1  1  0  0  0  0
  7  3  1  0  0  0  0
  7 10  1  0  0  0  0
  8 11  2  0  0  0  0
  9 10  1  0  0  0  0
  9  8  1  0  0  0  0
 10 12  2  0  0  0  0
 13 16  1  0  0  0  0
 13 19  1  0  0  0  0
 14 27  1  0  0  0  0
 15 24  1  0  0  0  0
 16 21  1  0  0  0  0
 17 16  1  0  0  0  0
 18 23  1  0  0  0  0
 18 14  1  0  0  0  0
 18  8  1  0  0  0  0
 19 18  1  0  0  0  0
 21 26  1  0  0  0  0
 21 14  1  0  0  0  0
 23 15  1  0  0  0  0
 24 25  1  0  0  0  0
 25 20  2  0  0  0  0
 27 25  1  0  0  0  0
 27 22  1  0  0  0  0
 29 30  1  0  0  0  0
 30 28  2  0  0  0  0
 30  4  1  0  0  0  0
 31 29  1  0  0  0  0
 32 31  1  0  0  0  0
 33 34  2  0  0  0  0
 34 32  1  0  0  0  0
 35 39  1  0  0  0  0
 36 34  1  0  0  0  0
 37 35  1  0  0  0  0
 37 40  1  0  0  0  0
 38 36  1  0  0  0  0
 38 41  1  0  0  0  0
 39 36  2  0  0  0  0
 40 38  1  0  0  0  0
 41 42  1  0  0  0  0
M  END
>  <MODEL>
8

>  <REMARK>
 VINA RESULT:      -5.8      2.133      3.993
  Name = 
  7 active torsions:
  status: ('A' for Active; 'I' for Inactive)
    1  A    between atoms: C_2  and  N_3
    2  A    between atoms: C_2  and  N_36
    3  A    between atoms: C_5  and  C_16
    4  A    between atoms: C_6  and  C_40
    5  A    between atoms: C_15  and  C_33
    6  A    between atoms: C_19  and  C_23
    7  A    between atoms: C_24  and  C_41
                            x       y       z     vdW  Elec       q    Type
                         _______ _______ _______ _____ _____    ______ ____

>  <TORSDO>
F 7

$$$$
