=
 OpenBabel11072414593D

 39 43  0  0  1  0  0  0  0  0999 V2000
  160.8310  203.4630  150.6720 C   0  0  0  0  0  3  0  0  0  0  0  0
  161.8170  205.8810  144.2250 C   0  0  0  0  0  0  0  0  0  0  0  0
  161.0450  205.8860  150.7830 C   0  0  0  0  0  0  0  0  0  0  0  0
  161.0010  204.5820  152.8350 C   0  0  0  0  0  0  0  0  0  0  0  0
  161.3950  205.9180  146.4820 C   0  0  2  0  0  0  0  0  0  0  0  0
  160.9370  203.4830  153.4490 O   0  0  0  0  0  0  0  0  0  0  0  0
  162.9990  205.8180  144.7260 N   0  0  0  0  0  0  0  0  0  0  0  0
  161.1560  207.0190  151.5320 N   0  0  0  0  0  0  0  0  0  0  0  0
  161.1070  207.1670  147.1800 N   0  0  0  0  0  2  0  0  0  0  0  0
  161.0650  207.2160  148.6080 C   0  0  0  0  0  0  0  0  0  0  0  0
  162.9110  205.8350  146.1800 C   0  0  2  0  0  3  0  0  0  0  0  0
  160.9570  204.6310  151.4330 C   0  0  0  0  0  0  0  0  0  0  0  0
  160.7700  205.9370  145.1720 N   0  0  0  0  0  2  0  0  0  0  0  0
  160.9170  204.7920  147.2270 O   0  0  0  0  0  0  0  0  0  0  0  0
  160.8090  203.5280  149.2790 C   0  0  0  0  0  3  0  0  0  0  0  0
  161.1850  206.9930  152.8910 C   0  0  0  0  0  0  0  0  0  0  0  0
  161.0250  208.3350  149.1850 O   0  0  0  0  0  0  0  0  0  0  0  0
  161.0260  205.9480  149.3700 C   0  0  0  0  0  0  0  0  0  0  0  0
  160.9200  204.7580  148.6280 C   0  0  0  0  0  0  0  0  0  0  0  0
  161.1230  205.7640  153.5630 C   0  0  0  0  0  2  0  0  0  0  0  0
  163.8840  203.6010  145.6530 C   0  0  0  0  0  1  0  0  0  0  0  0
  163.5970  204.5980  146.7570 C   0  0  0  0  0  2  0  0  0  0  0  0
  161.5800  205.8630  142.8100 C   0  0  0  0  0  0  0  0  0  0  0  0
  161.3920  205.8530  141.6680 N   0  0  0  0  0  0  0  0  0  0  0  0
  161.3590  208.2810  153.6400 C   0  0  1  0  0  3  0  0  0  0  0  0
  160.4560  209.3170  153.1560 N   0  0  0  0  0  2  0  0  0  0  0  0
  161.2760  210.4140  152.6650 C   0  0  0  0  0  2  0  0  0  0  0  0
  160.3880  211.5340  152.1440 C   0  0  0  0  0  2  0  0  0  0  0  0
  159.2710  211.8590  153.1250 C   0  0  1  0  0  3  0  0  0  0  0  0
  159.7960  212.4340  154.2840 O   0  0  0  0  0  1  0  0  0  0  0  0
  158.3050  212.8040  152.4940 C   0  0  0  0  0  0  0  0  0  0  0  0
  157.2710  213.3550  153.2420 O   0  0  0  0  0  1  0  0  0  0  0  0
  158.4320  213.1090  151.2800 O   0  0  0  0  0  0  0  0  0  0  0  0
  161.2030  208.0810  155.0830 N   0  0  0  0  0  0  0  0  0  0  0  0
  162.1570  210.1580  155.9730 C   0  0  0  0  0  2  0  0  0  0  0  0
  161.4260  209.4710  157.1010 C   0  0  0  0  0  2  0  0  0  0  0  0
  162.1520  208.6390  156.0540 C   0  0  0  0  0  3  0  0  0  0  0  0
  159.9720  207.5820  155.5390 C   0  0  0  0  0  0  0  0  0  0  0  0
  158.9580  207.1710  155.9130 N   0  0  0  0  0  0  0  0  0  0  0  0
  1 12  1  0  0  0  0
  2  7  2  0  0  0  0
  2 13  1  0  0  0  0
  3 12  2  0  0  0  0
  3  8  1  0  0  0  0
  4  6  2  0  0  0  0
  4 20  1  0  0  0  0
  5 13  1  6  0  0  0
  5  9  1  0  0  0  0
  5 14  1  0  0  0  0
  7 11  1  0  0  0  0
  8 16  2  0  0  0  0
  9 10  1  0  0  0  0
 10 17  2  0  0  0  0
 10 18  1  0  0  0  0
 11  5  1  0  0  0  0
 11 22  1  1  0  0  0
 12  4  1  0  0  0  0
 14 19  1  0  0  0  0
 15  1  2  0  0  0  0
 16 20  1  0  0  0  0
 16 25  1  0  0  0  0
 18  3  1  0  0  0  0
 19 15  1  0  0  0  0
 19 18  2  0  0  0  0
 21 22  1  0  0  0  0
 23  2  1  0  0  0  0
 24 23  3  0  0  0  0
 25 26  1  6  0  0  0
 25 34  1  0  0  0  0
 27 26  1  0  0  0  0
 28 27  1  0  0  0  0
 28 29  1  0  0  0  0
 29 30  1  1  0  0  0
 31 29  1  0  0  0  0
 31 32  1  0  0  0  0
 33 31  2  0  0  0  0
 34 38  1  0  0  0  0
 34 37  1  0  0  0  0
 35 37  1  0  0  0  0
 35 36  1  0  0  0  0
 37 36  1  0  0  0  0
 38 39  3  0  0  0  0
M  END
>  <MODEL>
1

>  <REMARK>
 VINA RESULT:      -4.2      0.000      0.000
  Name = 
  11 active torsions:
  status: ('A' for Active; 'I' for Inactive)
    1  A    between atoms: N_1  and  C_10
    2  A    between atoms: N_1  and  C_22
    3  A    between atoms: C_4  and  C_14
    4  A    between atoms: C_8  and  C_20
    5  A    between atoms: C_8  and  C_36
    6  A    between atoms: C_10  and  C_36
    7  A    between atoms: C_17  and  C_31
    8  A    between atoms: C_22  and  N_24
    9  A    between atoms: C_22  and  C_29
   10  A    between atoms: N_24  and  C_27
   11  A    between atoms: N_24  and  C_37
                            x       y       z     vdW  Elec       q    Type
                         _______ _______ _______ _____ _____    ______ ____

>  <TORSDO>
F 11

$$$$
=
 OpenBabel11072414593D

 39 43  0  0  1  0  0  0  0  0999 V2000
  162.2420  210.1910  149.4200 C   0  0  0  0  0  3  0  0  0  0  0  0
  161.7120  203.6260  151.6570 C   0  0  0  0  0  0  0  0  0  0  0  0
  161.0050  210.1900  151.5180 C   0  0  0  0  0  0  0  0  0  0  0  0
  161.1620  212.2340  150.2090 C   0  0  0  0  0  0  0  0  0  0  0  0
  161.5920  205.9190  151.7050 C   0  0  2  0  0  0  0  0  0  0  0  0
  161.5540  212.8750  149.1960 O   0  0  0  0  0  0  0  0  0  0  0  0
  160.5920  203.8550  151.0700 N   0  0  0  0  0  0  0  0  0  0  0  0
  160.2700  210.8670  152.4430 N   0  0  0  0  0  0  0  0  0  0  0  0
  161.1700  206.6320  152.9080 N   0  0  0  0  0  2  0  0  0  0  0  0
  160.8840  208.0310  152.8680 C   0  0  0  0  0  0  0  0  0  0  0  0
  160.3550  205.2910  151.0180 C   0  0  2  0  0  3  0  0  0  0  0  0
  161.4760  210.8750  150.3710 C   0  0  0  0  0  0  0  0  0  0  0  0
  162.4110  204.7800  152.0770 N   0  0  0  0  0  2  0  0  0  0  0  0
  162.3320  206.7810  150.8320 O   0  0  0  0  0  0  0  0  0  0  0  0
  162.5290  208.8370  149.5870 C   0  0  0  0  0  3  0  0  0  0  0  0
  159.9680  212.1860  152.3110 C   0  0  0  0  0  0  0  0  0  0  0  0
  160.3240  208.5730  153.8570 O   0  0  0  0  0  0  0  0  0  0  0  0
  161.2940  208.8150  151.6820 C   0  0  0  0  0  0  0  0  0  0  0  0
  162.0480  208.1460  150.7010 C   0  0  0  0  0  0  0  0  0  0  0  0
  160.4000  212.8860  151.1760 C   0  0  0  0  0  2  0  0  0  0  0  0
  160.9040  204.8080  148.6350 C   0  0  0  0  0  1  0  0  0  0  0  0
  160.1520  205.7340  149.5710 C   0  0  0  0  0  2  0  0  0  0  0  0
  162.2280  202.2990  151.8400 C   0  0  0  0  0  0  0  0  0  0  0  0
  162.6400  201.2280  151.9840 N   0  0  0  0  0  0  0  0  0  0  0  0
  159.1110  212.8440  153.3520 C   0  0  1  0  0  3  0  0  0  0  0  0
  157.7080  212.8760  152.9610 N   0  0  0  0  0  2  0  0  0  0  0  0
  157.4340  214.2020  152.4290 C   0  0  0  0  0  2  0  0  0  0  0  0
  156.2630  214.1420  151.4590 C   0  0  0  0  0  2  0  0  0  0  0  0
  156.7060  214.4490  150.0360 C   0  0  1  0  0  3  0  0  0  0  0  0
  157.6380  213.5030  149.6030 O   0  0  0  0  0  1  0  0  0  0  0  0
  155.5240  214.4370  149.1270 C   0  0  0  0  0  0  0  0  0  0  0  0
  155.6990  214.4530  147.7480 O   0  0  0  0  0  0  0  0  0  0  0  0
  154.3630  214.4050  149.6110 O   0  0  0  0  0  1  0  0  0  0  0  0
  159.2780  212.2040  154.6590 N   0  0  0  0  0  0  0  0  0  0  0  0
  159.8420  212.6720  157.0000 C   0  0  0  0  0  2  0  0  0  0  0  0
  160.6280  211.4550  156.5740 C   0  0  0  0  0  2  0  0  0  0  0  0
  160.3650  212.5720  155.5750 C   0  0  0  0  0  3  0  0  0  0  0  0
  158.2120  211.4270  155.1400 C   0  0  0  0  0  0  0  0  0  0  0  0
  157.3320  210.7880  155.5360 N   0  0  0  0  0  0  0  0  0  0  0  0
  1 15  2  0  0  0  0
  1 12  1  0  0  0  0
  2 23  1  0  0  0  0
  2 13  1  0  0  0  0
  3 18  1  0  0  0  0
  3  8  1  0  0  0  0
  4 12  1  0  0  0  0
  4 20  1  0  0  0  0
  5 14  1  6  0  0  0
  5 13  1  0  0  0  0
  5  9  1  0  0  0  0
  6  4  2  0  0  0  0
  7  2  2  0  0  0  0
 10  9  1  0  0  0  0
 10 17  2  0  0  0  0
 11 22  1  6  0  0  0
 11  7  1  0  0  0  0
 11  5  1  0  0  0  0
 12  3  2  0  0  0  0
 15 19  1  0  0  0  0
 16  8  2  0  0  0  0
 16 25  1  0  0  0  0
 18 10  1  0  0  0  0
 19 14  1  0  0  0  0
 19 18  2  0  0  0  0
 20 16  1  0  0  0  0
 21 22  1  0  0  0  0
 23 24  3  0  0  0  0
 25 26  1  6  0  0  0
 25 34  1  0  0  0  0
 27 26  1  0  0  0  0
 28 27  1  0  0  0  0
 29 30  1  6  0  0  0
 29 28  1  0  0  0  0
 31 33  1  0  0  0  0
 31 29  1  0  0  0  0
 32 31  2  0  0  0  0
 34 38  1  0  0  0  0
 34 37  1  0  0  0  0
 36 35  1  0  0  0  0
 37 36  1  0  0  0  0
 37 35  1  0  0  0  0
 38 39  3  0  0  0  0
M  END
>  <MODEL>
2

>  <REMARK>
 VINA RESULT:      -4.2      3.464      5.861
  Name = 
  11 active torsions:
  status: ('A' for Active; 'I' for Inactive)
    1  A    between atoms: N_1  and  C_10
    2  A    between atoms: N_1  and  C_22
    3  A    between atoms: C_4  and  C_14
    4  A    between atoms: C_8  and  C_20
    5  A    between atoms: C_8  and  C_36
    6  A    between atoms: C_10  and  C_36
    7  A    between atoms: C_17  and  C_31
    8  A    between atoms: C_22  and  N_24
    9  A    between atoms: C_22  and  C_29
   10  A    between atoms: N_24  and  C_27
   11  A    between atoms: N_24  and  C_37
                            x       y       z     vdW  Elec       q    Type
                         _______ _______ _______ _____ _____    ______ ____

>  <TORSDO>
F 11

$$$$
=
 OpenBabel11072414593D

 39 43  0  0  1  0  0  0  0  0999 V2000
  162.0310  210.7200  149.5730 C   0  0  0  0  0  3  0  0  0  0  0  0
  161.7140  204.0460  151.5090 C   0  0  0  0  0  0  0  0  0  0  0  0
  160.7860  210.5830  151.6620 C   0  0  0  0  0  0  0  0  0  0  0  0
  160.8790  212.6870  150.4480 C   0  0  0  0  0  0  0  0  0  0  0  0
  161.5160  206.3300  151.6600 C   0  0  2  0  0  0  0  0  0  0  0  0
  161.2530  213.3860  149.4670 O   0  0  0  0  0  0  0  0  0  0  0  0
  160.5890  204.2640  150.9270 N   0  0  0  0  0  0  0  0  0  0  0  0
  160.0250  211.1910  152.6140 N   0  0  0  0  0  0  0  0  0  0  0  0
  161.0650  206.9720  152.8910 N   0  0  0  0  0  2  0  0  0  0  0  0
  160.7320  208.3620  152.9140 C   0  0  0  0  0  0  0  0  0  0  0  0
  160.3040  205.6920  150.9390 C   0  0  2  0  0  3  0  0  0  0  0  0
  161.2380  211.3340  150.5510 C   0  0  0  0  0  0  0  0  0  0  0  0
  162.3720  205.2030  151.9850 N   0  0  0  0  0  2  0  0  0  0  0  0
  162.2300  207.2540  150.8310 O   0  0  0  0  0  0  0  0  0  0  0  0
  162.3620  209.3700  149.6810 C   0  0  0  0  0  3  0  0  0  0  0  0
  159.6790  212.5040  152.5390 C   0  0  0  0  0  0  0  0  0  0  0  0
  160.1500  208.8400  153.9230 O   0  0  0  0  0  0  0  0  0  0  0  0
  161.1210  209.2120  151.7660 C   0  0  0  0  0  0  0  0  0  0  0  0
  161.9010  208.6140  150.7600 C   0  0  0  0  0  0  0  0  0  0  0  0
  160.0920  213.2690  151.4400 C   0  0  0  0  0  2  0  0  0  0  0  0
  160.7740  205.2620  148.5280 C   0  0  0  0  0  1  0  0  0  0  0  0
  160.0920  206.1930  149.5120 C   0  0  0  0  0  2  0  0  0  0  0  0
  162.2730  202.7310  151.6350 C   0  0  0  0  0  0  0  0  0  0  0  0
  162.7260  201.6710  151.7320 N   0  0  0  0  0  0  0  0  0  0  0  0
  158.7960  213.0860  153.6040 C   0  0  1  0  0  3  0  0  0  0  0  0
  157.5540  212.3380  153.7490 N   0  0  0  0  0  2  0  0  0  0  0  0
  156.4580  213.2620  153.5020 C   0  0  0  0  0  2  0  0  0  0  0  0
  155.2930  212.9480  154.4280 C   0  0  0  0  0  2  0  0  0  0  0  0
  155.6520  213.2200  155.8820 C   0  0  1  0  0  3  0  0  0  0  0  0
  154.6810  214.0280  156.4780 O   0  0  0  0  0  1  0  0  0  0  0  0
  155.7520  211.9310  156.6260 C   0  0  0  0  0  0  0  0  0  0  0  0
  154.6020  211.2530  157.0140 O   0  0  0  0  0  1  0  0  0  0  0  0
  156.8840  211.4530  156.8970 O   0  0  0  0  0  0  0  0  0  0  0  0
  159.5030  213.1840  154.8840 N   0  0  0  0  0  0  0  0  0  0  0  0
  158.7650  214.3160  156.9310 C   0  0  0  0  0  2  0  0  0  0  0  0
  160.2720  214.2250  156.9760 C   0  0  0  0  0  2  0  0  0  0  0  0
  159.5680  214.4380  155.6440 C   0  0  0  0  0  3  0  0  0  0  0  0
  159.8800  211.9840  155.5090 C   0  0  0  0  0  0  0  0  0  0  0  0
  160.1900  210.9960  156.0240 N   0  0  0  0  0  0  0  0  0  0  0  0
  1 15  2  0  0  0  0
  1 12  1  0  0  0  0
  2 23  1  0  0  0  0
  2 13  1  0  0  0  0
  3 18  1  0  0  0  0
  3  8  1  0  0  0  0
  4 12  1  0  0  0  0
  4 20  1  0  0  0  0
  5 14  1  6  0  0  0
  5 13  1  0  0  0  0
  5  9  1  0  0  0  0
  6  4  2  0  0  0  0
  7 11  1  0  0  0  0
  7  2  2  0  0  0  0
  9 10  1  0  0  0  0
 10 17  2  0  0  0  0
 11 22  1  6  0  0  0
 11  5  1  0  0  0  0
 12  3  2  0  0  0  0
 15 19  1  0  0  0  0
 16  8  2  0  0  0  0
 16 25  1  0  0  0  0
 18 10  1  0  0  0  0
 19 14  1  0  0  0  0
 19 18  2  0  0  0  0
 20 16  1  0  0  0  0
 21 22  1  0  0  0  0
 23 24  3  0  0  0  0
 25 26  1  1  0  0  0
 25 34  1  0  0  0  0
 27 26  1  0  0  0  0
 27 28  1  0  0  0  0
 28 29  1  0  0  0  0
 29 30  1  1  0  0  0
 29 31  1  0  0  0  0
 31 33  2  0  0  0  0
 31 32  1  0  0  0  0
 34 38  1  0  0  0  0
 34 37  1  0  0  0  0
 35 36  1  0  0  0  0
 37 35  1  0  0  0  0
 37 36  1  0  0  0  0
 38 39  3  0  0  0  0
M  END
>  <MODEL>
3

>  <REMARK>
 VINA RESULT:      -3.9      3.498      6.138
  Name = 
  11 active torsions:
  status: ('A' for Active; 'I' for Inactive)
    1  A    between atoms: N_1  and  C_10
    2  A    between atoms: N_1  and  C_22
    3  A    between atoms: C_4  and  C_14
    4  A    between atoms: C_8  and  C_20
    5  A    between atoms: C_8  and  C_36
    6  A    between atoms: C_10  and  C_36
    7  A    between atoms: C_17  and  C_31
    8  A    between atoms: C_22  and  N_24
    9  A    between atoms: C_22  and  C_29
   10  A    between atoms: N_24  and  C_27
   11  A    between atoms: N_24  and  C_37
                            x       y       z     vdW  Elec       q    Type
                         _______ _______ _______ _____ _____    ______ ____

>  <TORSDO>
F 11

$$$$
=
 OpenBabel11072414593D

 39 43  0  0  1  0  0  0  0  0999 V2000
  160.8020  205.4840  154.2240 C   0  0  0  0  0  3  0  0  0  0  0  0
  159.9930  212.3050  155.3210 C   0  0  0  0  0  0  0  0  0  0  0  0
  161.0470  206.6400  152.0950 C   0  0  0  0  0  0  0  0  0  0  0  0
  160.9410  204.2110  152.1450 C   0  0  0  0  0  0  0  0  0  0  0  0
  160.5150  210.3640  154.2100 C   0  0  2  0  0  0  0  0  0  0  0  0
  160.8280  203.1180  152.7650 O   0  0  0  0  0  0  0  0  0  0  0  0
  158.8440  211.9100  154.9010 N   0  0  0  0  0  0  0  0  0  0  0  0
  161.1820  206.5830  150.7410 N   0  0  0  0  0  0  0  0  0  0  0  0
  161.0620  210.3870  152.8560 N   0  0  0  0  0  2  0  0  0  0  0  0
  161.1760  209.1860  152.0900 C   0  0  0  0  0  0  0  0  0  0  0  0
  158.9980  210.6670  154.1580 C   0  0  2  0  0  3  0  0  0  0  0  0
  160.9300  205.4360  152.8310 C   0  0  0  0  0  0  0  0  0  0  0  0
  161.0740  211.4610  154.9790 N   0  0  0  0  0  2  0  0  0  0  0  0
  160.8100  209.1210  154.8590 O   0  0  0  0  0  0  0  0  0  0  0  0
  160.7740  206.7100  154.8880 C   0  0  0  0  0  3  0  0  0  0  0  0
  161.2100  205.4060  150.0600 C   0  0  0  0  0  0  0  0  0  0  0  0
  161.4490  209.2620  150.8630 O   0  0  0  0  0  0  0  0  0  0  0  0
  161.0140  207.8820  152.7710 C   0  0  0  0  0  0  0  0  0  0  0  0
  160.8640  207.9040  154.1690 C   0  0  0  0  0  0  0  0  0  0  0  0
  161.0730  204.1990  150.7580 C   0  0  0  0  0  2  0  0  0  0  0  0
  156.9020  210.2020  155.4250 C   0  0  0  0  0  1  0  0  0  0  0  0
  158.1220  209.5790  154.7750 C   0  0  0  0  0  2  0  0  0  0  0  0
  160.1580  213.4950  156.1040 C   0  0  0  0  0  0  0  0  0  0  0  0
  160.2950  214.4530  156.7390 N   0  0  0  0  0  0  0  0  0  0  0  0
  161.3120  205.4330  148.5640 C   0  0  1  0  0  3  0  0  0  0  0  0
  161.9720  206.6410  148.0850 N   0  0  0  0  0  2  0  0  0  0  0  0
  160.9960  207.3930  147.3130 C   0  0  0  0  0  2  0  0  0  0  0  0
  161.0470  206.9660  145.8530 C   0  0  0  0  0  2  0  0  0  0  0  0
  160.1540  205.7610  145.5960 C   0  0  1  0  0  3  0  0  0  0  0  0
  158.8740  206.1770  145.2220 O   0  0  0  0  0  1  0  0  0  0  0  0
  160.7410  204.9200  144.5140 C   0  0  0  0  0  0  0  0  0  0  0  0
  160.3260  203.6040  144.3440 O   0  0  0  0  0  1  0  0  0  0  0  0
  161.6110  205.4070  143.7460 O   0  0  0  0  0  0  0  0  0  0  0  0
  161.9810  204.2330  148.0560 N   0  0  0  0  0  0  0  0  0  0  0  0
  160.1220  202.6710  147.7080 C   0  0  0  0  0  2  0  0  0  0  0  0
  161.3500  202.0700  147.0670 C   0  0  0  0  0  2  0  0  0  0  0  0
  161.4860  202.8820  148.3470 C   0  0  0  0  0  3  0  0  0  0  0  0
  162.9460  204.4060  147.0500 C   0  0  0  0  0  0  0  0  0  0  0  0
  163.7410  204.5500  146.2220 N   0  0  0  0  0  0  0  0  0  0  0  0
  1 15  1  0  0  0  0
  2 23  1  0  0  0  0
  3 18  2  0  0  0  0
  3 12  1  0  0  0  0
  4  6  2  0  0  0  0
  4 12  1  0  0  0  0
  5  9  1  6  0  0  0
  5 14  1  0  0  0  0
  5 13  1  0  0  0  0
  7  2  2  0  0  0  0
  8  3  1  0  0  0  0
 10 18  1  0  0  0  0
 10  9  1  0  0  0  0
 11  5  1  0  0  0  0
 11 22  1  1  0  0  0
 11  7  1  0  0  0  0
 12  1  2  0  0  0  0
 13  2  1  0  0  0  0
 16  8  2  0  0  0  0
 16 20  1  0  0  0  0
 17 10  2  0  0  0  0
 18 19  1  0  0  0  0
 19 14  1  0  0  0  0
 19 15  2  0  0  0  0
 20  4  1  0  0  0  0
 22 21  1  0  0  0  0
 23 24  3  0  0  0  0
 25 26  1  1  0  0  0
 25 16  1  0  0  0  0
 27 26  1  0  0  0  0
 28 27  1  0  0  0  0
 29 30  1  6  0  0  0
 29 28  1  0  0  0  0
 31 29  1  0  0  0  0
 32 31  1  0  0  0  0
 33 31  2  0  0  0  0
 34 37  1  0  0  0  0
 34 25  1  0  0  0  0
 35 37  1  0  0  0  0
 36 35  1  0  0  0  0
 36 37  1  0  0  0  0
 38 34  1  0  0  0  0
 39 38  3  0  0  0  0
M  END
>  <MODEL>
4

>  <REMARK>
 VINA RESULT:      -3.5      2.433      9.122
  Name = 
  11 active torsions:
  status: ('A' for Active; 'I' for Inactive)
    1  A    between atoms: N_1  and  C_10
    2  A    between atoms: N_1  and  C_22
    3  A    between atoms: C_4  and  C_14
    4  A    between atoms: C_8  and  C_20
    5  A    between atoms: C_8  and  C_36
    6  A    between atoms: C_10  and  C_36
    7  A    between atoms: C_17  and  C_31
    8  A    between atoms: C_22  and  N_24
    9  A    between atoms: C_22  and  C_29
   10  A    between atoms: N_24  and  C_27
   11  A    between atoms: N_24  and  C_37
                            x       y       z     vdW  Elec       q    Type
                         _______ _______ _______ _____ _____    ______ ____

>  <TORSDO>
F 11

$$$$
=
 OpenBabel11072414593D

 39 43  0  0  1  0  0  0  0  0999 V2000
  161.9670  210.2220  149.7280 C   0  0  0  0  0  3  0  0  0  0  0  0
  161.8140  203.5140  151.5600 C   0  0  0  0  0  0  0  0  0  0  0  0
  160.8140  210.0340  151.8640 C   0  0  0  0  0  0  0  0  0  0  0  0
  160.8300  212.1600  150.6830 C   0  0  0  0  0  0  0  0  0  0  0  0
  161.5940  205.7910  151.7590 C   0  0  2  0  0  0  0  0  0  0  0  0
  161.1540  212.8800  149.7000 O   0  0  0  0  0  0  0  0  0  0  0  0
  160.6630  203.7260  151.0300 N   0  0  0  0  0  0  0  0  0  0  0  0
  160.0860  210.6170  152.8570 N   0  0  0  0  0  0  0  0  0  0  0  0
  161.1880  206.4080  153.0180 N   0  0  0  0  0  2  0  0  0  0  0  0
  160.8400  207.7920  153.0780 C   0  0  0  0  0  0  0  0  0  0  0  0
  160.3610  205.1500  151.0780 C   0  0  2  0  0  3  0  0  0  0  0  0
  161.2100  210.8100  150.7480 C   0  0  0  0  0  0  0  0  0  0  0  0
  162.4770  204.6710  152.0280 N   0  0  0  0  0  2  0  0  0  0  0  0
  162.2620  206.7380  150.9170 O   0  0  0  0  0  0  0  0  0  0  0  0
  162.3200  208.8740  149.7980 C   0  0  0  0  0  3  0  0  0  0  0  0
  159.7210  211.9260  152.8190 C   0  0  0  0  0  0  0  0  0  0  0  0
  160.2950  208.2460  154.1190 O   0  0  0  0  0  0  0  0  0  0  0  0
  161.1690  208.6660  151.9310 C   0  0  0  0  0  0  0  0  0  0  0  0
  161.9130  208.0950  150.8830 C   0  0  0  0  0  0  0  0  0  0  0  0
  160.0780  212.7140  151.7160 C   0  0  0  0  0  2  0  0  0  0  0  0
  160.8940  204.8880  148.6570 C   0  0  0  0  0  1  0  0  0  0  0  0
  160.0830  205.6720  149.6700 C   0  0  0  0  0  2  0  0  0  0  0  0
  162.3940  202.2040  151.6410 C   0  0  0  0  0  0  0  0  0  0  0  0
  162.8650  201.1490  151.7070 N   0  0  0  0  0  0  0  0  0  0  0  0
  158.8770  212.4790  153.9300 C   0  0  1  0  0  3  0  0  0  0  0  0
  157.5270  211.9280  153.9130 N   0  0  0  0  0  2  0  0  0  0  0  0
  157.2730  211.3610  155.2280 C   0  0  0  0  0  2  0  0  0  0  0  0
  155.8030  211.5180  155.5870 C   0  0  0  0  0  2  0  0  0  0  0  0
  155.6000  212.6100  156.6270 C   0  0  1  0  0  3  0  0  0  0  0  0
  156.8090  212.9080  157.2590 O   0  0  0  0  0  1  0  0  0  0  0  0
  155.0640  213.8370  155.9720 C   0  0  0  0  0  0  0  0  0  0  0  0
  153.7960  214.3080  156.2920 O   0  0  0  0  0  1  0  0  0  0  0  0
  155.7670  214.4530  155.1290 O   0  0  0  0  0  0  0  0  0  0  0  0
  159.5120  212.2710  155.2340 N   0  0  0  0  0  0  0  0  0  0  0  0
  161.5760  211.1260  155.9000 C   0  0  0  0  0  2  0  0  0  0  0  0
  160.6050  211.0260  157.0520 C   0  0  0  0  0  2  0  0  0  0  0  0
  160.0880  210.9780  155.6220 C   0  0  0  0  0  3  0  0  0  0  0  0
  159.8110  213.4100  155.9980 C   0  0  0  0  0  0  0  0  0  0  0  0
  160.0570  214.3490  156.6270 N   0  0  0  0  0  0  0  0  0  0  0  0
  1 15  2  0  0  0  0
  1 12  1  0  0  0  0
  2 23  1  0  0  0  0
  2 13  1  0  0  0  0
  3 18  1  0  0  0  0
  3  8  1  0  0  0  0
  4 12  1  0  0  0  0
  4 20  1  0  0  0  0
  5 14  1  6  0  0  0
  5 13  1  0  0  0  0
  5  9  1  0  0  0  0
  6  4  2  0  0  0  0
  7 11  1  0  0  0  0
  7  2  2  0  0  0  0
  9 10  1  0  0  0  0
 10 17  2  0  0  0  0
 11 22  1  6  0  0  0
 11  5  1  0  0  0  0
 12  3  2  0  0  0  0
 15 19  1  0  0  0  0
 16  8  2  0  0  0  0
 16 25  1  0  0  0  0
 18 10  1  0  0  0  0
 19 14  1  0  0  0  0
 19 18  2  0  0  0  0
 20 16  1  0  0  0  0
 21 22  1  0  0  0  0
 23 24  3  0  0  0  0
 25 26  1  1  0  0  0
 25 34  1  0  0  0  0
 26 27  1  0  0  0  0
 27 28  1  0  0  0  0
 28 29  1  0  0  0  0
 29 30  1  6  0  0  0
 31 32  1  0  0  0  0
 31 29  1  0  0  0  0
 33 31  2  0  0  0  0
 34 37  1  0  0  0  0
 34 38  1  0  0  0  0
 35 36  1  0  0  0  0
 37 35  1  0  0  0  0
 37 36  1  0  0  0  0
 38 39  3  0  0  0  0
M  END
>  <MODEL>
5

>  <REMARK>
 VINA RESULT:      -3.3      3.437      5.854
  Name = 
  11 active torsions:
  status: ('A' for Active; 'I' for Inactive)
    1  A    between atoms: N_1  and  C_10
    2  A    between atoms: N_1  and  C_22
    3  A    between atoms: C_4  and  C_14
    4  A    between atoms: C_8  and  C_20
    5  A    between atoms: C_8  and  C_36
    6  A    between atoms: C_10  and  C_36
    7  A    between atoms: C_17  and  C_31
    8  A    between atoms: C_22  and  N_24
    9  A    between atoms: C_22  and  C_29
   10  A    between atoms: N_24  and  C_27
   11  A    between atoms: N_24  and  C_37
                            x       y       z     vdW  Elec       q    Type
                         _______ _______ _______ _____ _____    ______ ____

>  <TORSDO>
F 11

$$$$
=
 OpenBabel11072414593D

 39 43  0  0  1  0  0  0  0  0999 V2000
  161.0050  203.0830  150.2860 C   0  0  0  0  0  3  0  0  0  0  0  0
  161.7060  205.8320  143.9340 C   0  0  0  0  0  0  0  0  0  0  0  0
  160.8740  205.5070  150.4770 C   0  0  0  0  0  0  0  0  0  0  0  0
  160.9940  204.1410  152.4860 C   0  0  0  0  0  0  0  0  0  0  0  0
  161.2600  205.7320  146.1850 C   0  0  2  0  0  0  0  0  0  0  0  0
  161.0790  203.0240  153.0630 O   0  0  0  0  0  0  0  0  0  0  0  0
  162.8790  205.9180  144.4510 N   0  0  0  0  0  0  0  0  0  0  0  0
  160.8180  206.6180  151.2640 N   0  0  0  0  0  0  0  0  0  0  0  0
  160.7920  206.9050  146.9190 N   0  0  0  0  0  2  0  0  0  0  0  0
  160.7290  206.9000  148.3460 C   0  0  0  0  0  0  0  0  0  0  0  0
  162.7760  205.8730  145.9030 C   0  0  2  0  0  3  0  0  0  0  0  0
  160.9580  204.2310  151.0850 C   0  0  0  0  0  0  0  0  0  0  0  0
  160.6520  205.7080  144.8680 N   0  0  0  0  0  2  0  0  0  0  0  0
  160.9380  204.5260  146.8870 O   0  0  0  0  0  0  0  0  0  0  0  0
  160.9880  203.1910  148.8950 C   0  0  0  0  0  3  0  0  0  0  0  0
  160.8370  206.5510  152.6210 C   0  0  0  0  0  0  0  0  0  0  0  0
  160.5270  207.9810  148.9580 O   0  0  0  0  0  0  0  0  0  0  0  0
  160.8610  205.6140  149.0670 C   0  0  0  0  0  0  0  0  0  0  0  0
  160.9310  204.4460  148.2860 C   0  0  0  0  0  0  0  0  0  0  0  0
  160.9420  205.3040  153.2520 C   0  0  0  0  0  2  0  0  0  0  0  0
  164.1620  203.8880  145.3080 C   0  0  0  0  0  1  0  0  0  0  0  0
  163.6230  204.7270  146.4500 C   0  0  0  0  0  2  0  0  0  0  0  0
  161.4880  205.8280  142.5160 C   0  0  0  0  0  0  0  0  0  0  0  0
  161.3130  205.8300  141.3730 N   0  0  0  0  0  0  0  0  0  0  0  0
  160.8200  207.8250  153.4140 C   0  0  1  0  0  3  0  0  0  0  0  0
  161.9480  207.9090  154.3330 N   0  0  0  0  0  2  0  0  0  0  0  0
  161.4440  207.6250  155.6670 C   0  0  0  0  0  2  0  0  0  0  0  0
  162.0460  208.5990  156.6690 C   0  0  0  0  0  2  0  0  0  0  0  0
  161.7940  210.0430  156.2600 C   0  0  1  0  0  3  0  0  0  0  0  0
  160.9830  210.6790  157.2020 O   0  0  0  0  0  1  0  0  0  0  0  0
  163.0920  210.7690  156.1480 C   0  0  0  0  0  0  0  0  0  0  0  0
  163.8360  210.7000  154.9760 O   0  0  0  0  0  0  0  0  0  0  0  0
  163.5110  211.4520  157.1180 O   0  0  0  0  0  1  0  0  0  0  0  0
  160.7710  208.9960  152.5350 N   0  0  0  0  0  0  0  0  0  0  0  0
  160.0710  210.8950  153.9200 C   0  0  0  0  0  2  0  0  0  0  0  0
  160.3880  211.4260  152.5420 C   0  0  0  0  0  2  0  0  0  0  0  0
  159.7610  210.0490  152.6940 C   0  0  0  0  0  3  0  0  0  0  0  0
  161.8830  209.2340  151.7110 C   0  0  0  0  0  0  0  0  0  0  0  0
  162.7990  209.4300  151.0320 N   0  0  0  0  0  0  0  0  0  0  0  0
  1 12  1  0  0  0  0
  2  7  2  0  0  0  0
  2 13  1  0  0  0  0
  3 12  2  0  0  0  0
  3  8  1  0  0  0  0
  4  6  2  0  0  0  0
  4 20  1  0  0  0  0
  5 13  1  6  0  0  0
  5 14  1  0  0  0  0
  5  9  1  0  0  0  0
  7 11  1  0  0  0  0
  8 16  2  0  0  0  0
  9 10  1  0  0  0  0
 10 17  2  0  0  0  0
 10 18  1  0  0  0  0
 11  5  1  0  0  0  0
 11 22  1  6  0  0  0
 12  4  1  0  0  0  0
 14 19  1  0  0  0  0
 15  1  2  0  0  0  0
 16 20  1  0  0  0  0
 16 25  1  0  0  0  0
 18  3  1  0  0  0  0
 19 15  1  0  0  0  0
 19 18  2  0  0  0  0
 21 22  1  0  0  0  0
 23  2  1  0  0  0  0
 24 23  3  0  0  0  0
 25 26  1  6  0  0  0
 26 27  1  0  0  0  0
 27 28  1  0  0  0  0
 29 28  1  0  0  0  0
 29 30  1  1  0  0  0
 31 29  1  0  0  0  0
 31 33  1  0  0  0  0
 32 31  2  0  0  0  0
 34 37  1  0  0  0  0
 34 25  1  0  0  0  0
 36 37  1  0  0  0  0
 36 35  1  0  0  0  0
 37 35  1  0  0  0  0
 38 34  1  0  0  0  0
 39 38  3  0  0  0  0
M  END
>  <MODEL>
6

>  <REMARK>
 VINA RESULT:      -2.9      1.751      3.102
  Name = 
  11 active torsions:
  status: ('A' for Active; 'I' for Inactive)
    1  A    between atoms: N_1  and  C_10
    2  A    between atoms: N_1  and  C_22
    3  A    between atoms: C_4  and  C_14
    4  A    between atoms: C_8  and  C_20
    5  A    between atoms: C_8  and  C_36
    6  A    between atoms: C_10  and  C_36
    7  A    between atoms: C_17  and  C_31
    8  A    between atoms: C_22  and  N_24
    9  A    between atoms: C_22  and  C_29
   10  A    between atoms: N_24  and  C_27
   11  A    between atoms: N_24  and  C_37
                            x       y       z     vdW  Elec       q    Type
                         _______ _______ _______ _____ _____    ______ ____

>  <TORSDO>
F 11

$$$$
=
 OpenBabel11072414593D

 39 43  0  0  1  0  0  0  0  0999 V2000
  160.6840  203.9640  150.9020 C   0  0  0  0  0  3  0  0  0  0  0  0
  161.7280  205.8700  144.2940 C   0  0  0  0  0  0  0  0  0  0  0  0
  161.0860  206.3650  150.8480 C   0  0  0  0  0  0  0  0  0  0  0  0
  160.9820  205.2060  152.9830 C   0  0  0  0  0  0  0  0  0  0  0  0
  161.3540  206.0870  146.5500 C   0  0  2  0  0  0  0  0  0  0  0  0
  160.8450  204.1570  153.6700 O   0  0  0  0  0  0  0  0  0  0  0  0
  162.9110  205.7480  144.7820 N   0  0  0  0  0  0  0  0  0  0  0  0
  161.2990  207.5320  151.5180 N   0  0  0  0  0  0  0  0  0  0  0  0
  161.1770  207.3980  147.1670 N   0  0  0  0  0  2  0  0  0  0  0  0
  161.1670  207.5440  148.5890 C   0  0  0  0  0  0  0  0  0  0  0  0
  162.8530  205.8660  146.2320 C   0  0  2  0  0  3  0  0  0  0  0  0
  160.9150  205.1660  151.5810 C   0  0  0  0  0  0  0  0  0  0  0  0
  160.7070  206.0700  145.2510 N   0  0  0  0  0  2  0  0  0  0  0  0
  160.8050  205.0530  147.3760 O   0  0  0  0  0  0  0  0  0  0  0  0
  160.6400  203.9390  149.5080 C   0  0  0  0  0  3  0  0  0  0  0  0
  161.3530  207.5930  152.8750 C   0  0  0  0  0  0  0  0  0  0  0  0
  161.2250  208.6980  149.0900 O   0  0  0  0  0  0  0  0  0  0  0  0
  161.0440  206.3360  149.4340 C   0  0  0  0  0  0  0  0  0  0  0  0
  160.8330  205.1110  148.7750 C   0  0  0  0  0  0  0  0  0  0  0  0
  161.2090  206.4190  153.6280 C   0  0  0  0  0  2  0  0  0  0  0  0
  162.8500  203.3730  146.2640 C   0  0  0  0  0  1  0  0  0  0  0  0
  163.4520  204.6210  146.8810 C   0  0  0  0  0  2  0  0  0  0  0  0
  161.4630  205.7780  142.8870 C   0  0  0  0  0  0  0  0  0  0  0  0
  161.2450  205.7020  141.7540 N   0  0  0  0  0  0  0  0  0  0  0  0
  161.6400  208.9100  153.5340 C   0  0  1  0  0  3  0  0  0  0  0  0
  161.3670  210.0330  152.6460 N   0  0  0  0  0  2  0  0  0  0  0  0
  162.3660  210.0040  151.5890 C   0  0  0  0  0  2  0  0  0  0  0  0
  162.4120  211.3490  150.8790 C   0  0  0  0  0  2  0  0  0  0  0  0
  161.0840  211.6670  150.2070 C   0  0  1  0  0  3  0  0  0  0  0  0
  160.2850  212.4400  151.0530 O   0  0  0  0  0  1  0  0  0  0  0  0
  161.3270  212.4080  148.9360 C   0  0  0  0  0  0  0  0  0  0  0  0
  161.2800  211.7440  147.7160 O   0  0  0  0  0  0  0  0  0  0  0  0
  161.5690  213.6430  148.9690 O   0  0  0  0  0  1  0  0  0  0  0  0
  160.9030  209.0460  154.7930 N   0  0  0  0  0  0  0  0  0  0  0  0
  162.3290  209.5320  156.7280 C   0  0  0  0  0  2  0  0  0  0  0  0
  160.9200  209.3390  157.2350 C   0  0  0  0  0  2  0  0  0  0  0  0
  161.4190  208.5130  156.0600 C   0  0  0  0  0  3  0  0  0  0  0  0
  159.8230  209.9420  154.8170 C   0  0  0  0  0  0  0  0  0  0  0  0
  158.9320  210.6810  154.8370 N   0  0  0  0  0  0  0  0  0  0  0  0
  1 12  1  0  0  0  0
  2  7  2  0  0  0  0
  2 13  1  0  0  0  0
  3  8  1  0  0  0  0
  3 12  2  0  0  0  0
  4 20  1  0  0  0  0
  4  6  2  0  0  0  0
  5 13  1  6  0  0  0
  5  9  1  0  0  0  0
  5 14  1  0  0  0  0
  7 11  1  0  0  0  0
  8 16  2  0  0  0  0
  9 10  1  0  0  0  0
 10 17  2  0  0  0  0
 10 18  1  0  0  0  0
 11  5  1  0  0  0  0
 11 22  1  1  0  0  0
 12  4  1  0  0  0  0
 14 19  1  0  0  0  0
 15  1  2  0  0  0  0
 16 25  1  0  0  0  0
 16 20  1  0  0  0  0
 18  3  1  0  0  0  0
 19 18  2  0  0  0  0
 19 15  1  0  0  0  0
 21 22  1  0  0  0  0
 23  2  1  0  0  0  0
 24 23  3  0  0  0  0
 25 26  1  6  0  0  0
 25 34  1  0  0  0  0
 27 26  1  0  0  0  0
 28 27  1  0  0  0  0
 29 28  1  0  0  0  0
 29 30  1  1  0  0  0
 31 33  1  0  0  0  0
 31 29  1  0  0  0  0
 32 31  2  0  0  0  0
 34 38  1  0  0  0  0
 34 37  1  0  0  0  0
 35 36  1  0  0  0  0
 37 35  1  0  0  0  0
 37 36  1  0  0  0  0
 38 39  3  0  0  0  0
M  END
>  <MODEL>
7

>  <REMARK>
 VINA RESULT:      -2.9      1.442      1.946
  Name = 
  11 active torsions:
  status: ('A' for Active; 'I' for Inactive)
    1  A    between atoms: N_1  and  C_10
    2  A    between atoms: N_1  and  C_22
    3  A    between atoms: C_4  and  C_14
    4  A    between atoms: C_8  and  C_20
    5  A    between atoms: C_8  and  C_36
    6  A    between atoms: C_10  and  C_36
    7  A    between atoms: C_17  and  C_31
    8  A    between atoms: C_22  and  N_24
    9  A    between atoms: C_22  and  C_29
   10  A    between atoms: N_24  and  C_27
   11  A    between atoms: N_24  and  C_37
                            x       y       z     vdW  Elec       q    Type
                         _______ _______ _______ _____ _____    ______ ____

>  <TORSDO>
F 11

$$$$
=
 OpenBabel11072414593D

 39 43  0  0  1  0  0  0  0  0999 V2000
  162.1650  209.4460  150.1330 C   0  0  0  0  0  3  0  0  0  0  0  0
  161.2350  202.5780  149.5460 C   0  0  0  0  0  0  0  0  0  0  0  0
  161.2000  208.6200  152.2110 C   0  0  0  0  0  0  0  0  0  0  0  0
  161.4070  211.0150  151.8440 C   0  0  0  0  0  0  0  0  0  0  0  0
  161.3600  204.6420  150.5450 C   0  0  2  0  0  0  0  0  0  0  0  0
  161.7370  212.0040  151.1340 O   0  0  0  0  0  0  0  0  0  0  0  0
  160.0810  203.0800  149.2840 N   0  0  0  0  0  0  0  0  0  0  0  0
  160.6570  208.8770  153.4330 N   0  0  0  0  0  0  0  0  0  0  0  0
  161.1630  204.8030  151.9830 N   0  0  0  0  0  2  0  0  0  0  0  0
  161.0220  206.1010  152.5630 C   0  0  0  0  0  0  0  0  0  0  0  0
  159.9900  204.4140  149.8600 C   0  0  2  0  0  3  0  0  0  0  0  0
  161.5960  209.7010  151.3870 C   0  0  0  0  0  0  0  0  0  0  0  0
  162.0960  203.4180  150.2880 N   0  0  0  0  0  2  0  0  0  0  0  0
  162.0730  205.7570  149.9970 O   0  0  0  0  0  0  0  0  0  0  0  0
  162.3280  208.1350  149.6860 C   0  0  0  0  0  3  0  0  0  0  0  0
  160.4800  210.1420  153.8990 C   0  0  0  0  0  0  0  0  0  0  0  0
  160.6450  206.2020  153.7600 O   0  0  0  0  0  0  0  0  0  0  0  0
  161.3630  207.2910  151.7530 C   0  0  0  0  0  0  0  0  0  0  0  0
  161.9180  207.0630  150.4810 C   0  0  0  0  0  0  0  0  0  0  0  0
  160.8410  211.2330  153.0980 C   0  0  0  0  0  2  0  0  0  0  0  0
  160.6490  205.3090  147.6290 C   0  0  0  0  0  1  0  0  0  0  0  0
  159.6590  205.4310  148.7710 C   0  0  0  0  0  2  0  0  0  0  0  0
  161.6280  201.2760  149.0890 C   0  0  0  0  0  0  0  0  0  0  0  0
  161.9410  200.2250  148.7200 N   0  0  0  0  0  0  0  0  0  0  0  0
  159.8300  210.3400  155.2370 C   0  0  1  0  0  3  0  0  0  0  0  0
  158.4050  210.0320  155.2010 N   0  0  0  0  0  2  0  0  0  0  0  0
  157.7100  211.1090  155.8860 C   0  0  0  0  0  2  0  0  0  0  0  0
  156.4890  211.5340  155.0840 C   0  0  0  0  0  2  0  0  0  0  0  0
  156.4240  213.0470  154.9300 C   0  0  1  0  0  3  0  0  0  0  0  0
  156.6600  213.6690  156.1580 O   0  0  0  0  0  1  0  0  0  0  0  0
  157.4440  213.4960  153.9390 C   0  0  0  0  0  0  0  0  0  0  0  0
  157.0880  213.7130  152.6130 O   0  0  0  0  0  0  0  0  0  0  0  0
  158.6320  213.6860  154.3080 O   0  0  0  0  0  1  0  0  0  0  0  0
  160.5080  209.5630  156.2780 N   0  0  0  0  0  0  0  0  0  0  0  0
  162.8360  210.1700  156.7560 C   0  0  0  0  0  2  0  0  0  0  0  0
  162.0330  211.4480  156.6890 C   0  0  0  0  0  2  0  0  0  0  0  0
  161.4000  210.1890  157.2610 C   0  0  0  0  0  3  0  0  0  0  0  0
  160.0690  208.2470  156.4920 C   0  0  0  0  0  0  0  0  0  0  0  0
  159.7070  207.1620  156.6680 N   0  0  0  0  0  0  0  0  0  0  0  0
  1 12  1  0  0  0  0
  2 13  1  0  0  0  0
  3  8  1  0  0  0  0
  4 20  1  0  0  0  0
  5 14  1  6  0  0  0
  5  9  1  0  0  0  0
  6  4  2  0  0  0  0
  7  2  2  0  0  0  0
  7 11  1  0  0  0  0
  8 16  2  0  0  0  0
  9 10  1  0  0  0  0
 10 17  2  0  0  0  0
 11 22  1  6  0  0  0
 11  5  1  0  0  0  0
 12  4  1  0  0  0  0
 12  3  2  0  0  0  0
 13  5  1  0  0  0  0
 14 19  1  0  0  0  0
 15  1  2  0  0  0  0
 15 19  1  0  0  0  0
 16 25  1  0  0  0  0
 18  3  1  0  0  0  0
 18 10  1  0  0  0  0
 19 18  2  0  0  0  0
 20 16  1  0  0  0  0
 21 22  1  0  0  0  0
 23  2  1  0  0  0  0
 24 23  3  0  0  0  0
 25 26  1  6  0  0  0
 25 34  1  0  0  0  0
 26 27  1  0  0  0  0
 28 27  1  0  0  0  0
 29 28  1  0  0  0  0
 29 30  1  1  0  0  0
 31 33  1  0  0  0  0
 31 29  1  0  0  0  0
 32 31  2  0  0  0  0
 34 38  1  0  0  0  0
 34 37  1  0  0  0  0
 35 37  1  0  0  0  0
 36 35  1  0  0  0  0
 36 37  1  0  0  0  0
 38 39  3  0  0  0  0
M  END
>  <MODEL>
8

>  <REMARK>
 VINA RESULT:      -2.9      2.794      4.589
  Name = 
  11 active torsions:
  status: ('A' for Active; 'I' for Inactive)
    1  A    between atoms: N_1  and  C_10
    2  A    between atoms: N_1  and  C_22
    3  A    between atoms: C_4  and  C_14
    4  A    between atoms: C_8  and  C_20
    5  A    between atoms: C_8  and  C_36
    6  A    between atoms: C_10  and  C_36
    7  A    between atoms: C_17  and  C_31
    8  A    between atoms: C_22  and  N_24
    9  A    between atoms: C_22  and  C_29
   10  A    between atoms: N_24  and  C_27
   11  A    between atoms: N_24  and  C_37
                            x       y       z     vdW  Elec       q    Type
                         _______ _______ _______ _____ _____    ______ ____

>  <TORSDO>
F 11

$$$$
=
 OpenBabel11072414593D

 39 43  0  0  1  0  0  0  0  0999 V2000
  162.6960  207.3870  147.4090 C   0  0  0  0  0  3  0  0  0  0  0  0
  160.9690  200.7050  146.5410 C   0  0  0  0  0  0  0  0  0  0  0  0
  161.6330  206.5950  149.4520 C   0  0  0  0  0  0  0  0  0  0  0  0
  162.1210  208.9620  149.1830 C   0  0  0  0  0  0  0  0  0  0  0  0
  161.3310  202.6980  147.6240 C   0  0  2  0  0  0  0  0  0  0  0  0
  162.5660  209.9340  148.5140 O   0  0  0  0  0  0  0  0  0  0  0  0
  159.8830  201.3490  146.3020 N   0  0  0  0  0  0  0  0  0  0  0  0
  161.1200  206.8640  150.6850 N   0  0  0  0  0  0  0  0  0  0  0  0
  161.1500  202.8210  149.0670 N   0  0  0  0  0  2  0  0  0  0  0  0
  161.1600  204.1020  149.7010 C   0  0  0  0  0  0  0  0  0  0  0  0
  159.9470  202.6600  146.9330 C   0  0  2  0  0  3  0  0  0  0  0  0
  162.1560  207.6550  148.6720 C   0  0  0  0  0  0  0  0  0  0  0  0
  161.9200  201.4070  147.3160 N   0  0  0  0  0  2  0  0  0  0  0  0
  162.1730  203.7430  147.1220 O   0  0  0  0  0  0  0  0  0  0  0  0
  162.7060  206.0850  146.9080 C   0  0  0  0  0  3  0  0  0  0  0  0
  161.0900  208.1210  151.2020 C   0  0  0  0  0  0  0  0  0  0  0  0
  160.7940  204.1980  150.9020 O   0  0  0  0  0  0  0  0  0  0  0  0
  161.6410  205.2760  148.9400 C   0  0  0  0  0  0  0  0  0  0  0  0
  162.1700  205.0360  147.6580 C   0  0  0  0  0  0  0  0  0  0  0  0
  161.5790  209.1940  150.4460 C   0  0  0  0  0  2  0  0  0  0  0  0
  160.1010  203.2270  144.5100 C   0  0  0  0  0  1  0  0  0  0  0  0
  159.7410  203.7520  145.8860 C   0  0  0  0  0  2  0  0  0  0  0  0
  161.2090  199.3850  146.0320 C   0  0  0  0  0  0  0  0  0  0  0  0
  161.4070  198.3210  145.6220 N   0  0  0  0  0  0  0  0  0  0  0  0
  160.4630  208.3390  152.5480 C   0  0  1  0  0  3  0  0  0  0  0  0
  161.0780  207.5080  153.5760 N   0  0  0  0  0  2  0  0  0  0  0  0
  160.1800  207.4970  154.7200 C   0  0  0  0  0  2  0  0  0  0  0  0
  160.9020  206.9490  155.9420 C   0  0  0  0  0  2  0  0  0  0  0  0
  161.0200  208.0020  157.0350 C   0  0  1  0  0  3  0  0  0  0  0  0
  162.3300  208.4810  157.1080 O   0  0  0  0  0  1  0  0  0  0  0  0
  160.0910  209.1320  156.7480 C   0  0  0  0  0  0  0  0  0  0  0  0
  158.8600  208.8950  156.1470 O   0  0  0  0  0  0  0  0  0  0  0  0
  160.4200  210.3060  157.0580 O   0  0  0  0  0  1  0  0  0  0  0  0
  160.4980  209.7540  152.9270 N   0  0  0  0  0  0  0  0  0  0  0  0
  159.1540  211.5110  153.9860 C   0  0  0  0  0  2  0  0  0  0  0  0
  159.7670  212.0950  152.7350 C   0  0  0  0  0  2  0  0  0  0  0  0
  159.3370  210.6360  152.7550 C   0  0  0  0  0  3  0  0  0  0  0  0
  161.5740  210.1850  153.7190 C   0  0  0  0  0  0  0  0  0  0  0  0
  162.4600  210.5410  154.3720 N   0  0  0  0  0  0  0  0  0  0  0  0
  1 12  1  0  0  0  0
  2 13  1  0  0  0  0
  3  8  1  0  0  0  0
  4 20  1  0  0  0  0
  5 14  1  6  0  0  0
  5  9  1  0  0  0  0
  6  4  2  0  0  0  0
  7  2  2  0  0  0  0
  7 11  1  0  0  0  0
  8 16  2  0  0  0  0
  9 10  1  0  0  0  0
 10 17  2  0  0  0  0
 11 22  1  6  0  0  0
 11  5  1  0  0  0  0
 12  4  1  0  0  0  0
 12  3  2  0  0  0  0
 13  5  1  0  0  0  0
 14 19  1  0  0  0  0
 15  1  2  0  0  0  0
 15 19  1  0  0  0  0
 16 25  1  0  0  0  0
 18  3  1  0  0  0  0
 18 10  1  0  0  0  0
 19 18  2  0  0  0  0
 20 16  1  0  0  0  0
 21 22  1  0  0  0  0
 23  2  1  0  0  0  0
 24 23  3  0  0  0  0
 25 34  1  0  0  0  0
 25 26  1  1  0  0  0
 26 27  1  0  0  0  0
 27 28  1  0  0  0  0
 28 29  1  0  0  0  0
 29 30  1  6  0  0  0
 31 29  1  0  0  0  0
 31 33  1  0  0  0  0
 32 31  2  0  0  0  0
 34 38  1  0  0  0  0
 36 37  1  0  0  0  0
 36 35  1  0  0  0  0
 37 34  1  0  0  0  0
 37 35  1  0  0  0  0
 38 39  3  0  0  0  0
M  END
>  <MODEL>
9

>  <REMARK>
 VINA RESULT:      -2.6      2.881      4.741
  Name = 
  11 active torsions:
  status: ('A' for Active; 'I' for Inactive)
    1  A    between atoms: N_1  and  C_10
    2  A    between atoms: N_1  and  C_22
    3  A    between atoms: C_4  and  C_14
    4  A    between atoms: C_8  and  C_20
    5  A    between atoms: C_8  and  C_36
    6  A    between atoms: C_10  and  C_36
    7  A    between atoms: C_17  and  C_31
    8  A    between atoms: C_22  and  N_24
    9  A    between atoms: C_22  and  C_29
   10  A    between atoms: N_24  and  C_27
   11  A    between atoms: N_24  and  C_37
                            x       y       z     vdW  Elec       q    Type
                         _______ _______ _______ _____ _____    ______ ____

>  <TORSDO>
F 11

$$$$
