=
 OpenBabel11072413383D

 43 49  0  0  1  0  0  0  0  0999 V2000
  156.7330  212.5800  146.1990 O   0  0  0  0  0  1  0  0  0  0  0  0
  160.1530  212.3480  151.3750 C   0  0  0  0  0  0  0  0  0  0  0  0
  160.3040  212.3960  145.0110 C   0  0  2  0  0  3  0  0  0  0  0  0
  158.8560  212.6160  147.5430 C   0  0  2  0  0  3  0  0  0  0  0  0
  160.1420  211.3240  154.8450 O   0  0  0  0  0  0  0  0  0  0  0  0
  161.9610  211.0930  149.3750 C   0  0  0  0  0  2  0  0  0  0  0  0
  158.7890  212.4200  145.0770 C   0  0  0  0  0  3  0  0  0  0  0  0
  162.3840  213.7620  148.9440 O   0  0  0  0  0  0  0  0  0  0  0  0
  158.0530  213.0690  151.0480 N   0  0  0  0  0  0  0  0  0  0  0  0
  161.1630  210.8710  154.0040 C   0  0  0  0  0  0  0  0  0  0  0  0
  159.0320  212.1300  154.4330 C   0  0  2  0  0  3  0  0  0  0  0  0
  158.1220  212.5710  146.2250 C   0  0  0  0  0  0  0  0  0  0  0  0
  160.8790  210.4220  152.6820 N   0  0  0  0  0  2  0  0  0  0  0  0
  158.8670  212.4100  151.9030 C   0  0  0  0  0  0  0  0  0  0  0  0
  161.1760  211.2500  151.5280 C   0  0  1  0  0  3  0  0  0  0  0  0
  158.2520  213.5130  148.6040 C   0  0  0  0  0  0  0  0  0  0  0  0
  157.3000  214.2990  148.3490 O   0  0  0  0  0  0  0  0  0  0  0  0
  160.3510  212.8960  147.3430 C   0  0  1  0  0  3  0  0  0  0  0  0
  161.2810  212.7300  148.9020 P   0  0  1  0  0  0  0  0  0  0  0  0
  160.8900  212.0200  146.3070 N   0  0  0  0  0  2  0  0  0  0  0  0
  158.3670  211.6780  153.1220 C   0  0  0  0  0  2  0  0  0  0  0  0
  162.3350  210.7760  154.4520 O   0  0  0  0  0  0  0  0  0  0  0  0
  158.7940  213.4080  149.9710 C   0  0  0  0  0  0  0  0  0  0  0  0
  161.1620  210.4560  150.3570 O   0  0  0  0  0  0  0  0  0  0  0  0
  160.1060  213.0470  150.1950 C   0  0  0  0  0  0  0  0  0  0  0  0
  162.3290  213.5180  143.5200 S   0  0  0  0  0  0  0  0  0  0  0  0
  163.4390  214.4150  143.9880 O   0  0  0  0  0  0  0  0  0  0  0  0
  160.8700  213.7370  144.5140 C   0  0  1  0  0  3  0  0  0  0  0  0
  160.1840  214.0790  142.1440 C   0  0  0  0  0  2  0  0  0  0  0  0
  161.6900  214.0640  141.9610 C   0  0  2  0  0  3  0  0  0  0  0  0
  159.8820  214.4530  143.5940 C   0  0  0  0  0  2  0  0  0  0  0  0
  162.7940  212.0890  143.4620 O   0  0  0  0  0  0  0  0  0  0  0  0
  162.0460  213.1320  140.9030 N   0  0  0  0  0  2  0  0  0  0  0  0
  160.9210  212.2270  140.7340 C   0  0  0  0  0  2  0  0  0  0  0  0
  162.2990  210.5790  139.5240 C   0  0  0  0  0  2  0  0  0  0  0  0
  160.9190  209.9830  139.7060 C   0  0  0  0  0  2  0  0  0  0  0  0
  161.0750  211.4650  139.4350 C   0  0  0  0  0  3  0  0  0  0  0  0
  156.2650  214.1580  152.0700 O   0  0  0  0  0  1  0  0  0  0  0  0
  156.6030  213.1620  151.1560 C   0  0  0  0  0  2  0  0  0  0  0  0
  159.3670  213.6200  154.4840 C   0  0  0  0  0  2  0  0  0  0  0  0
  160.1920  214.3280  156.7260 O   0  0  0  0  0  1  0  0  0  0  0  0
  157.9600  214.4530  156.2170 O   0  0  0  0  0  0  0  0  0  0  0  0
  159.1300  214.1670  155.8480 C   0  0  0  0  0  0  0  0  0  0  0  0
  1 12  1  0  0  0  0
  2 15  1  0  0  0  0
  2 14  2  0  0  0  0
  3  7  1  1  0  0  0
  3 20  1  0  0  0  0
  4 12  1  6  0  0  0
  4 16  1  0  0  0  0
  6 24  1  0  0  0  0
  7 12  2  0  0  0  0
  9 39  1  0  0  0  0
  9 14  1  0  0  0  0
 10 22  2  0  0  0  0
 10  5  1  0  0  0  0
 11 40  1  6  0  0  0
 11  5  1  0  0  0  0
 13 10  1  0  0  0  0
 14 21  1  0  0  0  0
 15 24  1  6  0  0  0
 15 13  1  0  0  0  0
 16 23  1  0  0  0  0
 17 16  2  0  0  0  0
 18 20  1  6  0  0  0
 18  4  1  0  0  0  0
 18 19  1  0  0  0  0
 19  8  2  1  0  0  0
 19  6  1  0  0  0  0
 19 25  1  0  0  0  0
 21 11  1  0  0  0  0
 23 25  2  0  0  0  0
 23  9  1  0  0  0  0
 25  2  1  0  0  0  0
 26 27  2  0  0  0  0
 26 28  1  0  0  0  0
 28 31  1  6  0  0  0
 28  3  1  0  0  0  0
 29 31  1  0  0  0  0
 30 33  1  6  0  0  0
 30 29  1  0  0  0  0
 30 26  1  0  0  0  0
 32 26  2  0  0  0  0
 34 33  1  0  0  0  0
 35 36  1  0  0  0  0
 37 35  1  0  0  0  0
 37 36  1  0  0  0  0
 37 34  1  0  0  0  0
 39 38  1  0  0  0  0
 40 43  1  0  0  0  0
 43 42  2  0  0  0  0
 43 41  1  0  0  0  0
M  END
>  <MODEL>
1

>  <REMARK>
 VINA RESULT:      -3.2      0.000      0.000
  Name = 
  7 active torsions:
  status: ('A' for Active; 'I' for Inactive)
    1  A    between atoms: C_4  and  C_19
    2  A    between atoms: C_12  and  C_17
    3  A    between atoms: C_12  and  C_42
    4  A    between atoms: N_15  and  C_24
    5  A    between atoms: C_33  and  N_43
    6  A    between atoms: C_34  and  C_40
    7  A    between atoms: C_34  and  N_43
                            x       y       z     vdW  Elec       q    Type
                         _______ _______ _______ _____ _____    ______ ____

>  <TORSDO>
F 7

$$$$
