=
 OpenBabel11072413553D

 46 50  0  0  1  0  0  0  0  0999 V2000
  162.7010  211.1510  149.5100 C   0  0  0  0  0  2  0  0  0  0  0  0
  161.6950  211.5270  150.6190 C   0  0  1  0  0  3  0  0  0  0  0  0
  160.6930  204.2420  149.7310 C   0  0  0  0  0  2  0  0  0  0  0  0
  160.9440  203.3970  150.9690 C   0  0  0  0  0  2  0  0  0  0  0  0
  161.5550  204.6280  147.3670 C   0  0  0  0  0  0  0  0  0  0  0  0
  161.4370  203.6650  148.5260 C   0  0  2  0  0  3  0  0  0  0  0  0
  161.6030  207.0770  147.7060 C   0  0  0  0  0  2  0  0  0  0  0  0
  160.3350  210.4320  152.4190 N   0  0  1  0  0  0  0  0  0  0  0  0
  160.8670  212.5540  150.1630 O   0  0  0  0  0  1  0  0  0  0  0  0
  160.8700  208.1160  151.8620 C   0  0  1  0  0  3  0  0  0  0  0  0
  160.7340  205.8910  147.3190 C   0  0  1  0  0  3  0  0  0  0  0  0
  162.2500  209.9260  148.6930 C   0  0  0  0  0  2  0  0  0  0  0  0
  160.1470  209.0370  152.8410 C   0  0  0  0  0  2  0  0  0  0  0  0
  161.6680  204.9830  152.7660 C   0  0  0  0  0  2  0  0  0  0  0  0
  161.6640  209.0760  151.0180 C   0  0  1  0  0  3  0  0  0  0  0  0
  162.0110  206.0190  151.8930 O   0  0  0  0  0  0  0  0  0  0  0  0
  161.7930  207.1870  152.6290 C   0  0  0  0  0  2  0  0  0  0  0  0
  162.0340  208.6790  149.5760 C   0  0  1  0  0  3  0  0  0  0  0  0
  160.5140  204.1630  152.2050 C   0  0  0  0  0  2  0  0  0  0  0  0
  162.3640  204.3890  146.4770 O   0  0  0  0  0  0  0  0  0  0  0  0
  160.8360  210.3300  151.0540 C   0  0  2  0  0  3  0  0  0  0  0  0
  161.0090  207.7520  148.9370 C   0  0  0  0  0  2  0  0  0  0  0  0
  159.0080  211.0520  152.3700 C   0  0  1  0  0  3  0  0  0  0  0  0
  158.4030  211.3070  153.7600 C   0  0  2  0  0  3  0  0  0  0  0  0
  158.9950  212.4670  152.9630 C   0  0  1  0  0  3  0  0  0  0  0  0
  160.2500  212.8500  153.4530 O   0  0  0  0  0  1  0  0  0  0  0  0
  159.2890  210.8800  154.8490 N   0  0  0  0  0  2  0  0  0  0  0  0
  158.6070  210.9920  156.1420 C   0  0  2  0  0  3  0  0  0  0  0  0
  158.1020  212.7090  156.4910 S   0  0  0  0  0  1  0  0  0  0  0  0
  159.4370  210.4750  157.2230 N   0  0  0  0  0  2  0  0  0  0  0  0
  160.5780  209.8080  156.6130 C   0  0  1  0  0  3  0  0  0  0  0  0
  161.8360  210.5350  156.9720 C   0  0  0  0  0  0  0  0  0  0  0  0
  161.8030  211.7620  157.2610 O   0  0  0  0  0  1  0  0  0  0  0  0
  163.0440  209.8480  157.0040 O   0  0  0  0  0  0  0  0  0  0  0  0
  160.6410  208.3650  157.0860 C   0  0  0  0  0  2  0  0  0  0  0  0
  159.7990  207.5740  156.3050 O   0  0  0  0  0  1  0  0  0  0  0  0
  160.9990  205.7080  144.9650 C   0  0  0  0  0  0  0  0  0  0  0  0
  160.1110  206.1100  145.9410 C   0  0  1  0  0  3  0  0  0  0  0  0
  162.0370  205.8700  144.2740 O   0  0  0  0  0  0  0  0  0  0  0  0
  159.8030  204.9020  145.3710 O   0  0  0  0  0  0  0  0  0  0  0  0
  160.9090  202.3570  148.1240 N   0  0  0  0  0  2  0  0  0  0  0  0
  161.9790  201.3750  147.9990 C   0  0  0  0  0  2  0  0  0  0  0  0
  161.3830  200.0190  147.6800 C   0  0  0  0  0  2  0  0  0  0  0  0
  161.5210  198.8350  145.6110 O   0  0  0  0  0  1  0  0  0  0  0  0
  160.5780  200.9270  145.5090 O   0  0  0  0  0  0  0  0  0  0  0  0
  161.1660  199.8860  146.2140 C   0  0  0  0  0  0  0  0  0  0  0  0
  1  2  1  0  0  0  0
  2  9  1  6  0  0  0
  2 21  1  0  0  0  0
  3  4  1  0  0  0  0
  4 19  1  0  0  0  0
  5  6  1  0  0  0  0
  6 41  1  6  0  0  0
  6  3  1  0  0  0  0
  7 22  1  0  0  0  0
  8 13  1  6  0  0  0
 10 17  1  1  0  0  0
 10 13  1  0  0  0  0
 11  5  1  0  0  0  0
 11  7  1  6  0  0  0
 12  1  1  0  0  0  0
 12 18  1  0  0  0  0
 15 21  1  0  0  0  0
 15 10  1  0  0  0  0
 16 17  1  0  0  0  0
 16 14  1  0  0  0  0
 18 15  1  0  0  0  0
 19 14  1  0  0  0  0
 20  5  2  0  0  0  0
 21  8  1  0  0  0  0
 22 18  1  0  0  0  0
 23  8  1  0  0  0  0
 23 25  1  0  0  0  0
 23 24  1  0  0  0  0
 24 27  1  0  0  0  0
 25 26  1  0  0  0  0
 25 24  1  0  0  0  0
 27 28  1  0  0  0  0
 28 29  1  0  0  0  0
 28 30  1  0  0  0  0
 31 32  1  0  0  0  0
 31 35  1  0  0  0  0
 31 30  1  0  0  0  0
 32 34  2  0  0  0  0
 32 33  1  0  0  0  0
 36 35  1  0  0  0  0
 37 40  1  0  0  0  0
 37 38  1  0  0  0  0
 38 11  1  0  0  0  0
 39 37  2  0  0  0  0
 40 38  1  0  0  0  0
 42 41  1  0  0  0  0
 43 42  1  0  0  0  0
 44 46  1  0  0  0  0
 45 46  2  0  0  0  0
 46 43  1  0  0  0  0
M  END
>  <MODEL>
1

>  <REMARK>
 VINA RESULT:      -5.7      0.000      0.000
  Name = 
  12 active torsions:
  status: ('A' for Active; 'I' for Inactive)
    1  A    between atoms: C_1  and  N_25
    2  A    between atoms: C_2  and  CA_14
    3  A    between atoms: C_12  and  N_32
    4  A    between atoms: C_12  and  N_33
    5  A    between atoms: N_13  and  C_17
    6  A    between atoms: N_13  and  C_23
    7  A    between atoms: CA_14  and  CB_22
    8  A    between atoms: CA_14  and  N_33
    9  A    between atoms: C_15  and  C_31
   10  A    between atoms: C_20  and  N_32
   11  A    between atoms: C_21  and  C_34
   12  A    between atoms: C_23  and  C_34
                            x       y       z     vdW  Elec       q    Type
                         _______ _______ _______ _____ _____    ______ ____

>  <TORSDO>
F 12

$$$$
=
 OpenBabel11072413553D

 46 50  0  0  1  0  0  0  0  0999 V2000
  162.5770  211.4770  149.2670 C   0  0  0  0  0  2  0  0  0  0  0  0
  161.5290  211.9740  150.2860 C   0  0  1  0  0  3  0  0  0  0  0  0
  160.8320  204.6030  150.4940 C   0  0  0  0  0  2  0  0  0  0  0  0
  161.0830  203.9660  151.8510 C   0  0  0  0  0  2  0  0  0  0  0  0
  161.7410  204.6640  148.1170 C   0  0  0  0  0  0  0  0  0  0  0  0
  161.6290  203.8820  149.4060 C   0  0  2  0  0  3  0  0  0  0  0  0
  161.6850  207.1350  148.0810 C   0  0  0  0  0  2  0  0  0  0  0  0
  160.1650  211.1070  152.2030 N   0  0  1  0  0  0  0  0  0  0  0  0
  160.6740  212.8850  149.6620 O   0  0  0  0  0  1  0  0  0  0  0  0
  160.8030  208.7580  152.0150 C   0  0  1  0  0  3  0  0  0  0  0  0
  160.8730  205.8690  147.8610 C   0  0  1  0  0  3  0  0  0  0  0  0
  162.1970  210.1250  148.6360 C   0  0  0  0  0  2  0  0  0  0  0  0
  160.0190  209.7850  152.8280 C   0  0  0  0  0  2  0  0  0  0  0  0
  161.6970  205.8330  153.4000 C   0  0  0  0  0  2  0  0  0  0  0  0
  161.5820  209.6120  151.0510 C   0  0  1  0  0  3  0  0  0  0  0  0
  162.0230  206.7400  152.3870 O   0  0  0  0  0  0  0  0  0  0  0  0
  161.7410  207.9950  152.9320 C   0  0  0  0  0  2  0  0  0  0  0  0
  162.0050  209.0180  149.6950 C   0  0  1  0  0  3  0  0  0  0  0  0
  160.5910  204.8910  152.9470 C   0  0  0  0  0  2  0  0  0  0  0  0
  162.5820  204.3270  147.2900 O   0  0  0  0  0  0  0  0  0  0  0  0
  160.7060  210.8210  150.8800 C   0  0  2  0  0  3  0  0  0  0  0  0
  161.0330  207.9620  149.1830 C   0  0  0  0  0  2  0  0  0  0  0  0
  158.8170  211.6560  152.0330 C   0  0  1  0  0  3  0  0  0  0  0  0
  158.2010  212.1750  153.3430 C   0  0  2  0  0  3  0  0  0  0  0  0
  158.7530  213.1620  152.3170 C   0  0  1  0  0  3  0  0  0  0  0  0
  159.9920  213.6830  152.7090 O   0  0  0  0  0  1  0  0  0  0  0  0
  159.1000  212.0160  154.4920 N   0  0  0  0  0  2  0  0  0  0  0  0
  158.5710  212.7250  155.6610 C   0  0  2  0  0  3  0  0  0  0  0  0
  159.9080  213.3930  156.7060 S   0  0  0  0  0  1  0  0  0  0  0  0
  157.6920  211.8670  156.4450 N   0  0  0  0  0  2  0  0  0  0  0  0
  156.3250  212.2900  156.1830 C   0  0  1  0  0  3  0  0  0  0  0  0
  155.4260  211.0940  156.1490 C   0  0  0  0  0  0  0  0  0  0  0  0
  155.3820  210.3590  155.1250 O   0  0  0  0  0  0  0  0  0  0  0  0
  154.6480  210.7840  157.2580 O   0  0  0  0  0  1  0  0  0  0  0  0
  155.8750  213.2660  157.2580 C   0  0  0  0  0  2  0  0  0  0  0  0
  154.9030  214.1230  156.7430 O   0  0  0  0  0  1  0  0  0  0  0  0
  161.2830  205.6290  145.5320 C   0  0  0  0  0  0  0  0  0  0  0  0
  160.2790  205.8510  146.4530 C   0  0  1  0  0  3  0  0  0  0  0  0
  162.2790  206.0050  144.8650 O   0  0  0  0  0  0  0  0  0  0  0  0
  160.3030  204.5750  145.9530 O   0  0  0  0  0  0  0  0  0  0  0  0
  161.1640  202.5080  149.1970 N   0  0  0  0  0  2  0  0  0  0  0  0
  161.1710  202.1590  147.7810 C   0  0  0  0  0  2  0  0  0  0  0  0
  160.8800  200.6820  147.6250 C   0  0  0  0  0  2  0  0  0  0  0  0
  161.4920  199.2450  145.8180 O   0  0  0  0  0  1  0  0  0  0  0  0
  160.2960  201.1220  145.2470 O   0  0  0  0  0  0  0  0  0  0  0  0
  160.9090  200.3020  146.1860 C   0  0  0  0  0  0  0  0  0  0  0  0
  1  2  1  0  0  0  0
  2  9  1  6  0  0  0
  2 21  1  0  0  0  0
  3  4  1  0  0  0  0
  4 19  1  0  0  0  0
  5  6  1  0  0  0  0
  6 41  1  6  0  0  0
  6  3  1  0  0  0  0
  7 22  1  0  0  0  0
  8 13  1  1  0  0  0
 10 13  1  1  0  0  0
 10 17  1  0  0  0  0
 11  7  1  6  0  0  0
 11  5  1  0  0  0  0
 12  1  1  0  0  0  0
 12 18  1  0  0  0  0
 15 10  1  0  0  0  0
 16 17  1  0  0  0  0
 16 14  1  0  0  0  0
 18 15  1  0  0  0  0
 19 14  1  0  0  0  0
 20  5  2  0  0  0  0
 21 15  1  0  0  0  0
 21  8  1  0  0  0  0
 22 18  1  0  0  0  0
 23  8  1  0  0  0  0
 23 25  1  0  0  0  0
 23 24  1  0  0  0  0
 24 27  1  0  0  0  0
 25 26  1  0  0  0  0
 25 24  1  0  0  0  0
 27 28  1  0  0  0  0
 28 30  1  0  0  0  0
 28 29  1  0  0  0  0
 31 30  1  0  0  0  0
 31 35  1  0  0  0  0
 32 31  1  0  0  0  0
 32 34  1  0  0  0  0
 33 32  2  0  0  0  0
 36 35  1  0  0  0  0
 37 40  1  0  0  0  0
 37 38  1  0  0  0  0
 38 11  1  0  0  0  0
 39 37  2  0  0  0  0
 40 38  1  0  0  0  0
 42 41  1  0  0  0  0
 43 42  1  0  0  0  0
 44 46  1  0  0  0  0
 45 46  2  0  0  0  0
 46 43  1  0  0  0  0
M  END
>  <MODEL>
2

>  <REMARK>
 VINA RESULT:      -5.0      1.938      2.697
  Name = 
  12 active torsions:
  status: ('A' for Active; 'I' for Inactive)
    1  A    between atoms: C_1  and  N_25
    2  A    between atoms: C_2  and  CA_14
    3  A    between atoms: C_12  and  N_32
    4  A    between atoms: C_12  and  N_33
    5  A    between atoms: N_13  and  C_17
    6  A    between atoms: N_13  and  C_23
    7  A    between atoms: CA_14  and  CB_22
    8  A    between atoms: CA_14  and  N_33
    9  A    between atoms: C_15  and  C_31
   10  A    between atoms: C_20  and  N_32
   11  A    between atoms: C_21  and  C_34
   12  A    between atoms: C_23  and  C_34
                            x       y       z     vdW  Elec       q    Type
                         _______ _______ _______ _____ _____    ______ ____

>  <TORSDO>
F 12

$$$$
=
 OpenBabel11072413553D

 46 50  0  0  1  0  0  0  0  0999 V2000
  161.8720  206.2310  154.2800 C   0  0  0  0  0  2  0  0  0  0  0  0
  161.6440  205.3740  153.0160 C   0  0  1  0  0  3  0  0  0  0  0  0
  159.8760  212.2300  150.8390 C   0  0  0  0  0  2  0  0  0  0  0  0
  160.6990  212.7770  149.6850 C   0  0  0  0  0  2  0  0  0  0  0  0
  159.3560  212.6460  153.2960 C   0  0  0  0  0  0  0  0  0  0  0  0
  159.8190  213.2400  151.9850 C   0  0  2  0  0  3  0  0  0  0  0  0
  159.7290  210.2660  153.8530 C   0  0  0  0  0  2  0  0  0  0  0  0
  161.3980  205.6530  150.5360 N   0  0  1  0  0  0  0  0  0  0  0  0
  160.7650  204.3320  153.3160 O   0  0  0  0  0  1  0  0  0  0  0  0
  161.4060  208.0940  150.4840 C   0  0  1  0  0  3  0  0  0  0  0  0
  158.7170  211.2820  153.3490 C   0  0  1  0  0  3  0  0  0  0  0  0
  160.9790  207.4850  154.3140 C   0  0  0  0  0  2  0  0  0  0  0  0
  161.3800  206.8200  149.6430 C   0  0  0  0  0  2  0  0  0  0  0  0
  162.3700  211.0030  149.1130 C   0  0  0  0  0  2  0  0  0  0  0  0
  161.6810  207.5780  151.8710 C   0  0  1  0  0  3  0  0  0  0  0  0
  162.2540  210.3200  150.3270 O   0  0  0  0  0  0  0  0  0  0  0  0
  162.5370  208.9880  150.0120 C   0  0  0  0  0  2  0  0  0  0  0  0
  161.1940  208.3930  153.0840 C   0  0  1  0  0  3  0  0  0  0  0  0
  161.0470  211.6520  148.7290 C   0  0  0  0  0  2  0  0  0  0  0  0
  159.5450  213.2750  154.3320 O   0  0  0  0  0  0  0  0  0  0  0  0
  161.0810  206.2000  151.8490 C   0  0  2  0  0  3  0  0  0  0  0  0
  159.9310  209.1920  152.7920 C   0  0  0  0  0  2  0  0  0  0  0  0
  160.2930  204.7800  150.1290 C   0  0  1  0  0  3  0  0  0  0  0  0
  160.6570  203.8340  148.9740 C   0  0  2  0  0  3  0  0  0  0  0  0
  160.5800  203.2980  150.4020 C   0  0  1  0  0  3  0  0  0  0  0  0
  161.8510  203.0950  150.9520 O   0  0  0  0  0  1  0  0  0  0  0  0
  162.0450  204.0000  148.5230 N   0  0  0  0  0  2  0  0  0  0  0  0
  162.1420  203.8020  147.0740 C   0  0  2  0  0  3  0  0  0  0  0  0
  163.5140  204.7640  146.3540 S   0  0  0  0  0  1  0  0  0  0  0  0
  160.8860  204.1300  146.4120 N   0  0  0  0  0  2  0  0  0  0  0  0
  160.9680  203.6220  145.0500 C   0  0  1  0  0  3  0  0  0  0  0  0
  160.0990  202.4110  144.9130 C   0  0  0  0  0  0  0  0  0  0  0  0
  159.0050  202.4780  144.2890 O   0  0  0  0  0  0  0  0  0  0  0  0
  160.5100  201.2020  145.4620 O   0  0  0  0  0  1  0  0  0  0  0  0
  160.5360  204.7020  144.0730 C   0  0  0  0  0  2  0  0  0  0  0  0
  161.4580  205.7490  144.0860 O   0  0  0  0  0  1  0  0  0  0  0  0
  157.7900  211.7240  155.4920 C   0  0  0  0  0  0  0  0  0  0  0  0
  157.4670  211.2760  154.2270 C   0  0  1  0  0  3  0  0  0  0  0  0
  158.3130  211.5690  156.6230 O   0  0  0  0  0  0  0  0  0  0  0  0
  157.0680  212.5630  154.4810 O   0  0  0  0  0  0  0  0  0  0  0  0
  159.0790  214.4520  151.6200 N   0  0  0  0  0  2  0  0  0  0  0  0
  157.6540  214.1770  151.4820 C   0  0  0  0  0  2  0  0  0  0  0  0
  157.4270  213.2970  150.2700 C   0  0  0  0  0  2  0  0  0  0  0  0
  155.1440  213.9220  149.9510 O   0  0  0  0  0  1  0  0  0  0  0  0
  156.5270  214.2140  148.1400 O   0  0  0  0  0  0  0  0  0  0  0  0
  156.3010  213.8280  149.4550 C   0  0  0  0  0  0  0  0  0  0  0  0
  1 12  1  0  0  0  0
  2  9  1  1  0  0  0
  2  1  1  0  0  0  0
  3  6  1  0  0  0  0
  4  3  1  0  0  0  0
  5 11  1  0  0  0  0
  5 20  2  0  0  0  0
  6 41  1  6  0  0  0
  6  5  1  0  0  0  0
  8 13  1  6  0  0  0
  8 21  1  0  0  0  0
 10 13  1  6  0  0  0
 10 15  1  0  0  0  0
 11  7  1  1  0  0  0
 11 38  1  0  0  0  0
 14 16  1  0  0  0  0
 15 18  1  0  0  0  0
 17 16  1  0  0  0  0
 17 10  1  0  0  0  0
 18 12  1  0  0  0  0
 19 14  1  0  0  0  0
 19  4  1  0  0  0  0
 21 15  1  0  0  0  0
 21  2  1  0  0  0  0
 22 18  1  0  0  0  0
 22  7  1  0  0  0  0
 23 25  1  0  0  0  0
 23  8  1  0  0  0  0
 24 23  1  0  0  0  0
 24 25  1  0  0  0  0
 25 26  1  0  0  0  0
 27 24  1  0  0  0  0
 28 27  1  0  0  0  0
 29 28  1  0  0  0  0
 30 28  1  0  0  0  0
 31 30  1  0  0  0  0
 32 31  1  0  0  0  0
 32 34  1  0  0  0  0
 33 32  2  0  0  0  0
 35 36  1  0  0  0  0
 35 31  1  0  0  0  0
 37 39  2  0  0  0  0
 38 40  1  0  0  0  0
 38 37  1  0  0  0  0
 40 37  1  0  0  0  0
 42 41  1  0  0  0  0
 43 42  1  0  0  0  0
 45 46  2  0  0  0  0
 46 44  1  0  0  0  0
 46 43  1  0  0  0  0
M  END
>  <MODEL>
3

>  <REMARK>
 VINA RESULT:      -4.7      3.246     10.524
  Name = 
  12 active torsions:
  status: ('A' for Active; 'I' for Inactive)
    1  A    between atoms: C_1  and  N_25
    2  A    between atoms: C_2  and  CA_14
    3  A    between atoms: C_12  and  N_32
    4  A    between atoms: C_12  and  N_33
    5  A    between atoms: N_13  and  C_17
    6  A    between atoms: N_13  and  C_23
    7  A    between atoms: CA_14  and  CB_22
    8  A    between atoms: CA_14  and  N_33
    9  A    between atoms: C_15  and  C_31
   10  A    between atoms: C_20  and  N_32
   11  A    between atoms: C_21  and  C_34
   12  A    between atoms: C_23  and  C_34
                            x       y       z     vdW  Elec       q    Type
                         _______ _______ _______ _____ _____    ______ ____

>  <TORSDO>
F 12

$$$$
=
 OpenBabel11072413553D

 46 50  0  0  1  0  0  0  0  0999 V2000
  161.9440  207.4980  154.8430 C   0  0  0  0  0  2  0  0  0  0  0  0
  161.5800  206.2720  153.9770 C   0  0  1  0  0  3  0  0  0  0  0  0
  160.0950  212.0410  149.5740 C   0  0  0  0  0  2  0  0  0  0  0  0
  160.8720  212.0770  148.2690 C   0  0  0  0  0  2  0  0  0  0  0  0
  159.7690  213.3370  151.7410 C   0  0  0  0  0  0  0  0  0  0  0  0
  160.1780  213.3920  150.2870 C   0  0  2  0  0  3  0  0  0  0  0  0
  160.0310  211.2840  153.0940 C   0  0  0  0  0  2  0  0  0  0  0  0
  161.1850  205.6780  151.5730 N   0  0  1  0  0  0  0  0  0  0  0  0
  160.6600  205.4780  154.6650 O   0  0  0  0  0  1  0  0  0  0  0  0
  161.3400  207.9350  150.6540 C   0  0  1  0  0  3  0  0  0  0  0  0
  159.0520  212.1360  152.3020 C   0  0  1  0  0  3  0  0  0  0  0  0
  161.1350  208.7520  154.4640 C   0  0  0  0  0  2  0  0  0  0  0  0
  161.1790  206.4530  150.3240 C   0  0  0  0  0  2  0  0  0  0  0  0
  162.3870  210.0860  148.2980 C   0  0  0  0  0  2  0  0  0  0  0  0
  161.6760  207.9200  152.1220 C   0  0  1  0  0  3  0  0  0  0  0  0
  162.3120  209.8860  149.6800 O   0  0  0  0  0  0  0  0  0  0  0  0
  162.4900  208.5100  149.8490 C   0  0  0  0  0  2  0  0  0  0  0  0
  161.3220  209.1470  152.9840 C   0  0  1  0  0  3  0  0  0  0  0  0
  161.0850  210.6630  147.7630 C   0  0  0  0  0  2  0  0  0  0  0  0
  160.0650  214.2730  152.4760 O   0  0  0  0  0  0  0  0  0  0  0  0
  160.9910  206.6770  152.6170 C   0  0  2  0  0  3  0  0  0  0  0  0
  160.0940  209.8920  152.4780 C   0  0  0  0  0  2  0  0  0  0  0  0
  160.0030  204.8110  151.5500 C   0  0  1  0  0  3  0  0  0  0  0  0
  160.0880  203.6950  150.4960 C   0  0  2  0  0  3  0  0  0  0  0  0
  160.3200  203.3710  151.9700 C   0  0  1  0  0  3  0  0  0  0  0  0
  161.6780  203.1860  152.2560 O   0  0  0  0  0  1  0  0  0  0  0  0
  161.3430  203.7280  149.7370 N   0  0  0  0  0  2  0  0  0  0  0  0
  161.1730  203.0800  148.4330 C   0  0  2  0  0  3  0  0  0  0  0  0
  161.1930  201.2620  148.5760 S   0  0  0  0  0  1  0  0  0  0  0  0
  162.1860  203.5280  147.4850 N   0  0  0  0  0  2  0  0  0  0  0  0
  161.5060  204.2970  146.4540 C   0  0  1  0  0  3  0  0  0  0  0  0
  162.2220  205.5940  146.2410 C   0  0  0  0  0  0  0  0  0  0  0  0
  162.9700  205.7520  145.2380 O   0  0  0  0  0  0  0  0  0  0  0  0
  162.0470  206.6350  147.1450 O   0  0  0  0  0  1  0  0  0  0  0  0
  161.4580  203.4960  145.1640 C   0  0  0  0  0  2  0  0  0  0  0  0
  160.6100  202.3990  145.3190 O   0  0  0  0  0  1  0  0  0  0  0  0
  157.5580  211.5130  154.0430 C   0  0  0  0  0  0  0  0  0  0  0  0
  157.8650  212.5420  153.1760 C   0  0  1  0  0  3  0  0  0  0  0  0
  157.0690  210.3830  154.2940 O   0  0  0  0  0  0  0  0  0  0  0  0
  158.2840  212.7550  154.4630 O   0  0  0  0  0  0  0  0  0  0  0  0
  159.4920  214.4530  149.5440 N   0  0  0  0  0  2  0  0  0  0  0  0
  158.2940  213.9450  148.8870 C   0  0  0  0  0  2  0  0  0  0  0  0
  158.2680  214.4210  147.4500 C   0  0  0  0  0  2  0  0  0  0  0  0
  156.9680  212.4700  146.9920 O   0  0  0  0  0  1  0  0  0  0  0  0
  158.2270  213.2690  145.2450 O   0  0  0  0  0  0  0  0  0  0  0  0
  157.7800  213.3340  146.5580 C   0  0  0  0  0  0  0  0  0  0  0  0
  2  9  1  1  0  0  0
  2  1  1  0  0  0  0
  3  6  1  0  0  0  0
  4  3  1  0  0  0  0
  5 11  1  0  0  0  0
  5 20  2  0  0  0  0
  6 41  1  6  0  0  0
  6  5  1  0  0  0  0
  8 13  1  6  0  0  0
  8 21  1  0  0  0  0
 10 17  1  6  0  0  0
 10 15  1  0  0  0  0
 11  7  1  1  0  0  0
 11 38  1  0  0  0  0
 12  1  1  0  0  0  0
 13 10  1  0  0  0  0
 14 16  1  0  0  0  0
 15 21  1  0  0  0  0
 15 18  1  0  0  0  0
 16 17  1  0  0  0  0
 18 12  1  0  0  0  0
 19  4  1  0  0  0  0
 19 14  1  0  0  0  0
 21  2  1  0  0  0  0
 22 18  1  0  0  0  0
 22  7  1  0  0  0  0
 23  8  1  0  0  0  0
 23 25  1  0  0  0  0
 24 23  1  0  0  0  0
 24 25  1  0  0  0  0
 25 26  1  0  0  0  0
 27 24  1  0  0  0  0
 28 29  1  0  0  0  0
 28 27  1  0  0  0  0
 30 28  1  0  0  0  0
 31 30  1  0  0  0  0
 32 31  1  0  0  0  0
 32 34  1  0  0  0  0
 33 32  2  0  0  0  0
 35 36  1  0  0  0  0
 35 31  1  0  0  0  0
 37 39  2  0  0  0  0
 37 40  1  0  0  0  0
 38 37  1  0  0  0  0
 38 40  1  0  0  0  0
 42 41  1  0  0  0  0
 43 42  1  0  0  0  0
 45 46  2  0  0  0  0
 46 44  1  0  0  0  0
 46 43  1  0  0  0  0
M  END
>  <MODEL>
4

>  <REMARK>
 VINA RESULT:      -3.9      3.419      9.743
  Name = 
  12 active torsions:
  status: ('A' for Active; 'I' for Inactive)
    1  A    between atoms: C_1  and  N_25
    2  A    between atoms: C_2  and  CA_14
    3  A    between atoms: C_12  and  N_32
    4  A    between atoms: C_12  and  N_33
    5  A    between atoms: N_13  and  C_17
    6  A    between atoms: N_13  and  C_23
    7  A    between atoms: CA_14  and  CB_22
    8  A    between atoms: CA_14  and  N_33
    9  A    between atoms: C_15  and  C_31
   10  A    between atoms: C_20  and  N_32
   11  A    between atoms: C_21  and  C_34
   12  A    between atoms: C_23  and  C_34
                            x       y       z     vdW  Elec       q    Type
                         _______ _______ _______ _____ _____    ______ ____

>  <TORSDO>
F 12

$$$$
