=
 OpenBabel11072409513D

 66 70  0  0  1  0  0  0  0  0999 V2000
  159.7650  212.7490  150.9220 C   0  0  2  0  0  3  0  0  0  0  0  0
  162.9800  214.4470  148.3930 C   0  0  0  0  0  2  0  0  0  0  0  0
  160.5770  212.8990  147.8430 C   0  0  2  0  0  3  0  0  0  0  0  0
  158.3730  213.0970  148.7940 C   0  0  1  0  0  3  0  0  0  0  0  0
  160.5940  213.9920  148.8740 C   0  0  2  0  0  3  0  0  0  0  0  0
  161.4880  213.2930  146.6920 C   0  0  0  0  0  2  0  0  0  0  0  0
  158.8150  211.5000  147.0580 O   0  0  0  0  0  1  0  0  0  0  0  0
  161.9780  214.1010  149.5030 C   0  0  0  0  0  2  0  0  0  0  0  0
  162.9150  213.4370  147.2330 C   0  0  0  0  0  2  0  0  0  0  0  0
  159.1120  212.7950  147.4840 C   0  0  2  0  0  3  0  0  0  0  0  0
  159.3980  213.6990  149.7670 C   0  0  2  0  0  3  0  0  0  0  0  0
  156.5480  214.4530  149.5710 O   0  0  0  0  0  1  0  0  0  0  0  0
  157.2400  214.0550  148.5940 C   0  0  0  0  0  0  0  0  0  0  0  0
  156.8990  214.4510  147.3060 O   0  0  0  0  0  0  0  0  0  0  0  0
  159.4070  211.4140  150.6640 O   0  0  0  0  0  0  0  0  0  0  0  0
  160.6080  210.6970  150.7210 C   0  0  2  0  0  3  0  0  0  0  0  0
  161.6000  211.4400  151.5930 C   0  0  0  0  0  1  0  0  0  0  0  0
  161.1700  210.5440  149.3190 C   0  0  0  0  0  2  0  0  0  0  0  0
  162.3920  209.6450  149.3360 C   0  0  0  0  0  2  0  0  0  0  0  0
  161.9720  208.1970  149.5430 C   0  0  1  0  0  3  0  0  0  0  0  0
  162.5660  207.2830  148.4590 C   0  0  1  0  0  3  0  0  0  0  0  0
  162.7040  205.8200  148.9270 C   0  0  1  0  0  3  0  0  0  0  0  0
  161.3780  205.0550  148.8930 C   0  0  2  0  0  3  0  0  0  0  0  0
  161.9240  207.4490  147.1970 O   0  0  0  0  0  0  0  0  0  0  0  0
  160.8840  206.5150  146.9140 C   0  0  2  0  0  3  0  0  0  0  0  0
  163.6450  205.1610  148.1370 O   0  0  0  0  0  1  0  0  0  0  0  0
  160.2910  205.8240  148.1500 C   0  0  0  0  0  2  0  0  0  0  0  0
  160.1840  205.0920  144.9690 C   0  0  0  0  0  0  0  0  0  0  0  0
  160.9620  202.8870  145.5170 C   0  0  1  0  0  3  0  0  0  0  0  0
  161.3220  205.5150  145.8280 C   0  0  2  0  0  3  0  0  0  0  0  0
  159.9610  203.7030  144.8600 N   0  0  0  0  0  2  0  0  0  0  0  0
  159.4560  205.9150  144.3520 O   0  0  0  0  0  0  0  0  0  0  0  0
  161.9650  203.9810  146.5930 S   0  0  0  0  0  0  0  0  0  0  0  0
  161.0380  200.6050  146.2430 O   0  0  0  0  0  1  0  0  0  0  0  0
  160.3000  201.7860  146.3390 C   0  0  1  0  0  3  0  0  0  0  0  0
  160.2050  202.2010  147.8010 C   0  0  0  0  0  2  0  0  0  0  0  0
  161.5240  200.9920  149.5400 C   0  0  0  0  0  1  0  0  0  0  0  0
  160.2470  200.9920  148.7210 C   0  0  0  0  0  2  0  0  0  0  0  0
  160.9280  204.6780  150.2990 C   0  0  0  0  0  3  0  0  0  0  0  0
  159.9440  203.7080  150.2580 F   0  0  0  0  0  0  0  0  0  0  0  0
  162.0020  204.2280  151.0460 F   0  0  0  0  0  0  0  0  0  0  0  0
  162.5650  209.1080  152.1070 O   0  0  0  0  0  1  0  0  0  0  0  0
  162.4960  207.6700  151.1990 S   0  0  0  0  0  3  0  0  0  0  0  0
  161.2830  206.9480  151.7740 O   0  0  0  0  0  1  0  0  0  0  0  0
  159.1330  213.2420  152.2260 C   0  0  1  0  0  3  0  0  0  0  0  0
  157.8990  212.5130  152.5070 N   0  0  0  0  0  2  0  0  0  0  0  0
  157.7810  214.4350  154.3460 O   0  0  0  0  0  0  0  0  0  0  0  0
  155.8770  214.1740  152.8300 O   0  0  0  0  0  0  0  0  0  0  0  0
  156.9300  213.4380  153.6110 S   0  0  0  0  0  0  0  0  0  0  0  0
  155.1580  213.0730  155.6800 C   0  0  0  0  0  2  0  0  0  0  0  0
  156.1230  212.6470  156.7550 C   0  0  0  0  0  2  0  0  0  0  0  0
  155.5050  211.1360  154.1200 C   0  0  0  0  0  1  0  0  0  0  0  0
  156.1240  212.3550  154.7810 C   0  0  1  0  0  0  0  0  0  0  0  0
  156.9720  212.0040  155.8390 O   0  0  0  0  0  0  0  0  0  0  0  0
  160.1270  213.0560  153.3640 C   0  0  0  0  0  2  0  0  0  0  0  0
  160.1370  211.7260  153.7910 O   0  0  0  0  0  0  0  0  0  0  0  0
  160.7300  211.7650  155.0580 C   0  0  2  0  0  3  0  0  0  0  0  0
  160.1200  209.3620  155.4920 C   0  0  0  0  0  0  0  0  0  0  0  0
  158.9120  209.5890  155.0890 N   0  0  0  0  0  2  0  0  0  0  0  0
  161.0940  210.4210  155.5100 N   0  0  0  0  0  0  0  0  0  0  0  0
  160.4490  208.0730  156.0040 N   0  0  0  0  0  1  0  0  0  0  0  0
  162.4760  210.1340  155.8840 C   0  0  0  0  0  2  0  0  0  0  0  0
  164.0300  211.4490  156.7380 C   0  0  0  0  0  1  0  0  0  0  0  0
  162.8080  210.8440  157.0390 O   0  0  0  0  0  0  0  0  0  0  0  0
  160.4060  213.6220  156.5480 O   0  0  0  0  0  1  0  0  0  0  0  0
  159.8180  212.4550  156.0630 C   0  0  0  0  0  2  0  0  0  0  0  0
  1 15  1  6  0  0  0
  1 45  1  0  0  0  0
  2  8  1  0  0  0  0
  3  6  1  6  0  0  0
  3  5  1  0  0  0  0
  4 13  1  6  0  0  0
  4 11  1  0  0  0  0
  5  8  1  1  0  0  0
  5 11  1  0  0  0  0
  6  9  1  0  0  0  0
  9  2  1  0  0  0  0
 10  7  1  1  0  0  0
 10  3  1  0  0  0  0
 10  4  1  0  0  0  0
 11  1  1  1  0  0  0
 13 12  1  0  0  0  0
 14 13  2  0  0  0  0
 15 16  1  0  0  0  0
 16 17  1  1  0  0  0
 18 19  1  0  0  0  0
 18 16  1  0  0  0  0
 20 19  1  6  0  0  0
 20 43  1  0  0  0  0
 21 22  1  0  0  0  0
 21 20  1  1  0  0  0
 22 26  1  6  0  0  0
 23 22  1  0  0  0  0
 23 39  1  1  0  0  0
 24 21  1  0  0  0  0
 25 24  1  0  0  0  0
 25 27  1  1  0  0  0
 27 23  1  0  0  0  0
 29 35  1  1  0  0  0
 29 33  1  0  0  0  0
 30 28  1  6  0  0  0
 30 33  1  0  0  0  0
 30 25  1  0  0  0  0
 31 28  1  0  0  0  0
 31 29  1  0  0  0  0
 32 28  2  0  0  0  0
 35 34  1  1  0  0  0
 35 36  1  0  0  0  0
 36 38  1  0  0  0  0
 38 37  1  0  0  0  0
 39 41  1  0  0  0  0
 40 39  1  0  0  0  0
 43 44  1  0  0  0  0
 43 42  1  0  0  0  0
 45 46  1  0  0  0  0
 45 55  1  1  0  0  0
 46 49  1  0  0  0  0
 48 49  2  0  0  0  0
 49 47  2  0  0  0  0
 49 53  1  0  0  0  0
 50 51  1  0  0  0  0
 53 52  1  6  0  0  0
 53 50  1  0  0  0  0
 53 54  1  0  0  0  0
 54 51  1  0  0  0  0
 55 56  1  0  0  0  0
 56 57  1  0  0  0  0
 57 60  1  0  0  0  0
 57 66  1  1  0  0  0
 58 60  1  0  0  0  0
 58 61  1  0  0  0  0
 59 58  2  0  0  0  0
 60 62  1  0  0  0  0
 62 64  1  0  0  0  0
 63 64  1  0  0  0  0
 66 65  1  0  0  0  0
M  END
>  <MODEL>
1

>  <REMARK>
 VINA RESULT:       1.1      0.000      0.000
  Name = 
  25 active torsions:
  status: ('A' for Active; 'I' for Inactive)
    1  A    between atoms: C_2  and  C_35
    2  A    between atoms: C_3  and  O_19
    3  A    between atoms: C_3  and  N_38
    4  A    between atoms: C_4  and  C_21
    5  A    between atoms: C_9  and  C_61
    6  A    between atoms: C_13  and  C_51
    7  A    between atoms: C_13  and  C_60
    8  A    between atoms: C_13  and  O_63
    9  A    between atoms: C_15  and  C_46
   10  A    between atoms: C_15  and  O_63
   11  A    between atoms: C_17  and  C_25
   12  A    between atoms: C_23  and  C_51
   13  A    between atoms: C_23  and  O_55
   14  A    between atoms: C_26  and  C_41
   15  A    between atoms: S_27  and  C_35
   16  A    between atoms: C_29  and  C_32
   17  A    between atoms: C_32  and  C_61
   18  A    between atoms: C_35  and  C_47
   19  A    between atoms: N_38  and  C_56
   20  A    between atoms: C_46  and  C_47
   21  A    between atoms: C_49  and  S_57
   22  A    between atoms: C_51  and  N_53
   23  A    between atoms: N_53  and  S_57
   24  A    between atoms: O_55  and  C_56
   25  A    between atoms: C_56  and  C_58
                            x       y       z     vdW  Elec       q    Type
                         _______ _______ _______ _____ _____    ______ ____

>  <TORSDO>
F 25

$$$$
=
 OpenBabel11072409513D

 66 70  0  0  1  0  0  0  0  0999 V2000
  160.5280  209.9890  152.9530 C   0  0  2  0  0  3  0  0  0  0  0  0
  163.5200  211.1620  156.0000 C   0  0  0  0  0  2  0  0  0  0  0  0
  161.2570  209.3310  155.9850 C   0  0  2  0  0  3  0  0  0  0  0  0
  160.5400  207.7910  154.2780 C   0  0  1  0  0  3  0  0  0  0  0  0
  162.1770  209.4600  154.8040 C   0  0  2  0  0  3  0  0  0  0  0  0
  162.0660  209.5050  157.2610 C   0  0  0  0  0  2  0  0  0  0  0  0
  159.3900  207.9040  156.3810 O   0  0  0  0  0  1  0  0  0  0  0  0
  162.7250  210.8800  154.7170 C   0  0  0  0  0  2  0  0  0  0  0  0
  162.6720  210.9130  157.2610 C   0  0  0  0  0  2  0  0  0  0  0  0
  160.6570  207.9560  155.7980 C   0  0  2  0  0  3  0  0  0  0  0  0
  161.3810  208.9030  153.6330 C   0  0  2  0  0  3  0  0  0  0  0  0
  162.1640  206.0240  154.1640 O   0  0  0  0  0  1  0  0  0  0  0  0
  161.0300  206.4540  153.8170 C   0  0  0  0  0  0  0  0  0  0  0  0
  160.2570  205.7100  152.9330 O   0  0  0  0  0  0  0  0  0  0  0  0
  161.0700  210.4210  151.7290 O   0  0  0  0  0  0  0  0  0  0  0  0
  161.2650  209.2530  150.9840 C   0  0  2  0  0  3  0  0  0  0  0  0
  160.1930  208.2420  151.3380 C   0  0  0  0  0  1  0  0  0  0  0  0
  162.6350  208.6790  151.2940 C   0  0  0  0  0  2  0  0  0  0  0  0
  163.2030  207.9780  150.0740 C   0  0  0  0  0  2  0  0  0  0  0  0
  162.3240  208.2480  148.8610 C   0  0  1  0  0  3  0  0  0  0  0  0
  161.1070  207.3100  148.8330 C   0  0  1  0  0  3  0  0  0  0  0  0
  160.8690  206.6880  147.4420 C   0  0  1  0  0  3  0  0  0  0  0  0
  161.8160  205.5220  147.1410 C   0  0  2  0  0  3  0  0  0  0  0  0
  161.1140  206.3790  149.9130 O   0  0  0  0  0  0  0  0  0  0  0  0
  161.6620  205.0980  149.6090 C   0  0  2  0  0  3  0  0  0  0  0  0
  159.5470  206.2550  147.3400 O   0  0  0  0  0  1  0  0  0  0  0  0
  162.5820  205.0690  148.3800 C   0  0  0  0  0  2  0  0  0  0  0  0
  160.8090  202.9100  150.4970 C   0  0  0  0  0  0  0  0  0  0  0  0
  160.4690  201.5520  148.5460 C   0  0  1  0  0  3  0  0  0  0  0  0
  160.5570  204.0270  149.5470 C   0  0  2  0  0  3  0  0  0  0  0  0
  160.8240  201.6100  149.9500 N   0  0  0  0  0  2  0  0  0  0  0  0
  160.9880  203.0960  151.7300 O   0  0  0  0  0  0  0  0  0  0  0  0
  160.5000  203.2620  147.8840 S   0  0  0  0  0  0  0  0  0  0  0  0
  161.7060  199.5000  148.5110 O   0  0  0  0  0  1  0  0  0  0  0  0
  161.4470  200.6640  147.7830 C   0  0  1  0  0  3  0  0  0  0  0  0
  160.8720  200.2890  146.4240 C   0  0  0  0  0  2  0  0  0  0  0  0
  159.5070  201.5290  144.7420 C   0  0  0  0  0  1  0  0  0  0  0  0
  160.8240  201.4920  145.4960 C   0  0  0  0  0  2  0  0  0  0  0  0
  162.7640  205.8690  145.9990 C   0  0  0  0  0  3  0  0  0  0  0  0
  163.6360  204.8260  145.7500 F   0  0  0  0  0  0  0  0  0  0  0  0
  162.0500  206.1700  144.8540 F   0  0  0  0  0  0  0  0  0  0  0  0
  163.2340  210.8660  148.5900 O   0  0  0  0  0  1  0  0  0  0  0  0
  161.8070  209.9880  148.8920 S   0  0  0  0  0  3  0  0  0  0  0  0
  161.0010  210.1710  147.6120 O   0  0  0  0  0  1  0  0  0  0  0  0
  160.3220  211.1690  153.9070 C   0  0  1  0  0  3  0  0  0  0  0  0
  160.4240  212.4350  153.1870 N   0  0  0  0  0  2  0  0  0  0  0  0
  158.1980  211.4540  152.1050 O   0  0  0  0  0  0  0  0  0  0  0  0
  158.0750  213.6300  153.2190 O   0  0  0  0  0  0  0  0  0  0  0  0
  158.9310  212.7420  152.3590 S   0  0  0  0  0  0  0  0  0  0  0  0
  158.1070  214.4530  150.3730 C   0  0  0  0  0  2  0  0  0  0  0  0
  158.0300  213.4790  149.2270 C   0  0  0  0  0  2  0  0  0  0  0  0
  160.5770  214.2990  150.7930 C   0  0  0  0  0  1  0  0  0  0  0  0
  159.2430  213.5740  150.8090 C   0  0  1  0  0  0  0  0  0  0  0  0
  159.1020  212.7110  149.7150 O   0  0  0  0  0  0  0  0  0  0  0  0
  158.9560  211.0440  154.5670 C   0  0  0  0  0  2  0  0  0  0  0  0
  159.0940  210.8770  155.9470 O   0  0  0  0  0  0  0  0  0  0  0  0
  158.2010  211.7990  156.5060 C   0  0  2  0  0  3  0  0  0  0  0  0
  156.2320  210.8200  155.2790 C   0  0  0  0  0  0  0  0  0  0  0  0
  156.5690  209.6340  155.6710 N   0  0  0  0  0  1  0  0  0  0  0  0
  157.0180  211.9640  155.6600 N   0  0  0  0  0  0  0  0  0  0  0  0
  155.1280  210.9680  154.3920 N   0  0  0  0  0  2  0  0  0  0  0  0
  156.5810  213.3060  155.2840 C   0  0  0  0  0  2  0  0  0  0  0  0
  155.2150  214.1120  156.8190 C   0  0  0  0  0  1  0  0  0  0  0  0
  155.2260  213.4620  155.5840 O   0  0  0  0  0  0  0  0  0  0  0  0
  160.2750  212.9930  156.7220 O   0  0  0  0  0  1  0  0  0  0  0  0
  158.8880  213.1340  156.7590 C   0  0  0  0  0  2  0  0  0  0  0  0
  1 15  1  6  0  0  0
  1 45  1  0  0  0  0
  2  9  1  0  0  0  0
  3  6  1  1  0  0  0
  4 13  1  1  0  0  0
  4 10  1  0  0  0  0
  5  8  1  6  0  0  0
  5  3  1  0  0  0  0
  8  2  1  0  0  0  0
  9  6  1  0  0  0  0
 10  3  1  0  0  0  0
 10  7  1  1  0  0  0
 11  1  1  1  0  0  0
 11  4  1  0  0  0  0
 11  5  1  0  0  0  0
 13 12  1  0  0  0  0
 14 13  2  0  0  0  0
 16 18  1  0  0  0  0
 16 17  1  1  0  0  0
 16 15  1  0  0  0  0
 19 18  1  0  0  0  0
 20 43  1  0  0  0  0
 20 19  1  1  0  0  0
 21 20  1  6  0  0  0
 21 24  1  0  0  0  0
 22 26  1  1  0  0  0
 22 21  1  0  0  0  0
 23 39  1  6  0  0  0
 23 22  1  0  0  0  0
 23 27  1  0  0  0  0
 25 27  1  6  0  0  0
 25 24  1  0  0  0  0
 28 32  2  0  0  0  0
 29 35  1  6  0  0  0
 29 31  1  0  0  0  0
 30 33  1  6  0  0  0
 30 25  1  0  0  0  0
 30 28  1  0  0  0  0
 31 28  1  0  0  0  0
 33 29  1  0  0  0  0
 35 34  1  1  0  0  0
 36 35  1  0  0  0  0
 37 38  1  0  0  0  0
 38 36  1  0  0  0  0
 40 39  1  0  0  0  0
 41 39  1  0  0  0  0
 42 43  1  0  0  0  0
 44 43  1  0  0  0  0
 45 55  1  6  0  0  0
 46 45  1  0  0  0  0
 47 49  2  0  0  0  0
 49 46  1  0  0  0  0
 49 48  2  0  0  0  0
 50 53  1  0  0  0  0
 51 54  1  0  0  0  0
 51 50  1  0  0  0  0
 53 52  1  6  0  0  0
 53 49  1  0  0  0  0
 54 53  1  0  0  0  0
 55 56  1  0  0  0  0
 56 57  1  0  0  0  0
 57 66  1  6  0  0  0
 58 60  1  0  0  0  0
 58 59  1  0  0  0  0
 60 57  1  0  0  0  0
 61 58  2  0  0  0  0
 62 64  1  0  0  0  0
 62 60  1  0  0  0  0
 64 63  1  0  0  0  0
 65 66  1  0  0  0  0
M  END
>  <MODEL>
2

>  <REMARK>
 VINA RESULT:       3.1      2.453      5.716
  Name = 
  25 active torsions:
  status: ('A' for Active; 'I' for Inactive)
    1  A    between atoms: C_2  and  C_35
    2  A    between atoms: C_3  and  O_19
    3  A    between atoms: C_3  and  N_38
    4  A    between atoms: C_4  and  C_21
    5  A    between atoms: C_9  and  C_61
    6  A    between atoms: C_13  and  C_51
    7  A    between atoms: C_13  and  C_60
    8  A    between atoms: C_13  and  O_63
    9  A    between atoms: C_15  and  C_46
   10  A    between atoms: C_15  and  O_63
   11  A    between atoms: C_17  and  C_25
   12  A    between atoms: C_23  and  C_51
   13  A    between atoms: C_23  and  O_55
   14  A    between atoms: C_26  and  C_41
   15  A    between atoms: S_27  and  C_35
   16  A    between atoms: C_29  and  C_32
   17  A    between atoms: C_32  and  C_61
   18  A    between atoms: C_35  and  C_47
   19  A    between atoms: N_38  and  C_56
   20  A    between atoms: C_46  and  C_47
   21  A    between atoms: C_49  and  S_57
   22  A    between atoms: C_51  and  N_53
   23  A    between atoms: N_53  and  S_57
   24  A    between atoms: O_55  and  C_56
   25  A    between atoms: C_56  and  C_58
                            x       y       z     vdW  Elec       q    Type
                         _______ _______ _______ _____ _____    ______ ____

>  <TORSDO>
F 25

$$$$
