=
 OpenBabel11072413073D

 35 38  0  0  1  0  0  0  0  0999 V2000
  160.4390  210.5510  152.4100 C   0  0  1  0  0  3  0  0  0  0  0  0
  163.5380  205.4300  152.1280 O   0  0  0  0  0  1  0  0  0  0  0  0
  161.3430  206.2450  154.3160 C   0  0  0  0  0  2  0  0  0  0  0  0
  162.3190  207.3380  151.3820 C   0  0  0  0  0  2  0  0  0  0  0  0
  160.7660  203.6560  149.9390 N   0  0  0  0  0  0  0  0  0  0  0  0
  160.7970  210.6340  155.0340 C   0  0  0  0  0  2  0  0  0  0  0  0
  161.7620  203.0200  150.7890 C   0  0  0  0  0  2  0  0  0  0  0  0
  160.1920  204.3150  151.1240 C   0  0  2  0  0  3  0  0  0  0  0  0
  161.7230  208.0930  155.9400 C   0  0  0  0  0  2  0  0  0  0  0  0
  160.6400  208.5210  153.7190 C   0  0  0  0  0  3  0  0  0  0  0  0
  161.1450  205.1020  152.0430 C   0  0  1  0  0  0  0  0  0  0  0  0
  161.1680  203.5930  152.0600 C   0  0  2  0  0  3  0  0  0  0  0  0
  162.3850  205.8110  151.4400 C   0  0  2  0  0  3  0  0  0  0  0  0
  161.2100  209.3360  150.3100 C   0  0  0  0  0  2  0  0  0  0  0  0
  161.0170  209.1070  156.8540 C   0  0  0  0  0  2  0  0  0  0  0  0
  161.6080  210.2560  151.4660 C   0  0  0  0  0  2  0  0  0  0  0  0
  160.7870  207.5550  154.8650 C   0  0  1  0  0  3  0  0  0  0  0  0
  160.6070  209.8610  153.7490 C   0  0  0  0  0  0  0  0  0  0  0  0
  160.4090  205.6880  153.2490 C   0  0  0  0  0  2  0  0  0  0  0  0
  160.0910  209.9880  156.1340 N   0  0  0  0  0  2  0  0  0  0  0  0
  161.0590  207.8670  150.7060 C   0  0  0  0  0  2  0  0  0  0  0  0
  160.4580  205.5610  148.6140 O   0  0  0  0  0  1  0  0  0  0  0  0
  161.3930  204.6070  149.0190 C   0  0  2  0  0  3  0  0  0  0  0  0
  161.9110  203.8800  147.7910 C   0  0  0  0  0  1  0  0  0  0  0  0
  160.6820  212.7040  151.3600 O   0  0  0  0  0  1  0  0  0  0  0  0
  160.0980  212.0500  152.4480 C   0  0  1  0  0  3  0  0  0  0  0  0
  158.1290  213.1930  151.7150 O   0  0  0  0  0  0  0  0  0  0  0  0
  158.6300  212.3770  152.5350 C   0  0  0  0  0  0  0  0  0  0  0  0
  157.8410  211.8210  153.5470 O   0  0  0  0  0  0  0  0  0  0  0  0
  157.3940  212.5670  154.6750 C   0  0  1  0  0  3  0  0  0  0  0  0
  156.1690  213.3890  154.3100 C   0  0  0  0  0  1  0  0  0  0  0  0
  157.5530  212.2020  157.1860 C   0  0  0  0  0  1  0  0  0  0  0  0
  157.0800  211.6400  155.8500 C   0  0  1  0  0  3  0  0  0  0  0  0
  155.3490  210.1090  155.1600 O   0  0  0  0  0  1  0  0  0  0  0  0
  155.6020  211.2680  155.8980 C   0  0  0  0  0  2  0  0  0  0  0  0
  1 26  1  1  0  0  0
  1 18  1  0  0  0  0
  3 17  1  0  0  0  0
  4 13  1  0  0  0  0
  5  7  1  0  0  0  0
  6 20  1  0  0  0  0
  8  5  1  6  0  0  0
  8 11  1  0  0  0  0
  8 12  1  0  0  0  0
  9 15  1  0  0  0  0
 10 18  2  0  0  0  0
 11 12  1  0  0  0  0
 11 19  1  1  0  0  0
 12  7  1  6  0  0  0
 13 11  1  0  0  0  0
 13  2  1  1  0  0  0
 14 21  1  0  0  0  0
 14 16  1  0  0  0  0
 16  1  1  0  0  0  0
 17 10  1  6  0  0  0
 17  9  1  0  0  0  0
 18  6  1  0  0  0  0
 19  3  1  0  0  0  0
 20 15  1  0  0  0  0
 21  4  1  0  0  0  0
 22 23  1  0  0  0  0
 23 24  1  6  0  0  0
 23  5  1  0  0  0  0
 26 25  1  6  0  0  0
 26 28  1  0  0  0  0
 27 28  2  0  0  0  0
 28 29  1  0  0  0  0
 29 30  1  0  0  0  0
 30 31  1  6  0  0  0
 30 33  1  0  0  0  0
 33 35  1  0  0  0  0
 33 32  1  1  0  0  0
 34 35  1  0  0  0  0
M  END
>  <MODEL>
1

>  <REMARK>
 VINA RESULT:      -5.8      0.000      0.000
  Name = 
  7 active torsions:
  status: ('A' for Active; 'I' for Inactive)
    1  A    between atoms: C_3  and  C_23
    2  A    between atoms: C_4  and  C_8
    3  A    between atoms: C_4  and  C_16
    4  A    between atoms: N_11  and  C_29
    5  A    between atoms: C_14  and  O_22
    6  A    between atoms: C_14  and  C_23
    7  A    between atoms: C_16  and  O_22
                            x       y       z     vdW  Elec       q    Type
                         _______ _______ _______ _____ _____    ______ ____

>  <TORSDO>
F 7

$$$$
=
 OpenBabel11072413073D

 35 38  0  0  1  0  0  0  0  0999 V2000
  161.2550  209.8490  151.1170 C   0  0  1  0  0  3  0  0  0  0  0  0
  159.4130  214.4420  154.4960 O   0  0  0  0  0  1  0  0  0  0  0  0
  159.1570  214.1570  151.3140 C   0  0  0  0  0  2  0  0  0  0  0  0
  159.8470  212.1890  153.8470 C   0  0  0  0  0  2  0  0  0  0  0  0
  155.8100  212.8890  154.9740 N   0  0  0  0  0  0  0  0  0  0  0  0
  162.1950  211.5430  149.3100 C   0  0  0  0  0  2  0  0  0  0  0  0
  156.1900  214.2900  155.0820 C   0  0  0  0  0  2  0  0  0  0  0  0
  156.2210  212.8990  153.5590 C   0  0  2  0  0  3  0  0  0  0  0  0
  161.1520  214.1470  149.8260 C   0  0  0  0  0  2  0  0  0  0  0  0
  160.2250  212.0150  150.7630 C   0  0  0  0  0  3  0  0  0  0  0  0
  157.6310  213.4210  153.2230 C   0  0  1  0  0  0  0  0  0  0  0  0
  156.5470  214.3950  153.6130 C   0  0  2  0  0  3  0  0  0  0  0  0
  158.7880  213.2220  154.2360 C   0  0  2  0  0  3  0  0  0  0  0  0
  160.3360  209.7400  153.4880 C   0  0  0  0  0  2  0  0  0  0  0  0
  161.6720  213.7060  148.4490 C   0  0  0  0  0  2  0  0  0  0  0  0
  161.5480  210.0460  152.6070 C   0  0  0  0  0  2  0  0  0  0  0  0
  159.8970  213.3830  150.2270 C   0  0  1  0  0  3  0  0  0  0  0  0
  161.1900  211.1690  150.3750 C   0  0  0  0  0  0  0  0  0  0  0  0
  157.8900  213.4090  151.7160 C   0  0  0  0  0  2  0  0  0  0  0  0
  161.5480  212.2620  148.2200 N   0  0  0  0  0  2  0  0  0  0  0  0
  159.2640  210.8310  153.4760 C   0  0  0  0  0  2  0  0  0  0  0  0
  156.3030  210.7070  155.6650 O   0  0  0  0  0  1  0  0  0  0  0  0
  156.6750  212.0460  155.8010 C   0  0  2  0  0  3  0  0  0  0  0  0
  156.5450  212.4420  157.2610 C   0  0  0  0  0  1  0  0  0  0  0  0
  162.6830  207.9490  151.5030 O   0  0  0  0  0  1  0  0  0  0  0  0
  162.1430  208.7560  150.4990 C   0  0  1  0  0  3  0  0  0  0  0  0
  161.5440  208.2790  148.2330 O   0  0  0  0  0  0  0  0  0  0  0  0
  161.4850  207.9120  149.4380 C   0  0  0  0  0  0  0  0  0  0  0  0
  160.7730  206.7620  149.7900 O   0  0  0  0  0  0  0  0  0  0  0  0
  161.3760  205.4740  149.8700 C   0  0  1  0  0  3  0  0  0  0  0  0
  161.0090  204.8020  151.1830 C   0  0  0  0  0  1  0  0  0  0  0  0
  161.8360  204.7970  147.4640 C   0  0  0  0  0  1  0  0  0  0  0  0
  160.9510  204.6010  148.6890 C   0  0  1  0  0  3  0  0  0  0  0  0
  160.8120  202.3110  147.9460 O   0  0  0  0  0  1  0  0  0  0  0  0
  160.8620  203.1290  149.0770 C   0  0  0  0  0  2  0  0  0  0  0  0
  1 26  1  6  0  0  0
  1 16  1  0  0  0  0
  3 19  1  0  0  0  0
  4 13  1  0  0  0  0
  5  7  1  0  0  0  0
  5 23  1  0  0  0  0
  6 18  1  0  0  0  0
  8 12  1  0  0  0  0
  8  5  1  1  0  0  0
 11 19  1  6  0  0  0
 11  8  1  0  0  0  0
 11 12  1  0  0  0  0
 11 13  1  0  0  0  0
 12  7  1  1  0  0  0
 13  2  1  6  0  0  0
 15  9  1  0  0  0  0
 16 14  1  0  0  0  0
 17  9  1  1  0  0  0
 17 10  1  0  0  0  0
 17  3  1  0  0  0  0
 18 10  2  0  0  0  0
 18  1  1  0  0  0  0
 20 15  1  0  0  0  0
 20  6  1  0  0  0  0
 21 14  1  0  0  0  0
 21  4  1  0  0  0  0
 22 23  1  0  0  0  0
 23 24  1  1  0  0  0
 26 25  1  1  0  0  0
 27 28  2  0  0  0  0
 28 29  1  0  0  0  0
 28 26  1  0  0  0  0
 29 30  1  0  0  0  0
 30 31  1  1  0  0  0
 33 32  1  6  0  0  0
 33 35  1  0  0  0  0
 33 30  1  0  0  0  0
 34 35  1  0  0  0  0
M  END
>  <MODEL>
2

>  <REMARK>
 VINA RESULT:      -5.7      2.582      8.847
  Name = 
  7 active torsions:
  status: ('A' for Active; 'I' for Inactive)
    1  A    between atoms: C_3  and  C_23
    2  A    between atoms: C_4  and  C_8
    3  A    between atoms: C_4  and  C_16
    4  A    between atoms: N_11  and  C_29
    5  A    between atoms: C_14  and  O_22
    6  A    between atoms: C_14  and  C_23
    7  A    between atoms: C_16  and  O_22
                            x       y       z     vdW  Elec       q    Type
                         _______ _______ _______ _____ _____    ______ ____

>  <TORSDO>
F 7

$$$$
=
 OpenBabel11072413073D

 35 38  0  0  1  0  0  0  0  0999 V2000
  161.6200  208.0800  149.5180 C   0  0  1  0  0  3  0  0  0  0  0  0
  162.4540  210.9050  154.7350 O   0  0  0  0  0  1  0  0  0  0  0  0
  160.7210  211.9240  152.2390 C   0  0  0  0  0  2  0  0  0  0  0  0
  162.0980  209.1090  153.2080 C   0  0  0  0  0  2  0  0  0  0  0  0
  159.2450  209.2600  156.3530 N   0  0  0  0  0  0  0  0  0  0  0  0
  161.9370  210.3660  148.2180 C   0  0  0  0  0  2  0  0  0  0  0  0
  159.8950  210.5020  156.7460 C   0  0  0  0  0  2  0  0  0  0  0  0
  158.9570  209.8430  155.0310 C   0  0  2  0  0  3  0  0  0  0  0  0
  161.7710  212.5320  150.0650 C   0  0  0  0  0  2  0  0  0  0  0  0
  160.9830  210.1950  150.5150 C   0  0  0  0  0  3  0  0  0  0  0  0
  160.1270  210.4680  154.2500 C   0  0  1  0  0  0  0  0  0  0  0  0
  159.5540  211.1930  155.4420 C   0  0  2  0  0  3  0  0  0  0  0  0
  161.5570  209.8880  154.4080 C   0  0  2  0  0  3  0  0  0  0  0  0
  161.8860  207.0160  151.8150 C   0  0  0  0  0  2  0  0  0  0  0  0
  161.5070  212.6880  148.5600 C   0  0  0  0  0  2  0  0  0  0  0  0
  162.5940  207.6620  150.6230 C   0  0  0  0  0  2  0  0  0  0  0  0
  160.7170  211.6610  150.7370 C   0  0  1  0  0  3  0  0  0  0  0  0
  161.4790  209.5860  149.4280 C   0  0  0  0  0  0  0  0  0  0  0  0
  159.6610  211.0670  152.9220 C   0  0  0  0  0  2  0  0  0  0  0  0
  161.0160  211.4580  147.9290 N   0  0  0  0  0  2  0  0  0  0  0  0
  161.1600  208.0100  152.7230 C   0  0  0  0  0  2  0  0  0  0  0  0
  159.5860  206.9580  156.6080 O   0  0  0  0  0  1  0  0  0  0  0  0
  160.2120  208.1630  156.2810 C   0  0  2  0  0  3  0  0  0  0  0  0
  161.3460  208.4040  157.2610 C   0  0  0  0  0  1  0  0  0  0  0  0
  163.2000  206.8320  148.1950 O   0  0  0  0  0  1  0  0  0  0  0  0
  161.8970  207.3360  148.1990 C   0  0  1  0  0  3  0  0  0  0  0  0
  160.4350  206.2060  146.6810 O   0  0  0  0  0  0  0  0  0  0  0  0
  160.9090  206.2540  147.8480 C   0  0  0  0  0  0  0  0  0  0  0  0
  160.4830  205.3430  148.8190 O   0  0  0  0  0  0  0  0  0  0  0  0
  161.2200  204.1710  149.1550 C   0  0  1  0  0  3  0  0  0  0  0  0
  161.1370  203.9080  150.6500 C   0  0  0  0  0  1  0  0  0  0  0  0
  161.4240  202.7690  147.0450 C   0  0  0  0  0  1  0  0  0  0  0  0
  160.7040  202.9630  148.3740 C   0  0  1  0  0  3  0  0  0  0  0  0
  161.2470  200.6150  148.4790 O   0  0  0  0  0  1  0  0  0  0  0  0
  160.7380  201.6900  149.2130 C   0  0  0  0  0  2  0  0  0  0  0  0
  1 26  1  6  0  0  0
  1 16  1  0  0  0  0
  3 19  1  0  0  0  0
  4 13  1  0  0  0  0
  5  7  1  0  0  0  0
  6 18  1  0  0  0  0
  8 12  1  0  0  0  0
  8  5  1  1  0  0  0
 10 17  1  0  0  0  0
 11 19  1  6  0  0  0
 11 13  1  0  0  0  0
 11  8  1  0  0  0  0
 11 12  1  0  0  0  0
 12  7  1  1  0  0  0
 13  2  1  6  0  0  0
 14 21  1  0  0  0  0
 15  9  1  0  0  0  0
 16 14  1  0  0  0  0
 17  9  1  6  0  0  0
 17  3  1  0  0  0  0
 18  1  1  0  0  0  0
 18 10  2  0  0  0  0
 20  6  1  0  0  0  0
 20 15  1  0  0  0  0
 21  4  1  0  0  0  0
 23  5  1  0  0  0  0
 23 22  1  0  0  0  0
 23 24  1  1  0  0  0
 26 25  1  1  0  0  0
 27 28  2  0  0  0  0
 28 26  1  0  0  0  0
 28 29  1  0  0  0  0
 29 30  1  0  0  0  0
 30 31  1  1  0  0  0
 33 32  1  6  0  0  0
 33 30  1  0  0  0  0
 33 35  1  0  0  0  0
 34 35  1  0  0  0  0
M  END
>  <MODEL>
3

>  <REMARK>
 VINA RESULT:      -4.5      2.844      8.104
  Name = 
  7 active torsions:
  status: ('A' for Active; 'I' for Inactive)
    1  A    between atoms: C_3  and  C_23
    2  A    between atoms: C_4  and  C_8
    3  A    between atoms: C_4  and  C_16
    4  A    between atoms: N_11  and  C_29
    5  A    between atoms: C_14  and  O_22
    6  A    between atoms: C_14  and  C_23
    7  A    between atoms: C_16  and  O_22
                            x       y       z     vdW  Elec       q    Type
                         _______ _______ _______ _____ _____    ______ ____

>  <TORSDO>
F 7

$$$$
=
 OpenBabel11072413073D

 35 38  0  0  1  0  0  0  0  0999 V2000
  161.0680  210.8590  151.0490 C   0  0  1  0  0  3  0  0  0  0  0  0
  163.4580  205.4500  152.0100 O   0  0  0  0  0  1  0  0  0  0  0  0
  161.2580  206.9380  153.8030 C   0  0  0  0  0  2  0  0  0  0  0  0
  162.5580  207.3050  150.8130 C   0  0  0  0  0  2  0  0  0  0  0  0
  160.6180  203.6240  149.9550 N   0  0  0  0  0  0  0  0  0  0  0  0
  161.2650  211.4160  153.6320 C   0  0  0  0  0  2  0  0  0  0  0  0
  161.4620  203.0540  150.9950 C   0  0  0  0  0  2  0  0  0  0  0  0
  160.0630  204.5680  150.9400 C   0  0  2  0  0  3  0  0  0  0  0  0
  161.7790  209.0120  155.0780 C   0  0  0  0  0  2  0  0  0  0  0  0
  160.9090  209.1200  152.7290 C   0  0  0  0  0  3  0  0  0  0  0  0
  161.0530  205.4010  151.7760 C   0  0  1  0  0  0  0  0  0  0  0  0
  160.8710  203.9340  152.0770 C   0  0  2  0  0  3  0  0  0  0  0  0
  162.4140  205.8230  151.1630 C   0  0  2  0  0  3  0  0  0  0  0  0
  161.8000  209.1700  149.2910 C   0  0  0  0  0  2  0  0  0  0  0  0
  161.1600  210.2640  155.7180 C   0  0  0  0  0  2  0  0  0  0  0  0
  162.2440  210.2460  150.2850 C   0  0  0  0  0  2  0  0  0  0  0  0
  160.8500  208.3880  154.0440 C   0  0  1  0  0  3  0  0  0  0  0  0
  161.0540  210.4330  152.5040 C   0  0  0  0  0  0  0  0  0  0  0  0
  160.3270  206.2980  152.7790 C   0  0  0  0  0  2  0  0  0  0  0  0
  160.4100  211.0900  154.7660 N   0  0  0  0  0  2  0  0  0  0  0  0
  161.4270  207.8370  149.9420 C   0  0  0  0  0  2  0  0  0  0  0  0
  160.6840  205.3150  148.3380 O   0  0  0  0  0  1  0  0  0  0  0  0
  161.4250  204.2920  148.9330 C   0  0  2  0  0  3  0  0  0  0  0  0
  161.8330  203.2990  147.8600 C   0  0  0  0  0  1  0  0  0  0  0  0
  161.5750  212.6990  149.5800 O   0  0  0  0  0  1  0  0  0  0  0  0
  160.9300  212.3670  150.7740 C   0  0  1  0  0  3  0  0  0  0  0  0
  158.9740  213.1830  151.8810 O   0  0  0  0  0  0  0  0  0  0  0  0
  159.5210  212.8990  150.7810 C   0  0  0  0  0  0  0  0  0  0  0  0
  158.8080  213.0300  149.5860 O   0  0  0  0  0  0  0  0  0  0  0  0
  158.5440  214.2900  148.9780 C   0  0  1  0  0  3  0  0  0  0  0  0
  159.3800  214.4520  147.7190 C   0  0  0  0  0  1  0  0  0  0  0  0
  156.6380  213.6140  147.4380 C   0  0  0  0  0  1  0  0  0  0  0  0
  157.0580  214.4360  148.6510 C   0  0  1  0  0  3  0  0  0  0  0  0
  154.8270  214.3050  149.5580 O   0  0  0  0  0  1  0  0  0  0  0  0
  156.1790  214.1280  149.8590 C   0  0  0  0  0  2  0  0  0  0  0  0
  1 26  1  1  0  0  0
  1 18  1  0  0  0  0
  3 17  1  0  0  0  0
  4 13  1  0  0  0  0
  5  7  1  0  0  0  0
  6 20  1  0  0  0  0
  8  5  1  6  0  0  0
  8 11  1  0  0  0  0
  8 12  1  0  0  0  0
  9 15  1  0  0  0  0
 11 12  1  0  0  0  0
 11 19  1  1  0  0  0
 12  7  1  6  0  0  0
 13 11  1  0  0  0  0
 13  2  1  1  0  0  0
 14 21  1  0  0  0  0
 14 16  1  0  0  0  0
 16  1  1  0  0  0  0
 17 10  1  6  0  0  0
 17  9  1  0  0  0  0
 18 10  2  0  0  0  0
 18  6  1  0  0  0  0
 19  3  1  0  0  0  0
 20 15  1  0  0  0  0
 21  4  1  0  0  0  0
 22 23  1  0  0  0  0
 23 24  1  6  0  0  0
 23  5  1  0  0  0  0
 26 25  1  6  0  0  0
 26 28  1  0  0  0  0
 28 27  2  0  0  0  0
 29 28  1  0  0  0  0
 30 31  1  6  0  0  0
 30 29  1  0  0  0  0
 33 32  1  6  0  0  0
 33 30  1  0  0  0  0
 33 35  1  0  0  0  0
 34 35  1  0  0  0  0
M  END
>  <MODEL>
4

>  <REMARK>
 VINA RESULT:      -4.4      2.241      3.374
  Name = 
  7 active torsions:
  status: ('A' for Active; 'I' for Inactive)
    1  A    between atoms: C_3  and  C_23
    2  A    between atoms: C_4  and  C_8
    3  A    between atoms: C_4  and  C_16
    4  A    between atoms: N_11  and  C_29
    5  A    between atoms: C_14  and  O_22
    6  A    between atoms: C_14  and  C_23
    7  A    between atoms: C_16  and  O_22
                            x       y       z     vdW  Elec       q    Type
                         _______ _______ _______ _____ _____    ______ ____

>  <TORSDO>
F 7

$$$$
=
 OpenBabel11072413073D

 35 38  0  0  1  0  0  0  0  0999 V2000
  160.9150  207.9870  153.6710 C   0  0  1  0  0  3  0  0  0  0  0  0
  159.7440  213.7600  154.7630 O   0  0  0  0  0  1  0  0  0  0  0  0
  159.7030  212.2830  151.9200 C   0  0  0  0  0  2  0  0  0  0  0  0
  159.7760  211.3970  155.0780 C   0  0  0  0  0  2  0  0  0  0  0  0
  155.8780  213.0820  155.2260 N   0  0  0  0  0  0  0  0  0  0  0  0
  162.3200  208.6660  151.5300 C   0  0  0  0  0  2  0  0  0  0  0  0
  156.5170  214.3370  154.8600 C   0  0  0  0  0  2  0  0  0  0  0  0
  156.4000  212.4710  153.9920 C   0  0  2  0  0  3  0  0  0  0  0  0
  161.7740  211.3860  150.8690 C   0  0  0  0  0  2  0  0  0  0  0  0
  160.3680  209.9640  152.3810 C   0  0  0  0  0  3  0  0  0  0  0  0
  157.9070  212.5990  153.7060 C   0  0  1  0  0  0  0  0  0  0  0  0
  157.0090  213.7990  153.5320 C   0  0  2  0  0  3  0  0  0  0  0  0
  158.9130  212.6460  154.8860 C   0  0  2  0  0  3  0  0  0  0  0  0
  159.7980  208.9620  155.7400 C   0  0  0  0  0  2  0  0  0  0  0  0
  162.3090  210.3650  149.8540 C   0  0  0  0  0  2  0  0  0  0  0  0
  161.1160  208.7100  155.0050 C   0  0  0  0  0  2  0  0  0  0  0  0
  160.3630  211.0410  151.3290 C   0  0  1  0  0  3  0  0  0  0  0  0
  161.1750  208.8990  152.4890 C   0  0  0  0  0  0  0  0  0  0  0  0
  158.2850  211.9540  152.3720 C   0  0  0  0  0  2  0  0  0  0  0  0
  161.9210  208.9840  150.1650 N   0  0  0  0  0  2  0  0  0  0  0  0
  158.9680  210.1070  155.1560 C   0  0  0  0  0  2  0  0  0  0  0  0
  155.5080  211.8960  157.2110 O   0  0  0  0  0  1  0  0  0  0  0  0
  156.4870  212.5150  156.4310 C   0  0  2  0  0  3  0  0  0  0  0  0
  157.1390  213.6140  157.2510 C   0  0  0  0  0  1  0  0  0  0  0  0
  160.8220  205.6590  154.2810 O   0  0  0  0  0  1  0  0  0  0  0  0
  161.6180  206.6180  153.6500 C   0  0  1  0  0  3  0  0  0  0  0  0
  163.2580  206.2660  151.9470 O   0  0  0  0  0  0  0  0  0  0  0  0
  162.0520  206.1350  152.2910 C   0  0  0  0  0  0  0  0  0  0  0  0
  161.1200  205.5950  151.4010 O   0  0  0  0  0  0  0  0  0  0  0  0
  161.3360  204.3710  150.7060 C   0  0  1  0  0  3  0  0  0  0  0  0
  160.6310  203.2290  151.4200 C   0  0  0  0  0  1  0  0  0  0  0  0
  161.2860  205.7660  148.5820 C   0  0  0  0  0  1  0  0  0  0  0  0
  160.8490  204.4730  149.2600 C   0  0  1  0  0  3  0  0  0  0  0  0
  160.9250  203.4210  147.0910 O   0  0  0  0  0  1  0  0  0  0  0  0
  161.2530  203.2530  148.4390 C   0  0  0  0  0  2  0  0  0  0  0  0
  1 26  1  1  0  0  0
  1 16  1  0  0  0  0
  3 19  1  0  0  0  0
  4 21  1  0  0  0  0
  5 23  1  0  0  0  0
  6 18  1  0  0  0  0
  7  5  1  0  0  0  0
  8  5  1  1  0  0  0
 10 18  2  0  0  0  0
 11 19  1  6  0  0  0
 11  8  1  0  0  0  0
 11 13  1  0  0  0  0
 12 11  1  0  0  0  0
 12  8  1  0  0  0  0
 12  7  1  1  0  0  0
 13  2  1  6  0  0  0
 13  4  1  0  0  0  0
 15 20  1  0  0  0  0
 15  9  1  0  0  0  0
 16 14  1  0  0  0  0
 17  9  1  1  0  0  0
 17  3  1  0  0  0  0
 17 10  1  0  0  0  0
 18  1  1  0  0  0  0
 20  6  1  0  0  0  0
 21 14  1  0  0  0  0
 23 22  1  0  0  0  0
 23 24  1  1  0  0  0
 26 25  1  6  0  0  0
 27 28  2  0  0  0  0
 28 26  1  0  0  0  0
 29 28  1  0  0  0  0
 30 29  1  0  0  0  0
 30 31  1  1  0  0  0
 33 32  1  6  0  0  0
 33 30  1  0  0  0  0
 34 35  1  0  0  0  0
 35 33  1  0  0  0  0
M  END
>  <MODEL>
5

>  <REMARK>
 VINA RESULT:      -4.1      2.052      8.725
  Name = 
  7 active torsions:
  status: ('A' for Active; 'I' for Inactive)
    1  A    between atoms: C_3  and  C_23
    2  A    between atoms: C_4  and  C_8
    3  A    between atoms: C_4  and  C_16
    4  A    between atoms: N_11  and  C_29
    5  A    between atoms: C_14  and  O_22
    6  A    between atoms: C_14  and  C_23
    7  A    between atoms: C_16  and  O_22
                            x       y       z     vdW  Elec       q    Type
                         _______ _______ _______ _____ _____    ______ ____

>  <TORSDO>
F 7

$$$$
=
 OpenBabel11072413073D

 35 38  0  0  1  0  0  0  0  0999 V2000
  161.5110  205.9780  151.6800 C   0  0  1  0  0  3  0  0  0  0  0  0
  162.4520  210.9390  154.9060 O   0  0  0  0  0  1  0  0  0  0  0  0
  161.0850  210.7430  152.0140 C   0  0  0  0  0  2  0  0  0  0  0  0
  161.9050  208.6700  154.4200 C   0  0  0  0  0  2  0  0  0  0  0  0
  158.9130  210.7020  156.6490 N   0  0  0  0  0  0  0  0  0  0  0  0
  162.2910  207.2440  149.4880 C   0  0  0  0  0  2  0  0  0  0  0  0
  159.7320  211.8920  156.4710 C   0  0  0  0  0  2  0  0  0  0  0  0
  158.8150  210.5660  155.1850 C   0  0  2  0  0  3  0  0  0  0  0  0
  162.3650  210.0500  149.9940 C   0  0  0  0  0  2  0  0  0  0  0  0
  161.1700  208.3630  151.4130 C   0  0  0  0  0  3  0  0  0  0  0  0
  160.1230  210.5770  154.3720 C   0  0  1  0  0  0  0  0  0  0  0  0
  159.5990  211.8630  154.9620 C   0  0  2  0  0  3  0  0  0  0  0  0
  161.4220  210.0020  154.9950 C   0  0  2  0  0  3  0  0  0  0  0  0
  161.4410  206.1980  154.2150 C   0  0  0  0  0  2  0  0  0  0  0  0
  162.2320  209.4520  148.5850 C   0  0  0  0  0  2  0  0  0  0  0  0
  162.3250  206.0710  152.9730 C   0  0  0  0  0  2  0  0  0  0  0  0
  161.1380  209.7590  150.8490 C   0  0  1  0  0  3  0  0  0  0  0  0
  161.6300  207.2380  150.8460 C   0  0  0  0  0  0  0  0  0  0  0  0
  159.8540  210.4710  152.8710 C   0  0  0  0  0  2  0  0  0  0  0  0
  161.5860  208.1350  148.5750 N   0  0  0  0  0  2  0  0  0  0  0  0
  160.8320  207.5880  154.4070 C   0  0  0  0  0  2  0  0  0  0  0  0
  161.0440  209.9440  157.2510 O   0  0  0  0  0  1  0  0  0  0  0  0
  159.6860  209.6200  157.2610 C   0  0  2  0  0  3  0  0  0  0  0  0
  159.4860  208.3330  156.4820 C   0  0  0  0  0  1  0  0  0  0  0  0
  162.0680  203.6430  151.8670 O   0  0  0  0  0  1  0  0  0  0  0  0
  161.7480  204.6460  150.9490 C   0  0  1  0  0  3  0  0  0  0  0  0
  159.6400  203.5940  150.5380 O   0  0  0  0  0  0  0  0  0  0  0  0
  160.6300  204.1980  150.0440 C   0  0  0  0  0  0  0  0  0  0  0  0
  160.7130  204.4030  148.6630 O   0  0  0  0  0  0  0  0  0  0  0  0
  161.5870  203.6570  147.8230 C   0  0  1  0  0  3  0  0  0  0  0  0
  161.0200  202.2690  147.5740 C   0  0  0  0  0  1  0  0  0  0  0  0
  163.2860  204.7010  146.2460 C   0  0  0  0  0  1  0  0  0  0  0  0
  161.8160  204.3820  146.4960 C   0  0  1  0  0  3  0  0  0  0  0  0
  160.4450  204.4690  144.5140 O   0  0  0  0  0  1  0  0  0  0  0  0
  161.2070  203.6220  145.3230 C   0  0  0  0  0  2  0  0  0  0  0  0
  1 26  1  6  0  0  0
  1 16  1  0  0  0  0
  3 19  1  0  0  0  0
  4 13  1  0  0  0  0
  5 23  1  0  0  0  0
  6 18  1  0  0  0  0
  7  5  1  0  0  0  0
  8  5  1  1  0  0  0
 11 19  1  6  0  0  0
 11 12  1  0  0  0  0
 11 13  1  0  0  0  0
 11  8  1  0  0  0  0
 12  8  1  0  0  0  0
 12  7  1  1  0  0  0
 13  2  1  6  0  0  0
 14 21  1  0  0  0  0
 15  9  1  0  0  0  0
 16 14  1  0  0  0  0
 17  9  1  1  0  0  0
 17 10  1  0  0  0  0
 17  3  1  0  0  0  0
 18 10  2  0  0  0  0
 18  1  1  0  0  0  0
 20 15  1  0  0  0  0
 20  6  1  0  0  0  0
 21  4  1  0  0  0  0
 22 23  1  0  0  0  0
 23 24  1  6  0  0  0
 26 25  1  1  0  0  0
 28 27  2  0  0  0  0
 28 26  1  0  0  0  0
 29 28  1  0  0  0  0
 30 31  1  6  0  0  0
 30 29  1  0  0  0  0
 33 32  1  6  0  0  0
 33 30  1  0  0  0  0
 34 35  1  0  0  0  0
 35 33  1  0  0  0  0
M  END
>  <MODEL>
6

>  <REMARK>
 VINA RESULT:      -4.0      2.501      8.677
  Name = 
  7 active torsions:
  status: ('A' for Active; 'I' for Inactive)
    1  A    between atoms: C_3  and  C_23
    2  A    between atoms: C_4  and  C_8
    3  A    between atoms: C_4  and  C_16
    4  A    between atoms: N_11  and  C_29
    5  A    between atoms: C_14  and  O_22
    6  A    between atoms: C_14  and  C_23
    7  A    between atoms: C_16  and  O_22
                            x       y       z     vdW  Elec       q    Type
                         _______ _______ _______ _____ _____    ______ ____

>  <TORSDO>
F 7

$$$$
=
 OpenBabel11072413073D

 35 38  0  0  1  0  0  0  0  0999 V2000
  161.5350  206.2520  152.5600 C   0  0  1  0  0  3  0  0  0  0  0  0
  159.6770  206.4050  146.8660 O   0  0  0  0  0  1  0  0  0  0  0  0
  162.0080  208.1620  148.1880 C   0  0  0  0  0  2  0  0  0  0  0  0
  160.2680  205.5000  148.9910 C   0  0  0  0  0  2  0  0  0  0  0  0
  162.3050  203.6770  145.7390 N   0  0  0  0  0  0  0  0  0  0  0  0
  161.6770  208.8970  152.5950 C   0  0  0  0  0  2  0  0  0  0  0  0
  161.6610  204.6810  144.9050 C   0  0  0  0  0  2  0  0  0  0  0  0
  162.9320  204.7520  146.5270 C   0  0  2  0  0  3  0  0  0  0  0  0
  161.5400  209.8840  149.9230 C   0  0  0  0  0  2  0  0  0  0  0  0
  162.0520  207.5130  150.5560 C   0  0  0  0  0  3  0  0  0  0  0  0
  162.0200  205.8590  147.0890 C   0  0  1  0  0  0  0  0  0  0  0  0
  162.3420  205.8330  145.6150 C   0  0  2  0  0  3  0  0  0  0  0  0
  160.5600  205.5230  147.4900 C   0  0  2  0  0  3  0  0  0  0  0  0
  160.6700  204.3000  151.1740 C   0  0  0  0  0  2  0  0  0  0  0  0
  162.1590  210.6780  151.0830 C   0  0  0  0  0  2  0  0  0  0  0  0
  160.3040  205.5380  151.9950 C   0  0  0  0  0  2  0  0  0  0  0  0
  162.3490  208.6350  149.5970 C   0  0  1  0  0  3  0  0  0  0  0  0
  161.7870  207.5770  151.8690 C   0  0  0  0  0  0  0  0  0  0  0  0
  162.8220  206.9200  147.8430 C   0  0  0  0  0  2  0  0  0  0  0  0
  162.7070  209.8230  152.1420 N   0  0  0  0  0  2  0  0  0  0  0  0
  161.2230  204.6150  149.7830 C   0  0  0  0  0  2  0  0  0  0  0  0
  161.9470  202.2370  147.5500 O   0  0  0  0  0  1  0  0  0  0  0  0
  161.3150  202.9230  146.5100 C   0  0  2  0  0  3  0  0  0  0  0  0
  160.6170  201.9150  145.6150 C   0  0  0  0  0  1  0  0  0  0  0  0
  162.7850  206.6490  154.5800 O   0  0  0  0  0  1  0  0  0  0  0  0
  161.5300  206.2700  154.0990 C   0  0  1  0  0  3  0  0  0  0  0  0
  159.3370  206.5670  155.0050 O   0  0  0  0  0  0  0  0  0  0  0  0
  160.4460  207.1020  154.7310 C   0  0  0  0  0  0  0  0  0  0  0  0
  160.6470  208.4660  154.9670 O   0  0  0  0  0  0  0  0  0  0  0  0
  160.5390  209.0500  156.2610 C   0  0  1  0  0  3  0  0  0  0  0  0
  161.3800  208.2730  157.2610 C   0  0  0  0  0  1  0  0  0  0  0  0
  162.4020  210.7030  155.7530 C   0  0  0  0  0  1  0  0  0  0  0  0
  160.9670  210.5170  156.2320 C   0  0  1  0  0  3  0  0  0  0  0  0
  160.5950  211.8390  154.2500 O   0  0  0  0  0  1  0  0  0  0  0  0
  159.9990  211.3750  155.4250 C   0  0  0  0  0  2  0  0  0  0  0  0
  1 26  1  1  0  0  0
  4 21  1  0  0  0  0
  5 23  1  0  0  0  0
  7  5  1  0  0  0  0
  8  5  1  6  0  0  0
  8 11  1  0  0  0  0
  9 15  1  0  0  0  0
 10 18  2  0  0  0  0
 11 13  1  0  0  0  0
 11 19  1  1  0  0  0
 12  7  1  6  0  0  0
 12  8  1  0  0  0  0
 12 11  1  0  0  0  0
 13  2  1  6  0  0  0
 13  4  1  0  0  0  0
 14 16  1  0  0  0  0
 15 20  1  0  0  0  0
 16  1  1  0  0  0  0
 17  3  1  6  0  0  0
 17  9  1  0  0  0  0
 17 10  1  0  0  0  0
 18  1  1  0  0  0  0
 18  6  1  0  0  0  0
 19  3  1  0  0  0  0
 20  6  1  0  0  0  0
 21 14  1  0  0  0  0
 23 24  1  6  0  0  0
 23 22  1  0  0  0  0
 26 25  1  6  0  0  0
 26 28  1  0  0  0  0
 28 29  1  0  0  0  0
 28 27  2  0  0  0  0
 29 30  1  0  0  0  0
 30 31  1  1  0  0  0
 33 32  1  6  0  0  0
 33 30  1  0  0  0  0
 34 35  1  0  0  0  0
 35 33  1  0  0  0  0
M  END
>  <MODEL>
7

>  <REMARK>
 VINA RESULT:      -3.6      2.572      5.287
  Name = 
  7 active torsions:
  status: ('A' for Active; 'I' for Inactive)
    1  A    between atoms: C_3  and  C_23
    2  A    between atoms: C_4  and  C_8
    3  A    between atoms: C_4  and  C_16
    4  A    between atoms: N_11  and  C_29
    5  A    between atoms: C_14  and  O_22
    6  A    between atoms: C_14  and  C_23
    7  A    between atoms: C_16  and  O_22
                            x       y       z     vdW  Elec       q    Type
                         _______ _______ _______ _____ _____    ______ ____

>  <TORSDO>
F 7

$$$$
=
 OpenBabel11072413073D

 35 38  0  0  1  0  0  0  0  0999 V2000
  161.3560  204.9390  151.3250 C   0  0  1  0  0  3  0  0  0  0  0  0
  162.9460  210.3330  153.3930 O   0  0  0  0  0  1  0  0  0  0  0  0
  161.3780  209.6890  150.6730 C   0  0  0  0  0  2  0  0  0  0  0  0
  162.1680  208.0790  153.4200 C   0  0  0  0  0  2  0  0  0  0  0  0
  159.5220  210.8150  155.3080 N   0  0  0  0  0  0  0  0  0  0  0  0
  162.0990  205.6450  148.8830 C   0  0  0  0  0  2  0  0  0  0  0  0
  160.4310  211.8540  154.8480 C   0  0  0  0  0  2  0  0  0  0  0  0
  159.3170  210.3930  153.9120 C   0  0  2  0  0  3  0  0  0  0  0  0
  162.4550  208.4730  148.7860 C   0  0  0  0  0  2  0  0  0  0  0  0
  161.2110  207.2400  150.5810 C   0  0  0  0  0  3  0  0  0  0  0  0
  160.5640  210.1060  153.0550 C   0  0  1  0  0  0  0  0  0  0  0  0
  160.1960  211.5310  153.3860 C   0  0  2  0  0  3  0  0  0  0  0  0
  161.8450  209.5430  153.7240 C   0  0  2  0  0  3  0  0  0  0  0  0
  161.4740  205.6770  153.7590 C   0  0  0  0  0  2  0  0  0  0  0  0
  162.1770  207.6170  147.5410 C   0  0  0  0  0  2  0  0  0  0  0  0
  162.2590  205.2110  152.5310 C   0  0  0  0  0  2  0  0  0  0  0  0
  161.2670  208.4880  149.7390 C   0  0  1  0  0  3  0  0  0  0  0  0
  161.5310  205.9830  150.2410 C   0  0  0  0  0  0  0  0  0  0  0  0
  160.1870  209.7240  151.6230 C   0  0  0  0  0  2  0  0  0  0  0  0
  161.4170  206.3970  147.8370 N   0  0  0  0  0  2  0  0  0  0  0  0
  161.0050  207.1310  153.6830 C   0  0  0  0  0  2  0  0  0  0  0  0
  159.3280  208.8730  156.6020 O   0  0  0  0  0  1  0  0  0  0  0  0
  160.2350  209.8080  156.0970 C   0  0  2  0  0  3  0  0  0  0  0  0
  160.9510  210.4690  157.2610 C   0  0  0  0  0  1  0  0  0  0  0  0
  161.0220  202.6300  151.9220 O   0  0  0  0  0  1  0  0  0  0  0  0
  161.4240  203.4680  150.8800 C   0  0  1  0  0  3  0  0  0  0  0  0
  159.4120  203.1110  149.6370 O   0  0  0  0  0  0  0  0  0  0  0  0
  160.6730  203.1400  149.6160 C   0  0  0  0  0  0  0  0  0  0  0  0
  161.3650  202.8200  148.4440 O   0  0  0  0  0  0  0  0  0  0  0  0
  160.7410  202.7850  147.1640 C   0  0  1  0  0  3  0  0  0  0  0  0
  161.6160  203.4790  146.1340 C   0  0  0  0  0  1  0  0  0  0  0  0
  160.1460  201.2220  145.2500 C   0  0  0  0  0  1  0  0  0  0  0  0
  160.4570  201.3450  146.7370 C   0  0  1  0  0  3  0  0  0  0  0  0
  161.5620  199.2300  146.3830 O   0  0  0  0  0  1  0  0  0  0  0  0
  161.5820  200.4000  147.1470 C   0  0  0  0  0  2  0  0  0  0  0  0
  1 26  1  6  0  0  0
  1 16  1  0  0  0  0
  3 19  1  0  0  0  0
  4 21  1  0  0  0  0
  4 13  1  0  0  0  0
  5 23  1  0  0  0  0
  6 18  1  0  0  0  0
  7  5  1  0  0  0  0
  8  5  1  1  0  0  0
 11 19  1  6  0  0  0
 11 12  1  0  0  0  0
 11 13  1  0  0  0  0
 11  8  1  0  0  0  0
 12  8  1  0  0  0  0
 12  7  1  1  0  0  0
 13  2  1  6  0  0  0
 15 20  1  0  0  0  0
 15  9  1  0  0  0  0
 16 14  1  0  0  0  0
 17  9  1  6  0  0  0
 17 10  1  0  0  0  0
 17  3  1  0  0  0  0
 18 10  2  0  0  0  0
 18  1  1  0  0  0  0
 20  6  1  0  0  0  0
 21 14  1  0  0  0  0
 23 22  1  0  0  0  0
 23 24  1  1  0  0  0
 26 25  1  1  0  0  0
 28 27  2  0  0  0  0
 28 26  1  0  0  0  0
 29 28  1  0  0  0  0
 30 31  1  6  0  0  0
 30 29  1  0  0  0  0
 33 32  1  6  0  0  0
 33 35  1  0  0  0  0
 33 30  1  0  0  0  0
 34 35  1  0  0  0  0
M  END
>  <MODEL>
8

>  <REMARK>
 VINA RESULT:      -3.4      2.565      9.179
  Name = 
  7 active torsions:
  status: ('A' for Active; 'I' for Inactive)
    1  A    between atoms: C_3  and  C_23
    2  A    between atoms: C_4  and  C_8
    3  A    between atoms: C_4  and  C_16
    4  A    between atoms: N_11  and  C_29
    5  A    between atoms: C_14  and  O_22
    6  A    between atoms: C_14  and  C_23
    7  A    between atoms: C_16  and  O_22
                            x       y       z     vdW  Elec       q    Type
                         _______ _______ _______ _____ _____    ______ ____

>  <TORSDO>
F 7

$$$$
=
 OpenBabel11072413073D

 35 38  0  0  1  0  0  0  0  0999 V2000
  161.4840  206.3680  151.1250 C   0  0  1  0  0  3  0  0  0  0  0  0
  162.5910  210.7020  155.1120 O   0  0  0  0  0  1  0  0  0  0  0  0
  161.1900  211.0210  152.2480 C   0  0  0  0  0  2  0  0  0  0  0  0
  161.9780  208.5580  154.2660 C   0  0  0  0  0  2  0  0  0  0  0  0
  159.0640  210.2680  156.8420 N   0  0  0  0  0  0  0  0  0  0  0  0
  162.2760  207.9600  149.1610 C   0  0  0  0  0  2  0  0  0  0  0  0
  159.9130  211.4500  156.8520 C   0  0  0  0  0  2  0  0  0  0  0  0
  158.9480  210.3780  155.3780 C   0  0  2  0  0  3  0  0  0  0  0  0
  162.4300  210.6400  150.1230 C   0  0  0  0  0  2  0  0  0  0  0  0
  161.2050  208.7720  151.2600 C   0  0  0  0  0  3  0  0  0  0  0  0
  160.2480  210.4910  154.5600 C   0  0  1  0  0  0  0  0  0  0  0  0
  159.7650  211.6740  155.3610 C   0  0  2  0  0  3  0  0  0  0  0  0
  161.5370  209.7890  155.0600 C   0  0  2  0  0  3  0  0  0  0  0  0
  161.4460  206.1670  153.6620 C   0  0  0  0  0  2  0  0  0  0  0  0
  162.2680  210.2880  148.6370 C   0  0  0  0  0  2  0  0  0  0  0  0
  162.3140  206.2250  152.4040 C   0  0  0  0  0  2  0  0  0  0  0  0
  161.2050  210.2430  150.9360 C   0  0  1  0  0  3  0  0  0  0  0  0
  161.6290  207.7460  150.5090 C   0  0  0  0  0  0  0  0  0  0  0  0
  159.9610  210.6420  153.0650 C   0  0  0  0  0  2  0  0  0  0  0  0
  161.5860  209.0070  148.4180 N   0  0  0  0  0  2  0  0  0  0  0  0
  160.8770  207.5210  154.0900 C   0  0  0  0  0  2  0  0  0  0  0  0
  161.1830  209.3530  157.2370 O   0  0  0  0  0  1  0  0  0  0  0  0
  159.8140  209.0800  157.2560 C   0  0  2  0  0  3  0  0  0  0  0  0
  159.5340  207.9300  156.3050 C   0  0  0  0  0  1  0  0  0  0  0  0
  161.1650  204.0090  150.7640 O   0  0  0  0  0  1  0  0  0  0  0  0
  161.6780  205.1700  150.1800 C   0  0  1  0  0  3  0  0  0  0  0  0
  159.9950  205.8740  148.6340 O   0  0  0  0  0  0  0  0  0  0  0  0
  161.1310  205.3490  148.7880 C   0  0  0  0  0  0  0  0  0  0  0  0
  161.8520  204.8930  147.6810 O   0  0  0  0  0  0  0  0  0  0  0  0
  161.2250  204.4200  146.4920 C   0  0  1  0  0  3  0  0  0  0  0  0
  161.8730  205.0500  145.2700 C   0  0  0  0  0  1  0  0  0  0  0  0
  160.9470  202.2140  147.7250 C   0  0  0  0  0  1  0  0  0  0  0  0
  161.2990  202.8960  146.4070 C   0  0  1  0  0  3  0  0  0  0  0  0
  160.2010  200.9870  145.4230 O   0  0  0  0  0  1  0  0  0  0  0  0
  160.4560  202.3510  145.2590 C   0  0  0  0  0  2  0  0  0  0  0  0
  1 26  1  6  0  0  0
  1 16  1  0  0  0  0
  3 19  1  0  0  0  0
  4 13  1  0  0  0  0
  5  7  1  0  0  0  0
  5 23  1  0  0  0  0
  6 18  1  0  0  0  0
  8  5  1  1  0  0  0
 11 19  1  6  0  0  0
 11 13  1  0  0  0  0
 11 12  1  0  0  0  0
 11  8  1  0  0  0  0
 12  8  1  0  0  0  0
 12  7  1  1  0  0  0
 13  2  1  6  0  0  0
 14 21  1  0  0  0  0
 15  9  1  0  0  0  0
 16 14  1  0  0  0  0
 17  9  1  1  0  0  0
 17 10  1  0  0  0  0
 17  3  1  0  0  0  0
 18  1  1  0  0  0  0
 18 10  2  0  0  0  0
 20 15  1  0  0  0  0
 20  6  1  0  0  0  0
 21  4  1  0  0  0  0
 22 23  1  0  0  0  0
 23 24  1  6  0  0  0
 26 25  1  1  0  0  0
 27 28  2  0  0  0  0
 28 26  1  0  0  0  0
 29 28  1  0  0  0  0
 30 31  1  6  0  0  0
 30 29  1  0  0  0  0
 33 30  1  0  0  0  0
 33 32  1  1  0  0  0
 35 34  1  0  0  0  0
 35 33  1  0  0  0  0
M  END
>  <MODEL>
9

>  <REMARK>
 VINA RESULT:      -3.1      2.719      8.641
  Name = 
  7 active torsions:
  status: ('A' for Active; 'I' for Inactive)
    1  A    between atoms: C_3  and  C_23
    2  A    between atoms: C_4  and  C_8
    3  A    between atoms: C_4  and  C_16
    4  A    between atoms: N_11  and  C_29
    5  A    between atoms: C_14  and  O_22
    6  A    between atoms: C_14  and  C_23
    7  A    between atoms: C_16  and  O_22
                            x       y       z     vdW  Elec       q    Type
                         _______ _______ _______ _____ _____    ______ ____

>  <TORSDO>
F 7

$$$$
