=
 OpenBabel11072411313D

 35 38  0  0  1  0  0  0  0  0999 V2000
  161.6360  210.4870  155.0380 C   0  0  1  0  0  3  0  0  0  0  0  0
  159.6910  211.8770  153.9310 C   0  0  2  0  0  3  0  0  0  0  0  0
  160.5230  209.6840  152.9380 C   0  0  0  0  0  0  0  0  0  0  0  0
  161.2560  209.4330  154.0250 C   0  0  0  0  0  3  0  0  0  0  0  0
  160.8620  212.5720  155.8530 O   0  0  0  0  0  0  0  0  0  0  0  0
  160.0100  211.0810  152.6590 C   0  0  2  0  0  3  0  0  0  0  0  0
  160.7270  211.6970  155.0120 C   0  0  0  0  0  0  0  0  0  0  0  0
  156.8250  210.1330  155.7510 C   0  0  0  0  0  3  0  0  0  0  0  0
  155.6100  210.9540  155.3960 C   0  0  2  0  0  3  0  0  0  0  0  0
  155.9300  212.1140  154.4860 C   0  0  0  0  0  0  0  0  0  0  0  0
  157.3080  212.3700  154.0450 C   0  0  0  0  0  3  0  0  0  0  0  0
  155.0030  212.8630  154.0770 O   0  0  0  0  0  0  0  0  0  0  0  0
  158.3090  211.5800  154.4290 C   0  0  0  0  0  0  0  0  0  0  0  0
  158.0530  210.4210  155.3090 C   0  0  0  0  0  3  0  0  0  0  0  0
  155.7130  212.4460  157.2610 O   0  0  0  0  0  1  0  0  0  0  0  0
  154.9350  211.4540  156.6640 C   0  0  0  0  0  2  0  0  0  0  0  0
  161.6030  210.9040  150.3260 S   0  0  0  0  0  0  0  0  0  0  0  0
  160.7630  213.3420  149.7650 C   0  0  0  0  0  2  0  0  0  0  0  0
  160.0770  213.0300  151.0440 C   0  0  0  0  0  2  0  0  0  0  0  0
  161.5130  212.3600  149.3040 C   0  0  1  0  0  3  0  0  0  0  0  0
  160.8670  211.8930  151.6770 C   0  0  1  0  0  3  0  0  0  0  0  0
  163.0120  212.6610  147.1510 C   0  0  0  0  0  3  0  0  0  0  0  0
  162.3310  212.5240  148.1360 C   0  0  0  0  0  0  0  0  0  0  0  0
  161.7760  209.9030  156.4510 C   0  0  0  0  0  3  0  0  0  0  0  0
  161.6400  208.3890  156.4740 C   0  0  0  0  0  1  0  0  0  0  0  0
  163.0910  210.3160  157.0870 C   0  0  0  0  0  1  0  0  0  0  0  0
  160.2390  208.5980  152.0510 N   0  0  0  0  0  2  0  0  0  0  0  0
  161.1960  207.6500  151.5600 C   0  0  0  0  0  0  0  0  0  0  0  0
  162.4320  207.8380  151.7160 O   0  0  0  0  0  0  0  0  0  0  0  0
  161.2500  204.2620  149.1070 O   0  0  0  0  0  0  0  0  0  0  0  0
  161.4770  205.1830  151.3390 C   0  0  0  0  0  2  0  0  0  0  0  0
  160.8720  206.5990  149.3600 C   0  0  0  0  0  3  0  0  0  0  0  0
  161.0950  205.5480  148.5690 C   0  0  0  0  0  3  0  0  0  0  0  0
  161.0510  203.9870  150.4950 C   0  0  0  0  0  2  0  0  0  0  0  0
  160.7320  206.4240  150.8460 C   0  0  2  0  0  3  0  0  0  0  0  0
  1 24  1  1  0  0  0
  2 13  1  1  0  0  0
  2  7  1  0  0  0  0
  3  4  2  0  0  0  0
  4  1  1  0  0  0  0
  6  3  1  1  0  0  0
  6  2  1  0  0  0  0
  7  1  1  0  0  0  0
  7  5  2  0  0  0  0
  9  8  1  0  0  0  0
  9 16  1  1  0  0  0
 10  9  1  0  0  0  0
 11 13  2  0  0  0  0
 11 10  1  0  0  0  0
 12 10  2  0  0  0  0
 13 14  1  0  0  0  0
 14  8  2  0  0  0  0
 16 15  1  0  0  0  0
 17 21  1  0  0  0  0
 18 19  1  0  0  0  0
 20 23  1  1  0  0  0
 20 18  1  0  0  0  0
 20 17  1  0  0  0  0
 21 19  1  6  0  0  0
 21  6  1  0  0  0  0
 22 23  3  0  0  0  0
 24 25  1  0  0  0  0
 24 26  1  0  0  0  0
 27  3  1  0  0  0  0
 28 29  2  0  0  0  0
 28 27  1  0  0  0  0
 30 34  1  0  0  0  0
 32 35  1  0  0  0  0
 33 30  1  0  0  0  0
 33 32  2  0  0  0  0
 34 31  1  0  0  0  0
 35 31  1  0  0  0  0
 35 28  1  1  0  0  0
M  END
>  <MODEL>
1

>  <REMARK>
 VINA RESULT:      -5.2      0.000      0.000
  Name = 
  7 active torsions:
  status: ('A' for Active; 'I' for Inactive)
    1  A    between atoms: C_1  and  C_6
    2  A    between atoms: C_3  and  C_27
    3  A    between atoms: N_10  and  C_16
    4  A    between atoms: C_11  and  C_35
    5  A    between atoms: C_13  and  C_18
    6  A    between atoms: C_22  and  C_29
    7  A    between atoms: C_28  and  C_33
                            x       y       z     vdW  Elec       q    Type
                         _______ _______ _______ _____ _____    ______ ____

>  <TORSDO>
F 7

$$$$
=
 OpenBabel11072411313D

 35 38  0  0  1  0  0  0  0  0999 V2000
  161.0130  208.9050  139.2930 C   0  0  1  0  0  3  0  0  0  0  0  0
  160.9430  211.2660  138.1260 C   0  0  2  0  0  3  0  0  0  0  0  0
  160.2840  210.9410  140.5650 C   0  0  0  0  0  0  0  0  0  0  0  0
  160.7480  209.6890  140.5560 C   0  0  0  0  0  3  0  0  0  0  0  0
  161.5300  209.2760  137.0110 O   0  0  0  0  0  0  0  0  0  0  0  0
  159.9990  211.6670  139.2670 C   0  0  2  0  0  3  0  0  0  0  0  0
  161.2030  209.7810  138.0740 C   0  0  0  0  0  0  0  0  0  0  0  0
  163.3770  214.1820  137.7560 C   0  0  0  0  0  3  0  0  0  0  0  0
  164.7000  213.6150  138.2100 C   0  0  2  0  0  3  0  0  0  0  0  0
  164.6100  212.1680  138.6220 C   0  0  0  0  0  0  0  0  0  0  0  0
  163.3300  211.4490  138.5800 C   0  0  0  0  0  3  0  0  0  0  0  0
  165.6490  211.5540  138.9860 O   0  0  0  0  0  0  0  0  0  0  0  0
  162.2160  212.0540  138.1680 C   0  0  0  0  0  0  0  0  0  0  0  0
  162.2480  213.4680  137.7380 C   0  0  0  0  0  3  0  0  0  0  0  0
  166.6510  214.4380  139.3200 O   0  0  0  0  0  1  0  0  0  0  0  0
  165.2560  214.4520  139.3520 C   0  0  0  0  0  2  0  0  0  0  0  0
  157.7170  210.0100  139.0180 S   0  0  0  0  0  0  0  0  0  0  0  0
  156.2950  212.1730  139.5290 C   0  0  0  0  0  2  0  0  0  0  0  0
  157.6930  212.6650  139.5830 C   0  0  0  0  0  2  0  0  0  0  0  0
  156.1870  210.8810  139.2900 C   0  0  1  0  0  3  0  0  0  0  0  0
  158.5280  211.6390  138.8280 C   0  0  1  0  0  3  0  0  0  0  0  0
  153.8390  209.7250  138.9370 C   0  0  0  0  0  3  0  0  0  0  0  0
  154.9090  210.2560  139.0990 C   0  0  0  0  0  0  0  0  0  0  0  0
  162.1630  207.9030  139.4670 C   0  0  0  0  0  3  0  0  0  0  0  0
  162.0700  207.1290  140.7720 C   0  0  0  0  0  1  0  0  0  0  0  0
  162.2340  206.9400  138.2960 C   0  0  0  0  0  1  0  0  0  0  0  0
  160.0670  211.5700  141.8320 N   0  0  0  0  0  2  0  0  0  0  0  0
  161.0650  212.2370  142.6150 C   0  0  0  0  0  0  0  0  0  0  0  0
  162.2880  212.1290  142.3300 O   0  0  0  0  0  0  0  0  0  0  0  0
  160.2180  213.3220  146.5640 O   0  0  0  0  0  0  0  0  0  0  0  0
  161.8310  213.2590  144.7550 C   0  0  0  0  0  2  0  0  0  0  0  0
  159.4730  212.4540  144.4760 C   0  0  0  0  0  3  0  0  0  0  0  0
  159.2870  212.6170  145.7870 C   0  0  0  0  0  3  0  0  0  0  0  0
  161.3310  214.0060  145.9860 C   0  0  0  0  0  2  0  0  0  0  0  0
  160.6620  213.0650  143.7890 C   0  0  2  0  0  3  0  0  0  0  0  0
  1 24  1  1  0  0  0
  1  4  1  0  0  0  0
  2 13  1  1  0  0  0
  2  6  1  0  0  0  0
  3 27  1  0  0  0  0
  4  3  2  0  0  0  0
  5  7  2  0  0  0  0
  6  3  1  1  0  0  0
  7  2  1  0  0  0  0
  7  1  1  0  0  0  0
  8  9  1  0  0  0  0
  9 10  1  0  0  0  0
  9 16  1  1  0  0  0
 10 12  2  0  0  0  0
 11 10  1  0  0  0  0
 13 11  2  0  0  0  0
 14  8  2  0  0  0  0
 14 13  1  0  0  0  0
 15 16  1  0  0  0  0
 17 20  1  0  0  0  0
 18 19  1  0  0  0  0
 20 23  1  6  0  0  0
 20 18  1  0  0  0  0
 21 17  1  0  0  0  0
 21  6  1  0  0  0  0
 21 19  1  1  0  0  0
 22 23  3  0  0  0  0
 24 25  1  0  0  0  0
 26 24  1  0  0  0  0
 27 28  1  0  0  0  0
 29 28  2  0  0  0  0
 31 34  1  0  0  0  0
 32 33  2  0  0  0  0
 33 30  1  0  0  0  0
 34 30  1  0  0  0  0
 35 28  1  6  0  0  0
 35 32  1  0  0  0  0
 35 31  1  0  0  0  0
M  END
>  <MODEL>
2

>  <REMARK>
 VINA RESULT:      -4.3      9.304     14.773
  Name = 
  7 active torsions:
  status: ('A' for Active; 'I' for Inactive)
    1  A    between atoms: C_1  and  C_6
    2  A    between atoms: C_3  and  C_27
    3  A    between atoms: N_10  and  C_16
    4  A    between atoms: C_11  and  C_35
    5  A    between atoms: C_13  and  C_18
    6  A    between atoms: C_22  and  C_29
    7  A    between atoms: C_28  and  C_33
                            x       y       z     vdW  Elec       q    Type
                         _______ _______ _______ _____ _____    ______ ____

>  <TORSDO>
F 7

$$$$
=
 OpenBabel11072411313D

 35 38  0  0  1  0  0  0  0  0999 V2000
  161.3910  210.5830  155.6570 C   0  0  1  0  0  3  0  0  0  0  0  0
  159.8090  209.0030  154.2630 C   0  0  2  0  0  3  0  0  0  0  0  0
  160.6350  211.2360  153.3570 C   0  0  0  0  0  0  0  0  0  0  0  0
  161.4930  211.3670  154.3710 C   0  0  0  0  0  3  0  0  0  0  0  0
  160.5150  208.5330  156.4600 O   0  0  0  0  0  0  0  0  0  0  0  0
  159.4820  210.2570  153.4420 C   0  0  2  0  0  3  0  0  0  0  0  0
  160.5840  209.3100  155.5210 C   0  0  0  0  0  0  0  0  0  0  0  0
  161.6890  205.8210  153.3130 C   0  0  0  0  0  3  0  0  0  0  0  0
  161.8650  205.9310  151.8180 C   0  0  2  0  0  3  0  0  0  0  0  0
  161.2770  207.1970  151.2490 C   0  0  0  0  0  0  0  0  0  0  0  0
  160.5990  208.1710  152.1140 C   0  0  0  0  0  3  0  0  0  0  0  0
  161.3860  207.4390  150.0170 O   0  0  0  0  0  0  0  0  0  0  0  0
  160.4930  207.9660  153.4260 C   0  0  0  0  0  0  0  0  0  0  0  0
  161.0640  206.7500  154.0420 C   0  0  0  0  0  3  0  0  0  0  0  0
  160.7960  203.8100  152.0910 O   0  0  0  0  0  1  0  0  0  0  0  0
  161.2560  204.7160  151.1350 C   0  0  0  0  0  2  0  0  0  0  0  0
  157.9250  211.0500  155.6700 S   0  0  0  0  0  0  0  0  0  0  0  0
  156.9840  212.9680  154.1210 C   0  0  0  0  0  2  0  0  0  0  0  0
  157.9410  212.2570  153.2390 C   0  0  0  0  0  2  0  0  0  0  0  0
  156.9170  212.4820  155.3450 C   0  0  1  0  0  3  0  0  0  0  0  0
  158.1430  210.8820  153.8620 C   0  0  1  0  0  3  0  0  0  0  0  0
  155.1750  213.3990  157.1060 C   0  0  0  0  0  3  0  0  0  0  0  0
  155.9670  212.9790  156.3000 C   0  0  0  0  0  0  0  0  0  0  0  0
  162.7680  210.3260  156.2860 C   0  0  0  0  0  3  0  0  0  0  0  0
  163.3350  211.5570  156.9740 C   0  0  0  0  0  1  0  0  0  0  0  0
  162.7190  209.1630  157.2610 C   0  0  0  0  0  1  0  0  0  0  0  0
  160.8380  212.0450  152.1940 N   0  0  0  0  0  2  0  0  0  0  0  0
  161.4580  211.6150  150.9760 C   0  0  0  0  0  0  0  0  0  0  0  0
  162.0770  210.5190  150.9170 O   0  0  0  0  0  0  0  0  0  0  0  0
  160.2030  213.0920  147.2690 O   0  0  0  0  0  0  0  0  0  0  0  0
  160.0490  213.2160  149.6860 C   0  0  0  0  0  2  0  0  0  0  0  0
  161.6250  211.6510  148.5230 C   0  0  0  0  0  3  0  0  0  0  0  0
  161.0660  211.9890  147.3600 C   0  0  0  0  0  3  0  0  0  0  0  0
  159.9810  213.9780  148.3680 C   0  0  0  0  0  2  0  0  0  0  0  0
  161.3830  212.4730  149.7570 C   0  0  2  0  0  3  0  0  0  0  0  0
  1 24  1  6  0  0  0
  2 13  1  6  0  0  0
  2  7  1  0  0  0  0
  3  4  2  0  0  0  0
  4  1  1  0  0  0  0
  6  3  1  1  0  0  0
  6 21  1  0  0  0  0
  6  2  1  0  0  0  0
  7  1  1  0  0  0  0
  7  5  2  0  0  0  0
  8 14  2  0  0  0  0
  9 16  1  6  0  0  0
  9  8  1  0  0  0  0
 10  9  1  0  0  0  0
 10 11  1  0  0  0  0
 11 13  2  0  0  0  0
 12 10  2  0  0  0  0
 13 14  1  0  0  0  0
 16 15  1  0  0  0  0
 18 20  1  0  0  0  0
 19 18  1  0  0  0  0
 20 17  1  0  0  0  0
 20 23  1  6  0  0  0
 21 19  1  6  0  0  0
 21 17  1  0  0  0  0
 23 22  3  0  0  0  0
 24 25  1  0  0  0  0
 24 26  1  0  0  0  0
 27  3  1  0  0  0  0
 28 27  1  0  0  0  0
 29 28  2  0  0  0  0
 30 33  1  0  0  0  0
 30 34  1  0  0  0  0
 31 35  1  0  0  0  0
 32 35  1  0  0  0  0
 33 32  2  0  0  0  0
 34 31  1  0  0  0  0
 35 28  1  1  0  0  0
M  END
>  <MODEL>
3

>  <REMARK>
 VINA RESULT:      -3.4      2.579      6.492
  Name = 
  7 active torsions:
  status: ('A' for Active; 'I' for Inactive)
    1  A    between atoms: C_1  and  C_6
    2  A    between atoms: C_3  and  C_27
    3  A    between atoms: N_10  and  C_16
    4  A    between atoms: C_11  and  C_35
    5  A    between atoms: C_13  and  C_18
    6  A    between atoms: C_22  and  C_29
    7  A    between atoms: C_28  and  C_33
                            x       y       z     vdW  Elec       q    Type
                         _______ _______ _______ _____ _____    ______ ____

>  <TORSDO>
F 7

$$$$
