=
 OpenBabel11072413193D

 27 29  0  0  1  0  0  0  0  0999 V2000
  160.7590  201.9840  147.7720 C   0  0  1  0  0  3  0  0  0  0  0  0
  162.9060  205.3490  145.5500 N   0  0  0  0  0  1  0  0  0  0  0  0
  161.1500  201.5260  146.3730 C   0  0  2  0  0  3  0  0  0  0  0  0
  161.2820  201.0210  148.8350 C   0  0  0  0  0  2  0  0  0  0  0  0
  161.5020  203.5370  145.1090 N   0  0  0  0  0  0  0  0  0  0  0  0
  160.6030  201.3390  150.1610 C   0  0  0  0  0  2  0  0  0  0  0  0
  161.6720  204.3020  147.3930 N   0  0  0  0  0  0  0  0  0  0  0  0
  161.1280  203.4070  148.1770 C   0  0  0  0  0  0  0  0  0  0  0  0
  162.0150  204.3350  145.9950 C   0  0  0  0  0  0  0  0  0  0  0  0
  160.5460  202.4870  145.3830 C   0  0  0  0  0  2  0  0  0  0  0  0
  160.9460  203.7600  149.6180 C   0  0  0  0  0  0  0  0  0  0  0  0
  160.7630  202.7880  150.5250 C   0  0  0  0  0  3  0  0  0  0  0  0
  160.6060  206.3940  149.1140 S   0  0  0  0  0  0  0  0  0  0  0  0
  161.0500  205.1570  150.1050 C   0  0  0  0  0  0  0  0  0  0  0  0
  160.9570  207.7540  154.3110 C   0  0  0  0  0  0  0  0  0  0  0  0
  161.1150  206.6300  152.2170 C   0  0  0  0  0  0  0  0  0  0  0  0
  161.1380  207.8600  151.5460 C   0  0  0  0  0  3  0  0  0  0  0  0
  160.9670  208.9980  153.6670 C   0  0  0  0  0  3  0  0  0  0  0  0
  161.2360  205.3870  151.5120 N   0  0  0  0  0  2  0  0  0  0  0  0
  161.0410  206.6120  153.5760 N   0  0  0  0  0  0  0  0  0  0  0  0
  161.0580  209.0450  152.2770 C   0  0  0  0  0  3  0  0  0  0  0  0
  160.8820  207.6620  155.8010 C   0  0  2  0  0  3  0  0  0  0  0  0
  159.6600  207.1080  156.1910 O   0  0  0  0  0  1  0  0  0  0  0  0
  161.0630  209.0320  156.4310 C   0  0  0  0  0  2  0  0  0  0  0  0
  162.3950  209.1410  157.0010 N   0  0  0  0  0  1  0  0  0  0  0  0
  160.5990  200.1340  146.0950 C   0  0  0  0  0  2  0  0  0  0  0  0
  161.6410  199.2060  146.0630 O   0  0  0  0  0  1  0  0  0  0  0  0
  1  8  1  0  0  0  0
  1  4  1  1  0  0  0
  2  9  1  0  0  0  0
  3 26  1  6  0  0  0
  3  1  1  0  0  0  0
  4  6  1  0  0  0  0
  5 10  1  0  0  0  0
  5  9  2  0  0  0  0
  6 12  1  0  0  0  0
  7  8  2  0  0  0  0
  8 11  1  0  0  0  0
  9  7  1  0  0  0  0
 10  3  1  0  0  0  0
 11 14  1  0  0  0  0
 11 12  2  0  0  0  0
 13 14  2  0  0  0  0
 14 19  1  0  0  0  0
 15 22  1  0  0  0  0
 16 20  2  0  0  0  0
 17 16  1  0  0  0  0
 17 21  2  0  0  0  0
 18 15  2  0  0  0  0
 19 16  1  0  0  0  0
 20 15  1  0  0  0  0
 21 18  1  0  0  0  0
 22 23  1  6  0  0  0
 22 24  1  0  0  0  0
 24 25  1  0  0  0  0
 27 26  1  0  0  0  0
M  END
>  <MODEL>
1

>  <REMARK>
 VINA RESULT:      -9.2      0.000      0.000
  Name = 
  5 active torsions:
  status: ('A' for Active; 'I' for Inactive)
    1  A    between atoms: C_2  and  C_4
    2  A    between atoms: C_2  and  C_9
    3  A    between atoms: C_5  and  C_11
    4  A    between atoms: C_14  and  N_17
    5  A    between atoms: C_14  and  C_26
                            x       y       z     vdW  Elec       q    Type
                         _______ _______ _______ _____ _____    ______ ____

>  <TORSDO>
F 5

$$$$
=
 OpenBabel11072413193D

 27 29  0  0  1  0  0  0  0  0999 V2000
  160.9990  206.0830  151.0680 C   0  0  1  0  0  3  0  0  0  0  0  0
  162.3220  209.6890  148.5930 N   0  0  0  0  0  1  0  0  0  0  0  0
  161.3740  205.6450  149.6580 C   0  0  2  0  0  3  0  0  0  0  0  0
  161.7640  205.2810  152.1180 C   0  0  0  0  0  2  0  0  0  0  0  0
  161.2570  207.6300  148.3120 N   0  0  0  0  0  0  0  0  0  0  0  0
  161.1280  205.5240  153.4800 C   0  0  0  0  0  2  0  0  0  0  0  0
  161.4330  208.5120  150.5530 N   0  0  0  0  0  0  0  0  0  0  0  0
  161.1200  207.5660  151.4010 C   0  0  0  0  0  0  0  0  0  0  0  0
  161.6690  208.5460  149.1330 C   0  0  0  0  0  0  0  0  0  0  0  0
  160.5350  206.4340  148.6870 C   0  0  0  0  0  2  0  0  0  0  0  0
  160.9730  207.9410  152.8410 C   0  0  0  0  0  0  0  0  0  0  0  0
  161.0370  206.9930  153.7880 C   0  0  0  0  0  3  0  0  0  0  0  0
  161.8790  209.9470  154.4110 S   0  0  0  0  0  0  0  0  0  0  0  0
  160.8450  209.3540  153.2760 C   0  0  0  0  0  0  0  0  0  0  0  0
  157.7830  213.1500  152.4690 C   0  0  0  0  0  0  0  0  0  0  0  0
  159.1290  211.2480  152.9650 C   0  0  0  0  0  0  0  0  0  0  0  0
  158.6470  211.2360  154.2800 C   0  0  0  0  0  3  0  0  0  0  0  0
  157.2920  213.1690  153.7800 C   0  0  0  0  0  3  0  0  0  0  0  0
  160.0410  210.2490  152.4900 N   0  0  0  0  0  2  0  0  0  0  0  0
  158.6740  212.1920  152.0950 N   0  0  0  0  0  0  0  0  0  0  0  0
  157.7300  212.2060  154.6870 C   0  0  0  0  0  3  0  0  0  0  0  0
  157.3230  214.1540  151.4610 C   0  0  2  0  0  3  0  0  0  0  0  0
  155.9290  214.2500  151.4740 O   0  0  0  0  0  1  0  0  0  0  0  0
  157.8110  213.7800  150.0720 C   0  0  0  0  0  2  0  0  0  0  0  0
  156.6990  213.3050  149.2680 N   0  0  0  0  0  1  0  0  0  0  0  0
  161.0770  204.1650  149.4630 C   0  0  0  0  0  2  0  0  0  0  0  0
  161.5460  203.7440  148.2180 O   0  0  0  0  0  1  0  0  0  0  0  0
  1  8  1  0  0  0  0
  1  4  1  1  0  0  0
  2  9  1  0  0  0  0
  3 26  1  1  0  0  0
  3  1  1  0  0  0  0
  4  6  1  0  0  0  0
  5 10  1  0  0  0  0
  5  9  2  0  0  0  0
  6 12  1  0  0  0  0
  7  8  2  0  0  0  0
  8 11  1  0  0  0  0
  9  7  1  0  0  0  0
 10  3  1  0  0  0  0
 11 14  1  0  0  0  0
 11 12  2  0  0  0  0
 14 13  2  0  0  0  0
 15 18  2  0  0  0  0
 16 17  1  0  0  0  0
 17 21  2  0  0  0  0
 18 21  1  0  0  0  0
 19 16  1  0  0  0  0
 19 14  1  0  0  0  0
 20 15  1  0  0  0  0
 20 16  2  0  0  0  0
 22 23  1  6  0  0  0
 22 15  1  0  0  0  0
 24 22  1  0  0  0  0
 25 24  1  0  0  0  0
 27 26  1  0  0  0  0
M  END
>  <MODEL>
2

>  <REMARK>
 VINA RESULT:      -8.6      4.479      6.141
  Name = 
  5 active torsions:
  status: ('A' for Active; 'I' for Inactive)
    1  A    between atoms: C_2  and  C_4
    2  A    between atoms: C_2  and  C_9
    3  A    between atoms: C_5  and  C_11
    4  A    between atoms: C_14  and  N_17
    5  A    between atoms: C_14  and  C_26
                            x       y       z     vdW  Elec       q    Type
                         _______ _______ _______ _____ _____    ______ ____

>  <TORSDO>
F 5

$$$$
=
 OpenBabel11072413193D

 27 29  0  0  1  0  0  0  0  0999 V2000
  161.2370  208.3050  154.3840 C   0  0  1  0  0  3  0  0  0  0  0  0
  159.5530  211.6770  151.8030 N   0  0  0  0  0  1  0  0  0  0  0  0
  160.8540  209.4940  155.2550 C   0  0  2  0  0  3  0  0  0  0  0  0
  160.5720  207.0220  154.8760 C   0  0  0  0  0  2  0  0  0  0  0  0
  160.7700  211.3810  153.7730 N   0  0  0  0  0  0  0  0  0  0  0  0
  161.2290  205.8330  154.1870 C   0  0  0  0  0  2  0  0  0  0  0  0
  160.5950  209.5050  152.2630 N   0  0  0  0  0  0  0  0  0  0  0  0
  161.0080  208.4290  152.8820 C   0  0  0  0  0  0  0  0  0  0  0  0
  160.3110  210.8540  152.6800 C   0  0  0  0  0  0  0  0  0  0  0  0
  161.5960  210.7020  154.7470 C   0  0  0  0  0  2  0  0  0  0  0  0
  161.1700  207.1800  152.0760 C   0  0  0  0  0  0  0  0  0  0  0  0
  161.2120  205.9890  152.6920 C   0  0  0  0  0  3  0  0  0  0  0  0
  161.9290  208.4510  149.8140 S   0  0  0  0  0  0  0  0  0  0  0  0
  161.1980  207.1990  150.5930 C   0  0  0  0  0  0  0  0  0  0  0  0
  161.5700  203.8380  146.9860 C   0  0  0  0  0  0  0  0  0  0  0  0
  161.3530  205.5820  148.5940 C   0  0  0  0  0  0  0  0  0  0  0  0
  161.9520  206.4880  147.7100 C   0  0  0  0  0  3  0  0  0  0  0  0
  162.1820  204.7190  146.0850 C   0  0  0  0  0  3  0  0  0  0  0  0
  160.8690  205.9950  149.8800 N   0  0  0  0  0  2  0  0  0  0  0  0
  161.1660  204.2910  148.2040 N   0  0  0  0  0  0  0  0  0  0  0  0
  162.3720  206.0490  146.4540 C   0  0  0  0  0  3  0  0  0  0  0  0
  161.3300  202.4090  146.6200 C   0  0  2  0  0  3  0  0  0  0  0  0
  160.5910  202.3290  145.4370 O   0  0  0  0  0  1  0  0  0  0  0  0
  160.6060  201.6840  147.7430 C   0  0  0  0  0  2  0  0  0  0  0  0
  161.4210  200.5840  148.2270 N   0  0  0  0  0  1  0  0  0  0  0  0
  161.2630  209.2480  156.7020 C   0  0  0  0  0  2  0  0  0  0  0  0
  162.6210  209.5210  156.8660 O   0  0  0  0  0  1  0  0  0  0  0  0
  1  4  1  1  0  0  0
  1  3  1  0  0  0  0
  2  9  1  0  0  0  0
  3 26  1  1  0  0  0
  5 10  1  0  0  0  0
  6  4  1  0  0  0  0
  7  9  1  0  0  0  0
  7  8  2  0  0  0  0
  8  1  1  0  0  0  0
  9  5  2  0  0  0  0
 10  3  1  0  0  0  0
 11 12  2  0  0  0  0
 11  8  1  0  0  0  0
 12  6  1  0  0  0  0
 13 14  2  0  0  0  0
 14 11  1  0  0  0  0
 15 20  1  0  0  0  0
 16 19  1  0  0  0  0
 17 16  1  0  0  0  0
 18 21  1  0  0  0  0
 18 15  2  0  0  0  0
 19 14  1  0  0  0  0
 20 16  2  0  0  0  0
 21 17  2  0  0  0  0
 22 23  1  6  0  0  0
 22 15  1  0  0  0  0
 22 24  1  0  0  0  0
 24 25  1  0  0  0  0
 26 27  1  0  0  0  0
M  END
>  <MODEL>
3

>  <REMARK>
 VINA RESULT:      -8.5      2.320      8.956
  Name = 
  5 active torsions:
  status: ('A' for Active; 'I' for Inactive)
    1  A    between atoms: C_2  and  C_4
    2  A    between atoms: C_2  and  C_9
    3  A    between atoms: C_5  and  C_11
    4  A    between atoms: C_14  and  N_17
    5  A    between atoms: C_14  and  C_26
                            x       y       z     vdW  Elec       q    Type
                         _______ _______ _______ _____ _____    ______ ____

>  <TORSDO>
F 5

$$$$
=
 OpenBabel11072413193D

 27 29  0  0  1  0  0  0  0  0999 V2000
  161.2840  205.6360  149.9840 C   0  0  1  0  0  3  0  0  0  0  0  0
  160.6180  207.0530  154.2760 N   0  0  0  0  0  1  0  0  0  0  0  0
  160.7820  204.4860  150.8460 C   0  0  2  0  0  3  0  0  0  0  0  0
  160.4110  205.8190  148.7440 C   0  0  0  0  0  2  0  0  0  0  0  0
  161.2450  205.1280  153.1130 N   0  0  0  0  0  0  0  0  0  0  0  0
  161.1280  206.7470  147.7720 C   0  0  0  0  0  2  0  0  0  0  0  0
  161.3220  207.2330  151.9330 N   0  0  0  0  0  0  0  0  0  0  0  0
  161.4700  206.9920  150.6560 C   0  0  0  0  0  0  0  0  0  0  0  0
  161.0500  206.4110  153.0830 C   0  0  0  0  0  0  0  0  0  0  0  0
  161.7270  204.3290  152.0090 C   0  0  0  0  0  2  0  0  0  0  0  0
  161.7360  208.1540  149.7530 C   0  0  0  0  0  0  0  0  0  0  0  0
  161.5180  208.0390  148.4340 C   0  0  0  0  0  3  0  0  0  0  0  0
  162.0700  210.7980  149.3000 S   0  0  0  0  0  0  0  0  0  0  0  0
  162.1560  209.4770  150.2770 C   0  0  0  0  0  0  0  0  0  0  0  0
  160.9290  210.8990  154.8510 C   0  0  0  0  0  0  0  0  0  0  0  0
  161.5090  210.3900  152.5980 C   0  0  0  0  0  0  0  0  0  0  0  0
  160.6160  211.3650  152.1350 C   0  0  0  0  0  3  0  0  0  0  0  0
  160.0200  211.8740  154.4170 C   0  0  0  0  0  3  0  0  0  0  0  0
  162.3300  209.6340  151.6960 N   0  0  0  0  0  2  0  0  0  0  0  0
  161.6510  210.1950  153.9370 N   0  0  0  0  0  0  0  0  0  0  0  0
  159.8670  212.1040  153.0510 C   0  0  0  0  0  3  0  0  0  0  0  0
  161.1370  210.6370  156.3080 C   0  0  2  0  0  3  0  0  0  0  0  0
  161.2380  211.8420  157.0070 O   0  0  0  0  0  1  0  0  0  0  0  0
  162.3830  209.7960  156.5270 C   0  0  0  0  0  2  0  0  0  0  0  0
  162.0180  208.5140  157.1040 N   0  0  0  0  0  1  0  0  0  0  0  0
  160.7740  203.1870  150.0510 C   0  0  0  0  0  2  0  0  0  0  0  0
  161.1440  202.1220  150.8730 O   0  0  0  0  0  1  0  0  0  0  0  0
  1  4  1  6  0  0  0
  1  8  1  0  0  0  0
  1  3  1  0  0  0  0
  3 26  1  6  0  0  0
  3 10  1  0  0  0  0
  6 12  1  0  0  0  0
  6  4  1  0  0  0  0
  7  9  1  0  0  0  0
  8  7  2  0  0  0  0
  9  5  2  0  0  0  0
  9  2  1  0  0  0  0
 10  5  1  0  0  0  0
 11 14  1  0  0  0  0
 11  8  1  0  0  0  0
 12 11  2  0  0  0  0
 13 14  2  0  0  0  0
 14 19  1  0  0  0  0
 15 22  1  0  0  0  0
 16 20  2  0  0  0  0
 17 16  1  0  0  0  0
 17 21  2  0  0  0  0
 18 15  2  0  0  0  0
 19 16  1  0  0  0  0
 20 15  1  0  0  0  0
 21 18  1  0  0  0  0
 22 24  1  0  0  0  0
 22 23  1  1  0  0  0
 24 25  1  0  0  0  0
 26 27  1  0  0  0  0
M  END
>  <MODEL>
4

>  <REMARK>
 VINA RESULT:      -8.4      3.524      5.054
  Name = 
  5 active torsions:
  status: ('A' for Active; 'I' for Inactive)
    1  A    between atoms: C_2  and  C_4
    2  A    between atoms: C_2  and  C_9
    3  A    between atoms: C_5  and  C_11
    4  A    between atoms: C_14  and  N_17
    5  A    between atoms: C_14  and  C_26
                            x       y       z     vdW  Elec       q    Type
                         _______ _______ _______ _____ _____    ______ ____

>  <TORSDO>
F 5

$$$$
=
 OpenBabel11072413193D

 27 29  0  0  1  0  0  0  0  0999 V2000
  161.5110  208.1430  152.7760 C   0  0  1  0  0  3  0  0  0  0  0  0
  161.2060  208.0680  148.2180 N   0  0  0  0  0  1  0  0  0  0  0  0
  161.4180  209.5620  152.2300 C   0  0  2  0  0  3  0  0  0  0  0  0
  160.4410  207.8860  153.8340 C   0  0  0  0  0  2  0  0  0  0  0  0
  162.0650  209.4110  149.9230 N   0  0  0  0  0  0  0  0  0  0  0  0
  160.7740  206.5920  154.5650 C   0  0  0  0  0  2  0  0  0  0  0  0
  161.4860  207.1310  150.4670 N   0  0  0  0  0  0  0  0  0  0  0  0
  161.4870  206.9980  151.7690 C   0  0  0  0  0  0  0  0  0  0  0  0
  161.5840  208.2570  149.5750 C   0  0  0  0  0  0  0  0  0  0  0  0
  162.5410  209.7550  151.2440 C   0  0  0  0  0  2  0  0  0  0  0  0
  161.3450  205.6190  152.3280 C   0  0  0  0  0  0  0  0  0  0  0  0
  160.9590  205.4520  153.6030 C   0  0  0  0  0  3  0  0  0  0  0  0
  160.9230  202.9680  152.0080 S   0  0  0  0  0  0  0  0  0  0  0  0
  161.5310  204.4080  151.4920 C   0  0  0  0  0  0  0  0  0  0  0  0
  161.4900  203.5780  146.6180 C   0  0  0  0  0  0  0  0  0  0  0  0
  161.5450  203.8000  148.9890 C   0  0  0  0  0  0  0  0  0  0  0  0
  160.9260  202.5510  149.1320 C   0  0  0  0  0  3  0  0  0  0  0  0
  160.8610  202.3320  146.7290 C   0  0  0  0  0  3  0  0  0  0  0  0
  161.9560  204.5680  150.1280 N   0  0  0  0  0  2  0  0  0  0  0  0
  161.8220  204.2700  147.7420 N   0  0  0  0  0  0  0  0  0  0  0  0
  160.5790  201.8200  147.9950 C   0  0  0  0  0  3  0  0  0  0  0  0
  161.8270  204.1520  145.2790 C   0  0  2  0  0  3  0  0  0  0  0  0
  162.8680  205.0760  145.3960 O   0  0  0  0  0  1  0  0  0  0  0  0
  160.6070  204.8100  144.6580 C   0  0  0  0  0  2  0  0  0  0  0  0
  160.4560  206.1590  145.1740 N   0  0  0  0  0  1  0  0  0  0  0  0
  161.5810  210.5760  153.3550 C   0  0  0  0  0  2  0  0  0  0  0  0
  160.5590  211.5240  153.2930 O   0  0  0  0  0  1  0  0  0  0  0  0
  1  4  1  1  0  0  0
  2  9  1  0  0  0  0
  3  1  1  0  0  0  0
  3 26  1  1  0  0  0
  4  6  1  0  0  0  0
  5 10  1  0  0  0  0
  7  8  2  0  0  0  0
  8 11  1  0  0  0  0
  8  1  1  0  0  0  0
  9  5  2  0  0  0  0
  9  7  1  0  0  0  0
 10  3  1  0  0  0  0
 11 12  2  0  0  0  0
 12  6  1  0  0  0  0
 14 13  2  0  0  0  0
 14 11  1  0  0  0  0
 15 18  2  0  0  0  0
 15 20  1  0  0  0  0
 16 17  1  0  0  0  0
 16 19  1  0  0  0  0
 18 21  1  0  0  0  0
 19 14  1  0  0  0  0
 20 16  2  0  0  0  0
 21 17  2  0  0  0  0
 22 23  1  1  0  0  0
 22 15  1  0  0  0  0
 24 25  1  0  0  0  0
 24 22  1  0  0  0  0
 27 26  1  0  0  0  0
M  END
>  <MODEL>
5

>  <REMARK>
 VINA RESULT:      -8.4      2.690      8.253
  Name = 
  5 active torsions:
  status: ('A' for Active; 'I' for Inactive)
    1  A    between atoms: C_2  and  C_4
    2  A    between atoms: C_2  and  C_9
    3  A    between atoms: C_5  and  C_11
    4  A    between atoms: C_14  and  N_17
    5  A    between atoms: C_14  and  C_26
                            x       y       z     vdW  Elec       q    Type
                         _______ _______ _______ _____ _____    ______ ____

>  <TORSDO>
F 5

$$$$
=
 OpenBabel11072413193D

 27 29  0  0  1  0  0  0  0  0999 V2000
  160.7830  202.3460  147.6510 C   0  0  1  0  0  3  0  0  0  0  0  0
  162.9050  205.9490  145.8090 N   0  0  0  0  0  1  0  0  0  0  0  0
  161.1400  202.0610  146.1980 C   0  0  2  0  0  3  0  0  0  0  0  0
  161.3230  201.2580  148.5760 C   0  0  0  0  0  2  0  0  0  0  0  0
  161.4780  204.2110  145.1820 N   0  0  0  0  0  0  0  0  0  0  0  0
  160.6770  201.4130  149.9460 C   0  0  0  0  0  2  0  0  0  0  0  0
  161.7040  204.6890  147.5380 N   0  0  0  0  0  0  0  0  0  0  0  0
  161.1710  203.7070  148.2180 C   0  0  0  0  0  0  0  0  0  0  0  0
  162.0170  204.8910  146.1470 C   0  0  0  0  0  0  0  0  0  0  0  0
  160.5210  203.1390  145.3470 C   0  0  0  0  0  2  0  0  0  0  0  0
  161.0250  203.8820  149.6960 C   0  0  0  0  0  0  0  0  0  0  0  0
  160.8550  202.8070  150.4820 C   0  0  0  0  0  3  0  0  0  0  0  0
  161.6070  205.2940  151.9260 S   0  0  0  0  0  0  0  0  0  0  0  0
  161.1500  205.2080  150.3470 C   0  0  0  0  0  0  0  0  0  0  0  0
  161.9310  209.9750  149.2910 C   0  0  0  0  0  0  0  0  0  0  0  0
  161.4370  207.7340  149.9300 C   0  0  0  0  0  0  0  0  0  0  0  0
  161.3640  208.1200  151.2740 C   0  0  0  0  0  3  0  0  0  0  0  0
  161.8750  210.3890  150.6280 C   0  0  0  0  0  3  0  0  0  0  0  0
  161.1740  206.3850  149.5210 N   0  0  0  0  0  2  0  0  0  0  0  0
  161.7030  208.6700  148.9780 N   0  0  0  0  0  0  0  0  0  0  0  0
  161.5900  209.4530  151.6210 C   0  0  0  0  0  3  0  0  0  0  0  0
  162.2130  210.9520  148.1960 C   0  0  2  0  0  3  0  0  0  0  0  0
  163.1490  211.8980  148.6190 O   0  0  0  0  0  1  0  0  0  0  0  0
  160.9330  211.6410  147.7520 C   0  0  0  0  0  2  0  0  0  0  0  0
  160.8390  212.9530  148.3680 N   0  0  0  0  0  1  0  0  0  0  0  0
  160.5720  200.7160  145.7640 C   0  0  0  0  0  2  0  0  0  0  0  0
  159.8310  200.8680  144.5910 O   0  0  0  0  0  1  0  0  0  0  0  0
  1  8  1  0  0  0  0
  1  4  1  1  0  0  0
  2  9  1  0  0  0  0
  3 26  1  6  0  0  0
  3  1  1  0  0  0  0
  4  6  1  0  0  0  0
  5 10  1  0  0  0  0
  5  9  2  0  0  0  0
  6 12  1  0  0  0  0
  7  8  2  0  0  0  0
  8 11  1  0  0  0  0
  9  7  1  0  0  0  0
 10  3  1  0  0  0  0
 11 14  1  0  0  0  0
 11 12  2  0  0  0  0
 14 13  2  0  0  0  0
 15 18  2  0  0  0  0
 16 17  1  0  0  0  0
 17 21  2  0  0  0  0
 18 21  1  0  0  0  0
 19 16  1  0  0  0  0
 19 14  1  0  0  0  0
 20 15  1  0  0  0  0
 20 16  2  0  0  0  0
 22 23  1  1  0  0  0
 22 15  1  0  0  0  0
 24 22  1  0  0  0  0
 24 25  1  0  0  0  0
 27 26  1  0  0  0  0
M  END
>  <MODEL>
6

>  <REMARK>
 VINA RESULT:      -8.3      3.171      4.034
  Name = 
  5 active torsions:
  status: ('A' for Active; 'I' for Inactive)
    1  A    between atoms: C_2  and  C_4
    2  A    between atoms: C_2  and  C_9
    3  A    between atoms: C_5  and  C_11
    4  A    between atoms: C_14  and  N_17
    5  A    between atoms: C_14  and  C_26
                            x       y       z     vdW  Elec       q    Type
                         _______ _______ _______ _____ _____    ______ ____

>  <TORSDO>
F 5

$$$$
=
 OpenBabel11072413193D

 27 29  0  0  1  0  0  0  0  0999 V2000
  160.9890  203.9140  147.3830 C   0  0  1  0  0  3  0  0  0  0  0  0
  162.7060  208.0180  148.4250 N   0  0  0  0  0  1  0  0  0  0  0  0
  161.4650  204.6220  146.1210 C   0  0  2  0  0  3  0  0  0  0  0  0
  161.6160  202.5280  147.5090 C   0  0  0  0  0  2  0  0  0  0  0  0
  161.5680  206.9530  146.6870 N   0  0  0  0  0  0  0  0  0  0  0  0
  160.8750  201.7510  148.5890 C   0  0  0  0  0  2  0  0  0  0  0  0
  161.5880  205.8760  148.8470 N   0  0  0  0  0  0  0  0  0  0  0  0
  161.1540  204.6500  148.7080 C   0  0  0  0  0  0  0  0  0  0  0  0
  161.9510  206.9210  147.9260 C   0  0  0  0  0  0  0  0  0  0  0  0
  160.7570  205.9480  146.0360 C   0  0  0  0  0  2  0  0  0  0  0  0
  160.8990  203.8550  149.9490 C   0  0  0  0  0  0  0  0  0  0  0  0
  160.8310  202.5170  149.8820 C   0  0  0  0  0  3  0  0  0  0  0  0
  161.0830  203.5910  152.6330 S   0  0  0  0  0  0  0  0  0  0  0  0
  160.8040  204.4930  151.2850 C   0  0  0  0  0  0  0  0  0  0  0  0
  161.2570  208.9050  153.4690 C   0  0  0  0  0  0  0  0  0  0  0  0
  160.9100  206.7390  152.5410 C   0  0  0  0  0  0  0  0  0  0  0  0
  160.7320  206.2050  153.8240 C   0  0  0  0  0  3  0  0  0  0  0  0
  161.0930  208.3980  154.7650 C   0  0  0  0  0  3  0  0  0  0  0  0
  160.7790  205.9280  151.3660 N   0  0  0  0  0  2  0  0  0  0  0  0
  161.1520  208.0710  152.3990 N   0  0  0  0  0  0  0  0  0  0  0  0
  160.8300  207.0400  154.9380 C   0  0  0  0  0  3  0  0  0  0  0  0
  161.5200  210.3590  153.2410 C   0  0  2  0  0  3  0  0  0  0  0  0
  161.5590  211.0410  154.4600 O   0  0  0  0  0  1  0  0  0  0  0  0
  160.4570  210.9580  152.3360 C   0  0  0  0  0  2  0  0  0  0  0  0
  159.2420  211.2030  153.0950 N   0  0  0  0  0  1  0  0  0  0  0  0
  161.1120  203.8040  144.8860 C   0  0  0  0  0  2  0  0  0  0  0  0
  160.1270  204.4590  144.1460 O   0  0  0  0  0  1  0  0  0  0  0  0
  1  4  1  1  0  0  0
  1  8  1  0  0  0  0
  3 26  1  6  0  0  0
  3  1  1  0  0  0  0
  4  6  1  0  0  0  0
  5  9  2  0  0  0  0
  6 12  1  0  0  0  0
  8  7  2  0  0  0  0
  8 11  1  0  0  0  0
  9  2  1  0  0  0  0
  9  7  1  0  0  0  0
 10  3  1  0  0  0  0
 10  5  1  0  0  0  0
 11 14  1  0  0  0  0
 12 11  2  0  0  0  0
 14 19  1  0  0  0  0
 14 13  2  0  0  0  0
 15 18  2  0  0  0  0
 16 17  1  0  0  0  0
 17 21  2  0  0  0  0
 18 21  1  0  0  0  0
 19 16  1  0  0  0  0
 20 16  2  0  0  0  0
 20 15  1  0  0  0  0
 22 15  1  0  0  0  0
 22 23  1  1  0  0  0
 24 25  1  0  0  0  0
 24 22  1  0  0  0  0
 27 26  1  0  0  0  0
M  END
>  <MODEL>
7

>  <REMARK>
 VINA RESULT:      -8.2      2.463      3.132
  Name = 
  5 active torsions:
  status: ('A' for Active; 'I' for Inactive)
    1  A    between atoms: C_2  and  C_4
    2  A    between atoms: C_2  and  C_9
    3  A    between atoms: C_5  and  C_11
    4  A    between atoms: C_14  and  N_17
    5  A    between atoms: C_14  and  C_26
                            x       y       z     vdW  Elec       q    Type
                         _______ _______ _______ _____ _____    ______ ____

>  <TORSDO>
F 5

$$$$
=
 OpenBabel11072413193D

 27 29  0  0  1  0  0  0  0  0999 V2000
  160.9110  202.2890  148.4830 C   0  0  1  0  0  3  0  0  0  0  0  0
  162.9380  205.3460  145.7590 N   0  0  0  0  0  1  0  0  0  0  0  0
  161.2860  201.6440  147.1550 C   0  0  2  0  0  3  0  0  0  0  0  0
  161.4760  201.4980  149.6600 C   0  0  0  0  0  2  0  0  0  0  0  0
  161.5680  203.4610  145.6110 N   0  0  0  0  0  0  0  0  0  0  0  0
  160.8150  201.9880  150.9420 C   0  0  0  0  0  2  0  0  0  0  0  0
  161.7630  204.5470  147.7580 N   0  0  0  0  0  0  0  0  0  0  0  0
  161.2540  203.7620  148.6730 C   0  0  0  0  0  0  0  0  0  0  0  0
  162.0790  204.3870  146.3630 C   0  0  0  0  0  0  0  0  0  0  0  0
  160.6420  202.4420  146.0520 C   0  0  0  0  0  2  0  0  0  0  0  0
  161.0920  204.3130  150.0530 C   0  0  0  0  0  0  0  0  0  0  0  0
  160.9480  203.4770  151.0930 C   0  0  0  0  0  3  0  0  0  0  0  0
  160.9430  206.8420  149.1080 S   0  0  0  0  0  0  0  0  0  0  0  0
  161.1720  205.7670  150.3330 C   0  0  0  0  0  0  0  0  0  0  0  0
  160.8260  209.0510  154.0140 C   0  0  0  0  0  0  0  0  0  0  0  0
  161.1390  207.5610  152.1820 C   0  0  0  0  0  0  0  0  0  0  0  0
  161.5260  208.6310  151.3630 C   0  0  0  0  0  3  0  0  0  0  0  0
  161.1980  210.1410  153.2170 C   0  0  0  0  0  3  0  0  0  0  0  0
  161.1390  206.2100  151.7010 N   0  0  0  0  0  2  0  0  0  0  0  0
  160.8160  207.7980  153.4820 N   0  0  0  0  0  0  0  0  0  0  0  0
  161.5490  209.9250  151.8860 C   0  0  0  0  0  3  0  0  0  0  0  0
  160.4620  209.2390  155.4520 C   0  0  2  0  0  3  0  0  0  0  0  0
  160.1860  210.5830  155.7100 O   0  0  0  0  0  1  0  0  0  0  0  0
  161.5820  208.7490  156.3540 C   0  0  0  0  0  2  0  0  0  0  0  0
  162.0320  209.8300  157.2140 N   0  0  0  0  0  1  0  0  0  0  0  0
  160.7620  200.2160  147.0890 C   0  0  0  0  0  2  0  0  0  0  0  0
  161.6660  199.4070  146.3990 O   0  0  0  0  0  1  0  0  0  0  0  0
  1  8  1  0  0  0  0
  1  4  1  1  0  0  0
  2  9  1  0  0  0  0
  3 26  1  1  0  0  0
  3  1  1  0  0  0  0
  4  6  1  0  0  0  0
  5 10  1  0  0  0  0
  5  9  2  0  0  0  0
  6 12  1  0  0  0  0
  7  8  2  0  0  0  0
  8 11  1  0  0  0  0
  9  7  1  0  0  0  0
 10  3  1  0  0  0  0
 11 14  1  0  0  0  0
 11 12  2  0  0  0  0
 13 14  2  0  0  0  0
 14 19  1  0  0  0  0
 15 22  1  0  0  0  0
 16 20  2  0  0  0  0
 17 21  2  0  0  0  0
 17 16  1  0  0  0  0
 18 15  2  0  0  0  0
 19 16  1  0  0  0  0
 20 15  1  0  0  0  0
 21 18  1  0  0  0  0
 22 23  1  6  0  0  0
 22 24  1  0  0  0  0
 24 25  1  0  0  0  0
 27 26  1  0  0  0  0
M  END
>  <MODEL>
8

>  <REMARK>
 VINA RESULT:      -8.1      1.058      1.102
  Name = 
  5 active torsions:
  status: ('A' for Active; 'I' for Inactive)
    1  A    between atoms: C_2  and  C_4
    2  A    between atoms: C_2  and  C_9
    3  A    between atoms: C_5  and  C_11
    4  A    between atoms: C_14  and  N_17
    5  A    between atoms: C_14  and  C_26
                            x       y       z     vdW  Elec       q    Type
                         _______ _______ _______ _____ _____    ______ ____

>  <TORSDO>
F 5

$$$$
=
 OpenBabel11072413193D

 27 29  0  0  1  0  0  0  0  0999 V2000
  161.0040  205.6940  150.9000 C   0  0  1  0  0  3  0  0  0  0  0  0
  162.4070  209.1440  148.2550 N   0  0  0  0  0  1  0  0  0  0  0  0
  161.2930  205.1930  149.4910 C   0  0  2  0  0  3  0  0  0  0  0  0
  161.7710  204.8830  151.9430 C   0  0  0  0  0  2  0  0  0  0  0  0
  161.2220  207.1400  148.0870 N   0  0  0  0  0  0  0  0  0  0  0  0
  161.2100  205.2030  153.3220 C   0  0  0  0  0  2  0  0  0  0  0  0
  161.5430  208.0780  150.2880 N   0  0  0  0  0  0  0  0  0  0  0  0
  161.2190  207.1780  151.1790 C   0  0  0  0  0  0  0  0  0  0  0  0
  161.7180  208.0570  148.8590 C   0  0  0  0  0  0  0  0  0  0  0  0
  160.4550  205.9970  148.5310 C   0  0  0  0  0  2  0  0  0  0  0  0
  161.1560  207.6040  152.6110 C   0  0  0  0  0  0  0  0  0  0  0  0
  161.2110  206.6820  153.5850 C   0  0  0  0  0  3  0  0  0  0  0  0
  162.4670  209.9600  152.8010 S   0  0  0  0  0  0  0  0  0  0  0  0
  161.1230  209.0340  153.0050 C   0  0  0  0  0  0  0  0  0  0  0  0
  157.8240  211.7090  155.5360 C   0  0  0  0  0  0  0  0  0  0  0  0
  159.4230  210.3090  154.4610 C   0  0  0  0  0  0  0  0  0  0  0  0
  160.0940  210.1230  155.6770 C   0  0  0  0  0  3  0  0  0  0  0  0
  158.4800  211.5500  156.7630 C   0  0  0  0  0  3  0  0  0  0  0  0
  159.8490  209.6510  153.2600 N   0  0  0  0  0  2  0  0  0  0  0  0
  158.3030  211.0810  154.4280 N   0  0  0  0  0  0  0  0  0  0  0  0
  159.6200  210.7520  156.8290 C   0  0  0  0  0  3  0  0  0  0  0  0
  156.5860  212.5400  155.4280 C   0  0  2  0  0  3  0  0  0  0  0  0
  155.4510  211.7440  155.6060 O   0  0  0  0  0  1  0  0  0  0  0  0
  156.5300  213.2430  154.0830 C   0  0  0  0  0  2  0  0  0  0  0  0
  155.1930  213.1380  153.5250 N   0  0  0  0  0  1  0  0  0  0  0  0
  160.9080  203.7260  149.3580 C   0  0  0  0  0  2  0  0  0  0  0  0
  161.0690  203.3090  148.0360 O   0  0  0  0  0  1  0  0  0  0  0  0
  1  8  1  0  0  0  0
  1  4  1  1  0  0  0
  2  9  1  0  0  0  0
  3 26  1  1  0  0  0
  3  1  1  0  0  0  0
  4  6  1  0  0  0  0
  5 10  1  0  0  0  0
  5  9  2  0  0  0  0
  6 12  1  0  0  0  0
  7  8  2  0  0  0  0
  8 11  1  0  0  0  0
  9  7  1  0  0  0  0
 10  3  1  0  0  0  0
 11 14  1  0  0  0  0
 11 12  2  0  0  0  0
 13 14  2  0  0  0  0
 14 19  1  0  0  0  0
 15 18  2  0  0  0  0
 16 17  1  0  0  0  0
 17 21  2  0  0  0  0
 18 21  1  0  0  0  0
 19 16  1  0  0  0  0
 20 16  2  0  0  0  0
 20 15  1  0  0  0  0
 22 15  1  0  0  0  0
 22 23  1  6  0  0  0
 24 22  1  0  0  0  0
 25 24  1  0  0  0  0
 27 26  1  0  0  0  0
M  END
>  <MODEL>
9

>  <REMARK>
 VINA RESULT:      -7.9      3.768      5.285
  Name = 
  5 active torsions:
  status: ('A' for Active; 'I' for Inactive)
    1  A    between atoms: C_2  and  C_4
    2  A    between atoms: C_2  and  C_9
    3  A    between atoms: C_5  and  C_11
    4  A    between atoms: C_14  and  N_17
    5  A    between atoms: C_14  and  C_26
                            x       y       z     vdW  Elec       q    Type
                         _______ _______ _______ _____ _____    ______ ____

>  <TORSDO>
F 5

$$$$
