=
 OpenBabel11072413243D

 41 45  0  0  1  0  0  0  0  0999 V2000
  161.5800  203.8470  149.8800 C   0  0  2  0  0  3  0  0  0  0  0  0
  161.1800  205.9090  151.0470 C   0  0  0  0  0  0  0  0  0  0  0  0
  161.5520  207.7030  149.3950 C   0  0  0  0  0  0  0  0  0  0  0  0
  161.9950  208.4670  153.3200 C   0  0  1  0  0  3  0  0  0  0  0  0
  161.8880  208.9650  149.9960 N   0  0  0  0  0  0  0  0  0  0  0  0
  159.9900  208.0320  155.3950 C   0  0  0  0  0  2  0  0  0  0  0  0
  160.7010  204.5160  150.9170 C   0  0  0  0  0  2  0  0  0  0  0  0
  161.7680  209.3930  152.2160 N   0  0  0  0  0  2  0  0  0  0  0  0
  160.7680  207.6710  148.4050 O   0  0  0  0  0  0  0  0  0  0  0  0
  162.2130  205.1030  148.7170 S   0  0  0  0  0  0  0  0  0  0  0  0
  161.4680  210.2130  149.3650 C   0  0  0  0  0  1  0  0  0  0  0  0
  160.5100  209.3640  155.0720 N   0  0  0  0  0  0  0  0  0  0  0  0
  161.9030  209.2090  154.6540 C   0  0  0  0  0  2  0  0  0  0  0  0
  162.6410  209.0190  151.1810 N   0  0  0  0  0  2  0  0  0  0  0  0
  162.0750  206.4150  149.9750 C   0  0  2  0  0  3  0  0  0  0  0  0
  161.0830  206.5590  152.1710 C   0  0  0  0  0  0  0  0  0  0  0  0
  161.0380  207.3000  153.2410 C   0  0  0  0  0  0  0  0  0  0  0  0
  159.8260  207.2080  154.1230 C   0  0  0  0  0  2  0  0  0  0  0  0
  161.0970  202.4950  147.7900 N   0  0  0  0  0  2  0  0  0  0  0  0
  160.8270  202.7730  149.1670 C   0  0  0  0  0  0  0  0  0  0  0  0
  159.9290  202.1390  149.7800 O   0  0  0  0  0  0  0  0  0  0  0  0
  160.4120  201.4510  147.0430 C   0  0  0  0  0  2  0  0  0  0  0  0
  160.7380  202.9370  145.1950 O   0  0  0  0  0  1  0  0  0  0  0  0
  160.6990  201.5850  145.5570 C   0  0  0  0  0  3  0  0  0  0  0  0
  159.6950  200.9420  144.8370 O   0  0  0  0  0  1  0  0  0  0  0  0
  160.4550  210.2420  156.2500 C   0  0  2  0  0  3  0  0  0  0  0  0
  159.1540  212.2040  155.1380 C   0  0  2  0  0  3  0  0  0  0  0  0
  159.2060  213.7350  155.2970 C   0  0  1  0  0  3  0  0  0  0  0  0
  156.5600  212.3200  155.2850 C   0  0  2  0  0  3  0  0  0  0  0  0
  157.8580  214.4530  155.2840 C   0  0  0  0  0  2  0  0  0  0  0  0
  157.8460  211.5870  155.6950 C   0  0  1  0  0  3  0  0  0  0  0  0
  157.7370  210.2550  155.2980 O   0  0  0  0  0  1  0  0  0  0  0  0
  160.3990  211.7530  155.8980 C   0  0  1  0  0  3  0  0  0  0  0  0
  159.9550  214.0320  156.5880 C   0  0  0  0  0  2  0  0  0  0  0  0
  160.5640  212.7220  157.0600 C   0  0  0  0  0  2  0  0  0  0  0  0
  156.8210  213.6300  154.5300 C   0  0  2  0  0  3  0  0  0  0  0  0
  155.7830  212.5370  156.4270 O   0  0  0  0  0  1  0  0  0  0  0  0
  155.5380  214.4240  154.3130 C   0  0  0  0  0  2  0  0  0  0  0  0
  154.6820  213.7250  153.4640 O   0  0  0  0  0  1  0  0  0  0  0  0
  162.7490  210.7520  157.0830 C   0  0  0  0  0  1  0  0  0  0  0  0
  161.5350  209.8630  157.2600 C   0  0  0  0  0  2  0  0  0  0  0  0
  1 20  1  6  0  0  0
  1  7  1  0  0  0  0
  2 16  2  0  0  0  0
  3 15  1  0  0  0  0
  3  5  1  0  0  0  0
  4 13  1  1  0  0  0
  5 14  1  0  0  0  0
  7  2  1  0  0  0  0
  8  4  1  0  0  0  0
  9  3  2  0  0  0  0
 10  1  1  0  0  0  0
 11  5  1  0  0  0  0
 12  6  1  0  0  0  0
 12 26  1  0  0  0  0
 13 12  1  0  0  0  0
 14  8  1  0  0  0  0
 15 10  1  6  0  0  0
 15  2  1  0  0  0  0
 16 17  2  0  0  0  0
 17  4  1  0  0  0  0
 17 18  1  0  0  0  0
 18  6  1  0  0  0  0
 19 20  1  0  0  0  0
 20 21  2  0  0  0  0
 22 19  1  0  0  0  0
 23 24  1  0  0  0  0
 24 22  1  0  0  0  0
 25 24  1  0  0  0  0
 26 41  1  1  0  0  0
 27 28  1  0  0  0  0
 27 31  1  0  0  0  0
 27 33  1  0  0  0  0
 28 34  1  0  0  0  0
 29 31  1  0  0  0  0
 29 37  1  0  0  0  0
 30 28  1  0  0  0  0
 32 31  1  0  0  0  0
 33 26  1  0  0  0  0
 33 35  1  0  0  0  0
 34 35  1  0  0  0  0
 36 30  1  0  0  0  0
 36 29  1  0  0  0  0
 38 36  1  0  0  0  0
 39 38  1  0  0  0  0
 40 41  1  0  0  0  0
M  END
>  <MODEL>
1

>  <REMARK>
 VINA RESULT:      -5.2      0.000      0.000
  Name = 
  7 active torsions:
  status: ('A' for Active; 'I' for Inactive)
    1  A    between atoms: C_5  and  C_24
    2  A    between atoms: N_9  and  C_12
    3  A    between atoms: C_12  and  C_21
    4  A    between atoms: C_14  and  C_23
    5  A    between atoms: C_23  and  N_32
    6  A    between atoms: C_23  and  C_37
    7  A    between atoms: C_29  and  C_30
                            x       y       z     vdW  Elec       q    Type
                         _______ _______ _______ _____ _____    ______ ____

>  <TORSDO>
F 7

$$$$
=
 OpenBabel11072413243D

 41 45  0  0  1  0  0  0  0  0999 V2000
  161.9910  204.5340  151.9580 C   0  0  2  0  0  3  0  0  0  0  0  0
  161.3190  206.7240  152.6850 C   0  0  0  0  0  0  0  0  0  0  0  0
  161.7750  208.2340  150.7880 C   0  0  0  0  0  0  0  0  0  0  0  0
  161.6830  209.6930  154.5370 C   0  0  1  0  0  3  0  0  0  0  0  0
  161.9530  209.6040  151.1850 N   0  0  0  0  0  0  0  0  0  0  0  0
  159.4700  209.4500  156.4240 C   0  0  0  0  0  2  0  0  0  0  0  0
  160.9500  205.2940  152.7560 C   0  0  0  0  0  2  0  0  0  0  0  0
  161.5340  210.3940  153.2660 N   0  0  0  0  0  2  0  0  0  0  0  0
  161.1220  207.9670  149.7400 O   0  0  0  0  0  0  0  0  0  0  0  0
  162.6800  205.6220  150.6650 S   0  0  0  0  0  0  0  0  0  0  0  0
  161.5340  210.6850  150.2990 C   0  0  0  0  0  1  0  0  0  0  0  0
  159.9390  210.7460  155.9250 N   0  0  0  0  0  0  0  0  0  0  0  0
  161.3800  210.6410  155.6970 C   0  0  0  0  0  2  0  0  0  0  0  0
  162.5500  209.9240  152.4170 N   0  0  0  0  0  2  0  0  0  0  0  0
  162.3040  207.1130  151.6440 C   0  0  2  0  0  3  0  0  0  0  0  0
  161.0430  207.5460  153.6560 C   0  0  0  0  0  0  0  0  0  0  0  0
  160.8200  208.4520  154.5640 C   0  0  0  0  0  0  0  0  0  0  0  0
  159.5170  208.4100  155.3100 C   0  0  0  0  0  2  0  0  0  0  0  0
  160.6410  203.3580  150.1630 N   0  0  0  0  0  2  0  0  0  0  0  0
  161.4020  203.2940  151.3720 C   0  0  0  0  0  0  0  0  0  0  0  0
  161.5530  202.1970  151.9720 O   0  0  0  0  0  0  0  0  0  0  0  0
  160.0560  202.1850  149.5310 C   0  0  0  0  0  2  0  0  0  0  0  0
  161.8090  200.8410  148.6100 O   0  0  0  0  0  1  0  0  0  0  0  0
  160.8430  201.8020  148.2890 C   0  0  0  0  0  3  0  0  0  0  0  0
  161.4710  202.9360  147.7780 O   0  0  0  0  0  1  0  0  0  0  0  0
  159.6840  211.8050  156.9140 C   0  0  2  0  0  3  0  0  0  0  0  0
  158.0760  213.2740  155.4870 C   0  0  2  0  0  3  0  0  0  0  0  0
  156.5470  213.4470  155.4550 C   0  0  1  0  0  3  0  0  0  0  0  0
  158.0650  213.0830  152.8930 C   0  0  2  0  0  3  0  0  0  0  0  0
  155.9180  213.5750  154.0690 C   0  0  0  0  0  2  0  0  0  0  0  0
  158.6260  212.5630  154.2250 C   0  0  1  0  0  3  0  0  0  0  0  0
  160.0150  212.6620  154.1840 O   0  0  0  0  0  1  0  0  0  0  0  0
  158.2890  212.4700  156.7670 C   0  0  1  0  0  3  0  0  0  0  0  0
  155.9410  212.2710  156.2080 C   0  0  0  0  0  2  0  0  0  0  0  0
  157.0860  211.5470  156.8960 C   0  0  0  0  0  2  0  0  0  0  0  0
  156.9360  214.1070  153.0680 C   0  0  2  0  0  3  0  0  0  0  0  0
  157.6470  211.9930  152.1230 O   0  0  0  0  0  1  0  0  0  0  0  0
  156.2740  214.4530  151.7390 C   0  0  0  0  0  2  0  0  0  0  0  0
  154.9220  214.1150  151.7760 O   0  0  0  0  0  1  0  0  0  0  0  0
  160.3490  214.1830  157.2600 C   0  0  0  0  0  1  0  0  0  0  0  0
  160.8540  212.7840  156.9740 C   0  0  0  0  0  2  0  0  0  0  0  0
  1 20  1  6  0  0  0
  1  7  1  0  0  0  0
  2  7  1  0  0  0  0
  2 16  2  0  0  0  0
  3  5  1  0  0  0  0
  3 15  1  0  0  0  0
  4 17  1  0  0  0  0
  4 13  1  1  0  0  0
  5 14  1  0  0  0  0
  8  4  1  0  0  0  0
  9  3  2  0  0  0  0
 10  1  1  0  0  0  0
 11  5  1  0  0  0  0
 12  6  1  0  0  0  0
 12 26  1  0  0  0  0
 13 12  1  0  0  0  0
 14  8  1  0  0  0  0
 15 10  1  6  0  0  0
 15  2  1  0  0  0  0
 16 17  2  0  0  0  0
 17 18  1  0  0  0  0
 18  6  1  0  0  0  0
 19 20  1  0  0  0  0
 20 21  2  0  0  0  0
 22 19  1  0  0  0  0
 24 23  1  0  0  0  0
 24 22  1  0  0  0  0
 25 24  1  0  0  0  0
 26 41  1  6  0  0  0
 27 33  1  0  0  0  0
 28 27  1  0  0  0  0
 28 34  1  0  0  0  0
 29 36  1  0  0  0  0
 29 31  1  0  0  0  0
 30 28  1  0  0  0  0
 31 27  1  0  0  0  0
 32 31  1  0  0  0  0
 33 35  1  0  0  0  0
 33 26  1  0  0  0  0
 34 35  1  0  0  0  0
 36 30  1  0  0  0  0
 37 29  1  0  0  0  0
 38 39  1  0  0  0  0
 38 36  1  0  0  0  0
 41 40  1  0  0  0  0
M  END
>  <MODEL>
2

>  <REMARK>
 VINA RESULT:      -5.1      1.824      2.539
  Name = 
  7 active torsions:
  status: ('A' for Active; 'I' for Inactive)
    1  A    between atoms: C_5  and  C_24
    2  A    between atoms: N_9  and  C_12
    3  A    between atoms: C_12  and  C_21
    4  A    between atoms: C_14  and  C_23
    5  A    between atoms: C_23  and  N_32
    6  A    between atoms: C_23  and  C_37
    7  A    between atoms: C_29  and  C_30
                            x       y       z     vdW  Elec       q    Type
                         _______ _______ _______ _____ _____    ______ ____

>  <TORSDO>
F 7

$$$$
=
 OpenBabel11072413243D

 41 45  0  0  1  0  0  0  0  0999 V2000
  159.9940  212.3420  153.1690 C   0  0  2  0  0  3  0  0  0  0  0  0
  160.1940  209.9530  153.0030 C   0  0  0  0  0  0  0  0  0  0  0  0
  159.9660  209.0950  155.3050 C   0  0  0  0  0  0  0  0  0  0  0  0
  161.9710  206.9500  152.5540 C   0  0  1  0  0  3  0  0  0  0  0  0
  160.5740  207.8060  155.4920 N   0  0  0  0  0  0  0  0  0  0  0  0
  160.9380  206.0690  149.9710 C   0  0  0  0  0  2  0  0  0  0  0  0
  159.6340  211.1390  152.3200 C   0  0  0  0  0  2  0  0  0  0  0  0
  161.3690  206.5150  153.8100 N   0  0  0  0  0  2  0  0  0  0  0  0
  158.8520  209.3450  155.8470 O   0  0  0  0  0  0  0  0  0  0  0  0
  160.1740  211.8260  154.9110 S   0  0  0  0  0  0  0  0  0  0  0  0
  160.0000  206.8530  156.4360 C   0  0  0  0  0  1  0  0  0  0  0  0
  161.3510  205.1270  151.0140 N   0  0  0  0  0  0  0  0  0  0  0  0
  162.4530  205.7390  151.7560 C   0  0  0  0  0  2  0  0  0  0  0  0
  161.7390  207.4520  154.7890 N   0  0  0  0  0  2  0  0  0  0  0  0
  160.6120  210.1270  154.4180 C   0  0  2  0  0  3  0  0  0  0  0  0
  160.5840  208.9050  152.3360 C   0  0  0  0  0  0  0  0  0  0  0  0
  161.0050  207.8100  151.7710 C   0  0  0  0  0  0  0  0  0  0  0  0
  160.2410  207.2730  150.5950 C   0  0  0  0  0  2  0  0  0  0  0  0
  157.8070  213.4250  153.8560 N   0  0  0  0  0  2  0  0  0  0  0  0
  158.9680  213.4160  153.0210 C   0  0  0  0  0  0  0  0  0  0  0  0
  159.1180  214.2930  152.1300 O   0  0  0  0  0  0  0  0  0  0  0  0
  156.7800  214.4530  153.7740 C   0  0  0  0  0  2  0  0  0  0  0  0
  155.6980  212.8010  155.1280 O   0  0  0  0  0  1  0  0  0  0  0  0
  155.4690  213.9400  154.3460 C   0  0  0  0  0  3  0  0  0  0  0  0
  154.6090  213.6160  153.2990 O   0  0  0  0  0  1  0  0  0  0  0  0
  161.8130  203.8640  150.4190 C   0  0  2  0  0  3  0  0  0  0  0  0
  161.0870  204.2140  147.9430 C   0  0  2  0  0  3  0  0  0  0  0  0
  160.4570  203.2910  146.8840 C   0  0  1  0  0  3  0  0  0  0  0  0
  162.8060  205.0130  146.1630 C   0  0  2  0  0  3  0  0  0  0  0  0
  160.9980  203.4410  145.4630 C   0  0  0  0  0  2  0  0  0  0  0  0
  162.5550  204.5870  147.6170 C   0  0  1  0  0  3  0  0  0  0  0  0
  162.9870  205.6140  148.4560 O   0  0  0  0  0  1  0  0  0  0  0  0
  160.9490  203.3880  149.2200 C   0  0  1  0  0  3  0  0  0  0  0  0
  160.6270  201.8590  147.3700 C   0  0  0  0  0  2  0  0  0  0  0  0
  161.1140  201.9330  148.8070 C   0  0  0  0  0  2  0  0  0  0  0  0
  161.5810  204.8320  145.2570 C   0  0  2  0  0  3  0  0  0  0  0  0
  163.9110  204.3100  145.6720 O   0  0  0  0  0  1  0  0  0  0  0  0
  161.9200  205.0770  143.7910 C   0  0  0  0  0  2  0  0  0  0  0  0
  161.2370  206.1980  143.3230 O   0  0  0  0  0  1  0  0  0  0  0  0
  160.7750  202.5960  152.2980 C   0  0  0  0  0  1  0  0  0  0  0  0
  162.0430  202.8090  151.4980 C   0  0  0  0  0  2  0  0  0  0  0  0
  1 20  1  1  0  0  0
  1 10  1  0  0  0  0
  3  5  1  0  0  0  0
  3  9  2  0  0  0  0
  4 13  1  6  0  0  0
  4  8  1  0  0  0  0
  5 11  1  0  0  0  0
  6 18  1  0  0  0  0
  6 12  1  0  0  0  0
  7  2  1  0  0  0  0
  7  1  1  0  0  0  0
  8 14  1  0  0  0  0
 12 13  1  0  0  0  0
 14  5  1  0  0  0  0
 15  2  1  6  0  0  0
 15 10  1  0  0  0  0
 15  3  1  0  0  0  0
 16  2  2  0  0  0  0
 17 16  2  0  0  0  0
 17  4  1  0  0  0  0
 18 17  1  0  0  0  0
 20 19  1  0  0  0  0
 21 20  2  0  0  0  0
 22 19  1  0  0  0  0
 22 24  1  0  0  0  0
 24 23  1  0  0  0  0
 25 24  1  0  0  0  0
 26 12  1  0  0  0  0
 26 41  1  1  0  0  0
 27 33  1  0  0  0  0
 28 34  1  0  0  0  0
 28 27  1  0  0  0  0
 29 31  1  0  0  0  0
 30 28  1  0  0  0  0
 31 27  1  0  0  0  0
 31 32  1  0  0  0  0
 33 26  1  0  0  0  0
 34 35  1  0  0  0  0
 35 33  1  0  0  0  0
 36 30  1  0  0  0  0
 36 29  1  0  0  0  0
 37 29  1  0  0  0  0
 38 36  1  0  0  0  0
 39 38  1  0  0  0  0
 41 40  1  0  0  0  0
M  END
>  <MODEL>
3

>  <REMARK>
 VINA RESULT:      -4.9      2.921     10.629
  Name = 
  7 active torsions:
  status: ('A' for Active; 'I' for Inactive)
    1  A    between atoms: C_5  and  C_24
    2  A    between atoms: N_9  and  C_12
    3  A    between atoms: C_12  and  C_21
    4  A    between atoms: C_14  and  C_23
    5  A    between atoms: C_23  and  N_32
    6  A    between atoms: C_23  and  C_37
    7  A    between atoms: C_29  and  C_30
                            x       y       z     vdW  Elec       q    Type
                         _______ _______ _______ _____ _____    ______ ____

>  <TORSDO>
F 7

$$$$
=
 OpenBabel11072413243D

 41 45  0  0  1  0  0  0  0  0999 V2000
  160.3200  211.8370  153.5300 C   0  0  2  0  0  3  0  0  0  0  0  0
  160.5700  211.6230  151.1500 C   0  0  0  0  0  0  0  0  0  0  0  0
  161.5970  209.4100  150.7760 C   0  0  0  0  0  0  0  0  0  0  0  0
  162.0750  212.3310  148.0500 C   0  0  1  0  0  3  0  0  0  0  0  0
  162.3030  209.3180  149.5270 N   0  0  0  0  0  0  0  0  0  0  0  0
  159.9400  213.8050  146.7150 C   0  0  0  0  0  2  0  0  0  0  0  0
  159.6630  212.1370  152.1980 C   0  0  0  0  0  2  0  0  0  0  0  0
  162.2230  210.8880  147.8970 N   0  0  0  0  0  2  0  0  0  0  0  0
  160.8970  208.4370  151.1720 O   0  0  0  0  0  0  0  0  0  0  0  0
  161.3910  210.3680  153.3630 S   0  0  0  0  0  0  0  0  0  0  0  0
  162.3520  208.0510  148.8040 C   0  0  0  0  0  1  0  0  0  0  0  0
  160.8870  212.9600  145.9840 N   0  0  0  0  0  0  0  0  0  0  0  0
  162.1680  213.0160  146.6860 C   0  0  0  0  0  2  0  0  0  0  0  0
  162.9720  210.4330  148.9950 N   0  0  0  0  0  2  0  0  0  0  0  0
  161.6340  210.6810  151.5850 C   0  0  2  0  0  3  0  0  0  0  0  0
  160.6390  212.1810  149.9760 C   0  0  0  0  0  0  0  0  0  0  0  0
  160.7900  212.6610  148.7740 C   0  0  0  0  0  0  0  0  0  0  0  0
  159.5750  213.1570  148.0450 C   0  0  0  0  0  2  0  0  0  0  0  0
  157.9050  211.8500  154.3010 N   0  0  0  0  0  2  0  0  0  0  0  0
  159.2900  211.6440  154.5930 C   0  0  0  0  0  0  0  0  0  0  0  0
  159.6560  211.3340  155.7570 O   0  0  0  0  0  0  0  0  0  0  0  0
  156.8510  211.6620  155.2870 C   0  0  0  0  0  2  0  0  0  0  0  0
  155.3750  213.1800  154.1700 O   0  0  0  0  0  1  0  0  0  0  0  0
  155.9970  212.9140  155.3960 C   0  0  0  0  0  3  0  0  0  0  0  0
  156.8070  213.9920  155.7470 O   0  0  0  0  0  1  0  0  0  0  0  0
  161.0690  213.4540  144.6100 C   0  0  2  0  0  3  0  0  0  0  0  0
  159.8960  212.2070  142.6480 C   0  0  2  0  0  3  0  0  0  0  0  0
  160.4090  211.3200  141.4990 C   0  0  1  0  0  3  0  0  0  0  0  0
  158.4450  213.5160  140.9320 C   0  0  2  0  0  3  0  0  0  0  0  0
  159.7430  211.5350  140.1410 C   0  0  0  0  0  2  0  0  0  0  0  0
  159.3690  213.5790  142.1570 C   0  0  1  0  0  3  0  0  0  0  0  0
  158.6880  214.2290  143.1860 O   0  0  0  0  0  1  0  0  0  0  0  0
  161.1260  212.3260  143.5450 C   0  0  1  0  0  3  0  0  0  0  0  0
  161.9120  211.5360  141.3950 C   0  0  0  0  0  2  0  0  0  0  0  0
  162.3320  212.3350  142.6170 C   0  0  0  0  0  2  0  0  0  0  0  0
  158.3450  212.1130  140.3180 C   0  0  2  0  0  3  0  0  0  0  0  0
  158.8810  214.4530  139.9900 O   0  0  0  0  0  1  0  0  0  0  0  0
  157.5820  212.1260  138.9980 C   0  0  0  0  0  2  0  0  0  0  0  0
  156.2250  211.9060  139.2290 O   0  0  0  0  0  1  0  0  0  0  0  0
  163.4420  213.8000  143.9280 C   0  0  0  0  0  1  0  0  0  0  0  0
  162.2210  214.4530  144.5410 C   0  0  0  0  0  2  0  0  0  0  0  0
  1 20  1  1  0  0  0
  2 15  1  0  0  0  0
  2  7  1  0  0  0  0
  3  9  2  0  0  0  0
  4 13  1  6  0  0  0
  4 17  1  0  0  0  0
  5  3  1  0  0  0  0
  6 18  1  0  0  0  0
  7  1  1  0  0  0  0
  8  4  1  0  0  0  0
  8 14  1  0  0  0  0
 10  1  1  0  0  0  0
 11  5  1  0  0  0  0
 12 13  1  0  0  0  0
 12  6  1  0  0  0  0
 14  5  1  0  0  0  0
 15  3  1  6  0  0  0
 15 10  1  0  0  0  0
 16  2  2  0  0  0  0
 17 16  2  0  0  0  0
 18 17  1  0  0  0  0
 19 20  1  0  0  0  0
 19 22  1  0  0  0  0
 20 21  2  0  0  0  0
 22 24  1  0  0  0  0
 23 24  1  0  0  0  0
 24 25  1  0  0  0  0
 26 41  1  1  0  0  0
 26 12  1  0  0  0  0
 27 33  1  0  0  0  0
 28 27  1  0  0  0  0
 29 31  1  0  0  0  0
 30 36  1  0  0  0  0
 30 28  1  0  0  0  0
 31 27  1  0  0  0  0
 31 32  1  0  0  0  0
 33 26  1  0  0  0  0
 34 28  1  0  0  0  0
 34 35  1  0  0  0  0
 35 33  1  0  0  0  0
 36 29  1  0  0  0  0
 37 29  1  0  0  0  0
 38 39  1  0  0  0  0
 38 36  1  0  0  0  0
 40 41  1  0  0  0  0
M  END
>  <MODEL>
4

>  <REMARK>
 VINA RESULT:      -4.2      5.859     11.380
  Name = 
  7 active torsions:
  status: ('A' for Active; 'I' for Inactive)
    1  A    between atoms: C_5  and  C_24
    2  A    between atoms: N_9  and  C_12
    3  A    between atoms: C_12  and  C_21
    4  A    between atoms: C_14  and  C_23
    5  A    between atoms: C_23  and  N_32
    6  A    between atoms: C_23  and  C_37
    7  A    between atoms: C_29  and  C_30
                            x       y       z     vdW  Elec       q    Type
                         _______ _______ _______ _____ _____    ______ ____

>  <TORSDO>
F 7

$$$$
=
 OpenBabel11072413243D

 41 45  0  0  1  0  0  0  0  0999 V2000
  160.7450  208.6630  154.8380 C   0  0  2  0  0  3  0  0  0  0  0  0
  161.2600  207.2970  152.9300 C   0  0  0  0  0  0  0  0  0  0  0  0
  161.7090  208.8660  151.0790 C   0  0  0  0  0  0  0  0  0  0  0  0
  160.4530  205.1270  150.2810 C   0  0  1  0  0  3  0  0  0  0  0  0
  161.5050  208.2820  149.7810 N   0  0  0  0  0  0  0  0  0  0  0  0
  161.7250  202.6570  151.1730 C   0  0  0  0  0  2  0  0  0  0  0  0
  161.4510  207.3980  154.3920 C   0  0  0  0  0  2  0  0  0  0  0  0
  161.1430  206.0770  149.4160 N   0  0  0  0  0  2  0  0  0  0  0  0
  162.6930  209.6320  151.2720 O   0  0  0  0  0  0  0  0  0  0  0  0
  160.7080  209.8590  153.4600 S   0  0  0  0  0  0  0  0  0  0  0  0
  162.3260  208.7040  148.6500 C   0  0  0  0  0  1  0  0  0  0  0  0
  161.5980  203.0080  149.7560 N   0  0  0  0  0  0  0  0  0  0  0  0
  160.3570  203.7650  149.5940 C   0  0  0  0  0  2  0  0  0  0  0  0
  160.5040  207.3180  149.5750 N   0  0  0  0  0  2  0  0  0  0  0  0
  160.7960  208.5200  152.2260 C   0  0  2  0  0  3  0  0  0  0  0  0
  161.2030  206.1430  152.3300 C   0  0  0  0  0  0  0  0  0  0  0  0
  161.1290  205.0470  151.6300 C   0  0  0  0  0  0  0  0  0  0  0  0
  162.0290  203.9020  151.9980 C   0  0  0  0  0  2  0  0  0  0  0  0
  162.0440  210.5190  155.9760 N   0  0  0  0  0  2  0  0  0  0  0  0
  161.4090  209.2390  156.0440 C   0  0  0  0  0  0  0  0  0  0  0  0
  161.4360  208.5720  157.1110 O   0  0  0  0  0  0  0  0  0  0  0  0
  162.6940  211.1440  157.1180 C   0  0  0  0  0  2  0  0  0  0  0  0
  164.6280  212.5480  157.2610 O   0  0  0  0  0  1  0  0  0  0  0  0
  164.1870  211.2760  156.8730 C   0  0  0  0  0  3  0  0  0  0  0  0
  164.4470  211.0890  155.5180 O   0  0  0  0  0  1  0  0  0  0  0  0
  161.5340  201.7960  148.9250 C   0  0  2  0  0  3  0  0  0  0  0  0
  160.7760  203.2990  146.9380 C   0  0  2  0  0  3  0  0  0  0  0  0
  160.1310  203.0030  145.5720 C   0  0  1  0  0  3  0  0  0  0  0  0
  162.4730  204.8700  145.7480 C   0  0  2  0  0  3  0  0  0  0  0  0
  160.6540  203.8250  144.3950 C   0  0  0  0  0  2  0  0  0  0  0  0
  162.2410  203.7910  146.8160 C   0  0  1  0  0  3  0  0  0  0  0  0
  162.6850  204.2850  148.0420 O   0  0  0  0  0  1  0  0  0  0  0  0
  160.6540  201.9570  147.6560 C   0  0  1  0  0  3  0  0  0  0  0  0
  160.3050  201.5150  145.3000 C   0  0  0  0  0  2  0  0  0  0  0  0
  160.8120  200.8850  146.5870 C   0  0  0  0  0  2  0  0  0  0  0  0
  161.2360  205.1450  144.8830 C   0  0  2  0  0  3  0  0  0  0  0  0
  163.5700  204.4980  144.9640 O   0  0  0  0  0  1  0  0  0  0  0  0
  161.5560  206.0710  143.7160 C   0  0  0  0  0  2  0  0  0  0  0  0
  161.2370  205.4490  142.5100 O   0  0  0  0  0  1  0  0  0  0  0  0
  159.8300  200.7130  150.3880 C   0  0  0  0  0  1  0  0  0  0  0  0
  161.2090  200.5720  149.7750 C   0  0  0  0  0  2  0  0  0  0  0  0
  1 20  1  1  0  0  0
  2  7  1  0  0  0  0
  3  9  2  0  0  0  0
  4 13  1  6  0  0  0
  4 17  1  0  0  0  0
  5  3  1  0  0  0  0
  6 18  1  0  0  0  0
  7  1  1  0  0  0  0
  8 14  1  0  0  0  0
  8  4  1  0  0  0  0
 10  1  1  0  0  0  0
 11  5  1  0  0  0  0
 12  6  1  0  0  0  0
 13 12  1  0  0  0  0
 14  5  1  0  0  0  0
 15  3  1  6  0  0  0
 15  2  1  0  0  0  0
 15 10  1  0  0  0  0
 16  2  2  0  0  0  0
 17 18  1  0  0  0  0
 17 16  2  0  0  0  0
 19 20  1  0  0  0  0
 19 22  1  0  0  0  0
 20 21  2  0  0  0  0
 24 22  1  0  0  0  0
 24 23  1  0  0  0  0
 25 24  1  0  0  0  0
 26 12  1  0  0  0  0
 26 41  1  1  0  0  0
 27 33  1  0  0  0  0
 28 27  1  0  0  0  0
 29 31  1  0  0  0  0
 30 36  1  0  0  0  0
 30 28  1  0  0  0  0
 31 27  1  0  0  0  0
 31 32  1  0  0  0  0
 33 26  1  0  0  0  0
 34 28  1  0  0  0  0
 34 35  1  0  0  0  0
 35 33  1  0  0  0  0
 36 29  1  0  0  0  0
 37 29  1  0  0  0  0
 38 36  1  0  0  0  0
 39 38  1  0  0  0  0
 41 40  1  0  0  0  0
M  END
>  <MODEL>
5

>  <REMARK>
 VINA RESULT:      -3.3      3.736     10.736
  Name = 
  7 active torsions:
  status: ('A' for Active; 'I' for Inactive)
    1  A    between atoms: C_5  and  C_24
    2  A    between atoms: N_9  and  C_12
    3  A    between atoms: C_12  and  C_21
    4  A    between atoms: C_14  and  C_23
    5  A    between atoms: C_23  and  N_32
    6  A    between atoms: C_23  and  C_37
    7  A    between atoms: C_29  and  C_30
                            x       y       z     vdW  Elec       q    Type
                         _______ _______ _______ _____ _____    ______ ____

>  <TORSDO>
F 7

$$$$
=
 OpenBabel11072413243D

 41 45  0  0  1  0  0  0  0  0999 V2000
  161.5240  203.2540  149.3950 C   0  0  2  0  0  3  0  0  0  0  0  0
  161.2060  205.3050  150.6060 C   0  0  0  0  0  0  0  0  0  0  0  0
  161.3430  207.1080  148.9260 C   0  0  0  0  0  0  0  0  0  0  0  0
  162.2060  207.8850  152.7790 C   0  0  1  0  0  3  0  0  0  0  0  0
  161.7120  208.3790  149.4890 N   0  0  0  0  0  0  0  0  0  0  0  0
  160.4600  207.3990  155.0650 C   0  0  0  0  0  2  0  0  0  0  0  0
  160.7510  203.9010  150.5270 C   0  0  0  0  0  2  0  0  0  0  0  0
  161.8320  208.8040  151.7100 N   0  0  0  0  0  2  0  0  0  0  0  0
  160.4540  207.0550  148.0310 O   0  0  0  0  0  0  0  0  0  0  0  0
  161.9900  204.5260  148.1710 S   0  0  0  0  0  0  0  0  0  0  0  0
  161.1920  209.6150  148.9130 C   0  0  0  0  0  1  0  0  0  0  0  0
  160.9050  208.7430  154.6890 N   0  0  0  0  0  0  0  0  0  0  0  0
  162.2460  208.6240  154.1160 C   0  0  0  0  0  2  0  0  0  0  0  0
  162.5930  208.4530  150.5810 N   0  0  0  0  0  2  0  0  0  0  0  0
  161.9610  205.8340  149.4400 C   0  0  2  0  0  3  0  0  0  0  0  0
  161.2190  205.9540  151.7350 C   0  0  0  0  0  0  0  0  0  0  0  0
  161.2760  206.6930  152.8050 C   0  0  0  0  0  0  0  0  0  0  0  0
  160.1750  206.5710  153.8180 C   0  0  0  0  0  2  0  0  0  0  0  0
  160.6410  202.0520  147.3450 N   0  0  0  0  0  2  0  0  0  0  0  0
  160.7240  202.1610  148.7690 C   0  0  0  0  0  0  0  0  0  0  0  0
  160.0940  201.3580  149.5070 O   0  0  0  0  0  0  0  0  0  0  0  0
  159.8930  201.0000  146.6730 C   0  0  0  0  0  2  0  0  0  0  0  0
  160.1070  200.2700  144.4030 O   0  0  0  0  0  1  0  0  0  0  0  0
  159.6980  201.3420  145.2060 C   0  0  0  0  0  3  0  0  0  0  0  0
  160.4550  202.4680  144.8940 O   0  0  0  0  0  1  0  0  0  0  0  0
  160.9620  209.6200  155.8680 C   0  0  2  0  0  3  0  0  0  0  0  0
  159.5640  211.7140  155.2000 C   0  0  2  0  0  3  0  0  0  0  0  0
  158.0770  212.0840  155.3420 C   0  0  1  0  0  3  0  0  0  0  0  0
  159.4830  212.5130  152.7270 C   0  0  2  0  0  3  0  0  0  0  0  0
  157.4520  212.8040  154.1480 C   0  0  0  0  0  2  0  0  0  0  0  0
  159.9830  211.4630  153.7300 C   0  0  1  0  0  3  0  0  0  0  0  0
  161.3710  211.3880  153.6310 O   0  0  0  0  0  1  0  0  0  0  0  0
  159.6780  210.4680  156.0750 C   0  0  1  0  0  3  0  0  0  0  0  0
  157.3160  210.8010  155.6480 C   0  0  0  0  0  2  0  0  0  0  0  0
  158.3540  209.7290  155.9390 C   0  0  0  0  0  2  0  0  0  0  0  0
  158.5200  213.5350  153.3460 C   0  0  2  0  0  3  0  0  0  0  0  0
  158.8980  211.8560  151.6400 O   0  0  0  0  0  1  0  0  0  0  0  0
  157.8950  214.4370  152.2890 C   0  0  0  0  0  2  0  0  0  0  0  0
  156.8230  213.7870  151.6790 O   0  0  0  0  0  1  0  0  0  0  0  0
  162.3780  211.1940  157.1850 C   0  0  0  0  0  1  0  0  0  0  0  0
  162.2620  210.4190  155.8890 C   0  0  0  0  0  2  0  0  0  0  0  0
  1 20  1  6  0  0  0
  1  7  1  0  0  0  0
  2 16  2  0  0  0  0
  3 15  1  0  0  0  0
  3  5  1  0  0  0  0
  4 17  1  0  0  0  0
  4 13  1  1  0  0  0
  5 14  1  0  0  0  0
  7  2  1  0  0  0  0
  8  4  1  0  0  0  0
  9  3  2  0  0  0  0
 10  1  1  0  0  0  0
 11  5  1  0  0  0  0
 12  6  1  0  0  0  0
 12 26  1  0  0  0  0
 13 12  1  0  0  0  0
 14  8  1  0  0  0  0
 15 10  1  6  0  0  0
 15  2  1  0  0  0  0
 16 17  2  0  0  0  0
 17 18  1  0  0  0  0
 18  6  1  0  0  0  0
 19 20  1  0  0  0  0
 20 21  2  0  0  0  0
 22 19  1  0  0  0  0
 23 24  1  0  0  0  0
 24 22  1  0  0  0  0
 25 24  1  0  0  0  0
 26 41  1  6  0  0  0
 26 33  1  0  0  0  0
 27 28  1  0  0  0  0
 27 33  1  0  0  0  0
 28 34  1  0  0  0  0
 29 36  1  0  0  0  0
 29 31  1  0  0  0  0
 30 28  1  0  0  0  0
 31 27  1  0  0  0  0
 32 31  1  0  0  0  0
 34 35  1  0  0  0  0
 35 33  1  0  0  0  0
 36 30  1  0  0  0  0
 37 29  1  0  0  0  0
 38 36  1  0  0  0  0
 39 38  1  0  0  0  0
 41 40  1  0  0  0  0
M  END
>  <MODEL>
6

>  <REMARK>
 VINA RESULT:      -3.1      1.582      2.035
  Name = 
  7 active torsions:
  status: ('A' for Active; 'I' for Inactive)
    1  A    between atoms: C_5  and  C_24
    2  A    between atoms: N_9  and  C_12
    3  A    between atoms: C_12  and  C_21
    4  A    between atoms: C_14  and  C_23
    5  A    between atoms: C_23  and  N_32
    6  A    between atoms: C_23  and  C_37
    7  A    between atoms: C_29  and  C_30
                            x       y       z     vdW  Elec       q    Type
                         _______ _______ _______ _____ _____    ______ ____

>  <TORSDO>
F 7

$$$$
