=
 OpenBabel11072413423D

 44 50  0  0  1  0  0  0  0  0999 V2000
  162.0980  210.7650  150.1400 C   0  0  2  0  0  3  0  0  0  0  0  0
  162.5160  209.8210  152.2640 O   0  0  0  0  0  0  0  0  0  0  0  0
  161.9600  208.2000  150.6510 C   0  0  0  0  0  2  0  0  0  0  0  0
  162.1290  210.3790  148.6560 C   0  0  0  0  0  2  0  0  0  0  0  0
  162.3120  208.0090  149.2390 N   0  0  0  0  0  0  0  0  0  0  0  0
  161.5860  208.9730  148.4130 C   0  0  0  0  0  2  0  0  0  0  0  0
  162.2230  209.6090  151.0980 C   0  0  0  0  0  0  0  0  0  0  0  0
  160.2170  211.4260  151.4750 N   0  0  0  0  0  2  0  0  0  0  0  0
  160.7780  212.9650  149.7970 N   0  0  0  0  0  2  0  0  0  0  0  0
  161.0030  211.7330  150.4980 C   0  0  0  0  0  0  0  0  0  0  0  0
  161.5670  213.4530  148.6750 C   0  0  0  0  0  2  0  0  0  0  0  0
  160.6720  214.1070  147.6330 C   0  0  0  0  0  2  0  0  0  0  0  0
  160.3130  213.1420  146.5140 C   0  0  0  0  0  2  0  0  0  0  0  0
  160.7180  213.7080  145.1620 C   0  0  1  0  0  3  0  0  0  0  0  0
  162.0130  213.0750  144.6990 C   0  0  0  0  0  2  0  0  0  0  0  0
  160.6910  212.5920  144.1370 C   0  0  2  0  0  3  0  0  0  0  0  0
  158.7040  212.9110  141.0530 C   0  0  0  0  0  2  0  0  0  0  0  0
  159.9980  212.3210  140.5140 C   0  0  2  0  0  0  0  0  0  0  0  0
  161.5220  210.6930  139.2970 C   0  0  2  0  0  3  0  0  0  0  0  0
  160.0740  210.9870  139.7650 C   0  0  2  0  0  3  0  0  0  0  0  0
  162.3550  212.3360  141.1630 C   0  0  2  0  0  3  0  0  0  0  0  0
  159.2300  211.0130  138.6680 F   0  0  0  0  0  0  0  0  0  0  0  0
  160.9320  212.2530  141.6810 C   0  0  1  0  0  0  0  0  0  0  0  0
  161.2590  213.1640  140.5190 C   0  0  2  0  0  3  0  0  0  0  0  0
  158.9550  213.3140  142.5100 C   0  0  0  0  0  2  0  0  0  0  0  0
  161.6420  209.3560  138.9200 O   0  0  0  0  0  1  0  0  0  0  0  0
  162.6010  211.0330  140.3640 C   0  0  0  0  0  2  0  0  0  0  0  0
  160.4530  213.1910  142.7610 C   0  0  1  0  0  3  0  0  0  0  0  0
  161.9580  206.6550  148.7860 C   0  0  2  0  0  3  0  0  0  0  0  0
  162.6930  205.3780  145.3480 C   0  0  0  0  0  2  0  0  0  0  0  0
  161.2980  205.1460  144.7730 C   0  0  0  0  0  2  0  0  0  0  0  0
  162.6420  205.3650  146.8080 N   0  0  0  0  0  2  0  0  0  0  0  0
  160.3830  206.3250  146.7820 C   0  0  0  0  0  2  0  0  0  0  0  0
  161.8330  206.4980  147.2560 C   0  0  1  0  0  3  0  0  0  0  0  0
  160.3520  206.2390  145.2600 C   0  0  0  0  0  2  0  0  0  0  0  0
  160.7700  206.0850  149.5630 C   0  0  0  0  0  2  0  0  0  0  0  0
  160.5380  204.6970  149.1900 N   0  0  0  0  0  2  0  0  0  0  0  0
  161.7170  203.8200  151.0040 O   0  0  0  0  0  0  0  0  0  0  0  0
  161.0300  203.5970  149.9670 C   0  0  0  0  0  0  0  0  0  0  0  0
  161.3370  201.2150  150.5260 C   0  0  0  0  0  1  0  0  0  0  0  0
  160.7010  202.1880  149.5480 C   0  0  0  0  0  0  0  0  0  0  0  0
  159.1950  201.9520  149.5430 C   0  0  0  0  0  1  0  0  0  0  0  0
  161.4120  200.5880  147.8820 O   0  0  0  0  0  1  0  0  0  0  0  0
  161.2570  201.9520  148.1450 C   0  0  0  0  0  2  0  0  0  0  0  0
  1 10  1  1  0  0  0
  1  7  1  0  0  0  0
  3  7  1  0  0  0  0
  4  1  1  0  0  0  0
  5  3  1  0  0  0  0
  6  4  1  0  0  0  0
  6  5  1  0  0  0  0
  7  2  2  0  0  0  0
  9 10  1  0  0  0  0
 10  8  2  0  0  0  0
 11  9  1  0  0  0  0
 12 11  1  0  0  0  0
 13 12  1  0  0  0  0
 14 13  1  1  0  0  0
 15 14  1  0  0  0  0
 16 15  1  6  0  0  0
 16 14  1  0  0  0  0
 17 25  1  0  0  0  0
 18 24  1  0  0  0  0
 18 17  1  1  0  0  0
 18 23  1  0  0  0  0
 19 26  1  1  0  0  0
 19 20  1  0  0  0  0
 19 27  1  0  0  0  0
 20 22  1  6  0  0  0
 20 18  1  0  0  0  0
 21 27  1  6  0  0  0
 21 23  1  0  0  0  0
 23 28  1  0  0  0  0
 24 21  1  0  0  0  0
 24 23  1  0  0  0  0
 25 28  1  0  0  0  0
 28 16  1  0  0  0  0
 29  5  1  0  0  0  0
 29 36  1  0  0  0  0
 30 32  1  0  0  0  0
 31 35  1  0  0  0  0
 31 30  1  0  0  0  0
 32 34  1  0  0  0  0
 33 34  1  0  0  0  0
 34 29  1  0  0  0  0
 35 33  1  0  0  0  0
 37 36  1  0  0  0  0
 37 39  1  0  0  0  0
 39 38  2  0  0  0  0
 41 39  1  0  0  0  0
 41 40  1  0  0  0  0
 42 41  1  0  0  0  0
 43 44  1  0  0  0  0
 44 41  1  0  0  0  0
M  END
>  <MODEL>
1

>  <REMARK>
 VINA RESULT:      -7.3      0.000      0.000
  Name = 
  12 active torsions:
  status: ('A' for Active; 'I' for Inactive)
    1  A    between atoms: C_5  and  C_21
    2  A    between atoms: C_10  and  N_11
    3  A    between atoms: C_10  and  C_20
    4  A    between atoms: C_13  and  C_39
    5  A    between atoms: C_14  and  C_32
    6  A    between atoms: C_14  and  C_39
    7  A    between atoms: N_19  and  C_32
    8  A    between atoms: C_20  and  C_27
    9  A    between atoms: C_20  and  N_30
   10  A    between atoms: C_26  and  C_34
   11  A    between atoms: C_26  and  C_43
   12  A    between atoms: C_36  and  C_42
                            x       y       z     vdW  Elec       q    Type
                         _______ _______ _______ _____ _____    ______ ____

>  <TORSDO>
F 12

$$$$
=
 OpenBabel11072413423D

 44 50  0  0  1  0  0  0  0  0999 V2000
  158.9010  213.9420  149.6100 C   0  0  2  0  0  3  0  0  0  0  0  0
  156.5610  213.6580  149.7550 O   0  0  0  0  0  0  0  0  0  0  0  0
  157.7090  212.5930  151.5120 C   0  0  0  0  0  2  0  0  0  0  0  0
  160.1420  213.9480  150.5100 C   0  0  0  0  0  2  0  0  0  0  0  0
  158.8580  212.9650  152.3470 N   0  0  0  0  0  0  0  0  0  0  0  0
  160.0920  212.8510  151.5710 C   0  0  0  0  0  2  0  0  0  0  0  0
  157.6460  213.4230  150.2620 C   0  0  0  0  0  0  0  0  0  0  0  0
  158.1310  213.2410  147.4470 N   0  0  0  0  0  2  0  0  0  0  0  0
  160.4390  212.9740  147.7670 N   0  0  0  0  0  2  0  0  0  0  0  0
  159.1450  213.3800  148.2350 C   0  0  0  0  0  0  0  0  0  0  0  0
  161.6760  213.0600  148.5280 C   0  0  0  0  0  2  0  0  0  0  0  0
  162.5280  211.8180  148.3110 C   0  0  0  0  0  2  0  0  0  0  0  0
  162.3100  210.7870  149.4090 C   0  0  0  0  0  2  0  0  0  0  0  0
  161.6920  209.5180  148.8440 C   0  0  1  0  0  3  0  0  0  0  0  0
  162.7750  208.6010  148.3180 C   0  0  0  0  0  2  0  0  0  0  0  0
  162.1540  208.3380  149.6740 C   0  0  2  0  0  3  0  0  0  0  0  0
  161.0970  204.8500  150.2010 C   0  0  0  0  0  2  0  0  0  0  0  0
  161.0620  204.9460  148.6840 C   0  0  2  0  0  0  0  0  0  0  0  0
  161.5970  204.3600  146.2700 C   0  0  2  0  0  3  0  0  0  0  0  0
  161.8990  204.0560  147.7600 C   0  0  2  0  0  3  0  0  0  0  0  0
  160.7250  206.7140  147.0290 C   0  0  2  0  0  3  0  0  0  0  0  0
  161.6330  202.7220  148.0210 F   0  0  0  0  0  0  0  0  0  0  0  0
  161.3710  206.3730  148.3580 C   0  0  1  0  0  0  0  0  0  0  0  0
  160.0100  205.8100  148.0160 C   0  0  2  0  0  3  0  0  0  0  0  0
  161.2860  206.2690  150.7470 C   0  0  0  0  0  2  0  0  0  0  0  0
  162.5800  203.7970  145.4560 O   0  0  0  0  0  1  0  0  0  0  0  0
  161.4710  205.8790  145.9600 C   0  0  0  0  0  2  0  0  0  0  0  0
  161.1200  207.2300  149.5750 C   0  0  1  0  0  3  0  0  0  0  0  0
  158.9660  212.0800  153.5180 C   0  0  2  0  0  3  0  0  0  0  0  0
  156.8150  214.2240  155.7010 C   0  0  0  0  0  2  0  0  0  0  0  0
  155.6400  213.3020  156.0190 C   0  0  0  0  0  2  0  0  0  0  0  0
  157.4770  213.7860  154.4740 N   0  0  0  0  0  2  0  0  0  0  0  0
  156.9450  211.4410  154.9710 C   0  0  0  0  0  2  0  0  0  0  0  0
  158.0590  212.4650  154.7050 C   0  0  1  0  0  3  0  0  0  0  0  0
  156.1400  211.8720  156.1920 C   0  0  0  0  0  2  0  0  0  0  0  0
  160.4230  211.8290  153.9110 C   0  0  0  0  0  2  0  0  0  0  0  0
  160.5210  210.6610  154.7750 N   0  0  0  0  0  2  0  0  0  0  0  0
  160.8310  209.1570  153.0170 O   0  0  0  0  0  0  0  0  0  0  0  0
  160.7430  209.3400  154.2630 C   0  0  0  0  0  0  0  0  0  0  0  0
  161.7590  208.6230  156.3940 C   0  0  0  0  0  1  0  0  0  0  0  0
  160.8910  208.1890  155.2240 C   0  0  0  0  0  0  0  0  0  0  0  0
  159.5360  207.7480  155.7670 C   0  0  0  0  0  1  0  0  0  0  0  0
  160.5970  206.1170  154.0170 O   0  0  0  0  0  1  0  0  0  0  0  0
  161.5500  207.0220  154.4930 C   0  0  0  0  0  2  0  0  0  0  0  0
  1 10  1  6  0  0  0
  1  7  1  0  0  0  0
  1  4  1  0  0  0  0
  2  7  2  0  0  0  0
  3  5  1  0  0  0  0
  4  6  1  0  0  0  0
  5 29  1  0  0  0  0
  6  5  1  0  0  0  0
  7  3  1  0  0  0  0
  8 10  2  0  0  0  0
  9 10  1  0  0  0  0
  9 11  1  0  0  0  0
 12 11  1  0  0  0  0
 12 13  1  0  0  0  0
 14 13  1  1  0  0  0
 14 16  1  0  0  0  0
 15 14  1  0  0  0  0
 16 15  1  6  0  0  0
 17 25  1  0  0  0  0
 18 17  1  1  0  0  0
 19 26  1  6  0  0  0
 19 20  1  0  0  0  0
 20 22  1  1  0  0  0
 20 18  1  0  0  0  0
 21 27  1  6  0  0  0
 21 24  1  0  0  0  0
 21 23  1  0  0  0  0
 23 18  1  0  0  0  0
 23 28  1  0  0  0  0
 24 23  1  0  0  0  0
 24 18  1  0  0  0  0
 27 19  1  0  0  0  0
 28 16  1  0  0  0  0
 28 25  1  0  0  0  0
 29 36  1  0  0  0  0
 29 34  1  0  0  0  0
 30 31  1  0  0  0  0
 31 35  1  0  0  0  0
 32 34  1  0  0  0  0
 32 30  1  0  0  0  0
 33 35  1  0  0  0  0
 34 33  1  0  0  0  0
 36 37  1  0  0  0  0
 38 39  2  0  0  0  0
 39 37  1  0  0  0  0
 39 41  1  0  0  0  0
 41 42  1  0  0  0  0
 41 40  1  0  0  0  0
 43 44  1  0  0  0  0
 44 41  1  0  0  0  0
M  END
>  <MODEL>
2

>  <REMARK>
 VINA RESULT:      -7.1      4.978      8.634
  Name = 
  12 active torsions:
  status: ('A' for Active; 'I' for Inactive)
    1  A    between atoms: C_5  and  C_21
    2  A    between atoms: C_10  and  N_11
    3  A    between atoms: C_10  and  C_20
    4  A    between atoms: C_13  and  C_39
    5  A    between atoms: C_14  and  C_32
    6  A    between atoms: C_14  and  C_39
    7  A    between atoms: N_19  and  C_32
    8  A    between atoms: C_20  and  C_27
    9  A    between atoms: C_20  and  N_30
   10  A    between atoms: C_26  and  C_34
   11  A    between atoms: C_26  and  C_43
   12  A    between atoms: C_36  and  C_42
                            x       y       z     vdW  Elec       q    Type
                         _______ _______ _______ _____ _____    ______ ____

>  <TORSDO>
F 12

$$$$
=
 OpenBabel11072413423D

 44 50  0  0  1  0  0  0  0  0999 V2000
  161.1530  209.1820  153.1430 C   0  0  2  0  0  3  0  0  0  0  0  0
  162.9340  210.4430  154.0460 O   0  0  0  0  0  0  0  0  0  0  0  0
  161.0220  211.7520  153.6300 C   0  0  0  0  0  2  0  0  0  0  0  0
  159.6230  209.2110  153.0490 C   0  0  0  0  0  2  0  0  0  0  0  0
  159.5830  211.5350  153.8150 N   0  0  0  0  0  0  0  0  0  0  0  0
  159.0850  210.6170  152.7920 C   0  0  0  0  0  2  0  0  0  0  0  0
  161.7810  210.4560  153.6450 C   0  0  0  0  0  0  0  0  0  0  0  0
  161.9310  209.3600  150.8800 N   0  0  0  0  0  2  0  0  0  0  0  0
  162.3510  207.2760  151.8670 N   0  0  0  0  0  2  0  0  0  0  0  0
  161.8310  208.6110  151.9260 C   0  0  0  0  0  0  0  0  0  0  0  0
  162.3140  206.3070  152.9530 C   0  0  0  0  0  2  0  0  0  0  0  0
  160.8960  205.8030  153.1760 C   0  0  0  0  0  2  0  0  0  0  0  0
  160.6270  204.5200  152.4030 C   0  0  0  0  0  2  0  0  0  0  0  0
  161.5670  204.3990  151.2140 C   0  0  1  0  0  3  0  0  0  0  0  0
  161.2310  203.1610  150.4090 C   0  0  0  0  0  2  0  0  0  0  0  0
  160.7600  204.5220  149.9380 C   0  0  2  0  0  3  0  0  0  0  0  0
  161.4970  206.8790  147.2070 C   0  0  0  0  0  2  0  0  0  0  0  0
  161.4090  205.5640  146.4490 C   0  0  2  0  0  0  0  0  0  0  0  0
  160.6100  203.8890  144.7130 C   0  0  2  0  0  3  0  0  0  0  0  0
  160.4080  205.3020  145.3190 C   0  0  2  0  0  3  0  0  0  0  0  0
  161.7800  203.2020  146.9570 C   0  0  2  0  0  3  0  0  0  0  0  0
  160.5580  206.2560  144.3260 F   0  0  0  0  0  0  0  0  0  0  0  0
  161.2210  204.5050  147.4900 C   0  0  1  0  0  0  0  0  0  0  0  0
  162.4820  204.5130  146.6560 C   0  0  2  0  0  3  0  0  0  0  0  0
  161.5020  206.5490  148.7030 C   0  0  0  0  0  2  0  0  0  0  0  0
  159.5070  203.5400  143.9330 O   0  0  0  0  0  1  0  0  0  0  0  0
  160.8630  202.7870  145.7800 C   0  0  0  0  0  2  0  0  0  0  0  0
  161.6630  205.0390  148.8310 C   0  0  1  0  0  3  0  0  0  0  0  0
  158.8400  212.8000  153.6990 C   0  0  2  0  0  3  0  0  0  0  0  0
  155.7220  213.8770  155.4630 C   0  0  0  0  0  2  0  0  0  0  0  0
  155.5480  212.7920  156.5240 C   0  0  0  0  0  2  0  0  0  0  0  0
  156.5440  213.3750  154.3640 N   0  0  0  0  0  2  0  0  0  0  0  0
  157.8290  211.9650  155.9090 C   0  0  0  0  0  2  0  0  0  0  0  0
  157.8860  213.0980  154.8750 C   0  0  1  0  0  3  0  0  0  0  0  0
  156.9130  212.3710  157.0590 C   0  0  0  0  0  2  0  0  0  0  0  0
  158.1910  212.9570  152.3240 C   0  0  0  0  0  2  0  0  0  0  0  0
  159.1960  213.2880  151.3240 N   0  0  0  0  0  2  0  0  0  0  0  0
  157.8120  212.8120  149.5050 O   0  0  0  0  0  0  0  0  0  0  0  0
  158.9390  213.2090  149.9160 C   0  0  0  0  0  0  0  0  0  0  0  0
  161.0560  214.4520  149.6720 C   0  0  0  0  0  1  0  0  0  0  0  0
  160.0120  213.6220  148.9420 C   0  0  0  0  0  0  0  0  0  0  0  0
  160.7010  212.4070  148.3340 C   0  0  0  0  0  1  0  0  0  0  0  0
  159.6560  213.9210  146.5710 O   0  0  0  0  0  1  0  0  0  0  0  0
  159.3730  214.4530  147.8310 C   0  0  0  0  0  2  0  0  0  0  0  0
  1 10  1  6  0  0  0
  1  7  1  0  0  0  0
  3  7  1  0  0  0  0
  3  5  1  0  0  0  0
  4  1  1  0  0  0  0
  6  4  1  0  0  0  0
  6  5  1  0  0  0  0
  7  2  2  0  0  0  0
  8 10  2  0  0  0  0
  9 10  1  0  0  0  0
  9 11  1  0  0  0  0
 11 12  1  0  0  0  0
 13 12  1  0  0  0  0
 14 13  1  1  0  0  0
 15 14  1  0  0  0  0
 16 15  1  6  0  0  0
 16 14  1  0  0  0  0
 17 25  1  0  0  0  0
 18 24  1  0  0  0  0
 18 17  1  1  0  0  0
 18 23  1  0  0  0  0
 19 26  1  1  0  0  0
 19 20  1  0  0  0  0
 19 27  1  0  0  0  0
 20 22  1  6  0  0  0
 20 18  1  0  0  0  0
 21 27  1  6  0  0  0
 21 23  1  0  0  0  0
 23 28  1  0  0  0  0
 24 21  1  0  0  0  0
 24 23  1  0  0  0  0
 25 28  1  0  0  0  0
 28 16  1  0  0  0  0
 29  5  1  0  0  0  0
 29 34  1  0  0  0  0
 30 31  1  0  0  0  0
 31 35  1  0  0  0  0
 32 34  1  0  0  0  0
 32 30  1  0  0  0  0
 33 35  1  0  0  0  0
 34 33  1  0  0  0  0
 36 29  1  0  0  0  0
 37 36  1  0  0  0  0
 38 39  2  0  0  0  0
 39 37  1  0  0  0  0
 41 40  1  0  0  0  0
 41 39  1  0  0  0  0
 42 41  1  0  0  0  0
 43 44  1  0  0  0  0
 44 41  1  0  0  0  0
M  END
>  <MODEL>
3

>  <REMARK>
 VINA RESULT:      -6.8      4.484      9.641
  Name = 
  12 active torsions:
  status: ('A' for Active; 'I' for Inactive)
    1  A    between atoms: C_5  and  C_21
    2  A    between atoms: C_10  and  N_11
    3  A    between atoms: C_10  and  C_20
    4  A    between atoms: C_13  and  C_39
    5  A    between atoms: C_14  and  C_32
    6  A    between atoms: C_14  and  C_39
    7  A    between atoms: N_19  and  C_32
    8  A    between atoms: C_20  and  C_27
    9  A    between atoms: C_20  and  N_30
   10  A    between atoms: C_26  and  C_34
   11  A    between atoms: C_26  and  C_43
   12  A    between atoms: C_36  and  C_42
                            x       y       z     vdW  Elec       q    Type
                         _______ _______ _______ _____ _____    ______ ____

>  <TORSDO>
F 12

$$$$
=
 OpenBabel11072413423D

 44 50  0  0  1  0  0  0  0  0999 V2000
  159.0190  210.5220  154.0390 C   0  0  2  0  0  3  0  0  0  0  0  0
  156.7660  210.8840  154.6460 O   0  0  0  0  0  0  0  0  0  0  0  0
  157.6630  212.6700  153.4020 C   0  0  0  0  0  2  0  0  0  0  0  0
  160.0300  210.9490  152.9680 C   0  0  0  0  0  2  0  0  0  0  0  0
  158.5460  212.7500  152.2330 N   0  0  0  0  0  0  0  0  0  0  0  0
  159.9180  212.4330  152.6260 C   0  0  0  0  0  2  0  0  0  0  0  0
  157.7440  211.3230  154.0610 C   0  0  0  0  0  0  0  0  0  0  0  0
  159.1250  210.9610  156.3960 N   0  0  0  0  0  2  0  0  0  0  0  0
  160.7320  209.4280  155.6420 N   0  0  0  0  0  2  0  0  0  0  0  0
  159.6230  210.3070  155.4010 C   0  0  0  0  0  0  0  0  0  0  0  0
  161.4080  208.6260  154.6330 C   0  0  0  0  0  2  0  0  0  0  0  0
  160.7810  207.2430  154.5380 C   0  0  0  0  0  2  0  0  0  0  0  0
  161.7080  206.2520  153.8500 C   0  0  0  0  0  2  0  0  0  0  0  0
  161.3230  206.0760  152.3900 C   0  0  1  0  0  3  0  0  0  0  0  0
  162.5510  205.7590  151.5620 C   0  0  0  0  0  2  0  0  0  0  0  0
  161.6100  204.6460  151.9780 C   0  0  2  0  0  3  0  0  0  0  0  0
  160.6980  202.4650  149.1540 C   0  0  0  0  0  2  0  0  0  0  0  0
  160.9740  203.7780  148.4380 C   0  0  2  0  0  0  0  0  0  0  0  0
  162.0370  205.3840  146.7810 C   0  0  2  0  0  3  0  0  0  0  0  0
  162.0420  203.9430  147.3530 C   0  0  2  0  0  3  0  0  0  0  0  0
  160.8730  206.1550  149.0010 C   0  0  2  0  0  3  0  0  0  0  0  0
  161.8160  203.0400  146.3280 F   0  0  0  0  0  0  0  0  0  0  0  0
  161.2490  204.7800  149.5160 C   0  0  1  0  0  0  0  0  0  0  0  0
  160.0290  204.9480  148.6380 C   0  0  2  0  0  3  0  0  0  0  0  0
  160.6750  202.7570  150.6580 C   0  0  0  0  0  2  0  0  0  0  0  0
  163.2030  205.6140  146.0510 O   0  0  0  0  0  1  0  0  0  0  0  0
  161.8780  206.4830  147.8710 C   0  0  0  0  0  2  0  0  0  0  0  0
  160.6940  204.2720  150.8240 C   0  0  1  0  0  3  0  0  0  0  0  0
  158.5340  214.1040  151.6550 C   0  0  2  0  0  3  0  0  0  0  0  0
  156.2770  214.3710  148.6840 C   0  0  0  0  0  2  0  0  0  0  0  0
  154.9300  213.9230  149.2470 C   0  0  0  0  0  2  0  0  0  0  0  0
  157.3640  213.8460  149.5080 N   0  0  0  0  0  2  0  0  0  0  0  0
  155.9700  214.0000  151.5230 C   0  0  0  0  0  2  0  0  0  0  0  0
  157.2700  214.4460  150.8390 C   0  0  1  0  0  3  0  0  0  0  0  0
  154.7760  214.4320  150.6770 C   0  0  0  0  0  2  0  0  0  0  0  0
  159.8420  214.4270  150.9320 C   0  0  0  0  0  2  0  0  0  0  0  0
  160.2800  213.2860  150.1420 N   0  0  0  0  0  2  0  0  0  0  0  0
  162.0510  214.4260  149.1350 O   0  0  0  0  0  0  0  0  0  0  0  0
  161.4120  213.3440  149.2640 C   0  0  0  0  0  0  0  0  0  0  0  0
  163.1990  212.3450  147.8880 C   0  0  0  0  0  1  0  0  0  0  0  0
  161.8390  212.1040  148.5220 C   0  0  0  0  0  0  0  0  0  0  0  0
  161.9510  210.9100  149.4630 C   0  0  0  0  0  1  0  0  0  0  0  0
  160.7520  212.8270  146.4890 O   0  0  0  0  0  1  0  0  0  0  0  0
  160.8070  211.8020  147.4380 C   0  0  0  0  0  2  0  0  0  0  0  0
  1  7  1  0  0  0  0
  1 10  1  1  0  0  0
  3  7  1  0  0  0  0
  4  1  1  0  0  0  0
  5  6  1  0  0  0  0
  5  3  1  0  0  0  0
  6  4  1  0  0  0  0
  7  2  2  0  0  0  0
 10  9  1  0  0  0  0
 10  8  2  0  0  0  0
 11  9  1  0  0  0  0
 12 11  1  0  0  0  0
 13 12  1  0  0  0  0
 14 13  1  1  0  0  0
 15 14  1  0  0  0  0
 16 15  1  6  0  0  0
 16 14  1  0  0  0  0
 17 25  1  0  0  0  0
 18 24  1  0  0  0  0
 18 17  1  1  0  0  0
 18 23  1  0  0  0  0
 19 26  1  1  0  0  0
 19 20  1  0  0  0  0
 19 27  1  0  0  0  0
 20 22  1  6  0  0  0
 20 18  1  0  0  0  0
 21 27  1  6  0  0  0
 21 23  1  0  0  0  0
 23 28  1  0  0  0  0
 24 21  1  0  0  0  0
 24 23  1  0  0  0  0
 25 28  1  0  0  0  0
 28 16  1  0  0  0  0
 29  5  1  0  0  0  0
 30 31  1  0  0  0  0
 30 32  1  0  0  0  0
 31 35  1  0  0  0  0
 32 34  1  0  0  0  0
 34 33  1  0  0  0  0
 34 29  1  0  0  0  0
 35 33  1  0  0  0  0
 36 29  1  0  0  0  0
 37 36  1  0  0  0  0
 38 39  2  0  0  0  0
 39 37  1  0  0  0  0
 40 41  1  0  0  0  0
 41 39  1  0  0  0  0
 41 42  1  0  0  0  0
 43 44  1  0  0  0  0
 44 41  1  0  0  0  0
M  END
>  <MODEL>
4

>  <REMARK>
 VINA RESULT:      -6.5      4.798      9.668
  Name = 
  12 active torsions:
  status: ('A' for Active; 'I' for Inactive)
    1  A    between atoms: C_5  and  C_21
    2  A    between atoms: C_10  and  N_11
    3  A    between atoms: C_10  and  C_20
    4  A    between atoms: C_13  and  C_39
    5  A    between atoms: C_14  and  C_32
    6  A    between atoms: C_14  and  C_39
    7  A    between atoms: N_19  and  C_32
    8  A    between atoms: C_20  and  C_27
    9  A    between atoms: C_20  and  N_30
   10  A    between atoms: C_26  and  C_34
   11  A    between atoms: C_26  and  C_43
   12  A    between atoms: C_36  and  C_42
                            x       y       z     vdW  Elec       q    Type
                         _______ _______ _______ _____ _____    ______ ____

>  <TORSDO>
F 12

$$$$
=
 OpenBabel11072413423D

 44 50  0  0  1  0  0  0  0  0999 V2000
  160.8180  207.7220  152.5360 C   0  0  2  0  0  3  0  0  0  0  0  0
  160.5330  207.3430  154.8500 O   0  0  0  0  0  0  0  0  0  0  0  0
  160.5460  209.6340  154.3060 C   0  0  0  0  0  2  0  0  0  0  0  0
  160.5070  208.7820  151.4730 C   0  0  0  0  0  2  0  0  0  0  0  0
  159.9700  210.4200  153.2090 N   0  0  0  0  0  0  0  0  0  0  0  0
  160.7390  210.2020  151.9850 C   0  0  0  0  0  2  0  0  0  0  0  0
  160.6160  208.1740  153.9590 C   0  0  0  0  0  0  0  0  0  0  0  0
  163.0510  207.5990  151.6650 N   0  0  0  0  0  2  0  0  0  0  0  0
  162.3490  205.6490  152.7620 N   0  0  0  0  0  2  0  0  0  0  0  0
  162.1140  206.9900  152.3110 C   0  0  0  0  0  0  0  0  0  0  0  0
  161.4000  204.8260  153.4970 C   0  0  0  0  0  2  0  0  0  0  0  0
  160.3990  204.1830  152.5480 C   0  0  0  0  0  2  0  0  0  0  0  0
  160.9480  202.9030  151.9350 C   0  0  0  0  0  2  0  0  0  0  0  0
  161.5350  203.1700  150.5590 C   0  0  1  0  0  3  0  0  0  0  0  0
  160.5380  202.7900  149.4840 C   0  0  0  0  0  2  0  0  0  0  0  0
  160.7110  204.2430  149.8760 C   0  0  2  0  0  3  0  0  0  0  0  0
  161.2740  206.9560  147.4500 C   0  0  0  0  0  2  0  0  0  0  0  0
  161.3240  205.7340  146.5470 C   0  0  2  0  0  0  0  0  0  0  0  0
  160.7170  204.2040  144.6110 C   0  0  2  0  0  3  0  0  0  0  0  0
  160.3730  205.5140  145.3660 C   0  0  2  0  0  3  0  0  0  0  0  0
  161.9050  203.3720  146.7960 C   0  0  2  0  0  3  0  0  0  0  0  0
  160.4510  206.5840  144.4920 F   0  0  0  0  0  0  0  0  0  0  0  0
  161.2160  204.5500  147.4560 C   0  0  1  0  0  0  0  0  0  0  0  0
  162.4870  204.7670  146.6650 C   0  0  2  0  0  3  0  0  0  0  0  0
  161.2830  206.4570  148.8990 C   0  0  0  0  0  2  0  0  0  0  0  0
  159.6660  203.8480  143.7650 O   0  0  0  0  0  1  0  0  0  0  0  0
  161.0520  203.0140  145.5540 C   0  0  0  0  0  2  0  0  0  0  0  0
  161.5820  204.9630  148.8610 C   0  0  1  0  0  3  0  0  0  0  0  0
  159.9990  211.8590  153.5210 C   0  0  2  0  0  3  0  0  0  0  0  0
  159.9560  212.7280  157.1590 C   0  0  0  0  0  2  0  0  0  0  0  0
  158.9530  213.8790  157.2140 C   0  0  0  0  0  2  0  0  0  0  0  0
  160.5020  212.6050  155.8080 N   0  0  0  0  0  2  0  0  0  0  0  0
  158.3800  213.3620  154.8330 C   0  0  0  0  0  2  0  0  0  0  0  0
  159.4180  212.2320  154.9010 C   0  0  1  0  0  3  0  0  0  0  0  0
  157.8190  213.6210  156.2270 C   0  0  0  0  0  2  0  0  0  0  0  0
  159.4490  212.7030  152.3710 C   0  0  0  0  0  2  0  0  0  0  0  0
  160.2940  212.5680  151.1930 N   0  0  0  0  0  2  0  0  0  0  0  0
  159.0570  214.0700  149.9040 O   0  0  0  0  0  0  0  0  0  0  0  0
  160.0530  213.2970  149.9830 C   0  0  0  0  0  0  0  0  0  0  0  0
  160.2230  212.7540  147.5820 C   0  0  0  0  0  1  0  0  0  0  0  0
  161.0050  213.1470  148.8250 C   0  0  0  0  0  0  0  0  0  0  0  0
  161.7370  214.4530  148.5400 C   0  0  0  0  0  1  0  0  0  0  0  0
  161.7830  210.8940  148.4290 O   0  0  0  0  0  1  0  0  0  0  0  0
  162.0210  212.0580  149.1640 C   0  0  0  0  0  2  0  0  0  0  0  0
  1 10  1  1  0  0  0
  1  7  1  0  0  0  0
  4  6  1  0  0  0  0
  4  1  1  0  0  0  0
  5 29  1  0  0  0  0
  5  3  1  0  0  0  0
  6  5  1  0  0  0  0
  7  3  1  0  0  0  0
  7  2  2  0  0  0  0
  8 10  2  0  0  0  0
  9 11  1  0  0  0  0
 10  9  1  0  0  0  0
 12 11  1  0  0  0  0
 13 12  1  0  0  0  0
 14 13  1  1  0  0  0
 15 14  1  0  0  0  0
 16 15  1  6  0  0  0
 16 14  1  0  0  0  0
 17 25  1  0  0  0  0
 18 24  1  0  0  0  0
 18 17  1  1  0  0  0
 18 23  1  0  0  0  0
 19 26  1  1  0  0  0
 19 20  1  0  0  0  0
 19 27  1  0  0  0  0
 20 22  1  6  0  0  0
 20 18  1  0  0  0  0
 21 27  1  6  0  0  0
 21 23  1  0  0  0  0
 23 28  1  0  0  0  0
 24 21  1  0  0  0  0
 24 23  1  0  0  0  0
 28 25  1  0  0  0  0
 28 16  1  0  0  0  0
 29 34  1  0  0  0  0
 30 31  1  0  0  0  0
 32 30  1  0  0  0  0
 33 34  1  0  0  0  0
 33 35  1  0  0  0  0
 34 32  1  0  0  0  0
 35 31  1  0  0  0  0
 36 29  1  0  0  0  0
 37 36  1  0  0  0  0
 38 39  2  0  0  0  0
 39 37  1  0  0  0  0
 40 41  1  0  0  0  0
 41 44  1  0  0  0  0
 41 39  1  0  0  0  0
 42 41  1  0  0  0  0
 43 44  1  0  0  0  0
M  END
>  <MODEL>
5

>  <REMARK>
 VINA RESULT:      -6.2      4.217      9.501
  Name = 
  12 active torsions:
  status: ('A' for Active; 'I' for Inactive)
    1  A    between atoms: C_5  and  C_21
    2  A    between atoms: C_10  and  N_11
    3  A    between atoms: C_10  and  C_20
    4  A    between atoms: C_13  and  C_39
    5  A    between atoms: C_14  and  C_32
    6  A    between atoms: C_14  and  C_39
    7  A    between atoms: N_19  and  C_32
    8  A    between atoms: C_20  and  C_27
    9  A    between atoms: C_20  and  N_30
   10  A    between atoms: C_26  and  C_34
   11  A    between atoms: C_26  and  C_43
   12  A    between atoms: C_36  and  C_42
                            x       y       z     vdW  Elec       q    Type
                         _______ _______ _______ _____ _____    ______ ____

>  <TORSDO>
F 12

$$$$
=
 OpenBabel11072413423D

 44 50  0  0  1  0  0  0  0  0999 V2000
  161.9100  211.3590  150.1730 C   0  0  2  0  0  3  0  0  0  0  0  0
  161.5090  210.7260  152.4130 O   0  0  0  0  0  0  0  0  0  0  0  0
  161.2790  208.9270  150.9120 C   0  0  0  0  0  2  0  0  0  0  0  0
  162.3550  210.7440  148.8410 C   0  0  0  0  0  2  0  0  0  0  0  0
  162.0300  208.4880  149.7300 N   0  0  0  0  0  0  0  0  0  0  0  0
  161.7360  209.3700  148.6020 C   0  0  0  0  0  2  0  0  0  0  0  0
  161.5720  210.3600  151.2500 C   0  0  0  0  0  0  0  0  0  0  0  0
  159.8500  212.4260  150.7860 N   0  0  0  0  0  2  0  0  0  0  0  0
  161.0250  213.5340  149.0860 N   0  0  0  0  0  2  0  0  0  0  0  0
  160.8950  212.4620  150.0300 C   0  0  0  0  0  0  0  0  0  0  0  0
  162.1350  213.7160  148.1630 C   0  0  0  0  0  2  0  0  0  0  0  0
  161.6270  213.8900  146.7390 C   0  0  0  0  0  2  0  0  0  0  0  0
  162.6770  213.4870  145.7140 C   0  0  0  0  0  2  0  0  0  0  0  0
  162.3270  214.0320  144.3390 C   0  0  1  0  0  3  0  0  0  0  0  0
  163.4970  213.8550  143.3950 C   0  0  0  0  0  2  0  0  0  0  0  0
  162.3310  212.8890  143.3450 C   0  0  2  0  0  3  0  0  0  0  0  0
  159.3110  212.2810  141.3260 C   0  0  0  0  0  2  0  0  0  0  0  0
  160.4080  212.0270  140.3040 C   0  0  2  0  0  0  0  0  0  0  0  0
  161.7610  210.7740  138.5560 C   0  0  2  0  0  3  0  0  0  0  0  0
  160.5920  210.6940  139.5720 C   0  0  2  0  0  3  0  0  0  0  0  0
  162.7060  212.7850  139.9500 C   0  0  2  0  0  3  0  0  0  0  0  0
  159.4260  210.3560  138.9080 F   0  0  0  0  0  0  0  0  0  0  0  0
  161.6940  212.3590  140.9950 C   0  0  1  0  0  0  0  0  0  0  0  0
  161.2500  213.1890  139.8120 C   0  0  2  0  0  3  0  0  0  0  0  0
  159.9700  212.9000  142.5640 C   0  0  0  0  0  2  0  0  0  0  0  0
  162.1290  209.4930  138.1470 O   0  0  0  0  0  1  0  0  0  0  0  0
  163.0090  211.5250  139.1030 C   0  0  0  0  0  2  0  0  0  0  0  0
  161.4080  213.2370  142.1890 C   0  0  1  0  0  3  0  0  0  0  0  0
  161.6600  207.1150  149.3510 C   0  0  2  0  0  3  0  0  0  0  0  0
  160.4530  204.0520  151.1260 C   0  0  0  0  0  2  0  0  0  0  0  0
  161.3420  204.0150  152.3680 C   0  0  0  0  0  2  0  0  0  0  0  0
  161.0980  204.8330  150.0730 N   0  0  0  0  0  2  0  0  0  0  0  0
  162.1450  206.3010  151.7390 C   0  0  0  0  0  2  0  0  0  0  0  0
  161.2100  206.2200  150.5240 C   0  0  1  0  0  3  0  0  0  0  0  0
  161.5910  205.4350  152.8660 C   0  0  0  0  0  2  0  0  0  0  0  0
  162.7140  206.4680  148.4510 C   0  0  0  0  0  2  0  0  0  0  0  0
  162.1850  206.2790  147.1070 N   0  0  0  0  0  2  0  0  0  0  0  0
  161.7660  204.0000  147.3930 O   0  0  0  0  0  0  0  0  0  0  0  0
  161.7080  205.0110  146.6380 C   0  0  0  0  0  0  0  0  0  0  0  0
  159.8330  205.7080  145.1950 C   0  0  0  0  0  1  0  0  0  0  0  0
  161.1230  204.9060  145.2530 C   0  0  0  0  0  0  0  0  0  0  0  0
  162.0820  205.4600  144.2070 C   0  0  0  0  0  1  0  0  0  0  0  0
  159.6490  203.2890  144.2280 O   0  0  0  0  0  1  0  0  0  0  0  0
  160.8350  203.4370  144.9530 C   0  0  0  0  0  2  0  0  0  0  0  0
  1 10  1  6  0  0  0
  1  7  1  0  0  0  0
  3  7  1  0  0  0  0
  4  1  1  0  0  0  0
  5  3  1  0  0  0  0
  6  4  1  0  0  0  0
  6  5  1  0  0  0  0
  7  2  2  0  0  0  0
  9 10  1  0  0  0  0
 10  8  2  0  0  0  0
 11  9  1  0  0  0  0
 12 11  1  0  0  0  0
 13 12  1  0  0  0  0
 14 13  1  1  0  0  0
 15 14  1  0  0  0  0
 16 15  1  6  0  0  0
 16 14  1  0  0  0  0
 17 25  1  0  0  0  0
 18 23  1  0  0  0  0
 18 17  1  1  0  0  0
 19 26  1  1  0  0  0
 19 27  1  0  0  0  0
 19 20  1  0  0  0  0
 20 22  1  6  0  0  0
 20 18  1  0  0  0  0
 21 27  1  6  0  0  0
 21 23  1  0  0  0  0
 23 28  1  0  0  0  0
 24 21  1  0  0  0  0
 24 18  1  0  0  0  0
 24 23  1  0  0  0  0
 28 25  1  0  0  0  0
 28 16  1  0  0  0  0
 29  5  1  0  0  0  0
 29 34  1  0  0  0  0
 30 31  1  0  0  0  0
 31 35  1  0  0  0  0
 32 34  1  0  0  0  0
 32 30  1  0  0  0  0
 33 35  1  0  0  0  0
 34 33  1  0  0  0  0
 36 29  1  0  0  0  0
 37 36  1  0  0  0  0
 39 37  1  0  0  0  0
 39 38  2  0  0  0  0
 40 41  1  0  0  0  0
 41 39  1  0  0  0  0
 42 41  1  0  0  0  0
 43 44  1  0  0  0  0
 44 41  1  0  0  0  0
M  END
>  <MODEL>
6

>  <REMARK>
 VINA RESULT:      -6.1      1.541      3.218
  Name = 
  12 active torsions:
  status: ('A' for Active; 'I' for Inactive)
    1  A    between atoms: C_5  and  C_21
    2  A    between atoms: C_10  and  N_11
    3  A    between atoms: C_10  and  C_20
    4  A    between atoms: C_13  and  C_39
    5  A    between atoms: C_14  and  C_32
    6  A    between atoms: C_14  and  C_39
    7  A    between atoms: N_19  and  C_32
    8  A    between atoms: C_20  and  C_27
    9  A    between atoms: C_20  and  N_30
   10  A    between atoms: C_26  and  C_34
   11  A    between atoms: C_26  and  C_43
   12  A    between atoms: C_36  and  C_42
                            x       y       z     vdW  Elec       q    Type
                         _______ _______ _______ _____ _____    ______ ____

>  <TORSDO>
F 12

$$$$
=
 OpenBabel11072413423D

 44 50  0  0  1  0  0  0  0  0999 V2000
  160.0940  210.1780  155.3800 C   0  0  2  0  0  3  0  0  0  0  0  0
  160.4250  212.0400  156.7950 O   0  0  0  0  0  0  0  0  0  0  0  0
  159.8020  212.6650  154.6130 C   0  0  0  0  0  2  0  0  0  0  0  0
  159.3250  209.7880  154.1130 C   0  0  0  0  0  2  0  0  0  0  0  0
  158.8340  212.1390  153.6430 N   0  0  0  0  0  0  0  0  0  0  0  0
  159.3400  210.8970  153.0630 C   0  0  0  0  0  2  0  0  0  0  0  0
  160.1180  211.6550  155.6780 C   0  0  0  0  0  0  0  0  0  0  0  0
  162.3930  210.1760  156.0710 N   0  0  0  0  0  2  0  0  0  0  0  0
  161.7130  208.1900  155.0260 N   0  0  0  0  0  2  0  0  0  0  0  0
  161.4380  209.5130  155.5100 C   0  0  0  0  0  0  0  0  0  0  0  0
  160.7530  207.3160  154.3690 C   0  0  0  0  0  2  0  0  0  0  0  0
  161.4330  206.0500  153.8690 C   0  0  0  0  0  2  0  0  0  0  0  0
  160.7080  205.4580  152.6700 C   0  0  0  0  0  2  0  0  0  0  0  0
  161.6350  205.3640  151.4690 C   0  0  1  0  0  3  0  0  0  0  0  0
  161.4100  204.0570  150.7380 C   0  0  0  0  0  2  0  0  0  0  0  0
  160.7990  205.3370  150.2060 C   0  0  2  0  0  3  0  0  0  0  0  0
  161.1870  207.4650  147.2260 C   0  0  0  0  0  2  0  0  0  0  0  0
  161.3530  206.0790  146.6250 C   0  0  2  0  0  0  0  0  0  0  0  0
  160.9110  204.1030  145.0880 C   0  0  2  0  0  3  0  0  0  0  0  0
  160.4470  205.5170  145.5250 C   0  0  2  0  0  3  0  0  0  0  0  0
  162.1210  203.8920  147.4060 C   0  0  2  0  0  3  0  0  0  0  0  0
  160.4540  206.3640  144.4300 F   0  0  0  0  0  0  0  0  0  0  0  0
  161.3250  205.1270  147.7800 C   0  0  1  0  0  0  0  0  0  0  0  0
  162.5890  205.2650  146.9610 C   0  0  2  0  0  3  0  0  0  0  0  0
  161.2070  207.3110  148.7500 C   0  0  0  0  0  2  0  0  0  0  0  0
  159.9100  203.4780  144.3450 O   0  0  0  0  0  1  0  0  0  0  0  0
  161.3250  203.1910  146.2780 C   0  0  0  0  0  2  0  0  0  0  0  0
  161.6280  205.8790  149.0530 C   0  0  1  0  0  3  0  0  0  0  0  0
  158.6070  213.0990  152.5510 C   0  0  2  0  0  3  0  0  0  0  0  0
  161.2140  212.0250  150.0930 C   0  0  0  0  0  2  0  0  0  0  0  0
  161.0930  213.0810  148.9970 C   0  0  0  0  0  2  0  0  0  0  0  0
  159.9710  211.9520  150.8570 N   0  0  0  0  0  2  0  0  0  0  0  0
  159.5750  214.3530  150.5270 C   0  0  0  0  0  2  0  0  0  0  0  0
  159.7750  213.2250  151.5500 C   0  0  1  0  0  3  0  0  0  0  0  0
  160.7990  214.4410  149.6220 C   0  0  0  0  0  2  0  0  0  0  0  0
  158.0920  214.4430  153.0690 C   0  0  0  0  0  2  0  0  0  0  0  0
  157.5840  214.3010  154.4260 N   0  0  0  0  0  2  0  0  0  0  0  0
  155.4610  213.5970  153.7570 O   0  0  0  0  0  0  0  0  0  0  0  0
  156.2510  213.8550  154.7090 C   0  0  0  0  0  0  0  0  0  0  0  0
  156.9050  214.2070  157.0610 C   0  0  0  0  0  1  0  0  0  0  0  0
  155.8160  213.6790  156.1410 C   0  0  0  0  0  0  0  0  0  0  0  0
  154.5310  214.4480  156.4240 C   0  0  0  0  0  1  0  0  0  0  0  0
  156.8000  211.5000  156.4840 O   0  0  0  0  0  1  0  0  0  0  0  0
  155.5890  212.1930  156.4050 C   0  0  0  0  0  2  0  0  0  0  0  0
  1 10  1  6  0  0  0
  1  7  1  0  0  0  0
  3  7  1  0  0  0  0
  4  1  1  0  0  0  0
  5  3  1  0  0  0  0
  6  5  1  0  0  0  0
  6  4  1  0  0  0  0
  7  2  2  0  0  0  0
  9 10  1  0  0  0  0
 10  8  2  0  0  0  0
 11  9  1  0  0  0  0
 12 11  1  0  0  0  0
 13 12  1  0  0  0  0
 14 13  1  1  0  0  0
 15 14  1  0  0  0  0
 16 15  1  6  0  0  0
 16 14  1  0  0  0  0
 17 25  1  0  0  0  0
 18 24  1  0  0  0  0
 18 17  1  1  0  0  0
 18 23  1  0  0  0  0
 19 26  1  1  0  0  0
 19 20  1  0  0  0  0
 19 27  1  0  0  0  0
 20 22  1  6  0  0  0
 20 18  1  0  0  0  0
 21 27  1  6  0  0  0
 21 23  1  0  0  0  0
 23 28  1  0  0  0  0
 24 21  1  0  0  0  0
 24 23  1  0  0  0  0
 25 28  1  0  0  0  0
 28 16  1  0  0  0  0
 29 36  1  0  0  0  0
 29  5  1  0  0  0  0
 30 32  1  0  0  0  0
 31 35  1  0  0  0  0
 31 30  1  0  0  0  0
 32 34  1  0  0  0  0
 33 34  1  0  0  0  0
 34 29  1  0  0  0  0
 35 33  1  0  0  0  0
 36 37  1  0  0  0  0
 37 39  1  0  0  0  0
 38 39  2  0  0  0  0
 39 41  1  0  0  0  0
 41 44  1  0  0  0  0
 41 42  1  0  0  0  0
 41 40  1  0  0  0  0
 44 43  1  0  0  0  0
M  END
>  <MODEL>
7

>  <REMARK>
 VINA RESULT:      -5.9      5.003      9.586
  Name = 
  12 active torsions:
  status: ('A' for Active; 'I' for Inactive)
    1  A    between atoms: C_5  and  C_21
    2  A    between atoms: C_10  and  N_11
    3  A    between atoms: C_10  and  C_20
    4  A    between atoms: C_13  and  C_39
    5  A    between atoms: C_14  and  C_32
    6  A    between atoms: C_14  and  C_39
    7  A    between atoms: N_19  and  C_32
    8  A    between atoms: C_20  and  C_27
    9  A    between atoms: C_20  and  N_30
   10  A    between atoms: C_26  and  C_34
   11  A    between atoms: C_26  and  C_43
   12  A    between atoms: C_36  and  C_42
                            x       y       z     vdW  Elec       q    Type
                         _______ _______ _______ _____ _____    ______ ____

>  <TORSDO>
F 12

$$$$
=
 OpenBabel11072413423D

 44 50  0  0  1  0  0  0  0  0999 V2000
  161.9600  204.7640  151.6250 C   0  0  2  0  0  3  0  0  0  0  0  0
  161.2090  203.1670  150.0550 O   0  0  0  0  0  0  0  0  0  0  0  0
  161.1160  205.3660  149.2200 C   0  0  0  0  0  2  0  0  0  0  0  0
  162.5650  206.1720  151.6710 C   0  0  0  0  0  2  0  0  0  0  0  0
  162.0100  206.5260  149.3140 N   0  0  0  0  0  0  0  0  0  0  0  0
  161.9230  207.1100  150.6510 C   0  0  0  0  0  2  0  0  0  0  0  0
  161.4230  204.3480  150.2800 C   0  0  0  0  0  0  0  0  0  0  0  0
  160.3590  203.3570  152.7280 N   0  0  0  0  0  2  0  0  0  0  0  0
  160.8370  205.3400  153.8850 N   0  0  0  0  0  2  0  0  0  0  0  0
  161.0290  204.4600  152.7680 C   0  0  0  0  0  0  0  0  0  0  0  0
  161.5090  206.6170  154.0770 C   0  0  0  0  0  2  0  0  0  0  0  0
  160.5630  207.6330  154.7000 C   0  0  0  0  0  2  0  0  0  0  0  0
  160.4660  208.8980  153.8600 C   0  0  0  0  0  2  0  0  0  0  0  0
  160.3800  210.1300  154.7470 C   0  0  1  0  0  3  0  0  0  0  0  0
  161.5720  211.0310  154.5030 C   0  0  0  0  0  2  0  0  0  0  0  0
  160.2360  211.3560  153.8680 C   0  0  2  0  0  3  0  0  0  0  0  0
  157.4620  212.5300  155.9870 C   0  0  0  0  0  2  0  0  0  0  0  0
  157.2600  213.3730  154.7380 C   0  0  2  0  0  0  0  0  0  0  0  0
  156.0640  214.3590  152.7240 C   0  0  2  0  0  3  0  0  0  0  0  0
  155.9800  213.3470  153.8950 C   0  0  2  0  0  3  0  0  0  0  0  0
  158.6750  214.2530  152.9490 C   0  0  2  0  0  3  0  0  0  0  0  0
  154.8870  213.6490  154.6890 F   0  0  0  0  0  0  0  0  0  0  0  0
  158.4140  213.0550  153.8390 C   0  0  1  0  0  0  0  0  0  0  0  0
  158.2690  214.4530  154.3970 C   0  0  2  0  0  3  0  0  0  0  0  0
  158.8200  211.8330  155.8560 C   0  0  0  0  0  2  0  0  0  0  0  0
  155.0610  214.0960  151.7910 O   0  0  0  0  0  1  0  0  0  0  0  0
  157.4480  214.3720  152.0130 C   0  0  0  0  0  2  0  0  0  0  0  0
  159.5290  212.4470  154.6550 C   0  0  1  0  0  3  0  0  0  0  0  0
  161.6360  207.5600  148.3350 C   0  0  2  0  0  3  0  0  0  0  0  0
  162.5610  205.8290  145.1510 C   0  0  0  0  0  2  0  0  0  0  0  0
  161.2650  205.1150  144.7720 C   0  0  0  0  0  2  0  0  0  0  0  0
  162.5750  206.1120  146.5850 N   0  0  0  0  0  2  0  0  0  0  0  0
  160.1370  206.4050  146.5960 C   0  0  0  0  0  2  0  0  0  0  0  0
  161.4980  207.0550  146.8840 C   0  0  1  0  0  3  0  0  0  0  0  0
  160.0700  205.9930  145.1300 C   0  0  0  0  0  2  0  0  0  0  0  0
  162.4980  208.8150  148.4730 C   0  0  0  0  0  2  0  0  0  0  0  0
  161.6600  210.0050  148.5050 N   0  0  0  0  0  2  0  0  0  0  0  0
  163.4230  211.4830  148.1070 O   0  0  0  0  0  0  0  0  0  0  0  0
  162.1850  211.3240  148.2980 C   0  0  0  0  0  0  0  0  0  0  0  0
  160.5300  212.5790  149.6290 C   0  0  0  0  0  1  0  0  0  0  0  0
  161.2450  212.5020  148.2900 C   0  0  0  0  0  0  0  0  0  0  0  0
  162.0010  213.8070  148.0710 C   0  0  0  0  0  1  0  0  0  0  0  0
  158.9910  212.8700  147.5010 O   0  0  0  0  0  1  0  0  0  0  0  0
  160.2270  212.3090  147.1680 C   0  0  0  0  0  2  0  0  0  0  0  0
  1  4  1  0  0  0  0
  1 10  1  1  0  0  0
  2  7  2  0  0  0  0
  3  5  1  0  0  0  0
  3  7  1  0  0  0  0
  5  6  1  0  0  0  0
  6  4  1  0  0  0  0
  7  1  1  0  0  0  0
  8 10  2  0  0  0  0
  9 11  1  0  0  0  0
 10  9  1  0  0  0  0
 11 12  1  0  0  0  0
 13 12  1  0  0  0  0
 14 13  1  6  0  0  0
 15 14  1  0  0  0  0
 16 15  1  1  0  0  0
 16 28  1  0  0  0  0
 16 14  1  0  0  0  0
 18 17  1  1  0  0  0
 19 26  1  6  0  0  0
 19 20  1  0  0  0  0
 20 22  1  1  0  0  0
 20 18  1  0  0  0  0
 21 27  1  6  0  0  0
 21 23  1  0  0  0  0
 21 24  1  0  0  0  0
 23 24  1  0  0  0  0
 23 28  1  0  0  0  0
 23 18  1  0  0  0  0
 24 18  1  0  0  0  0
 25 17  1  0  0  0  0
 27 19  1  0  0  0  0
 28 25  1  0  0  0  0
 29 36  1  0  0  0  0
 29  5  1  0  0  0  0
 30 32  1  0  0  0  0
 31 35  1  0  0  0  0
 31 30  1  0  0  0  0
 32 34  1  0  0  0  0
 33 34  1  0  0  0  0
 34 29  1  0  0  0  0
 35 33  1  0  0  0  0
 36 37  1  0  0  0  0
 38 39  2  0  0  0  0
 39 37  1  0  0  0  0
 41 39  1  0  0  0  0
 41 40  1  0  0  0  0
 42 41  1  0  0  0  0
 44 43  1  0  0  0  0
 44 41  1  0  0  0  0
M  END
>  <MODEL>
8

>  <REMARK>
 VINA RESULT:      -5.4      4.609      9.709
  Name = 
  12 active torsions:
  status: ('A' for Active; 'I' for Inactive)
    1  A    between atoms: C_5  and  C_21
    2  A    between atoms: C_10  and  N_11
    3  A    between atoms: C_10  and  C_20
    4  A    between atoms: C_13  and  C_39
    5  A    between atoms: C_14  and  C_32
    6  A    between atoms: C_14  and  C_39
    7  A    between atoms: N_19  and  C_32
    8  A    between atoms: C_20  and  C_27
    9  A    between atoms: C_20  and  N_30
   10  A    between atoms: C_26  and  C_34
   11  A    between atoms: C_26  and  C_43
   12  A    between atoms: C_36  and  C_42
                            x       y       z     vdW  Elec       q    Type
                         _______ _______ _______ _____ _____    ______ ____

>  <TORSDO>
F 12

$$$$
=
 OpenBabel11072413423D

 44 50  0  0  1  0  0  0  0  0999 V2000
  161.8050  207.2370  151.1350 C   0  0  2  0  0  3  0  0  0  0  0  0
  162.5370  208.5460  149.3110 O   0  0  0  0  0  0  0  0  0  0  0  0
  161.5390  209.8390  151.0060 C   0  0  0  0  0  2  0  0  0  0  0  0
  161.5170  207.3690  152.6350 C   0  0  0  0  0  2  0  0  0  0  0  0
  161.5970  209.8100  152.4720 N   0  0  0  0  0  0  0  0  0  0  0  0
  160.8140  208.6820  152.9750 C   0  0  0  0  0  2  0  0  0  0  0  0
  162.0080  208.5420  150.4110 C   0  0  0  0  0  0  0  0  0  0  0  0
  160.4600  206.6180  149.2460 N   0  0  0  0  0  2  0  0  0  0  0  0
  160.4570  205.0330  150.9750 N   0  0  0  0  0  2  0  0  0  0  0  0
  160.8890  206.2820  150.4170 C   0  0  0  0  0  0  0  0  0  0  0  0
  160.8430  204.5130  152.2780 C   0  0  0  0  0  2  0  0  0  0  0  0
  161.6810  203.2520  152.1260 C   0  0  0  0  0  2  0  0  0  0  0  0
  160.8810  202.1160  151.5070 C   0  0  0  0  0  2  0  0  0  0  0  0
  161.3990  201.7860  150.1160 C   0  0  1  0  0  3  0  0  0  0  0  0
  160.2820  201.2190  149.2650 C   0  0  0  0  0  2  0  0  0  0  0  0
  160.6920  202.6690  149.1090 C   0  0  2  0  0  3  0  0  0  0  0  0
  162.2320  204.7580  146.4960 C   0  0  0  0  0  2  0  0  0  0  0  0
  161.3530  203.8380  145.6620 C   0  0  2  0  0  0  0  0  0  0  0  0
  159.5650  203.1610  143.9890 C   0  0  2  0  0  3  0  0  0  0  0  0
  160.2360  204.3390  144.7410 C   0  0  2  0  0  3  0  0  0  0  0  0
  160.4520  201.5760  145.8800 C   0  0  2  0  0  3  0  0  0  0  0  0
  160.7490  205.2400  143.8240 F   0  0  0  0  0  0  0  0  0  0  0  0
  160.7570  202.8600  146.6260 C   0  0  1  0  0  0  0  0  0  0  0  0
  161.7060  202.3670  145.5560 C   0  0  2  0  0  3  0  0  0  0  0  0
  162.2470  204.2080  147.9250 C   0  0  0  0  0  2  0  0  0  0  0  0
  158.3600  203.5780  143.4230 O   0  0  0  0  0  1  0  0  0  0  0  0
  159.3160  201.9140  144.8840 C   0  0  0  0  0  2  0  0  0  0  0  0
  161.5830  202.8370  147.8890 C   0  0  1  0  0  3  0  0  0  0  0  0
  161.0420  211.0470  153.0460 C   0  0  2  0  0  3  0  0  0  0  0  0
  159.7420  210.5850  156.5230 C   0  0  0  0  0  2  0  0  0  0  0  0
  160.9570  210.0260  157.2610 C   0  0  0  0  0  2  0  0  0  0  0  0
  159.8710  210.3380  155.0880 N   0  0  0  0  0  2  0  0  0  0  0  0
  162.3130  210.5550  155.2250 C   0  0  0  0  0  2  0  0  0  0  0  0
  161.0220  211.0900  154.5880 C   0  0  1  0  0  3  0  0  0  0  0  0
  162.2270  210.6920  156.7410 C   0  0  0  0  0  2  0  0  0  0  0  0
  159.7100  211.4280  152.4000 C   0  0  0  0  0  2  0  0  0  0  0  0
  158.8150  212.0110  153.3900 N   0  0  0  0  0  2  0  0  0  0  0  0
  157.7440  213.4170  151.8660 O   0  0  0  0  0  0  0  0  0  0  0  0
  157.8330  213.0000  153.0550 C   0  0  0  0  0  0  0  0  0  0  0  0
  155.7940  214.3230  153.4750 C   0  0  0  0  0  1  0  0  0  0  0  0
  156.9050  213.5150  154.1250 C   0  0  0  0  0  0  0  0  0  0  0  0
  156.2730  212.3670  154.9040 C   0  0  0  0  0  1  0  0  0  0  0  0
  157.6190  213.9330  156.3950 O   0  0  0  0  0  1  0  0  0  0  0  0
  157.7010  214.4010  155.0800 C   0  0  0  0  0  2  0  0  0  0  0  0
  1 10  1  6  0  0  0
  1  4  1  0  0  0  0
  2  7  2  0  0  0  0
  3  5  1  0  0  0  0
  4  6  1  0  0  0  0
  5  6  1  0  0  0  0
  5 29  1  0  0  0  0
  7  3  1  0  0  0  0
  7  1  1  0  0  0  0
  8 10  2  0  0  0  0
  9 11  1  0  0  0  0
 10  9  1  0  0  0  0
 12 11  1  0  0  0  0
 13 12  1  0  0  0  0
 14 13  1  1  0  0  0
 15 14  1  0  0  0  0
 16 15  1  6  0  0  0
 16 14  1  0  0  0  0
 17 25  1  0  0  0  0
 18 17  1  1  0  0  0
 18 23  1  0  0  0  0
 19 26  1  1  0  0  0
 19 20  1  0  0  0  0
 19 27  1  0  0  0  0
 20 22  1  6  0  0  0
 20 18  1  0  0  0  0
 21 27  1  6  0  0  0
 21 23  1  0  0  0  0
 23 28  1  0  0  0  0
 24 18  1  0  0  0  0
 24 21  1  0  0  0  0
 24 23  1  0  0  0  0
 28 25  1  0  0  0  0
 28 16  1  0  0  0  0
 29 34  1  0  0  0  0
 30 31  1  0  0  0  0
 32 30  1  0  0  0  0
 33 35  1  0  0  0  0
 34 32  1  0  0  0  0
 34 33  1  0  0  0  0
 35 31  1  0  0  0  0
 36 29  1  0  0  0  0
 36 37  1  0  0  0  0
 38 39  2  0  0  0  0
 39 37  1  0  0  0  0
 39 41  1  0  0  0  0
 40 41  1  0  0  0  0
 41 42  1  0  0  0  0
 41 44  1  0  0  0  0
 44 43  1  0  0  0  0
M  END
>  <MODEL>
9

>  <REMARK>
 VINA RESULT:      -5.3      5.490     10.040
  Name = 
  12 active torsions:
  status: ('A' for Active; 'I' for Inactive)
    1  A    between atoms: C_5  and  C_21
    2  A    between atoms: C_10  and  N_11
    3  A    between atoms: C_10  and  C_20
    4  A    between atoms: C_13  and  C_39
    5  A    between atoms: C_14  and  C_32
    6  A    between atoms: C_14  and  C_39
    7  A    between atoms: N_19  and  C_32
    8  A    between atoms: C_20  and  C_27
    9  A    between atoms: C_20  and  N_30
   10  A    between atoms: C_26  and  C_34
   11  A    between atoms: C_26  and  C_43
   12  A    between atoms: C_36  and  C_42
                            x       y       z     vdW  Elec       q    Type
                         _______ _______ _______ _____ _____    ______ ____

>  <TORSDO>
F 12

$$$$
